=
 OpenBabel11052415293D

 37 45  0  0  1  0  0  0  0  0999 V2000
  184.0300  175.2560  136.7570 O   0  0  0  0  0  0  0  0  0  0  0  0
  180.5130  175.5300  135.0980 C   0  0  0  0  0  2  0  0  0  0  0  0
  181.0230  176.5170  140.2230 C   0  0  2  0  0  3  0  0  0  0  0  0
  185.3260  174.7140  136.6330 C   0  0  0  0  0  0  0  0  0  0  0  0
  184.0430  178.8240  139.1080 C   0  0  0  0  0  2  0  0  0  0  0  0
  179.2520  177.2380  136.5480 C   0  0  0  0  0  2  0  0  0  0  0  0
  182.3780  176.9680  139.6730 C   0  0  2  0  0  3  0  0  0  0  0  0
  185.5330  173.8360  135.4250 C   0  0  0  0  0  2  0  0  0  0  0  0
  180.8290  175.1200  139.6560 C   0  0  0  0  0  2  0  0  0  0  0  0
  182.6320  178.4890  139.6140 C   0  0  1  0  0  3  0  0  0  0  0  0
  179.4370  178.0280  137.6920 O   0  0  0  0  0  0  0  0  0  0  0  0
  186.4600  175.4750  137.0220 O   0  0  0  0  0  0  0  0  0  0  0  0
  181.5730  175.0750  138.3220 C   0  0  1  0  0  3  0  0  0  0  0  0
  180.5390  175.2340  137.2110 C   0  0  1  0  0  0  0  0  0  0  0  0
  179.9340  178.9160  140.4300 C   0  0  0  0  0  2  0  0  0  0  0  0
  185.4390  173.2210  136.8190 C   0  0  0  0  0  2  0  0  0  0  0  0
  178.9310  177.2760  138.7610 C   0  0  0  0  0  2  0  0  0  0  0  0
  179.5810  174.0920  136.9190 C   0  0  0  0  0  2  0  0  0  0  0  0
  186.1210  176.8460  137.1200 C   0  0  2  0  0  3  0  0  0  0  0  0
  184.2760  178.2840  137.8380 O   0  0  0  0  0  0  0  0  0  0  0  0
  179.7830  177.4460  140.0270 C   0  0  1  0  0  3  0  0  0  0  0  0
  182.5230  176.2750  138.3270 C   0  0  2  0  0  3  0  0  0  0  0  0
  180.5220  176.4440  136.3040 C   0  0  1  0  0  3  0  0  0  0  0  0
  182.3930  179.2040  140.9660 C   0  0  1  0  0  3  0  0  0  0  0  0
  180.7620  174.3320  136.0090 C   0  0  1  0  0  3  0  0  0  0  0  0
  184.9330  177.0680  138.0800 C   0  0  1  0  0  3  0  0  0  0  0  0
  183.9640  175.8700  138.0200 C   0  0  2  0  0  3  0  0  0  0  0  0
  180.9700  179.0970  141.5280 C   0  0  0  0  0  2  0  0  0  0  0  0
  184.7290  178.5380  141.6840 C   0  0  0  0  0  3  0  0  0  0  0  0
  183.4090  178.8770  142.0230 C   0  0  0  0  0  0  0  0  0  0  0  0
  183.0320  178.9160  143.3700 C   0  0  0  0  0  3  0  0  0  0  0  0
  183.5910  178.6620  145.6730 F   0  0  0  0  0  0  0  0  0  0  0  0
  185.2750  178.2870  144.0290 C   0  0  0  0  0  3  0  0  0  0  0  0
  183.9620  178.6220  144.3710 C   0  0  0  0  0  0  0  0  0  0  0  0
  185.6590  178.2450  142.6850 C   0  0  0  0  0  3  0  0  0  0  0  0
  185.9420  177.4680  135.7320 C   0  0  0  0  0  2  0  0  0  0  0  0
  187.2890  177.8490  135.1500 C   0  0  0  0  0  1  0  0  0  0  0  0
  1 27  1  0  0  0  0
  2 25  1  0  0  0  0
  2 23  1  0  0  0  0
  3  9  1  6  0  0  0
  4  1  1  0  0  0  0
  4 16  1  0  0  0  0
  4 12  1  0  0  0  0
  5 10  1  0  0  0  0
  6 11  1  0  0  0  0
  7  3  1  0  0  0  0
  8  4  1  0  0  0  0
  8 16  1  0  0  0  0
 10  7  1  0  0  0  0
 10 24  1  0  0  0  0
 11 17  1  0  0  0  0
 12 19  1  0  0  0  0
 13 22  1  0  0  0  0
 13  9  1  0  0  0  0
 14 13  1  0  0  0  0
 15 28  1  0  0  0  0
 17 21  1  0  0  0  0
 18 14  1  0  0  0  0
 19 26  1  0  0  0  0
 20 26  1  0  0  0  0
 20  5  1  0  0  0  0
 21  3  1  0  0  0  0
 21 15  1  0  0  0  0
 22  7  1  0  0  0  0
 23  6  1  0  0  0  0
 23 14  1  0  0  0  0
 24 28  1  0  0  0  0
 24 30  1  0  0  0  0
 25 18  1  0  0  0  0
 25 14  1  0  0  0  0
 27 26  1  0  0  0  0
 27 22  1  0  0  0  0
 29 30  2  0  0  0  0
 29 35  1  0  0  0  0
 30 31  1  0  0  0  0
 31 34  2  0  0  0  0
 33 34  1  0  0  0  0
 34 32  1  0  0  0  0
 35 33  2  0  0  0  0
 36 19  1  0  0  0  0
 37 36  1  0  0  0  0
M  END
>  <MODEL>
1

>  <REMARK>
 VINA RESULT:      -7.0      0.000      0.000
  Name = 
  2 active torsions:
  status: ('A' for Active; 'I' for Inactive)
    1  A    between atoms: C_6  and  C_31
    2  A    between atoms: C_11  and  C_26
                            x       y       z     vdW  Elec       q    Type
                         _______ _______ _______ _____ _____    ______ ____

>  <TORSDO>
F 2

$$$$
=
 OpenBabel11052415293D

 37 45  0  0  1  0  0  0  0  0999 V2000
  183.5010  174.3980  136.6780 O   0  0  0  0  0  0  0  0  0  0  0  0
  179.8960  174.8820  135.2740 C   0  0  0  0  0  2  0  0  0  0  0  0
  181.0470  176.6560  140.0720 C   0  0  2  0  0  3  0  0  0  0  0  0
  184.6980  173.6620  136.5570 C   0  0  0  0  0  0  0  0  0  0  0  0
  184.2060  178.2780  138.3190 C   0  0  0  0  0  2  0  0  0  0  0  0
  179.0170  176.9770  136.4760 C   0  0  0  0  0  2  0  0  0  0  0  0
  182.3850  176.8060  139.3460 C   0  0  2  0  0  3  0  0  0  0  0  0
  184.6680  172.5680  135.5190 C   0  0  0  0  0  2  0  0  0  0  0  0
  180.6200  175.2240  139.7900 C   0  0  0  0  0  2  0  0  0  0  0  0
  182.8220  178.2420  138.9860 C   0  0  1  0  0  3  0  0  0  0  0  0
  179.4160  177.9190  137.4360 O   0  0  0  0  0  0  0  0  0  0  0  0
  185.9530  174.3090  136.7100 O   0  0  0  0  0  0  0  0  0  0  0  0
  181.2130  174.8440  138.4340 C   0  0  1  0  0  3  0  0  0  0  0  0
  180.1000  174.9550  137.3970 C   0  0  1  0  0  0  0  0  0  0  0  0
  180.2980  179.1860  139.9150 C   0  0  0  0  0  2  0  0  0  0  0  0
  184.6390  172.2240  137.0070 C   0  0  0  0  0  2  0  0  0  0  0  0
  178.9310  177.4430  138.6610 C   0  0  0  0  0  2  0  0  0  0  0  0
  178.9800  173.9290  137.3960 C   0  0  0  0  0  2  0  0  0  0  0  0
  185.8030  175.7100  136.5770 C   0  0  2  0  0  3  0  0  0  0  0  0
  184.2380  177.5000  137.1580 O   0  0  0  0  0  0  0  0  0  0  0  0
  179.9210  177.7050  139.8040 C   0  0  1  0  0  3  0  0  0  0  0  0
  182.3030  175.8780  138.1430 C   0  0  2  0  0  3  0  0  0  0  0  0
  180.1440  175.9800  136.2850 C   0  0  1  0  0  3  0  0  0  0  0  0
  182.8150  179.2060  140.1970 C   0  0  1  0  0  3  0  0  0  0  0  0
  180.0830  173.8360  136.3690 C   0  0  1  0  0  3  0  0  0  0  0  0
  184.7570  176.2630  137.5690 C   0  0  1  0  0  3  0  0  0  0  0  0
  183.6420  175.2230  137.8070 C   0  0  2  0  0  3  0  0  0  0  0  0
  181.4550  179.4030  140.8770 C   0  0  0  0  0  2  0  0  0  0  0  0
  183.5590  178.5560  142.5300 C   0  0  0  0  0  3  0  0  0  0  0  0
  183.8840  178.9250  141.2150 C   0  0  0  0  0  0  0  0  0  0  0  0
  185.2280  179.0280  140.8400 C   0  0  0  0  0  3  0  0  0  0  0  0
  187.5400  178.8660  141.4000 F   0  0  0  0  0  0  0  0  0  0  0  0
  185.9110  178.3970  143.0760 C   0  0  0  0  0  3  0  0  0  0  0  0
  186.2410  178.7650  141.7680 C   0  0  0  0  0  0  0  0  0  0  0  0
  184.5710  178.2920  143.4570 C   0  0  0  0  0  3  0  0  0  0  0  0
  185.5640  176.1020  135.1170 C   0  0  0  0  0  2  0  0  0  0  0  0
  186.6780  177.0070  134.6270 C   0  0  0  0  0  1  0  0  0  0  0  0
  1 27  1  0  0  0  0
  2 23  1  0  0  0  0
  2 25  1  0  0  0  0
  3  9  1  6  0  0  0
  4  1  1  0  0  0  0
  4 12  1  0  0  0  0
  4 16  1  0  0  0  0
  5 10  1  0  0  0  0
  6 11  1  0  0  0  0
  7  3  1  0  0  0  0
  8  4  1  0  0  0  0
  8 16  1  0  0  0  0
 10  7  1  0  0  0  0
 10 24  1  0  0  0  0
 11 17  1  0  0  0  0
 13  9  1  0  0  0  0
 14 13  1  0  0  0  0
 15 28  1  0  0  0  0
 17 21  1  0  0  0  0
 18 14  1  0  0  0  0
 19 12  1  0  0  0  0
 19 26  1  0  0  0  0
 20 26  1  0  0  0  0
 20  5  1  0  0  0  0
 21 15  1  0  0  0  0
 21  3  1  0  0  0  0
 22 13  1  0  0  0  0
 22  7  1  0  0  0  0
 23  6  1  0  0  0  0
 23 14  1  0  0  0  0
 24 28  1  0  0  0  0
 24 30  1  0  0  0  0
 25 18  1  0  0  0  0
 25 14  1  0  0  0  0
 26 27  1  0  0  0  0
 27 22  1  0  0  0  0
 29 35  1  0  0  0  0
 30 29  2  0  0  0  0
 31 30  1  0  0  0  0
 31 34  2  0  0  0  0
 32 34  1  0  0  0  0
 33 35  2  0  0  0  0
 34 33  1  0  0  0  0
 36 19  1  0  0  0  0
 37 36  1  0  0  0  0
M  END
>  <MODEL>
2

>  <REMARK>
 VINA RESULT:      -7.0      1.286      1.533
  Name = 
  2 active torsions:
  status: ('A' for Active; 'I' for Inactive)
    1  A    between atoms: C_6  and  C_31
    2  A    between atoms: C_11  and  C_26
                            x       y       z     vdW  Elec       q    Type
                         _______ _______ _______ _____ _____    ______ ____

>  <TORSDO>
F 2

$$$$
=
 OpenBabel11052415293D

 37 45  0  0  1  0  0  0  0  0999 V2000
  185.3840  176.1410  136.9090 O   0  0  0  0  0  0  0  0  0  0  0  0
  182.2530  176.3180  134.5940 C   0  0  0  0  0  2  0  0  0  0  0  0
  181.6330  176.6670  139.7890 C   0  0  2  0  0  3  0  0  0  0  0  0
  186.7320  175.7360  136.9990 C   0  0  0  0  0  0  0  0  0  0  0  0
  184.5320  179.3570  139.5890 C   0  0  0  0  0  2  0  0  0  0  0  0
  180.5470  177.7030  135.9280 C   0  0  0  0  0  2  0  0  0  0  0  0
  183.0090  177.3040  139.5870 C   0  0  2  0  0  3  0  0  0  0  0  0
  187.2700  175.0460  135.7720 C   0  0  0  0  0  2  0  0  0  0  0  0
  181.7130  175.3440  139.0430 C   0  0  0  0  0  2  0  0  0  0  0  0
  183.0960  178.8360  139.7490 C   0  0  1  0  0  3  0  0  0  0  0  0
  180.4130  178.3500  137.1650 O   0  0  0  0  0  0  0  0  0  0  0  0
  187.6750  176.5380  137.6980 O   0  0  0  0  0  0  0  0  0  0  0  0
  182.7050  175.5410  137.8970 C   0  0  1  0  0  3  0  0  0  0  0  0
  181.8970  175.7510  136.6200 C   0  0  1  0  0  0  0  0  0  0  0  0
  180.2600  178.9130  140.0270 C   0  0  0  0  0  2  0  0  0  0  0  0
  186.9750  174.2480  137.0400 C   0  0  0  0  0  2  0  0  0  0  0  0
  179.7970  177.4230  138.0150 C   0  0  0  0  0  2  0  0  0  0  0  0
  181.1510  174.5770  136.0110 C   0  0  0  0  0  2  0  0  0  0  0  0
  187.1700  177.8480  137.8730 C   0  0  2  0  0  3  0  0  0  0  0  0
  185.0690  179.0110  138.3440 O   0  0  0  0  0  0  0  0  0  0  0  0
  180.3580  177.5000  139.4420 C   0  0  1  0  0  3  0  0  0  0  0  0
  183.4930  176.8090  138.2320 C   0  0  2  0  0  3  0  0  0  0  0  0
  181.9220  177.0640  135.8680 C   0  0  1  0  0  3  0  0  0  0  0  0
  182.5170  179.3440  141.0920 C   0  0  1  0  0  3  0  0  0  0  0  0
  182.4520  175.0380  135.3990 C   0  0  1  0  0  3  0  0  0  0  0  0
  185.8000  177.8370  138.5830 C   0  0  1  0  0  3  0  0  0  0  0  0
  185.0030  176.5760  138.1900 C   0  0  2  0  0  3  0  0  0  0  0  0
  181.0340  179.0400  141.3300 C   0  0  0  0  0  2  0  0  0  0  0  0
  182.7880  179.0020  143.5870 C   0  0  0  0  0  3  0  0  0  0  0  0
  183.3370  178.9730  142.2960 C   0  0  0  0  0  0  0  0  0  0  0  0
  184.6700  178.5870  142.1220 C   0  0  0  0  0  3  0  0  0  0  0  0
  186.7410  177.8580  143.0510 F   0  0  0  0  0  0  0  0  0  0  0  0
  184.9000  178.2600  144.5100 C   0  0  0  0  0  3  0  0  0  0  0  0
  185.4510  178.2310  143.2250 C   0  0  0  0  0  0  0  0  0  0  0  0
  183.5680  178.6450  144.6910 C   0  0  0  0  0  3  0  0  0  0  0  0
  187.1980  178.6280  136.5550 C   0  0  0  0  0  2  0  0  0  0  0  0
  188.5980  178.6250  135.9730 C   0  0  0  0  0  1  0  0  0  0  0  0
  1  4  1  0  0  0  0
  1 27  1  0  0  0  0
  2 25  1  0  0  0  0
  2 23  1  0  0  0  0
  3  9  1  6  0  0  0
  4 16  1  0  0  0  0
  4 12  1  0  0  0  0
  5 10  1  0  0  0  0
  6 11  1  0  0  0  0
  7 10  1  0  0  0  0
  7  3  1  0  0  0  0
  8  4  1  0  0  0  0
  8 16  1  0  0  0  0
 10 24  1  0  0  0  0
 11 17  1  0  0  0  0
 12 19  1  0  0  0  0
 13 22  1  0  0  0  0
 13  9  1  0  0  0  0
 14 13  1  0  0  0  0
 15 28  1  0  0  0  0
 17 21  1  0  0  0  0
 18 14  1  0  0  0  0
 19 26  1  0  0  0  0
 20 26  1  0  0  0  0
 20  5  1  0  0  0  0
 21  3  1  0  0  0  0
 21 15  1  0  0  0  0
 22  7  1  0  0  0  0
 23  6  1  0  0  0  0
 23 14  1  0  0  0  0
 24 28  1  0  0  0  0
 24 30  1  0  0  0  0
 25 18  1  0  0  0  0
 25 14  1  0  0  0  0
 27 22  1  0  0  0  0
 27 26  1  0  0  0  0
 29 35  1  0  0  0  0
 30 29  2  0  0  0  0
 31 30  1  0  0  0  0
 31 34  2  0  0  0  0
 32 34  1  0  0  0  0
 33 35  2  0  0  0  0
 34 33  1  0  0  0  0
 36 19  1  0  0  0  0
 37 36  1  0  0  0  0
M  END
>  <MODEL>
3

>  <REMARK>
 VINA RESULT:      -6.6      1.349      1.655
  Name = 
  2 active torsions:
  status: ('A' for Active; 'I' for Inactive)
    1  A    between atoms: C_6  and  C_31
    2  A    between atoms: C_11  and  C_26
                            x       y       z     vdW  Elec       q    Type
                         _______ _______ _______ _____ _____    ______ ____

>  <TORSDO>
F 2

$$$$
=
 OpenBabel11052415293D

 37 45  0  0  1  0  0  0  0  0999 V2000
  185.4620  175.2040  136.1520 O   0  0  0  0  0  0  0  0  0  0  0  0
  181.9200  176.0190  134.7430 C   0  0  0  0  0  2  0  0  0  0  0  0
  182.8950  176.7700  139.8400 C   0  0  2  0  0  3  0  0  0  0  0  0
  186.6570  174.4890  135.9290 C   0  0  0  0  0  0  0  0  0  0  0  0
  186.1330  178.6620  138.5690 C   0  0  0  0  0  2  0  0  0  0  0  0
  181.0110  177.8420  136.3100 C   0  0  0  0  0  2  0  0  0  0  0  0
  184.2620  177.0420  139.2090 C   0  0  2  0  0  3  0  0  0  0  0  0
  186.6590  173.6280  134.6910 C   0  0  0  0  0  2  0  0  0  0  0  0
  182.4680  175.4320  139.2590 C   0  0  0  0  0  2  0  0  0  0  0  0
  184.7250  178.5140  139.1630 C   0  0  1  0  0  3  0  0  0  0  0  0
  181.3790  178.5640  137.4550 O   0  0  0  0  0  0  0  0  0  0  0  0
  187.9110  175.0720  136.2560 O   0  0  0  0  0  0  0  0  0  0  0  0
  183.1110  175.3230  137.8760 C   0  0  1  0  0  3  0  0  0  0  0  0
  182.0400  175.6590  136.8430 C   0  0  1  0  0  0  0  0  0  0  0  0
  182.1730  179.2910  140.1700 C   0  0  0  0  0  2  0  0  0  0  0  0
  186.5690  172.9910  136.0760 C   0  0  0  0  0  2  0  0  0  0  0  0
  180.8420  177.8590  138.5400 C   0  0  0  0  0  2  0  0  0  0  0  0
  180.9130  174.6720  136.5930 C   0  0  0  0  0  2  0  0  0  0  0  0
  187.7770  176.4730  136.4040 C   0  0  2  0  0  3  0  0  0  0  0  0
  186.2050  178.1340  137.2760 O   0  0  0  0  0  0  0  0  0  0  0  0
  181.7890  177.8690  139.7480 C   0  0  1  0  0  3  0  0  0  0  0  0
  184.2190  176.3770  137.8410 C   0  0  2  0  0  3  0  0  0  0  0  0
  182.1360  176.8860  135.9640 C   0  0  1  0  0  3  0  0  0  0  0  0
  184.6780  179.2140  140.5430 C   0  0  1  0  0  3  0  0  0  0  0  0
  182.0550  174.7710  135.6100 C   0  0  1  0  0  3  0  0  0  0  0  0
  186.6980  176.8310  137.4480 C   0  0  1  0  0  3  0  0  0  0  0  0
  185.5660  175.7830  137.4290 C   0  0  2  0  0  3  0  0  0  0  0  0
  183.2940  179.2920  141.1980 C   0  0  0  0  0  2  0  0  0  0  0  0
  185.3340  178.2720  142.8010 C   0  0  0  0  0  3  0  0  0  0  0  0
  185.7040  178.7160  141.5210 C   0  0  0  0  0  0  0  0  0  0  0  0
  187.0510  178.6930  141.1460 C   0  0  0  0  0  3  0  0  0  0  0  0
  189.3260  178.2060  141.6670 F   0  0  0  0  0  0  0  0  0  0  0  0
  187.6500  177.7850  143.3090 C   0  0  0  0  0  3  0  0  0  0  0  0
  188.0230  178.2280  142.0360 C   0  0  0  0  0  0  0  0  0  0  0  0
  186.3060  177.8060  143.6910 C   0  0  0  0  0  3  0  0  0  0  0  0
  187.5990  177.1560  135.0450 C   0  0  0  0  0  2  0  0  0  0  0  0
  188.9070  177.7770  134.5940 C   0  0  0  0  0  1  0  0  0  0  0  0
  1 27  1  0  0  0  0
  2 25  1  0  0  0  0
  2 23  1  0  0  0  0
  3  9  1  6  0  0  0
  4 16  1  0  0  0  0
  4  1  1  0  0  0  0
  4 12  1  0  0  0  0
  5 10  1  0  0  0  0
  6 11  1  0  0  0  0
  7  3  1  0  0  0  0
  8  4  1  0  0  0  0
  8 16  1  0  0  0  0
 10  7  1  0  0  0  0
 10 24  1  0  0  0  0
 11 17  1  0  0  0  0
 12 19  1  0  0  0  0
 13  9  1  0  0  0  0
 14 13  1  0  0  0  0
 15 28  1  0  0  0  0
 17 21  1  0  0  0  0
 18 14  1  0  0  0  0
 19 26  1  0  0  0  0
 20 26  1  0  0  0  0
 20  5  1  0  0  0  0
 21  3  1  0  0  0  0
 21 15  1  0  0  0  0
 22 13  1  0  0  0  0
 22  7  1  0  0  0  0
 23  6  1  0  0  0  0
 23 14  1  0  0  0  0
 24 28  1  0  0  0  0
 24 30  1  0  0  0  0
 25 18  1  0  0  0  0
 25 14  1  0  0  0  0
 27 26  1  0  0  0  0
 27 22  1  0  0  0  0
 29 35  1  0  0  0  0
 30 29  2  0  0  0  0
 31 30  1  0  0  0  0
 31 34  2  0  0  0  0
 32 34  1  0  0  0  0
 33 35  2  0  0  0  0
 34 33  1  0  0  0  0
 36 19  1  0  0  0  0
 37 36  1  0  0  0  0
M  END
>  <MODEL>
4

>  <REMARK>
 VINA RESULT:      -6.1      1.836      2.376
  Name = 
  2 active torsions:
  status: ('A' for Active; 'I' for Inactive)
    1  A    between atoms: C_6  and  C_31
    2  A    between atoms: C_11  and  C_26
                            x       y       z     vdW  Elec       q    Type
                         _______ _______ _______ _____ _____    ______ ____

>  <TORSDO>
F 2

$$$$
=
 OpenBabel11052415293D

 37 45  0  0  1  0  0  0  0  0999 V2000
  184.4850  176.4660  137.0150 O   0  0  0  0  0  0  0  0  0  0  0  0
  180.9900  177.3890  135.5560 C   0  0  0  0  0  2  0  0  0  0  0  0
  181.6070  177.0790  140.7540 C   0  0  2  0  0  3  0  0  0  0  0  0
  185.7340  175.8740  136.7330 C   0  0  0  0  0  0  0  0  0  0  0  0
  184.7900  179.3550  140.1470 C   0  0  0  0  0  2  0  0  0  0  0  0
  179.8750  178.7880  137.4020 C   0  0  0  0  0  2  0  0  0  0  0  0
  182.9890  177.5460  140.2950 C   0  0  2  0  0  3  0  0  0  0  0  0
  185.8650  175.2990  135.3460 C   0  0  0  0  0  2  0  0  0  0  0  0
  181.3010  175.8770  139.8750 C   0  0  0  0  0  2  0  0  0  0  0  0
  183.3600  179.0150  140.5930 C   0  0  1  0  0  3  0  0  0  0  0  0
  180.1280  179.2660  138.6960 O   0  0  0  0  0  0  0  0  0  0  0  0
  186.9270  176.4340  137.2650 O   0  0  0  0  0  0  0  0  0  0  0  0
  182.0310  176.0980  138.5510 C   0  0  1  0  0  3  0  0  0  0  0  0
  181.0060  176.5950  137.5360 C   0  0  1  0  0  0  0  0  0  0  0  0
  180.7090  179.4330  141.5540 C   0  0  0  0  0  2  0  0  0  0  0  0
  185.7320  174.3760  136.5560 C   0  0  0  0  0  2  0  0  0  0  0  0
  179.5710  178.3190  139.5670 C   0  0  0  0  0  2  0  0  0  0  0  0
  179.9600  175.6300  137.0040 C   0  0  0  0  0  2  0  0  0  0  0  0
  186.6960  177.7630  137.6950 C   0  0  2  0  0  3  0  0  0  0  0  0
  184.9720  179.1200  138.7800 O   0  0  0  0  0  0  0  0  0  0  0  0
  180.4410  178.1170  140.8160 C   0  0  1  0  0  3  0  0  0  0  0  0
  183.0710  177.1880  138.8190 C   0  0  2  0  0  3  0  0  0  0  0  0
  181.0770  177.9850  136.9440 C   0  0  1  0  0  3  0  0  0  0  0  0
  183.1860  179.4000  142.0820 C   0  0  1  0  0  3  0  0  0  0  0  0
  181.1500  175.9930  136.1490 C   0  0  1  0  0  3  0  0  0  0  0  0
  185.5350  177.8360  138.7100 C   0  0  1  0  0  3  0  0  0  0  0  0
  184.4750  176.7620  138.3890 C   0  0  2  0  0  3  0  0  0  0  0  0
  181.7630  179.2680  142.6370 C   0  0  0  0  0  2  0  0  0  0  0  0
  185.2980  178.0680  142.5070 C   0  0  0  0  0  3  0  0  0  0  0  0
  184.1800  178.7550  143.0060 C   0  0  0  0  0  0  0  0  0  0  0  0
  183.9880  178.8460  144.3890 C   0  0  0  0  0  3  0  0  0  0  0  0
  184.7130  178.3520  146.6050 F   0  0  0  0  0  0  0  0  0  0  0  0
  186.0160  177.5780  144.7660 C   0  0  0  0  0  3  0  0  0  0  0  0
  184.9030  178.2600  145.2680 C   0  0  0  0  0  0  0  0  0  0  0  0
  186.2140  177.4820  143.3860 C   0  0  0  0  0  3  0  0  0  0  0  0
  186.5570  178.7110  136.5000 C   0  0  0  0  0  2  0  0  0  0  0  0
  187.7730  179.6120  136.4010 C   0  0  0  0  0  1  0  0  0  0  0  0
  1 27  1  0  0  0  0
  2 25  1  0  0  0  0
  2 23  1  0  0  0  0
  3  9  1  6  0  0  0
  3 21  1  0  0  0  0
  4  1  1  0  0  0  0
  4 12  1  0  0  0  0
  5 10  1  0  0  0  0
  6 11  1  0  0  0  0
  7 10  1  0  0  0  0
  7  3  1  0  0  0  0
  8 16  1  0  0  0  0
  8  4  1  0  0  0  0
 10 24  1  0  0  0  0
 11 17  1  0  0  0  0
 12 19  1  0  0  0  0
 13 22  1  0  0  0  0
 13  9  1  0  0  0  0
 14 13  1  0  0  0  0
 15 28  1  0  0  0  0
 16  4  1  0  0  0  0
 17 21  1  0  0  0  0
 18 14  1  0  0  0  0
 19 26  1  0  0  0  0
 20  5  1  0  0  0  0
 21 15  1  0  0  0  0
 22  7  1  0  0  0  0
 23  6  1  0  0  0  0
 23 14  1  0  0  0  0
 24 28  1  0  0  0  0
 24 30  1  0  0  0  0
 25 18  1  0  0  0  0
 25 14  1  0  0  0  0
 26 20  1  0  0  0  0
 27 26  1  0  0  0  0
 27 22  1  0  0  0  0
 29 30  2  0  0  0  0
 29 35  1  0  0  0  0
 30 31  1  0  0  0  0
 31 34  2  0  0  0  0
 33 34  1  0  0  0  0
 34 32  1  0  0  0  0
 35 33  2  0  0  0  0
 36 19  1  0  0  0  0
 37 36  1  0  0  0  0
M  END
>  <MODEL>
5

>  <REMARK>
 VINA RESULT:      -6.0      1.208      1.409
  Name = 
  2 active torsions:
  status: ('A' for Active; 'I' for Inactive)
    1  A    between atoms: C_6  and  C_31
    2  A    between atoms: C_11  and  C_26
                            x       y       z     vdW  Elec       q    Type
                         _______ _______ _______ _____ _____    ______ ____

>  <TORSDO>
F 2

$$$$
