=
 OpenBabel11052412483D

 25 27  0  0  1  0  0  0  0  0999 V2000
  189.3310  177.3980  145.9300 C   0  0  0  0  0  0  0  0  0  0  0  0
  188.0300  177.6570  145.6730 C   0  0  0  0  0  0  0  0  0  0  0  0
  188.9010  177.7620  148.4170 C   0  0  0  0  0  3  0  0  0  0  0  0
  187.6140  177.9900  148.1690 C   0  0  0  0  0  3  0  0  0  0  0  0
  185.9320  178.7700  146.4710 C   0  0  0  0  0  0  0  0  0  0  0  0
  185.3890  179.4180  147.3530 O   0  0  0  0  0  0  0  0  0  0  0  0
  187.5480  177.7700  144.2450 C   0  0  0  0  0  2  0  0  0  0  0  0
  189.8040  177.3620  147.3360 C   0  0  0  0  0  0  0  0  0  0  0  0
  190.9900  177.0370  147.6100 O   0  0  0  0  0  0  0  0  0  0  0  0
  185.4710  178.9480  145.0510 C   0  0  0  0  0  2  0  0  0  0  0  0
  186.0230  177.8480  144.1480 C   0  0  1  0  0  3  0  0  0  0  0  0
  187.0120  177.7650  146.8030 C   0  0  1  0  0  3  0  0  0  0  0  0
  190.3040  177.1970  144.7990 C   0  0  1  0  0  3  0  0  0  0  0  0
  191.5740  177.0190  142.2990 C   0  0  0  0  0  2  0  0  0  0  0  0
  189.7780  176.2340  143.7660 C   0  0  0  0  0  3  0  0  0  0  0  0
  190.3880  176.1440  142.5810 C   0  0  0  0  0  3  0  0  0  0  0  0
  191.2600  178.4510  142.7400 C   0  0  0  0  0  2  0  0  0  0  0  0
  190.7760  178.5380  144.2010 C   0  0  0  0  0  2  0  0  0  0  0  0
  185.6000  178.1110  142.7140 C   0  0  0  0  0  2  0  0  0  0  0  0
  187.0380  178.5900  141.7100 S   0  0  0  0  0  0  0  0  0  0  0  0
  186.0430  178.6300  140.1930 C   0  0  0  0  0  2  0  0  0  0  0  0
  186.9050  178.4640  139.0350 N   0  0  0  0  0  2  0  0  0  0  0  0
  188.2130  178.0750  139.5310 C   0  0  0  0  0  2  0  0  0  0  0  0
  189.2660  178.4130  138.4970 C   0  0  0  0  0  2  0  0  0  0  0  0
  188.8760  179.5500  137.7910 O   0  0  0  0  0  1  0  0  0  0  0  0
  1  8  1  0  0  0  0
  2  1  2  0  0  0  0
  2 12  1  0  0  0  0
  4  3  2  0  0  0  0
  5 12  1  0  0  0  0
  5  6  2  0  0  0  0
  7  2  1  0  0  0  0
  8  9  2  0  0  0  0
  8  3  1  0  0  0  0
 10  5  1  0  0  0  0
 11 19  1  6  0  0  0
 11  7  1  0  0  0  0
 11 10  1  0  0  0  0
 12  4  1  1  0  0  0
 13  1  1  1  0  0  0
 14 16  1  0  0  0  0
 14 17  1  0  0  0  0
 15 13  1  0  0  0  0
 16 15  2  0  0  0  0
 17 18  1  0  0  0  0
 18 13  1  0  0  0  0
 20 19  1  0  0  0  0
 21 20  1  0  0  0  0
 22 23  1  0  0  0  0
 22 21  1  0  0  0  0
 24 23  1  0  0  0  0
 25 24  1  0  0  0  0
M  END
>  <MODEL>
1

>  <REMARK>
 VINA RESULT:      -9.0      0.000      0.000
  Name = 
  7 active torsions:
  status: ('A' for Active; 'I' for Inactive)
    1  A    between atoms: C_1  and  C_5
    2  A    between atoms: C_2  and  C_12
    3  A    between atoms: C_6  and  S_15
    4  A    between atoms: C_6  and  C_23
    5  A    between atoms: C_12  and  N_25
    6  A    between atoms: S_15  and  C_21
    7  A    between atoms: C_21  and  N_25
                            x       y       z     vdW  Elec       q    Type
                         _______ _______ _______ _____ _____    ______ ____

>  <TORSDO>
F 7

$$$$
=
 OpenBabel11052412483D

 25 27  0  0  1  0  0  0  0  0999 V2000
  189.3080  177.3530  145.8970 C   0  0  0  0  0  0  0  0  0  0  0  0
  188.0130  177.6410  145.6440 C   0  0  0  0  0  0  0  0  0  0  0  0
  188.8880  177.6990  148.3890 C   0  0  0  0  0  3  0  0  0  0  0  0
  187.6060  177.9560  148.1430 C   0  0  0  0  0  3  0  0  0  0  0  0
  185.9390  178.7880  146.4550 C   0  0  0  0  0  0  0  0  0  0  0  0
  185.4090  179.4370  147.3440 O   0  0  0  0  0  0  0  0  0  0  0  0
  187.5330  177.7780  144.2180 C   0  0  0  0  0  2  0  0  0  0  0  0
  189.7820  177.2920  147.3020 C   0  0  0  0  0  0  0  0  0  0  0  0
  190.9610  176.9410  147.5720 O   0  0  0  0  0  0  0  0  0  0  0  0
  185.4800  178.9890  145.0380 C   0  0  0  0  0  2  0  0  0  0  0  0
  186.0100  177.8870  144.1230 C   0  0  1  0  0  3  0  0  0  0  0  0
  186.9980  177.7570  146.7760 C   0  0  1  0  0  3  0  0  0  0  0  0
  190.2770  177.1430  144.7630 C   0  0  1  0  0  3  0  0  0  0  0  0
  191.5510  176.9930  142.2640 C   0  0  0  0  0  2  0  0  0  0  0  0
  189.7080  176.2480  143.6930 C   0  0  0  0  0  3  0  0  0  0  0  0
  190.3200  176.1710  142.5080 C   0  0  0  0  0  3  0  0  0  0  0  0
  191.3080  178.4220  142.7560 C   0  0  0  0  0  2  0  0  0  0  0  0
  190.8210  178.4790  144.2180 C   0  0  0  0  0  2  0  0  0  0  0  0
  185.5910  178.1740  142.6930 C   0  0  0  0  0  2  0  0  0  0  0  0
  183.8530  178.7020  142.6380 S   0  0  0  0  0  0  0  0  0  0  0  0
  183.7940  178.5340  140.8310 C   0  0  0  0  0  2  0  0  0  0  0  0
  184.8590  179.3180  140.2290 N   0  0  0  0  0  2  0  0  0  0  0  0
  184.8020  179.0880  138.7970 C   0  0  0  0  0  2  0  0  0  0  0  0
  185.9420  178.1810  138.3860 C   0  0  0  0  0  2  0  0  0  0  0  0
  187.0860  178.5170  139.1070 O   0  0  0  0  0  1  0  0  0  0  0  0
  1  8  1  0  0  0  0
  2  1  2  0  0  0  0
  2 12  1  0  0  0  0
  4  3  2  0  0  0  0
  5 12  1  0  0  0  0
  5  6  2  0  0  0  0
  7  2  1  0  0  0  0
  8  9  2  0  0  0  0
  8  3  1  0  0  0  0
 10  5  1  0  0  0  0
 11 19  1  6  0  0  0
 11  7  1  0  0  0  0
 11 10  1  0  0  0  0
 12  4  1  1  0  0  0
 13  1  1  1  0  0  0
 14 16  1  0  0  0  0
 14 17  1  0  0  0  0
 15 13  1  0  0  0  0
 16 15  2  0  0  0  0
 17 18  1  0  0  0  0
 18 13  1  0  0  0  0
 20 19  1  0  0  0  0
 21 20  1  0  0  0  0
 22 21  1  0  0  0  0
 23 22  1  0  0  0  0
 24 23  1  0  0  0  0
 24 25  1  0  0  0  0
M  END
>  <MODEL>
2

>  <REMARK>
 VINA RESULT:      -8.8      1.334      1.459
  Name = 
  7 active torsions:
  status: ('A' for Active; 'I' for Inactive)
    1  A    between atoms: C_1  and  C_5
    2  A    between atoms: C_2  and  C_12
    3  A    between atoms: C_6  and  S_15
    4  A    between atoms: C_6  and  C_23
    5  A    between atoms: C_12  and  N_25
    6  A    between atoms: S_15  and  C_21
    7  A    between atoms: C_21  and  N_25
                            x       y       z     vdW  Elec       q    Type
                         _______ _______ _______ _____ _____    ______ ____

>  <TORSDO>
F 7

$$$$
=
 OpenBabel11052412483D

 25 27  0  0  1  0  0  0  0  0999 V2000
  188.0960  177.6910  144.8160 C   0  0  0  0  0  0  0  0  0  0  0  0
  186.8520  177.9330  144.3490 C   0  0  0  0  0  0  0  0  0  0  0  0
  187.1840  177.6540  147.1970 C   0  0  0  0  0  3  0  0  0  0  0  0
  185.9540  177.8640  146.7370 C   0  0  0  0  0  3  0  0  0  0  0  0
  184.5690  178.8240  144.8710 C   0  0  0  0  0  0  0  0  0  0  0  0
  183.8270  179.3070  145.7120 O   0  0  0  0  0  0  0  0  0  0  0  0
  186.6390  178.2430  142.8860 C   0  0  0  0  0  2  0  0  0  0  0  0
  188.2990  177.4600  146.2680 C   0  0  0  0  0  0  0  0  0  0  0  0
  189.4320  177.1470  146.7200 O   0  0  0  0  0  0  0  0  0  0  0  0
  184.3710  179.1970  143.4280 C   0  0  0  0  0  2  0  0  0  0  0  0
  185.1590  178.2710  142.5040 C   0  0  1  0  0  3  0  0  0  0  0  0
  185.6350  177.8250  145.2620 C   0  0  1  0  0  3  0  0  0  0  0  0
  189.2760  177.7050  143.8810 C   0  0  1  0  0  3  0  0  0  0  0  0
  191.8310  177.5850  142.7190 C   0  0  0  0  0  2  0  0  0  0  0  0
  190.3410  178.6730  144.3280 C   0  0  0  0  0  3  0  0  0  0  0  0
  191.5530  178.6200  143.7690 C   0  0  0  0  0  3  0  0  0  0  0  0
  191.2960  176.2310  143.1920 C   0  0  0  0  0  2  0  0  0  0  0  0
  189.8130  176.2850  143.6130 C   0  0  0  0  0  2  0  0  0  0  0  0
  184.9940  178.7320  141.0670 C   0  0  0  0  0  2  0  0  0  0  0  0
  183.4720  178.0420  140.3530 S   0  0  0  0  0  0  0  0  0  0  0  0
  184.2290  177.9120  138.7080 C   0  0  0  0  0  2  0  0  0  0  0  0
  185.3880  178.7840  138.6300 N   0  0  0  0  0  2  0  0  0  0  0  0
  186.3010  178.1950  137.6660 C   0  0  0  0  0  2  0  0  0  0  0  0
  187.6160  177.8780  138.3450 C   0  0  0  0  0  2  0  0  0  0  0  0
  188.4890  178.9540  138.1930 O   0  0  0  0  0  1  0  0  0  0  0  0
  1  8  1  0  0  0  0
  2  1  2  0  0  0  0
  2 12  1  0  0  0  0
  4  3  2  0  0  0  0
  5 12  1  0  0  0  0
  5  6  2  0  0  0  0
  7  2  1  0  0  0  0
  8  9  2  0  0  0  0
  8  3  1  0  0  0  0
 10  5  1  0  0  0  0
 11 19  1  6  0  0  0
 11  7  1  0  0  0  0
 11 10  1  0  0  0  0
 12  4  1  1  0  0  0
 13 15  1  0  0  0  0
 13  1  1  1  0  0  0
 14 17  1  0  0  0  0
 14 16  1  0  0  0  0
 16 15  2  0  0  0  0
 17 18  1  0  0  0  0
 18 13  1  0  0  0  0
 20 19  1  0  0  0  0
 21 20  1  0  0  0  0
 22 21  1  0  0  0  0
 23 24  1  0  0  0  0
 23 22  1  0  0  0  0
 25 24  1  0  0  0  0
M  END
>  <MODEL>
3

>  <REMARK>
 VINA RESULT:      -8.6      1.513      2.132
  Name = 
  7 active torsions:
  status: ('A' for Active; 'I' for Inactive)
    1  A    between atoms: C_1  and  C_5
    2  A    between atoms: C_2  and  C_12
    3  A    between atoms: C_6  and  S_15
    4  A    between atoms: C_6  and  C_23
    5  A    between atoms: C_12  and  N_25
    6  A    between atoms: S_15  and  C_21
    7  A    between atoms: C_21  and  N_25
                            x       y       z     vdW  Elec       q    Type
                         _______ _______ _______ _____ _____    ______ ____

>  <TORSDO>
F 7

$$$$
=
 OpenBabel11052412483D

 25 27  0  0  1  0  0  0  0  0999 V2000
  189.2450  177.3170  145.7830 C   0  0  0  0  0  0  0  0  0  0  0  0
  187.9470  177.6180  145.5600 C   0  0  0  0  0  0  0  0  0  0  0  0
  188.8850  177.6620  148.2840 C   0  0  0  0  0  3  0  0  0  0  0  0
  187.6000  177.9310  148.0680 C   0  0  0  0  0  3  0  0  0  0  0  0
  185.9030  178.7830  146.4200 C   0  0  0  0  0  0  0  0  0  0  0  0
  185.4000  179.4350  147.3220 O   0  0  0  0  0  0  0  0  0  0  0  0
  187.4360  177.7630  144.1450 C   0  0  0  0  0  2  0  0  0  0  0  0
  189.7500  177.2480  147.1760 C   0  0  0  0  0  0  0  0  0  0  0  0
  190.9310  176.8850  147.4180 O   0  0  0  0  0  0  0  0  0  0  0  0
  185.4140  178.9920  145.0140 C   0  0  0  0  0  2  0  0  0  0  0  0
  185.9120  177.8870  144.0850 C   0  0  1  0  0  3  0  0  0  0  0  0
  186.9590  177.7420  146.7150 C   0  0  1  0  0  3  0  0  0  0  0  0
  190.1850  177.1000  144.6260 C   0  0  1  0  0  3  0  0  0  0  0  0
  191.4100  176.9670  142.1020 C   0  0  0  0  0  2  0  0  0  0  0  0
  189.5650  176.2550  143.5450 C   0  0  0  0  0  3  0  0  0  0  0  0
  190.1530  176.1860  142.3470 C   0  0  0  0  0  3  0  0  0  0  0  0
  191.2300  178.3910  142.6340 C   0  0  0  0  0  2  0  0  0  0  0  0
  190.7700  178.4290  144.1050 C   0  0  0  0  0  2  0  0  0  0  0  0
  185.4640  178.1810  142.6650 C   0  0  0  0  0  2  0  0  0  0  0  0
  186.8950  178.6010  141.6260 S   0  0  0  0  0  0  0  0  0  0  0  0
  185.8890  178.5590  140.1150 C   0  0  0  0  0  2  0  0  0  0  0  0
  184.9110  179.6330  140.1470 N   0  0  0  0  0  2  0  0  0  0  0  0
  183.9010  179.3180  139.1520 C   0  0  0  0  0  2  0  0  0  0  0  0
  183.0180  178.2010  139.6660 C   0  0  0  0  0  2  0  0  0  0  0  0
  182.1270  178.7090  140.6090 O   0  0  0  0  0  1  0  0  0  0  0  0
  1  8  1  0  0  0  0
  2  1  2  0  0  0  0
  2 12  1  0  0  0  0
  4  3  2  0  0  0  0
  5 12  1  0  0  0  0
  5  6  2  0  0  0  0
  7  2  1  0  0  0  0
  8  9  2  0  0  0  0
  8  3  1  0  0  0  0
 10  5  1  0  0  0  0
 11 19  1  6  0  0  0
 11  7  1  0  0  0  0
 11 10  1  0  0  0  0
 12  4  1  1  0  0  0
 13  1  1  1  0  0  0
 14 16  1  0  0  0  0
 14 17  1  0  0  0  0
 15 13  1  0  0  0  0
 16 15  2  0  0  0  0
 17 18  1  0  0  0  0
 18 13  1  0  0  0  0
 20 19  1  0  0  0  0
 21 22  1  0  0  0  0
 21 20  1  0  0  0  0
 23 24  1  0  0  0  0
 23 22  1  0  0  0  0
 24 25  1  0  0  0  0
M  END
>  <MODEL>
4

>  <REMARK>
 VINA RESULT:      -8.6      1.806      2.211
  Name = 
  7 active torsions:
  status: ('A' for Active; 'I' for Inactive)
    1  A    between atoms: C_1  and  C_5
    2  A    between atoms: C_2  and  C_12
    3  A    between atoms: C_6  and  S_15
    4  A    between atoms: C_6  and  C_23
    5  A    between atoms: C_12  and  N_25
    6  A    between atoms: S_15  and  C_21
    7  A    between atoms: C_21  and  N_25
                            x       y       z     vdW  Elec       q    Type
                         _______ _______ _______ _____ _____    ______ ____

>  <TORSDO>
F 7

$$$$
=
 OpenBabel11052412483D

 25 27  0  0  1  0  0  0  0  0999 V2000
  189.4220  177.3460  145.9680 C   0  0  0  0  0  0  0  0  0  0  0  0
  188.1210  177.6520  145.7740 C   0  0  0  0  0  0  0  0  0  0  0  0
  189.1610  177.8620  148.4520 C   0  0  0  0  0  3  0  0  0  0  0  0
  187.8730  178.1370  148.2660 C   0  0  0  0  0  3  0  0  0  0  0  0
  186.1270  178.9050  146.6290 C   0  0  0  0  0  0  0  0  0  0  0  0
  185.6670  179.6240  147.5030 O   0  0  0  0  0  0  0  0  0  0  0  0
  187.5580  177.7120  144.3720 C   0  0  0  0  0  2  0  0  0  0  0  0
  189.9780  177.3620  147.3440 C   0  0  0  0  0  0  0  0  0  0  0  0
  191.1620  176.9960  147.5660 O   0  0  0  0  0  0  0  0  0  0  0  0
  185.5880  179.0280  145.2310 C   0  0  0  0  0  2  0  0  0  0  0  0
  186.0350  177.8570  144.3600 C   0  0  1  0  0  3  0  0  0  0  0  0
  187.1790  177.8690  146.9530 C   0  0  1  0  0  3  0  0  0  0  0  0
  190.3140  177.0380  144.7950 C   0  0  1  0  0  3  0  0  0  0  0  0
  191.4550  176.7490  142.2440 C   0  0  0  0  0  2  0  0  0  0  0  0
  189.6180  176.1890  143.7630 C   0  0  0  0  0  3  0  0  0  0  0  0
  190.1660  176.0450  142.5530 C   0  0  0  0  0  3  0  0  0  0  0  0
  191.3660  178.1990  142.7280 C   0  0  0  0  0  2  0  0  0  0  0  0
  190.9520  178.3140  144.2080 C   0  0  0  0  0  2  0  0  0  0  0  0
  185.5380  178.0630  142.9410 C   0  0  0  0  0  2  0  0  0  0  0  0
  183.9770  178.9950  142.9490 S   0  0  0  0  0  0  0  0  0  0  0  0
  183.5620  178.4350  141.2720 C   0  0  0  0  0  2  0  0  0  0  0  0
  182.1270  178.2410  141.1610 N   0  0  0  0  0  2  0  0  0  0  0  0
  181.5100  178.9840  142.2450 C   0  0  0  0  0  2  0  0  0  0  0  0
  180.0110  178.7740  142.2130 C   0  0  0  0  0  2  0  0  0  0  0  0
  179.6680  177.7420  143.0840 O   0  0  0  0  0  1  0  0  0  0  0  0
  1  8  1  0  0  0  0
  2  1  2  0  0  0  0
  2 12  1  0  0  0  0
  4  3  2  0  0  0  0
  5 12  1  0  0  0  0
  5  6  2  0  0  0  0
  7  2  1  0  0  0  0
  8  9  2  0  0  0  0
  8  3  1  0  0  0  0
 10  5  1  0  0  0  0
 11 19  1  6  0  0  0
 11  7  1  0  0  0  0
 11 10  1  0  0  0  0
 12  4  1  1  0  0  0
 13  1  1  1  0  0  0
 14 16  1  0  0  0  0
 14 17  1  0  0  0  0
 15 13  1  0  0  0  0
 16 15  2  0  0  0  0
 17 18  1  0  0  0  0
 18 13  1  0  0  0  0
 19 20  1  0  0  0  0
 21 20  1  0  0  0  0
 22 21  1  0  0  0  0
 22 23  1  0  0  0  0
 24 23  1  0  0  0  0
 24 25  1  0  0  0  0
M  END
>  <MODEL>
5

>  <REMARK>
 VINA RESULT:      -8.2      2.758      3.554
  Name = 
  7 active torsions:
  status: ('A' for Active; 'I' for Inactive)
    1  A    between atoms: C_1  and  C_5
    2  A    between atoms: C_2  and  C_12
    3  A    between atoms: C_6  and  S_15
    4  A    between atoms: C_6  and  C_23
    5  A    between atoms: C_12  and  N_25
    6  A    between atoms: S_15  and  C_21
    7  A    between atoms: C_21  and  N_25
                            x       y       z     vdW  Elec       q    Type
                         _______ _______ _______ _____ _____    ______ ____

>  <TORSDO>
F 7

$$$$
=
 OpenBabel11052412483D

 25 27  0  0  1  0  0  0  0  0999 V2000
  186.1640  178.3880  145.0320 C   0  0  0  0  0  0  0  0  0  0  0  0
  186.5350  178.2220  143.7430 C   0  0  0  0  0  0  0  0  0  0  0  0
  183.7910  178.9230  144.2700 C   0  0  0  0  0  3  0  0  0  0  0  0
  184.1480  178.7340  143.0020 C   0  0  0  0  0  3  0  0  0  0  0  0
  186.0410  178.7690  141.3480 C   0  0  0  0  0  0  0  0  0  0  0  0
  185.3010  179.3370  140.5600 O   0  0  0  0  0  0  0  0  0  0  0  0
  187.9900  178.0080  143.3950 C   0  0  0  0  0  2  0  0  0  0  0  0
  184.7430  178.6690  145.3520 C   0  0  0  0  0  0  0  0  0  0  0  0
  184.3530  178.7410  146.5470 O   0  0  0  0  0  0  0  0  0  0  0  0
  187.4960  178.6230  141.0010 C   0  0  0  0  0  2  0  0  0  0  0  0
  188.1890  177.6260  141.9280 C   0  0  1  0  0  3  0  0  0  0  0  0
  185.4970  178.1720  142.6270 C   0  0  1  0  0  3  0  0  0  0  0  0
  187.1920  178.3360  146.1310 C   0  0  1  0  0  3  0  0  0  0  0  0
  188.6220  177.8550  148.5010 C   0  0  0  0  0  2  0  0  0  0  0  0
  186.6390  178.8270  147.4440 C   0  0  0  0  0  3  0  0  0  0  0  0
  187.3250  178.6050  148.5690 C   0  0  0  0  0  3  0  0  0  0  0  0
  188.4430  176.6180  147.6170 C   0  0  0  0  0  2  0  0  0  0  0  0
  187.8610  176.9500  146.2290 C   0  0  0  0  0  2  0  0  0  0  0  0
  189.6690  177.5710  141.5940 C   0  0  0  0  0  2  0  0  0  0  0  0
  190.6560  178.1320  143.0130 S   0  0  0  0  0  0  0  0  0  0  0  0
  191.7900  176.7220  142.8620 C   0  0  0  0  0  2  0  0  0  0  0  0
  191.7010  175.8900  144.0500 N   0  0  0  0  0  2  0  0  0  0  0  0
  191.4980  176.7810  145.1790 C   0  0  0  0  0  2  0  0  0  0  0  0
  191.8650  176.0630  146.4600 C   0  0  0  0  0  2  0  0  0  0  0  0
  191.9740  176.9890  147.4960 O   0  0  0  0  0  1  0  0  0  0  0  0
  1  8  1  0  0  0  0
  2  1  2  0  0  0  0
  3  8  1  0  0  0  0
  4  3  2  0  0  0  0
  5 12  1  0  0  0  0
  6  5  2  0  0  0  0
  7  2  1  0  0  0  0
  8  9  2  0  0  0  0
 10  5  1  0  0  0  0
 10 11  1  0  0  0  0
 11 19  1  6  0  0  0
 11  7  1  0  0  0  0
 12  4  1  1  0  0  0
 12  2  1  0  0  0  0
 13  1  1  6  0  0  0
 13 18  1  0  0  0  0
 13 15  1  0  0  0  0
 14 16  1  0  0  0  0
 15 16  2  0  0  0  0
 17 14  1  0  0  0  0
 18 17  1  0  0  0  0
 19 20  1  0  0  0  0
 21 20  1  0  0  0  0
 21 22  1  0  0  0  0
 22 23  1  0  0  0  0
 23 24  1  0  0  0  0
 24 25  1  0  0  0  0
M  END
>  <MODEL>
6

>  <REMARK>
 VINA RESULT:      -8.1      2.330      5.863
  Name = 
  7 active torsions:
  status: ('A' for Active; 'I' for Inactive)
    1  A    between atoms: C_1  and  C_5
    2  A    between atoms: C_2  and  C_12
    3  A    between atoms: C_6  and  S_15
    4  A    between atoms: C_6  and  C_23
    5  A    between atoms: C_12  and  N_25
    6  A    between atoms: S_15  and  C_21
    7  A    between atoms: C_21  and  N_25
                            x       y       z     vdW  Elec       q    Type
                         _______ _______ _______ _____ _____    ______ ____

>  <TORSDO>
F 7

$$$$
=
 OpenBabel11052412483D

 25 27  0  0  1  0  0  0  0  0999 V2000
  188.0540  177.7330  144.8080 C   0  0  0  0  0  0  0  0  0  0  0  0
  186.7890  177.9560  144.3920 C   0  0  0  0  0  0  0  0  0  0  0  0
  187.2560  177.7850  147.2300 C   0  0  0  0  0  3  0  0  0  0  0  0
  186.0050  177.9760  146.8200 C   0  0  0  0  0  3  0  0  0  0  0  0
  184.5310  178.8640  144.9870 C   0  0  0  0  0  0  0  0  0  0  0  0
  183.8280  179.3780  145.8430 O   0  0  0  0  0  0  0  0  0  0  0  0
  186.5070  178.2090  142.9290 C   0  0  0  0  0  2  0  0  0  0  0  0
  188.3260  177.5570  146.2560 C   0  0  0  0  0  0  0  0  0  0  0  0
  189.4800  177.2620  146.6660 O   0  0  0  0  0  0  0  0  0  0  0  0
  184.2640  179.1820  143.5420 C   0  0  0  0  0  2  0  0  0  0  0  0
  185.0090  178.2220  142.6170 C   0  0  1  0  0  3  0  0  0  0  0  0
  185.6170  177.8810  145.3640 C   0  0  1  0  0  3  0  0  0  0  0  0
  189.1890  177.7120  143.8180 C   0  0  1  0  0  3  0  0  0  0  0  0
  191.6790  177.5040  142.5350 C   0  0  0  0  0  2  0  0  0  0  0  0
  190.3130  178.6280  144.2270 C   0  0  0  0  0  3  0  0  0  0  0  0
  191.4940  178.5350  143.6100 C   0  0  0  0  0  3  0  0  0  0  0  0
  191.1100  176.1670  143.0140 C   0  0  0  0  0  2  0  0  0  0  0  0
  189.6530  176.2750  143.5060 C   0  0  0  0  0  2  0  0  0  0  0  0
  184.7760  178.6280  141.1730 C   0  0  0  0  0  2  0  0  0  0  0  0
  183.3820  177.6960  140.4730 S   0  0  0  0  0  0  0  0  0  0  0  0
  182.4970  179.2220  140.0420 C   0  0  0  0  0  2  0  0  0  0  0  0
  181.1190  179.1360  140.4960 N   0  0  0  0  0  2  0  0  0  0  0  0
  181.1500  178.6280  141.8560 C   0  0  0  0  0  2  0  0  0  0  0  0
  179.7340  178.4250  142.3510 C   0  0  0  0  0  2  0  0  0  0  0  0
  179.1730  177.3180  141.7160 O   0  0  0  0  0  1  0  0  0  0  0  0
  1  8  1  0  0  0  0
  2  1  2  0  0  0  0
  2 12  1  0  0  0  0
  4  3  2  0  0  0  0
  5 12  1  0  0  0  0
  5  6  2  0  0  0  0
  7  2  1  0  0  0  0
  8  9  2  0  0  0  0
  8  3  1  0  0  0  0
 10  5  1  0  0  0  0
 11 19  1  6  0  0  0
 11  7  1  0  0  0  0
 11 10  1  0  0  0  0
 12  4  1  1  0  0  0
 13 15  1  0  0  0  0
 13  1  1  1  0  0  0
 14 17  1  0  0  0  0
 14 16  1  0  0  0  0
 16 15  2  0  0  0  0
 17 18  1  0  0  0  0
 18 13  1  0  0  0  0
 20 19  1  0  0  0  0
 21 20  1  0  0  0  0
 21 22  1  0  0  0  0
 22 23  1  0  0  0  0
 23 24  1  0  0  0  0
 25 24  1  0  0  0  0
M  END
>  <MODEL>
7

>  <REMARK>
 VINA RESULT:      -8.1      2.965      4.087
  Name = 
  7 active torsions:
  status: ('A' for Active; 'I' for Inactive)
    1  A    between atoms: C_1  and  C_5
    2  A    between atoms: C_2  and  C_12
    3  A    between atoms: C_6  and  S_15
    4  A    between atoms: C_6  and  C_23
    5  A    between atoms: C_12  and  N_25
    6  A    between atoms: S_15  and  C_21
    7  A    between atoms: C_21  and  N_25
                            x       y       z     vdW  Elec       q    Type
                         _______ _______ _______ _____ _____    ______ ____

>  <TORSDO>
F 7

$$$$
=
 OpenBabel11052412483D

 25 27  0  0  1  0  0  0  0  0999 V2000
  187.8350  177.5690  145.2230 C   0  0  0  0  0  0  0  0  0  0  0  0
  186.8920  177.9380  144.3290 C   0  0  0  0  0  0  0  0  0  0  0  0
  186.2210  178.0950  147.1260 C   0  0  0  0  0  3  0  0  0  0  0  0
  185.2820  178.4330  146.2460 C   0  0  0  0  0  3  0  0  0  0  0  0
  184.8180  179.2860  143.9270 C   0  0  0  0  0  0  0  0  0  0  0  0
  183.9710  180.0250  144.4020 O   0  0  0  0  0  0  0  0  0  0  0  0
  187.2350  178.0260  142.8600 C   0  0  0  0  0  2  0  0  0  0  0  0
  187.5040  177.5570  146.6700 C   0  0  0  0  0  0  0  0  0  0  0  0
  188.3330  177.1340  147.5180 O   0  0  0  0  0  0  0  0  0  0  0  0
  185.1820  179.4360  142.4760 C   0  0  0  0  0  2  0  0  0  0  0  0
  186.0000  178.2440  141.9840 C   0  0  1  0  0  3  0  0  0  0  0  0
  185.4540  178.1990  144.7650 C   0  0  1  0  0  3  0  0  0  0  0  0
  189.2250  177.2190  144.7620 C   0  0  1  0  0  3  0  0  0  0  0  0
  191.5780  176.7960  143.2880 C   0  0  0  0  0  2  0  0  0  0  0  0
  189.2100  176.2600  143.6000 C   0  0  0  0  0  3  0  0  0  0  0  0
  190.3320  176.0530  142.9050 C   0  0  0  0  0  3  0  0  0  0  0  0
  191.2370  178.2710  143.5100 C   0  0  0  0  0  2  0  0  0  0  0  0
  190.0790  178.4770  144.5070 C   0  0  0  0  0  2  0  0  0  0  0  0
  186.4120  178.4750  140.5420 C   0  0  0  0  0  2  0  0  0  0  0  0
  188.2140  178.3120  140.3660 S   0  0  0  0  0  0  0  0  0  0  0  0
  188.0680  177.9040  138.6040 C   0  0  0  0  0  2  0  0  0  0  0  0
  186.8150  178.4210  138.0810 N   0  0  0  0  0  2  0  0  0  0  0  0
  186.5560  177.7280  136.8320 C   0  0  0  0  0  2  0  0  0  0  0  0
  185.1240  177.2380  136.8140 C   0  0  0  0  0  2  0  0  0  0  0  0
  184.3880  177.9160  137.7840 O   0  0  0  0  0  1  0  0  0  0  0  0
  1  8  1  0  0  0  0
  2 12  1  0  0  0  0
  2  1  2  0  0  0  0
  4  3  2  0  0  0  0
  5  6  2  0  0  0  0
  5 12  1  0  0  0  0
  7  2  1  0  0  0  0
  8  3  1  0  0  0  0
  8  9  2  0  0  0  0
 10  5  1  0  0  0  0
 11 19  1  6  0  0  0
 11 10  1  0  0  0  0
 11  7  1  0  0  0  0
 12  4  1  1  0  0  0
 13  1  1  6  0  0  0
 14 17  1  0  0  0  0
 15 13  1  0  0  0  0
 16 14  1  0  0  0  0
 16 15  2  0  0  0  0
 17 18  1  0  0  0  0
 18 13  1  0  0  0  0
 20 19  1  0  0  0  0
 21 20  1  0  0  0  0
 22 21  1  0  0  0  0
 23 22  1  0  0  0  0
 24 23  1  0  0  0  0
 24 25  1  0  0  0  0
M  END
>  <MODEL>
8

>  <REMARK>
 VINA RESULT:      -7.9      1.836      2.465
  Name = 
  7 active torsions:
  status: ('A' for Active; 'I' for Inactive)
    1  A    between atoms: C_1  and  C_5
    2  A    between atoms: C_2  and  C_12
    3  A    between atoms: C_6  and  S_15
    4  A    between atoms: C_6  and  C_23
    5  A    between atoms: C_12  and  N_25
    6  A    between atoms: S_15  and  C_21
    7  A    between atoms: C_21  and  N_25
                            x       y       z     vdW  Elec       q    Type
                         _______ _______ _______ _____ _____    ______ ____

>  <TORSDO>
F 7

$$$$
=
 OpenBabel11052412483D

 25 27  0  0  1  0  0  0  0  0999 V2000
  188.0480  177.7200  144.7640 C   0  0  0  0  0  0  0  0  0  0  0  0
  186.7980  177.9450  144.3040 C   0  0  0  0  0  0  0  0  0  0  0  0
  187.1670  177.7810  147.1560 C   0  0  0  0  0  3  0  0  0  0  0  0
  185.9310  177.9750  146.7040 C   0  0  0  0  0  3  0  0  0  0  0  0
  184.5230  178.8610  144.8190 C   0  0  0  0  0  0  0  0  0  0  0  0
  183.7930  179.3790  145.6500 O   0  0  0  0  0  0  0  0  0  0  0  0
  186.5660  178.1950  142.8320 C   0  0  0  0  0  2  0  0  0  0  0  0
  188.2700  177.5480  146.2210 C   0  0  0  0  0  0  0  0  0  0  0  0
  189.4080  177.2510  146.6700 O   0  0  0  0  0  0  0  0  0  0  0  0
  184.3060  179.1760  143.3650 C   0  0  0  0  0  2  0  0  0  0  0  0
  185.0800  178.2110  142.4690 C   0  0  1  0  0  3  0  0  0  0  0  0
  185.5930  177.8770  145.2360 C   0  0  1  0  0  3  0  0  0  0  0  0
  189.2150  177.6930  143.8120 C   0  0  1  0  0  3  0  0  0  0  0  0
  191.7510  177.5010  142.6200 C   0  0  0  0  0  2  0  0  0  0  0  0
  190.3050  178.6460  144.2300 C   0  0  0  0  0  3  0  0  0  0  0  0
  191.5080  178.5590  143.6550 C   0  0  0  0  0  3  0  0  0  0  0  0
  191.1940  176.1670  143.1230 C   0  0  0  0  0  2  0  0  0  0  0  0
  189.7190  176.2580  143.5620 C   0  0  0  0  0  2  0  0  0  0  0  0
  184.8970  178.6140  141.0170 C   0  0  0  0  0  2  0  0  0  0  0  0
  183.1380  178.5620  140.5640 S   0  0  0  0  0  0  0  0  0  0  0  0
  183.4700  179.2980  138.9390 C   0  0  0  0  0  2  0  0  0  0  0  0
  182.2410  179.3540  138.1650 N   0  0  0  0  0  2  0  0  0  0  0  0
  181.3440  180.2620  138.8550 C   0  0  0  0  0  2  0  0  0  0  0  0
  181.5850  181.6760  138.3710 C   0  0  0  0  0  2  0  0  0  0  0  0
  180.7670  181.9370  137.2740 O   0  0  0  0  0  1  0  0  0  0  0  0
  1  8  1  0  0  0  0
  2  1  2  0  0  0  0
  2 12  1  0  0  0  0
  4  3  2  0  0  0  0
  5 12  1  0  0  0  0
  5  6  2  0  0  0  0
  7  2  1  0  0  0  0
  8  9  2  0  0  0  0
  8  3  1  0  0  0  0
 10  5  1  0  0  0  0
 11 19  1  6  0  0  0
 11  7  1  0  0  0  0
 11 10  1  0  0  0  0
 12  4  1  1  0  0  0
 13 15  1  0  0  0  0
 13  1  1  1  0  0  0
 14 17  1  0  0  0  0
 14 16  1  0  0  0  0
 16 15  2  0  0  0  0
 17 18  1  0  0  0  0
 18 13  1  0  0  0  0
 20 19  1  0  0  0  0
 21 20  1  0  0  0  0
 22 23  1  0  0  0  0
 22 21  1  0  0  0  0
 24 23  1  0  0  0  0
 25 24  1  0  0  0  0
M  END
>  <MODEL>
9

>  <REMARK>
 VINA RESULT:      -7.9      2.856      3.602
  Name = 
  7 active torsions:
  status: ('A' for Active; 'I' for Inactive)
    1  A    between atoms: C_1  and  C_5
    2  A    between atoms: C_2  and  C_12
    3  A    between atoms: C_6  and  S_15
    4  A    between atoms: C_6  and  C_23
    5  A    between atoms: C_12  and  N_25
    6  A    between atoms: S_15  and  C_21
    7  A    between atoms: C_21  and  N_25
                            x       y       z     vdW  Elec       q    Type
                         _______ _______ _______ _____ _____    ______ ____

>  <TORSDO>
F 7

$$$$
