=
 OpenBabel11052412493D

 25 28  0  0  1  0  0  0  0  0999 V2000
  188.9460  177.3920  143.7600 C   0  0  0  0  0  0  0  0  0  0  0  0
  189.3400  177.3770  142.4120 C   0  0  0  0  0  0  0  0  0  0  0  0
  186.6580  177.9420  143.0910 C   0  0  0  0  0  3  0  0  0  0  0  0
  189.7230  177.1570  144.9060 C   0  0  0  0  0  0  0  0  0  0  0  0
  190.9280  176.7610  147.3960 C   0  0  0  0  0  3  0  0  0  0  0  0
  187.0560  177.9040  141.7450 C   0  0  0  0  0  3  0  0  0  0  0  0
  188.9860  177.2680  146.0850 C   0  0  0  0  0  0  0  0  0  0  0  0
  189.5620  177.0760  147.3370 C   0  0  0  0  0  3  0  0  0  0  0  0
  190.9640  176.9900  141.7850 S   0  0  0  0  0  0  0  0  0  0  0  0
  191.6850  176.6470  146.2160 C   0  0  0  0  0  3  0  0  0  0  0  0
  187.6160  177.6820  144.0730 C   0  0  0  0  0  0  0  0  0  0  0  0
  187.3810  177.6540  145.7430 S   0  0  0  0  0  0  0  0  0  0  0  0
  188.9080  177.5010  140.0320 C   0  0  1  0  0  3  0  0  0  0  0  0
  191.0840  176.8450  144.9620 C   0  0  0  0  0  3  0  0  0  0  0  0
  190.1740  176.6350  140.1730 C   0  0  1  0  0  3  0  0  0  0  0  0
  188.3940  177.6180  141.4220 C   0  0  0  0  0  0  0  0  0  0  0  0
  191.1390  176.7650  139.0290 C   0  0  0  0  0  3  0  0  0  0  0  0
  191.0360  176.0610  137.8940 C   0  0  0  0  0  3  0  0  0  0  0  0
  189.9460  175.0640  137.6350 C   0  0  2  0  0  3  0  0  0  0  0  0
  190.5040  173.8400  136.9290 C   0  0  0  0  0  1  0  0  0  0  0  0
  188.8620  175.6820  136.8150 C   0  0  0  0  0  0  0  0  0  0  0  0
  187.5480  175.6140  137.2570 O   0  0  0  0  0  1  0  0  0  0  0  0
  189.1270  176.2650  135.7300 O   0  0  0  0  0  0  0  0  0  0  0  0
  189.2170  178.8940  139.4840 C   0  0  0  0  0  2  0  0  0  0  0  0
  188.6300  179.0540  138.1650 N   0  0  0  0  0  1  0  0  0  0  0  0
  1 11  2  0  0  0  0
  1  4  1  0  0  0  0
  2  1  1  0  0  0  0
  3 11  1  0  0  0  0
  4 14  2  0  0  0  0
  4  7  1  0  0  0  0
  6  3  2  0  0  0  0
  7  8  2  0  0  0  0
  8  5  1  0  0  0  0
  9  2  1  0  0  0  0
 10  5  2  0  0  0  0
 11 12  1  0  0  0  0
 12  7  1  0  0  0  0
 13 24  1  1  0  0  0
 13 15  1  0  0  0  0
 13 16  1  0  0  0  0
 14 10  1  0  0  0  0
 15 17  1  6  0  0  0
 15  9  1  0  0  0  0
 16  6  1  0  0  0  0
 16  2  2  0  0  0  0
 18 17  2  0  0  0  0
 19 20  1  6  0  0  0
 19 18  1  0  0  0  0
 21 22  1  0  0  0  0
 21 19  1  0  0  0  0
 23 21  2  0  0  0  0
 25 24  1  0  0  0  0
M  END
>  <MODEL>
1

>  <REMARK>
 VINA RESULT:      -7.9      0.000      0.000
  Name = 
  4 active torsions:
  status: ('A' for Active; 'I' for Inactive)
    1  A    between atoms: C_2  and  C_21
    2  A    between atoms: C_6  and  C_23
    3  A    between atoms: C_13  and  C_20
    4  A    between atoms: C_15  and  C_21
                            x       y       z     vdW  Elec       q    Type
                         _______ _______ _______ _____ _____    ______ ____

>  <TORSDO>
F 4

$$$$
=
 OpenBabel11052412493D

 25 28  0  0  1  0  0  0  0  0999 V2000
  187.1850  177.9690  144.7400 C   0  0  0  0  0  0  0  0  0  0  0  0
  188.1930  177.5640  143.8500 C   0  0  0  0  0  0  0  0  0  0  0  0
  188.7940  177.9380  146.5840 C   0  0  0  0  0  3  0  0  0  0  0  0
  185.8320  178.2360  144.4750 C   0  0  0  0  0  0  0  0  0  0  0  0
  183.1080  178.8430  144.3450 C   0  0  0  0  0  3  0  0  0  0  0  0
  189.7990  177.5540  145.6830 C   0  0  0  0  0  3  0  0  0  0  0  0
  185.1250  178.6070  145.6180 C   0  0  0  0  0  0  0  0  0  0  0  0
  183.7680  178.9140  145.5800 C   0  0  0  0  0  3  0  0  0  0  0  0
  188.0240  177.3310  142.0900 S   0  0  0  0  0  0  0  0  0  0  0  0
  183.8070  178.4690  143.1830 C   0  0  0  0  0  3  0  0  0  0  0  0
  187.5030  178.1400  146.0900 C   0  0  0  0  0  0  0  0  0  0  0  0
  186.1410  178.6150  146.9640 S   0  0  0  0  0  0  0  0  0  0  0  0
  190.4840  177.0230  143.2790 C   0  0  1  0  0  3  0  0  0  0  0  0
  185.1760  178.1630  143.2430 C   0  0  0  0  0  3  0  0  0  0  0  0
  189.8410  177.5120  141.9680 C   0  0  1  0  0  3  0  0  0  0  0  0
  189.4860  177.3750  144.3240 C   0  0  0  0  0  0  0  0  0  0  0  0
  190.3920  176.8590  140.7320 C   0  0  0  0  0  3  0  0  0  0  0  0
  190.0290  177.2070  139.4900 C   0  0  0  0  0  3  0  0  0  0  0  0
  189.0340  178.2880  139.1920 C   0  0  2  0  0  3  0  0  0  0  0  0
  187.6170  177.7550  139.3210 C   0  0  0  0  0  1  0  0  0  0  0  0
  189.2560  178.8350  137.8210 C   0  0  0  0  0  0  0  0  0  0  0  0
  189.7750  178.0120  136.8320 O   0  0  0  0  0  0  0  0  0  0  0  0
  188.9760  180.0340  137.5530 O   0  0  0  0  0  1  0  0  0  0  0  0
  190.7130  175.5110  143.2840 C   0  0  0  0  0  2  0  0  0  0  0  0
  191.9300  175.1930  144.0120 N   0  0  0  0  0  1  0  0  0  0  0  0
  1 11  2  0  0  0  0
  2 16  2  0  0  0  0
  2  1  1  0  0  0  0
  4  1  1  0  0  0  0
  4  7  1  0  0  0  0
  5  8  1  0  0  0  0
  6  3  2  0  0  0  0
  7 12  1  0  0  0  0
  8  7  2  0  0  0  0
  9  2  1  0  0  0  0
 10 14  1  0  0  0  0
 10  5  2  0  0  0  0
 11  3  1  0  0  0  0
 11 12  1  0  0  0  0
 13 24  1  6  0  0  0
 13 16  1  0  0  0  0
 14  4  2  0  0  0  0
 15 17  1  6  0  0  0
 15  9  1  0  0  0  0
 15 13  1  0  0  0  0
 16  6  1  0  0  0  0
 18 17  2  0  0  0  0
 19 20  1  6  0  0  0
 19 18  1  0  0  0  0
 21 19  1  0  0  0  0
 22 21  2  0  0  0  0
 23 21  1  0  0  0  0
 24 25  1  0  0  0  0
M  END
>  <MODEL>
2

>  <REMARK>
 VINA RESULT:      -7.7      2.594      4.619
  Name = 
  4 active torsions:
  status: ('A' for Active; 'I' for Inactive)
    1  A    between atoms: C_2  and  C_21
    2  A    between atoms: C_6  and  C_23
    3  A    between atoms: C_13  and  C_20
    4  A    between atoms: C_15  and  C_21
                            x       y       z     vdW  Elec       q    Type
                         _______ _______ _______ _____ _____    ______ ____

>  <TORSDO>
F 4

$$$$
=
 OpenBabel11052412493D

 25 28  0  0  1  0  0  0  0  0999 V2000
  188.1500  177.5980  142.2920 C   0  0  0  0  0  0  0  0  0  0  0  0
  186.9050  178.0050  142.7960 C   0  0  0  0  0  0  0  0  0  0  0  0
  188.7480  176.6920  144.4850 C   0  0  0  0  0  3  0  0  0  0  0  0
  188.6660  177.7480  140.9940 C   0  0  0  0  0  0  0  0  0  0  0  0
  190.0250  177.8640  138.5550 C   0  0  0  0  0  3  0  0  0  0  0  0
  187.4920  177.0840  144.9740 C   0  0  0  0  0  3  0  0  0  0  0  0
  189.9510  177.2240  140.8640 C   0  0  0  0  0  0  0  0  0  0  0  0
  190.6500  177.2690  139.6610 C   0  0  0  0  0  3  0  0  0  0  0  0
  185.5940  178.7940  141.8790 S   0  0  0  0  0  0  0  0  0  0  0  0
  188.7290  178.3980  138.6700 C   0  0  0  0  0  3  0  0  0  0  0  0
  189.0500  176.9570  143.1470 C   0  0  0  0  0  0  0  0  0  0  0  0
  190.4740  176.5720  142.3290 S   0  0  0  0  0  0  0  0  0  0  0  0
  185.2110  178.1430  144.5230 C   0  0  1  0  0  3  0  0  0  0  0  0
  188.0410  178.3430  139.8940 C   0  0  0  0  0  3  0  0  0  0  0  0
  184.4450  178.2390  143.1900 C   0  0  1  0  0  3  0  0  0  0  0  0
  186.5840  177.7350  144.1220 C   0  0  0  0  0  0  0  0  0  0  0  0
  183.2060  179.0880  143.2530 C   0  0  0  0  0  3  0  0  0  0  0  0
  182.2500  179.0660  142.3140 C   0  0  0  0  0  3  0  0  0  0  0  0
  182.3060  178.1920  141.0970 C   0  0  2  0  0  3  0  0  0  0  0  0
  182.6180  179.0210  139.8630 C   0  0  0  0  0  1  0  0  0  0  0  0
  181.0120  177.4680  140.9180 C   0  0  0  0  0  0  0  0  0  0  0  0
  179.9250  177.8030  141.7130 O   0  0  0  0  0  1  0  0  0  0  0  0
  180.8970  176.5600  140.0530 O   0  0  0  0  0  0  0  0  0  0  0  0
  185.2730  179.4840  145.2540 C   0  0  0  0  0  2  0  0  0  0  0  0
  185.3000  179.2690  146.6900 N   0  0  0  0  0  1  0  0  0  0  0  0
  1  2  2  0  0  0  0
  1 11  1  0  0  0  0
  2 16  1  0  0  0  0
  3  6  1  0  0  0  0
  4  1  1  0  0  0  0
  5 10  2  0  0  0  0
  5  8  1  0  0  0  0
  7  4  1  0  0  0  0
  7 12  1  0  0  0  0
  8  7  2  0  0  0  0
  9  2  1  0  0  0  0
  9 15  1  0  0  0  0
 10 14  1  0  0  0  0
 11  3  2  0  0  0  0
 12 11  1  0  0  0  0
 13 24  1  6  0  0  0
 14  4  2  0  0  0  0
 15 17  1  1  0  0  0
 15 13  1  0  0  0  0
 16 13  1  0  0  0  0
 16  6  2  0  0  0  0
 18 17  2  0  0  0  0
 19 20  1  6  0  0  0
 19 18  1  0  0  0  0
 21 19  1  0  0  0  0
 21 22  1  0  0  0  0
 23 21  2  0  0  0  0
 24 25  1  0  0  0  0
M  END
>  <MODEL>
3

>  <REMARK>
 VINA RESULT:      -7.4      3.943      6.987
  Name = 
  4 active torsions:
  status: ('A' for Active; 'I' for Inactive)
    1  A    between atoms: C_2  and  C_21
    2  A    between atoms: C_6  and  C_23
    3  A    between atoms: C_13  and  C_20
    4  A    between atoms: C_15  and  C_21
                            x       y       z     vdW  Elec       q    Type
                         _______ _______ _______ _____ _____    ______ ____

>  <TORSDO>
F 4

$$$$
=
 OpenBabel11052412493D

 25 28  0  0  1  0  0  0  0  0999 V2000
  186.9280  178.0570  142.3140 C   0  0  0  0  0  0  0  0  0  0  0  0
  188.1900  177.4550  142.4420 C   0  0  0  0  0  0  0  0  0  0  0  0
  187.3070  178.3540  139.9150 C   0  0  0  0  0  3  0  0  0  0  0  0
  185.9650  178.3030  143.3070 C   0  0  0  0  0  0  0  0  0  0  0  0
  183.8290  178.9590  144.9850 C   0  0  0  0  0  3  0  0  0  0  0  0
  188.5580  177.7320  140.0490 C   0  0  0  0  0  3  0  0  0  0  0  0
  184.8270  178.9320  142.8050 C   0  0  0  0  0  0  0  0  0  0  0  0
  183.7500  179.2700  143.6200 C   0  0  0  0  0  3  0  0  0  0  0  0
  188.8960  176.7770  143.9330 S   0  0  0  0  0  0  0  0  0  0  0  0
  184.9720  178.3250  145.5070 C   0  0  0  0  0  3  0  0  0  0  0  0
  186.5140  178.5020  141.0560 C   0  0  0  0  0  0  0  0  0  0  0  0
  184.9800  179.1960  141.1470 S   0  0  0  0  0  0  0  0  0  0  0  0
  190.2630  176.5700  141.5560 C   0  0  1  0  0  3  0  0  0  0  0  0
  186.0480  177.9930  144.6670 C   0  0  0  0  0  3  0  0  0  0  0  0
  190.0170  175.7990  142.8670 C   0  0  1  0  0  3  0  0  0  0  0  0
  188.9830  177.2870  141.3130 C   0  0  0  0  0  0  0  0  0  0  0  0
  191.2720  175.3940  143.5870 C   0  0  0  0  0  3  0  0  0  0  0  0
  191.6900  175.9720  144.7210 C   0  0  0  0  0  3  0  0  0  0  0  0
  190.9520  177.0860  145.4020 C   0  0  2  0  0  3  0  0  0  0  0  0
  191.6070  178.4220  145.0930 C   0  0  0  0  0  1  0  0  0  0  0  0
  190.9150  176.8590  146.8770 C   0  0  0  0  0  0  0  0  0  0  0  0
  192.0940  176.9120  147.6070 O   0  0  0  0  0  1  0  0  0  0  0  0
  189.8260  176.6220  147.4650 O   0  0  0  0  0  0  0  0  0  0  0  0
  191.3980  177.5850  141.6840 C   0  0  0  0  0  2  0  0  0  0  0  0
  192.2230  177.5670  140.4880 N   0  0  0  0  0  1  0  0  0  0  0  0
  1  2  1  0  0  0  0
  1  4  1  0  0  0  0
  2  9  1  0  0  0  0
  3  6  2  0  0  0  0
  3 11  1  0  0  0  0
  4 14  1  0  0  0  0
  5 10  1  0  0  0  0
  6 16  1  0  0  0  0
  7  4  2  0  0  0  0
  7  8  1  0  0  0  0
  8  5  2  0  0  0  0
 11 12  1  0  0  0  0
 11  1  2  0  0  0  0
 12  7  1  0  0  0  0
 13 24  1  1  0  0  0
 13 15  1  0  0  0  0
 14 10  2  0  0  0  0
 15 17  1  1  0  0  0
 15  9  1  0  0  0  0
 16 13  1  0  0  0  0
 16  2  2  0  0  0  0
 17 18  2  0  0  0  0
 18 19  1  0  0  0  0
 19 20  1  1  0  0  0
 19 21  1  0  0  0  0
 21 23  2  0  0  0  0
 21 22  1  0  0  0  0
 25 24  1  0  0  0  0
M  END
>  <MODEL>
4

>  <REMARK>
 VINA RESULT:      -7.2      3.928      6.178
  Name = 
  4 active torsions:
  status: ('A' for Active; 'I' for Inactive)
    1  A    between atoms: C_2  and  C_21
    2  A    between atoms: C_6  and  C_23
    3  A    between atoms: C_13  and  C_20
    4  A    between atoms: C_15  and  C_21
                            x       y       z     vdW  Elec       q    Type
                         _______ _______ _______ _____ _____    ______ ____

>  <TORSDO>
F 4

$$$$
=
 OpenBabel11052412493D

 25 28  0  0  1  0  0  0  0  0999 V2000
  187.6910  177.6770  145.6810 C   0  0  0  0  0  0  0  0  0  0  0  0
  186.8780  178.0550  144.6010 C   0  0  0  0  0  0  0  0  0  0  0  0
  185.7700  177.8300  147.1880 C   0  0  0  0  0  3  0  0  0  0  0  0
  189.0630  177.3720  145.6850 C   0  0  0  0  0  0  0  0  0  0  0  0
  191.7460  176.7090  146.0940 C   0  0  0  0  0  3  0  0  0  0  0  0
  184.9600  178.1870  146.0990 C   0  0  0  0  0  3  0  0  0  0  0  0
  189.5340  177.0450  146.9560 C   0  0  0  0  0  0  0  0  0  0  0  0
  190.8660  176.7110  147.1860 C   0  0  0  0  0  3  0  0  0  0  0  0
  187.3770  178.1970  142.8940 S   0  0  0  0  0  0  0  0  0  0  0  0
  191.2850  177.0370  144.8060 C   0  0  0  0  0  3  0  0  0  0  0  0
  187.1240  177.5800  146.9540 C   0  0  0  0  0  0  0  0  0  0  0  0
  188.2870  177.1240  148.0870 S   0  0  0  0  0  0  0  0  0  0  0  0
  184.7480  178.6100  143.5880 C   0  0  1  0  0  3  0  0  0  0  0  0
  189.9370  177.3710  144.5950 C   0  0  0  0  0  3  0  0  0  0  0  0
  185.6090  178.0440  142.4440 C   0  0  1  0  0  3  0  0  0  0  0  0
  185.5240  178.2920  144.8160 C   0  0  0  0  0  0  0  0  0  0  0  0
  185.3150  178.6440  141.0980 C   0  0  0  0  0  3  0  0  0  0  0  0
  184.1650  178.4480  140.4390 C   0  0  0  0  0  3  0  0  0  0  0  0
  183.0400  177.6110  140.9700 C   0  0  2  0  0  3  0  0  0  0  0  0
  182.6810  176.5160  139.9800 C   0  0  0  0  0  1  0  0  0  0  0  0
  181.8470  178.4630  141.2530 C   0  0  0  0  0  0  0  0  0  0  0  0
  181.4620  179.4270  140.3320 O   0  0  0  0  0  0  0  0  0  0  0  0
  181.1870  178.3140  142.3150 O   0  0  0  0  0  1  0  0  0  0  0  0
  184.5640  180.1230  143.4810 C   0  0  0  0  0  2  0  0  0  0  0  0
  183.2480  180.5020  143.9680 N   0  0  0  0  0  1  0  0  0  0  0  0
  1  4  1  0  0  0  0
  1 11  2  0  0  0  0
  2 16  2  0  0  0  0
  2  1  1  0  0  0  0
  4  7  1  0  0  0  0
  5  8  1  0  0  0  0
  6  3  2  0  0  0  0
  7  8  2  0  0  0  0
  7 12  1  0  0  0  0
  9  2  1  0  0  0  0
 10  5  2  0  0  0  0
 11  3  1  0  0  0  0
 11 12  1  0  0  0  0
 13 24  1  6  0  0  0
 13 16  1  0  0  0  0
 14 10  1  0  0  0  0
 14  4  2  0  0  0  0
 15 17  1  6  0  0  0
 15  9  1  0  0  0  0
 15 13  1  0  0  0  0
 16  6  1  0  0  0  0
 18 19  1  0  0  0  0
 18 17  2  0  0  0  0
 19 20  1  6  0  0  0
 19 21  1  0  0  0  0
 21 23  1  0  0  0  0
 22 21  2  0  0  0  0
 24 25  1  0  0  0  0
M  END
>  <MODEL>
5

>  <REMARK>
 VINA RESULT:      -7.1      4.677      5.566
  Name = 
  4 active torsions:
  status: ('A' for Active; 'I' for Inactive)
    1  A    between atoms: C_2  and  C_21
    2  A    between atoms: C_6  and  C_23
    3  A    between atoms: C_13  and  C_20
    4  A    between atoms: C_15  and  C_21
                            x       y       z     vdW  Elec       q    Type
                         _______ _______ _______ _____ _____    ______ ____

>  <TORSDO>
F 4

$$$$
=
 OpenBabel11052412493D

 25 28  0  0  1  0  0  0  0  0999 V2000
  185.4750  178.4750  141.2700 C   0  0  0  0  0  0  0  0  0  0  0  0
  186.7810  178.3140  140.7800 C   0  0  0  0  0  0  0  0  0  0  0  0
  184.6010  178.3840  138.9860 C   0  0  0  0  0  3  0  0  0  0  0  0
  185.0450  178.6170  142.6000 C   0  0  0  0  0  0  0  0  0  0  0  0
  183.8160  178.9300  145.0900 C   0  0  0  0  0  3  0  0  0  0  0  0
  185.9080  178.2030  138.5070 C   0  0  0  0  0  3  0  0  0  0  0  0
  183.6620  178.7640  142.7030 C   0  0  0  0  0  0  0  0  0  0  0  0
  183.0260  178.9220  143.9310 C   0  0  0  0  0  3  0  0  0  0  0  0
  188.2720  178.1920  141.7510 S   0  0  0  0  0  0  0  0  0  0  0  0
  185.2120  178.7830  145.0020 C   0  0  0  0  0  3  0  0  0  0  0  0
  184.4120  178.5140  140.3640 C   0  0  0  0  0  0  0  0  0  0  0  0
  182.9490  178.7230  141.1760 S   0  0  0  0  0  0  0  0  0  0  0  0
  188.3960  177.9280  139.0170 C   0  0  1  0  0  3  0  0  0  0  0  0
  185.8350  178.6260  143.7530 C   0  0  0  0  0  3  0  0  0  0  0  0
  189.0600  177.3990  140.3020 C   0  0  1  0  0  3  0  0  0  0  0  0
  186.9830  178.1680  139.4120 C   0  0  0  0  0  0  0  0  0  0  0  0
  190.5560  177.5400  140.3250 C   0  0  0  0  0  3  0  0  0  0  0  0
  191.2780  177.5520  141.4540 C   0  0  0  0  0  3  0  0  0  0  0  0
  190.6760  177.4240  142.8210 C   0  0  2  0  0  3  0  0  0  0  0  0
  191.2730  178.4570  143.7620 C   0  0  0  0  0  1  0  0  0  0  0  0
  190.8980  176.0490  143.3590 C   0  0  0  0  0  0  0  0  0  0  0  0
  191.7940  175.8580  144.4010 O   0  0  0  0  0  1  0  0  0  0  0  0
  190.2790  175.0620  142.8780 O   0  0  0  0  0  0  0  0  0  0  0  0
  189.0200  179.2400  138.5400 C   0  0  0  0  0  2  0  0  0  0  0  0
  188.9410  179.3330  137.0920 N   0  0  0  0  0  1  0  0  0  0  0  0
  1  4  1  0  0  0  0
  2  1  1  0  0  0  0
  2  9  1  0  0  0  0
  3 11  1  0  0  0  0
  4  7  2  0  0  0  0
  4 14  1  0  0  0  0
  6  3  2  0  0  0  0
  6 16  1  0  0  0  0
  7  8  1  0  0  0  0
  8  5  2  0  0  0  0
 10  5  1  0  0  0  0
 11 12  1  0  0  0  0
 11  1  2  0  0  0  0
 12  7  1  0  0  0  0
 13 24  1  1  0  0  0
 13 16  1  0  0  0  0
 13 15  1  0  0  0  0
 14 10  2  0  0  0  0
 15 17  1  6  0  0  0
 15  9  1  0  0  0  0
 16  2  2  0  0  0  0
 17 18  2  0  0  0  0
 18 19  1  0  0  0  0
 19 21  1  0  0  0  0
 19 20  1  1  0  0  0
 21 22  1  0  0  0  0
 23 21  2  0  0  0  0
 25 24  1  0  0  0  0
M  END
>  <MODEL>
6

>  <REMARK>
 VINA RESULT:      -6.8      3.283      5.325
  Name = 
  4 active torsions:
  status: ('A' for Active; 'I' for Inactive)
    1  A    between atoms: C_2  and  C_21
    2  A    between atoms: C_6  and  C_23
    3  A    between atoms: C_13  and  C_20
    4  A    between atoms: C_15  and  C_21
                            x       y       z     vdW  Elec       q    Type
                         _______ _______ _______ _____ _____    ______ ____

>  <TORSDO>
F 4

$$$$
=
 OpenBabel11052412493D

 25 28  0  0  1  0  0  0  0  0999 V2000
  186.9830  178.1850  145.4800 C   0  0  0  0  0  0  0  0  0  0  0  0
  188.3390  178.0660  145.1380 C   0  0  0  0  0  0  0  0  0  0  0  0
  187.5500  177.9030  147.8440 C   0  0  0  0  0  3  0  0  0  0  0  0
  185.8760  178.3840  144.6380 C   0  0  0  0  0  0  0  0  0  0  0  0
  183.4530  178.7690  143.3030 C   0  0  0  0  0  3  0  0  0  0  0  0
  188.9060  177.8060  147.4930 C   0  0  0  0  0  3  0  0  0  0  0  0
  184.6730  178.4440  145.3400 C   0  0  0  0  0  0  0  0  0  0  0  0
  183.4530  178.6340  144.6990 C   0  0  0  0  0  3  0  0  0  0  0  0
  189.0360  178.1960  143.5010 S   0  0  0  0  0  0  0  0  0  0  0  0
  184.6580  178.7100  142.5810 C   0  0  0  0  0  3  0  0  0  0  0  0
  186.6140  178.0930  146.8250 C   0  0  0  0  0  0  0  0  0  0  0  0
  184.9440  178.2530  146.9940 S   0  0  0  0  0  0  0  0  0  0  0  0
  190.6940  177.8560  145.6680 C   0  0  1  0  0  3  0  0  0  0  0  0
  185.8790  178.5170  143.2470 C   0  0  0  0  0  3  0  0  0  0  0  0
  190.6450  178.5540  144.2970 C   0  0  1  0  0  3  0  0  0  0  0  0
  189.2850  177.8920  146.1420 C   0  0  0  0  0  0  0  0  0  0  0  0
  191.8050  178.2280  143.3990 C   0  0  0  0  0  3  0  0  0  0  0  0
  191.6820  177.5340  142.2590 C   0  0  0  0  0  3  0  0  0  0  0  0
  190.3740  177.0070  141.7480 C   0  0  2  0  0  3  0  0  0  0  0  0
  190.1010  175.6250  142.3180 C   0  0  0  0  0  1  0  0  0  0  0  0
  190.3810  176.9570  140.2560 C   0  0  0  0  0  0  0  0  0  0  0  0
  189.7750  177.9770  139.5350 O   0  0  0  0  0  0  0  0  0  0  0  0
  190.9310  176.0020  139.6460 O   0  0  0  0  0  1  0  0  0  0  0  0
  191.1580  176.4040  145.5630 C   0  0  0  0  0  2  0  0  0  0  0  0
  192.0480  176.0820  146.6660 N   0  0  0  0  0  1  0  0  0  0  0  0
  1 11  1  0  0  0  0
  2  1  2  0  0  0  0
  2 16  1  0  0  0  0
  4  7  1  0  0  0  0
  4  1  1  0  0  0  0
  5  8  1  0  0  0  0
  6  3  1  0  0  0  0
  7 12  1  0  0  0  0
  8  7  2  0  0  0  0
  9 15  1  0  0  0  0
  9  2  1  0  0  0  0
 10 14  1  0  0  0  0
 10  5  2  0  0  0  0
 11 12  1  0  0  0  0
 11  3  2  0  0  0  0
 13 24  1  6  0  0  0
 13 16  1  0  0  0  0
 14  4  2  0  0  0  0
 15 17  1  6  0  0  0
 15 13  1  0  0  0  0
 16  6  2  0  0  0  0
 18 17  2  0  0  0  0
 19 18  1  0  0  0  0
 19 20  1  1  0  0  0
 21 19  1  0  0  0  0
 22 21  2  0  0  0  0
 23 21  1  0  0  0  0
 24 25  1  0  0  0  0
M  END
>  <MODEL>
7

>  <REMARK>
 VINA RESULT:      -6.8      3.038      5.391
  Name = 
  4 active torsions:
  status: ('A' for Active; 'I' for Inactive)
    1  A    between atoms: C_2  and  C_21
    2  A    between atoms: C_6  and  C_23
    3  A    between atoms: C_13  and  C_20
    4  A    between atoms: C_15  and  C_21
                            x       y       z     vdW  Elec       q    Type
                         _______ _______ _______ _____ _____    ______ ____

>  <TORSDO>
F 4

$$$$
=
 OpenBabel11052412493D

 25 28  0  0  1  0  0  0  0  0999 V2000
  184.4100  178.4310  143.2510 C   0  0  0  0  0  0  0  0  0  0  0  0
  183.8600  178.4410  141.9600 C   0  0  0  0  0  0  0  0  0  0  0  0
  182.2280  179.0150  144.1910 C   0  0  0  0  0  3  0  0  0  0  0  0
  185.7330  178.1650  143.6430 C   0  0  0  0  0  0  0  0  0  0  0  0
  188.2340  177.7050  144.8000 C   0  0  0  0  0  3  0  0  0  0  0  0
  181.6820  179.0020  142.8980 C   0  0  0  0  0  3  0  0  0  0  0  0
  185.9120  178.2570  145.0220 C   0  0  0  0  0  0  0  0  0  0  0  0
  187.1470  178.0330  145.6230 C   0  0  0  0  0  3  0  0  0  0  0  0
  184.7110  178.0540  140.4400 S   0  0  0  0  0  0  0  0  0  0  0  0
  188.0700  177.6100  143.4060 C   0  0  0  0  0  3  0  0  0  0  0  0
  183.5860  178.7260  144.3410 C   0  0  0  0  0  0  0  0  0  0  0  0
  184.4620  178.6640  145.7800 S   0  0  0  0  0  0  0  0  0  0  0  0
  182.0200  178.6200  140.3950 C   0  0  1  0  0  3  0  0  0  0  0  0
  186.8140  177.8400  142.8190 C   0  0  0  0  0  3  0  0  0  0  0  0
  183.0700  177.7400  139.6910 C   0  0  1  0  0  3  0  0  0  0  0  0
  182.5060  178.7120  141.7970 C   0  0  0  0  0  0  0  0  0  0  0  0
  183.0950  177.8870  138.1960 C   0  0  0  0  0  3  0  0  0  0  0  0
  183.2940  176.8610  137.3580 C   0  0  0  0  0  3  0  0  0  0  0  0
  183.5130  175.4500  137.8160 C   0  0  2  0  0  3  0  0  0  0  0  0
  184.7390  174.8580  137.1410 C   0  0  0  0  0  1  0  0  0  0  0  0
  182.3110  174.6150  137.5220 C   0  0  0  0  0  0  0  0  0  0  0  0
  182.4020  173.5840  136.5970 O   0  0  0  0  0  0  0  0  0  0  0  0
  181.2150  174.8370  138.1040 O   0  0  0  0  0  1  0  0  0  0  0  0
  181.9400  180.0210  139.7910 C   0  0  0  0  0  2  0  0  0  0  0  0
  180.5550  180.4540  139.7120 N   0  0  0  0  0  1  0  0  0  0  0  0
  1  4  1  0  0  0  0
  1 11  2  0  0  0  0
  2  1  1  0  0  0  0
  3 11  1  0  0  0  0
  4  7  1  0  0  0  0
  5  8  1  0  0  0  0
  6  3  2  0  0  0  0
  7  8  2  0  0  0  0
  7 12  1  0  0  0  0
  9  2  1  0  0  0  0
 10  5  2  0  0  0  0
 11 12  1  0  0  0  0
 13 24  1  6  0  0  0
 13 16  1  0  0  0  0
 14 10  1  0  0  0  0
 14  4  2  0  0  0  0
 15 17  1  6  0  0  0
 15 13  1  0  0  0  0
 15  9  1  0  0  0  0
 16  2  2  0  0  0  0
 16  6  1  0  0  0  0
 18 19  1  0  0  0  0
 18 17  2  0  0  0  0
 19 20  1  6  0  0  0
 21 19  1  0  0  0  0
 21 23  1  0  0  0  0
 22 21  2  0  0  0  0
 25 24  1  0  0  0  0
M  END
>  <MODEL>
8

>  <REMARK>
 VINA RESULT:      -6.3      4.586      5.953
  Name = 
  4 active torsions:
  status: ('A' for Active; 'I' for Inactive)
    1  A    between atoms: C_2  and  C_21
    2  A    between atoms: C_6  and  C_23
    3  A    between atoms: C_13  and  C_20
    4  A    between atoms: C_15  and  C_21
                            x       y       z     vdW  Elec       q    Type
                         _______ _______ _______ _____ _____    ______ ____

>  <TORSDO>
F 4

$$$$
=
 OpenBabel11052412493D

 25 28  0  0  1  0  0  0  0  0999 V2000
  188.0180  177.6600  143.7580 C   0  0  0  0  0  0  0  0  0  0  0  0
  186.7620  178.0640  143.2780 C   0  0  0  0  0  0  0  0  0  0  0  0
  187.0520  177.2650  145.9710 C   0  0  0  0  0  3  0  0  0  0  0  0
  189.2400  177.5840  143.0690 C   0  0  0  0  0  0  0  0  0  0  0  0
  191.8280  177.3080  142.0520 C   0  0  0  0  0  3  0  0  0  0  0  0
  185.7960  177.6510  145.4770 C   0  0  0  0  0  3  0  0  0  0  0  0
  190.2850  177.1450  143.8800 C   0  0  0  0  0  0  0  0  0  0  0  0
  191.5830  176.9990  143.3980 C   0  0  0  0  0  3  0  0  0  0  0  0
  186.3680  178.5480  141.6070 S   0  0  0  0  0  0  0  0  0  0  0  0
  190.7840  177.7540  141.2220 C   0  0  0  0  0  3  0  0  0  0  0  0
  188.1410  177.2760  145.0950 C   0  0  0  0  0  0  0  0  0  0  0  0
  189.7330  176.8440  145.4450 S   0  0  0  0  0  0  0  0  0  0  0  0
  184.3750  178.4180  143.4970 C   0  0  1  0  0  3  0  0  0  0  0  0
  189.4810  177.8940  141.7280 C   0  0  0  0  0  3  0  0  0  0  0  0
  184.6170  178.1830  141.9940 C   0  0  1  0  0  3  0  0  0  0  0  0
  185.6660  178.0440  144.1340 C   0  0  0  0  0  0  0  0  0  0  0  0
  183.6720  178.9290  141.0950 C   0  0  0  0  0  3  0  0  0  0  0  0
  183.3770  178.5370  139.8480 C   0  0  0  0  0  3  0  0  0  0  0  0
  183.9540  177.3090  139.2090 C   0  0  2  0  0  3  0  0  0  0  0  0
  184.7610  177.6820  137.9770 C   0  0  0  0  0  1  0  0  0  0  0  0
  182.8670  176.3540  138.8430 C   0  0  0  0  0  0  0  0  0  0  0  0
  182.3310  176.3840  137.5630 O   0  0  0  0  0  0  0  0  0  0  0  0
  182.4310  175.5220  139.6830 O   0  0  0  0  0  1  0  0  0  0  0  0
  184.0590  179.8800  143.8120 C   0  0  0  0  0  2  0  0  0  0  0  0
  182.6420  180.0340  144.0950 N   0  0  0  0  0  1  0  0  0  0  0  0
  1 11  1  0  0  0  0
  2  1  2  0  0  0  0
  2 16  1  0  0  0  0
  4  1  1  0  0  0  0
  4  7  1  0  0  0  0
  5  8  1  0  0  0  0
  6  3  1  0  0  0  0
  7 12  1  0  0  0  0
  8  7  2  0  0  0  0
  9 15  1  0  0  0  0
  9  2  1  0  0  0  0
 10 14  1  0  0  0  0
 10  5  2  0  0  0  0
 11 12  1  0  0  0  0
 11  3  2  0  0  0  0
 13 24  1  6  0  0  0
 13 16  1  0  0  0  0
 14  4  2  0  0  0  0
 15 17  1  6  0  0  0
 15 13  1  0  0  0  0
 16  6  2  0  0  0  0
 18 17  2  0  0  0  0
 19 20  1  6  0  0  0
 19 18  1  0  0  0  0
 21 19  1  0  0  0  0
 21 23  1  0  0  0  0
 22 21  2  0  0  0  0
 24 25  1  0  0  0  0
M  END
>  <MODEL>
9

>  <REMARK>
 VINA RESULT:      -6.2      3.563      5.380
  Name = 
  4 active torsions:
  status: ('A' for Active; 'I' for Inactive)
    1  A    between atoms: C_2  and  C_21
    2  A    between atoms: C_6  and  C_23
    3  A    between atoms: C_13  and  C_20
    4  A    between atoms: C_15  and  C_21
                            x       y       z     vdW  Elec       q    Type
                         _______ _______ _______ _____ _____    ______ ____

>  <TORSDO>
F 4

$$$$
