=
 OpenBabel11052413593D

 34 37  0  0  1  0  0  0  0  0999 V2000
  186.8350  178.2910  138.9390 N   0  0  1  0  0  0  0  0  0  0  0  0
  187.9830  178.8860  140.9360 O   0  0  0  0  0  0  0  0  0  0  0  0
  185.5520  178.3280  139.6730 C   0  0  1  0  0  3  0  0  0  0  0  0
  186.8180  179.0460  141.6710 C   0  0  0  0  0  3  0  0  0  0  0  0
  185.6370  178.7400  141.1370 C   0  0  0  0  0  0  0  0  0  0  0  0
  188.0020  178.0260  139.8070 C   0  0  2  0  0  3  0  0  0  0  0  0
  187.5500  176.1640  138.0120 O   0  0  0  0  0  0  0  0  0  0  0  0
  186.9230  177.7830  136.4550 C   0  0  1  0  0  3  0  0  0  0  0  0
  188.2600  176.0310  136.8360 C   0  0  0  0  0  0  0  0  0  0  0  0
  187.9670  176.9080  135.9410 N   0  0  0  0  0  0  0  0  0  0  0  0
  186.6600  177.2660  137.8870 C   0  0  2  0  0  3  0  0  0  0  0  0
  189.2940  174.9840  136.6250 C   0  0  0  0  0  1  0  0  0  0  0  0
  187.3710  179.2360  136.3740 C   0  0  0  0  0  1  0  0  0  0  0  0
  183.4020  178.9330  144.1980 C   0  0  0  0  0  0  0  0  0  0  0  0
  182.1300  178.8540  143.6240 C   0  0  0  0  0  3  0  0  0  0  0  0
  184.4220  178.7580  141.9950 C   0  0  0  0  0  0  0  0  0  0  0  0
  181.9980  178.7230  142.2400 C   0  0  0  0  0  3  0  0  0  0  0  0
  184.5380  178.8900  143.3880 C   0  0  0  0  0  3  0  0  0  0  0  0
  183.1370  178.6760  141.4310 C   0  0  0  0  0  3  0  0  0  0  0  0
  183.5310  179.0690  145.5390 F   0  0  0  0  0  0  0  0  0  0  0  0
  183.4740  178.0800  138.0810 C   0  0  0  0  0  1  0  0  0  0  0  0
  184.4190  179.4570  138.7900 S   0  0  0  0  0  0  0  0  0  0  0  0
  189.3050  178.2620  139.0470 C   0  0  0  0  0  2  0  0  0  0  0  0
  191.0270  176.6320  138.7260 F   0  0  0  0  0  0  0  0  0  0  0  0
  190.4760  177.4950  139.6550 C   0  0  2  0  0  3  0  0  0  0  0  0
  190.0760  176.7830  140.7890 O   0  0  0  0  0  0  0  0  0  0  0  0
  190.9790  177.1670  141.7870 C   0  0  0  0  0  2  0  0  0  0  0  0
  191.5360  176.2430  143.9920 C   0  0  0  0  0  1  0  0  0  0  0  0
  190.4240  176.8760  143.1740 C   0  0  0  0  0  0  0  0  0  0  0  0
  189.9970  178.1920  143.8470 C   0  0  0  0  0  2  0  0  0  0  0  0
  187.9210  177.0500  144.8100 C   0  0  0  0  0  2  0  0  0  0  0  0
  187.9110  176.4610  143.4000 C   0  0  0  0  0  2  0  0  0  0  0  0
  189.2740  175.8590  143.0640 C   0  0  0  0  0  2  0  0  0  0  0  0
  189.1370  177.9440  145.0880 C   0  0  0  0  0  2  0  0  0  0  0  0
  1 11  1  6  0  0  0
  1  3  1  0  0  0  0
  1  6  1  0  0  0  0
  2  4  1  0  0  0  0
  3 22  1  6  0  0  0
  3  5  1  0  0  0  0
  5  4  2  0  0  0  0
  5 16  1  0  0  0  0
  6 23  1  6  0  0  0
  6  2  1  0  0  0  0
  8 13  1  1  0  0  0
  8 11  1  0  0  0  0
  9  7  1  0  0  0  0
 10  8  1  0  0  0  0
 10  9  2  0  0  0  0
 11  7  1  1  0  0  0
 12  9  1  0  0  0  0
 14 20  1  0  0  0  0
 15 14  1  0  0  0  0
 16 18  1  0  0  0  0
 17 15  2  0  0  0  0
 18 14  2  0  0  0  0
 19 16  2  0  0  0  0
 19 17  1  0  0  0  0
 21 22  1  0  0  0  0
 23 25  1  0  0  0  0
 25 24  1  6  0  0  0
 25 26  1  0  0  0  0
 26 27  1  0  0  0  0
 27 29  1  0  0  0  0
 29 30  1  0  0  0  0
 29 28  1  0  0  0  0
 30 34  1  0  0  0  0
 31 34  1  0  0  0  0
 32 31  1  0  0  0  0
 33 29  1  0  0  0  0
 33 32  1  0  0  0  0
M  END
>  <MODEL>
1

>  <REMARK>
 VINA RESULT:      -8.4      0.000      0.000
  Name = 
  8 active torsions:
  status: ('A' for Active; 'I' for Inactive)
    1  A    between atoms: C_3  and  C_13
    2  A    between atoms: C_3  and  O_17
    3  A    between atoms: N_4  and  C_15
    4  A    between atoms: C_10  and  C_29
    5  A    between atoms: C_10  and  C_31
    6  A    between atoms: C_12  and  C_28
    7  A    between atoms: O_17  and  C_29
    8  A    between atoms: C_21  and  S_32
                            x       y       z     vdW  Elec       q    Type
                         _______ _______ _______ _____ _____    ______ ____

>  <TORSDO>
F 8

$$$$
=
 OpenBabel11052413593D

 34 37  0  0  1  0  0  0  0  0999 V2000
  190.7660  175.9370  136.5520 N   0  0  1  0  0  0  0  0  0  0  0  0
  191.9330  176.3070  138.5910 O   0  0  0  0  0  0  0  0  0  0  0  0
  192.0550  175.8880  135.8300 C   0  0  1  0  0  3  0  0  0  0  0  0
  193.1850  176.1690  138.0110 C   0  0  0  0  0  3  0  0  0  0  0  0
  193.3040  176.0250  136.6930 C   0  0  0  0  0  0  0  0  0  0  0  0
  190.8230  176.7170  137.8070 C   0  0  2  0  0  3  0  0  0  0  0  0
  189.2270  177.7280  135.9820 O   0  0  0  0  0  0  0  0  0  0  0  0
  188.5560  175.5840  135.3570 C   0  0  1  0  0  3  0  0  0  0  0  0
  187.8530  177.6060  136.0070 C   0  0  0  0  0  0  0  0  0  0  0  0
  187.4220  176.4370  135.6850 N   0  0  0  0  0  0  0  0  0  0  0  0
  189.7910  176.4850  135.5830 C   0  0  2  0  0  3  0  0  0  0  0  0
  186.9460  178.7160  136.3980 C   0  0  0  0  0  1  0  0  0  0  0  0
  188.5230  174.3210  136.2080 C   0  0  0  0  0  1  0  0  0  0  0  0
  196.8390  175.0230  135.7430 C   0  0  0  0  0  0  0  0  0  0  0  0
  197.1970  176.0510  134.8660 C   0  0  0  0  0  3  0  0  0  0  0  0
  194.6570  176.0500  136.0750 C   0  0  0  0  0  0  0  0  0  0  0  0
  196.2930  177.0800  134.5940 C   0  0  0  0  0  3  0  0  0  0  0  0
  195.5750  175.0210  136.3380 C   0  0  0  0  0  3  0  0  0  0  0  0
  195.0310  177.0790  135.1940 C   0  0  0  0  0  3  0  0  0  0  0  0
  197.7100  174.0200  136.0000 F   0  0  0  0  0  0  0  0  0  0  0  0
  192.0210  173.3240  136.4120 C   0  0  0  0  0  1  0  0  0  0  0  0
  192.1310  174.3180  134.8990 S   0  0  0  0  0  0  0  0  0  0  0  0
  189.5530  176.5110  138.6290 C   0  0  0  0  0  2  0  0  0  0  0  0
  189.5900  178.8970  138.8050 F   0  0  0  0  0  0  0  0  0  0  0  0
  189.1940  177.7430  139.4560 C   0  0  2  0  0  3  0  0  0  0  0  0
  189.7780  177.6850  140.7240 O   0  0  0  0  0  0  0  0  0  0  0  0
  188.6980  177.7250  141.6130 C   0  0  0  0  0  2  0  0  0  0  0  0
  190.0060  175.9520  142.6940 C   0  0  0  0  0  1  0  0  0  0  0  0
  189.0700  177.1170  142.9590 C   0  0  0  0  0  0  0  0  0  0  0  0
  189.8040  178.1640  143.8140 C   0  0  0  0  0  2  0  0  0  0  0  0
  188.5520  177.3690  145.8990 C   0  0  0  0  0  2  0  0  0  0  0  0
  187.4070  177.3570  144.8870 C   0  0  0  0  0  2  0  0  0  0  0  0
  187.8040  176.5680  143.6410 C   0  0  0  0  0  2  0  0  0  0  0  0
  189.9090  177.7310  145.2780 C   0  0  0  0  0  2  0  0  0  0  0  0
  1 11  1  6  0  0  0
  1  6  1  0  0  0  0
  3 22  1  1  0  0  0
  3  1  1  0  0  0  0
  3  5  1  0  0  0  0
  4  2  1  0  0  0  0
  5  4  2  0  0  0  0
  6  2  1  0  0  0  0
  6 23  1  1  0  0  0
  7  9  1  0  0  0  0
  8 11  1  0  0  0  0
  8 10  1  0  0  0  0
  8 13  1  1  0  0  0
  9 12  1  0  0  0  0
 10  9  2  0  0  0  0
 11  7  1  1  0  0  0
 14 20  1  0  0  0  0
 14 18  1  0  0  0  0
 15 14  2  0  0  0  0
 16 18  2  0  0  0  0
 16  5  1  0  0  0  0
 17 15  1  0  0  0  0
 17 19  2  0  0  0  0
 19 16  1  0  0  0  0
 22 21  1  0  0  0  0
 23 25  1  0  0  0  0
 25 24  1  6  0  0  0
 25 26  1  0  0  0  0
 26 27  1  0  0  0  0
 27 29  1  0  0  0  0
 28 29  1  0  0  0  0
 29 33  1  0  0  0  0
 29 30  1  0  0  0  0
 30 34  1  0  0  0  0
 32 31  1  0  0  0  0
 33 32  1  0  0  0  0
 34 31  1  0  0  0  0
M  END
>  <MODEL>
2

>  <REMARK>
 VINA RESULT:      -7.6      4.058      8.177
  Name = 
  8 active torsions:
  status: ('A' for Active; 'I' for Inactive)
    1  A    between atoms: C_3  and  C_13
    2  A    between atoms: C_3  and  O_17
    3  A    between atoms: N_4  and  C_15
    4  A    between atoms: C_10  and  C_29
    5  A    between atoms: C_10  and  C_31
    6  A    between atoms: C_12  and  C_28
    7  A    between atoms: O_17  and  C_29
    8  A    between atoms: C_21  and  S_32
                            x       y       z     vdW  Elec       q    Type
                         _______ _______ _______ _____ _____    ______ ____

>  <TORSDO>
F 8

$$$$
=
 OpenBabel11052413593D

 34 37  0  0  1  0  0  0  0  0999 V2000
  186.5390  177.1820  137.1630 N   0  0  1  0  0  0  0  0  0  0  0  0
  186.2730  178.7590  138.9230 O   0  0  0  0  0  0  0  0  0  0  0  0
  185.1010  176.8500  137.2510 C   0  0  1  0  0  3  0  0  0  0  0  0
  184.8990  178.5860  139.0000 C   0  0  0  0  0  3  0  0  0  0  0  0
  184.2970  177.6500  138.2680 C   0  0  0  0  0  0  0  0  0  0  0  0
  187.0980  177.7190  138.4220 C   0  0  2  0  0  3  0  0  0  0  0  0
  188.2210  175.4910  137.6180 O   0  0  0  0  0  0  0  0  0  0  0  0
  187.9420  176.0570  135.3730 C   0  0  1  0  0  3  0  0  0  0  0  0
  189.4040  175.3670  136.9190 C   0  0  0  0  0  0  0  0  0  0  0  0
  189.3170  175.6810  135.6740 N   0  0  0  0  0  0  0  0  0  0  0  0
  187.2070  175.9360  136.7260 C   0  0  2  0  0  3  0  0  0  0  0  0
  190.6790  174.9350  137.5490 C   0  0  0  0  0  1  0  0  0  0  0  0
  187.9050  177.4470  134.7490 C   0  0  0  0  0  1  0  0  0  0  0  0
  181.1060  175.9860  139.4740 C   0  0  0  0  0  0  0  0  0  0  0  0
  180.1310  176.8520  138.9730 C   0  0  0  0  0  3  0  0  0  0  0  0
  182.8540  177.3670  138.4910 C   0  0  0  0  0  0  0  0  0  0  0  0
  180.5090  177.9710  138.2290 C   0  0  0  0  0  3  0  0  0  0  0  0
  182.4580  176.2460  139.2390 C   0  0  0  0  0  3  0  0  0  0  0  0
  181.8620  178.2270  137.9900 C   0  0  0  0  0  3  0  0  0  0  0  0
  180.7410  174.9060  140.2030 F   0  0  0  0  0  0  0  0  0  0  0  0
  183.7560  175.3490  135.5640 C   0  0  0  0  0  1  0  0  0  0  0  0
  184.3610  177.0580  135.5940 S   0  0  0  0  0  0  0  0  0  0  0  0
  188.4970  178.2850  138.1930 C   0  0  0  0  0  2  0  0  0  0  0  0
  190.6420  177.8500  139.1600 F   0  0  0  0  0  0  0  0  0  0  0  0
  189.3510  178.2440  139.4580 C   0  0  2  0  0  3  0  0  0  0  0  0
  188.7970  177.3840  140.4100 O   0  0  0  0  0  0  0  0  0  0  0  0
  188.6940  178.1600  141.5710 C   0  0  0  0  0  2  0  0  0  0  0  0
  189.9870  176.2220  142.3440 C   0  0  0  0  0  1  0  0  0  0  0  0
  189.0970  177.3620  142.8040 C   0  0  0  0  0  0  0  0  0  0  0  0
  189.8940  178.2620  143.7640 C   0  0  0  0  0  2  0  0  0  0  0  0
  188.6970  177.2200  145.7690 C   0  0  0  0  0  2  0  0  0  0  0  0
  187.5150  177.3760  144.8140 C   0  0  0  0  0  2  0  0  0  0  0  0
  187.8410  176.7560  143.4560 C   0  0  0  0  0  2  0  0  0  0  0  0
  190.0390  177.6290  145.1490 C   0  0  0  0  0  2  0  0  0  0  0  0
  1 11  1  1  0  0  0
  1  3  1  0  0  0  0
  1  6  1  0  0  0  0
  2  4  1  0  0  0  0
  3 22  1  6  0  0  0
  3  5  1  0  0  0  0
  5 16  1  0  0  0  0
  5  4  2  0  0  0  0
  6 23  1  6  0  0  0
  6  2  1  0  0  0  0
  8 13  1  1  0  0  0
  8 10  1  0  0  0  0
  8 11  1  0  0  0  0
  9 12  1  0  0  0  0
  9  7  1  0  0  0  0
 10  9  2  0  0  0  0
 11  7  1  1  0  0  0
 14 20  1  0  0  0  0
 15 14  2  0  0  0  0
 16 18  2  0  0  0  0
 17 15  1  0  0  0  0
 18 14  1  0  0  0  0
 19 17  2  0  0  0  0
 19 16  1  0  0  0  0
 21 22  1  0  0  0  0
 23 25  1  0  0  0  0
 25 24  1  6  0  0  0
 25 26  1  0  0  0  0
 26 27  1  0  0  0  0
 27 29  1  0  0  0  0
 28 29  1  0  0  0  0
 29 33  1  0  0  0  0
 29 30  1  0  0  0  0
 30 34  1  0  0  0  0
 32 31  1  0  0  0  0
 33 32  1  0  0  0  0
 34 31  1  0  0  0  0
M  END
>  <MODEL>
3

>  <REMARK>
 VINA RESULT:      -7.5      2.519      3.091
  Name = 
  8 active torsions:
  status: ('A' for Active; 'I' for Inactive)
    1  A    between atoms: C_3  and  C_13
    2  A    between atoms: C_3  and  O_17
    3  A    between atoms: N_4  and  C_15
    4  A    between atoms: C_10  and  C_29
    5  A    between atoms: C_10  and  C_31
    6  A    between atoms: C_12  and  C_28
    7  A    between atoms: O_17  and  C_29
    8  A    between atoms: C_21  and  S_32
                            x       y       z     vdW  Elec       q    Type
                         _______ _______ _______ _____ _____    ______ ____

>  <TORSDO>
F 8

$$$$
=
 OpenBabel11052413593D

 34 37  0  0  1  0  0  0  0  0999 V2000
  187.5060  177.0820  136.9130 N   0  0  1  0  0  0  0  0  0  0  0  0
  186.8810  178.4990  138.7190 O   0  0  0  0  0  0  0  0  0  0  0  0
  186.0880  176.7050  136.7270 C   0  0  1  0  0  3  0  0  0  0  0  0
  185.5220  178.2820  138.5450 C   0  0  0  0  0  3  0  0  0  0  0  0
  185.0920  177.3950  137.6500 C   0  0  0  0  0  0  0  0  0  0  0  0
  187.8210  177.5270  138.2870 C   0  0  2  0  0  3  0  0  0  0  0  0
  189.1670  175.4150  137.5120 O   0  0  0  0  0  0  0  0  0  0  0  0
  189.2240  176.1450  135.2990 C   0  0  1  0  0  3  0  0  0  0  0  0
  190.4500  175.3840  137.0070 C   0  0  0  0  0  0  0  0  0  0  0  0
  190.5480  175.7910  135.7910 N   0  0  0  0  0  0  0  0  0  0  0  0
  188.2880  175.8960  136.5030 C   0  0  2  0  0  3  0  0  0  0  0  0
  191.6260  174.9450  137.8030 C   0  0  0  0  0  1  0  0  0  0  0  0
  189.2260  177.5770  134.7780 C   0  0  0  0  0  1  0  0  0  0  0  0
  181.8640  175.4010  137.7440 C   0  0  0  0  0  0  0  0  0  0  0  0
  180.9080  176.4050  137.5650 C   0  0  0  0  0  3  0  0  0  0  0  0
  183.6450  177.0550  137.5990 C   0  0  0  0  0  0  0  0  0  0  0  0
  181.3130  177.7310  137.3990 C   0  0  0  0  0  3  0  0  0  0  0  0
  183.2220  175.7260  137.7660 C   0  0  0  0  0  3  0  0  0  0  0  0
  182.6730  178.0530  137.4160 C   0  0  0  0  0  3  0  0  0  0  0  0
  181.4720  174.1170  137.9150 F   0  0  0  0  0  0  0  0  0  0  0  0
  185.2140  175.2910  134.6910 C   0  0  0  0  0  1  0  0  0  0  0  0
  185.6310  177.0300  134.9890 S   0  0  0  0  0  0  0  0  0  0  0  0
  189.2140  178.1480  138.3470 C   0  0  0  0  0  2  0  0  0  0  0  0
  191.1360  177.6160  139.6700 F   0  0  0  0  0  0  0  0  0  0  0  0
  189.8280  178.0580  139.7420 C   0  0  2  0  0  3  0  0  0  0  0  0
  189.0820  177.2100  140.5650 O   0  0  0  0  0  0  0  0  0  0  0  0
  188.7630  177.9900  141.6820 C   0  0  0  0  0  2  0  0  0  0  0  0
  189.9030  176.0350  142.6320 C   0  0  0  0  0  1  0  0  0  0  0  0
  189.0500  177.2420  142.9770 C   0  0  0  0  0  0  0  0  0  0  0  0
  189.8370  178.1520  143.9360 C   0  0  0  0  0  2  0  0  0  0  0  0
  188.4720  177.2830  145.9160 C   0  0  0  0  0  2  0  0  0  0  0  0
  187.3570  177.4460  144.8840 C   0  0  0  0  0  2  0  0  0  0  0  0
  187.7280  176.7370  143.5820 C   0  0  0  0  0  2  0  0  0  0  0  0
  189.8680  177.5890  145.3590 C   0  0  0  0  0  2  0  0  0  0  0  0
  1 11  1  1  0  0  0
  1  6  1  0  0  0  0
  3 22  1  6  0  0  0
  3  1  1  0  0  0  0
  3  5  1  0  0  0  0
  4  2  1  0  0  0  0
  5  4  2  0  0  0  0
  6 23  1  6  0  0  0
  6  2  1  0  0  0  0
  8 13  1  1  0  0  0
  8 10  1  0  0  0  0
  8 11  1  0  0  0  0
  9  7  1  0  0  0  0
  9 12  1  0  0  0  0
 10  9  2  0  0  0  0
 11  7  1  1  0  0  0
 14 18  1  0  0  0  0
 14 20  1  0  0  0  0
 15 14  2  0  0  0  0
 16  5  1  0  0  0  0
 16 18  2  0  0  0  0
 17 19  2  0  0  0  0
 17 15  1  0  0  0  0
 19 16  1  0  0  0  0
 21 22  1  0  0  0  0
 23 25  1  0  0  0  0
 25 24  1  6  0  0  0
 25 26  1  0  0  0  0
 26 27  1  0  0  0  0
 27 29  1  0  0  0  0
 28 29  1  0  0  0  0
 29 33  1  0  0  0  0
 29 30  1  0  0  0  0
 30 34  1  0  0  0  0
 32 31  1  0  0  0  0
 33 32  1  0  0  0  0
 34 31  1  0  0  0  0
M  END
>  <MODEL>
4

>  <REMARK>
 VINA RESULT:      -7.5      2.874      3.702
  Name = 
  8 active torsions:
  status: ('A' for Active; 'I' for Inactive)
    1  A    between atoms: C_3  and  C_13
    2  A    between atoms: C_3  and  O_17
    3  A    between atoms: N_4  and  C_15
    4  A    between atoms: C_10  and  C_29
    5  A    between atoms: C_10  and  C_31
    6  A    between atoms: C_12  and  C_28
    7  A    between atoms: O_17  and  C_29
    8  A    between atoms: C_21  and  S_32
                            x       y       z     vdW  Elec       q    Type
                         _______ _______ _______ _____ _____    ______ ____

>  <TORSDO>
F 8

$$$$
=
 OpenBabel11052413593D

 34 37  0  0  1  0  0  0  0  0999 V2000
  183.4970  178.6790  141.0650 N   0  0  1  0  0  0  0  0  0  0  0  0
  185.7940  179.0840  140.5980 O   0  0  0  0  0  0  0  0  0  0  0  0
  183.8300  178.4690  142.4910 C   0  0  1  0  0  3  0  0  0  0  0  0
  186.1770  179.0080  141.9290 C   0  0  0  0  0  3  0  0  0  0  0  0
  185.2940  178.6630  142.8650 C   0  0  0  0  0  0  0  0  0  0  0  0
  184.6280  178.4100  140.1510 C   0  0  2  0  0  3  0  0  0  0  0  0
  182.5820  176.7910  139.8410 O   0  0  0  0  0  0  0  0  0  0  0  0
  181.1080  178.5580  140.2190 C   0  0  1  0  0  3  0  0  0  0  0  0
  181.6610  176.9030  138.8200 C   0  0  0  0  0  0  0  0  0  0  0  0
  180.8280  177.8730  138.9650 N   0  0  0  0  0  0  0  0  0  0  0  0
  182.3290  177.8100  140.8000 C   0  0  2  0  0  3  0  0  0  0  0  0
  181.6450  176.0030  137.6370 C   0  0  0  0  0  1  0  0  0  0  0  0
  181.3320  180.0430  139.9650 C   0  0  0  0  0  1  0  0  0  0  0  0
  187.4270  177.5330  145.7940 C   0  0  0  0  0  0  0  0  0  0  0  0
  186.6910  178.0150  146.8800 C   0  0  0  0  0  3  0  0  0  0  0  0
  185.7620  178.4230  144.2560 C   0  0  0  0  0  0  0  0  0  0  0  0
  185.4920  178.6960  146.6620 C   0  0  0  0  0  3  0  0  0  0  0  0
  186.9670  177.7410  144.4920 C   0  0  0  0  0  3  0  0  0  0  0  0
  185.0310  178.8990  145.3580 C   0  0  0  0  0  3  0  0  0  0  0  0
  188.5940  176.8810  146.0040 F   0  0  0  0  0  0  0  0  0  0  0  0
  181.6600  178.2550  143.9580 C   0  0  0  0  0  1  0  0  0  0  0  0
  182.7940  179.5910  143.4930 S   0  0  0  0  0  0  0  0  0  0  0  0
  184.3070  178.8940  138.7390 C   0  0  0  0  0  2  0  0  0  0  0  0
  185.1150  176.7790  137.9660 F   0  0  0  0  0  0  0  0  0  0  0  0
  185.0900  178.1310  137.6740 C   0  0  2  0  0  3  0  0  0  0  0  0
  186.3950  178.6200  137.5630 O   0  0  0  0  0  0  0  0  0  0  0  0
  187.1790  177.4860  137.3250 C   0  0  0  0  0  2  0  0  0  0  0  0
  189.0080  179.1230  137.2990 C   0  0  0  0  0  1  0  0  0  0  0  0
  188.6260  177.7200  137.7360 C   0  0  0  0  0  0  0  0  0  0  0  0
  188.7500  177.6230  139.2670 C   0  0  0  0  0  2  0  0  0  0  0  0
  190.9700  176.3750  139.0290 C   0  0  0  0  0  2  0  0  0  0  0  0
  190.1660  175.6870  137.9270 C   0  0  0  0  0  2  0  0  0  0  0  0
  189.5380  176.7240  136.9980 C   0  0  0  0  0  2  0  0  0  0  0  0
  190.2100  177.5180  139.7150 C   0  0  0  0  0  2  0  0  0  0  0  0
  1 11  1  6  0  0  0
  1  3  1  0  0  0  0
  2  4  1  0  0  0  0
  3  5  1  0  0  0  0
  3 22  1  1  0  0  0
  4  5  2  0  0  0  0
  5 16  1  0  0  0  0
  6 23  1  6  0  0  0
  6  2  1  0  0  0  0
  6  1  1  0  0  0  0
  8 13  1  6  0  0  0
  8 11  1  0  0  0  0
  9 10  2  0  0  0  0
  9  7  1  0  0  0  0
 10  8  1  0  0  0  0
 11  7  1  6  0  0  0
 12  9  1  0  0  0  0
 14 20  1  0  0  0  0
 14 15  1  0  0  0  0
 16 18  1  0  0  0  0
 16 19  2  0  0  0  0
 17 15  2  0  0  0  0
 18 14  2  0  0  0  0
 19 17  1  0  0  0  0
 22 21  1  0  0  0  0
 25 24  1  1  0  0  0
 25 23  1  0  0  0  0
 26 25  1  0  0  0  0
 27 26  1  0  0  0  0
 27 29  1  0  0  0  0
 28 29  1  0  0  0  0
 29 30  1  0  0  0  0
 30 34  1  0  0  0  0
 31 34  1  0  0  0  0
 32 31  1  0  0  0  0
 33 29  1  0  0  0  0
 33 32  1  0  0  0  0
M  END
>  <MODEL>
5

>  <REMARK>
 VINA RESULT:      -7.4      2.908      5.430
  Name = 
  8 active torsions:
  status: ('A' for Active; 'I' for Inactive)
    1  A    between atoms: C_3  and  C_13
    2  A    between atoms: C_3  and  O_17
    3  A    between atoms: N_4  and  C_15
    4  A    between atoms: C_10  and  C_29
    5  A    between atoms: C_10  and  C_31
    6  A    between atoms: C_12  and  C_28
    7  A    between atoms: O_17  and  C_29
    8  A    between atoms: C_21  and  S_32
                            x       y       z     vdW  Elec       q    Type
                         _______ _______ _______ _____ _____    ______ ____

>  <TORSDO>
F 8

$$$$
=
 OpenBabel11052413593D

 34 37  0  0  1  0  0  0  0  0999 V2000
  183.1720  177.4250  139.1240 N   0  0  1  0  0  0  0  0  0  0  0  0
  185.1830  178.6940  139.0710 O   0  0  0  0  0  0  0  0  0  0  0  0
  183.1380  177.5530  140.5970 C   0  0  1  0  0  3  0  0  0  0  0  0
  185.1700  178.9520  140.4340 C   0  0  0  0  0  3  0  0  0  0  0  0
  184.2520  178.3870  141.2160 C   0  0  0  0  0  0  0  0  0  0  0  0
  184.5320  177.5440  138.5550 C   0  0  2  0  0  3  0  0  0  0  0  0
  183.4240  175.1820  138.2260 O   0  0  0  0  0  0  0  0  0  0  0  0
  181.3690  176.2060  137.8210 C   0  0  1  0  0  3  0  0  0  0  0  0
  182.8820  174.7620  137.0300 C   0  0  0  0  0  0  0  0  0  0  0  0
  181.7520  175.3050  136.7430 N   0  0  0  0  0  0  0  0  0  0  0  0
  182.5400  176.1210  138.8250 C   0  0  2  0  0  3  0  0  0  0  0  0
  183.5540  173.7870  136.1310 C   0  0  0  0  0  1  0  0  0  0  0  0
  181.1030  177.6000  137.2680 C   0  0  0  0  0  1  0  0  0  0  0  0
  185.6810  178.4190  144.7320 C   0  0  0  0  0  0  0  0  0  0  0  0
  184.5920  178.8830  145.4740 C   0  0  0  0  0  3  0  0  0  0  0  0
  184.3580  178.5400  142.6920 C   0  0  0  0  0  0  0  0  0  0  0  0
  183.3850  179.1730  144.8340 C   0  0  0  0  0  3  0  0  0  0  0  0
  185.5650  178.2540  143.3500 C   0  0  0  0  0  3  0  0  0  0  0  0
  183.2700  179.0030  143.4510 C   0  0  0  0  0  3  0  0  0  0  0  0
  186.8540  178.1470  145.3500 F   0  0  0  0  0  0  0  0  0  0  0  0
  181.7090  179.6620  139.9490 C   0  0  0  0  0  1  0  0  0  0  0  0
  181.5200  178.2520  141.0740 S   0  0  0  0  0  0  0  0  0  0  0  0
  184.4710  177.6700  137.0340 C   0  0  0  0  0  2  0  0  0  0  0  0
  186.0700  175.8910  136.9750 F   0  0  0  0  0  0  0  0  0  0  0  0
  185.6990  177.0710  136.3550 C   0  0  2  0  0  3  0  0  0  0  0  0
  186.7680  177.9710  136.3640 O   0  0  0  0  0  0  0  0  0  0  0  0
  187.9100  177.1660  136.4490 C   0  0  0  0  0  2  0  0  0  0  0  0
  189.0540  179.1920  137.2310 C   0  0  0  0  0  1  0  0  0  0  0  0
  188.8870  177.7050  137.4850 C   0  0  0  0  0  0  0  0  0  0  0  0
  188.3090  177.5010  138.8960 C   0  0  0  0  0  2  0  0  0  0  0  0
  190.6230  176.8540  139.7740 C   0  0  0  0  0  2  0  0  0  0  0  0
  190.6270  176.0950  138.4470 C   0  0  0  0  0  2  0  0  0  0  0  0
  190.2580  177.0300  137.2970 C   0  0  0  0  0  2  0  0  0  0  0  0
  189.3680  177.7120  139.9810 C   0  0  0  0  0  2  0  0  0  0  0  0
  1 11  1  1  0  0  0
  1  3  1  0  0  0  0
  2  4  1  0  0  0  0
  3 22  1  6  0  0  0
  3  5  1  0  0  0  0
  4  5  2  0  0  0  0
  5 16  1  0  0  0  0
  6 23  1  6  0  0  0
  6  2  1  0  0  0  0
  6  1  1  0  0  0  0
  8 13  1  6  0  0  0
  8 11  1  0  0  0  0
  9  7  1  0  0  0  0
 10  9  2  0  0  0  0
 10  8  1  0  0  0  0
 11  7  1  6  0  0  0
 12  9  1  0  0  0  0
 14 20  1  0  0  0  0
 14 15  1  0  0  0  0
 16 18  1  0  0  0  0
 16 19  2  0  0  0  0
 17 15  2  0  0  0  0
 18 14  2  0  0  0  0
 19 17  1  0  0  0  0
 21 22  1  0  0  0  0
 25 26  1  0  0  0  0
 25 24  1  1  0  0  0
 25 23  1  0  0  0  0
 26 27  1  0  0  0  0
 27 29  1  0  0  0  0
 28 29  1  0  0  0  0
 29 30  1  0  0  0  0
 30 34  1  0  0  0  0
 31 34  1  0  0  0  0
 32 31  1  0  0  0  0
 33 29  1  0  0  0  0
 33 32  1  0  0  0  0
M  END
>  <MODEL>
6

>  <REMARK>
 VINA RESULT:      -7.3      2.849      4.702
  Name = 
  8 active torsions:
  status: ('A' for Active; 'I' for Inactive)
    1  A    between atoms: C_3  and  C_13
    2  A    between atoms: C_3  and  O_17
    3  A    between atoms: N_4  and  C_15
    4  A    between atoms: C_10  and  C_29
    5  A    between atoms: C_10  and  C_31
    6  A    between atoms: C_12  and  C_28
    7  A    between atoms: O_17  and  C_29
    8  A    between atoms: C_21  and  S_32
                            x       y       z     vdW  Elec       q    Type
                         _______ _______ _______ _____ _____    ______ ____

>  <TORSDO>
F 8

$$$$
=
 OpenBabel11052413593D

 34 37  0  0  1  0  0  0  0  0999 V2000
  189.3860  177.5680  139.5660 N   0  0  1  0  0  0  0  0  0  0  0  0
  191.4720  177.0190  140.5700 O   0  0  0  0  0  0  0  0  0  0  0  0
  188.7780  177.6830  140.9090 C   0  0  1  0  0  3  0  0  0  0  0  0
  191.0080  177.2100  141.8630 C   0  0  0  0  0  3  0  0  0  0  0  0
  189.7210  177.4710  142.0850 C   0  0  0  0  0  0  0  0  0  0  0  0
  190.5680  176.6790  139.5300 C   0  0  2  0  0  3  0  0  0  0  0  0
  188.5610  175.8560  138.0540 O   0  0  0  0  0  0  0  0  0  0  0  0
  188.0180  178.0510  137.4850 C   0  0  1  0  0  3  0  0  0  0  0  0
  188.4660  176.0100  136.6870 C   0  0  0  0  0  0  0  0  0  0  0  0
  188.1830  177.2070  136.3100 N   0  0  0  0  0  0  0  0  0  0  0  0
  188.2980  177.1070  138.6760 C   0  0  2  0  0  3  0  0  0  0  0  0
  188.6970  174.9010  135.7250 C   0  0  0  0  0  1  0  0  0  0  0  0
  188.9430  179.2580  137.3970 C   0  0  0  0  0  1  0  0  0  0  0  0
  187.3710  177.2990  145.0610 C   0  0  0  0  0  0  0  0  0  0  0  0
  188.2520  177.5020  146.1270 C   0  0  0  0  0  3  0  0  0  0  0  0
  189.2140  177.5040  143.4830 C   0  0  0  0  0  0  0  0  0  0  0  0
  189.6100  177.7100  145.8790 C   0  0  0  0  0  3  0  0  0  0  0  0
  187.8520  177.2950  143.7490 C   0  0  0  0  0  3  0  0  0  0  0  0
  190.0880  177.7100  144.5650 C   0  0  0  0  0  3  0  0  0  0  0  0
  186.0560  177.0880  145.3000 F   0  0  0  0  0  0  0  0  0  0  0  0
  186.3260  178.6280  141.0030 C   0  0  0  0  0  1  0  0  0  0  0  0
  187.9980  179.3300  141.0450 S   0  0  0  0  0  0  0  0  0  0  0  0
  191.3000  176.8090  138.1970 C   0  0  0  0  0  2  0  0  0  0  0  0
  193.5540  177.1270  137.4600 F   0  0  0  0  0  0  0  0  0  0  0  0
  192.7570  176.3630  138.2920 C   0  0  2  0  0  3  0  0  0  0  0  0
  192.8900  175.0090  137.9700 O   0  0  0  0  0  0  0  0  0  0  0  0
  193.5060  175.0030  136.7130 C   0  0  0  0  0  2  0  0  0  0  0  0
  194.6730  173.0880  135.7160 C   0  0  0  0  0  1  0  0  0  0  0  0
  194.8000  174.2020  136.7390 C   0  0  0  0  0  0  0  0  0  0  0  0
  195.9780  175.1100  136.3450 C   0  0  0  0  0  2  0  0  0  0  0  0
  197.4460  174.0180  138.1320 C   0  0  0  0  0  2  0  0  0  0  0  0
  196.1420  174.1560  138.9160 C   0  0  0  0  0  2  0  0  0  0  0  0
  194.9790  173.5590  138.1270 C   0  0  0  0  0  2  0  0  0  0  0  0
  197.3280  174.4660  136.6690 C   0  0  0  0  0  2  0  0  0  0  0  0
  1 11  1  6  0  0  0
  1  3  1  0  0  0  0
  2  4  1  0  0  0  0
  3 22  1  1  0  0  0
  3  5  1  0  0  0  0
  4  5  2  0  0  0  0
  5 16  1  0  0  0  0
  6 23  1  6  0  0  0
  6  1  1  0  0  0  0
  6  2  1  0  0  0  0
  8 13  1  6  0  0  0
  8 11  1  0  0  0  0
  9  7  1  0  0  0  0
 10  9  2  0  0  0  0
 10  8  1  0  0  0  0
 11  7  1  6  0  0  0
 12  9  1  0  0  0  0
 14 20  1  0  0  0  0
 14 15  1  0  0  0  0
 16 18  1  0  0  0  0
 16 19  2  0  0  0  0
 17 15  2  0  0  0  0
 18 14  2  0  0  0  0
 19 17  1  0  0  0  0
 21 22  1  0  0  0  0
 23 25  1  0  0  0  0
 25 24  1  6  0  0  0
 26 25  1  0  0  0  0
 27 29  1  0  0  0  0
 27 26  1  0  0  0  0
 28 29  1  0  0  0  0
 29 33  1  0  0  0  0
 30 34  1  0  0  0  0
 30 29  1  0  0  0  0
 31 32  1  0  0  0  0
 33 32  1  0  0  0  0
 34 31  1  0  0  0  0
M  END
>  <MODEL>
7

>  <REMARK>
 VINA RESULT:      -6.9      3.570      5.852
  Name = 
  8 active torsions:
  status: ('A' for Active; 'I' for Inactive)
    1  A    between atoms: C_3  and  C_13
    2  A    between atoms: C_3  and  O_17
    3  A    between atoms: N_4  and  C_15
    4  A    between atoms: C_10  and  C_29
    5  A    between atoms: C_10  and  C_31
    6  A    between atoms: C_12  and  C_28
    7  A    between atoms: O_17  and  C_29
    8  A    between atoms: C_21  and  S_32
                            x       y       z     vdW  Elec       q    Type
                         _______ _______ _______ _____ _____    ______ ____

>  <TORSDO>
F 8

$$$$
=
 OpenBabel11052413593D

 34 37  0  0  1  0  0  0  0  0999 V2000
  188.7150  175.2990  136.6880 N   0  0  1  0  0  0  0  0  0  0  0  0
  186.6670  176.2450  137.4420 O   0  0  0  0  0  0  0  0  0  0  0  0
  188.0090  174.0370  136.3750 C   0  0  1  0  0  3  0  0  0  0  0  0
  185.9110  175.1390  137.0800 C   0  0  0  0  0  3  0  0  0  0  0  0
  186.5060  174.0400  136.6200 C   0  0  0  0  0  0  0  0  0  0  0  0
  188.0480  176.1020  137.7350 C   0  0  2  0  0  3  0  0  0  0  0  0
  190.4880  175.3640  138.3450 O   0  0  0  0  0  0  0  0  0  0  0  0
  191.1820  175.4580  136.1210 C   0  0  1  0  0  3  0  0  0  0  0  0
  191.6460  176.1020  138.2120 C   0  0  0  0  0  0  0  0  0  0  0  0
  192.0710  176.2030  137.0020 N   0  0  0  0  0  0  0  0  0  0  0  0
  190.0900  174.9010  137.0610 C   0  0  2  0  0  3  0  0  0  0  0  0
  192.3320  176.7520  139.3600 C   0  0  0  0  0  1  0  0  0  0  0  0
  190.6670  176.3640  135.0100 C   0  0  0  0  0  1  0  0  0  0  0  0
  183.6910  171.5030  136.8410 C   0  0  0  0  0  0  0  0  0  0  0  0
  184.1260  170.5220  135.9460 C   0  0  0  0  0  3  0  0  0  0  0  0
  185.6960  172.8110  136.4000 C   0  0  0  0  0  0  0  0  0  0  0  0
  185.3430  170.6770  135.2790 C   0  0  0  0  0  3  0  0  0  0  0  0
  184.4690  172.6420  137.0610 C   0  0  0  0  0  3  0  0  0  0  0  0
  186.1230  171.8150  135.5050 C   0  0  0  0  0  3  0  0  0  0  0  0
  182.5070  171.3580  137.4800 F   0  0  0  0  0  0  0  0  0  0  0  0
  189.4680  172.2700  135.0870 C   0  0  0  0  0  1  0  0  0  0  0  0
  188.3390  173.6130  134.6290 S   0  0  0  0  0  0  0  0  0  0  0  0
  188.6660  177.4950  137.8220 C   0  0  0  0  0  2  0  0  0  0  0  0
  189.0570  179.3700  139.2560 F   0  0  0  0  0  0  0  0  0  0  0  0
  188.3510  178.1850  139.1460 C   0  0  2  0  0  3  0  0  0  0  0  0
  188.6440  177.3530  140.2290 O   0  0  0  0  0  0  0  0  0  0  0  0
  188.8410  178.2260  141.3050 C   0  0  0  0  0  2  0  0  0  0  0  0
  190.1790  176.3710  142.1960 C   0  0  0  0  0  1  0  0  0  0  0  0
  189.1970  177.4640  142.5750 C   0  0  0  0  0  0  0  0  0  0  0  0
  189.8720  178.4170  143.5770 C   0  0  0  0  0  2  0  0  0  0  0  0
  188.5920  177.3290  145.5060 C   0  0  0  0  0  2  0  0  0  0  0  0
  187.4750  177.4090  144.4650 C   0  0  0  0  0  2  0  0  0  0  0  0
  187.9320  176.7950  143.1440 C   0  0  0  0  0  2  0  0  0  0  0  0
  189.9510  177.8060  144.9780 C   0  0  0  0  0  2  0  0  0  0  0  0
  1 11  1  1  0  0  0
  1  6  1  0  0  0  0
  2  6  1  0  0  0  0
  3 22  1  6  0  0  0
  3  5  1  0  0  0  0
  3  1  1  0  0  0  0
  4  2  1  0  0  0  0
  5  4  2  0  0  0  0
  6 23  1  6  0  0  0
  8 13  1  6  0  0  0
  8 10  1  0  0  0  0
  8 11  1  0  0  0  0
  9  7  1  0  0  0  0
  9 12  1  0  0  0  0
 10  9  2  0  0  0  0
 11  7  1  1  0  0  0
 14 18  1  0  0  0  0
 14 20  1  0  0  0  0
 15 14  2  0  0  0  0
 16  5  1  0  0  0  0
 16 18  2  0  0  0  0
 17 19  2  0  0  0  0
 17 15  1  0  0  0  0
 19 16  1  0  0  0  0
 22 21  1  0  0  0  0
 23 25  1  0  0  0  0
 25 24  1  1  0  0  0
 25 26  1  0  0  0  0
 26 27  1  0  0  0  0
 27 29  1  0  0  0  0
 28 29  1  0  0  0  0
 29 33  1  0  0  0  0
 29 30  1  0  0  0  0
 30 34  1  0  0  0  0
 32 31  1  0  0  0  0
 33 32  1  0  0  0  0
 34 31  1  0  0  0  0
M  END
>  <MODEL>
8

>  <REMARK>
 VINA RESULT:      -6.8      3.686      5.950
  Name = 
  8 active torsions:
  status: ('A' for Active; 'I' for Inactive)
    1  A    between atoms: C_3  and  C_13
    2  A    between atoms: C_3  and  O_17
    3  A    between atoms: N_4  and  C_15
    4  A    between atoms: C_10  and  C_29
    5  A    between atoms: C_10  and  C_31
    6  A    between atoms: C_12  and  C_28
    7  A    between atoms: O_17  and  C_29
    8  A    between atoms: C_21  and  S_32
                            x       y       z     vdW  Elec       q    Type
                         _______ _______ _______ _____ _____    ______ ____

>  <TORSDO>
F 8

$$$$
=
 OpenBabel11052413593D

 34 37  0  0  1  0  0  0  0  0999 V2000
  181.5420  179.2280  140.6150 N   0  0  1  0  0  0  0  0  0  0  0  0
  183.3350  179.1900  139.0530 O   0  0  0  0  0  0  0  0  0  0  0  0
  180.7830  180.1210  139.7120 C   0  0  1  0  0  3  0  0  0  0  0  0
  182.6520  179.9360  138.1040 C   0  0  0  0  0  3  0  0  0  0  0  0
  181.4570  180.4520  138.3870 C   0  0  0  0  0  0  0  0  0  0  0  0
  183.0060  179.3090  140.4280 C   0  0  2  0  0  3  0  0  0  0  0  0
  182.2030  179.8450  142.8690 O   0  0  0  0  0  0  0  0  0  0  0  0
  180.3040  178.5020  142.7070 C   0  0  1  0  0  3  0  0  0  0  0  0
  182.0790  179.0180  143.9660 C   0  0  0  0  0  0  0  0  0  0  0  0
  181.0550  178.2400  143.9270 N   0  0  0  0  0  0  0  0  0  0  0  0
  181.1180  179.5980  141.9840 C   0  0  2  0  0  3  0  0  0  0  0  0
  183.0550  179.0010  145.0860 C   0  0  0  0  0  1  0  0  0  0  0  0
  180.1260  177.2120  141.9150 C   0  0  0  0  0  1  0  0  0  0  0  0
  180.0330  183.6200  136.8580 C   0  0  0  0  0  0  0  0  0  0  0  0
  179.6710  183.1790  135.5820 C   0  0  0  0  0  3  0  0  0  0  0  0
  180.8200  181.3860  137.4210 C   0  0  0  0  0  0  0  0  0  0  0  0
  179.8770  181.8460  135.2220 C   0  0  0  0  0  3  0  0  0  0  0  0
  180.6090  182.7300  137.7680 C   0  0  0  0  0  3  0  0  0  0  0  0
  180.4480  180.9550  136.1360 C   0  0  0  0  0  3  0  0  0  0  0  0
  179.8440  184.9150  137.2050 F   0  0  0  0  0  0  0  0  0  0  0  0
  179.8910  177.9790  138.4770 C   0  0  0  0  0  1  0  0  0  0  0  0
  179.1530  179.3610  139.3910 S   0  0  0  0  0  0  0  0  0  0  0  0
  183.7100  178.1880  141.1890 C   0  0  0  0  0  2  0  0  0  0  0  0
  186.0180  178.2970  140.5710 F   0  0  0  0  0  0  0  0  0  0  0  0
  185.1310  178.5690  141.5960 C   0  0  2  0  0  3  0  0  0  0  0  0
  185.5190  177.8930  142.7560 O   0  0  0  0  0  0  0  0  0  0  0  0
  186.8700  178.2200  142.9210 C   0  0  0  0  0  2  0  0  0  0  0  0
  187.9310  176.0740  143.4670 C   0  0  0  0  0  1  0  0  0  0  0  0
  187.4990  177.4100  144.0460 C   0  0  0  0  0  0  0  0  0  0  0  0
  188.7400  178.1460  144.5820 C   0  0  0  0  0  2  0  0  0  0  0  0
  188.1130  177.5030  146.9770 C   0  0  0  0  0  2  0  0  0  0  0  0
  186.7340  177.8820  146.4400 C   0  0  0  0  0  2  0  0  0  0  0  0
  186.4460  177.1410  145.1360 C   0  0  0  0  0  2  0  0  0  0  0  0
  189.2180  177.5620  145.9130 C   0  0  0  0  0  2  0  0  0  0  0  0
  1 11  1  1  0  0  0
  2  6  1  0  0  0  0
  3 22  1  6  0  0  0
  3  1  1  0  0  0  0
  4  5  2  0  0  0  0
  4  2  1  0  0  0  0
  5  3  1  0  0  0  0
  6  1  1  0  0  0  0
  6 23  1  1  0  0  0
  7  9  1  0  0  0  0
  8 13  1  6  0  0  0
  8 10  1  0  0  0  0
  9 12  1  0  0  0  0
 10  9  2  0  0  0  0
 11  8  1  0  0  0  0
 11  7  1  1  0  0  0
 14 20  1  0  0  0  0
 14 18  1  0  0  0  0
 15 14  2  0  0  0  0
 16 18  2  0  0  0  0
 16  5  1  0  0  0  0
 17 15  1  0  0  0  0
 17 19  2  0  0  0  0
 19 16  1  0  0  0  0
 21 22  1  0  0  0  0
 23 25  1  0  0  0  0
 25 24  1  6  0  0  0
 25 26  1  0  0  0  0
 26 27  1  0  0  0  0
 27 29  1  0  0  0  0
 28 29  1  0  0  0  0
 29 30  1  0  0  0  0
 29 33  1  0  0  0  0
 30 34  1  0  0  0  0
 32 31  1  0  0  0  0
 33 32  1  0  0  0  0
 34 31  1  0  0  0  0
M  END
>  <MODEL>
9

>  <REMARK>
 VINA RESULT:      -6.7      4.212      6.732
  Name = 
  8 active torsions:
  status: ('A' for Active; 'I' for Inactive)
    1  A    between atoms: C_3  and  C_13
    2  A    between atoms: C_3  and  O_17
    3  A    between atoms: N_4  and  C_15
    4  A    between atoms: C_10  and  C_29
    5  A    between atoms: C_10  and  C_31
    6  A    between atoms: C_12  and  C_28
    7  A    between atoms: O_17  and  C_29
    8  A    between atoms: C_21  and  S_32
                            x       y       z     vdW  Elec       q    Type
                         _______ _______ _______ _____ _____    ______ ____

>  <TORSDO>
F 8

$$$$
