=
 OpenBabel11052413053D

 31 34  0  0  0  0  0  0  0  0999 V2000
  190.8000  177.4540  141.0290 C   0  0  0  0  0  0  0  0  0  0  0  0
  188.8110  177.3610  144.2040 C   0  0  0  0  0  0  0  0  0  0  0  0
  189.7900  177.0070  145.2870 C   0  0  0  0  0  0  0  0  0  0  0  0
  192.0070  176.1690  146.0680 N   0  0  0  0  0  0  0  0  0  0  0  0
  189.1660  177.4850  142.8370 C   0  0  0  0  0  0  0  0  0  0  0  0
  189.8010  177.7680  140.1080 C   0  0  0  0  0  3  0  0  0  0  0  0
  191.0260  176.1870  144.9800 C   0  0  0  0  0  2  0  0  0  0  0  0
  186.5150  177.9290  143.5960 C   0  0  0  0  0  0  0  0  0  0  0  0
  192.0770  177.2810  140.6120 F   0  0  0  0  0  0  0  0  0  0  0  0
  188.1960  177.9520  146.9340 C   0  0  0  0  0  2  0  0  0  0  0  0
  191.7080  176.4650  147.2950 C   0  0  0  0  0  0  0  0  0  0  0  0
  186.8860  178.0250  142.2950 N   0  0  0  0  0  0  0  0  0  0  0  0
  187.4710  177.6190  144.5780 C   0  0  0  0  0  0  0  0  0  0  0  0
  190.4850  177.3160  142.3830 C   0  0  0  0  0  3  0  0  0  0  0  0
  192.6990  176.3660  148.3100 N   0  0  0  0  0  1  0  0  0  0  0  0
  188.1640  177.8180  141.8930 C   0  0  0  0  0  0  0  0  0  0  0  0
  188.4860  177.9520  140.5380 C   0  0  0  0  0  3  0  0  0  0  0  0
  187.0650  177.4900  146.0230 C   0  0  0  0  0  2  0  0  0  0  0  0
  189.4740  177.2550  146.5750 C   0  0  0  0  0  0  0  0  0  0  0  0
  190.4080  176.9560  147.6140 N   0  0  0  0  0  2  0  0  0  0  0  0
  185.0930  178.1990  143.9600 C   0  0  0  0  0  2  0  0  0  0  0  0
  184.4960  179.2210  143.0080 C   0  0  0  0  0  2  0  0  0  0  0  0
  183.2820  178.6380  142.3050 C   0  0  0  0  0  2  0  0  0  0  0  0
  183.6590  178.0420  140.9530 C   0  0  0  0  0  2  0  0  0  0  0  0
  184.2390  179.0860  140.0050 C   0  0  0  0  0  2  0  0  0  0  0  0
  186.6830  178.2500  137.1160 C   0  0  0  0  0  0  0  0  0  0  0  0
  184.0160  177.6560  138.1160 O   0  0  0  0  0  0  0  0  0  0  0  0
  186.0710  177.4380  136.3710 O   0  0  0  0  0  0  0  0  0  0  0  0
  188.0600  178.6750  136.7580 C   0  0  0  0  0  1  0  0  0  0  0  0
  184.7540  178.4490  138.7590 C   0  0  0  0  0  0  0  0  0  0  0  0
  186.0710  178.7710  138.3000 N   0  0  0  0  0  2  0  0  0  0  0  0
  1 14  1  0  0  0  0
  2 13  2  0  0  0  0
  2  3  1  0  0  0  0
  3 19  2  0  0  0  0
  4 11  2  0  0  0  0
  5  2  1  0  0  0  0
  6 17  1  0  0  0  0
  6  1  2  0  0  0  0
  7  3  1  0  0  0  0
  7  4  1  0  0  0  0
  8 21  1  0  0  0  0
  8 13  1  0  0  0  0
  9  1  1  0  0  0  0
 11 20  1  0  0  0  0
 11 15  1  0  0  0  0
 12  8  2  0  0  0  0
 13 18  1  0  0  0  0
 14  5  2  0  0  0  0
 16 12  1  0  0  0  0
 16  5  1  0  0  0  0
 17 16  2  0  0  0  0
 18 10  1  0  0  0  0
 19 10  1  0  0  0  0
 19 20  1  0  0  0  0
 22 21  1  0  0  0  0
 23 22  1  0  0  0  0
 24 23  1  0  0  0  0
 25 24  1  0  0  0  0
 26 31  1  0  0  0  0
 27 30  2  0  0  0  0
 28 26  2  0  0  0  0
 29 26  1  0  0  0  0
 30 25  1  0  0  0  0
 31 30  1  0  0  0  0
M  END
>  <MODEL>
1

>  <REMARK>
 VINA RESULT:      -9.7      0.000      0.000
  Name = 
  6 active torsions:
  status: ('A' for Active; 'I' for Inactive)
    1  A    between atoms: C_3  and  C_19
    2  A    between atoms: C_3  and  C_22
    3  A    between atoms: C_7  and  C_9
    4  A    between atoms: C_7  and  C_22
    5  A    between atoms: C_9  and  C_23
    6  A    between atoms: C_15  and  C_23
                            x       y       z     vdW  Elec       q    Type
                         _______ _______ _______ _____ _____    ______ ____

>  <TORSDO>
F 6

$$$$
=
 OpenBabel11052413053D

 31 34  0  0  0  0  0  0  0  0999 V2000
  185.5520  178.0070  145.6250 C   0  0  0  0  0  0  0  0  0  0  0  0
  188.8800  177.6540  143.9380 C   0  0  0  0  0  0  0  0  0  0  0  0
  189.8430  177.2550  145.0190 C   0  0  0  0  0  0  0  0  0  0  0  0
  190.4710  176.9660  147.4170 N   0  0  0  0  0  0  0  0  0  0  0  0
  187.5030  177.9020  144.1690 C   0  0  0  0  0  0  0  0  0  0  0  0
  184.7560  178.3910  144.5460 C   0  0  0  0  0  3  0  0  0  0  0  0
  189.6070  177.6610  146.4590 C   0  0  0  0  0  2  0  0  0  0  0  0
  188.5110  178.1450  141.5750 C   0  0  0  0  0  0  0  0  0  0  0  0
  185.0060  177.8720  146.8560 F   0  0  0  0  0  0  0  0  0  0  0  0
  191.3540  176.3930  143.2530 C   0  0  0  0  0  2  0  0  0  0  0  0
  191.5770  176.3800  147.0770 C   0  0  0  0  0  0  0  0  0  0  0  0
  187.2020  178.3890  141.8320 N   0  0  0  0  0  0  0  0  0  0  0  0
  189.3700  177.7510  142.6140 C   0  0  0  0  0  0  0  0  0  0  0  0
  186.9140  177.7620  145.4360 C   0  0  0  0  0  3  0  0  0  0  0  0
  192.3960  175.7780  148.0710 N   0  0  0  0  0  1  0  0  0  0  0  0
  186.6800  178.2780  143.0790 C   0  0  0  0  0  0  0  0  0  0  0  0
  185.3170  178.5250  143.2750 C   0  0  0  0  0  3  0  0  0  0  0  0
  190.8290  177.4970  142.3420 C   0  0  0  0  0  2  0  0  0  0  0  0
  191.0240  176.6960  144.6830 C   0  0  0  0  0  0  0  0  0  0  0  0
  191.9380  176.2790  145.7000 N   0  0  0  0  0  2  0  0  0  0  0  0
  189.0010  178.2640  140.1700 C   0  0  0  0  0  2  0  0  0  0  0  0
  189.0640  176.8910  139.5220 C   0  0  0  0  0  2  0  0  0  0  0  0
  189.3290  177.0250  138.0320 C   0  0  0  0  0  2  0  0  0  0  0  0
  189.0950  178.4550  137.5560 C   0  0  0  0  0  2  0  0  0  0  0  0
  188.0550  178.5300  136.4440 C   0  0  0  0  0  2  0  0  0  0  0  0
  184.8470  178.4320  138.6160 C   0  0  0  0  0  0  0  0  0  0  0  0
  186.1520  177.1030  136.3810 O   0  0  0  0  0  0  0  0  0  0  0  0
  184.1560  177.4780  138.1680 O   0  0  0  0  0  0  0  0  0  0  0  0
  184.3400  179.2240  139.7650 C   0  0  0  0  0  1  0  0  0  0  0  0
  186.7180  178.0850  136.9310 C   0  0  0  0  0  0  0  0  0  0  0  0
  186.1120  178.7640  138.0360 N   0  0  0  0  0  2  0  0  0  0  0  0
  1  9  1  0  0  0  0
  2  5  1  0  0  0  0
  2  3  1  0  0  0  0
  3  7  1  0  0  0  0
  5 14  2  0  0  0  0
  6  1  2  0  0  0  0
  7  4  1  0  0  0  0
  8 12  2  0  0  0  0
  8 13  1  0  0  0  0
 10 19  1  0  0  0  0
 11  4  2  0  0  0  0
 11 15  1  0  0  0  0
 12 16  1  0  0  0  0
 13  2  2  0  0  0  0
 14  1  1  0  0  0  0
 16 17  2  0  0  0  0
 16  5  1  0  0  0  0
 17  6  1  0  0  0  0
 18 13  1  0  0  0  0
 18 10  1  0  0  0  0
 19  3  2  0  0  0  0
 19 20  1  0  0  0  0
 20 11  1  0  0  0  0
 21  8  1  0  0  0  0
 22 21  1  0  0  0  0
 23 22  1  0  0  0  0
 24 23  1  0  0  0  0
 25 30  1  0  0  0  0
 25 24  1  0  0  0  0
 26 29  1  0  0  0  0
 27 30  2  0  0  0  0
 28 26  2  0  0  0  0
 30 31  1  0  0  0  0
 31 26  1  0  0  0  0
M  END
>  <MODEL>
2

>  <REMARK>
 VINA RESULT:      -9.5      1.877      4.297
  Name = 
  6 active torsions:
  status: ('A' for Active; 'I' for Inactive)
    1  A    between atoms: C_3  and  C_19
    2  A    between atoms: C_3  and  C_22
    3  A    between atoms: C_7  and  C_9
    4  A    between atoms: C_7  and  C_22
    5  A    between atoms: C_9  and  C_23
    6  A    between atoms: C_15  and  C_23
                            x       y       z     vdW  Elec       q    Type
                         _______ _______ _______ _____ _____    ______ ____

>  <TORSDO>
F 6

$$$$
=
 OpenBabel11052413053D

 31 34  0  0  0  0  0  0  0  0999 V2000
  188.6110  177.9480  148.1030 C   0  0  0  0  0  0  0  0  0  0  0  0
  187.9170  177.5570  144.4400 C   0  0  0  0  0  0  0  0  0  0  0  0
  186.4930  177.9930  144.2480 C   0  0  0  0  0  0  0  0  0  0  0  0
  184.2310  178.5870  145.1190 N   0  0  0  0  0  0  0  0  0  0  0  0
  188.5680  177.5420  145.7000 C   0  0  0  0  0  0  0  0  0  0  0  0
  189.9310  177.5030  148.1640 C   0  0  0  0  0  3  0  0  0  0  0  0
  185.4830  177.8680  145.3690 C   0  0  0  0  0  2  0  0  0  0  0  0
  189.9840  176.7380  143.4300 C   0  0  0  0  0  0  0  0  0  0  0  0
  187.9810  178.3580  149.2290 F   0  0  0  0  0  0  0  0  0  0  0  0
  187.0010  178.3370  141.8450 C   0  0  0  0  0  2  0  0  0  0  0  0
  183.8490  178.9510  143.9340 C   0  0  0  0  0  0  0  0  0  0  0  0
  190.5720  176.7210  144.6530 N   0  0  0  0  0  0  0  0  0  0  0  0
  188.6560  177.1770  143.2950 C   0  0  0  0  0  0  0  0  0  0  0  0
  187.9360  177.9690  146.8790 C   0  0  0  0  0  3  0  0  0  0  0  0
  182.5920  179.5910  143.7590 N   0  0  0  0  0  1  0  0  0  0  0  0
  189.9140  177.1070  145.7730 C   0  0  0  0  0  0  0  0  0  0  0  0
  190.5830  177.0850  147.0020 C   0  0  0  0  0  3  0  0  0  0  0  0
  187.9880  177.1800  141.9450 C   0  0  0  0  0  2  0  0  0  0  0  0
  186.0600  178.3230  143.0130 C   0  0  0  0  0  0  0  0  0  0  0  0
  184.7180  178.7720  142.8170 N   0  0  0  0  0  2  0  0  0  0  0  0
  190.7860  176.3230  142.2420 C   0  0  0  0  0  2  0  0  0  0  0  0
  191.6830  177.4630  141.7940 C   0  0  0  0  0  2  0  0  0  0  0  0
  191.8000  177.4770  140.2800 C   0  0  0  0  0  2  0  0  0  0  0  0
  190.6770  176.6740  139.6320 C   0  0  0  0  0  2  0  0  0  0  0  0
  190.2940  177.2200  138.2610 C   0  0  0  0  0  2  0  0  0  0  0  0
  186.4770  177.7500  137.8540 C   0  0  0  0  0  0  0  0  0  0  0  0
  188.9070  179.1010  138.7080 O   0  0  0  0  0  0  0  0  0  0  0  0
  186.2510  178.9310  138.2300 O   0  0  0  0  0  0  0  0  0  0  0  0
  185.3510  176.9080  137.3760 C   0  0  0  0  0  1  0  0  0  0  0  0
  188.9720  177.9080  138.3100 C   0  0  0  0  0  0  0  0  0  0  0  0
  187.8010  177.2080  137.8780 N   0  0  0  0  0  2  0  0  0  0  0  0
  1  6  1  0  0  0  0
  1  9  1  0  0  0  0
  2  5  1  0  0  0  0
  3  2  1  0  0  0  0
  3  7  1  0  0  0  0
  4  7  1  0  0  0  0
  5 16  2  0  0  0  0
  5 14  1  0  0  0  0
  8 12  2  0  0  0  0
 10 18  1  0  0  0  0
 10 19  1  0  0  0  0
 11  4  2  0  0  0  0
 12 16  1  0  0  0  0
 13  8  1  0  0  0  0
 13  2  2  0  0  0  0
 14  1  2  0  0  0  0
 15 11  1  0  0  0  0
 16 17  1  0  0  0  0
 17  6  2  0  0  0  0
 18 13  1  0  0  0  0
 19  3  2  0  0  0  0
 20 19  1  0  0  0  0
 20 11  1  0  0  0  0
 21  8  1  0  0  0  0
 22 21  1  0  0  0  0
 23 22  1  0  0  0  0
 24 23  1  0  0  0  0
 25 30  1  0  0  0  0
 25 24  1  0  0  0  0
 26 31  1  0  0  0  0
 26 28  2  0  0  0  0
 29 26  1  0  0  0  0
 30 27  2  0  0  0  0
 31 30  1  0  0  0  0
M  END
>  <MODEL>
3

>  <REMARK>
 VINA RESULT:      -9.5      2.562      6.076
  Name = 
  6 active torsions:
  status: ('A' for Active; 'I' for Inactive)
    1  A    between atoms: C_3  and  C_19
    2  A    between atoms: C_3  and  C_22
    3  A    between atoms: C_7  and  C_9
    4  A    between atoms: C_7  and  C_22
    5  A    between atoms: C_9  and  C_23
    6  A    between atoms: C_15  and  C_23
                            x       y       z     vdW  Elec       q    Type
                         _______ _______ _______ _____ _____    ______ ____

>  <TORSDO>
F 6

$$$$
=
 OpenBabel11052413053D

 31 34  0  0  0  0  0  0  0  0999 V2000
  185.4290  178.1950  145.9250 C   0  0  0  0  0  0  0  0  0  0  0  0
  188.6120  177.6600  144.0210 C   0  0  0  0  0  0  0  0  0  0  0  0
  189.6380  177.2710  145.0460 C   0  0  0  0  0  0  0  0  0  0  0  0
  190.4300  177.0540  147.4030 N   0  0  0  0  0  0  0  0  0  0  0  0
  187.2640  177.9650  144.3390 C   0  0  0  0  0  0  0  0  0  0  0  0
  184.5690  178.5640  144.8910 C   0  0  0  0  0  3  0  0  0  0  0  0
  189.5210  177.7410  146.4810 C   0  0  0  0  0  2  0  0  0  0  0  0
  188.0870  178.0700  141.6720 C   0  0  0  0  0  0  0  0  0  0  0  0
  184.9700  178.1280  147.1970 F   0  0  0  0  0  0  0  0  0  0  0  0
  190.9880  176.2870  143.2130 C   0  0  0  0  0  2  0  0  0  0  0  0
  191.4890  176.4180  147.0090 C   0  0  0  0  0  0  0  0  0  0  0  0
  186.8090  178.3700  142.0120 N   0  0  0  0  0  0  0  0  0  0  0  0
  189.0070  177.6880  142.6630 C   0  0  0  0  0  0  0  0  0  0  0  0
  186.7650  177.8950  145.6500 C   0  0  0  0  0  3  0  0  0  0  0  0
  192.3590  175.8260  147.9660 N   0  0  0  0  0  1  0  0  0  0  0  0
  186.3770  178.3260  143.2960 C   0  0  0  0  0  0  0  0  0  0  0  0
  185.0400  178.6280  143.5790 C   0  0  0  0  0  3  0  0  0  0  0  0
  190.4340  177.3720  142.2970 C   0  0  0  0  0  2  0  0  0  0  0  0
  190.7730  176.6580  144.6500 C   0  0  0  0  0  0  0  0  0  0  0  0
  191.7450  176.2500  145.6160 N   0  0  0  0  0  2  0  0  0  0  0  0
  188.4770  178.1160  140.2310 C   0  0  0  0  0  2  0  0  0  0  0  0
  187.2370  178.0940  139.3550 C   0  0  0  0  0  2  0  0  0  0  0  0
  187.5900  177.6110  137.9580 C   0  0  0  0  0  2  0  0  0  0  0  0
  188.6810  176.5460  138.0000 C   0  0  0  0  0  2  0  0  0  0  0  0
  189.4370  176.4430  136.6810 C   0  0  0  0  0  2  0  0  0  0  0  0
  192.8150  176.7720  138.5520 C   0  0  0  0  0  0  0  0  0  0  0  0
  191.6780  176.0870  135.9640 O   0  0  0  0  0  0  0  0  0  0  0  0
  193.7050  176.4720  137.7120 O   0  0  0  0  0  0  0  0  0  0  0  0
  193.2120  177.1560  139.9310 C   0  0  0  0  0  1  0  0  0  0  0  0
  190.9100  176.4030  136.9110 C   0  0  0  0  0  0  0  0  0  0  0  0
  191.4280  176.7500  138.1990 N   0  0  0  0  0  2  0  0  0  0  0  0
  1  9  1  0  0  0  0
  2  5  1  0  0  0  0
  2  3  1  0  0  0  0
  3  7  1  0  0  0  0
  5 14  2  0  0  0  0
  6  1  2  0  0  0  0
  7  4  1  0  0  0  0
  8 12  2  0  0  0  0
  8 13  1  0  0  0  0
 10 19  1  0  0  0  0
 11  4  2  0  0  0  0
 11 15  1  0  0  0  0
 12 16  1  0  0  0  0
 13  2  2  0  0  0  0
 14  1  1  0  0  0  0
 16 17  2  0  0  0  0
 16  5  1  0  0  0  0
 17  6  1  0  0  0  0
 18 13  1  0  0  0  0
 18 10  1  0  0  0  0
 19  3  2  0  0  0  0
 19 20  1  0  0  0  0
 20 11  1  0  0  0  0
 21  8  1  0  0  0  0
 22 21  1  0  0  0  0
 23 24  1  0  0  0  0
 23 22  1  0  0  0  0
 25 30  1  0  0  0  0
 25 24  1  0  0  0  0
 26 29  1  0  0  0  0
 27 30  2  0  0  0  0
 28 26  2  0  0  0  0
 30 31  1  0  0  0  0
 31 26  1  0  0  0  0
M  END
>  <MODEL>
4

>  <REMARK>
 VINA RESULT:      -9.3      3.013      5.070
  Name = 
  6 active torsions:
  status: ('A' for Active; 'I' for Inactive)
    1  A    between atoms: C_3  and  C_19
    2  A    between atoms: C_3  and  C_22
    3  A    between atoms: C_7  and  C_9
    4  A    between atoms: C_7  and  C_22
    5  A    between atoms: C_9  and  C_23
    6  A    between atoms: C_15  and  C_23
                            x       y       z     vdW  Elec       q    Type
                         _______ _______ _______ _____ _____    ______ ____

>  <TORSDO>
F 6

$$$$
=
 OpenBabel11052413053D

 31 34  0  0  0  0  0  0  0  0999 V2000
  189.3550  177.8670  141.2020 C   0  0  0  0  0  0  0  0  0  0  0  0
  188.0210  177.6760  144.6980 C   0  0  0  0  0  0  0  0  0  0  0  0
  189.1780  177.2430  145.5520 C   0  0  0  0  0  0  0  0  0  0  0  0
  191.4730  176.3080  145.8470 N   0  0  0  0  0  0  0  0  0  0  0  0
  188.1070  177.8560  143.2950 C   0  0  0  0  0  0  0  0  0  0  0  0
  188.2080  178.2530  140.5080 C   0  0  0  0  0  3  0  0  0  0  0  0
  190.2990  176.4060  144.9740 C   0  0  0  0  0  2  0  0  0  0  0  0
  185.6730  178.3370  144.5780 C   0  0  0  0  0  0  0  0  0  0  0  0
  190.5190  177.6790  140.5350 F   0  0  0  0  0  0  0  0  0  0  0  0
  187.9720  178.1520  147.5180 C   0  0  0  0  0  2  0  0  0  0  0  0
  191.4300  176.5530  147.1200 C   0  0  0  0  0  0  0  0  0  0  0  0
  185.7860  178.4850  143.2340 N   0  0  0  0  0  0  0  0  0  0  0  0
  186.7900  177.9530  145.3390 C   0  0  0  0  0  0  0  0  0  0  0  0
  189.3050  177.6730  142.5840 C   0  0  0  0  0  3  0  0  0  0  0  0
  192.5950  176.3780  147.9160 N   0  0  0  0  0  1  0  0  0  0  0  0
  186.9530  178.2630  142.5810 C   0  0  0  0  0  0  0  0  0  0  0  0
  187.0100  178.4520  141.1960 C   0  0  0  0  0  3  0  0  0  0  0  0
  186.6690  177.7660  146.8290 C   0  0  0  0  0  2  0  0  0  0  0  0
  189.1290  177.4380  146.8870 C   0  0  0  0  0  0  0  0  0  0  0  0
  190.2350  177.0630  147.7090 N   0  0  0  0  0  2  0  0  0  0  0  0
  184.3590  178.6280  145.2240 C   0  0  0  0  0  2  0  0  0  0  0  0
  183.4550  179.3710  144.2560 C   0  0  0  0  0  2  0  0  0  0  0  0
  182.1410  178.6270  144.0880 C   0  0  0  0  0  2  0  0  0  0  0  0
  181.1590  179.4270  143.2390 C   0  0  0  0  0  2  0  0  0  0  0  0
  180.6520  178.6310  142.0410 C   0  0  0  0  0  2  0  0  0  0  0  0
  183.0380  179.4210  139.0900 C   0  0  0  0  0  0  0  0  0  0  0  0
  180.3880  180.0230  140.1290 O   0  0  0  0  0  0  0  0  0  0  0  0
  182.4120  180.2220  138.3460 O   0  0  0  0  0  0  0  0  0  0  0  0
  184.4140  179.0020  138.7200 C   0  0  0  0  0  1  0  0  0  0  0  0
  181.1330  179.2280  140.7620 C   0  0  0  0  0  0  0  0  0  0  0  0
  182.4450  178.9070  140.2870 N   0  0  0  0  0  2  0  0  0  0  0  0
  1 14  1  0  0  0  0
  2 13  2  0  0  0  0
  2  3  1  0  0  0  0
  3 19  2  0  0  0  0
  4 11  2  0  0  0  0
  5  2  1  0  0  0  0
  6 17  1  0  0  0  0
  6  1  2  0  0  0  0
  7  3  1  0  0  0  0
  7  4  1  0  0  0  0
  8 21  1  0  0  0  0
  8 13  1  0  0  0  0
  9  1  1  0  0  0  0
 11 20  1  0  0  0  0
 11 15  1  0  0  0  0
 12  8  2  0  0  0  0
 13 18  1  0  0  0  0
 14  5  2  0  0  0  0
 16 12  1  0  0  0  0
 16  5  1  0  0  0  0
 17 16  2  0  0  0  0
 18 10  1  0  0  0  0
 19 10  1  0  0  0  0
 19 20  1  0  0  0  0
 22 21  1  0  0  0  0
 23 22  1  0  0  0  0
 24 23  1  0  0  0  0
 25 24  1  0  0  0  0
 26 31  1  0  0  0  0
 27 30  2  0  0  0  0
 28 26  2  0  0  0  0
 29 26  1  0  0  0  0
 30 25  1  0  0  0  0
 31 30  1  0  0  0  0
M  END
>  <MODEL>
5

>  <REMARK>
 VINA RESULT:      -9.3      1.863      2.436
  Name = 
  6 active torsions:
  status: ('A' for Active; 'I' for Inactive)
    1  A    between atoms: C_3  and  C_19
    2  A    between atoms: C_3  and  C_22
    3  A    between atoms: C_7  and  C_9
    4  A    between atoms: C_7  and  C_22
    5  A    between atoms: C_9  and  C_23
    6  A    between atoms: C_15  and  C_23
                            x       y       z     vdW  Elec       q    Type
                         _______ _______ _______ _____ _____    ______ ____

>  <TORSDO>
F 6

$$$$
=
 OpenBabel11052413053D

 31 34  0  0  0  0  0  0  0  0999 V2000
  190.6860  177.5760  141.1360 C   0  0  0  0  0  0  0  0  0  0  0  0
  188.7810  177.3520  144.3550 C   0  0  0  0  0  0  0  0  0  0  0  0
  189.7960  177.0020  145.4050 C   0  0  0  0  0  0  0  0  0  0  0  0
  192.0560  176.2110  146.1120 N   0  0  0  0  0  0  0  0  0  0  0  0
  189.0980  177.5180  142.9830 C   0  0  0  0  0  0  0  0  0  0  0  0
  189.6550  177.8820  140.2470 C   0  0  0  0  0  3  0  0  0  0  0  0
  191.0470  176.2260  145.0480 C   0  0  0  0  0  2  0  0  0  0  0  0
  186.4550  177.8680  143.8180 C   0  0  0  0  0  0  0  0  0  0  0  0
  191.9560  177.4500  140.6830 F   0  0  0  0  0  0  0  0  0  0  0  0
  188.2190  177.8630  147.1130 C   0  0  0  0  0  2  0  0  0  0  0  0
  191.7790  176.4700  147.3520 C   0  0  0  0  0  0  0  0  0  0  0  0
  186.7900  178.0040  142.5100 N   0  0  0  0  0  0  0  0  0  0  0  0
  187.4440  177.5620  144.7690 C   0  0  0  0  0  0  0  0  0  0  0  0
  190.4090  177.3980  142.4930 C   0  0  0  0  0  3  0  0  0  0  0  0
  192.7980  176.3780  148.3400 N   0  0  0  0  0  1  0  0  0  0  0  0
  188.0640  177.8430  142.0730 C   0  0  0  0  0  0  0  0  0  0  0  0
  188.3470  178.0170  140.7140 C   0  0  0  0  0  3  0  0  0  0  0  0
  187.0790  177.3890  146.2190 C   0  0  0  0  0  2  0  0  0  0  0  0
  189.5060  177.2120  146.7060 C   0  0  0  0  0  0  0  0  0  0  0  0
  190.4740  176.9160  147.7150 N   0  0  0  0  0  2  0  0  0  0  0  0
  185.0350  178.0870  144.2220 C   0  0  0  0  0  2  0  0  0  0  0  0
  184.6420  179.5340  143.9800 C   0  0  0  0  0  2  0  0  0  0  0  0
  183.1840  179.7500  144.3470 C   0  0  0  0  0  2  0  0  0  0  0  0
  182.3090  178.6140  143.8280 C   0  0  0  0  0  2  0  0  0  0  0  0
  180.8330  178.9930  143.7910 C   0  0  0  0  0  2  0  0  0  0  0  0
  180.6850  179.9040  140.0270 C   0  0  0  0  0  0  0  0  0  0  0  0
  179.9130  180.8730  142.6590 O   0  0  0  0  0  0  0  0  0  0  0  0
  180.0900  181.0140  139.9640 O   0  0  0  0  0  0  0  0  0  0  0  0
  181.1600  179.2580  138.7770 C   0  0  0  0  0  1  0  0  0  0  0  0
  180.5110  179.7690  142.5590 C   0  0  0  0  0  0  0  0  0  0  0  0
  180.9120  179.2570  141.2830 N   0  0  0  0  0  2  0  0  0  0  0  0
  1 14  1  0  0  0  0
  2 13  2  0  0  0  0
  2  3  1  0  0  0  0
  3 19  2  0  0  0  0
  4 11  2  0  0  0  0
  5  2  1  0  0  0  0
  6 17  1  0  0  0  0
  6  1  2  0  0  0  0
  7  3  1  0  0  0  0
  7  4  1  0  0  0  0
  8 21  1  0  0  0  0
  8 13  1  0  0  0  0
  9  1  1  0  0  0  0
 11 20  1  0  0  0  0
 11 15  1  0  0  0  0
 12  8  2  0  0  0  0
 13 18  1  0  0  0  0
 14  5  2  0  0  0  0
 16 12  1  0  0  0  0
 16  5  1  0  0  0  0
 17 16  2  0  0  0  0
 18 10  1  0  0  0  0
 19 10  1  0  0  0  0
 19 20  1  0  0  0  0
 22 21  1  0  0  0  0
 22 23  1  0  0  0  0
 24 23  1  0  0  0  0
 25 24  1  0  0  0  0
 26 31  1  0  0  0  0
 28 26  2  0  0  0  0
 29 26  1  0  0  0  0
 30 27  2  0  0  0  0
 30 25  1  0  0  0  0
 31 30  1  0  0  0  0
M  END
>  <MODEL>
6

>  <REMARK>
 VINA RESULT:      -9.2      2.420      3.223
  Name = 
  6 active torsions:
  status: ('A' for Active; 'I' for Inactive)
    1  A    between atoms: C_3  and  C_19
    2  A    between atoms: C_3  and  C_22
    3  A    between atoms: C_7  and  C_9
    4  A    between atoms: C_7  and  C_22
    5  A    between atoms: C_9  and  C_23
    6  A    between atoms: C_15  and  C_23
                            x       y       z     vdW  Elec       q    Type
                         _______ _______ _______ _____ _____    ______ ____

>  <TORSDO>
F 6

$$$$
=
 OpenBabel11052413053D

 31 34  0  0  0  0  0  0  0  0999 V2000
  191.1770  176.6210  146.4720 C   0  0  0  0  0  0  0  0  0  0  0  0
  189.2150  177.6090  143.4360 C   0  0  0  0  0  0  0  0  0  0  0  0
  190.1920  177.5850  142.2950 C   0  0  0  0  0  0  0  0  0  0  0  0
  192.5120  177.5040  141.3790 N   0  0  0  0  0  0  0  0  0  0  0  0
  189.5670  177.3050  144.7750 C   0  0  0  0  0  0  0  0  0  0  0  0
  190.1880  176.6950  147.4530 C   0  0  0  0  0  3  0  0  0  0  0  0
  191.6660  177.8360  142.5290 C   0  0  0  0  0  2  0  0  0  0  0  0
  186.9200  177.9750  144.1860 C   0  0  0  0  0  0  0  0  0  0  0  0
  192.4380  176.2590  146.8060 F   0  0  0  0  0  0  0  0  0  0  0  0
  188.2640  177.4090  140.7450 C   0  0  0  0  0  2  0  0  0  0  0  0
  192.0520  177.3950  140.1710 C   0  0  0  0  0  0  0  0  0  0  0  0
  187.2940  177.6930  145.4590 N   0  0  0  0  0  0  0  0  0  0  0  0
  187.8640  177.9170  143.1470 C   0  0  0  0  0  0  0  0  0  0  0  0
  190.8670  176.9210  145.1430 C   0  0  0  0  0  3  0  0  0  0  0  0
  192.9420  177.1290  139.0950 N   0  0  0  0  0  1  0  0  0  0  0  0
  188.5700  177.3620  145.7780 C   0  0  0  0  0  0  0  0  0  0  0  0
  188.8870  177.0630  147.1080 C   0  0  0  0  0  3  0  0  0  0  0  0
  187.4630  178.2480  141.7340 C   0  0  0  0  0  2  0  0  0  0  0  0
  189.7320  177.5290  141.0280 C   0  0  0  0  0  0  0  0  0  0  0  0
  190.6480  177.4710  139.9320 N   0  0  0  0  0  2  0  0  0  0  0  0
  185.4900  178.3050  143.9140 C   0  0  0  0  0  2  0  0  0  0  0  0
  184.7960  178.7160  145.2000 C   0  0  0  0  0  2  0  0  0  0  0  0
  183.3950  179.2240  144.9030 C   0  0  0  0  0  2  0  0  0  0  0  0
  182.8820  178.6800  143.5740 C   0  0  0  0  0  2  0  0  0  0  0  0
  181.3590  178.6280  143.5220 C   0  0  0  0  0  2  0  0  0  0  0  0
  180.6880  180.0000  139.9610 C   0  0  0  0  0  0  0  0  0  0  0  0
  180.1570  180.5390  142.7700 O   0  0  0  0  0  0  0  0  0  0  0  0
  180.0000  181.0440  140.1170 O   0  0  0  0  0  0  0  0  0  0  0  0
  181.0630  179.5710  138.5890 C   0  0  0  0  0  1  0  0  0  0  0  0
  180.8290  179.5210  142.4530 C   0  0  0  0  0  0  0  0  0  0  0  0
  181.1160  179.2220  141.0830 N   0  0  0  0  0  2  0  0  0  0  0  0
  1  9  1  0  0  0  0
  1  6  1  0  0  0  0
  2  5  1  0  0  0  0
  3  7  1  0  0  0  0
  3  2  1  0  0  0  0
  4  7  1  0  0  0  0
  5 14  1  0  0  0  0
  5 16  2  0  0  0  0
  8 12  2  0  0  0  0
 10 19  1  0  0  0  0
 10 18  1  0  0  0  0
 11  4  2  0  0  0  0
 12 16  1  0  0  0  0
 13  2  2  0  0  0  0
 13  8  1  0  0  0  0
 14  1  2  0  0  0  0
 15 11  1  0  0  0  0
 16 17  1  0  0  0  0
 17  6  2  0  0  0  0
 18 13  1  0  0  0  0
 19  3  2  0  0  0  0
 20 11  1  0  0  0  0
 20 19  1  0  0  0  0
 21  8  1  0  0  0  0
 21 22  1  0  0  0  0
 23 22  1  0  0  0  0
 24 23  1  0  0  0  0
 25 24  1  0  0  0  0
 26 28  2  0  0  0  0
 26 31  1  0  0  0  0
 29 26  1  0  0  0  0
 30 27  2  0  0  0  0
 30 25  1  0  0  0  0
 31 30  1  0  0  0  0
M  END
>  <MODEL>
7

>  <REMARK>
 VINA RESULT:      -9.0      3.283      5.241
  Name = 
  6 active torsions:
  status: ('A' for Active; 'I' for Inactive)
    1  A    between atoms: C_3  and  C_19
    2  A    between atoms: C_3  and  C_22
    3  A    between atoms: C_7  and  C_9
    4  A    between atoms: C_7  and  C_22
    5  A    between atoms: C_9  and  C_23
    6  A    between atoms: C_15  and  C_23
                            x       y       z     vdW  Elec       q    Type
                         _______ _______ _______ _____ _____    ______ ____

>  <TORSDO>
F 6

$$$$
=
 OpenBabel11052413053D

 31 34  0  0  0  0  0  0  0  0999 V2000
  189.7340  177.6460  148.0010 C   0  0  0  0  0  0  0  0  0  0  0  0
  188.2840  177.3870  144.5550 C   0  0  0  0  0  0  0  0  0  0  0  0
  186.8510  177.8160  144.6840 C   0  0  0  0  0  0  0  0  0  0  0  0
  184.8220  178.3540  146.0340 N   0  0  0  0  0  0  0  0  0  0  0  0
  189.1860  177.3300  145.6480 C   0  0  0  0  0  0  0  0  0  0  0  0
  191.0390  177.2120  147.7660 C   0  0  0  0  0  3  0  0  0  0  0  0
  186.1000  177.6380  145.9870 C   0  0  0  0  0  2  0  0  0  0  0  0
  190.0930  176.6260  143.1010 C   0  0  0  0  0  0  0  0  0  0  0  0
  189.3550  178.0070  149.2500 F   0  0  0  0  0  0  0  0  0  0  0  0
  186.8400  178.2540  142.2430 C   0  0  0  0  0  2  0  0  0  0  0  0
  184.1980  178.7580  144.9710 C   0  0  0  0  0  0  0  0  0  0  0  0
  190.9250  176.5690  144.1710 N   0  0  0  0  0  0  0  0  0  0  0  0
  188.7660  177.0560  143.2660 C   0  0  0  0  0  0  0  0  0  0  0  0
  188.8170  177.7060  146.9490 C   0  0  0  0  0  3  0  0  0  0  0  0
  182.9320  179.3930  145.0900 N   0  0  0  0  0  1  0  0  0  0  0  0
  190.5180  176.9060  145.4190 C   0  0  0  0  0  0  0  0  0  0  0  0
  191.4310  176.8450  146.4770 C   0  0  0  0  0  3  0  0  0  0  0  0
  187.8290  177.1040  142.0880 C   0  0  0  0  0  2  0  0  0  0  0  0
  186.1670  178.1870  143.5810 C   0  0  0  0  0  0  0  0  0  0  0  0
  184.8130  178.6300  143.6900 N   0  0  0  0  0  2  0  0  0  0  0  0
  190.6270  176.2630  141.7550 C   0  0  0  0  0  2  0  0  0  0  0  0
  190.9600  177.5210  140.9710 C   0  0  0  0  0  2  0  0  0  0  0  0
  190.5380  177.3620  139.5200 C   0  0  0  0  0  2  0  0  0  0  0  0
  189.3400  178.2480  139.1940 C   0  0  0  0  0  2  0  0  0  0  0  0
  188.8000  177.9930  137.7910 C   0  0  0  0  0  2  0  0  0  0  0  0
  185.0350  178.4460  138.5920 C   0  0  0  0  0  0  0  0  0  0  0  0
  186.9110  176.6270  137.3130 O   0  0  0  0  0  0  0  0  0  0  0  0
  184.4580  177.4300  138.1200 O   0  0  0  0  0  0  0  0  0  0  0  0
  184.2340  179.4840  139.2890 C   0  0  0  0  0  1  0  0  0  0  0  0
  187.3390  177.6940  137.8270 C   0  0  0  0  0  0  0  0  0  0  0  0
  186.4510  178.6150  138.4680 N   0  0  0  0  0  2  0  0  0  0  0  0
  1  9  1  0  0  0  0
  2  3  1  0  0  0  0
  2  5  1  0  0  0  0
  3  7  1  0  0  0  0
  5 14  1  0  0  0  0
  6  1  1  0  0  0  0
  7  4  1  0  0  0  0
  8 13  1  0  0  0  0
  8 12  2  0  0  0  0
 10 19  1  0  0  0  0
 11 15  1  0  0  0  0
 11  4  2  0  0  0  0
 12 16  1  0  0  0  0
 13  2  2  0  0  0  0
 14  1  2  0  0  0  0
 16  5  2  0  0  0  0
 16 17  1  0  0  0  0
 17  6  2  0  0  0  0
 18 10  1  0  0  0  0
 18 13  1  0  0  0  0
 19 20  1  0  0  0  0
 19  3  2  0  0  0  0
 20 11  1  0  0  0  0
 21  8  1  0  0  0  0
 22 21  1  0  0  0  0
 23 22  1  0  0  0  0
 24 23  1  0  0  0  0
 25 30  1  0  0  0  0
 25 24  1  0  0  0  0
 26 29  1  0  0  0  0
 27 30  2  0  0  0  0
 28 26  2  0  0  0  0
 30 31  1  0  0  0  0
 31 26  1  0  0  0  0
M  END
>  <MODEL>
8

>  <REMARK>
 VINA RESULT:      -9.0      2.298      5.617
  Name = 
  6 active torsions:
  status: ('A' for Active; 'I' for Inactive)
    1  A    between atoms: C_3  and  C_19
    2  A    between atoms: C_3  and  C_22
    3  A    between atoms: C_7  and  C_9
    4  A    between atoms: C_7  and  C_22
    5  A    between atoms: C_9  and  C_23
    6  A    between atoms: C_15  and  C_23
                            x       y       z     vdW  Elec       q    Type
                         _______ _______ _______ _____ _____    ______ ____

>  <TORSDO>
F 6

$$$$
=
 OpenBabel11052413053D

 31 34  0  0  0  0  0  0  0  0999 V2000
  182.3000  179.4150  139.4790 C   0  0  0  0  0  0  0  0  0  0  0  0
  185.5560  178.4680  141.0740 C   0  0  0  0  0  0  0  0  0  0  0  0
  186.5700  178.4770  139.9650 C   0  0  0  0  0  0  0  0  0  0  0  0
  187.1960  178.5190  137.5500 N   0  0  0  0  0  0  0  0  0  0  0  0
  184.1830  178.7630  140.8820 C   0  0  0  0  0  0  0  0  0  0  0  0
  181.4460  179.3560  140.5810 C   0  0  0  0  0  3  0  0  0  0  0  0
  186.1580  178.1990  138.5350 C   0  0  0  0  0  2  0  0  0  0  0  0
  185.0930  178.1420  143.4490 C   0  0  0  0  0  0  0  0  0  0  0  0
  181.8130  179.7540  138.2620 F   0  0  0  0  0  0  0  0  0  0  0  0
  188.3420  178.6920  141.6860 C   0  0  0  0  0  2  0  0  0  0  0  0
  188.4500  178.6380  137.8570 C   0  0  0  0  0  0  0  0  0  0  0  0
  183.7820  178.4150  143.2280 N   0  0  0  0  0  0  0  0  0  0  0  0
  186.0090  178.1850  142.3850 C   0  0  0  0  0  0  0  0  0  0  0  0
  183.6580  179.1230  139.6300 C   0  0  0  0  0  3  0  0  0  0  0  0
  189.4090  178.8900  136.8380 N   0  0  0  0  0  1  0  0  0  0  0  0
  183.3090  178.7220  141.9950 C   0  0  0  0  0  0  0  0  0  0  0  0
  181.9490  179.0130  141.8370 C   0  0  0  0  0  3  0  0  0  0  0  0
  187.4620  177.8650  142.6160 C   0  0  0  0  0  2  0  0  0  0  0  0
  187.8830  178.5440  140.2660 C   0  0  0  0  0  0  0  0  0  0  0  0
  188.8590  178.5870  139.2230 N   0  0  0  0  0  2  0  0  0  0  0  0
  185.5390  177.8390  144.8410 C   0  0  0  0  0  2  0  0  0  0  0  0
  185.2950  179.0390  145.7390 C   0  0  0  0  0  2  0  0  0  0  0  0
  186.0850  178.8990  147.0290 C   0  0  0  0  0  2  0  0  0  0  0  0
  186.9900  177.6720  146.9920 C   0  0  0  0  0  2  0  0  0  0  0  0
  188.3110  177.9070  147.7160 C   0  0  0  0  0  2  0  0  0  0  0  0
  191.7090  176.1350  147.1380 C   0  0  0  0  0  0  0  0  0  0  0  0
  189.4230  177.2430  145.7200 O   0  0  0  0  0  0  0  0  0  0  0  0
  191.8290  176.0190  145.8890 O   0  0  0  0  0  0  0  0  0  0  0  0
  192.7860  175.6280  148.0260 C   0  0  0  0  0  1  0  0  0  0  0  0
  189.4440  177.2780  146.9790 C   0  0  0  0  0  0  0  0  0  0  0  0
  190.5510  176.7470  147.7150 N   0  0  0  0  0  2  0  0  0  0  0  0
  1 14  2  0  0  0  0
  1  6  1  0  0  0  0
  2 13  1  0  0  0  0
  3 19  2  0  0  0  0
  3  2  1  0  0  0  0
  4 11  2  0  0  0  0
  4  7  1  0  0  0  0
  5  2  2  0  0  0  0
  5 16  1  0  0  0  0
  6 17  2  0  0  0  0
  7  3  1  0  0  0  0
  8 21  1  0  0  0  0
  9  1  1  0  0  0  0
 10 18  1  0  0  0  0
 11 20  1  0  0  0  0
 12  8  1  0  0  0  0
 13 18  1  0  0  0  0
 13  8  2  0  0  0  0
 14  5  1  0  0  0  0
 15 11  1  0  0  0  0
 16 12  2  0  0  0  0
 17 16  1  0  0  0  0
 19 10  1  0  0  0  0
 20 19  1  0  0  0  0
 21 22  1  0  0  0  0
 22 23  1  0  0  0  0
 24 23  1  0  0  0  0
 24 25  1  0  0  0  0
 26 31  1  0  0  0  0
 26 29  1  0  0  0  0
 27 30  2  0  0  0  0
 28 26  2  0  0  0  0
 30 31  1  0  0  0  0
 30 25  1  0  0  0  0
M  END
>  <MODEL>
9

>  <REMARK>
 VINA RESULT:      -8.7      3.620      7.955
  Name = 
  6 active torsions:
  status: ('A' for Active; 'I' for Inactive)
    1  A    between atoms: C_3  and  C_19
    2  A    between atoms: C_3  and  C_22
    3  A    between atoms: C_7  and  C_9
    4  A    between atoms: C_7  and  C_22
    5  A    between atoms: C_9  and  C_23
    6  A    between atoms: C_15  and  C_23
                            x       y       z     vdW  Elec       q    Type
                         _______ _______ _______ _____ _____    ______ ____

>  <TORSDO>
F 6

$$$$
