=
 OpenBabel11052415043D

 55 63  0  0  1  0  0  0  0  0999 V2000
  186.7280  178.3490  142.2730 C   0  0  0  0  0  0  0  0  0  0  0  0
  183.5410  176.8790  139.4370 C   0  0  0  0  0  3  0  0  0  0  0  0
  186.5810  177.5150  136.9210 C   0  0  0  0  0  2  0  0  0  0  0  0
  180.4640  178.0380  140.2530 C   0  0  0  0  0  2  0  0  0  0  0  0
  181.1060  176.7190  139.7900 C   0  0  2  0  0  3  0  0  0  0  0  0
  189.5490  177.6150  136.7460 C   0  0  0  0  0  2  0  0  0  0  0  0
  190.1080  176.8190  143.2890 C   0  0  0  0  0  2  0  0  0  0  0  0
  190.6560  176.7240  136.1930 C   0  0  0  0  0  2  0  0  0  0  0  0
  190.3700  176.9310  139.0400 C   0  0  0  0  0  0  0  0  0  0  0  0
  191.6340  176.3620  138.4540 C   0  0  0  0  0  2  0  0  0  0  0  0
  186.9730  178.4040  137.9750 C   0  0  1  0  0  3  0  0  0  0  0  0
  191.9050  176.8940  137.0490 C   0  0  0  0  0  2  0  0  0  0  0  0
  185.4790  179.8170  143.8840 C   0  0  0  0  0  3  0  0  0  0  0  0
  189.3190  177.4160  138.2300 C   0  0  0  0  0  0  0  0  0  0  0  0
  183.0370  178.8650  142.8950 C   0  0  0  0  0  0  0  0  0  0  0  0
  186.8530  178.3360  140.8800 C   0  0  0  0  0  3  0  0  0  0  0  0
  184.2390  178.3920  142.3620 C   0  0  0  0  0  3  0  0  0  0  0  0
  188.8940  177.5240  145.3270 C   0  0  2  0  0  3  0  0  0  0  0  0
  189.0540  177.3410  141.0420 C   0  0  0  0  0  0  0  0  0  0  0  0
  187.7780  177.8410  143.0710 C   0  0  0  0  0  0  0  0  0  0  0  0
  182.2110  176.9740  138.7700 C   0  0  0  0  0  2  0  0  0  0  0  0
  190.2180  176.8770  140.4210 C   0  0  0  0  0  3  0  0  0  0  0  0
  184.6170  177.2190  138.7920 C   0  0  0  0  0  0  0  0  0  0  0  0
  187.5850  177.7150  144.5650 C   0  0  0  0  0  2  0  0  0  0  0  0
  185.6830  177.5800  138.1380 C   0  0  0  0  0  0  0  0  0  0  0  0
  184.2760  180.2980  144.4130 C   0  0  0  0  0  3  0  0  0  0  0  0
  185.4680  178.8570  142.8550 C   0  0  0  0  0  0  0  0  0  0  0  0
  188.1010  177.8380  138.8280 C   0  0  0  0  0  0  0  0  0  0  0  0
  189.6890  176.3950  144.6850 C   0  0  0  0  0  2  0  0  0  0  0  0
  187.9950  177.8370  140.2440 C   0  0  0  0  0  0  0  0  0  0  0  0
  181.4600  178.9170  140.9990 C   0  0  0  0  0  2  0  0  0  0  0  0
  188.9410  177.3160  142.4500 C   0  0  0  0  0  0  0  0  0  0  0  0
  181.7420  178.3440  142.3740 C   0  0  0  0  0  2  0  0  0  0  0  0
  183.0550  179.8220  143.9180 C   0  0  0  0  0  3  0  0  0  0  0  0
  188.6130  177.2810  146.7840 C   0  0  0  0  0  0  0  0  0  0  0  0
  189.4650  176.5480  147.5010 C   0  0  0  0  0  2  0  0  0  0  0  0
  187.3830  177.8190  147.4590 C   0  0  0  0  0  1  0  0  0  0  0  0
  178.9310  176.1990  138.5050 C   0  0  0  0  0  2  0  0  0  0  0  0
  180.1110  175.6440  137.7250 C   0  0  1  0  0  3  0  0  0  0  0  0
  180.1350  175.6460  139.2500 C   0  0  1  0  0  3  0  0  0  0  0  0
  179.7560  174.2630  137.1880 C   0  0  0  0  0  2  0  0  0  0  0  0
  183.3470  172.1940  134.5940 C   0  0  0  0  0  1  0  0  0  0  0  0
  180.5020  173.9030  135.9040 C   0  0  2  0  0  3  0  0  0  0  0  0
  181.2170  171.7120  136.5450 O   0  0  0  0  0  0  0  0  0  0  0  0
  181.5060  172.8170  136.1030 C   0  0  0  0  0  0  0  0  0  0  0  0
  182.8850  173.1810  135.6610 C   0  0  2  0  0  0  0  0  0  0  0  0
  181.3310  175.1050  135.4700 C   0  0  0  0  0  2  0  0  0  0  0  0
  182.6820  174.5590  134.9980 C   0  0  1  0  0  3  0  0  0  0  0  0
  185.1530  172.6770  136.7290 N   0  0  0  0  0  2  0  0  0  0  0  0
  186.0820  172.6430  137.8400 C   0  0  0  0  0  1  0  0  0  0  0  0
  183.8270  173.2010  136.8530 C   0  0  0  0  0  0  0  0  0  0  0  0
  183.4610  173.7290  137.9400 O   0  0  0  0  0  0  0  0  0  0  0  0
  183.8140  175.5760  135.1960 C   0  0  0  0  0  3  0  0  0  0  0  0
  183.4790  176.7980  134.5940 O   0  0  0  0  0  1  0  0  0  0  0  0
  184.9920  175.0900  134.6220 O   0  0  0  0  0  1  0  0  0  0  0  0
  1 27  1  0  0  0  0
  1 20  1  0  0  0  0
  3 25  1  0  0  0  0
  4 31  1  0  0  0  0
  5 21  1  6  0  0  0
  5  4  1  0  0  0  0
  6 14  1  0  0  0  0
  7 29  1  0  0  0  0
  8  6  1  0  0  0  0
  8 12  1  0  0  0  0
  9 22  1  0  0  0  0
 10  9  1  0  0  0  0
 11  3  1  6  0  0  0
 11 25  1  0  0  0  0
 11 28  1  0  0  0  0
 12 10  1  0  0  0  0
 13 26  1  0  0  0  0
 14 28  1  0  0  0  0
 14  9  2  0  0  0  0
 15 34  1  0  0  0  0
 16  1  2  0  0  0  0
 17 27  1  0  0  0  0
 17 15  2  0  0  0  0
 18 35  1  1  0  0  0
 19 32  1  0  0  0  0
 20 24  1  0  0  0  0
 21  2  1  0  0  0  0
 22 19  2  0  0  0  0
 23  2  2  0  0  0  0
 24 18  1  0  0  0  0
 25 23  2  0  0  0  0
 27 13  2  0  0  0  0
 28 30  2  0  0  0  0
 29 18  1  0  0  0  0
 30 16  1  0  0  0  0
 30 19  1  0  0  0  0
 31 33  1  0  0  0  0
 32 20  2  0  0  0  0
 32  7  1  0  0  0  0
 33 15  1  0  0  0  0
 34 26  2  0  0  0  0
 35 37  1  0  0  0  0
 35 36  2  0  0  0  0
 39 41  1  1  0  0  0
 39 38  1  0  0  0  0
 39 40  1  0  0  0  0
 40 38  1  1  0  0  0
 40  5  1  0  0  0  0
 43 45  1  0  0  0  0
 43 41  1  1  0  0  0
 45 44  2  0  0  0  0
 46 42  1  6  0  0  0
 46 45  1  0  0  0  0
 46 51  1  0  0  0  0
 47 43  1  0  0  0  0
 48 53  1  1  0  0  0
 48 47  1  0  0  0  0
 48 46  1  0  0  0  0
 49 51  1  0  0  0  0
 49 50  1  0  0  0  0
 51 52  2  0  0  0  0
 54 53  1  0  0  0  0
 55 53  1  0  0  0  0
M  END
>  <MODEL>
1

>  <REMARK>
 VINA RESULT:      -8.9      0.000      0.000
  Name = 
  6 active torsions:
  status: ('A' for Active; 'I' for Inactive)
    1  A    between atoms: C_1  and  C_53
    2  A    between atoms: C_6  and  C_20
    3  A    between atoms: C_8  and  C_43
    4  A    between atoms: C_10  and  C_32
    5  A    between atoms: C_20  and  C_42
    6  A    between atoms: C_29  and  C_38
                            x       y       z     vdW  Elec       q    Type
                         _______ _______ _______ _____ _____    ______ ____

>  <TORSDO>
F 6

$$$$
=
 OpenBabel11052415043D

 55 63  0  0  1  0  0  0  0  0999 V2000
  187.2110  178.1970  139.0520 C   0  0  0  0  0  0  0  0  0  0  0  0
  190.5830  175.2810  138.3530 C   0  0  0  0  0  3  0  0  0  0  0  0
  191.5710  176.7610  141.9320 C   0  0  0  0  0  2  0  0  0  0  0  0
  191.5830  175.2300  135.1160 C   0  0  0  0  0  2  0  0  0  0  0  0
  191.3050  174.2230  136.2460 C   0  0  2  0  0  3  0  0  0  0  0  0
  190.4450  177.9940  144.3940 C   0  0  0  0  0  2  0  0  0  0  0  0
  184.4130  178.2410  141.6910 C   0  0  0  0  0  2  0  0  0  0  0  0
  190.1660  177.5490  145.8260 C   0  0  0  0  0  2  0  0  0  0  0  0
  187.9370  177.9540  144.0660 C   0  0  0  0  0  0  0  0  0  0  0  0
  187.7110  177.8620  145.5510 C   0  0  0  0  0  2  0  0  0  0  0  0
  190.7670  177.8470  141.4540 C   0  0  1  0  0  3  0  0  0  0  0  0
  188.9410  178.2920  146.3460 C   0  0  0  0  0  2  0  0  0  0  0  0
  186.8270  179.2350  136.7970 C   0  0  0  0  0  3  0  0  0  0  0  0
  189.2290  177.8930  143.4980 C   0  0  0  0  0  0  0  0  0  0  0  0
  188.4570  177.2970  135.6000 C   0  0  0  0  0  0  0  0  0  0  0  0
  188.3340  178.0740  139.8760 C   0  0  0  0  0  3  0  0  0  0  0  0
  188.2410  177.2730  136.9810 C   0  0  0  0  0  3  0  0  0  0  0  0
  183.4250  178.6440  139.4580 C   0  0  2  0  0  3  0  0  0  0  0  0
  186.9370  178.0450  141.8530 C   0  0  0  0  0  0  0  0  0  0  0  0
  185.9230  178.2370  139.6320 C   0  0  0  0  0  0  0  0  0  0  0  0
  191.7600  174.7700  137.5940 C   0  0  0  0  0  2  0  0  0  0  0  0
  186.8150  178.0060  143.2450 C   0  0  0  0  0  3  0  0  0  0  0  0
  190.7590  175.9380  139.4600 C   0  0  0  0  0  0  0  0  0  0  0  0
  184.7030  178.2190  138.7400 C   0  0  0  0  0  2  0  0  0  0  0  0
  190.9510  176.6090  140.5590 C   0  0  0  0  0  0  0  0  0  0  0  0
  187.0480  179.2650  135.4160 C   0  0  0  0  0  3  0  0  0  0  0  0
  187.4210  178.2360  137.5890 C   0  0  0  0  0  0  0  0  0  0  0  0
  189.3810  177.8710  142.0850 C   0  0  0  0  0  0  0  0  0  0  0  0
  183.2870  177.8510  140.7510 C   0  0  0  0  0  2  0  0  0  0  0  0
  188.2250  177.9920  141.2680 C   0  0  0  0  0  0  0  0  0  0  0  0
  190.7730  176.5080  135.2900 C   0  0  0  0  0  2  0  0  0  0  0  0
  185.7850  178.1410  141.0400 C   0  0  0  0  0  0  0  0  0  0  0  0
  189.3130  176.2540  134.9680 C   0  0  0  0  0  2  0  0  0  0  0  0
  187.8630  178.2960  134.8170 C   0  0  0  0  0  3  0  0  0  0  0  0
  182.2400  178.4810  138.5470 C   0  0  0  0  0  0  0  0  0  0  0  0
  182.4140  177.9490  137.3370 C   0  0  0  0  0  2  0  0  0  0  0  0
  180.8610  178.9270  138.9450 C   0  0  0  0  0  1  0  0  0  0  0  0
  191.6430  172.2210  134.6550 C   0  0  0  0  0  2  0  0  0  0  0  0
  193.0000  172.8020  135.0150 C   0  0  1  0  0  3  0  0  0  0  0  0
  191.8720  172.8020  136.0410 C   0  0  1  0  0  3  0  0  0  0  0  0
  193.9800  171.6660  135.2810 C   0  0  0  0  0  2  0  0  0  0  0  0
  198.3430  173.0460  137.0040 C   0  0  0  0  0  1  0  0  0  0  0  0
  195.4440  172.0880  135.1580 C   0  0  2  0  0  3  0  0  0  0  0  0
  196.2670  170.9820  137.1130 O   0  0  0  0  0  0  0  0  0  0  0  0
  196.1790  172.0110  136.4550 C   0  0  0  0  0  0  0  0  0  0  0  0
  196.8450  173.2880  136.8480 C   0  0  2  0  0  0  0  0  0  0  0  0
  195.4940  173.5640  134.7860 C   0  0  0  0  0  2  0  0  0  0  0  0
  196.6220  174.1880  135.6150 C   0  0  1  0  0  3  0  0  0  0  0  0
  197.0150  174.6030  139.0340 N   0  0  0  0  0  2  0  0  0  0  0  0
  196.4860  175.1160  140.2810 C   0  0  0  0  0  1  0  0  0  0  0  0
  196.2270  173.8280  138.1270 C   0  0  0  0  0  0  0  0  0  0  0  0
  195.0010  173.6390  138.3660 O   0  0  0  0  0  0  0  0  0  0  0  0
  196.3700  175.6750  135.9000 C   0  0  0  0  0  3  0  0  0  0  0  0
  195.5970  176.2410  134.8760 O   0  0  0  0  0  1  0  0  0  0  0  0
  197.5900  176.3520  135.9840 O   0  0  0  0  0  1  0  0  0  0  0  0
  1 20  2  0  0  0  0
  1 16  1  0  0  0  0
  2 23  2  0  0  0  0
  4 31  1  0  0  0  0
  5  4  1  6  0  0  0
  5 21  1  0  0  0  0
  6  8  1  0  0  0  0
  8 12  1  0  0  0  0
  9 10  1  0  0  0  0
 10 12  1  0  0  0  0
 11  3  1  1  0  0  0
 11 28  1  0  0  0  0
 13 27  1  0  0  0  0
 14  9  1  0  0  0  0
 14  6  1  0  0  0  0
 15 17  1  0  0  0  0
 16 30  2  0  0  0  0
 17 27  2  0  0  0  0
 18 35  1  6  0  0  0
 18 29  1  0  0  0  0
 19 22  1  0  0  0  0
 20 32  1  0  0  0  0
 21  2  1  0  0  0  0
 22  9  2  0  0  0  0
 23 25  2  0  0  0  0
 24 18  1  0  0  0  0
 24 20  1  0  0  0  0
 25 11  1  0  0  0  0
 25  3  1  0  0  0  0
 26 13  2  0  0  0  0
 27  1  1  0  0  0  0
 28 14  2  0  0  0  0
 29  7  1  0  0  0  0
 30 19  1  0  0  0  0
 30 28  1  0  0  0  0
 32  7  1  0  0  0  0
 32 19  2  0  0  0  0
 33 31  1  0  0  0  0
 33 15  1  0  0  0  0
 34 26  1  0  0  0  0
 34 15  2  0  0  0  0
 35 37  1  0  0  0  0
 36 35  2  0  0  0  0
 38 39  1  0  0  0  0
 39 41  1  1  0  0  0
 39 40  1  0  0  0  0
 40 38  1  6  0  0  0
 40  5  1  0  0  0  0
 43 41  1  1  0  0  0
 43 45  1  0  0  0  0
 45 46  1  0  0  0  0
 45 44  2  0  0  0  0
 46 42  1  1  0  0  0
 46 51  1  0  0  0  0
 47 43  1  0  0  0  0
 47 48  1  0  0  0  0
 48 53  1  1  0  0  0
 48 46  1  0  0  0  0
 49 50  1  0  0  0  0
 51 52  2  0  0  0  0
 51 49  1  0  0  0  0
 53 55  1  0  0  0  0
 54 53  1  0  0  0  0
M  END
>  <MODEL>
2

>  <REMARK>
 VINA RESULT:      -7.8      4.642     10.045
  Name = 
  6 active torsions:
  status: ('A' for Active; 'I' for Inactive)
    1  A    between atoms: C_1  and  C_53
    2  A    between atoms: C_6  and  C_20
    3  A    between atoms: C_8  and  C_43
    4  A    between atoms: C_10  and  C_32
    5  A    between atoms: C_20  and  C_42
    6  A    between atoms: C_29  and  C_38
                            x       y       z     vdW  Elec       q    Type
                         _______ _______ _______ _____ _____    ______ ____

>  <TORSDO>
F 6

$$$$
=
 OpenBabel11052415043D

 55 63  0  0  1  0  0  0  0  0999 V2000
  185.6350  178.7660  141.7470 C   0  0  0  0  0  0  0  0  0  0  0  0
  188.6250  176.2670  139.4720 C   0  0  0  0  0  3  0  0  0  0  0  0
  190.7490  177.2560  142.7110 C   0  0  0  0  0  2  0  0  0  0  0  0
  188.4550  176.7920  136.1290 C   0  0  0  0  0  2  0  0  0  0  0  0
  188.6040  175.6050  137.0970 C   0  0  2  0  0  3  0  0  0  0  0  0
  190.5100  178.0050  145.5800 C   0  0  0  0  0  2  0  0  0  0  0  0
  183.9130  178.1830  145.1370 C   0  0  0  0  0  2  0  0  0  0  0  0
  190.7490  177.3260  146.9250 C   0  0  0  0  0  2  0  0  0  0  0  0
  188.0430  177.8170  146.1090 C   0  0  0  0  0  0  0  0  0  0  0  0
  188.3430  177.4820  147.5450 C   0  0  0  0  0  2  0  0  0  0  0  0
  189.8060  178.3360  142.7230 C   0  0  1  0  0  3  0  0  0  0  0  0
  189.7620  177.8810  147.9440 C   0  0  0  0  0  2  0  0  0  0  0  0
  184.4770  180.1030  139.9640 C   0  0  0  0  0  3  0  0  0  0  0  0
  189.0630  177.9460  145.1390 C   0  0  0  0  0  0  0  0  0  0  0  0
  185.6390  178.5060  137.9780 C   0  0  0  0  0  0  0  0  0  0  0  0
  186.9750  178.6080  142.1140 C   0  0  0  0  0  3  0  0  0  0  0  0
  185.9110  178.2540  139.3260 C   0  0  0  0  0  3  0  0  0  0  0  0
  182.2100  178.8440  143.4680 C   0  0  2  0  0  3  0  0  0  0  0  0
  186.3420  178.1660  144.4090 C   0  0  0  0  0  0  0  0  0  0  0  0
  184.6230  178.6140  142.7230 C   0  0  0  0  0  0  0  0  0  0  0  0
  189.4820  175.9740  138.2880 C   0  0  0  0  0  2  0  0  0  0  0  0
  186.7070  177.9050  145.7330 C   0  0  0  0  0  3  0  0  0  0  0  0
  189.1560  176.7600  140.5520 C   0  0  0  0  0  0  0  0  0  0  0  0
  183.1720  178.6360  142.3020 C   0  0  0  0  0  2  0  0  0  0  0  0
  189.6990  177.2680  141.6200 C   0  0  0  0  0  0  0  0  0  0  0  0
  184.2090  180.3610  138.6150 C   0  0  0  0  0  3  0  0  0  0  0  0
  185.3280  179.0440  140.3280 C   0  0  0  0  0  0  0  0  0  0  0  0
  188.7210  178.1530  143.7750 C   0  0  0  0  0  0  0  0  0  0  0  0
  182.5410  177.8540  144.5760 C   0  0  0  0  0  2  0  0  0  0  0  0
  187.3520  178.3050  143.4270 C   0  0  0  0  0  0  0  0  0  0  0  0
  187.7250  177.9590  136.7800 C   0  0  0  0  0  2  0  0  0  0  0  0
  184.9800  178.2930  144.0580 C   0  0  0  0  0  0  0  0  0  0  0  0
  186.2500  177.6430  136.9270 C   0  0  0  0  0  2  0  0  0  0  0  0
  184.7910  179.5620  137.6220 C   0  0  0  0  0  3  0  0  0  0  0  0
  180.7880  178.7290  142.9920 C   0  0  0  0  0  0  0  0  0  0  0  0
  180.5360  178.7040  141.6840 C   0  0  0  0  0  2  0  0  0  0  0  0
  179.6300  178.6690  143.9490 C   0  0  0  0  0  1  0  0  0  0  0  0
  189.2310  174.3040  134.9610 C   0  0  0  0  0  2  0  0  0  0  0  0
  190.4690  174.4540  135.8300 C   0  0  1  0  0  3  0  0  0  0  0  0
  189.0980  174.2810  136.4750 C   0  0  1  0  0  3  0  0  0  0  0  0
  191.2440  173.1430  135.8350 C   0  0  0  0  0  2  0  0  0  0  0  0
  196.1220  172.9930  135.5480 C   0  0  0  0  0  1  0  0  0  0  0  0
  192.5890  173.2320  135.1150 C   0  0  2  0  0  3  0  0  0  0  0  0
  193.7210  171.5070  136.3250 O   0  0  0  0  0  0  0  0  0  0  0  0
  193.7120  172.6610  135.9150 C   0  0  0  0  0  0  0  0  0  0  0  0
  194.8490  173.6060  136.1200 C   0  0  2  0  0  0  0  0  0  0  0  0
  192.9550  174.7010  134.9500 C   0  0  0  0  0  2  0  0  0  0  0  0
  194.4540  174.8150  135.2480 C   0  0  1  0  0  3  0  0  0  0  0  0
  196.2890  174.2130  138.1440 N   0  0  0  0  0  2  0  0  0  0  0  0
  196.4930  174.5000  139.5490 C   0  0  0  0  0  1  0  0  0  0  0  0
  194.9970  173.9320  137.5970 C   0  0  0  0  0  0  0  0  0  0  0  0
  193.9750  174.0080  138.3340 O   0  0  0  0  0  0  0  0  0  0  0  0
  194.8260  176.1980  135.8010 C   0  0  0  0  0  3  0  0  0  0  0  0
  193.8220  176.6610  136.6650 O   0  0  0  0  0  1  0  0  0  0  0  0
  194.9790  177.1030  134.7470 O   0  0  0  0  0  1  0  0  0  0  0  0
  1 16  2  0  0  0  0
  1 20  1  0  0  0  0
  2 23  2  0  0  0  0
  4 31  1  0  0  0  0
  5  4  1  6  0  0  0
  5 21  1  0  0  0  0
  6  8  1  0  0  0  0
  8 12  1  0  0  0  0
  9 10  1  0  0  0  0
 10 12  1  0  0  0  0
 11  3  1  1  0  0  0
 11 28  1  0  0  0  0
 13 27  1  0  0  0  0
 14  6  1  0  0  0  0
 14  9  2  0  0  0  0
 15 17  1  0  0  0  0
 16 30  1  0  0  0  0
 17 27  2  0  0  0  0
 18 35  1  6  0  0  0
 18 29  1  0  0  0  0
 19 22  2  0  0  0  0
 20 32  2  0  0  0  0
 21  2  1  0  0  0  0
 22  9  1  0  0  0  0
 23 25  2  0  0  0  0
 24 20  1  0  0  0  0
 24 18  1  0  0  0  0
 25  3  1  0  0  0  0
 25 11  1  0  0  0  0
 26 13  2  0  0  0  0
 27  1  1  0  0  0  0
 28 14  1  0  0  0  0
 29  7  1  0  0  0  0
 30 28  2  0  0  0  0
 30 19  1  0  0  0  0
 31 33  1  0  0  0  0
 32 19  1  0  0  0  0
 32  7  1  0  0  0  0
 33 15  1  0  0  0  0
 34 15  2  0  0  0  0
 34 26  1  0  0  0  0
 35 37  1  0  0  0  0
 36 35  2  0  0  0  0
 38 39  1  0  0  0  0
 39 41  1  6  0  0  0
 39 40  1  0  0  0  0
 40 38  1  6  0  0  0
 40  5  1  0  0  0  0
 43 41  1  1  0  0  0
 43 45  1  0  0  0  0
 45 46  1  0  0  0  0
 45 44  2  0  0  0  0
 46 42  1  6  0  0  0
 46 51  1  0  0  0  0
 47 43  1  0  0  0  0
 47 48  1  0  0  0  0
 48 53  1  1  0  0  0
 48 46  1  0  0  0  0
 49 50  1  0  0  0  0
 51 49  1  0  0  0  0
 51 52  2  0  0  0  0
 53 54  1  0  0  0  0
 55 53  1  0  0  0  0
M  END
>  <MODEL>
3

>  <REMARK>
 VINA RESULT:      -5.9      4.403      8.542
  Name = 
  6 active torsions:
  status: ('A' for Active; 'I' for Inactive)
    1  A    between atoms: C_1  and  C_53
    2  A    between atoms: C_6  and  C_20
    3  A    between atoms: C_8  and  C_43
    4  A    between atoms: C_10  and  C_32
    5  A    between atoms: C_20  and  C_42
    6  A    between atoms: C_29  and  C_38
                            x       y       z     vdW  Elec       q    Type
                         _______ _______ _______ _____ _____    ______ ____

>  <TORSDO>
F 6

$$$$
