=
 OpenBabel11052414313D

 32 34  0  0  1  0  0  0  0  0999 V2000
  189.8800  176.5250  142.6580 C   0  0  2  0  0  3  0  0  0  0  0  0
  190.3570  177.7500  141.8550 C   0  0  1  0  0  3  0  0  0  0  0  0
  190.9550  178.7970  142.7760 C   0  0  0  0  0  1  0  0  0  0  0  0
  192.9120  175.9020  138.6620 C   0  0  0  0  0  1  0  0  0  0  0  0
  190.7810  177.1240  139.4070 N   0  0  0  0  0  0  0  0  0  0  0  0
  191.6270  176.5950  138.3580 C   0  0  0  0  0  0  0  0  0  0  0  0
  191.2710  176.6790  137.1520 O   0  0  0  0  0  0  0  0  0  0  0  0
  192.5420  177.4980  140.9170 O   0  0  0  0  0  0  0  0  0  0  0  0
  191.2970  177.4350  140.7180 C   0  0  0  0  0  0  0  0  0  0  0  0
  188.5460  176.0790  138.2170 S   0  0  0  0  0  0  0  0  0  0  0  0
  187.4060  177.2490  137.4190 C   0  0  0  0  0  2  0  0  0  0  0  0
  189.3700  177.4240  139.1370 C   0  0  2  0  0  3  0  0  0  0  0  0
  187.5290  179.5600  136.9590 O   0  0  0  0  0  0  0  0  0  0  0  0
  189.2050  178.7440  138.4020 C   0  0  0  0  0  2  0  0  0  0  0  0
  188.0020  178.6030  137.5460 C   0  0  0  0  0  0  0  0  0  0  0  0
  188.3660  176.4430  142.8220 C   0  0  0  0  0  2  0  0  0  0  0  0
  187.7840  177.8260  143.0680 C   0  0  0  0  0  2  0  0  0  0  0  0
  186.5380  178.0270  142.2210 C   0  0  0  0  0  2  0  0  0  0  0  0
  185.6550  178.8960  142.8660 O   0  0  0  0  0  0  0  0  0  0  0  0
  183.8910  178.7030  144.4440 C   0  0  0  0  0  2  0  0  0  0  0  0
  185.2790  178.4350  146.4700 C   0  0  0  0  0  1  0  0  0  0  0  0
  185.2570  178.2090  144.0150 C   0  0  2  0  0  3  0  0  0  0  0  0
  185.1290  179.1910  145.1660 C   0  0  1  0  0  3  0  0  0  0  0  0
  190.6350  176.2750  143.9750 C   0  0  1  0  0  3  0  0  0  0  0  0
  191.9560  175.5500  143.7430 C   0  0  0  0  0  2  0  0  0  0  0  0
  192.1510  174.5400  144.6860 O   0  0  0  0  0  1  0  0  0  0  0  0
  190.8210  177.5090  144.8570 C   0  0  0  0  0  2  0  0  0  0  0  0
  189.0080  178.1140  146.6140 C   0  0  0  0  0  2  0  0  0  0  0  0
  188.8660  176.6590  146.1890 C   0  0  0  0  0  2  0  0  0  0  0  0
  190.2330  177.3040  146.2440 C   0  0  0  0  0  0  0  0  0  0  0  0
  191.0900  176.7510  147.3440 C   0  0  0  0  0  3  0  0  0  0  0  0
  192.2690  176.4860  147.1640 O   0  0  0  0  0  0  0  0  0  0  0  0
  1 16  1  1  0  0  0
  1 24  1  0  0  0  0
  2  1  1  0  0  0  0
  2  3  1  1  0  0  0
  5  9  1  0  0  0  0
  6  4  1  0  0  0  0
  6  5  1  0  0  0  0
  7  6  2  0  0  0  0
  9  8  2  0  0  0  0
  9  2  1  0  0  0  0
 10 12  1  0  0  0  0
 11 15  1  0  0  0  0
 11 10  1  0  0  0  0
 12  5  1  6  0  0  0
 13 15  2  0  0  0  0
 14 12  1  0  0  0  0
 15 14  1  0  0  0  0
 16 17  1  0  0  0  0
 18 19  1  0  0  0  0
 18 17  1  0  0  0  0
 20 23  1  0  0  0  0
 22 19  1  6  0  0  0
 22 20  1  0  0  0  0
 22 23  1  0  0  0  0
 23 21  1  1  0  0  0
 24 25  1  6  0  0  0
 24 27  1  0  0  0  0
 25 26  1  0  0  0  0
 27 30  1  0  0  0  0
 29 30  1  0  0  0  0
 29 28  1  0  0  0  0
 30 28  1  0  0  0  0
 30 31  1  0  0  0  0
 32 31  2  0  0  0  0
M  END
>  <MODEL>
1

>  <REMARK>
 VINA RESULT:      -6.5      0.000      0.000
  Name = 
  13 active torsions:
  status: ('A' for Active; 'I' for Inactive)
    1  A    between atoms: C_1  and  C_5
    2  A    between atoms: C_1  and  C_27
    3  A    between atoms: C_2  and  C_5
    4  A    between atoms: C_2  and  C_28
    5  A    between atoms: C_5  and  C_14
    6  A    between atoms: C_6  and  C_29
    7  A    between atoms: O_10  and  C_12
    8  A    between atoms: O_10  and  C_32
    9  A    between atoms: C_14  and  C_18
   10  A    between atoms: C_14  and  C_21
   11  A    between atoms: C_15  and  N_16
   12  A    between atoms: C_18  and  C_29
   13  A    between atoms: C_28  and  C_32
                            x       y       z     vdW  Elec       q    Type
                         _______ _______ _______ _____ _____    ______ ____

>  <TORSDO>
F 13

$$$$
=
 OpenBabel11052414313D

 32 34  0  0  1  0  0  0  0  0999 V2000
  189.0810  177.1640  142.0770 C   0  0  2  0  0  3  0  0  0  0  0  0
  189.1780  177.2930  140.5450 C   0  0  1  0  0  3  0  0  0  0  0  0
  188.3870  178.4930  140.0560 C   0  0  0  0  0  1  0  0  0  0  0  0
  193.3920  176.4590  139.2460 C   0  0  0  0  0  1  0  0  0  0  0  0
  190.8860  176.6890  138.7340 N   0  0  0  0  0  0  0  0  0  0  0  0
  192.2490  176.4880  138.2880 C   0  0  0  0  0  0  0  0  0  0  0  0
  192.4950  176.2930  137.0680 O   0  0  0  0  0  0  0  0  0  0  0  0
  191.4780  177.9360  140.6350 O   0  0  0  0  0  0  0  0  0  0  0  0
  190.5830  177.3170  139.9980 C   0  0  0  0  0  0  0  0  0  0  0  0
  189.9540  174.6310  137.1840 S   0  0  0  0  0  0  0  0  0  0  0  0
  189.0260  175.0760  135.6860 C   0  0  0  0  0  2  0  0  0  0  0  0
  189.7630  176.3140  137.8680 C   0  0  2  0  0  3  0  0  0  0  0  0
  188.6090  177.1260  134.5960 O   0  0  0  0  0  0  0  0  0  0  0  0
  189.5560  177.3180  136.7460 C   0  0  0  0  0  2  0  0  0  0  0  0
  189.0220  176.5570  135.5910 C   0  0  0  0  0  0  0  0  0  0  0  0
  189.9200  176.0320  142.6580 C   0  0  0  0  0  2  0  0  0  0  0  0
  191.0160  176.5890  143.5520 C   0  0  0  0  0  2  0  0  0  0  0  0
  190.6910  178.0190  143.9490 C   0  0  0  0  0  2  0  0  0  0  0  0
  190.6270  178.1260  145.3410 O   0  0  0  0  0  0  0  0  0  0  0  0
  190.0580  176.5910  147.0610 C   0  0  0  0  0  2  0  0  0  0  0  0
  192.3090  175.6380  147.4190 C   0  0  0  0  0  1  0  0  0  0  0  0
  190.8760  176.8340  145.8090 C   0  0  2  0  0  3  0  0  0  0  0  0
  191.5330  176.9150  147.1750 C   0  0  1  0  0  3  0  0  0  0  0  0
  187.6520  177.1970  142.6450 C   0  0  1  0  0  3  0  0  0  0  0  0
  187.5050  176.2950  143.8650 C   0  0  0  0  0  2  0  0  0  0  0  0
  187.4200  177.0440  145.0400 O   0  0  0  0  0  1  0  0  0  0  0  0
  187.0940  178.5940  142.9110 C   0  0  0  0  0  2  0  0  0  0  0  0
  184.6520  178.2730  143.7320 C   0  0  0  0  0  2  0  0  0  0  0  0
  184.9230  179.7440  143.4440 C   0  0  0  0  0  2  0  0  0  0  0  0
  185.6030  178.6710  142.6220 C   0  0  0  0  0  0  0  0  0  0  0  0
  185.1140  178.6310  141.2050 C   0  0  0  0  0  3  0  0  0  0  0  0
  185.0880  179.6360  140.5090 O   0  0  0  0  0  0  0  0  0  0  0  0
  1 24  1  0  0  0  0
  1 16  1  6  0  0  0
  2  3  1  1  0  0  0
  2  1  1  0  0  0  0
  5  9  1  0  0  0  0
  6  5  1  0  0  0  0
  6  4  1  0  0  0  0
  7  6  2  0  0  0  0
  9  2  1  0  0  0  0
  9  8  2  0  0  0  0
 10 12  1  0  0  0  0
 11 10  1  0  0  0  0
 12  5  1  6  0  0  0
 13 15  2  0  0  0  0
 14 12  1  0  0  0  0
 15 11  1  0  0  0  0
 15 14  1  0  0  0  0
 16 17  1  0  0  0  0
 17 18  1  0  0  0  0
 18 19  1  0  0  0  0
 20 23  1  0  0  0  0
 22 19  1  1  0  0  0
 22 20  1  0  0  0  0
 22 23  1  0  0  0  0
 23 21  1  6  0  0  0
 24 27  1  1  0  0  0
 24 25  1  0  0  0  0
 25 26  1  0  0  0  0
 29 28  1  0  0  0  0
 30 27  1  0  0  0  0
 30 29  1  0  0  0  0
 30 28  1  0  0  0  0
 31 30  1  0  0  0  0
 32 31  2  0  0  0  0
M  END
>  <MODEL>
2

>  <REMARK>
 VINA RESULT:      -6.4      1.769      4.642
  Name = 
  13 active torsions:
  status: ('A' for Active; 'I' for Inactive)
    1  A    between atoms: C_1  and  C_5
    2  A    between atoms: C_1  and  C_27
    3  A    between atoms: C_2  and  C_5
    4  A    between atoms: C_2  and  C_28
    5  A    between atoms: C_5  and  C_14
    6  A    between atoms: C_6  and  C_29
    7  A    between atoms: O_10  and  C_12
    8  A    between atoms: O_10  and  C_32
    9  A    between atoms: C_14  and  C_18
   10  A    between atoms: C_14  and  C_21
   11  A    between atoms: C_15  and  N_16
   12  A    between atoms: C_18  and  C_29
   13  A    between atoms: C_28  and  C_32
                            x       y       z     vdW  Elec       q    Type
                         _______ _______ _______ _____ _____    ______ ____

>  <TORSDO>
F 13

$$$$
=
 OpenBabel11052414313D

 32 34  0  0  1  0  0  0  0  0999 V2000
  189.2320  176.5740  138.6910 C   0  0  2  0  0  3  0  0  0  0  0  0
  189.2670  177.9850  139.3070 C   0  0  1  0  0  3  0  0  0  0  0  0
  189.1770  179.0460  138.2250 C   0  0  0  0  0  1  0  0  0  0  0  0
  186.0480  177.7740  142.4270 C   0  0  0  0  0  1  0  0  0  0  0  0
  188.5240  177.8770  141.7570 N   0  0  0  0  0  0  0  0  0  0  0  0
  187.4950  177.8800  142.7740 C   0  0  0  0  0  0  0  0  0  0  0  0
  187.8080  177.9370  143.9940 O   0  0  0  0  0  0  0  0  0  0  0  0
  187.1560  178.7970  140.0830 O   0  0  0  0  0  0  0  0  0  0  0  0
  188.2420  178.2310  140.3860 C   0  0  0  0  0  0  0  0  0  0  0  0
  190.1010  175.8780  142.7670 S   0  0  0  0  0  0  0  0  0  0  0  0
  191.5060  176.3750  143.8080 C   0  0  0  0  0  2  0  0  0  0  0  0
  189.9150  177.5730  142.1140 C   0  0  2  0  0  3  0  0  0  0  0  0
  192.1890  178.4440  144.7150 O   0  0  0  0  0  0  0  0  0  0  0  0
  190.4770  178.5830  143.1000 C   0  0  0  0  0  2  0  0  0  0  0  0
  191.4580  177.8530  143.9380 C   0  0  0  0  0  0  0  0  0  0  0  0
  190.5570  175.8250  138.7830 C   0  0  0  0  0  2  0  0  0  0  0  0
  191.7050  176.8000  138.9870 C   0  0  0  0  0  2  0  0  0  0  0  0
  192.7690  176.5870  137.9240 C   0  0  0  0  0  2  0  0  0  0  0  0
  193.9080  176.0140  138.4950 O   0  0  0  0  0  0  0  0  0  0  0  0
  193.4960  173.9100  137.4750 C   0  0  0  0  0  2  0  0  0  0  0  0
  195.8420  173.1550  137.3010 C   0  0  0  0  0  1  0  0  0  0  0  0
  194.3870  175.1330  137.5230 C   0  0  2  0  0  3  0  0  0  0  0  0
  194.8290  173.8430  138.1910 C   0  0  1  0  0  3  0  0  0  0  0  0
  188.5970  176.4880  137.2930 C   0  0  1  0  0  3  0  0  0  0  0  0
  189.4470  175.6650  136.3310 C   0  0  0  0  0  2  0  0  0  0  0  0
  190.0490  176.4760  135.3670 O   0  0  0  0  0  1  0  0  0  0  0  0
  187.1360  176.0390  137.2730 C   0  0  0  0  0  2  0  0  0  0  0  0
  186.8100  178.0290  135.6380 C   0  0  0  0  0  2  0  0  0  0  0  0
  185.9320  176.8560  135.2240 C   0  0  0  0  0  2  0  0  0  0  0  0
  186.2250  177.1060  136.6870 C   0  0  0  0  0  0  0  0  0  0  0  0
  185.0160  177.5570  137.4500 C   0  0  0  0  0  3  0  0  0  0  0  0
  184.2720  176.7580  138.0000 O   0  0  0  0  0  0  0  0  0  0  0  0
  1 16  1  6  0  0  0
  1  2  1  0  0  0  0
  2  3  1  6  0  0  0
  2  9  1  0  0  0  0
  4  6  1  0  0  0  0
  5  6  1  0  0  0  0
  6  7  2  0  0  0  0
  8  9  2  0  0  0  0
  9  5  1  0  0  0  0
 10 11  1  0  0  0  0
 11 15  1  0  0  0  0
 12  5  1  1  0  0  0
 12 10  1  0  0  0  0
 12 14  1  0  0  0  0
 14 15  1  0  0  0  0
 15 13  2  0  0  0  0
 16 17  1  0  0  0  0
 18 19  1  0  0  0  0
 18 17  1  0  0  0  0
 20 22  1  0  0  0  0
 20 23  1  0  0  0  0
 22 23  1  0  0  0  0
 22 19  1  1  0  0  0
 23 21  1  6  0  0  0
 24 25  1  6  0  0  0
 24  1  1  0  0  0  0
 26 25  1  0  0  0  0
 27 24  1  0  0  0  0
 28 30  1  0  0  0  0
 29 28  1  0  0  0  0
 29 30  1  0  0  0  0
 30 27  1  0  0  0  0
 30 31  1  0  0  0  0
 31 32  2  0  0  0  0
M  END
>  <MODEL>
3

>  <REMARK>
 VINA RESULT:      -6.3      2.472      8.554
  Name = 
  13 active torsions:
  status: ('A' for Active; 'I' for Inactive)
    1  A    between atoms: C_1  and  C_5
    2  A    between atoms: C_1  and  C_27
    3  A    between atoms: C_2  and  C_5
    4  A    between atoms: C_2  and  C_28
    5  A    between atoms: C_5  and  C_14
    6  A    between atoms: C_6  and  C_29
    7  A    between atoms: O_10  and  C_12
    8  A    between atoms: O_10  and  C_32
    9  A    between atoms: C_14  and  C_18
   10  A    between atoms: C_14  and  C_21
   11  A    between atoms: C_15  and  N_16
   12  A    between atoms: C_18  and  C_29
   13  A    between atoms: C_28  and  C_32
                            x       y       z     vdW  Elec       q    Type
                         _______ _______ _______ _____ _____    ______ ____

>  <TORSDO>
F 13

$$$$
=
 OpenBabel11052414313D

 32 34  0  0  1  0  0  0  0  0999 V2000
  189.0470  178.0220  143.5120 C   0  0  2  0  0  3  0  0  0  0  0  0
  187.7910  177.1450  143.3440 C   0  0  1  0  0  3  0  0  0  0  0  0
  188.1460  175.6730  143.4440 C   0  0  0  0  0  1  0  0  0  0  0  0
  184.7140  179.0640  145.9880 C   0  0  0  0  0  1  0  0  0  0  0  0
  185.4210  178.0320  143.7450 N   0  0  0  0  0  0  0  0  0  0  0  0
  184.4010  178.5850  144.6100 C   0  0  0  0  0  0  0  0  0  0  0  0
  183.2160  178.7080  144.1970 O   0  0  0  0  0  0  0  0  0  0  0  0
  186.7670  177.2420  145.5020 O   0  0  0  0  0  0  0  0  0  0  0  0
  186.6500  177.4870  144.2700 C   0  0  0  0  0  0  0  0  0  0  0  0
  185.8850  179.3950  141.4150 S   0  0  0  0  0  0  0  0  0  0  0  0
  184.6190  179.2710  140.1150 C   0  0  0  0  0  2  0  0  0  0  0  0
  185.1980  177.9510  142.2970 C   0  0  2  0  0  3  0  0  0  0  0  0
  182.4540  178.3360  140.0570 O   0  0  0  0  0  0  0  0  0  0  0  0
  183.7250  177.7800  141.9630 C   0  0  0  0  0  2  0  0  0  0  0  0
  183.5090  178.4480  140.6570 C   0  0  0  0  0  0  0  0  0  0  0  0
  189.6790  178.4580  142.1960 C   0  0  0  0  0  2  0  0  0  0  0  0
  189.1650  177.6010  141.0500 C   0  0  0  0  0  2  0  0  0  0  0  0
  190.3240  176.8960  140.3640 C   0  0  0  0  0  2  0  0  0  0  0  0
  190.5710  177.4820  139.1200 O   0  0  0  0  0  0  0  0  0  0  0  0
  189.7310  177.0700  136.9380 C   0  0  0  0  0  2  0  0  0  0  0  0
  187.7630  178.5610  137.0480 C   0  0  0  0  0  1  0  0  0  0  0  0
  189.3920  177.2920  138.3970 C   0  0  2  0  0  3  0  0  0  0  0  0
  189.2310  178.4230  137.3970 C   0  0  1  0  0  3  0  0  0  0  0  0
  190.0800  177.4920  144.5210 C   0  0  1  0  0  3  0  0  0  0  0  0
  191.4520  177.3040  143.8830 C   0  0  0  0  0  2  0  0  0  0  0  0
  191.7710  175.9510  143.7560 O   0  0  0  0  0  1  0  0  0  0  0  0
  190.1730  178.2820  145.8260 C   0  0  0  0  0  2  0  0  0  0  0  0
  190.2400  175.9000  146.8570 C   0  0  0  0  0  2  0  0  0  0  0  0
  191.3150  176.7780  147.4840 C   0  0  0  0  0  2  0  0  0  0  0  0
  190.0030  177.3850  147.0410 C   0  0  0  0  0  0  0  0  0  0  0  0
  189.1580  177.8410  148.1940 C   0  0  0  0  0  3  0  0  0  0  0  0
  188.2030  178.5870  148.0300 O   0  0  0  0  0  0  0  0  0  0  0  0
  1 16  1  6  0  0  0
  1 24  1  0  0  0  0
  2  3  1  1  0  0  0
  2  1  1  0  0  0  0
  2  9  1  0  0  0  0
  5  9  1  0  0  0  0
  5  6  1  0  0  0  0
  6  4  1  0  0  0  0
  7  6  2  0  0  0  0
  9  8  2  0  0  0  0
 10 12  1  0  0  0  0
 11 15  1  0  0  0  0
 11 10  1  0  0  0  0
 12  5  1  1  0  0  0
 13 15  2  0  0  0  0
 14 12  1  0  0  0  0
 15 14  1  0  0  0  0
 17 16  1  0  0  0  0
 18 17  1  0  0  0  0
 19 18  1  0  0  0  0
 20 23  1  0  0  0  0
 20 22  1  0  0  0  0
 22 19  1  1  0  0  0
 23 21  1  6  0  0  0
 23 22  1  0  0  0  0
 24 25  1  6  0  0  0
 24 27  1  0  0  0  0
 26 25  1  0  0  0  0
 27 30  1  0  0  0  0
 28 30  1  0  0  0  0
 28 29  1  0  0  0  0
 30 29  1  0  0  0  0
 30 31  1  0  0  0  0
 32 31  2  0  0  0  0
M  END
>  <MODEL>
4

>  <REMARK>
 VINA RESULT:      -6.3      2.503      5.962
  Name = 
  13 active torsions:
  status: ('A' for Active; 'I' for Inactive)
    1  A    between atoms: C_1  and  C_5
    2  A    between atoms: C_1  and  C_27
    3  A    between atoms: C_2  and  C_5
    4  A    between atoms: C_2  and  C_28
    5  A    between atoms: C_5  and  C_14
    6  A    between atoms: C_6  and  C_29
    7  A    between atoms: O_10  and  C_12
    8  A    between atoms: O_10  and  C_32
    9  A    between atoms: C_14  and  C_18
   10  A    between atoms: C_14  and  C_21
   11  A    between atoms: C_15  and  N_16
   12  A    between atoms: C_18  and  C_29
   13  A    between atoms: C_28  and  C_32
                            x       y       z     vdW  Elec       q    Type
                         _______ _______ _______ _____ _____    ______ ____

>  <TORSDO>
F 13

$$$$
=
 OpenBabel11052414313D

 32 34  0  0  1  0  0  0  0  0999 V2000
  186.2290  178.6370  143.5580 C   0  0  2  0  0  3  0  0  0  0  0  0
  186.3910  177.4680  144.5480 C   0  0  1  0  0  3  0  0  0  0  0  0
  187.2290  176.3590  143.9380 C   0  0  0  0  0  1  0  0  0  0  0  0
  187.9410  177.6750  148.7550 C   0  0  0  0  0  1  0  0  0  0  0  0
  188.3230  177.6980  146.2160 N   0  0  0  0  0  0  0  0  0  0  0  0
  188.8260  177.8370  147.5660 C   0  0  0  0  0  0  0  0  0  0  0  0
  190.0490  178.0650  147.7660 O   0  0  0  0  0  0  0  0  0  0  0  0
  186.1340  178.3680  146.7480 O   0  0  0  0  0  0  0  0  0  0  0  0
  186.9220  177.8560  145.9050 C   0  0  0  0  0  0  0  0  0  0  0  0
  190.5310  176.2290  145.5330 S   0  0  0  0  0  0  0  0  0  0  0  0
  191.7270  177.0040  144.4040 C   0  0  0  0  0  2  0  0  0  0  0  0
  189.2480  177.4550  145.1030 C   0  0  2  0  0  3  0  0  0  0  0  0
  191.9330  179.1830  143.5210 O   0  0  0  0  0  0  0  0  0  0  0  0
  189.8910  178.7420  144.6140 C   0  0  0  0  0  2  0  0  0  0  0  0
  191.2420  178.3790  144.1220 C   0  0  0  0  0  0  0  0  0  0  0  0
  184.9580  179.4540  143.7650 C   0  0  0  0  0  2  0  0  0  0  0  0
  183.8980  178.6170  144.4630 C   0  0  0  0  0  2  0  0  0  0  0  0
  182.5120  179.1160  144.0950 C   0  0  0  0  0  2  0  0  0  0  0  0
  182.2600  178.8790  142.7410 O   0  0  0  0  0  0  0  0  0  0  0  0
  180.0260  178.4520  143.4220 C   0  0  0  0  0  2  0  0  0  0  0  0
  178.9460  178.7120  141.2150 C   0  0  0  0  0  1  0  0  0  0  0  0
  180.9390  179.2870  142.5490 C   0  0  2  0  0  3  0  0  0  0  0  0
  180.1450  178.1430  141.9440 C   0  0  1  0  0  3  0  0  0  0  0  0
  186.4710  178.2790  142.0810 C   0  0  1  0  0  3  0  0  0  0  0  0
  185.2200  178.4840  141.2340 C   0  0  0  0  0  2  0  0  0  0  0  0
  185.3550  179.5900  140.3940 O   0  0  0  0  0  1  0  0  0  0  0  0
  187.6920  178.9440  141.4470 C   0  0  0  0  0  2  0  0  0  0  0  0
  187.9400  177.7180  139.1720 C   0  0  0  0  0  2  0  0  0  0  0  0
  189.1060  178.6730  139.3860 C   0  0  0  0  0  2  0  0  0  0  0  0
  188.4680  177.9770  140.5670 C   0  0  0  0  0  0  0  0  0  0  0  0
  189.3730  176.9580  141.1950 C   0  0  0  0  0  3  0  0  0  0  0  0
  190.5750  176.9470  140.9730 O   0  0  0  0  0  0  0  0  0  0  0  0
  1 16  1  6  0  0  0
  1  2  1  0  0  0  0
  2  3  1  6  0  0  0
  2  9  1  0  0  0  0
  5  6  1  0  0  0  0
  6  7  2  0  0  0  0
  6  4  1  0  0  0  0
  9  5  1  0  0  0  0
  9  8  2  0  0  0  0
 11 10  1  0  0  0  0
 12 10  1  0  0  0  0
 12  5  1  1  0  0  0
 13 15  2  0  0  0  0
 14 12  1  0  0  0  0
 15 11  1  0  0  0  0
 15 14  1  0  0  0  0
 16 17  1  0  0  0  0
 18 17  1  0  0  0  0
 19 18  1  0  0  0  0
 22 19  1  1  0  0  0
 22 20  1  0  0  0  0
 23 21  1  6  0  0  0
 23 22  1  0  0  0  0
 23 20  1  0  0  0  0
 24 25  1  6  0  0  0
 24  1  1  0  0  0  0
 26 25  1  0  0  0  0
 27 24  1  0  0  0  0
 28 29  1  0  0  0  0
 28 30  1  0  0  0  0
 29 30  1  0  0  0  0
 30 31  1  0  0  0  0
 30 27  1  0  0  0  0
 32 31  2  0  0  0  0
M  END
>  <MODEL>
5

>  <REMARK>
 VINA RESULT:      -6.2      3.019      6.918
  Name = 
  13 active torsions:
  status: ('A' for Active; 'I' for Inactive)
    1  A    between atoms: C_1  and  C_5
    2  A    between atoms: C_1  and  C_27
    3  A    between atoms: C_2  and  C_5
    4  A    between atoms: C_2  and  C_28
    5  A    between atoms: C_5  and  C_14
    6  A    between atoms: C_6  and  C_29
    7  A    between atoms: O_10  and  C_12
    8  A    between atoms: O_10  and  C_32
    9  A    between atoms: C_14  and  C_18
   10  A    between atoms: C_14  and  C_21
   11  A    between atoms: C_15  and  N_16
   12  A    between atoms: C_18  and  C_29
   13  A    between atoms: C_28  and  C_32
                            x       y       z     vdW  Elec       q    Type
                         _______ _______ _______ _____ _____    ______ ____

>  <TORSDO>
F 13

$$$$
=
 OpenBabel11052414313D

 32 34  0  0  1  0  0  0  0  0999 V2000
  189.3510  177.4930  141.2680 C   0  0  2  0  0  3  0  0  0  0  0  0
  188.0540  177.8450  140.5150 C   0  0  1  0  0  3  0  0  0  0  0  0
  187.1940  178.7880  141.3370 C   0  0  0  0  0  1  0  0  0  0  0  0
  189.0690  178.5860  136.2070 C   0  0  0  0  0  1  0  0  0  0  0  0
  187.3860  177.9690  138.0450 N   0  0  0  0  0  0  0  0  0  0  0  0
  187.6830  178.2740  136.6620 C   0  0  0  0  0  0  0  0  0  0  0  0
  186.7690  178.2470  135.7950 O   0  0  0  0  0  0  0  0  0  0  0  0
  189.1640  179.2330  138.9170 O   0  0  0  0  0  0  0  0  0  0  0  0
  188.2560  178.3810  139.1200 C   0  0  0  0  0  0  0  0  0  0  0  0
  185.7720  175.8980  137.2630 S   0  0  0  0  0  0  0  0  0  0  0  0
  183.9820  176.1060  137.5020 C   0  0  0  0  0  2  0  0  0  0  0  0
  186.1380  177.2810  138.3980 C   0  0  2  0  0  3  0  0  0  0  0  0
  182.6430  177.9340  138.1620 O   0  0  0  0  0  0  0  0  0  0  0  0
  184.9620  178.2420  138.4570 C   0  0  0  0  0  2  0  0  0  0  0  0
  183.7640  177.4660  138.0550 C   0  0  0  0  0  0  0  0  0  0  0  0
  190.2090  176.4460  140.5680 C   0  0  0  0  0  2  0  0  0  0  0  0
  191.4620  177.0860  139.9920 C   0  0  0  0  0  2  0  0  0  0  0  0
  191.7010  176.5880  138.5770 C   0  0  0  0  0  2  0  0  0  0  0  0
  191.2070  175.2890  138.4370 O   0  0  0  0  0  0  0  0  0  0  0  0
  189.3880  174.8400  136.9780 C   0  0  0  0  0  2  0  0  0  0  0  0
  190.6170  173.4910  135.3120 C   0  0  0  0  0  1  0  0  0  0  0  0
  190.8590  175.1840  137.0880 C   0  0  2  0  0  3  0  0  0  0  0  0
  190.4310  173.7580  136.7910 C   0  0  1  0  0  3  0  0  0  0  0  0
  189.1760  177.2100  142.7700 C   0  0  1  0  0  3  0  0  0  0  0  0
  187.9280  176.3790  143.0500 C   0  0  0  0  0  2  0  0  0  0  0  0
  187.2950  176.7960  144.2220 O   0  0  0  0  0  1  0  0  0  0  0  0
  190.4050  176.6260  143.4650 C   0  0  0  0  0  2  0  0  0  0  0  0
  191.8850  178.6880  144.0130 C   0  0  0  0  0  2  0  0  0  0  0  0
  190.4270  178.9820  144.3410 C   0  0  0  0  0  2  0  0  0  0  0  0
  190.9740  177.5810  144.5020 C   0  0  0  0  0  0  0  0  0  0  0  0
  191.0640  177.1570  145.9380 C   0  0  0  0  0  3  0  0  0  0  0  0
  192.0470  176.5720  146.3710 O   0  0  0  0  0  0  0  0  0  0  0  0
  1 16  1  6  0  0  0
  1 24  1  0  0  0  0
  2  1  1  0  0  0  0
  2  3  1  1  0  0  0
  4  6  1  0  0  0  0
  5  9  1  0  0  0  0
  6  5  1  0  0  0  0
  7  6  2  0  0  0  0
  8  9  2  0  0  0  0
  9  2  1  0  0  0  0
 10 11  1  0  0  0  0
 10 12  1  0  0  0  0
 11 15  1  0  0  0  0
 12  5  1  6  0  0  0
 12 14  1  0  0  0  0
 15 13  2  0  0  0  0
 15 14  1  0  0  0  0
 17 16  1  0  0  0  0
 18 17  1  0  0  0  0
 19 18  1  0  0  0  0
 20 22  1  0  0  0  0
 22 19  1  1  0  0  0
 23 21  1  6  0  0  0
 23 20  1  0  0  0  0
 23 22  1  0  0  0  0
 24 25  1  6  0  0  0
 24 27  1  0  0  0  0
 25 26  1  0  0  0  0
 27 30  1  0  0  0  0
 28 29  1  0  0  0  0
 28 30  1  0  0  0  0
 29 30  1  0  0  0  0
 30 31  1  0  0  0  0
 31 32  2  0  0  0  0
M  END
>  <MODEL>
6

>  <REMARK>
 VINA RESULT:      -6.1      2.375      5.485
  Name = 
  13 active torsions:
  status: ('A' for Active; 'I' for Inactive)
    1  A    between atoms: C_1  and  C_5
    2  A    between atoms: C_1  and  C_27
    3  A    between atoms: C_2  and  C_5
    4  A    between atoms: C_2  and  C_28
    5  A    between atoms: C_5  and  C_14
    6  A    between atoms: C_6  and  C_29
    7  A    between atoms: O_10  and  C_12
    8  A    between atoms: O_10  and  C_32
    9  A    between atoms: C_14  and  C_18
   10  A    between atoms: C_14  and  C_21
   11  A    between atoms: C_15  and  N_16
   12  A    between atoms: C_18  and  C_29
   13  A    between atoms: C_28  and  C_32
                            x       y       z     vdW  Elec       q    Type
                         _______ _______ _______ _____ _____    ______ ____

>  <TORSDO>
F 13

$$$$
=
 OpenBabel11052414313D

 32 34  0  0  1  0  0  0  0  0999 V2000
  189.4690  177.3240  140.9810 C   0  0  2  0  0  3  0  0  0  0  0  0
  188.1790  177.6530  140.2060 C   0  0  1  0  0  3  0  0  0  0  0  0
  187.3180  178.6300  140.9850 C   0  0  0  0  0  1  0  0  0  0  0  0
  189.4300  178.3460  135.9520 C   0  0  0  0  0  1  0  0  0  0  0  0
  187.7550  177.4640  137.6860 N   0  0  0  0  0  0  0  0  0  0  0  0
  188.1140  177.7460  136.3120 C   0  0  0  0  0  0  0  0  0  0  0  0
  187.3220  177.4500  135.3760 O   0  0  0  0  0  0  0  0  0  0  0  0
  189.0990  179.1630  138.5960 O   0  0  0  0  0  0  0  0  0  0  0  0
  188.3940  178.1350  138.7930 C   0  0  0  0  0  0  0  0  0  0  0  0
  186.9140  174.9080  137.1760 S   0  0  0  0  0  0  0  0  0  0  0  0
  185.1210  174.6310  137.0660 C   0  0  0  0  0  2  0  0  0  0  0  0
  186.6690  176.5250  137.9880 C   0  0  2  0  0  3  0  0  0  0  0  0
  183.2620  176.0850  137.0400 O   0  0  0  0  0  0  0  0  0  0  0  0
  185.3100  177.0980  137.6230 C   0  0  0  0  0  2  0  0  0  0  0  0
  184.4580  175.9490  137.2310 C   0  0  0  0  0  0  0  0  0  0  0  0
  190.4670  176.4810  140.1960 C   0  0  0  0  0  2  0  0  0  0  0  0
  191.6700  177.3190  139.7940 C   0  0  0  0  0  2  0  0  0  0  0  0
  192.1840  176.8790  138.4340 C   0  0  0  0  0  2  0  0  0  0  0  0
  193.5250  176.4990  138.5280 O   0  0  0  0  0  0  0  0  0  0  0  0
  193.1660  174.3560  137.5710 C   0  0  0  0  0  2  0  0  0  0  0  0
  195.3710  174.0980  136.4860 C   0  0  0  0  0  1  0  0  0  0  0  0
  193.7600  175.7370  137.3820 C   0  0  2  0  0  3  0  0  0  0  0  0
  194.6570  174.5640  137.7380 C   0  0  1  0  0  3  0  0  0  0  0  0
  189.2540  176.8090  142.4150 C   0  0  1  0  0  3  0  0  0  0  0  0
  190.1710  175.6350  142.7400 C   0  0  0  0  0  2  0  0  0  0  0  0
  191.2490  176.0390  143.5280 O   0  0  0  0  0  1  0  0  0  0  0  0
  189.3120  177.8820  143.5020 C   0  0  0  0  0  2  0  0  0  0  0  0
  186.9760  178.2190  144.5840 C   0  0  0  0  0  2  0  0  0  0  0  0
  187.1650  176.7630  144.1790 C   0  0  0  0  0  2  0  0  0  0  0  0
  188.3490  177.5830  144.6400 C   0  0  0  0  0  0  0  0  0  0  0  0
  188.8810  177.1350  145.9690 C   0  0  0  0  0  3  0  0  0  0  0  0
  189.6020  177.8550  146.6450 O   0  0  0  0  0  0  0  0  0  0  0  0
  1 16  1  6  0  0  0
  1 24  1  0  0  0  0
  2  1  1  0  0  0  0
  2  3  1  1  0  0  0
  4  6  1  0  0  0  0
  5  9  1  0  0  0  0
  6  5  1  0  0  0  0
  7  6  2  0  0  0  0
  8  9  2  0  0  0  0
  9  2  1  0  0  0  0
 10 12  1  0  0  0  0
 11 10  1  0  0  0  0
 11 15  1  0  0  0  0
 12  5  1  6  0  0  0
 13 15  2  0  0  0  0
 14 12  1  0  0  0  0
 15 14  1  0  0  0  0
 17 16  1  0  0  0  0
 18 19  1  0  0  0  0
 18 17  1  0  0  0  0
 20 23  1  0  0  0  0
 22 20  1  0  0  0  0
 22 23  1  0  0  0  0
 22 19  1  1  0  0  0
 23 21  1  6  0  0  0
 24 25  1  1  0  0  0
 24 27  1  0  0  0  0
 25 26  1  0  0  0  0
 27 30  1  0  0  0  0
 28 30  1  0  0  0  0
 29 28  1  0  0  0  0
 29 30  1  0  0  0  0
 30 31  1  0  0  0  0
 31 32  2  0  0  0  0
M  END
>  <MODEL>
7

>  <REMARK>
 VINA RESULT:      -5.9      2.275      5.914
  Name = 
  13 active torsions:
  status: ('A' for Active; 'I' for Inactive)
    1  A    between atoms: C_1  and  C_5
    2  A    between atoms: C_1  and  C_27
    3  A    between atoms: C_2  and  C_5
    4  A    between atoms: C_2  and  C_28
    5  A    between atoms: C_5  and  C_14
    6  A    between atoms: C_6  and  C_29
    7  A    between atoms: O_10  and  C_12
    8  A    between atoms: O_10  and  C_32
    9  A    between atoms: C_14  and  C_18
   10  A    between atoms: C_14  and  C_21
   11  A    between atoms: C_15  and  N_16
   12  A    between atoms: C_18  and  C_29
   13  A    between atoms: C_28  and  C_32
                            x       y       z     vdW  Elec       q    Type
                         _______ _______ _______ _____ _____    ______ ____

>  <TORSDO>
F 13

$$$$
=
 OpenBabel11052414313D

 32 34  0  0  1  0  0  0  0  0999 V2000
  190.7330  177.8600  142.3930 C   0  0  2  0  0  3  0  0  0  0  0  0
  189.7410  176.7800  141.9200 C   0  0  1  0  0  3  0  0  0  0  0  0
  189.7500  175.5920  142.8640 C   0  0  0  0  0  1  0  0  0  0  0  0
  185.9470  179.1090  141.3450 C   0  0  0  0  0  1  0  0  0  0  0  0
  187.9460  177.8020  140.4030 N   0  0  0  0  0  0  0  0  0  0  0  0
  186.6880  178.4890  140.2080 C   0  0  0  0  0  0  0  0  0  0  0  0
  186.2040  178.6110  139.0510 O   0  0  0  0  0  0  0  0  0  0  0  0
  187.4860  177.1630  142.6170 O   0  0  0  0  0  0  0  0  0  0  0  0
  188.3330  177.2700  141.6880 C   0  0  0  0  0  0  0  0  0  0  0  0
  189.0510  179.0580  138.2330 S   0  0  0  0  0  0  0  0  0  0  0  0
  189.3190  178.0540  136.7420 C   0  0  0  0  0  2  0  0  0  0  0  0
  188.8430  177.5650  139.2660 C   0  0  2  0  0  3  0  0  0  0  0  0
  188.6980  175.8580  136.1410 O   0  0  0  0  0  0  0  0  0  0  0  0
  188.3780  176.3950  138.4150 C   0  0  0  0  0  2  0  0  0  0  0  0
  188.7950  176.6940  137.0230 C   0  0  0  0  0  0  0  0  0  0  0  0
  192.0470  177.8760  141.6210 C   0  0  0  0  0  2  0  0  0  0  0  0
  191.8500  177.3000  140.2270 C   0  0  0  0  0  2  0  0  0  0  0  0
  193.1970  177.0240  139.5810 C   0  0  0  0  0  2  0  0  0  0  0  0
  193.0380  176.8360  138.2050 O   0  0  0  0  0  0  0  0  0  0  0  0
  193.7730  174.7390  137.3690 C   0  0  0  0  0  2  0  0  0  0  0  0
  191.6160  173.9710  136.4420 C   0  0  0  0  0  1  0  0  0  0  0  0
  192.6650  175.4970  138.0700 C   0  0  2  0  0  3  0  0  0  0  0  0
  192.5420  175.1590  136.5940 C   0  0  1  0  0  3  0  0  0  0  0  0
  190.9370  177.9350  143.9160 C   0  0  1  0  0  3  0  0  0  0  0  0
  192.0540  178.9020  144.2920 C   0  0  0  0  0  2  0  0  0  0  0  0
  191.5780  180.2100  144.3960 O   0  0  0  0  0  1  0  0  0  0  0  0
  189.6690  178.2030  144.7250 C   0  0  0  0  0  2  0  0  0  0  0  0
  188.9850  178.1850  147.2300 C   0  0  0  0  0  2  0  0  0  0  0  0
  188.3450  177.0120  146.4990 C   0  0  0  0  0  2  0  0  0  0  0  0
  189.7090  177.5150  146.0800 C   0  0  0  0  0  0  0  0  0  0  0  0
  190.8050  176.5390  146.3900 C   0  0  0  0  0  3  0  0  0  0  0  0
  191.6770  176.7960  147.2080 O   0  0  0  0  0  0  0  0  0  0  0  0
  1 16  1  6  0  0  0
  1 24  1  0  0  0  0
  2  1  1  0  0  0  0
  2  3  1  1  0  0  0
  5  9  1  0  0  0  0
  6  5  1  0  0  0  0
  6  4  1  0  0  0  0
  7  6  2  0  0  0  0
  9  2  1  0  0  0  0
  9  8  2  0  0  0  0
 10 12  1  0  0  0  0
 11 15  1  0  0  0  0
 11 10  1  0  0  0  0
 12  5  1  1  0  0  0
 13 15  2  0  0  0  0
 14 12  1  0  0  0  0
 15 14  1  0  0  0  0
 17 16  1  0  0  0  0
 18 17  1  0  0  0  0
 19 18  1  0  0  0  0
 20 22  1  0  0  0  0
 22 19  1  6  0  0  0
 23 21  1  1  0  0  0
 23 20  1  0  0  0  0
 23 22  1  0  0  0  0
 24 25  1  6  0  0  0
 24 27  1  0  0  0  0
 25 26  1  0  0  0  0
 27 30  1  0  0  0  0
 29 28  1  0  0  0  0
 30 31  1  0  0  0  0
 30 29  1  0  0  0  0
 30 28  1  0  0  0  0
 31 32  2  0  0  0  0
M  END
>  <MODEL>
8

>  <REMARK>
 VINA RESULT:      -5.8      2.070      5.665
  Name = 
  13 active torsions:
  status: ('A' for Active; 'I' for Inactive)
    1  A    between atoms: C_1  and  C_5
    2  A    between atoms: C_1  and  C_27
    3  A    between atoms: C_2  and  C_5
    4  A    between atoms: C_2  and  C_28
    5  A    between atoms: C_5  and  C_14
    6  A    between atoms: C_6  and  C_29
    7  A    between atoms: O_10  and  C_12
    8  A    between atoms: O_10  and  C_32
    9  A    between atoms: C_14  and  C_18
   10  A    between atoms: C_14  and  C_21
   11  A    between atoms: C_15  and  N_16
   12  A    between atoms: C_18  and  C_29
   13  A    between atoms: C_28  and  C_32
                            x       y       z     vdW  Elec       q    Type
                         _______ _______ _______ _____ _____    ______ ____

>  <TORSDO>
F 13

$$$$
=
 OpenBabel11052414313D

 32 34  0  0  1  0  0  0  0  0999 V2000
  187.5520  177.7120  139.9000 C   0  0  2  0  0  3  0  0  0  0  0  0
  187.5890  177.8210  138.3640 C   0  0  1  0  0  3  0  0  0  0  0  0
  188.7350  178.7090  137.9150 C   0  0  0  0  0  1  0  0  0  0  0  0
  187.3530  173.5410  137.0340 C   0  0  0  0  0  1  0  0  0  0  0  0
  186.3950  175.9220  137.1250 N   0  0  0  0  0  0  0  0  0  0  0  0
  186.3430  174.5620  136.6310 C   0  0  0  0  0  0  0  0  0  0  0  0
  185.4080  174.2000  135.8670 O   0  0  0  0  0  0  0  0  0  0  0  0
  188.7250  175.9350  137.4330 O   0  0  0  0  0  0  0  0  0  0  0  0
  187.6160  176.5010  137.6350 C   0  0  0  0  0  0  0  0  0  0  0  0
  183.7750  176.0370  137.9170 S   0  0  0  0  0  0  0  0  0  0  0  0
  182.6060  176.8620  136.7960 C   0  0  0  0  0  2  0  0  0  0  0  0
  185.2060  176.7790  137.0570 C   0  0  2  0  0  3  0  0  0  0  0  0
  182.7980  177.7060  134.6000 O   0  0  0  0  0  0  0  0  0  0  0  0
  184.8410  177.1220  135.6230 C   0  0  0  0  0  2  0  0  0  0  0  0
  183.3660  177.2730  135.5880 C   0  0  0  0  0  0  0  0  0  0  0  0
  186.7960  178.8450  140.5840 C   0  0  0  0  0  2  0  0  0  0  0  0
  185.3060  178.7330  140.3040 C   0  0  0  0  0  2  0  0  0  0  0  0
  184.5380  178.5800  141.6060 C   0  0  0  0  0  2  0  0  0  0  0  0
  185.2620  179.1460  142.6580 O   0  0  0  0  0  0  0  0  0  0  0  0
  183.7370  179.1190  144.4780 C   0  0  0  0  0  2  0  0  0  0  0  0
  185.2980  178.3090  146.2130 C   0  0  0  0  0  1  0  0  0  0  0  0
  184.8840  178.4130  143.7850 C   0  0  2  0  0  3  0  0  0  0  0  0
  185.1420  179.2410  145.0300 C   0  0  1  0  0  3  0  0  0  0  0  0
  188.9080  177.4170  140.5640 C   0  0  1  0  0  3  0  0  0  0  0  0
  190.0770  177.7870  139.6580 C   0  0  0  0  0  2  0  0  0  0  0  0
  191.0480  176.7840  139.6500 O   0  0  0  0  0  1  0  0  0  0  0  0
  189.0810  177.9990  141.9670 C   0  0  0  0  0  2  0  0  0  0  0  0
  188.7130  177.2130  144.4140 C   0  0  0  0  0  2  0  0  0  0  0  0
  187.8680  176.3800  143.4590 C   0  0  0  0  0  2  0  0  0  0  0  0
  189.2150  176.9080  143.0170 C   0  0  0  0  0  0  0  0  0  0  0  0
  190.2330  175.8210  142.8390 C   0  0  0  0  0  3  0  0  0  0  0  0
  191.1310  175.6480  143.6500 O   0  0  0  0  0  0  0  0  0  0  0  0
  1 24  1  0  0  0  0
  1 16  1  1  0  0  0
  2  3  1  1  0  0  0
  2  1  1  0  0  0  0
  5  9  1  0  0  0  0
  6  4  1  0  0  0  0
  6  5  1  0  0  0  0
  7  6  2  0  0  0  0
  8  9  2  0  0  0  0
  9  2  1  0  0  0  0
 11 10  1  0  0  0  0
 12  5  1  6  0  0  0
 12 10  1  0  0  0  0
 13 15  2  0  0  0  0
 14 12  1  0  0  0  0
 15 14  1  0  0  0  0
 15 11  1  0  0  0  0
 17 16  1  0  0  0  0
 17 18  1  0  0  0  0
 18 19  1  0  0  0  0
 20 23  1  0  0  0  0
 22 19  1  6  0  0  0
 22 20  1  0  0  0  0
 22 23  1  0  0  0  0
 23 21  1  1  0  0  0
 24 25  1  6  0  0  0
 24 27  1  0  0  0  0
 26 25  1  0  0  0  0
 27 30  1  0  0  0  0
 29 28  1  0  0  0  0
 30 29  1  0  0  0  0
 30 28  1  0  0  0  0
 31 30  1  0  0  0  0
 31 32  2  0  0  0  0
M  END
>  <MODEL>
9

>  <REMARK>
 VINA RESULT:      -5.7      2.746      4.310
  Name = 
  13 active torsions:
  status: ('A' for Active; 'I' for Inactive)
    1  A    between atoms: C_1  and  C_5
    2  A    between atoms: C_1  and  C_27
    3  A    between atoms: C_2  and  C_5
    4  A    between atoms: C_2  and  C_28
    5  A    between atoms: C_5  and  C_14
    6  A    between atoms: C_6  and  C_29
    7  A    between atoms: O_10  and  C_12
    8  A    between atoms: O_10  and  C_32
    9  A    between atoms: C_14  and  C_18
   10  A    between atoms: C_14  and  C_21
   11  A    between atoms: C_15  and  N_16
   12  A    between atoms: C_18  and  C_29
   13  A    between atoms: C_28  and  C_32
                            x       y       z     vdW  Elec       q    Type
                         _______ _______ _______ _____ _____    ______ ____

>  <TORSDO>
F 13

$$$$
