=
 OpenBabel11052414263D

 32 37  0  0  1  0  0  0  0  0999 V2000
  182.6880  178.8910  139.2140 C   0  0  0  0  0  0  0  0  0  0  0  0
  182.5920  178.9650  141.6480 C   0  0  0  0  0  0  0  0  0  0  0  0
  182.0140  179.1720  137.8920 C   0  0  0  0  0  2  0  0  0  0  0  0
  182.0350  179.2530  140.4030 C   0  0  0  0  0  0  0  0  0  0  0  0
  181.8770  179.3510  142.8380 N   0  0  0  0  0  0  0  0  0  0  0  0
  186.5330  177.6870  144.4270 C   0  0  0  0  0  2  0  0  0  0  0  0
  183.8530  178.3460  141.7240 C   0  0  0  0  0  0  0  0  0  0  0  0
  184.5050  178.6890  145.5030 C   0  0  0  0  0  2  0  0  0  0  0  0
  183.9570  179.0500  144.1260 C   0  0  2  0  0  3  0  0  0  0  0  0
  180.7820  180.0150  140.3500 C   0  0  0  0  0  0  0  0  0  0  0  0
  182.4330  179.0700  144.1630 C   0  0  0  0  0  2  0  0  0  0  0  0
  180.1010  180.2500  141.4320 N   0  0  0  0  0  0  0  0  0  0  0  0
  180.3430  180.5300  139.0910 N   0  0  0  0  0  2  0  0  0  0  0  0
  184.4870  177.9420  140.5390 C   0  0  0  0  0  3  0  0  0  0  0  0
  183.9130  178.2040  139.2830 C   0  0  0  0  0  0  0  0  0  0  0  0
  184.4510  178.0410  143.0760 C   0  0  2  0  0  3  0  0  0  0  0  0
  180.4500  179.6960  142.7500 C   0  0  1  0  0  3  0  0  0  0  0  0
  181.2360  180.4920  137.9340 C   0  0  0  0  0  2  0  0  0  0  0  0
  186.0300  178.6800  145.4720 C   0  0  0  0  0  2  0  0  0  0  0  0
  185.9830  178.0470  143.0500 C   0  0  0  0  0  2  0  0  0  0  0  0
  185.2090  175.7640  136.5560 C   0  0  0  0  0  0  0  0  0  0  0  0
  186.8040  178.3440  134.6270 O   0  0  0  0  0  0  0  0  0  0  0  0
  185.3570  174.5230  136.4010 O   0  0  0  0  0  0  0  0  0  0  0  0
  186.8030  178.2780  136.9710 C   0  0  0  0  0  3  0  0  0  0  0  0
  184.6180  177.7660  138.0260 C   0  0  1  0  0  3  0  0  0  0  0  0
  185.5950  176.6150  135.5140 O   0  0  0  0  0  0  0  0  0  0  0  0
  186.0330  178.2500  138.0540 C   0  0  0  0  0  3  0  0  0  0  0  0
  184.5220  176.2490  137.8050 C   0  0  1  0  0  3  0  0  0  0  0  0
  183.0640  175.8120  137.7540 C   0  0  0  0  0  1  0  0  0  0  0  0
  186.3810  177.7650  135.6620 C   0  0  0  0  0  0  0  0  0  0  0  0
  179.6020  178.4630  143.0260 C   0  0  0  0  0  2  0  0  0  0  0  0
  178.9310  178.6110  144.2400 O   0  0  0  0  0  1  0  0  0  0  0  0
  1 15  2  0  0  0  0
  1  4  1  0  0  0  0
  2  7  1  0  0  0  0
  2  5  1  0  0  0  0
  3 18  1  0  0  0  0
  3  1  1  0  0  0  0
  4  2  2  0  0  0  0
  5 11  1  0  0  0  0
  6 19  1  0  0  0  0
  7 16  1  0  0  0  0
  9 11  1  1  0  0  0
  9  8  1  0  0  0  0
 10  4  1  0  0  0  0
 10 12  2  0  0  0  0
 12 17  1  0  0  0  0
 13 10  1  0  0  0  0
 14  7  2  0  0  0  0
 15 14  1  0  0  0  0
 16 20  1  6  0  0  0
 16  9  1  0  0  0  0
 17  5  1  0  0  0  0
 17 31  1  6  0  0  0
 18 13  1  0  0  0  0
 19  8  1  0  0  0  0
 20  6  1  0  0  0  0
 21 28  1  0  0  0  0
 22 30  2  0  0  0  0
 23 21  2  0  0  0  0
 24 27  2  0  0  0  0
 25 27  1  0  0  0  0
 25 15  1  1  0  0  0
 26 30  1  0  0  0  0
 26 21  1  0  0  0  0
 28 29  1  6  0  0  0
 28 25  1  0  0  0  0
 30 24  1  0  0  0  0
 31 32  1  0  0  0  0
M  END
>  <MODEL>
1

>  <REMARK>
 VINA RESULT:      -8.2      0.000      0.000
  Name = 
  2 active torsions:
  status: ('A' for Active; 'I' for Inactive)
    1  A    between atoms: C_13  and  C_29
    2  A    between atoms: C_16  and  C_27
                            x       y       z     vdW  Elec       q    Type
                         _______ _______ _______ _____ _____    ______ ____

>  <TORSDO>
F 2

$$$$
=
 OpenBabel11052414263D

 32 37  0  0  1  0  0  0  0  0999 V2000
  187.5020  178.0110  141.3960 C   0  0  0  0  0  0  0  0  0  0  0  0
  185.1760  178.2620  140.7120 C   0  0  0  0  0  0  0  0  0  0  0  0
  188.9520  177.8810  140.9960 C   0  0  0  0  0  2  0  0  0  0  0  0
  186.5320  178.1930  140.3960 C   0  0  0  0  0  0  0  0  0  0  0  0
  184.2210  178.4430  139.6470 N   0  0  0  0  0  0  0  0  0  0  0  0
  181.5490  178.9010  144.0770 C   0  0  0  0  0  2  0  0  0  0  0  0
  184.7670  178.2010  142.0550 C   0  0  0  0  0  0  0  0  0  0  0  0
  181.0500  179.1170  141.6310 C   0  0  0  0  0  2  0  0  0  0  0  0
  182.5460  179.1050  141.3290 C   0  0  2  0  0  3  0  0  0  0  0  0
  186.9450  178.3910  139.0020 C   0  0  0  0  0  0  0  0  0  0  0  0
  182.7900  178.5260  139.9400 C   0  0  0  0  0  2  0  0  0  0  0  0
  186.0610  178.4370  138.0490 N   0  0  0  0  0  0  0  0  0  0  0  0
  188.3320  178.5750  138.7140 N   0  0  0  0  0  2  0  0  0  0  0  0
  185.7270  177.9730  143.0530 C   0  0  0  0  0  3  0  0  0  0  0  0
  187.0920  177.8710  142.7340 C   0  0  0  0  0  0  0  0  0  0  0  0
  183.2960  178.2810  142.3880 C   0  0  2  0  0  3  0  0  0  0  0  0
  184.6260  178.1880  138.2560 C   0  0  1  0  0  3  0  0  0  0  0  0
  189.2830  178.7850  139.8040 C   0  0  0  0  0  2  0  0  0  0  0  0
  180.8030  179.7060  143.0160 C   0  0  0  0  0  2  0  0  0  0  0  0
  183.0450  178.8870  143.7730 C   0  0  0  0  0  2  0  0  0  0  0  0
  188.5050  177.6760  146.3450 C   0  0  0  0  0  0  0  0  0  0  0  0
  191.7760  176.6160  145.2930 O   0  0  0  0  0  0  0  0  0  0  0  0
  188.1880  178.0660  147.4990 O   0  0  0  0  0  0  0  0  0  0  0  0
  190.4930  178.2160  144.1550 C   0  0  0  0  0  3  0  0  0  0  0  0
  188.1050  177.6330  143.8240 C   0  0  1  0  0  3  0  0  0  0  0  0
  189.6980  176.9590  146.1900 O   0  0  0  0  0  0  0  0  0  0  0  0
  189.3340  178.4400  143.5460 C   0  0  0  0  0  3  0  0  0  0  0  0
  187.5290  177.9040  145.2210 C   0  0  1  0  0  3  0  0  0  0  0  0
  186.3010  177.0380  145.4660 C   0  0  0  0  0  1  0  0  0  0  0  0
  190.6710  177.2160  145.2160 C   0  0  0  0  0  0  0  0  0  0  0  0
  184.2970  176.7520  137.8770 C   0  0  0  0  0  2  0  0  0  0  0  0
  185.0720  176.3600  136.7850 O   0  0  0  0  0  1  0  0  0  0  0  0
  1 15  1  0  0  0  0
  2  7  2  0  0  0  0
  3  1  1  0  0  0  0
  4  2  1  0  0  0  0
  4  1  2  0  0  0  0
  5 11  1  0  0  0  0
  5  2  1  0  0  0  0
  7 16  1  0  0  0  0
  7 14  1  0  0  0  0
  8 19  1  0  0  0  0
  9 11  1  6  0  0  0
  9  8  1  0  0  0  0
  9 16  1  0  0  0  0
 10  4  1  0  0  0  0
 12 17  1  0  0  0  0
 12 10  2  0  0  0  0
 13 10  1  0  0  0  0
 13 18  1  0  0  0  0
 15 14  2  0  0  0  0
 16 20  1  1  0  0  0
 17 31  1  1  0  0  0
 17  5  1  0  0  0  0
 18  3  1  0  0  0  0
 19  6  1  0  0  0  0
 20  6  1  0  0  0  0
 21 23  2  0  0  0  0
 24 30  1  0  0  0  0
 25 15  1  6  0  0  0
 25 28  1  0  0  0  0
 26 21  1  0  0  0  0
 27 25  1  0  0  0  0
 27 24  2  0  0  0  0
 28 29  1  1  0  0  0
 28 21  1  0  0  0  0
 30 22  2  0  0  0  0
 30 26  1  0  0  0  0
 32 31  1  0  0  0  0
M  END
>  <MODEL>
2

>  <REMARK>
 VINA RESULT:      -7.4      4.188      7.161
  Name = 
  2 active torsions:
  status: ('A' for Active; 'I' for Inactive)
    1  A    between atoms: C_13  and  C_29
    2  A    between atoms: C_16  and  C_27
                            x       y       z     vdW  Elec       q    Type
                         _______ _______ _______ _____ _____    ______ ____

>  <TORSDO>
F 2

$$$$
=
 OpenBabel11052414263D

 32 37  0  0  1  0  0  0  0  0999 V2000
  184.1820  178.7330  141.7350 C   0  0  0  0  0  0  0  0  0  0  0  0
  186.4950  178.2160  141.1640 C   0  0  0  0  0  0  0  0  0  0  0  0
  183.1440  178.9670  142.8060 C   0  0  0  0  0  2  0  0  0  0  0  0
  185.5130  178.4920  142.1150 C   0  0  0  0  0  0  0  0  0  0  0  0
  187.8440  177.9680  141.6080 N   0  0  0  0  0  0  0  0  0  0  0  0
  188.0570  178.2580  136.4270 C   0  0  0  0  0  2  0  0  0  0  0  0
  186.1680  178.2270  139.7970 C   0  0  0  0  0  0  0  0  0  0  0  0
  189.7050  177.9810  138.2940 C   0  0  0  0  0  2  0  0  0  0  0  0
  188.6200  178.3530  139.3000 C   0  0  2  0  0  3  0  0  0  0  0  0
  185.9050  178.6040  143.5240 C   0  0  0  0  0  0  0  0  0  0  0  0
  188.9030  177.6810  140.6390 C   0  0  0  0  0  2  0  0  0  0  0  0
  187.0990  178.2640  143.9100 N   0  0  0  0  0  0  0  0  0  0  0  0
  184.9640  179.1320  144.4610 N   0  0  0  0  0  2  0  0  0  0  0  0
  184.8310  178.4220  139.4160 C   0  0  0  0  0  3  0  0  0  0  0  0
  183.8330  178.6700  140.3730 C   0  0  0  0  0  0  0  0  0  0  0  0
  187.2390  177.9320  138.7740 C   0  0  2  0  0  3  0  0  0  0  0  0
  188.0970  177.6490  143.0210 C   0  0  1  0  0  3  0  0  0  0  0  0
  183.7290  179.7530  143.9840 C   0  0  0  0  0  2  0  0  0  0  0  0
  189.4300  178.6630  136.9560 C   0  0  0  0  0  2  0  0  0  0  0  0
  186.9730  178.6280  137.4350 C   0  0  0  0  0  2  0  0  0  0  0  0
  180.4040  177.8210  138.7650 C   0  0  0  0  0  0  0  0  0  0  0  0
  178.9470  181.0140  139.5430 O   0  0  0  0  0  0  0  0  0  0  0  0
  179.9190  176.9530  137.9910 O   0  0  0  0  0  0  0  0  0  0  0  0
  181.1660  180.7280  138.8390 C   0  0  0  0  0  3  0  0  0  0  0  0
  182.4060  178.8830  139.9380 C   0  0  1  0  0  3  0  0  0  0  0  0
  179.5600  178.8290  139.2450 O   0  0  0  0  0  0  0  0  0  0  0  0
  182.3190  180.1260  139.1110 C   0  0  0  0  0  3  0  0  0  0  0  0
  181.8310  177.6560  139.2160 C   0  0  1  0  0  3  0  0  0  0  0  0
  181.9150  176.4260  140.1100 C   0  0  0  0  0  1  0  0  0  0  0  0
  179.8580  180.1970  139.2470 C   0  0  0  0  0  0  0  0  0  0  0  0
  188.0960  176.1400  143.2180 C   0  0  0  0  0  2  0  0  0  0  0  0
  189.4050  175.6600  143.2190 O   0  0  0  0  0  1  0  0  0  0  0  0
  1  4  1  0  0  0  0
  1  3  1  0  0  0  0
  2  5  1  0  0  0  0
  2  4  2  0  0  0  0
  3 18  1  0  0  0  0
  4 10  1  0  0  0  0
  5 17  1  0  0  0  0
  6 19  1  0  0  0  0
  6 20  1  0  0  0  0
  7  2  1  0  0  0  0
  9  8  1  6  0  0  0
  9 11  1  0  0  0  0
 10 12  2  0  0  0  0
 10 13  1  0  0  0  0
 11  5  1  0  0  0  0
 14  7  2  0  0  0  0
 14 15  1  0  0  0  0
 15  1  2  0  0  0  0
 16 20  1  6  0  0  0
 16  9  1  0  0  0  0
 16  7  1  0  0  0  0
 17 31  1  6  0  0  0
 17 12  1  0  0  0  0
 18 13  1  0  0  0  0
 19  8  1  0  0  0  0
 21 28  1  0  0  0  0
 21 26  1  0  0  0  0
 23 21  2  0  0  0  0
 24 27  2  0  0  0  0
 24 30  1  0  0  0  0
 25 15  1  6  0  0  0
 26 30  1  0  0  0  0
 27 25  1  0  0  0  0
 28 25  1  0  0  0  0
 28 29  1  1  0  0  0
 30 22  2  0  0  0  0
 31 32  1  0  0  0  0
M  END
>  <MODEL>
3

>  <REMARK>
 VINA RESULT:      -7.0      3.268      6.443
  Name = 
  2 active torsions:
  status: ('A' for Active; 'I' for Inactive)
    1  A    between atoms: C_13  and  C_29
    2  A    between atoms: C_16  and  C_27
                            x       y       z     vdW  Elec       q    Type
                         _______ _______ _______ _____ _____    ______ ____

>  <TORSDO>
F 2

$$$$
=
 OpenBabel11052414263D

 32 37  0  0  1  0  0  0  0  0999 V2000
  186.5100  178.2230  145.4620 C   0  0  0  0  0  0  0  0  0  0  0  0
  188.8110  177.5700  144.9930 C   0  0  0  0  0  0  0  0  0  0  0  0
  185.4620  178.5960  146.4830 C   0  0  0  0  0  2  0  0  0  0  0  0
  187.8230  177.9710  145.8910 C   0  0  0  0  0  0  0  0  0  0  0  0
  190.1410  177.3180  145.4860 N   0  0  0  0  0  0  0  0  0  0  0  0
  190.4570  177.0990  140.3070 C   0  0  0  0  0  2  0  0  0  0  0  0
  188.5090  177.4610  143.6240 C   0  0  0  0  0  0  0  0  0  0  0  0
  192.0600  176.9440  142.2270 C   0  0  0  0  0  2  0  0  0  0  0  0
  190.9720  177.4500  143.1700 C   0  0  2  0  0  3  0  0  0  0  0  0
  188.1940  178.2050  147.2910 C   0  0  0  0  0  0  0  0  0  0  0  0
  191.2060  176.9010  144.5720 C   0  0  0  0  0  2  0  0  0  0  0  0
  189.3680  177.8610  147.7330 N   0  0  0  0  0  0  0  0  0  0  0  0
  187.2570  178.8550  148.1530 N   0  0  0  0  0  2  0  0  0  0  0  0
  187.1870  177.6670  143.1970 C   0  0  0  0  0  3  0  0  0  0  0  0
  186.1820  178.0410  144.1050 C   0  0  0  0  0  0  0  0  0  0  0  0
  189.5860  177.0300  142.6560 C   0  0  2  0  0  3  0  0  0  0  0  0
  190.3570  177.1280  146.9280 C   0  0  1  0  0  3  0  0  0  0  0  0
  186.0560  179.4710  147.5930 C   0  0  0  0  0  2  0  0  0  0  0  0
  191.8350  177.5030  140.8240 C   0  0  0  0  0  2  0  0  0  0  0  0
  189.3700  177.6030  141.2520 C   0  0  0  0  0  2  0  0  0  0  0  0
  183.3400  179.0500  141.6610 C   0  0  0  0  0  0  0  0  0  0  0  0
  180.7050  178.2430  143.9690 O   0  0  0  0  0  0  0  0  0  0  0  0
  183.2120  179.6880  140.5830 O   0  0  0  0  0  0  0  0  0  0  0  0
  182.7220  179.2620  144.5950 C   0  0  0  0  0  3  0  0  0  0  0  0
  184.7730  178.2620  143.6220 C   0  0  1  0  0  3  0  0  0  0  0  0
  182.1940  178.5040  142.2510 O   0  0  0  0  0  0  0  0  0  0  0  0
  184.0450  179.1370  144.5940 C   0  0  0  0  0  3  0  0  0  0  0  0
  184.7300  178.8150  142.1900 C   0  0  1  0  0  3  0  0  0  0  0  0
  185.4570  177.8750  141.2370 C   0  0  0  0  0  1  0  0  0  0  0  0
  181.8460  178.6270  143.6020 C   0  0  0  0  0  0  0  0  0  0  0  0
  190.2950  175.6460  147.2690 C   0  0  0  0  0  2  0  0  0  0  0  0
  191.5410  175.2090  147.7180 O   0  0  0  0  0  1  0  0  0  0  0  0
  1  4  1  0  0  0  0
  1  3  1  0  0  0  0
  2  5  1  0  0  0  0
  2  4  2  0  0  0  0
  3 18  1  0  0  0  0
  4 10  1  0  0  0  0
  5 17  1  0  0  0  0
  6 19  1  0  0  0  0
  6 20  1  0  0  0  0
  7  2  1  0  0  0  0
  9  8  1  6  0  0  0
  9 11  1  0  0  0  0
 10 12  2  0  0  0  0
 10 13  1  0  0  0  0
 11  5  1  0  0  0  0
 14  7  2  0  0  0  0
 14 15  1  0  0  0  0
 15  1  2  0  0  0  0
 16 20  1  6  0  0  0
 16  9  1  0  0  0  0
 16  7  1  0  0  0  0
 17 31  1  6  0  0  0
 17 12  1  0  0  0  0
 18 13  1  0  0  0  0
 19  8  1  0  0  0  0
 21 28  1  0  0  0  0
 21 26  1  0  0  0  0
 23 21  2  0  0  0  0
 25 15  1  1  0  0  0
 25 27  1  0  0  0  0
 26 30  1  0  0  0  0
 27 24  2  0  0  0  0
 28 29  1  6  0  0  0
 28 25  1  0  0  0  0
 30 22  2  0  0  0  0
 30 24  1  0  0  0  0
 31 32  1  0  0  0  0
M  END
>  <MODEL>
4

>  <REMARK>
 VINA RESULT:      -7.0      4.655      8.361
  Name = 
  2 active torsions:
  status: ('A' for Active; 'I' for Inactive)
    1  A    between atoms: C_13  and  C_29
    2  A    between atoms: C_16  and  C_27
                            x       y       z     vdW  Elec       q    Type
                         _______ _______ _______ _____ _____    ______ ____

>  <TORSDO>
F 2

$$$$
=
 OpenBabel11052414263D

 32 37  0  0  1  0  0  0  0  0999 V2000
  190.1010  177.2450  141.2670 C   0  0  0  0  0  0  0  0  0  0  0  0
  188.3920  177.5290  139.5520 C   0  0  0  0  0  0  0  0  0  0  0  0
  191.5330  176.9130  141.6120 C   0  0  0  0  0  2  0  0  0  0  0  0
  189.7150  177.2820  139.9170 C   0  0  0  0  0  0  0  0  0  0  0  0
  188.0470  177.5490  138.1530 N   0  0  0  0  0  0  0  0  0  0  0  0
  183.8290  179.1860  140.7030 C   0  0  0  0  0  2  0  0  0  0  0  0
  187.4320  177.7980  140.5430 C   0  0  0  0  0  0  0  0  0  0  0  0
  184.4980  178.8990  138.3050 C   0  0  0  0  0  2  0  0  0  0  0  0
  185.9470  178.6990  138.7380 C   0  0  2  0  0  3  0  0  0  0  0  0
  190.7230  177.1340  138.8620 C   0  0  0  0  0  0  0  0  0  0  0  0
  186.6700  177.8110  137.7310 C   0  0  0  0  0  2  0  0  0  0  0  0
  190.3690  177.0410  137.6140 N   0  0  0  0  0  0  0  0  0  0  0  0
  192.1050  177.1360  139.2250 N   0  0  0  0  0  2  0  0  0  0  0  0
  187.8030  177.7170  141.8950 C   0  0  0  0  0  3  0  0  0  0  0  0
  189.1290  177.4370  142.2660 C   0  0  0  0  0  0  0  0  0  0  0  0
  186.0020  178.0700  140.1390 C   0  0  2  0  0  3  0  0  0  0  0  0
  188.9690  176.9620  137.1690 C   0  0  1  0  0  3  0  0  0  0  0  0
  192.5030  177.5030  140.5830 C   0  0  0  0  0  2  0  0  0  0  0  0
  183.7750  179.7970  139.3050 C   0  0  0  0  0  2  0  0  0  0  0  0
  185.2790  178.9840  141.1340 C   0  0  0  0  0  2  0  0  0  0  0  0
  188.6470  177.6270  146.1140 C   0  0  0  0  0  0  0  0  0  0  0  0
  192.0550  176.7520  146.8520 O   0  0  0  0  0  0  0  0  0  0  0  0
  187.8030  178.0770  146.9320 O   0  0  0  0  0  0  0  0  0  0  0  0
  191.4210  178.1560  145.0830 C   0  0  0  0  0  3  0  0  0  0  0  0
  189.5040  177.3630  143.7240 C   0  0  1  0  0  3  0  0  0  0  0  0
  189.7920  176.9970  146.6170 O   0  0  0  0  0  0  0  0  0  0  0  0
  190.6880  178.2410  143.9780 C   0  0  0  0  0  3  0  0  0  0  0  0
  188.3210  177.6920  144.6450 C   0  0  1  0  0  3  0  0  0  0  0  0
  187.1550  176.7530  144.3680 C   0  0  0  0  0  1  0  0  0  0  0  0
  191.1030  177.2560  146.1990 C   0  0  0  0  0  0  0  0  0  0  0  0
  188.5970  175.5090  136.9120 C   0  0  0  0  0  2  0  0  0  0  0  0
  188.0740  175.3730  135.6270 O   0  0  0  0  0  1  0  0  0  0  0  0
  1  3  1  0  0  0  0
  1 15  1  0  0  0  0
  2  4  1  0  0  0  0
  2  7  2  0  0  0  0
  4  1  2  0  0  0  0
  5  2  1  0  0  0  0
  6 20  1  0  0  0  0
  7 14  1  0  0  0  0
  8  9  1  0  0  0  0
  8 19  1  0  0  0  0
  9 11  1  6  0  0  0
  9 16  1  0  0  0  0
 10 13  1  0  0  0  0
 10  4  1  0  0  0  0
 11  5  1  0  0  0  0
 12 10  2  0  0  0  0
 13 18  1  0  0  0  0
 14 15  2  0  0  0  0
 16  7  1  0  0  0  0
 16 20  1  1  0  0  0
 17 31  1  1  0  0  0
 17 12  1  0  0  0  0
 17  5  1  0  0  0  0
 18  3  1  0  0  0  0
 19  6  1  0  0  0  0
 21 26  1  0  0  0  0
 21 23  2  0  0  0  0
 24 30  1  0  0  0  0
 25 15  1  6  0  0  0
 25 27  1  0  0  0  0
 25 28  1  0  0  0  0
 27 24  2  0  0  0  0
 28 29  1  1  0  0  0
 28 21  1  0  0  0  0
 30 26  1  0  0  0  0
 30 22  2  0  0  0  0
 32 31  1  0  0  0  0
M  END
>  <MODEL>
5

>  <REMARK>
 VINA RESULT:      -6.9      5.468      8.990
  Name = 
  2 active torsions:
  status: ('A' for Active; 'I' for Inactive)
    1  A    between atoms: C_13  and  C_29
    2  A    between atoms: C_16  and  C_27
                            x       y       z     vdW  Elec       q    Type
                         _______ _______ _______ _____ _____    ______ ____

>  <TORSDO>
F 2

$$$$
=
 OpenBabel11052414263D

 32 37  0  0  1  0  0  0  0  0999 V2000
  185.7550  178.0680  143.4760 C   0  0  0  0  0  0  0  0  0  0  0  0
  187.7530  177.8200  142.1020 C   0  0  0  0  0  0  0  0  0  0  0  0
  185.1360  178.0870  144.8530 C   0  0  0  0  0  2  0  0  0  0  0  0
  187.1440  177.8990  143.3540 C   0  0  0  0  0  0  0  0  0  0  0  0
  189.1810  177.6380  142.0320 N   0  0  0  0  0  0  0  0  0  0  0  0
  187.6020  178.5410  137.1680 C   0  0  0  0  0  2  0  0  0  0  0  0
  186.9790  177.9610  140.9370 C   0  0  0  0  0  0  0  0  0  0  0  0
  189.7980  178.1930  138.3230 C   0  0  0  0  0  2  0  0  0  0  0  0
  189.1070  178.3520  139.6750 C   0  0  2  0  0  3  0  0  0  0  0  0
  187.9880  177.8800  144.5530 C   0  0  0  0  0  0  0  0  0  0  0  0
  189.8570  177.5560  140.7370 C   0  0  0  0  0  2  0  0  0  0  0  0
  189.2560  177.6020  144.4690 N   0  0  0  0  0  0  0  0  0  0  0  0
  187.4030  178.2150  145.8130 N   0  0  0  0  0  2  0  0  0  0  0  0
  185.5860  178.0840  141.0530 C   0  0  0  0  0  3  0  0  0  0  0  0
  184.9650  178.1330  142.3130 C   0  0  0  0  0  0  0  0  0  0  0  0
  187.6480  177.8780  139.5850 C   0  0  2  0  0  3  0  0  0  0  0  0
  189.9150  177.1810  143.2220 C   0  0  1  0  0  3  0  0  0  0  0  0
  186.0550  178.7790  145.8650 C   0  0  0  0  0  2  0  0  0  0  0  0
  189.0550  178.9980  137.2610 C   0  0  0  0  0  2  0  0  0  0  0  0
  186.9120  178.6980  138.5210 C   0  0  0  0  0  2  0  0  0  0  0  0
  181.3260  178.7290  141.1010 C   0  0  0  0  0  0  0  0  0  0  0  0
  179.8850  178.3080  144.3680 O   0  0  0  0  0  0  0  0  0  0  0  0
  180.7380  179.1840  140.0850 O   0  0  0  0  0  0  0  0  0  0  0  0
  181.9130  179.4160  143.9680 C   0  0  0  0  0  3  0  0  0  0  0  0
  183.4680  178.2720  142.4120 C   0  0  1  0  0  3  0  0  0  0  0  0
  180.5470  178.2860  142.1770 O   0  0  0  0  0  0  0  0  0  0  0  0
  183.1310  179.2930  143.4520 C   0  0  0  0  0  3  0  0  0  0  0  0
  182.8240  178.5850  141.0530 C   0  0  1  0  0  3  0  0  0  0  0  0
  183.1720  177.5030  140.0400 C   0  0  0  0  0  1  0  0  0  0  0  0
  180.7580  178.6280  143.5190 C   0  0  0  0  0  0  0  0  0  0  0  0
  190.0430  175.6650  143.2000 C   0  0  0  0  0  2  0  0  0  0  0  0
  191.3280  175.2910  143.5930 O   0  0  0  0  0  1  0  0  0  0  0  0
  1  3  1  0  0  0  0
  2  4  2  0  0  0  0
  3 18  1  0  0  0  0
  4  1  1  0  0  0  0
  4 10  1  0  0  0  0
  5  2  1  0  0  0  0
  5 17  1  0  0  0  0
  6 19  1  0  0  0  0
  6 20  1  0  0  0  0
  7 14  2  0  0  0  0
  7  2  1  0  0  0  0
  9  8  1  6  0  0  0
  9 11  1  0  0  0  0
 10 13  1  0  0  0  0
 11  5  1  0  0  0  0
 12 10  2  0  0  0  0
 13 18  1  0  0  0  0
 14 15  1  0  0  0  0
 15  1  2  0  0  0  0
 16 20  1  6  0  0  0
 16  9  1  0  0  0  0
 16  7  1  0  0  0  0
 17 31  1  1  0  0  0
 17 12  1  0  0  0  0
 19  8  1  0  0  0  0
 21 26  1  0  0  0  0
 23 21  2  0  0  0  0
 25 15  1  6  0  0  0
 25 27  1  0  0  0  0
 26 30  1  0  0  0  0
 27 24  2  0  0  0  0
 28 29  1  6  0  0  0
 28 21  1  0  0  0  0
 28 25  1  0  0  0  0
 30 24  1  0  0  0  0
 30 22  2  0  0  0  0
 31 32  1  0  0  0  0
M  END
>  <MODEL>
6

>  <REMARK>
 VINA RESULT:      -6.8      3.845      7.738
  Name = 
  2 active torsions:
  status: ('A' for Active; 'I' for Inactive)
    1  A    between atoms: C_13  and  C_29
    2  A    between atoms: C_16  and  C_27
                            x       y       z     vdW  Elec       q    Type
                         _______ _______ _______ _____ _____    ______ ____

>  <TORSDO>
F 2

$$$$
=
 OpenBabel11052414263D

 32 37  0  0  1  0  0  0  0  0999 V2000
  184.2210  178.4890  138.6960 C   0  0  0  0  0  0  0  0  0  0  0  0
  186.2120  178.1840  140.0670 C   0  0  0  0  0  0  0  0  0  0  0  0
  183.5870  178.4620  137.3260 C   0  0  0  0  0  2  0  0  0  0  0  0
  185.5690  178.1220  138.8320 C   0  0  0  0  0  0  0  0  0  0  0  0
  187.5990  177.8020  140.1510 N   0  0  0  0  0  0  0  0  0  0  0  0
  185.9940  178.4930  145.0420 C   0  0  0  0  0  2  0  0  0  0  0  0
  185.4930  178.5720  141.2120 C   0  0  0  0  0  0  0  0  0  0  0  0
  188.1030  177.7390  143.9180 C   0  0  0  0  0  2  0  0  0  0  0  0
  187.3500  177.6180  142.5960 C   0  0  2  0  0  3  0  0  0  0  0  0
  186.3040  177.5900  137.6790 C   0  0  0  0  0  0  0  0  0  0  0  0
  188.3070  177.8490  141.4320 C   0  0  0  0  0  2  0  0  0  0  0  0
  187.5820  177.3610  137.7540 N   0  0  0  0  0  0  0  0  0  0  0  0
  185.5830  177.2860  136.4830 N   0  0  0  0  0  2  0  0  0  0  0  0
  184.1580  178.9840  141.0720 C   0  0  0  0  0  3  0  0  0  0  0  0
  183.5170  178.9520  139.8230 C   0  0  0  0  0  0  0  0  0  0  0  0
  186.1960  178.6320  142.5470 C   0  0  2  0  0  3  0  0  0  0  0  0
  188.4040  177.7110  138.9230 C   0  0  1  0  0  3  0  0  0  0  0  0
  184.1210  177.2940  136.4900 C   0  0  0  0  0  2  0  0  0  0  0  0
  187.1500  177.4960  145.0850 C   0  0  0  0  0  2  0  0  0  0  0  0
  185.2430  178.3730  143.7190 C   0  0  0  0  0  2  0  0  0  0  0  0
  179.7200  178.6560  139.0700 C   0  0  0  0  0  0  0  0  0  0  0  0
  179.0100  182.0710  139.9390 O   0  0  0  0  0  0  0  0  0  0  0  0
  178.9390  177.8620  138.4810 O   0  0  0  0  0  0  0  0  0  0  0  0
  180.9330  181.3910  138.7830 C   0  0  0  0  0  3  0  0  0  0  0  0
  182.0810  179.3930  139.7000 C   0  0  1  0  0  3  0  0  0  0  0  0
  179.1800  179.8060  139.6580 O   0  0  0  0  0  0  0  0  0  0  0  0
  182.0070  180.6090  138.8320 C   0  0  0  0  0  3  0  0  0  0  0  0
  181.1670  178.2630  139.2050 C   0  0  1  0  0  3  0  0  0  0  0  0
  181.2560  177.0610  140.1370 C   0  0  0  0  0  1  0  0  0  0  0  0
  179.6860  181.1030  139.5040 C   0  0  0  0  0  0  0  0  0  0  0  0
  189.1140  179.0330  138.6710 C   0  0  0  0  0  2  0  0  0  0  0  0
  188.8970  179.4460  137.3560 O   0  0  0  0  0  1  0  0  0  0  0  0
  1  4  2  0  0  0  0
  1 15  1  0  0  0  0
  2  5  1  0  0  0  0
  2  7  2  0  0  0  0
  3  1  1  0  0  0  0
  4  2  1  0  0  0  0
  5 11  1  0  0  0  0
  6 19  1  0  0  0  0
  7 16  1  0  0  0  0
  8 19  1  0  0  0  0
  9 11  1  6  0  0  0
  9  8  1  0  0  0  0
 10 12  2  0  0  0  0
 10  4  1  0  0  0  0
 12 17  1  0  0  0  0
 13 18  1  0  0  0  0
 13 10  1  0  0  0  0
 14  7  1  0  0  0  0
 15 14  2  0  0  0  0
 16  9  1  0  0  0  0
 16 20  1  1  0  0  0
 17 31  1  6  0  0  0
 17  5  1  0  0  0  0
 18  3  1  0  0  0  0
 20  6  1  0  0  0  0
 21 28  1  0  0  0  0
 21 26  1  0  0  0  0
 23 21  2  0  0  0  0
 24 27  2  0  0  0  0
 24 30  1  0  0  0  0
 25 15  1  6  0  0  0
 27 25  1  0  0  0  0
 28 25  1  0  0  0  0
 28 29  1  1  0  0  0
 30 26  1  0  0  0  0
 30 22  2  0  0  0  0
 32 31  1  0  0  0  0
M  END
>  <MODEL>
7

>  <REMARK>
 VINA RESULT:      -6.6      3.161      5.994
  Name = 
  2 active torsions:
  status: ('A' for Active; 'I' for Inactive)
    1  A    between atoms: C_13  and  C_29
    2  A    between atoms: C_16  and  C_27
                            x       y       z     vdW  Elec       q    Type
                         _______ _______ _______ _____ _____    ______ ____

>  <TORSDO>
F 2

$$$$
=
 OpenBabel11052414263D

 32 37  0  0  1  0  0  0  0  0999 V2000
  188.8840  177.3600  138.3410 C   0  0  0  0  0  0  0  0  0  0  0  0
  188.3580  177.7440  140.6900 C   0  0  0  0  0  0  0  0  0  0  0  0
  188.4700  177.4840  136.8940 C   0  0  0  0  0  2  0  0  0  0  0  0
  188.0450  177.8830  139.3380 C   0  0  0  0  0  0  0  0  0  0  0  0
  187.4590  178.2920  141.6730 N   0  0  0  0  0  0  0  0  0  0  0  0
  191.6800  176.7510  144.2760 C   0  0  0  0  0  2  0  0  0  0  0  0
  189.5570  177.1150  141.0690 C   0  0  0  0  0  0  0  0  0  0  0  0
  189.5360  177.9220  144.8340 C   0  0  0  0  0  2  0  0  0  0  0  0
  189.2600  178.1150  143.3460 C   0  0  2  0  0  3  0  0  0  0  0  0
  186.8560  178.6560  138.9640 C   0  0  0  0  0  0  0  0  0  0  0  0
  187.7560  178.1710  143.1010 C   0  0  0  0  0  2  0  0  0  0  0  0
  186.0030  179.0410  139.8680 N   0  0  0  0  0  0  0  0  0  0  0  0
  186.6710  179.0170  137.5940 N   0  0  0  0  0  2  0  0  0  0  0  0
  190.3750  176.5510  140.0780 C   0  0  0  0  0  3  0  0  0  0  0  0
  190.0470  176.6630  138.7160 C   0  0  0  0  0  0  0  0  0  0  0  0
  189.8900  176.9720  142.5350 C   0  0  2  0  0  3  0  0  0  0  0  0
  186.0860  178.6520  141.2840 C   0  0  1  0  0  3  0  0  0  0  0  0
  187.7540  178.8140  136.6330 C   0  0  0  0  0  2  0  0  0  0  0  0
  191.0410  177.8780  145.0840 C   0  0  0  0  0  2  0  0  0  0  0  0
  191.4010  176.9440  142.7880 C   0  0  0  0  0  2  0  0  0  0  0  0
  191.6150  173.8850  136.5030 C   0  0  0  0  0  0  0  0  0  0  0  0
  193.8340  176.1350  134.7870 O   0  0  0  0  0  0  0  0  0  0  0  0
  191.6610  172.6280  136.4690 O   0  0  0  0  0  0  0  0  0  0  0  0
  193.3430  176.2780  137.0760 C   0  0  0  0  0  3  0  0  0  0  0  0
  190.9460  176.0540  137.6710 C   0  0  1  0  0  3  0  0  0  0  0  0
  192.2940  174.6040  135.5110 O   0  0  0  0  0  0  0  0  0  0  0  0
  192.3670  176.4140  137.9680 C   0  0  0  0  0  3  0  0  0  0  0  0
  190.7390  174.5380  137.5400 C   0  0  1  0  0  3  0  0  0  0  0  0
  189.2860  174.2280  137.2090 C   0  0  0  0  0  1  0  0  0  0  0  0
  193.1480  175.6890  135.7440 C   0  0  0  0  0  0  0  0  0  0  0  0
  185.1500  177.4810  141.5480 C   0  0  0  0  0  2  0  0  0  0  0  0
  183.8280  177.8770  141.3510 O   0  0  0  0  0  1  0  0  0  0  0  0
  1 15  2  0  0  0  0
  1  4  1  0  0  0  0
  2  7  1  0  0  0  0
  2  5  1  0  0  0  0
  3  1  1  0  0  0  0
  4  2  2  0  0  0  0
  5 11  1  0  0  0  0
  6 19  1  0  0  0  0
  7 16  1  0  0  0  0
  8 19  1  0  0  0  0
  9 11  1  1  0  0  0
  9  8  1  0  0  0  0
 10  4  1  0  0  0  0
 10 12  2  0  0  0  0
 12 17  1  0  0  0  0
 13 10  1  0  0  0  0
 14  7  2  0  0  0  0
 15 14  1  0  0  0  0
 16 20  1  6  0  0  0
 16  9  1  0  0  0  0
 17 31  1  6  0  0  0
 17  5  1  0  0  0  0
 18  3  1  0  0  0  0
 18 13  1  0  0  0  0
 20  6  1  0  0  0  0
 21 28  1  0  0  0  0
 22 30  2  0  0  0  0
 23 21  2  0  0  0  0
 24 27  2  0  0  0  0
 25 27  1  0  0  0  0
 25 15  1  1  0  0  0
 26 30  1  0  0  0  0
 26 21  1  0  0  0  0
 28 29  1  6  0  0  0
 28 25  1  0  0  0  0
 30 24  1  0  0  0  0
 32 31  1  0  0  0  0
M  END
>  <MODEL>
8

>  <REMARK>
 VINA RESULT:      -6.6      4.780      6.222
  Name = 
  2 active torsions:
  status: ('A' for Active; 'I' for Inactive)
    1  A    between atoms: C_13  and  C_29
    2  A    between atoms: C_16  and  C_27
                            x       y       z     vdW  Elec       q    Type
                         _______ _______ _______ _____ _____    ______ ____

>  <TORSDO>
F 2

$$$$
=
 OpenBabel11052414263D

 32 37  0  0  1  0  0  0  0  0999 V2000
  185.7690  178.5130  142.8990 C   0  0  0  0  0  0  0  0  0  0  0  0
  185.9550  178.4450  140.4700 C   0  0  0  0  0  0  0  0  0  0  0  0
  184.9120  178.7690  144.1150 C   0  0  0  0  0  2  0  0  0  0  0  0
  185.1920  178.6180  141.6230 C   0  0  0  0  0  0  0  0  0  0  0  0
  185.3160  178.5700  139.1840 N   0  0  0  0  0  0  0  0  0  0  0  0
  190.1130  176.8190  138.2440 C   0  0  0  0  0  2  0  0  0  0  0  0
  187.3170  178.1100  140.5760 C   0  0  0  0  0  0  0  0  0  0  0  0
  188.0680  177.3160  136.8840 C   0  0  0  0  0  2  0  0  0  0  0  0
  187.2490  177.4310  138.1660 C   0  0  2  0  0  3  0  0  0  0  0  0
  183.7470  178.8370  141.4870 C   0  0  0  0  0  0  0  0  0  0  0  0
  186.0830  178.3900  137.9510 C   0  0  0  0  0  2  0  0  0  0  0  0
  183.2160  179.0600  140.3210 N   0  0  0  0  0  0  0  0  0  0  0  0
  182.9260  178.7600  142.6550 N   0  0  0  0  0  2  0  0  0  0  0  0
  187.9080  178.0500  141.8480 C   0  0  0  0  0  3  0  0  0  0  0  0
  187.1470  178.2550  143.0110 C   0  0  0  0  0  0  0  0  0  0  0  0
  188.1360  177.9210  139.3220 C   0  0  2  0  0  3  0  0  0  0  0  0
  184.0000  179.2220  139.0870 C   0  0  1  0  0  3  0  0  0  0  0  0
  183.4840  178.2530  143.9070 C   0  0  0  0  0  2  0  0  0  0  0  0
  189.2290  176.3470  137.0920 C   0  0  0  0  0  2  0  0  0  0  0  0
  189.2930  176.9370  139.5250 C   0  0  0  0  0  2  0  0  0  0  0  0
  189.9620  177.6150  145.6070 C   0  0  0  0  0  0  0  0  0  0  0  0
  187.9300  178.5230  148.4310 O   0  0  0  0  0  0  0  0  0  0  0  0
  191.0840  177.0460  145.6530 O   0  0  0  0  0  0  0  0  0  0  0  0
  187.1380  177.3060  146.5890 C   0  0  0  0  0  3  0  0  0  0  0  0
  187.8040  178.1780  144.3650 C   0  0  1  0  0  3  0  0  0  0  0  0
  189.4770  178.2250  146.7700 O   0  0  0  0  0  0  0  0  0  0  0  0
  186.9780  177.3190  145.2700 C   0  0  0  0  0  3  0  0  0  0  0  0
  189.2620  177.7040  144.2770 C   0  0  1  0  0  3  0  0  0  0  0  0
  190.0650  178.6270  143.3700 C   0  0  0  0  0  1  0  0  0  0  0  0
  188.1850  178.0620  147.2870 C   0  0  0  0  0  0  0  0  0  0  0  0
  184.1780  180.7030  138.7860 C   0  0  0  0  0  2  0  0  0  0  0  0
  182.9320  181.3260  138.7180 O   0  0  0  0  0  1  0  0  0  0  0  0
  1 15  1  0  0  0  0
  1  3  1  0  0  0  0
  2  7  2  0  0  0  0
  2  4  1  0  0  0  0
  4  1  2  0  0  0  0
  5  2  1  0  0  0  0
  6 20  1  0  0  0  0
  7 14  1  0  0  0  0
  8 19  1  0  0  0  0
  9  8  1  6  0  0  0
  9 16  1  0  0  0  0
 10  4  1  0  0  0  0
 10 13  1  0  0  0  0
 11  9  1  0  0  0  0
 11  5  1  0  0  0  0
 12 10  2  0  0  0  0
 13 18  1  0  0  0  0
 14 15  2  0  0  0  0
 16 20  1  1  0  0  0
 16  7  1  0  0  0  0
 17 31  1  1  0  0  0
 17  5  1  0  0  0  0
 17 12  1  0  0  0  0
 18  3  1  0  0  0  0
 19  6  1  0  0  0  0
 21 23  2  0  0  0  0
 21 26  1  0  0  0  0
 24 30  1  0  0  0  0
 25 15  1  6  0  0  0
 25 27  1  0  0  0  0
 26 30  1  0  0  0  0
 27 24  2  0  0  0  0
 28 29  1  6  0  0  0
 28 25  1  0  0  0  0
 28 21  1  0  0  0  0
 30 22  2  0  0  0  0
 32 31  1  0  0  0  0
M  END
>  <MODEL>
9

>  <REMARK>
 VINA RESULT:      -6.5      4.125      7.560
  Name = 
  2 active torsions:
  status: ('A' for Active; 'I' for Inactive)
    1  A    between atoms: C_13  and  C_29
    2  A    between atoms: C_16  and  C_27
                            x       y       z     vdW  Elec       q    Type
                         _______ _______ _______ _____ _____    ______ ____

>  <TORSDO>
F 2

$$$$
