=
 OpenBabel11052413083D

 31 34  0  0  1  0  0  0  0  0999 V2000
  188.3240  177.5990  146.9760 C   0  0  0  0  0  0  0  0  0  0  0  0
  186.8920  178.1840  143.4260 C   0  0  0  0  0  0  0  0  0  0  0  0
  185.4330  178.4100  143.6790 C   0  0  0  0  0  0  0  0  0  0  0  0
  183.5480  178.7530  145.1830 C   0  0  0  0  0  3  0  0  0  0  0  0
  187.8280  177.7990  144.5310 C   0  0  0  0  0  0  0  0  0  0  0  0
  189.4030  176.8550  146.7010 C   0  0  0  0  0  3  0  0  0  0  0  0
  184.9160  178.5610  144.9760 C   0  0  0  0  0  3  0  0  0  0  0  0
  188.7940  177.9100  141.8440 C   0  0  2  0  0  3  0  0  0  0  0  0
  187.7740  177.6240  148.3600 C   0  0  0  0  0  1  0  0  0  0  0  0
  185.0390  178.1920  141.2000 C   0  0  0  0  0  2  0  0  0  0  0  0
  182.6750  178.7890  144.0950 C   0  0  0  0  0  0  0  0  0  0  0  0
  189.1790  176.3260  142.6500 S   0  0  0  0  0  0  0  0  0  0  0  0
  187.3530  178.2620  142.1510 C   0  0  0  0  0  0  0  0  0  0  0  0
  187.6810  178.4320  145.8980 C   0  0  0  0  0  2  0  0  0  0  0  0
  181.2190  178.9890  144.3150 C   0  0  0  0  0  1  0  0  0  0  0  0
  188.9170  177.0400  144.2740 C   0  0  0  0  0  0  0  0  0  0  0  0
  189.9890  176.8590  145.3160 C   0  0  0  0  0  2  0  0  0  0  0  0
  186.4460  178.7590  141.0500 C   0  0  0  0  0  2  0  0  0  0  0  0
  184.5370  178.4430  142.5870 C   0  0  0  0  0  0  0  0  0  0  0  0
  183.1670  178.6260  142.7990 C   0  0  0  0  0  3  0  0  0  0  0  0
  189.0800  177.8120  140.3510 C   0  0  0  0  0  2  0  0  0  0  0  0
  191.6410  175.5690  138.6320 N   0  0  0  0  0  2  0  0  0  0  0  0
  191.9130  175.7820  136.3120 O   0  0  0  0  0  0  0  0  0  0  0  0
  190.2680  177.2890  137.8310 O   0  0  0  0  0  0  0  0  0  0  0  0
  190.1000  176.8060  140.1050 N   0  0  0  0  0  2  0  0  0  0  0  0
  192.2410  175.2070  137.3840 C   0  0  0  0  0  0  0  0  0  0  0  0
  190.6510  176.5870  138.8060 C   0  0  0  0  0  0  0  0  0  0  0  0
  193.2880  174.1460  137.3570 C   0  0  0  0  0  2  0  0  0  0  0  0
  194.5550  174.6250  138.0440 C   0  0  2  0  0  3  0  0  0  0  0  0
  195.3610  175.3100  137.1330 O   0  0  0  0  0  1  0  0  0  0  0  0
  195.3130  173.4310  138.5810 C   0  0  0  0  0  1  0  0  0  0  0  0
  1  9  1  0  0  0  0
  2  3  1  0  0  0  0
  2  5  1  0  0  0  0
  3  7  1  0  0  0  0
  5 14  1  0  0  0  0
  6  1  2  0  0  0  0
  7  4  2  0  0  0  0
  8 21  1  6  0  0  0
  8 13  1  0  0  0  0
  8 12  1  0  0  0  0
 10 19  1  0  0  0  0
 11 15  1  0  0  0  0
 11  4  1  0  0  0  0
 12 16  1  0  0  0  0
 13  2  2  0  0  0  0
 14  1  1  0  0  0  0
 16  5  2  0  0  0  0
 16 17  1  0  0  0  0
 17  6  1  0  0  0  0
 18 10  1  0  0  0  0
 18 13  1  0  0  0  0
 19 20  1  0  0  0  0
 19  3  2  0  0  0  0
 20 11  2  0  0  0  0
 22 27  1  0  0  0  0
 23 26  2  0  0  0  0
 24 27  2  0  0  0  0
 25 21  1  0  0  0  0
 26 22  1  0  0  0  0
 27 25  1  0  0  0  0
 28 26  1  0  0  0  0
 28 29  1  0  0  0  0
 29 31  1  6  0  0  0
 30 29  1  0  0  0  0
M  END
>  <MODEL>
1

>  <REMARK>
 VINA RESULT:     -10.2      0.000      0.000
  Name = 
  4 active torsions:
  status: ('A' for Active; 'I' for Inactive)
    1  A    between atoms: C_1  and  C_24
    2  A    between atoms: N_9  and  C_23
    3  A    between atoms: C_15  and  C_23
    4  A    between atoms: C_19  and  C_24
                            x       y       z     vdW  Elec       q    Type
                         _______ _______ _______ _____ _____    ______ ____

>  <TORSDO>
F 4

$$$$
=
 OpenBabel11052413083D

 31 34  0  0  1  0  0  0  0  0999 V2000
  184.3240  178.6030  142.6490 C   0  0  0  0  0  0  0  0  0  0  0  0
  187.9680  177.5560  143.4370 C   0  0  0  0  0  0  0  0  0  0  0  0
  188.0290  177.6260  144.9320 C   0  0  0  0  0  0  0  0  0  0  0  0
  186.9690  177.9040  147.1070 C   0  0  0  0  0  3  0  0  0  0  0  0
  186.7520  177.9980  142.6810 C   0  0  0  0  0  0  0  0  0  0  0  0
  184.4570  179.0910  141.4090 C   0  0  0  0  0  3  0  0  0  0  0  0
  186.8810  177.8260  145.7150 C   0  0  0  0  0  3  0  0  0  0  0  0
  189.0880  177.1930  141.2430 C   0  0  2  0  0  3  0  0  0  0  0  0
  183.1210  178.9480  143.4570 C   0  0  0  0  0  1  0  0  0  0  0  0
  190.5340  177.4010  144.7730 C   0  0  0  0  0  2  0  0  0  0  0  0
  188.2100  177.7920  147.7360 C   0  0  0  0  0  0  0  0  0  0  0  0
  188.4800  178.8220  140.7120 S   0  0  0  0  0  0  0  0  0  0  0  0
  189.0710  177.1480  142.7570 C   0  0  0  0  0  0  0  0  0  0  0  0
  185.3730  177.6860  143.2210 C   0  0  0  0  0  2  0  0  0  0  0  0
  188.3050  177.8800  149.2160 C   0  0  0  0  0  1  0  0  0  0  0  0
  186.8670  178.5020  141.4310 C   0  0  0  0  0  0  0  0  0  0  0  0
  185.6480  178.7130  140.5730 C   0  0  0  0  0  2  0  0  0  0  0  0
  190.2590  176.5950  143.5100 C   0  0  0  0  0  2  0  0  0  0  0  0
  189.2790  177.5190  145.5800 C   0  0  0  0  0  0  0  0  0  0  0  0
  189.3650  177.6090  146.9730 C   0  0  0  0  0  3  0  0  0  0  0  0
  190.4690  176.9400  140.6520 C   0  0  0  0  0  2  0  0  0  0  0  0
  190.1130  175.4630  137.1540 N   0  0  0  0  0  2  0  0  0  0  0  0
  189.7900  176.9400  135.3610 O   0  0  0  0  0  0  0  0  0  0  0  0
  190.1810  177.6720  137.9290 O   0  0  0  0  0  0  0  0  0  0  0  0
  190.3720  176.0030  139.5450 N   0  0  0  0  0  2  0  0  0  0  0  0
  189.9070  175.7530  135.7680 C   0  0  0  0  0  0  0  0  0  0  0  0
  190.2180  176.4400  138.1950 C   0  0  0  0  0  0  0  0  0  0  0  0
  189.8510  174.6320  134.7880 C   0  0  0  0  0  2  0  0  0  0  0  0
  190.0380  173.2970  135.4880 C   0  0  2  0  0  3  0  0  0  0  0  0
  191.2340  172.7070  135.0750 O   0  0  0  0  0  1  0  0  0  0  0  0
  188.8840  172.3830  135.1370 C   0  0  0  0  0  1  0  0  0  0  0  0
  1 14  1  0  0  0  0
  1  9  1  0  0  0  0
  2  3  1  0  0  0  0
  3 19  2  0  0  0  0
  3  7  1  0  0  0  0
  4 11  1  0  0  0  0
  5 14  1  0  0  0  0
  5  2  1  0  0  0  0
  6  1  2  0  0  0  0
  7  4  2  0  0  0  0
  8 21  1  1  0  0  0
  8 13  1  0  0  0  0
 10 19  1  0  0  0  0
 11 15  1  0  0  0  0
 12  8  1  0  0  0  0
 12 16  1  0  0  0  0
 13  2  2  0  0  0  0
 13 18  1  0  0  0  0
 16  5  2  0  0  0  0
 17  6  1  0  0  0  0
 17 16  1  0  0  0  0
 18 10  1  0  0  0  0
 19 20  1  0  0  0  0
 20 11  2  0  0  0  0
 22 27  1  0  0  0  0
 23 26  2  0  0  0  0
 24 27  2  0  0  0  0
 25 21  1  0  0  0  0
 26 22  1  0  0  0  0
 27 25  1  0  0  0  0
 28 29  1  0  0  0  0
 28 26  1  0  0  0  0
 29 31  1  6  0  0  0
 30 29  1  0  0  0  0
M  END
>  <MODEL>
2

>  <REMARK>
 VINA RESULT:      -9.6      2.215      4.743
  Name = 
  4 active torsions:
  status: ('A' for Active; 'I' for Inactive)
    1  A    between atoms: C_1  and  C_24
    2  A    between atoms: N_9  and  C_23
    3  A    between atoms: C_15  and  C_23
    4  A    between atoms: C_19  and  C_24
                            x       y       z     vdW  Elec       q    Type
                         _______ _______ _______ _____ _____    ______ ____

>  <TORSDO>
F 4

$$$$
=
 OpenBabel11052413083D

 31 34  0  0  1  0  0  0  0  0999 V2000
  185.2970  178.2660  145.0690 C   0  0  0  0  0  0  0  0  0  0  0  0
  188.7460  177.2360  143.6410 C   0  0  0  0  0  0  0  0  0  0  0  0
  189.5840  177.0520  144.8700 C   0  0  0  0  0  0  0  0  0  0  0  0
  189.8360  176.9140  147.2880 C   0  0  0  0  0  3  0  0  0  0  0  0
  187.3430  177.7560  143.7210 C   0  0  0  0  0  0  0  0  0  0  0  0
  184.7900  178.9630  144.0440 C   0  0  0  0  0  3  0  0  0  0  0  0
  189.0290  177.0720  146.1590 C   0  0  0  0  0  3  0  0  0  0  0  0
  188.5300  177.2960  141.1620 C   0  0  2  0  0  3  0  0  0  0  0  0
  184.7160  178.4220  146.4310 C   0  0  0  0  0  1  0  0  0  0  0  0
  191.6180  176.9520  143.3860 C   0  0  0  0  0  2  0  0  0  0  0  0
  191.2140  176.7430  147.1430 C   0  0  0  0  0  0  0  0  0  0  0  0
  187.8310  178.9680  141.3060 S   0  0  0  0  0  0  0  0  0  0  0  0
  189.3050  176.9930  142.4270 C   0  0  0  0  0  0  0  0  0  0  0  0
  186.4340  177.3050  144.8440 C   0  0  0  0  0  2  0  0  0  0  0  0
  192.0740  176.5800  148.3440 C   0  0  0  0  0  1  0  0  0  0  0  0
  186.8170  178.4700  142.7000 C   0  0  0  0  0  0  0  0  0  0  0  0
  185.3440  178.7790  142.6580 C   0  0  0  0  0  2  0  0  0  0  0  0
  190.6760  176.3640  142.3420 C   0  0  0  0  0  2  0  0  0  0  0  0
  190.9800  176.8830  144.7380 C   0  0  0  0  0  0  0  0  0  0  0  0
  191.7860  176.7360  145.8700 C   0  0  0  0  0  3  0  0  0  0  0  0
  189.3820  177.2000  139.9020 C   0  0  0  0  0  2  0  0  0  0  0  0
  187.3400  176.7150  136.7170 N   0  0  0  0  0  2  0  0  0  0  0  0
  186.8310  178.6130  135.4350 O   0  0  0  0  0  0  0  0  0  0  0  0
  188.3390  178.6060  137.6730 O   0  0  0  0  0  0  0  0  0  0  0  0
  188.6110  176.5990  138.8260 N   0  0  0  0  0  2  0  0  0  0  0  0
  186.7330  177.3660  135.5960 C   0  0  0  0  0  0  0  0  0  0  0  0
  188.1060  177.3690  137.7350 C   0  0  0  0  0  0  0  0  0  0  0  0
  185.9900  176.5520  134.5940 C   0  0  0  0  0  2  0  0  0  0  0  0
  184.8960  175.7400  135.2650 C   0  0  2  0  0  3  0  0  0  0  0  0
  184.9370  174.4200  134.8130 O   0  0  0  0  0  1  0  0  0  0  0  0
  183.5500  176.3420  134.9270 C   0  0  0  0  0  1  0  0  0  0  0  0
  1  9  1  0  0  0  0
  2  5  1  0  0  0  0
  2  3  1  0  0  0  0
  3  7  1  0  0  0  0
  5 14  1  0  0  0  0
  6  1  2  0  0  0  0
  7  4  2  0  0  0  0
  8 21  1  6  0  0  0
  8 12  1  0  0  0  0
  8 13  1  0  0  0  0
 10 19  1  0  0  0  0
 11  4  1  0  0  0  0
 11 15  1  0  0  0  0
 12 16  1  0  0  0  0
 13  2  2  0  0  0  0
 14  1  1  0  0  0  0
 16  5  2  0  0  0  0
 17 16  1  0  0  0  0
 17  6  1  0  0  0  0
 18 13  1  0  0  0  0
 18 10  1  0  0  0  0
 19  3  2  0  0  0  0
 19 20  1  0  0  0  0
 20 11  2  0  0  0  0
 22 27  1  0  0  0  0
 23 26  2  0  0  0  0
 24 27  2  0  0  0  0
 25 21  1  0  0  0  0
 26 22  1  0  0  0  0
 27 25  1  0  0  0  0
 28 29  1  0  0  0  0
 28 26  1  0  0  0  0
 29 31  1  6  0  0  0
 30 29  1  0  0  0  0
M  END
>  <MODEL>
3

>  <REMARK>
 VINA RESULT:      -9.4      3.148      6.251
  Name = 
  4 active torsions:
  status: ('A' for Active; 'I' for Inactive)
    1  A    between atoms: C_1  and  C_24
    2  A    between atoms: N_9  and  C_23
    3  A    between atoms: C_15  and  C_23
    4  A    between atoms: C_19  and  C_24
                            x       y       z     vdW  Elec       q    Type
                         _______ _______ _______ _____ _____    ______ ____

>  <TORSDO>
F 4

$$$$
=
 OpenBabel11052413083D

 31 34  0  0  1  0  0  0  0  0999 V2000
  189.2900  177.2290  147.0550 C   0  0  0  0  0  0  0  0  0  0  0  0
  188.3020  177.9810  143.3870 C   0  0  0  0  0  0  0  0  0  0  0  0
  186.8270  178.2240  143.4730 C   0  0  0  0  0  0  0  0  0  0  0  0
  184.7800  178.5430  144.7540 C   0  0  0  0  0  3  0  0  0  0  0  0
  189.0930  177.5350  144.5790 C   0  0  0  0  0  0  0  0  0  0  0  0
  190.3840  176.4760  146.8800 C   0  0  0  0  0  3  0  0  0  0  0  0
  186.1610  178.3330  144.7040 C   0  0  0  0  0  3  0  0  0  0  0  0
  190.3760  177.7330  142.0330 C   0  0  2  0  0  3  0  0  0  0  0  0
  188.5780  177.2090  148.3630 C   0  0  0  0  0  1  0  0  0  0  0  0
  186.7300  178.1110  140.9570 C   0  0  0  0  0  2  0  0  0  0  0  0
  184.0450  178.6380  143.5720 C   0  0  0  0  0  0  0  0  0  0  0  0
  190.6410  176.1120  142.8120 S   0  0  0  0  0  0  0  0  0  0  0  0
  188.9150  178.1010  142.1800 C   0  0  0  0  0  0  0  0  0  0  0  0
  188.7930  178.1160  145.9440 C   0  0  0  0  0  2  0  0  0  0  0  0
  182.5760  178.8560  143.6260 C   0  0  0  0  0  1  0  0  0  0  0  0
  190.1960  176.7670  144.4230 C   0  0  0  0  0  0  0  0  0  0  0  0
  191.1320  176.5240  145.5760 C   0  0  0  0  0  2  0  0  0  0  0  0
  188.1520  178.6570  141.0010 C   0  0  0  0  0  2  0  0  0  0  0  0
  186.0690  178.3170  142.2840 C   0  0  0  0  0  0  0  0  0  0  0  0
  184.6870  178.5170  142.3390 C   0  0  0  0  0  3  0  0  0  0  0  0
  190.8390  177.6900  140.5820 C   0  0  0  0  0  2  0  0  0  0  0  0
  190.2650  174.8830  138.0640 N   0  0  0  0  0  2  0  0  0  0  0  0
  190.7780  175.2990  135.8130 O   0  0  0  0  0  0  0  0  0  0  0  0
  191.1690  177.0320  137.8440 O   0  0  0  0  0  0  0  0  0  0  0  0
  190.4750  176.4160  139.9830 N   0  0  0  0  0  2  0  0  0  0  0  0
  190.3450  174.5010  136.6870 C   0  0  0  0  0  0  0  0  0  0  0  0
  190.6600  176.1540  138.5920 C   0  0  0  0  0  0  0  0  0  0  0  0
  189.9280  173.1280  136.2850 C   0  0  0  0  0  2  0  0  0  0  0  0
  188.4460  173.0920  135.9560 C   0  0  2  0  0  3  0  0  0  0  0  0
  187.9030  174.3730  136.0670 O   0  0  0  0  0  1  0  0  0  0  0  0
  187.7430  172.1660  136.9250 C   0  0  0  0  0  1  0  0  0  0  0  0
  1  9  1  0  0  0  0
  2  3  1  0  0  0  0
  2  5  1  0  0  0  0
  3  7  1  0  0  0  0
  5 14  1  0  0  0  0
  6  1  2  0  0  0  0
  7  4  2  0  0  0  0
  8 21  1  6  0  0  0
  8 13  1  0  0  0  0
  8 12  1  0  0  0  0
 10 18  1  0  0  0  0
 10 19  1  0  0  0  0
 11 15  1  0  0  0  0
 11  4  1  0  0  0  0
 12 16  1  0  0  0  0
 13  2  2  0  0  0  0
 14  1  1  0  0  0  0
 16  5  2  0  0  0  0
 16 17  1  0  0  0  0
 17  6  1  0  0  0  0
 18 13  1  0  0  0  0
 19 20  1  0  0  0  0
 19  3  2  0  0  0  0
 20 11  2  0  0  0  0
 22 27  1  0  0  0  0
 23 26  2  0  0  0  0
 24 27  2  0  0  0  0
 25 21  1  0  0  0  0
 26 22  1  0  0  0  0
 27 25  1  0  0  0  0
 28 26  1  0  0  0  0
 29 30  1  0  0  0  0
 29 28  1  0  0  0  0
 29 31  1  1  0  0  0
M  END
>  <MODEL>
4

>  <REMARK>
 VINA RESULT:      -9.2      1.902      2.722
  Name = 
  4 active torsions:
  status: ('A' for Active; 'I' for Inactive)
    1  A    between atoms: C_1  and  C_24
    2  A    between atoms: N_9  and  C_23
    3  A    between atoms: C_15  and  C_23
    4  A    between atoms: C_19  and  C_24
                            x       y       z     vdW  Elec       q    Type
                         _______ _______ _______ _____ _____    ______ ____

>  <TORSDO>
F 4

$$$$
=
 OpenBabel11052413083D

 31 34  0  0  1  0  0  0  0  0999 V2000
  188.0120  177.6380  146.5250 C   0  0  0  0  0  0  0  0  0  0  0  0
  186.5230  178.4070  143.0340 C   0  0  0  0  0  0  0  0  0  0  0  0
  185.0540  178.5180  143.3050 C   0  0  0  0  0  0  0  0  0  0  0  0
  183.1610  178.6230  144.8340 C   0  0  0  0  0  3  0  0  0  0  0  0
  187.4880  177.9970  144.1040 C   0  0  0  0  0  0  0  0  0  0  0  0
  189.1340  176.9880  146.1910 C   0  0  0  0  0  3  0  0  0  0  0  0
  184.5370  178.5340  144.6100 C   0  0  0  0  0  3  0  0  0  0  0  0
  188.4290  178.3780  141.4320 C   0  0  2  0  0  3  0  0  0  0  0  0
  187.4700  177.5190  147.9070 C   0  0  0  0  0  1  0  0  0  0  0  0
  184.6590  178.4700  140.8170 C   0  0  0  0  0  2  0  0  0  0  0  0
  182.2810  178.6880  143.7530 C   0  0  0  0  0  0  0  0  0  0  0  0
  188.9190  176.7640  142.1110 S   0  0  0  0  0  0  0  0  0  0  0  0
  186.9710  178.6130  141.7680 C   0  0  0  0  0  0  0  0  0  0  0  0
  187.3110  178.5100  145.5170 C   0  0  0  0  0  2  0  0  0  0  0  0
  180.8160  178.7770  143.9910 C   0  0  0  0  0  1  0  0  0  0  0  0
  188.6220  177.3310  143.7870 C   0  0  0  0  0  0  0  0  0  0  0  0
  189.7100  177.1370  144.8100 C   0  0  0  0  0  2  0  0  0  0  0  0
  186.0260  179.1350  140.7110 C   0  0  0  0  0  2  0  0  0  0  0  0
  184.1510  178.5800  142.2200 C   0  0  0  0  0  0  0  0  0  0  0  0
  182.7740  178.6580  142.4480 C   0  0  0  0  0  3  0  0  0  0  0  0
  188.7110  178.4160  139.9350 C   0  0  0  0  0  2  0  0  0  0  0  0
  187.3810  175.7340  137.5720 N   0  0  0  0  0  2  0  0  0  0  0  0
  186.1780  176.4290  135.6820 O   0  0  0  0  0  0  0  0  0  0  0  0
  187.3350  178.0740  137.4810 O   0  0  0  0  0  0  0  0  0  0  0  0
  188.3870  177.1320  139.3360 N   0  0  0  0  0  2  0  0  0  0  0  0
  186.6400  175.4820  136.3740 C   0  0  0  0  0  0  0  0  0  0  0  0
  187.6820  177.0310  138.0990 C   0  0  0  0  0  0  0  0  0  0  0  0
  186.4310  174.0760  135.9270 C   0  0  0  0  0  2  0  0  0  0  0  0
  186.3380  173.1420  137.1210 C   0  0  2  0  0  3  0  0  0  0  0  0
  187.3030  172.1380  137.0150 O   0  0  0  0  0  1  0  0  0  0  0  0
  184.9630  172.5110  137.1550 C   0  0  0  0  0  1  0  0  0  0  0  0
  1  9  1  0  0  0  0
  2  3  1  0  0  0  0
  2  5  1  0  0  0  0
  3  7  1  0  0  0  0
  5 14  1  0  0  0  0
  6  1  2  0  0  0  0
  7  4  2  0  0  0  0
  8 21  1  6  0  0  0
  8 13  1  0  0  0  0
  8 12  1  0  0  0  0
 10 19  1  0  0  0  0
 11 15  1  0  0  0  0
 11  4  1  0  0  0  0
 12 16  1  0  0  0  0
 13  2  2  0  0  0  0
 14  1  1  0  0  0  0
 16  5  2  0  0  0  0
 16 17  1  0  0  0  0
 17  6  1  0  0  0  0
 18 10  1  0  0  0  0
 18 13  1  0  0  0  0
 19 20  1  0  0  0  0
 19  3  2  0  0  0  0
 20 11  2  0  0  0  0
 22 27  1  0  0  0  0
 23 26  2  0  0  0  0
 24 27  2  0  0  0  0
 25 21  1  0  0  0  0
 26 22  1  0  0  0  0
 27 25  1  0  0  0  0
 28 26  1  0  0  0  0
 28 29  1  0  0  0  0
 29 31  1  6  0  0  0
 30 29  1  0  0  0  0
M  END
>  <MODEL>
5

>  <REMARK>
 VINA RESULT:      -9.1      3.261      3.682
  Name = 
  4 active torsions:
  status: ('A' for Active; 'I' for Inactive)
    1  A    between atoms: C_1  and  C_24
    2  A    between atoms: N_9  and  C_23
    3  A    between atoms: C_15  and  C_23
    4  A    between atoms: C_19  and  C_24
                            x       y       z     vdW  Elec       q    Type
                         _______ _______ _______ _____ _____    ______ ____

>  <TORSDO>
F 4

$$$$
=
 OpenBabel11052413083D

 31 34  0  0  1  0  0  0  0  0999 V2000
  185.2880  178.2150  144.8590 C   0  0  0  0  0  0  0  0  0  0  0  0
  188.7990  177.1930  143.5840 C   0  0  0  0  0  0  0  0  0  0  0  0
  189.5880  177.0320  144.8460 C   0  0  0  0  0  0  0  0  0  0  0  0
  189.7450  176.9280  147.2750 C   0  0  0  0  0  3  0  0  0  0  0  0
  187.3900  177.7030  143.6000 C   0  0  0  0  0  0  0  0  0  0  0  0
  184.8170  178.8950  143.8060 C   0  0  0  0  0  3  0  0  0  0  0  0
  188.9820  177.0640  146.1120 C   0  0  0  0  0  3  0  0  0  0  0  0
  188.6810  177.2190  141.0970 C   0  0  2  0  0  3  0  0  0  0  0  0
  184.6530  178.3840  146.1950 C   0  0  0  0  0  1  0  0  0  0  0  0
  191.6800  176.9280  143.4460 C   0  0  0  0  0  2  0  0  0  0  0  0
  191.1290  176.7650  147.1870 C   0  0  0  0  0  0  0  0  0  0  0  0
  187.9650  178.8870  141.1910 S   0  0  0  0  0  0  0  0  0  0  0  0
  189.4080  176.9390  142.3960 C   0  0  0  0  0  0  0  0  0  0  0  0
  186.4410  177.2600  144.6920 C   0  0  0  0  0  2  0  0  0  0  0  0
  191.9410  176.6250  148.4230 C   0  0  0  0  0  1  0  0  0  0  0  0
  186.9000  178.4000  142.5500 C   0  0  0  0  0  0  0  0  0  0  0  0
  185.4270  178.6970  142.4450 C   0  0  0  0  0  2  0  0  0  0  0  0
  190.7850  176.3190  142.3730 C   0  0  0  0  0  2  0  0  0  0  0  0
  190.9900  176.8720  144.7720 C   0  0  0  0  0  0  0  0  0  0  0  0
  191.7510  176.7470  145.9380 C   0  0  0  0  0  3  0  0  0  0  0  0
  189.5830  177.1130  139.8730 C   0  0  0  0  0  2  0  0  0  0  0  0
  188.4610  175.2610  136.7330 N   0  0  0  0  0  2  0  0  0  0  0  0
  189.9090  173.6550  135.8250 O   0  0  0  0  0  0  0  0  0  0  0  0
  190.3610  175.0540  138.0870 O   0  0  0  0  0  0  0  0  0  0  0  0
  188.8090  176.6730  138.7230 N   0  0  0  0  0  2  0  0  0  0  0  0
  188.8140  174.2760  135.7570 C   0  0  0  0  0  0  0  0  0  0  0  0
  189.2650  175.6340  137.8580 C   0  0  0  0  0  0  0  0  0  0  0  0
  187.8600  173.9650  134.6550 C   0  0  0  0  0  2  0  0  0  0  0  0
  186.5820  173.3590  135.2070 C   0  0  2  0  0  3  0  0  0  0  0  0
  185.7450  174.3700  135.6860 O   0  0  0  0  0  1  0  0  0  0  0  0
  186.9250  172.4170  136.3400 C   0  0  0  0  0  1  0  0  0  0  0  0
  1  9  1  0  0  0  0
  2  5  1  0  0  0  0
  2  3  1  0  0  0  0
  3  7  1  0  0  0  0
  5 14  1  0  0  0  0
  6  1  2  0  0  0  0
  7  4  2  0  0  0  0
  8 21  1  6  0  0  0
  8 12  1  0  0  0  0
  8 13  1  0  0  0  0
 10 19  1  0  0  0  0
 11  4  1  0  0  0  0
 11 15  1  0  0  0  0
 12 16  1  0  0  0  0
 13  2  2  0  0  0  0
 14  1  1  0  0  0  0
 16  5  2  0  0  0  0
 17 16  1  0  0  0  0
 17  6  1  0  0  0  0
 18 13  1  0  0  0  0
 18 10  1  0  0  0  0
 19  3  2  0  0  0  0
 19 20  1  0  0  0  0
 20 11  2  0  0  0  0
 22 27  1  0  0  0  0
 25 21  1  0  0  0  0
 26 23  2  0  0  0  0
 26 22  1  0  0  0  0
 27 24  2  0  0  0  0
 27 25  1  0  0  0  0
 28 29  1  0  0  0  0
 28 26  1  0  0  0  0
 29 30  1  0  0  0  0
 29 31  1  1  0  0  0
M  END
>  <MODEL>
6

>  <REMARK>
 VINA RESULT:      -8.9      2.794      5.642
  Name = 
  4 active torsions:
  status: ('A' for Active; 'I' for Inactive)
    1  A    between atoms: C_1  and  C_24
    2  A    between atoms: N_9  and  C_23
    3  A    between atoms: C_15  and  C_23
    4  A    between atoms: C_19  and  C_24
                            x       y       z     vdW  Elec       q    Type
                         _______ _______ _______ _____ _____    ______ ____

>  <TORSDO>
F 4

$$$$
=
 OpenBabel11052413083D

 31 34  0  0  1  0  0  0  0  0999 V2000
  189.8020  177.8580  141.1730 C   0  0  0  0  0  0  0  0  0  0  0  0
  188.3290  177.8810  144.7540 C   0  0  0  0  0  0  0  0  0  0  0  0
  189.4400  177.3160  145.5850 C   0  0  0  0  0  0  0  0  0  0  0  0
  191.7350  176.5480  145.8530 C   0  0  0  0  0  3  0  0  0  0  0  0
  188.4240  177.9490  143.2600 C   0  0  0  0  0  0  0  0  0  0  0  0
  188.6880  177.7870  140.4350 C   0  0  0  0  0  3  0  0  0  0  0  0
  190.7220  177.0920  145.0600 C   0  0  0  0  0  3  0  0  0  0  0  0
  185.9950  178.7230  144.5510 C   0  0  2  0  0  3  0  0  0  0  0  0
  191.1160  177.5030  140.5690 C   0  0  0  0  0  1  0  0  0  0  0  0
  187.8110  177.1020  147.4960 C   0  0  0  0  0  2  0  0  0  0  0  0
  191.4770  176.2110  147.1830 C   0  0  0  0  0  0  0  0  0  0  0  0
  185.7150  177.5030  143.2320 S   0  0  0  0  0  0  0  0  0  0  0  0
  187.1840  178.2720  145.3730 C   0  0  0  0  0  0  0  0  0  0  0  0
  189.7360  178.3220  142.6040 C   0  0  0  0  0  2  0  0  0  0  0  0
  192.5530  175.6280  148.0250 C   0  0  0  0  0  1  0  0  0  0  0  0
  187.3100  177.8690  142.4970 C   0  0  0  0  0  0  0  0  0  0  0  0
  187.3630  178.1850  141.0260 C   0  0  0  0  0  2  0  0  0  0  0  0
  187.1210  178.3140  146.8820 C   0  0  0  0  0  2  0  0  0  0  0  0
  189.1900  176.9660  146.9310 C   0  0  0  0  0  0  0  0  0  0  0  0
  190.2030  176.4120  147.7180 C   0  0  0  0  0  3  0  0  0  0  0  0
  184.7260  178.8890  145.3780 C   0  0  0  0  0  2  0  0  0  0  0  0
  181.5420  178.5390  143.3080 N   0  0  0  0  0  2  0  0  0  0  0  0
  180.4760  180.5000  142.5850 O   0  0  0  0  0  0  0  0  0  0  0  0
  182.7910  180.4070  143.9680 O   0  0  0  0  0  0  0  0  0  0  0  0
  183.5900  178.3300  144.6630 N   0  0  0  0  0  2  0  0  0  0  0  0
  180.4960  179.2410  142.6280 C   0  0  0  0  0  0  0  0  0  0  0  0
  182.6460  179.1550  143.9800 C   0  0  0  0  0  0  0  0  0  0  0  0
  179.4230  178.4660  141.9420 C   0  0  0  0  0  2  0  0  0  0  0  0
  180.0190  177.5250  140.9090 C   0  0  2  0  0  3  0  0  0  0  0  0
  180.0890  178.1620  139.6690 O   0  0  0  0  0  1  0  0  0  0  0  0
  179.1430  176.2960  140.7900 C   0  0  0  0  0  1  0  0  0  0  0  0
  1 14  1  0  0  0  0
  2 13  2  0  0  0  0
  2  3  1  0  0  0  0
  3 19  1  0  0  0  0
  4 11  2  0  0  0  0
  5  2  1  0  0  0  0
  6 17  1  0  0  0  0
  6  1  2  0  0  0  0
  7  3  2  0  0  0  0
  7  4  1  0  0  0  0
  8 13  1  0  0  0  0
  8 21  1  1  0  0  0
  9  1  1  0  0  0  0
 11 20  1  0  0  0  0
 11 15  1  0  0  0  0
 12  8  1  0  0  0  0
 13 18  1  0  0  0  0
 14  5  1  0  0  0  0
 16 12  1  0  0  0  0
 16  5  2  0  0  0  0
 17 16  1  0  0  0  0
 18 10  1  0  0  0  0
 19 10  1  0  0  0  0
 19 20  2  0  0  0  0
 22 27  1  0  0  0  0
 23 26  2  0  0  0  0
 24 27  2  0  0  0  0
 25 21  1  0  0  0  0
 26 22  1  0  0  0  0
 27 25  1  0  0  0  0
 28 26  1  0  0  0  0
 29 31  1  6  0  0  0
 29 28  1  0  0  0  0
 30 29  1  0  0  0  0
M  END
>  <MODEL>
7

>  <REMARK>
 VINA RESULT:      -8.8      5.137      9.201
  Name = 
  4 active torsions:
  status: ('A' for Active; 'I' for Inactive)
    1  A    between atoms: C_1  and  C_24
    2  A    between atoms: N_9  and  C_23
    3  A    between atoms: C_15  and  C_23
    4  A    between atoms: C_19  and  C_24
                            x       y       z     vdW  Elec       q    Type
                         _______ _______ _______ _____ _____    ______ ____

>  <TORSDO>
F 4

$$$$
=
 OpenBabel11052413083D

 31 34  0  0  1  0  0  0  0  0999 V2000
  189.6880  177.8070  139.0930 C   0  0  0  0  0  0  0  0  0  0  0  0
  186.5840  178.4870  141.3060 C   0  0  0  0  0  0  0  0  0  0  0  0
  187.0660  178.1500  142.6840 C   0  0  0  0  0  0  0  0  0  0  0  0
  188.8360  177.5540  144.2470 C   0  0  0  0  0  3  0  0  0  0  0  0
  187.4410  178.2560  140.0990 C   0  0  0  0  0  0  0  0  0  0  0  0
  189.1120  177.5400  137.9140 C   0  0  0  0  0  3  0  0  0  0  0  0
  188.4170  177.8820  142.9550 C   0  0  0  0  0  3  0  0  0  0  0  0
  184.7520  179.1660  139.7640 C   0  0  2  0  0  3  0  0  0  0  0  0
  191.0980  177.3960  139.3400 C   0  0  0  0  0  1  0  0  0  0  0  0
  184.6750  178.2540  143.4730 C   0  0  0  0  0  2  0  0  0  0  0  0
  187.9070  177.4810  145.2850 C   0  0  0  0  0  0  0  0  0  0  0  0
  185.1110  177.6940  138.7580 S   0  0  0  0  0  0  0  0  0  0  0  0
  185.3140  178.9430  141.1520 C   0  0  0  0  0  0  0  0  0  0  0  0
  188.9250  178.5470  140.1600 C   0  0  0  0  0  2  0  0  0  0  0  0
  188.3510  177.1270  146.6590 C   0  0  0  0  0  1  0  0  0  0  0  0
  186.8780  177.9750  138.9010 C   0  0  0  0  0  0  0  0  0  0  0  0
  187.7030  177.9900  137.6420 C   0  0  0  0  0  2  0  0  0  0  0  0
  184.4840  179.2850  142.3670 C   0  0  0  0  0  2  0  0  0  0  0  0
  186.1350  178.0680  143.7430 C   0  0  0  0  0  0  0  0  0  0  0  0
  186.5560  177.7290  145.0320 C   0  0  0  0  0  3  0  0  0  0  0  0
  183.2530  179.4390  139.7620 C   0  0  0  0  0  2  0  0  0  0  0  0
  181.4040  181.9950  137.6190 N   0  0  0  0  0  2  0  0  0  0  0  0
  179.2050  182.5520  138.2180 O   0  0  0  0  0  0  0  0  0  0  0  0
  180.8110  180.8670  139.5840 O   0  0  0  0  0  0  0  0  0  0  0  0
  182.9240  180.3970  138.7190 N   0  0  0  0  0  2  0  0  0  0  0  0
  180.1760  182.7060  137.4300 C   0  0  0  0  0  0  0  0  0  0  0  0
  181.6690  181.0760  138.6840 C   0  0  0  0  0  0  0  0  0  0  0  0
  180.0530  183.6600  136.2910 C   0  0  0  0  0  2  0  0  0  0  0  0
  180.6670  185.0030  136.6480 C   0  0  2  0  0  3  0  0  0  0  0  0
  181.9270  184.8130  137.2190 O   0  0  0  0  0  1  0  0  0  0  0  0
  179.7720  185.7120  137.6410 C   0  0  0  0  0  1  0  0  0  0  0  0
  1  9  1  0  0  0  0
  1 14  1  0  0  0  0
  2  3  1  0  0  0  0
  3  7  2  0  0  0  0
  3 19  1  0  0  0  0
  4 11  2  0  0  0  0
  5 14  1  0  0  0  0
  5  2  1  0  0  0  0
  6  1  2  0  0  0  0
  7  4  1  0  0  0  0
  8 21  1  1  0  0  0
  8 13  1  0  0  0  0
 10 19  1  0  0  0  0
 11 15  1  0  0  0  0
 12 16  1  0  0  0  0
 12  8  1  0  0  0  0
 13  2  2  0  0  0  0
 13 18  1  0  0  0  0
 16  5  2  0  0  0  0
 17  6  1  0  0  0  0
 17 16  1  0  0  0  0
 18 10  1  0  0  0  0
 19 20  2  0  0  0  0
 20 11  1  0  0  0  0
 22 27  1  0  0  0  0
 25 21  1  0  0  0  0
 26 22  1  0  0  0  0
 26 23  2  0  0  0  0
 27 25  1  0  0  0  0
 27 24  2  0  0  0  0
 28 29  1  0  0  0  0
 28 26  1  0  0  0  0
 29 30  1  0  0  0  0
 29 31  1  1  0  0  0
M  END
>  <MODEL>
8

>  <REMARK>
 VINA RESULT:      -8.3      5.574      9.385
  Name = 
  4 active torsions:
  status: ('A' for Active; 'I' for Inactive)
    1  A    between atoms: C_1  and  C_24
    2  A    between atoms: N_9  and  C_23
    3  A    between atoms: C_15  and  C_23
    4  A    between atoms: C_19  and  C_24
                            x       y       z     vdW  Elec       q    Type
                         _______ _______ _______ _____ _____    ______ ____

>  <TORSDO>
F 4

$$$$
=
 OpenBabel11052413083D

 31 34  0  0  1  0  0  0  0  0999 V2000
  185.1790  178.1980  145.0730 C   0  0  0  0  0  0  0  0  0  0  0  0
  188.6350  177.4580  143.4910 C   0  0  0  0  0  0  0  0  0  0  0  0
  189.5070  177.1990  144.6800 C   0  0  0  0  0  0  0  0  0  0  0  0
  189.8220  176.8510  147.0700 C   0  0  0  0  0  3  0  0  0  0  0  0
  187.2130  177.9050  143.6450 C   0  0  0  0  0  0  0  0  0  0  0  0
  184.6190  178.9630  144.1280 C   0  0  0  0  0  3  0  0  0  0  0  0
  188.9820  177.0760  145.9760 C   0  0  0  0  0  3  0  0  0  0  0  0
  188.3590  177.7360  141.0320 C   0  0  2  0  0  3  0  0  0  0  0  0
  184.6240  178.2020  146.4550 C   0  0  0  0  0  1  0  0  0  0  0  0
  191.5090  177.3260  143.1550 C   0  0  0  0  0  2  0  0  0  0  0  0
  191.2010  176.7550  146.8840 C   0  0  0  0  0  0  0  0  0  0  0  0
  187.5930  179.3550  141.3440 S   0  0  0  0  0  0  0  0  0  0  0  0
  189.1750  177.3520  142.2490 C   0  0  0  0  0  0  0  0  0  0  0  0
  186.3500  177.3130  144.7390 C   0  0  0  0  0  2  0  0  0  0  0  0
  192.0950  176.5210  148.0480 C   0  0  0  0  0  1  0  0  0  0  0  0
  186.6330  178.6860  142.7050 C   0  0  0  0  0  0  0  0  0  0  0  0
  185.1480  178.9320  142.7200 C   0  0  0  0  0  2  0  0  0  0  0  0
  190.5690  176.7950  142.0790 C   0  0  0  0  0  2  0  0  0  0  0  0
  190.9060  177.1050  144.5060 C   0  0  0  0  0  0  0  0  0  0  0  0
  191.7440  176.8910  145.6050 C   0  0  0  0  0  3  0  0  0  0  0  0
  189.1840  177.7930  139.7530 C   0  0  0  0  0  2  0  0  0  0  0  0
  190.7000  174.8340  137.8840 N   0  0  0  0  0  2  0  0  0  0  0  0
  192.3630  175.2730  136.2890 O   0  0  0  0  0  0  0  0  0  0  0  0
  191.1740  177.1280  137.8470 O   0  0  0  0  0  0  0  0  0  0  0  0
  189.4690  176.4470  139.2840 N   0  0  0  0  0  2  0  0  0  0  0  0
  191.6420  174.4290  136.8860 C   0  0  0  0  0  0  0  0  0  0  0  0
  190.4820  176.1830  138.3130 C   0  0  0  0  0  0  0  0  0  0  0  0
  191.7850  172.9810  136.5630 C   0  0  0  0  0  2  0  0  0  0  0  0
  193.1600  172.6950  135.9830 C   0  0  2  0  0  3  0  0  0  0  0  0
  193.2130  171.3810  135.5130 O   0  0  0  0  0  1  0  0  0  0  0  0
  194.2050  172.8820  137.0610 C   0  0  0  0  0  1  0  0  0  0  0  0
  1  9  1  0  0  0  0
  2  5  1  0  0  0  0
  2  3  1  0  0  0  0
  3  7  1  0  0  0  0
  5 14  1  0  0  0  0
  6  1  2  0  0  0  0
  7  4  2  0  0  0  0
  8 21  1  6  0  0  0
  8 12  1  0  0  0  0
  8 13  1  0  0  0  0
 10 19  1  0  0  0  0
 11  4  1  0  0  0  0
 11 15  1  0  0  0  0
 12 16  1  0  0  0  0
 13  2  2  0  0  0  0
 14  1  1  0  0  0  0
 16 17  1  0  0  0  0
 16  5  2  0  0  0  0
 17  6  1  0  0  0  0
 18 13  1  0  0  0  0
 18 10  1  0  0  0  0
 19  3  2  0  0  0  0
 19 20  1  0  0  0  0
 20 11  2  0  0  0  0
 22 27  1  0  0  0  0
 23 26  2  0  0  0  0
 24 27  2  0  0  0  0
 25 21  1  0  0  0  0
 26 22  1  0  0  0  0
 27 25  1  0  0  0  0
 28 26  1  0  0  0  0
 29 28  1  0  0  0  0
 29 31  1  1  0  0  0
 30 29  1  0  0  0  0
M  END
>  <MODEL>
9

>  <REMARK>
 VINA RESULT:      -8.2      1.731      4.712
  Name = 
  4 active torsions:
  status: ('A' for Active; 'I' for Inactive)
    1  A    between atoms: C_1  and  C_24
    2  A    between atoms: N_9  and  C_23
    3  A    between atoms: C_15  and  C_23
    4  A    between atoms: C_19  and  C_24
                            x       y       z     vdW  Elec       q    Type
                         _______ _______ _______ _____ _____    ______ ____

>  <TORSDO>
F 4

$$$$
