=
 OpenBabel11052413043D

 31 36  0  0  1  0  0  0  0  0999 V2000
  183.5840  178.4500  143.5750 C   0  0  0  0  0  0  0  0  0  0  0  0
  187.2530  177.7200  143.9600 C   0  0  0  0  0  0  0  0  0  0  0  0
  187.4660  177.5380  145.3560 C   0  0  0  0  0  0  0  0  0  0  0  0
  186.6240  178.8100  147.3040 C   0  0  0  0  0  3  0  0  0  0  0  0
  185.9430  178.1570  143.3810 C   0  0  0  0  0  0  0  0  0  0  0  0
  183.5060  178.9240  142.2660 C   0  0  0  0  0  3  0  0  0  0  0  0
  186.3480  177.7080  146.3390 C   0  0  0  0  0  2  0  0  0  0  0  0
  188.1130  177.6140  141.5680 C   0  0  2  0  0  3  0  0  0  0  0  0
  182.4620  178.3580  144.3290 F   0  0  0  0  0  0  0  0  0  0  0  0
  189.7460  176.8270  144.9090 C   0  0  0  0  0  3  0  0  0  0  0  0
  187.6120  178.7510  148.1930 C   0  0  0  0  0  3  0  0  0  0  0  0
  187.1420  178.7490  141.2450 C   0  0  0  0  0  2  0  0  0  0  0  0
  188.3250  177.4850  143.0620 C   0  0  0  0  0  0  0  0  0  0  0  0
  184.7840  178.0800  144.0960 N   0  0  0  0  0  0  0  0  0  0  0  0
  188.5950  177.6540  148.2800 C   0  0  0  0  0  3  0  0  0  0  0  0
  185.8910  178.6140  142.0500 C   0  0  0  0  0  0  0  0  0  0  0  0
  184.6700  179.0090  141.5030 C   0  0  0  0  0  3  0  0  0  0  0  0
  189.5440  177.0040  143.5470 C   0  0  0  0  0  3  0  0  0  0  0  0
  188.7340  177.1150  145.8230 C   0  0  0  0  0  0  0  0  0  0  0  0
  189.0720  176.9420  147.2520 C   0  0  0  0  0  3  0  0  0  0  0  0
  189.3740  177.8470  140.8730 N   0  0  0  0  0  2  0  0  0  0  0  0
  193.2200  176.3050  137.7510 C   0  0  0  0  0  0  0  0  0  0  0  0
  192.1380  177.2030  139.7870 C   0  0  0  0  0  3  0  0  0  0  0  0
  189.4700  176.4620  137.4130 C   0  0  0  0  0  3  0  0  0  0  0  0
  188.6110  176.9770  138.5390 C   0  0  0  0  0  2  0  0  0  0  0  0
  194.3070  175.9980  137.1970 O   0  0  0  0  0  0  0  0  0  0  0  0
  189.6420  177.3140  139.5740 C   0  0  0  0  0  0  0  0  0  0  0  0
  193.2510  176.8540  139.1320 C   0  0  0  0  0  3  0  0  0  0  0  0
  190.7390  176.5150  137.7880 C   0  0  0  0  0  0  0  0  0  0  0  0
  190.8470  177.0390  139.1210 C   0  0  0  0  0  0  0  0  0  0  0  0
  191.9300  176.1010  136.9830 C   0  0  0  0  0  2  0  0  0  0  0  0
  1 14  1  0  0  0  0
  1  9  1  0  0  0  0
  2  3  1  0  0  0  0
  3 19  2  0  0  0  0
  3  7  1  0  0  0  0
  4 11  2  0  0  0  0
  5  2  1  0  0  0  0
  5 14  2  0  0  0  0
  6  1  2  0  0  0  0
  7  4  1  0  0  0  0
  8 21  1  6  0  0  0
  8 13  1  0  0  0  0
 10 19  1  0  0  0  0
 11 15  1  0  0  0  0
 12  8  1  0  0  0  0
 12 16  1  0  0  0  0
 13 18  1  0  0  0  0
 13  2  2  0  0  0  0
 16  5  1  0  0  0  0
 17 16  2  0  0  0  0
 17  6  1  0  0  0  0
 18 10  2  0  0  0  0
 19 20  1  0  0  0  0
 20 15  2  0  0  0  0
 22 28  1  0  0  0  0
 24 29  2  0  0  0  0
 24 25  1  0  0  0  0
 25 27  1  0  0  0  0
 26 22  2  0  0  0  0
 27 21  1  0  0  0  0
 28 23  2  0  0  0  0
 29 30  1  0  0  0  0
 30 27  2  0  0  0  0
 30 23  1  0  0  0  0
 31 22  1  0  0  0  0
 31 29  1  0  0  0  0
M  END
>  <MODEL>
1

>  <REMARK>
 VINA RESULT:     -11.7      0.000      0.000
  Name = 
  2 active torsions:
  status: ('A' for Active; 'I' for Inactive)
    1  A    between atoms: C_9  and  N_23
    2  A    between atoms: C_15  and  N_23
                            x       y       z     vdW  Elec       q    Type
                         _______ _______ _______ _____ _____    ______ ____

>  <TORSDO>
F 2

$$$$
=
 OpenBabel11052413043D

 31 36  0  0  1  0  0  0  0  0999 V2000
  183.7750  178.4090  143.5990 C   0  0  0  0  0  0  0  0  0  0  0  0
  187.4590  177.7440  143.9470 C   0  0  0  0  0  0  0  0  0  0  0  0
  187.6810  177.5130  145.3350 C   0  0  0  0  0  0  0  0  0  0  0  0
  186.8180  178.6920  147.3320 C   0  0  0  0  0  3  0  0  0  0  0  0
  186.1390  178.1740  143.3880 C   0  0  0  0  0  0  0  0  0  0  0  0
  183.6820  178.9300  142.3090 C   0  0  0  0  0  3  0  0  0  0  0  0
  186.5630  177.6210  146.3260 C   0  0  0  0  0  2  0  0  0  0  0  0
  188.3150  177.7470  141.5510 C   0  0  2  0  0  3  0  0  0  0  0  0
  182.6570  178.2640  144.3510 F   0  0  0  0  0  0  0  0  0  0  0  0
  189.9740  176.8690  144.8560 C   0  0  0  0  0  3  0  0  0  0  0  0
  187.8100  178.6200  148.2160 C   0  0  0  0  0  3  0  0  0  0  0  0
  187.3180  178.8720  141.2740 C   0  0  0  0  0  2  0  0  0  0  0  0
  188.5330  177.5650  143.0380 C   0  0  0  0  0  0  0  0  0  0  0  0
  184.9840  178.0450  144.1030 N   0  0  0  0  0  0  0  0  0  0  0  0
  188.8160  177.5420  148.2580 C   0  0  0  0  0  3  0  0  0  0  0  0
  186.0730  178.6800  142.0760 C   0  0  0  0  0  0  0  0  0  0  0  0
  184.8420  179.0690  141.5470 C   0  0  0  0  0  3  0  0  0  0  0  0
  189.7640  177.0930  143.5020 C   0  0  0  0  0  3  0  0  0  0  0  0
  188.9590  177.1000  145.7820 C   0  0  0  0  0  0  0  0  0  0  0  0
  189.3050  176.8800  147.2030 C   0  0  0  0  0  3  0  0  0  0  0  0
  189.5680  178.0330  140.8630 N   0  0  0  0  0  2  0  0  0  0  0  0
  188.6110  177.6490  135.7790 C   0  0  0  0  0  0  0  0  0  0  0  0
  188.3750  178.4660  138.1020 C   0  0  0  0  0  3  0  0  0  0  0  0
  191.0120  175.9450  138.1320 C   0  0  0  0  0  3  0  0  0  0  0  0
  191.0400  176.2940  139.5970 C   0  0  0  0  0  2  0  0  0  0  0  0
  188.1990  177.7430  134.5940 O   0  0  0  0  0  0  0  0  0  0  0  0
  189.9670  177.3380  139.6780 C   0  0  0  0  0  0  0  0  0  0  0  0
  187.9920  178.5080  136.8210 C   0  0  0  0  0  3  0  0  0  0  0  0
  190.0850  176.6810  137.5370 C   0  0  0  0  0  0  0  0  0  0  0  0
  189.4400  177.5420  138.4890 C   0  0  0  0  0  0  0  0  0  0  0  0
  189.7180  176.6620  136.0860 C   0  0  0  0  0  2  0  0  0  0  0  0
  1 14  1  0  0  0  0
  1  9  1  0  0  0  0
  2  3  1  0  0  0  0
  3 19  2  0  0  0  0
  3  7  1  0  0  0  0
  4 11  2  0  0  0  0
  5  2  1  0  0  0  0
  5 14  2  0  0  0  0
  6  1  2  0  0  0  0
  7  4  1  0  0  0  0
  8 21  1  6  0  0  0
  8 13  1  0  0  0  0
 10 19  1  0  0  0  0
 11 15  1  0  0  0  0
 12  8  1  0  0  0  0
 12 16  1  0  0  0  0
 13 18  1  0  0  0  0
 13  2  2  0  0  0  0
 16  5  1  0  0  0  0
 17 16  2  0  0  0  0
 17  6  1  0  0  0  0
 18 10  2  0  0  0  0
 19 20  1  0  0  0  0
 20 15  2  0  0  0  0
 22 31  1  0  0  0  0
 22 28  1  0  0  0  0
 23 30  1  0  0  0  0
 24 25  1  0  0  0  0
 25 27  1  0  0  0  0
 26 22  2  0  0  0  0
 27 21  1  0  0  0  0
 28 23  2  0  0  0  0
 29 24  2  0  0  0  0
 29 30  1  0  0  0  0
 30 27  2  0  0  0  0
 31 29  1  0  0  0  0
M  END
>  <MODEL>
2

>  <REMARK>
 VINA RESULT:     -11.4      1.458      2.195
  Name = 
  2 active torsions:
  status: ('A' for Active; 'I' for Inactive)
    1  A    between atoms: C_9  and  N_23
    2  A    between atoms: C_15  and  N_23
                            x       y       z     vdW  Elec       q    Type
                         _______ _______ _______ _____ _____    ______ ____

>  <TORSDO>
F 2

$$$$
=
 OpenBabel11052413043D

 31 36  0  0  1  0  0  0  0  0999 V2000
  184.2160  178.4140  143.7600 C   0  0  0  0  0  0  0  0  0  0  0  0
  187.8880  177.6030  143.7420 C   0  0  0  0  0  0  0  0  0  0  0  0
  188.2370  177.3600  145.1010 C   0  0  0  0  0  0  0  0  0  0  0  0
  187.6220  178.5660  147.1730 C   0  0  0  0  0  3  0  0  0  0  0  0
  186.5370  178.0870  143.3160 C   0  0  0  0  0  0  0  0  0  0  0  0
  184.0180  178.9430  142.4850 C   0  0  0  0  0  3  0  0  0  0  0  0
  187.2280  177.5090  146.1980 C   0  0  0  0  0  2  0  0  0  0  0  0
  188.5020  177.5800  141.2730 C   0  0  2  0  0  3  0  0  0  0  0  0
  183.1740  178.3110  144.6190 F   0  0  0  0  0  0  0  0  0  0  0  0
  190.4440  176.6270  144.3980 C   0  0  0  0  0  3  0  0  0  0  0  0
  188.6940  178.4520  147.9540 C   0  0  0  0  0  3  0  0  0  0  0  0
  187.5280  178.7440  141.0940 C   0  0  0  0  0  2  0  0  0  0  0  0
  188.8590  177.3850  142.7320 C   0  0  0  0  0  0  0  0  0  0  0  0
  185.4540  178.0010  144.1420 N   0  0  0  0  0  0  0  0  0  0  0  0
  189.6550  177.3360  147.8980 C   0  0  0  0  0  3  0  0  0  0  0  0
  186.3610  178.5990  142.0160 C   0  0  0  0  0  0  0  0  0  0  0  0
  185.1010  179.0370  141.6110 C   0  0  0  0  0  3  0  0  0  0  0  0
  190.1110  176.8640  143.0710 C   0  0  0  0  0  3  0  0  0  0  0  0
  189.5360  176.8950  145.4200 C   0  0  0  0  0  0  0  0  0  0  0  0
  190.0110  176.6580  146.8000 C   0  0  0  0  0  3  0  0  0  0  0  0
  189.6920  177.8180  140.4640 N   0  0  0  0  0  2  0  0  0  0  0  0
  191.4190  175.2190  136.3200 C   0  0  0  0  0  0  0  0  0  0  0  0
  191.1020  175.7780  138.7090 C   0  0  0  0  0  3  0  0  0  0  0  0
  189.2490  178.2640  136.7890 C   0  0  0  0  0  3  0  0  0  0  0  0
  188.9250  178.7800  138.1670 C   0  0  0  0  0  2  0  0  0  0  0  0
  191.9530  174.4330  135.4940 O   0  0  0  0  0  0  0  0  0  0  0  0
  189.6610  177.8040  139.0340 C   0  0  0  0  0  0  0  0  0  0  0  0
  191.6360  174.9870  137.7710 C   0  0  0  0  0  3  0  0  0  0  0  0
  190.0220  177.1960  136.9060 C   0  0  0  0  0  0  0  0  0  0  0  0
  190.2760  176.9090  138.2900 C   0  0  0  0  0  0  0  0  0  0  0  0
  190.5800  176.3650  135.7930 C   0  0  0  0  0  2  0  0  0  0  0  0
  1 14  1  0  0  0  0
  1  9  1  0  0  0  0
  2  3  1  0  0  0  0
  3 19  2  0  0  0  0
  3  7  1  0  0  0  0
  4 11  2  0  0  0  0
  5  2  1  0  0  0  0
  5 14  2  0  0  0  0
  6  1  2  0  0  0  0
  7  4  1  0  0  0  0
  8 21  1  6  0  0  0
  8 13  1  0  0  0  0
 10 19  1  0  0  0  0
 12  8  1  0  0  0  0
 12 16  1  0  0  0  0
 13 18  1  0  0  0  0
 13  2  2  0  0  0  0
 15 11  1  0  0  0  0
 16  5  1  0  0  0  0
 17 16  2  0  0  0  0
 17  6  1  0  0  0  0
 18 10  2  0  0  0  0
 19 20  1  0  0  0  0
 20 15  2  0  0  0  0
 22 28  1  0  0  0  0
 24 29  2  0  0  0  0
 24 25  1  0  0  0  0
 25 27  1  0  0  0  0
 26 22  2  0  0  0  0
 27 21  1  0  0  0  0
 28 23  2  0  0  0  0
 29 30  1  0  0  0  0
 30 23  1  0  0  0  0
 30 27  2  0  0  0  0
 31 22  1  0  0  0  0
 31 29  1  0  0  0  0
M  END
>  <MODEL>
3

>  <REMARK>
 VINA RESULT:     -10.8      1.182      1.346
  Name = 
  2 active torsions:
  status: ('A' for Active; 'I' for Inactive)
    1  A    between atoms: C_9  and  N_23
    2  A    between atoms: C_15  and  N_23
                            x       y       z     vdW  Elec       q    Type
                         _______ _______ _______ _____ _____    ______ ____

>  <TORSDO>
F 2

$$$$
=
 OpenBabel11052413043D

 31 36  0  0  1  0  0  0  0  0999 V2000
  189.2260  176.6990  147.2880 C   0  0  0  0  0  0  0  0  0  0  0  0
  188.0920  177.6220  143.8240 C   0  0  0  0  0  0  0  0  0  0  0  0
  189.1770  177.2930  142.9620 C   0  0  0  0  0  0  0  0  0  0  0  0
  191.6110  177.6610  143.2070 C   0  0  0  0  0  3  0  0  0  0  0  0
  188.1740  177.5300  145.3160 C   0  0  0  0  0  0  0  0  0  0  0  0
  188.2770  177.3270  148.0940 C   0  0  0  0  0  3  0  0  0  0  0  0
  190.4650  176.7570  143.5080 C   0  0  0  0  0  2  0  0  0  0  0  0
  185.6800  178.3660  144.1430 C   0  0  2  0  0  3  0  0  0  0  0  0
  190.2210  175.9750  147.8550 F   0  0  0  0  0  0  0  0  0  0  0  0
  187.7810  177.7710  141.0310 C   0  0  0  0  0  3  0  0  0  0  0  0
  192.0410  177.8810  141.9670 C   0  0  0  0  0  3  0  0  0  0  0  0
  186.1230  178.9870  145.4670 C   0  0  0  0  0  2  0  0  0  0  0  0
  186.8700  178.0630  143.2560 C   0  0  0  0  0  0  0  0  0  0  0  0
  189.1530  176.8110  145.9350 N   0  0  0  0  0  0  0  0  0  0  0  0
  191.4020  177.3430  140.7520 C   0  0  0  0  0  3  0  0  0  0  0  0
  187.1910  178.1590  146.1040 C   0  0  0  0  0  0  0  0  0  0  0  0
  187.2560  178.0640  147.4940 C   0  0  0  0  0  3  0  0  0  0  0  0
  186.7200  178.0940  141.8670 C   0  0  0  0  0  3  0  0  0  0  0  0
  189.0160  177.3990  141.5590 C   0  0  0  0  0  0  0  0  0  0  0  0
  190.0920  177.1270  140.5820 C   0  0  0  0  0  3  0  0  0  0  0  0
  184.7400  179.2620  143.4800 N   0  0  0  0  0  2  0  0  0  0  0  0
  180.8530  178.0890  140.2510 C   0  0  0  0  0  0  0  0  0  0  0  0
  183.1620  178.6190  140.9640 C   0  0  0  0  0  3  0  0  0  0  0  0
  181.0940  178.6600  143.9690 C   0  0  0  0  0  3  0  0  0  0  0  0
  182.4110  178.9940  144.6170 C   0  0  0  0  0  2  0  0  0  0  0  0
  180.0990  177.8110  139.2830 O   0  0  0  0  0  0  0  0  0  0  0  0
  183.3350  179.0030  143.4360 C   0  0  0  0  0  0  0  0  0  0  0  0
  182.2970  178.3190  139.9880 C   0  0  0  0  0  3  0  0  0  0  0  0
  181.2860  178.5130  142.6660 C   0  0  0  0  0  0  0  0  0  0  0  0
  182.6680  178.7230  142.3370 C   0  0  0  0  0  0  0  0  0  0  0  0
  180.2520  178.1760  141.6390 C   0  0  0  0  0  2  0  0  0  0  0  0
  1  9  1  0  0  0  0
  1  6  1  0  0  0  0
  2  5  1  0  0  0  0
  3  7  1  0  0  0  0
  3  2  2  0  0  0  0
  4  7  1  0  0  0  0
  5 14  1  0  0  0  0
  5 16  2  0  0  0  0
  8 21  1  6  0  0  0
  8 12  1  0  0  0  0
 10 19  2  0  0  0  0
 10 18  1  0  0  0  0
 11  4  2  0  0  0  0
 12 16  1  0  0  0  0
 13  2  1  0  0  0  0
 13  8  1  0  0  0  0
 14  1  2  0  0  0  0
 15 11  1  0  0  0  0
 16 17  1  0  0  0  0
 17  6  2  0  0  0  0
 18 13  2  0  0  0  0
 19  3  1  0  0  0  0
 20 15  2  0  0  0  0
 20 19  1  0  0  0  0
 22 31  1  0  0  0  0
 23 30  1  0  0  0  0
 24 25  1  0  0  0  0
 26 22  2  0  0  0  0
 27 21  1  0  0  0  0
 27 25  1  0  0  0  0
 28 22  1  0  0  0  0
 28 23  2  0  0  0  0
 29 24  2  0  0  0  0
 30 29  1  0  0  0  0
 30 27  2  0  0  0  0
 31 29  1  0  0  0  0
M  END
>  <MODEL>
4

>  <REMARK>
 VINA RESULT:     -10.5      3.589      7.698
  Name = 
  2 active torsions:
  status: ('A' for Active; 'I' for Inactive)
    1  A    between atoms: C_9  and  N_23
    2  A    between atoms: C_15  and  N_23
                            x       y       z     vdW  Elec       q    Type
                         _______ _______ _______ _____ _____    ______ ____

>  <TORSDO>
F 2

$$$$
=
 OpenBabel11052413043D

 31 36  0  0  1  0  0  0  0  0999 V2000
  184.8770  178.1870  146.1620 C   0  0  0  0  0  0  0  0  0  0  0  0
  187.5710  177.6800  143.5890 C   0  0  0  0  0  0  0  0  0  0  0  0
  188.6910  177.1610  144.2990 C   0  0  0  0  0  0  0  0  0  0  0  0
  189.6770  177.8160  146.4730 C   0  0  0  0  0  3  0  0  0  0  0  0
  186.3170  178.1450  144.2620 C   0  0  0  0  0  0  0  0  0  0  0  0
  183.9510  178.9750  145.4790 C   0  0  0  0  0  3  0  0  0  0  0  0
  188.6500  176.9810  145.7860 C   0  0  0  0  0  2  0  0  0  0  0  0
  186.4370  178.2640  141.3870 C   0  0  2  0  0  3  0  0  0  0  0  0
  184.6330  177.8130  147.4420 F   0  0  0  0  0  0  0  0  0  0  0  0
  189.8410  176.7760  142.1940 C   0  0  0  0  0  3  0  0  0  0  0  0
  190.9820  177.6090  146.3220 C   0  0  0  0  0  3  0  0  0  0  0  0
  185.6920  179.3610  142.1460 C   0  0  0  0  0  2  0  0  0  0  0  0
  187.6330  177.7710  142.1750 C   0  0  0  0  0  0  0  0  0  0  0  0
  186.0230  177.7930  145.5470 N   0  0  0  0  0  0  0  0  0  0  0  0
  191.5710  176.6100  145.4110 C   0  0  0  0  0  3  0  0  0  0  0  0
  185.3910  178.9240  143.5420 C   0  0  0  0  0  0  0  0  0  0  0  0
  184.2150  179.3460  144.1620 C   0  0  0  0  0  3  0  0  0  0  0  0
  188.7520  177.2810  141.4960 C   0  0  0  0  0  3  0  0  0  0  0  0
  189.8380  176.7350  143.5870 C   0  0  0  0  0  0  0  0  0  0  0  0
  191.0680  176.2280  144.2310 C   0  0  0  0  0  3  0  0  0  0  0  0
  186.8370  178.7680  140.0790 N   0  0  0  0  0  2  0  0  0  0  0  0
  188.2380  176.5800  135.5880 C   0  0  0  0  0  0  0  0  0  0  0  0
  188.5100  177.6130  137.8200 C   0  0  0  0  0  3  0  0  0  0  0  0
  184.9290  177.5040  137.1360 C   0  0  0  0  0  3  0  0  0  0  0  0
  184.8620  178.1460  138.4970 C   0  0  0  0  0  2  0  0  0  0  0  0
  188.8230  176.0770  134.5940 O   0  0  0  0  0  0  0  0  0  0  0  0
  186.3140  178.2340  138.8600 C   0  0  0  0  0  0  0  0  0  0  0  0
  189.0580  177.0670  136.7280 C   0  0  0  0  0  3  0  0  0  0  0  0
  186.1990  177.2870  136.8300 C   0  0  0  0  0  0  0  0  0  0  0  0
  187.0550  177.7350  137.8930 C   0  0  0  0  0  0  0  0  0  0  0  0
  186.7260  176.6660  135.5750 C   0  0  0  0  0  2  0  0  0  0  0  0
  1  9  1  0  0  0  0
  2  5  1  0  0  0  0
  2  3  1  0  0  0  0
  3  7  1  0  0  0  0
  5 14  2  0  0  0  0
  6  1  2  0  0  0  0
  7  4  1  0  0  0  0
  8 21  1  6  0  0  0
  8 12  1  0  0  0  0
  8 13  1  0  0  0  0
 10 19  1  0  0  0  0
 11  4  2  0  0  0  0
 12 16  1  0  0  0  0
 13  2  2  0  0  0  0
 14  1  1  0  0  0  0
 15 11  1  0  0  0  0
 16 17  2  0  0  0  0
 16  5  1  0  0  0  0
 17  6  1  0  0  0  0
 18 13  1  0  0  0  0
 18 10  2  0  0  0  0
 19 20  1  0  0  0  0
 19  3  2  0  0  0  0
 20 15  2  0  0  0  0
 22 28  1  0  0  0  0
 23 30  1  0  0  0  0
 24 25  1  0  0  0  0
 25 27  1  0  0  0  0
 26 22  2  0  0  0  0
 27 21  1  0  0  0  0
 28 23  2  0  0  0  0
 29 24  2  0  0  0  0
 29 30  1  0  0  0  0
 30 27  2  0  0  0  0
 31 22  1  0  0  0  0
 31 29  1  0  0  0  0
M  END
>  <MODEL>
5

>  <REMARK>
 VINA RESULT:     -10.3      2.398      3.480
  Name = 
  2 active torsions:
  status: ('A' for Active; 'I' for Inactive)
    1  A    between atoms: C_9  and  N_23
    2  A    between atoms: C_15  and  N_23
                            x       y       z     vdW  Elec       q    Type
                         _______ _______ _______ _____ _____    ______ ____

>  <TORSDO>
F 2

$$$$
=
 OpenBabel11052413043D

 31 36  0  0  1  0  0  0  0  0999 V2000
  186.1410  177.8240  146.5050 C   0  0  0  0  0  0  0  0  0  0  0  0
  187.4370  178.1430  142.9890 C   0  0  0  0  0  0  0  0  0  0  0  0
  188.8200  177.8080  143.0560 C   0  0  0  0  0  0  0  0  0  0  0  0
  190.5660  178.4480  144.6880 C   0  0  0  0  0  3  0  0  0  0  0  0
  186.5650  178.2670  144.2000 C   0  0  0  0  0  0  0  0  0  0  0  0
  184.9020  178.4600  146.4290 C   0  0  0  0  0  3  0  0  0  0  0  0
  189.4770  177.4840  144.3630 C   0  0  0  0  0  2  0  0  0  0  0  0
  185.3640  178.6790  141.6150 C   0  0  2  0  0  3  0  0  0  0  0  0
  186.5550  177.2890  147.6780 F   0  0  0  0  0  0  0  0  0  0  0  0
  188.9470  177.8740  140.6300 C   0  0  0  0  0  3  0  0  0  0  0  0
  191.6800  178.5370  143.9650 C   0  0  0  0  0  3  0  0  0  0  0  0
  184.8850  179.5180  142.7990 C   0  0  0  0  0  2  0  0  0  0  0  0
  186.8450  178.3780  141.7230 C   0  0  0  0  0  0  0  0  0  0  0  0
  186.9340  177.7410  145.4030 N   0  0  0  0  0  0  0  0  0  0  0  0
  191.9390  177.7750  142.7290 C   0  0  0  0  0  3  0  0  0  0  0  0
  185.3100  178.8970  144.0890 C   0  0  0  0  0  0  0  0  0  0  0  0
  184.4890  179.0010  145.2120 C   0  0  0  0  0  3  0  0  0  0  0  0
  187.5990  178.2020  140.5590 C   0  0  0  0  0  3  0  0  0  0  0  0
  189.5750  177.7030  141.8620 C   0  0  0  0  0  0  0  0  0  0  0  0
  191.0230  177.4080  141.8250 C   0  0  0  0  0  3  0  0  0  0  0  0
  185.0560  179.3780  140.3730 N   0  0  0  0  0  2  0  0  0  0  0  0
  184.4700  176.8350  135.8890 C   0  0  0  0  0  0  0  0  0  0  0  0
  185.6490  177.8770  137.7980 C   0  0  0  0  0  3  0  0  0  0  0  0
  182.0800  178.3700  138.3660 C   0  0  0  0  0  3  0  0  0  0  0  0
  182.5860  179.0570  139.6070 C   0  0  0  0  0  2  0  0  0  0  0  0
  184.5910  176.2060  134.8060 O   0  0  0  0  0  0  0  0  0  0  0  0
  184.0690  178.9040  139.4530 C   0  0  0  0  0  0  0  0  0  0  0  0
  185.6960  177.2090  136.6400 C   0  0  0  0  0  3  0  0  0  0  0  0
  183.1170  177.9250  137.6730 C   0  0  0  0  0  0  0  0  0  0  0  0
  184.3450  178.2520  138.3430 C   0  0  0  0  0  0  0  0  0  0  0  0
  183.0770  177.1820  136.3750 C   0  0  0  0  0  2  0  0  0  0  0  0
  1  9  1  0  0  0  0
  2  3  1  0  0  0  0
  2  5  1  0  0  0  0
  3  7  1  0  0  0  0
  5 14  1  0  0  0  0
  6  1  1  0  0  0  0
  7  4  1  0  0  0  0
  8 21  1  6  0  0  0
  8 13  1  0  0  0  0
  8 12  1  0  0  0  0
 10 19  1  0  0  0  0
 11  4  2  0  0  0  0
 12 16  1  0  0  0  0
 13  2  2  0  0  0  0
 14  1  2  0  0  0  0
 15 11  1  0  0  0  0
 16  5  2  0  0  0  0
 16 17  1  0  0  0  0
 17  6  2  0  0  0  0
 18 10  2  0  0  0  0
 18 13  1  0  0  0  0
 19  3  2  0  0  0  0
 20 19  1  0  0  0  0
 20 15  2  0  0  0  0
 22 31  1  0  0  0  0
 22 28  1  0  0  0  0
 23 30  1  0  0  0  0
 24 25  1  0  0  0  0
 26 22  2  0  0  0  0
 27 25  1  0  0  0  0
 27 21  1  0  0  0  0
 28 23  2  0  0  0  0
 29 30  1  0  0  0  0
 29 24  2  0  0  0  0
 30 27  2  0  0  0  0
 31 29  1  0  0  0  0
M  END
>  <MODEL>
6

>  <REMARK>
 VINA RESULT:     -10.3      3.263      5.529
  Name = 
  2 active torsions:
  status: ('A' for Active; 'I' for Inactive)
    1  A    between atoms: C_9  and  N_23
    2  A    between atoms: C_15  and  N_23
                            x       y       z     vdW  Elec       q    Type
                         _______ _______ _______ _____ _____    ______ ____

>  <TORSDO>
F 2

$$$$
=
 OpenBabel11052413043D

 31 36  0  0  1  0  0  0  0  0999 V2000
  184.8350  178.2310  146.1100 C   0  0  0  0  0  0  0  0  0  0  0  0
  187.5290  177.7110  143.5380 C   0  0  0  0  0  0  0  0  0  0  0  0
  188.6510  177.2020  144.2520 C   0  0  0  0  0  0  0  0  0  0  0  0
  189.6370  177.8780  146.4180 C   0  0  0  0  0  3  0  0  0  0  0  0
  186.2740  178.1770  144.2090 C   0  0  0  0  0  0  0  0  0  0  0  0
  183.9060  179.0100  145.4220 C   0  0  0  0  0  3  0  0  0  0  0  0
  188.6120  177.0340  145.7400 C   0  0  0  0  0  2  0  0  0  0  0  0
  186.3910  178.2720  141.3330 C   0  0  2  0  0  3  0  0  0  0  0  0
  184.5940  177.8670  147.3930 F   0  0  0  0  0  0  0  0  0  0  0  0
  189.8000  176.8020  142.1480 C   0  0  0  0  0  3  0  0  0  0  0  0
  190.9430  177.6740  146.2680 C   0  0  0  0  0  3  0  0  0  0  0  0
  185.6430  179.3740  142.0830 C   0  0  0  0  0  2  0  0  0  0  0  0
  187.5890  177.7900  142.1230 C   0  0  0  0  0  0  0  0  0  0  0  0
  185.9820  177.8350  145.4970 N   0  0  0  0  0  0  0  0  0  0  0  0
  191.5340  176.6690  145.3650 C   0  0  0  0  0  3  0  0  0  0  0  0
  185.3450  178.9470  143.4830 C   0  0  0  0  0  0  0  0  0  0  0  0
  184.1680  179.3710  144.1000 C   0  0  0  0  0  3  0  0  0  0  0  0
  188.7090  177.2980  141.4470 C   0  0  0  0  0  3  0  0  0  0  0  0
  189.7990  176.7730  143.5420 C   0  0  0  0  0  0  0  0  0  0  0  0
  191.0310  176.2750  144.1880 C   0  0  0  0  0  3  0  0  0  0  0  0
  186.7880  178.7670  140.0200 N   0  0  0  0  0  2  0  0  0  0  0  0
  182.6210  177.8740  137.0600 C   0  0  0  0  0  0  0  0  0  0  0  0
  183.9340  178.7240  138.9780 C   0  0  0  0  0  3  0  0  0  0  0  0
  186.2740  176.9890  136.7830 C   0  0  0  0  0  3  0  0  0  0  0  0
  187.2560  177.4110  137.8450 C   0  0  0  0  0  2  0  0  0  0  0  0
  181.4840  177.7940  136.5290 O   0  0  0  0  0  0  0  0  0  0  0  0
  186.3660  178.1390  138.8060 C   0  0  0  0  0  0  0  0  0  0  0  0
  182.7580  178.5950  138.3520 C   0  0  0  0  0  3  0  0  0  0  0  0
  185.0700  177.4220  137.1220 C   0  0  0  0  0  0  0  0  0  0  0  0
  185.1250  178.1330  138.3690 C   0  0  0  0  0  0  0  0  0  0  0  0
  183.7990  177.2310  136.3560 C   0  0  0  0  0  2  0  0  0  0  0  0
  1  9  1  0  0  0  0
  2  5  1  0  0  0  0
  2  3  1  0  0  0  0
  3  7  1  0  0  0  0
  5 14  2  0  0  0  0
  6  1  2  0  0  0  0
  7  4  1  0  0  0  0
  8 21  1  6  0  0  0
  8 12  1  0  0  0  0
  8 13  1  0  0  0  0
 10 19  1  0  0  0  0
 11  4  2  0  0  0  0
 12 16  1  0  0  0  0
 13  2  2  0  0  0  0
 14  1  1  0  0  0  0
 15 11  1  0  0  0  0
 16 17  2  0  0  0  0
 16  5  1  0  0  0  0
 17  6  1  0  0  0  0
 18 13  1  0  0  0  0
 18 10  2  0  0  0  0
 19 20  1  0  0  0  0
 19  3  2  0  0  0  0
 20 15  2  0  0  0  0
 22 28  1  0  0  0  0
 24 29  2  0  0  0  0
 24 25  1  0  0  0  0
 25 27  1  0  0  0  0
 26 22  2  0  0  0  0
 27 21  1  0  0  0  0
 28 23  2  0  0  0  0
 29 30  1  0  0  0  0
 30 27  2  0  0  0  0
 30 23  1  0  0  0  0
 31 22  1  0  0  0  0
 31 29  1  0  0  0  0
M  END
>  <MODEL>
7

>  <REMARK>
 VINA RESULT:     -10.2      3.380      5.009
  Name = 
  2 active torsions:
  status: ('A' for Active; 'I' for Inactive)
    1  A    between atoms: C_9  and  N_23
    2  A    between atoms: C_15  and  N_23
                            x       y       z     vdW  Elec       q    Type
                         _______ _______ _______ _____ _____    ______ ____

>  <TORSDO>
F 2

$$$$
=
 OpenBabel11052413043D

 31 36  0  0  1  0  0  0  0  0999 V2000
  189.1810  177.8770  147.5760 C   0  0  0  0  0  0  0  0  0  0  0  0
  187.5970  178.0960  144.1730 C   0  0  0  0  0  0  0  0  0  0  0  0
  186.2930  178.6270  144.3870 C   0  0  0  0  0  0  0  0  0  0  0  0
  184.5920  178.1030  146.1060 C   0  0  0  0  0  3  0  0  0  0  0  0
  188.5250  177.7270  145.2880 C   0  0  0  0  0  0  0  0  0  0  0  0
  190.2960  177.0720  147.3390 C   0  0  0  0  0  3  0  0  0  0  0  0
  185.7930  178.9190  145.7690 C   0  0  0  0  0  2  0  0  0  0  0  0
  189.4540  177.3900  142.5820 C   0  0  2  0  0  3  0  0  0  0  0  0
  188.9440  178.3530  148.8220 F   0  0  0  0  0  0  0  0  0  0  0  0
  185.9810  178.8150  141.9850 C   0  0  0  0  0  3  0  0  0  0  0  0
  183.4280  178.2530  145.4780 C   0  0  0  0  0  3  0  0  0  0  0  0
  189.8800  176.3780  143.6460 C   0  0  0  0  0  2  0  0  0  0  0  0
  188.0510  177.8980  142.8440 C   0  0  0  0  0  0  0  0  0  0  0  0
  188.3330  178.1840  146.5590 N   0  0  0  0  0  0  0  0  0  0  0  0
  183.2030  179.1600  144.3380 C   0  0  0  0  0  3  0  0  0  0  0  0
  189.6530  176.9290  145.0160 C   0  0  0  0  0  0  0  0  0  0  0  0
  190.5280  176.5950  146.0500 C   0  0  0  0  0  3  0  0  0  0  0  0
  187.2510  178.2970  141.7700 C   0  0  0  0  0  3  0  0  0  0  0  0
  185.4790  178.9590  143.2770 C   0  0  0  0  0  0  0  0  0  0  0  0
  184.0970  179.4710  143.3910 C   0  0  0  0  0  3  0  0  0  0  0  0
  189.5560  176.7750  141.2640 N   0  0  0  0  0  2  0  0  0  0  0  0
  191.4380  175.8560  136.5170 C   0  0  0  0  0  0  0  0  0  0  0  0
  189.7720  175.9650  138.3440 C   0  0  0  0  0  3  0  0  0  0  0  0
  192.9250  177.1800  139.7180 C   0  0  0  0  0  3  0  0  0  0  0  0
  192.0840  177.3310  140.9580 C   0  0  0  0  0  2  0  0  0  0  0  0
  191.6470  175.5560  135.3140 O   0  0  0  0  0  0  0  0  0  0  0  0
  190.7500  176.8430  140.4790 C   0  0  0  0  0  0  0  0  0  0  0  0
  190.0730  175.6690  137.0740 C   0  0  0  0  0  3  0  0  0  0  0  0
  192.1660  176.6970  138.7460 C   0  0  0  0  0  0  0  0  0  0  0  0
  190.8230  176.4900  139.2130 C   0  0  0  0  0  0  0  0  0  0  0  0
  192.5890  176.3920  137.3430 C   0  0  0  0  0  2  0  0  0  0  0  0
  1  9  1  0  0  0  0
  2  3  1  0  0  0  0
  2  5  1  0  0  0  0
  3  7  1  0  0  0  0
  5 14  1  0  0  0  0
  6  1  1  0  0  0  0
  7  4  1  0  0  0  0
  8 21  1  6  0  0  0
  8 13  1  0  0  0  0
  8 12  1  0  0  0  0
 10 19  1  0  0  0  0
 11  4  2  0  0  0  0
 12 16  1  0  0  0  0
 13  2  2  0  0  0  0
 14  1  2  0  0  0  0
 15 11  1  0  0  0  0
 16  5  2  0  0  0  0
 16 17  1  0  0  0  0
 17  6  2  0  0  0  0
 18 10  2  0  0  0  0
 18 13  1  0  0  0  0
 19 20  1  0  0  0  0
 19  3  2  0  0  0  0
 20 15  2  0  0  0  0
 22 28  1  0  0  0  0
 22 31  1  0  0  0  0
 23 30  1  0  0  0  0
 24 25  1  0  0  0  0
 26 22  2  0  0  0  0
 27 25  1  0  0  0  0
 27 21  1  0  0  0  0
 28 23  2  0  0  0  0
 29 30  1  0  0  0  0
 29 24  2  0  0  0  0
 30 27  2  0  0  0  0
 31 29  1  0  0  0  0
M  END
>  <MODEL>
8

>  <REMARK>
 VINA RESULT:     -10.1      2.003      4.378
  Name = 
  2 active torsions:
  status: ('A' for Active; 'I' for Inactive)
    1  A    between atoms: C_9  and  N_23
    2  A    between atoms: C_15  and  N_23
                            x       y       z     vdW  Elec       q    Type
                         _______ _______ _______ _____ _____    ______ ____

>  <TORSDO>
F 2

$$$$
=
 OpenBabel11052413043D

 31 36  0  0  1  0  0  0  0  0999 V2000
  191.5680  177.5030  140.8910 C   0  0  0  0  0  0  0  0  0  0  0  0
  189.3680  177.5570  143.9400 C   0  0  0  0  0  0  0  0  0  0  0  0
  190.2290  177.2900  145.0420 C   0  0  0  0  0  0  0  0  0  0  0  0
  192.0500  175.6360  145.3130 C   0  0  0  0  0  3  0  0  0  0  0  0
  189.8210  177.5000  142.5140 C   0  0  0  0  0  0  0  0  0  0  0  0
  190.6410  177.4490  139.8500 C   0  0  0  0  0  3  0  0  0  0  0  0
  191.6850  177.0000  144.8360 C   0  0  0  0  0  2  0  0  0  0  0  0
  187.0870  178.2360  143.0410 C   0  0  2  0  0  3  0  0  0  0  0  0
  192.8940  177.5290  140.6140 F   0  0  0  0  0  0  0  0  0  0  0  0
  188.4060  177.7680  146.5750 C   0  0  0  0  0  3  0  0  0  0  0  0
  191.9970  175.2910  146.5970 C   0  0  0  0  0  3  0  0  0  0  0  0
  187.4050  177.3970  141.8040 C   0  0  0  0  0  2  0  0  0  0  0  0
  188.0130  177.8910  144.1890 C   0  0  0  0  0  0  0  0  0  0  0  0
  191.1440  177.5290  142.1820 N   0  0  0  0  0  0  0  0  0  0  0  0
  191.5000  176.1620  147.6780 C   0  0  0  0  0  3  0  0  0  0  0  0
  188.8620  177.4660  141.4830 C   0  0  0  0  0  0  0  0  0  0  0  0
  189.2800  177.4280  140.1530 C   0  0  0  0  0  3  0  0  0  0  0  0
  187.5610  178.0290  145.5040 C   0  0  0  0  0  3  0  0  0  0  0  0
  189.7250  177.3720  146.3630 C   0  0  0  0  0  0  0  0  0  0  0  0
  190.5210  177.0680  147.5710 C   0  0  0  0  0  3  0  0  0  0  0  0
  185.6900  178.0400  143.4110 N   0  0  0  0  0  2  0  0  0  0  0  0
  180.6180  179.1060  143.1770 C   0  0  0  0  0  0  0  0  0  0  0  0
  182.8170  178.6270  144.2060 C   0  0  0  0  0  3  0  0  0  0  0  0
  183.3100  178.5800  140.5920 C   0  0  0  0  0  3  0  0  0  0  0  0
  184.7280  178.2770  141.0010 C   0  0  0  0  0  3  0  0  0  0  0  0
  179.4030  179.3600  143.3830 O   0  0  0  0  0  0  0  0  0  0  0  0
  184.6160  178.2730  142.4960 C   0  0  0  0  0  0  0  0  0  0  0  0
  181.5140  178.9000  144.3440 C   0  0  0  0  0  3  0  0  0  0  0  0
  182.5730  178.7170  141.6840 C   0  0  0  0  0  0  0  0  0  0  0  0
  183.3770  178.5290  142.8590 C   0  0  0  0  0  0  0  0  0  0  0  0
  181.1100  179.0230  141.7460 C   0  0  0  0  0  3  0  0  0  0  0  0
  1 14  1  0  0  0  0
  2 13  2  0  0  0  0
  2  3  1  0  0  0  0
  3 19  2  0  0  0  0
  4 11  2  0  0  0  0
  5  2  1  0  0  0  0
  6 17  1  0  0  0  0
  6  1  2  0  0  0  0
  7  3  1  0  0  0  0
  7  4  1  0  0  0  0
  8 21  1  1  0  0  0
  8 13  1  0  0  0  0
  9  1  1  0  0  0  0
 11 15  1  0  0  0  0
 12  8  1  0  0  0  0
 13 18  1  0  0  0  0
 14  5  2  0  0  0  0
 16 12  1  0  0  0  0
 16  5  1  0  0  0  0
 17 16  2  0  0  0  0
 18 10  2  0  0  0  0
 19 10  1  0  0  0  0
 19 20  1  0  0  0  0
 20 15  2  0  0  0  0
 22 26  2  0  0  0  0
 22 28  1  0  0  0  0
 23 28  2  0  0  0  0
 24 25  2  0  0  0  0
 24 29  1  0  0  0  0
 25 27  1  0  0  0  0
 27 30  2  0  0  0  0
 27 21  1  0  0  0  0
 29 31  2  0  0  0  0
 29 30  1  0  0  0  0
 30 23  1  0  0  0  0
 31 22  1  0  0  0  0
M  END
>  <MODEL>
9

>  <REMARK>
 VINA RESULT:     -10.0      3.932      7.384
  Name = 
  2 active torsions:
  status: ('A' for Active; 'I' for Inactive)
    1  A    between atoms: C_9  and  N_23
    2  A    between atoms: C_15  and  N_23
                            x       y       z     vdW  Elec       q    Type
                         _______ _______ _______ _____ _____    ______ ____

>  <TORSDO>
F 2

$$$$
