=
 OpenBabel11052413273D

 28 31  0  0  1  0  0  0  0  0999 V2000
  187.1800  177.5650  145.0620 C   0  0  1  0  0  3  0  0  0  0  0  0
  183.3720  179.0700  145.6940 O   0  0  0  0  0  0  0  0  0  0  0  0
  186.2790  178.7900  141.5080 C   0  0  2  0  0  3  0  0  0  0  0  0
  185.1000  178.6200  144.1130 C   0  0  0  0  0  0  0  0  0  0  0  0
  186.9810  177.9430  142.5620 C   0  0  0  0  0  2  0  0  0  0  0  0
  185.4550  178.4510  146.6220 C   0  0  0  0  0  3  0  0  0  0  0  0
  184.2910  178.7790  143.0550 C   0  0  0  0  0  3  0  0  0  0  0  0
  184.5670  178.7320  145.4840 C   0  0  0  0  0  0  0  0  0  0  0  0
  184.7620  178.6320  141.6340 C   0  0  0  0  0  2  0  0  0  0  0  0
  186.6760  177.9440  146.4330 C   0  0  0  0  0  3  0  0  0  0  0  0
  186.6000  178.4580  143.9510 C   0  0  2  0  0  3  0  0  0  0  0  0
  185.8670  178.3790  139.1250 C   0  0  0  0  0  3  0  0  0  0  0  0
  188.7650  177.3810  139.0900 C   0  0  0  0  0  3  0  0  0  0  0  0
  186.8970  176.8040  137.5400 C   0  0  0  0  0  0  0  0  0  0  0  0
  186.7560  178.4550  140.1250 C   0  0  0  0  0  0  0  0  0  0  0  0
  189.0550  178.9230  140.7740 F   0  0  0  0  0  0  0  0  0  0  0  0
  188.0600  176.5180  138.1230 C   0  0  0  0  0  3  0  0  0  0  0  0
  188.2160  178.2660  139.9340 C   0  0  0  0  0  0  0  0  0  0  0  0
  186.3010  175.8210  136.5980 C   0  0  0  0  0  1  0  0  0  0  0  0
  186.2390  178.1330  137.7020 C   0  0  0  0  0  2  0  0  0  0  0  0
  188.6820  177.5220  145.0430 C   0  0  0  0  0  0  0  0  0  0  0  0
  189.3430  178.0240  143.9170 C   0  0  0  0  0  3  0  0  0  0  0  0
  190.8370  176.9990  146.0480 C   0  0  0  0  0  0  0  0  0  0  0  0
  190.7380  178.0140  143.8520 C   0  0  0  0  0  3  0  0  0  0  0  0
  188.7970  176.5010  147.2470 O   0  0  0  0  0  1  0  0  0  0  0  0
  189.4350  177.0050  146.1190 C   0  0  0  0  0  0  0  0  0  0  0  0
  191.8020  176.3650  147.3690 Cl  0  0  0  0  0  0  0  0  0  0  0  0
  191.4830  177.5030  144.9160 C   0  0  0  0  0  3  0  0  0  0  0  0
  1 21  1  1  0  0  0
  1 10  1  0  0  0  0
  3 15  1  6  0  0  0
  3  9  1  0  0  0  0
  3  5  1  0  0  0  0
  4  8  1  0  0  0  0
  7  4  2  0  0  0  0
  8  2  2  0  0  0  0
  8  6  1  0  0  0  0
  9  7  1  0  0  0  0
 10  6  2  0  0  0  0
 11  5  1  6  0  0  0
 11  4  1  0  0  0  0
 11  1  1  0  0  0  0
 12 15  2  0  0  0  0
 13 18  2  0  0  0  0
 14 20  1  0  0  0  0
 14 17  2  0  0  0  0
 17 13  1  0  0  0  0
 18 15  1  0  0  0  0
 18 16  1  0  0  0  0
 19 14  1  0  0  0  0
 20 12  1  0  0  0  0
 21 26  1  0  0  0  0
 22 21  2  0  0  0  0
 23 26  2  0  0  0  0
 23 27  1  0  0  0  0
 24 22  1  0  0  0  0
 24 28  2  0  0  0  0
 26 25  1  0  0  0  0
 28 23  1  0  0  0  0
M  END
>  <MODEL>
1

>  <REMARK>
 VINA RESULT:     -11.0      0.000      0.000
  Name = 
  2 active torsions:
  status: ('A' for Active; 'I' for Inactive)
    1  A    between atoms: C_1  and  C_2
    2  A    between atoms: C_10  and  C_13
                            x       y       z     vdW  Elec       q    Type
                         _______ _______ _______ _____ _____    ______ ____

>  <TORSDO>
F 2

$$$$
=
 OpenBabel11052413273D

 28 31  0  0  1  0  0  0  0  0999 V2000
  188.7620  177.1960  145.4250 C   0  0  1  0  0  3  0  0  0  0  0  0
  187.1240  177.7590  149.1890 O   0  0  0  0  0  0  0  0  0  0  0  0
  185.4460  178.9660  144.5220 C   0  0  2  0  0  3  0  0  0  0  0  0
  186.8400  178.0080  146.8340 C   0  0  0  0  0  0  0  0  0  0  0  0
  186.6550  178.0630  144.3120 C   0  0  0  0  0  2  0  0  0  0  0  0
  189.0590  177.3690  147.8900 C   0  0  0  0  0  3  0  0  0  0  0  0
  185.5210  178.2330  146.9310 C   0  0  0  0  0  3  0  0  0  0  0  0
  187.6380  177.7130  148.0400 C   0  0  0  0  0  0  0  0  0  0  0  0
  184.6440  178.4930  145.7370 C   0  0  0  0  0  2  0  0  0  0  0  0
  189.5940  177.1620  146.6840 C   0  0  0  0  0  3  0  0  0  0  0  0
  187.5830  178.1800  145.5220 C   0  0  2  0  0  3  0  0  0  0  0  0
  183.2620  178.9210  143.4070 C   0  0  0  0  0  3  0  0  0  0  0  0
  184.9040  178.7540  140.8250 C   0  0  0  0  0  3  0  0  0  0  0  0
  182.5590  178.0080  141.2340 C   0  0  0  0  0  0  0  0  0  0  0  0
  184.5920  179.0390  143.2910 C   0  0  0  0  0  0  0  0  0  0  0  0
  186.4490  179.9690  142.0230 F   0  0  0  0  0  0  0  0  0  0  0  0
  183.7060  177.9350  140.5600 C   0  0  0  0  0  3  0  0  0  0  0  0
  185.2780  179.2850  141.9980 C   0  0  0  0  0  0  0  0  0  0  0  0
  181.4440  177.0990  140.8590 C   0  0  0  0  0  1  0  0  0  0  0  0
  182.3140  179.0580  142.2650 C   0  0  0  0  0  2  0  0  0  0  0  0
  189.6290  177.4500  144.2240 C   0  0  0  0  0  0  0  0  0  0  0  0
  190.6900  178.3510  144.3560 C   0  0  0  0  0  3  0  0  0  0  0  0
  190.2580  177.0790  141.9020 C   0  0  0  0  0  0  0  0  0  0  0  0
  191.5300  178.6180  143.2730 C   0  0  0  0  0  3  0  0  0  0  0  0
  188.3590  175.9090  142.8360 O   0  0  0  0  0  1  0  0  0  0  0  0
  189.4110  176.8080  142.9870 C   0  0  0  0  0  0  0  0  0  0  0  0
  190.0150  176.2950  140.3520 Cl  0  0  0  0  0  0  0  0  0  0  0  0
  191.3150  177.9820  142.0480 C   0  0  0  0  0  3  0  0  0  0  0  0
  1 21  1  6  0  0  0
  1 11  1  0  0  0  0
  1 10  1  0  0  0  0
  3 15  1  6  0  0  0
  3  9  1  0  0  0  0
  4  7  2  0  0  0  0
  4  8  1  0  0  0  0
  5  3  1  0  0  0  0
  6  8  1  0  0  0  0
  8  2  2  0  0  0  0
  9  7  1  0  0  0  0
 10  6  2  0  0  0  0
 11  5  1  6  0  0  0
 11  4  1  0  0  0  0
 13 18  2  0  0  0  0
 14 20  1  0  0  0  0
 15 12  2  0  0  0  0
 17 13  1  0  0  0  0
 17 14  2  0  0  0  0
 18 16  1  0  0  0  0
 18 15  1  0  0  0  0
 19 14  1  0  0  0  0
 20 12  1  0  0  0  0
 21 22  1  0  0  0  0
 23 28  2  0  0  0  0
 23 26  1  0  0  0  0
 24 22  2  0  0  0  0
 25 26  1  0  0  0  0
 26 21  2  0  0  0  0
 27 23  1  0  0  0  0
 28 24  1  0  0  0  0
M  END
>  <MODEL>
2

>  <REMARK>
 VINA RESULT:     -10.9      2.772      4.106
  Name = 
  2 active torsions:
  status: ('A' for Active; 'I' for Inactive)
    1  A    between atoms: C_1  and  C_2
    2  A    between atoms: C_10  and  C_13
                            x       y       z     vdW  Elec       q    Type
                         _______ _______ _______ _____ _____    ______ ____

>  <TORSDO>
F 2

$$$$
=
 OpenBabel11052413273D

 28 31  0  0  1  0  0  0  0  0999 V2000
  186.1710  177.7120  145.4410 C   0  0  1  0  0  3  0  0  0  0  0  0
  182.6340  179.1810  143.8580 O   0  0  0  0  0  0  0  0  0  0  0  0
  187.3410  178.7960  141.9190 C   0  0  2  0  0  3  0  0  0  0  0  0
  184.9400  178.7020  143.4790 C   0  0  0  0  0  0  0  0  0  0  0  0
  187.3560  177.9980  143.2170 C   0  0  0  0  0  2  0  0  0  0  0  0
  183.8820  178.6280  145.7870 C   0  0  0  0  0  3  0  0  0  0  0  0
  184.8320  178.8100  142.1470 C   0  0  0  0  0  3  0  0  0  0  0  0
  183.7510  178.8540  144.3400 C   0  0  0  0  0  0  0  0  0  0  0  0
  185.9950  178.6190  141.2120 C   0  0  0  0  0  2  0  0  0  0  0  0
  185.0080  178.1330  146.3070 C   0  0  0  0  0  3  0  0  0  0  0  0
  186.2890  178.5570  144.1600 C   0  0  2  0  0  3  0  0  0  0  0  0
  188.3080  178.4090  139.6980 C   0  0  0  0  0  3  0  0  0  0  0  0
  190.6530  177.1870  141.2500 C   0  0  0  0  0  3  0  0  0  0  0  0
  189.9410  176.7520  138.8980 C   0  0  0  0  0  0  0  0  0  0  0  0
  188.4870  178.4190  141.0270 C   0  0  0  0  0  0  0  0  0  0  0  0
  190.0520  178.7090  142.8680 F   0  0  0  0  0  0  0  0  0  0  0  0
  190.5550  176.3780  140.0190 C   0  0  0  0  0  3  0  0  0  0  0  0
  189.7860  178.1160  141.6770 C   0  0  0  0  0  0  0  0  0  0  0  0
  189.9110  175.8140  137.7450 C   0  0  0  0  0  1  0  0  0  0  0  0
  189.3960  178.1290  138.7180 C   0  0  0  0  0  2  0  0  0  0  0  0
  187.4450  177.6910  146.2380 C   0  0  0  0  0  0  0  0  0  0  0  0
  187.4360  178.2740  147.5100 C   0  0  0  0  0  3  0  0  0  0  0  0
  189.7870  177.1050  146.5430 C   0  0  0  0  0  0  0  0  0  0  0  0
  188.5920  178.2750  148.2940 C   0  0  0  0  0  3  0  0  0  0  0  0
  188.6580  176.5180  144.4870 O   0  0  0  0  0  1  0  0  0  0  0  0
  188.6300  177.1020  145.7500 C   0  0  0  0  0  0  0  0  0  0  0  0
  191.2760  176.3780  145.9670 Cl  0  0  0  0  0  0  0  0  0  0  0  0
  189.7650  177.6910  147.8120 C   0  0  0  0  0  3  0  0  0  0  0  0
  1 21  1  1  0  0  0
  1 10  1  0  0  0  0
  2  8  2  0  0  0  0
  3 15  1  6  0  0  0
  3  5  1  0  0  0  0
  4 11  1  0  0  0  0
  4  8  1  0  0  0  0
  6 10  2  0  0  0  0
  7  4  2  0  0  0  0
  8  6  1  0  0  0  0
  9  3  1  0  0  0  0
  9  7  1  0  0  0  0
 11  5  1  6  0  0  0
 11  1  1  0  0  0  0
 12 15  2  0  0  0  0
 13 18  2  0  0  0  0
 14 17  2  0  0  0  0
 15 18  1  0  0  0  0
 17 13  1  0  0  0  0
 18 16  1  0  0  0  0
 19 14  1  0  0  0  0
 20 14  1  0  0  0  0
 20 12  1  0  0  0  0
 21 22  1  0  0  0  0
 22 24  2  0  0  0  0
 23 28  2  0  0  0  0
 25 26  1  0  0  0  0
 26 21  2  0  0  0  0
 26 23  1  0  0  0  0
 27 23  1  0  0  0  0
 28 24  1  0  0  0  0
M  END
>  <MODEL>
3

>  <REMARK>
 VINA RESULT:     -10.4      1.751      2.401
  Name = 
  2 active torsions:
  status: ('A' for Active; 'I' for Inactive)
    1  A    between atoms: C_1  and  C_2
    2  A    between atoms: C_10  and  C_13
                            x       y       z     vdW  Elec       q    Type
                         _______ _______ _______ _____ _____    ______ ____

>  <TORSDO>
F 2

$$$$
=
 OpenBabel11052413273D

 28 31  0  0  1  0  0  0  0  0999 V2000
  188.0280  177.1700  143.6720 C   0  0  1  0  0  3  0  0  0  0  0  0
  187.4990  177.7640  147.7390 O   0  0  0  0  0  0  0  0  0  0  0  0
  184.5800  178.9190  143.7130 C   0  0  2  0  0  3  0  0  0  0  0  0
  186.5690  177.9890  145.5540 C   0  0  0  0  0  0  0  0  0  0  0  0
  185.6890  178.0180  143.1820 C   0  0  0  0  0  2  0  0  0  0  0  0
  188.9980  177.3690  145.9560 C   0  0  0  0  0  3  0  0  0  0  0  0
  185.3280  178.2100  146.0120 C   0  0  0  0  0  3  0  0  0  0  0  0
  187.6730  177.7090  146.4920 C   0  0  0  0  0  0  0  0  0  0  0  0
  184.1510  178.4550  145.1070 C   0  0  0  0  0  2  0  0  0  0  0  0
  189.1780  177.1520  144.6500 C   0  0  0  0  0  3  0  0  0  0  0  0
  186.9160  178.1500  144.0850 C   0  0  2  0  0  3  0  0  0  0  0  0
  182.1710  179.0160  143.2620 C   0  0  0  0  0  3  0  0  0  0  0  0
  182.9830  178.4440  140.3620 C   0  0  0  0  0  3  0  0  0  0  0  0
  180.8030  177.9970  141.4900 C   0  0  0  0  0  0  0  0  0  0  0  0
  183.4170  178.9770  142.7680 C   0  0  0  0  0  0  0  0  0  0  0  0
  184.9000  179.5820  140.9350 F   0  0  0  0  0  0  0  0  0  0  0  0
  181.6970  177.7410  140.5370 C   0  0  0  0  0  3  0  0  0  0  0  0
  183.7190  179.0310  141.3160 C   0  0  0  0  0  0  0  0  0  0  0  0
  179.5580  177.1870  141.5470 C   0  0  0  0  0  1  0  0  0  0  0  0
  180.9490  179.1550  142.4190 C   0  0  0  0  0  2  0  0  0  0  0  0
  188.5250  177.4160  142.2750 C   0  0  0  0  0  0  0  0  0  0  0  0
  187.8990  178.4120  141.5190 C   0  0  0  0  0  3  0  0  0  0  0  0
  190.0210  176.9660  140.4090 C   0  0  0  0  0  0  0  0  0  0  0  0
  188.3270  178.6860  140.2180 C   0  0  0  0  0  3  0  0  0  0  0  0
  190.2300  175.6910  142.4530 O   0  0  0  0  0  1  0  0  0  0  0  0
  189.5950  176.6860  141.7160 C   0  0  0  0  0  0  0  0  0  0  0  0
  191.3500  176.0780  139.6860 Cl  0  0  0  0  0  0  0  0  0  0  0  0
  189.3860  177.9640  139.6640 C   0  0  0  0  0  3  0  0  0  0  0  0
  1 21  1  6  0  0  0
  1 11  1  0  0  0  0
  1 10  1  0  0  0  0
  3 15  1  6  0  0  0
  3  9  1  0  0  0  0
  4  7  2  0  0  0  0
  4  8  1  0  0  0  0
  5  3  1  0  0  0  0
  6  8  1  0  0  0  0
  8  2  2  0  0  0  0
  9  7  1  0  0  0  0
 10  6  2  0  0  0  0
 11  5  1  6  0  0  0
 11  4  1  0  0  0  0
 13 17  1  0  0  0  0
 13 18  2  0  0  0  0
 14 19  1  0  0  0  0
 14 20  1  0  0  0  0
 15 12  2  0  0  0  0
 16 18  1  0  0  0  0
 17 14  2  0  0  0  0
 18 15  1  0  0  0  0
 20 12  1  0  0  0  0
 22 21  2  0  0  0  0
 23 26  2  0  0  0  0
 24 22  1  0  0  0  0
 26 21  1  0  0  0  0
 26 25  1  0  0  0  0
 27 23  1  0  0  0  0
 28 24  2  0  0  0  0
 28 23  1  0  0  0  0
M  END
>  <MODEL>
4

>  <REMARK>
 VINA RESULT:     -10.4      2.727      4.835
  Name = 
  2 active torsions:
  status: ('A' for Active; 'I' for Inactive)
    1  A    between atoms: C_1  and  C_2
    2  A    between atoms: C_10  and  C_13
                            x       y       z     vdW  Elec       q    Type
                         _______ _______ _______ _____ _____    ______ ____

>  <TORSDO>
F 2

$$$$
=
 OpenBabel11052413273D

 28 31  0  0  1  0  0  0  0  0999 V2000
  182.6860  178.7110  140.6810 C   0  0  1  0  0  3  0  0  0  0  0  0
  180.0840  179.5640  143.7910 O   0  0  0  0  0  0  0  0  0  0  0  0
  184.9690  178.0860  143.7370 C   0  0  2  0  0  3  0  0  0  0  0  0
  182.2990  178.9460  143.1580 C   0  0  0  0  0  0  0  0  0  0  0  0
  184.6220  178.4360  142.2960 C   0  0  0  0  0  2  0  0  0  0  0  0
  180.3570  178.9610  141.5230 C   0  0  0  0  0  3  0  0  0  0  0  0
  182.8140  179.2300  144.3630 C   0  0  0  0  0  3  0  0  0  0  0  0
  180.8690  179.1840  142.8820 C   0  0  0  0  0  0  0  0  0  0  0  0
  184.2710  179.0550  144.6940 C   0  0  0  0  0  2  0  0  0  0  0  0
  181.1860  178.7080  140.5070 C   0  0  0  0  0  3  0  0  0  0  0  0
  183.1180  178.2530  142.0850 C   0  0  2  0  0  3  0  0  0  0  0  0
  187.2710  177.9670  142.8990 C   0  0  0  0  0  3  0  0  0  0  0  0
  188.0200  177.5820  145.8470 C   0  0  0  0  0  3  0  0  0  0  0  0
  189.2840  176.8870  143.8110 C   0  0  0  0  0  0  0  0  0  0  0  0
  186.4530  178.0660  143.9570 C   0  0  0  0  0  0  0  0  0  0  0  0
  186.1570  178.8780  146.2320 F   0  0  0  0  0  0  0  0  0  0  0  0
  188.9880  176.7530  145.1030 C   0  0  0  0  0  3  0  0  0  0  0  0
  186.9390  178.2020  145.3520 C   0  0  0  0  0  0  0  0  0  0  0  0
  190.2710  175.9590  143.1980 C   0  0  0  0  0  1  0  0  0  0  0  0
  188.7590  178.0180  142.9930 C   0  0  0  0  0  2  0  0  0  0  0  0
  183.3470  177.9200  139.5870 C   0  0  0  0  0  0  0  0  0  0  0  0
  182.8560  176.6400  139.3090 C   0  0  0  0  0  3  0  0  0  0  0  0
  185.0000  177.6480  137.8210 C   0  0  0  0  0  0  0  0  0  0  0  0
  183.4310  175.8670  138.2980 C   0  0  0  0  0  3  0  0  0  0  0  0
  184.9310  179.7000  139.0990 O   0  0  0  0  0  1  0  0  0  0  0  0
  184.4280  178.4290  138.8370 C   0  0  0  0  0  0  0  0  0  0  0  0
  186.3440  178.2530  136.8690 Cl  0  0  0  0  0  0  0  0  0  0  0  0
  184.5000  176.3700  137.5550 C   0  0  0  0  0  3  0  0  0  0  0  0
  1 21  1  6  0  0  0
  1 11  1  0  0  0  0
  3 15  1  6  0  0  0
  3  9  1  0  0  0  0
  4  7  2  0  0  0  0
  5  3  1  0  0  0  0
  6  8  1  0  0  0  0
  7  9  1  0  0  0  0
  8  4  1  0  0  0  0
  8  2  2  0  0  0  0
 10  1  1  0  0  0  0
 10  6  2  0  0  0  0
 11  5  1  1  0  0  0
 11  4  1  0  0  0  0
 12 20  1  0  0  0  0
 12 15  2  0  0  0  0
 14 17  2  0  0  0  0
 15 18  1  0  0  0  0
 17 13  1  0  0  0  0
 18 13  2  0  0  0  0
 18 16  1  0  0  0  0
 19 14  1  0  0  0  0
 20 14  1  0  0  0  0
 22 21  1  0  0  0  0
 23 26  1  0  0  0  0
 24 22  2  0  0  0  0
 26 25  1  0  0  0  0
 26 21  2  0  0  0  0
 27 23  1  0  0  0  0
 28 23  2  0  0  0  0
 28 24  1  0  0  0  0
M  END
>  <MODEL>
5

>  <REMARK>
 VINA RESULT:     -10.3      3.652      6.853
  Name = 
  2 active torsions:
  status: ('A' for Active; 'I' for Inactive)
    1  A    between atoms: C_1  and  C_2
    2  A    between atoms: C_10  and  C_13
                            x       y       z     vdW  Elec       q    Type
                         _______ _______ _______ _____ _____    ______ ____

>  <TORSDO>
F 2

$$$$
=
 OpenBabel11052413273D

 28 31  0  0  1  0  0  0  0  0999 V2000
  186.4870  178.4820  144.8160 C   0  0  1  0  0  3  0  0  0  0  0  0
  189.2870  177.0400  147.5090 O   0  0  0  0  0  0  0  0  0  0  0  0
  189.2460  177.2420  142.4090 C   0  0  2  0  0  3  0  0  0  0  0  0
  188.7480  177.4510  145.2220 C   0  0  0  0  0  0  0  0  0  0  0  0
  188.0650  178.0870  142.8710 C   0  0  0  0  0  2  0  0  0  0  0  0
  187.0390  177.6340  147.0900 C   0  0  0  0  0  3  0  0  0  0  0  0
  190.0140  177.2960  144.8070 C   0  0  0  0  0  3  0  0  0  0  0  0
  188.4150  177.3580  146.6560 C   0  0  0  0  0  0  0  0  0  0  0  0
  190.4260  177.4240  143.3660 C   0  0  0  0  0  2  0  0  0  0  0  0
  186.1330  178.1210  146.2380 C   0  0  0  0  0  3  0  0  0  0  0  0
  187.6000  177.5880  144.2400 C   0  0  2  0  0  3  0  0  0  0  0  0
  188.7520  178.1930  140.2020 C   0  0  0  0  0  3  0  0  0  0  0  0
  191.3120  176.7530  139.3260 C   0  0  0  0  0  3  0  0  0  0  0  0
  189.3630  177.4580  137.9360 C   0  0  0  0  0  0  0  0  0  0  0  0
  189.6290  177.5590  140.9930 C   0  0  0  0  0  0  0  0  0  0  0  0
  191.9700  177.1260  141.4990 F   0  0  0  0  0  0  0  0  0  0  0  0
  190.4170  176.6730  138.1540 C   0  0  0  0  0  3  0  0  0  0  0  0
  190.9970  177.1840  140.5560 C   0  0  0  0  0  0  0  0  0  0  0  0
  188.5450  177.2420  136.7140 C   0  0  0  0  0  1  0  0  0  0  0  0
  189.0550  178.6280  138.8090 C   0  0  0  0  0  2  0  0  0  0  0  0
  185.2570  178.5020  143.9530 C   0  0  0  0  0  0  0  0  0  0  0  0
  185.4080  178.2530  142.5840 C   0  0  0  0  0  3  0  0  0  0  0  0
  182.8580  178.7500  143.6230 C   0  0  0  0  0  0  0  0  0  0  0  0
  184.2960  178.2530  141.7390 C   0  0  0  0  0  3  0  0  0  0  0  0
  183.8020  179.0030  145.8360 O   0  0  0  0  0  1  0  0  0  0  0  0
  183.9720  178.7520  144.4770 C   0  0  0  0  0  0  0  0  0  0  0  0
  181.2460  179.0560  144.2450 Cl  0  0  0  0  0  0  0  0  0  0  0  0
  183.0230  178.5000  142.2580 C   0  0  0  0  0  3  0  0  0  0  0  0
  1 21  1  6  0  0  0
  1 10  1  0  0  0  0
  3 15  1  6  0  0  0
  3  5  1  0  0  0  0
  3  9  1  0  0  0  0
  4  8  1  0  0  0  0
  7  4  2  0  0  0  0
  8  6  1  0  0  0  0
  8  2  2  0  0  0  0
  9  7  1  0  0  0  0
 10  6  2  0  0  0  0
 11  5  1  6  0  0  0
 11  1  1  0  0  0  0
 11  4  1  0  0  0  0
 12 15  2  0  0  0  0
 13 18  2  0  0  0  0
 14 17  2  0  0  0  0
 14 20  1  0  0  0  0
 17 13  1  0  0  0  0
 18 15  1  0  0  0  0
 18 16  1  0  0  0  0
 19 14  1  0  0  0  0
 20 12  1  0  0  0  0
 21 26  1  0  0  0  0
 22 21  2  0  0  0  0
 23 27  1  0  0  0  0
 23 26  2  0  0  0  0
 24 28  2  0  0  0  0
 24 22  1  0  0  0  0
 26 25  1  0  0  0  0
 28 23  1  0  0  0  0
M  END
>  <MODEL>
6

>  <REMARK>
 VINA RESULT:     -10.2      2.642      4.908
  Name = 
  2 active torsions:
  status: ('A' for Active; 'I' for Inactive)
    1  A    between atoms: C_1  and  C_2
    2  A    between atoms: C_10  and  C_13
                            x       y       z     vdW  Elec       q    Type
                         _______ _______ _______ _____ _____    ______ ____

>  <TORSDO>
F 2

$$$$
=
 OpenBabel11052413273D

 28 31  0  0  1  0  0  0  0  0999 V2000
  187.7390  177.4680  144.7240 C   0  0  1  0  0  3  0  0  0  0  0  0
  184.5560  178.3870  147.2110 O   0  0  0  0  0  0  0  0  0  0  0  0
  185.2850  179.0750  142.2060 C   0  0  2  0  0  3  0  0  0  0  0  0
  185.4100  178.3870  144.9840 C   0  0  0  0  0  0  0  0  0  0  0  0
  186.4230  178.1770  142.6750 C   0  0  0  0  0  2  0  0  0  0  0  0
  186.8590  177.9010  147.0110 C   0  0  0  0  0  3  0  0  0  0  0  0
  184.2060  178.5960  144.4310 C   0  0  0  0  0  3  0  0  0  0  0  0
  185.5440  178.2320  146.4450 C   0  0  0  0  0  0  0  0  0  0  0  0
  183.9950  178.7150  142.9460 C   0  0  0  0  0  2  0  0  0  0  0  0
  187.8870  177.5800  146.2220 C   0  0  0  0  0  3  0  0  0  0  0  0
  186.6830  178.4350  144.1600 C   0  0  2  0  0  3  0  0  0  0  0  0
  183.9160  179.3170  140.1850 C   0  0  0  0  0  3  0  0  0  0  0  0
  186.2410  177.8910  138.7870 C   0  0  0  0  0  3  0  0  0  0  0  0
  183.8460  178.0180  138.0980 C   0  0  0  0  0  0  0  0  0  0  0  0
  185.1060  179.0050  140.7180 C   0  0  0  0  0  0  0  0  0  0  0  0
  187.5180  178.9170  140.4030 F   0  0  0  0  0  0  0  0  0  0  0  0
  185.0330  177.4120  138.0880 C   0  0  0  0  0  3  0  0  0  0  0  0
  186.2890  178.6280  139.9050 C   0  0  0  0  0  0  0  0  0  0  0  0
  182.7150  177.3990  137.3570 C   0  0  0  0  0  1  0  0  0  0  0  0
  183.6500  179.3600  138.7180 C   0  0  0  0  0  2  0  0  0  0  0  0
  189.0740  177.6130  144.0480 C   0  0  0  0  0  0  0  0  0  0  0  0
  190.0800  178.3150  144.7180 C   0  0  0  0  0  3  0  0  0  0  0  0
  190.6070  177.2210  142.1990 C   0  0  0  0  0  0  0  0  0  0  0  0
  191.3400  178.4720  144.1370 C   0  0  0  0  0  3  0  0  0  0  0  0
  188.3500  176.3590  142.0930 O   0  0  0  0  0  1  0  0  0  0  0  0
  189.3390  177.0600  142.7770 C   0  0  0  0  0  0  0  0  0  0  0  0
  190.9690  176.5440  140.6210 Cl  0  0  0  0  0  0  0  0  0  0  0  0
  191.6040  177.9250  142.8800 C   0  0  0  0  0  3  0  0  0  0  0  0
  1 21  1  6  0  0  0
  1 10  1  0  0  0  0
  3 15  1  6  0  0  0
  3  5  1  0  0  0  0
  3  9  1  0  0  0  0
  4  8  1  0  0  0  0
  7  4  2  0  0  0  0
  8  6  1  0  0  0  0
  8  2  2  0  0  0  0
  9  7  1  0  0  0  0
 10  6  2  0  0  0  0
 11  5  1  6  0  0  0
 11  1  1  0  0  0  0
 11  4  1  0  0  0  0
 12 15  2  0  0  0  0
 13 18  2  0  0  0  0
 14 20  1  0  0  0  0
 17 14  2  0  0  0  0
 17 13  1  0  0  0  0
 18 16  1  0  0  0  0
 18 15  1  0  0  0  0
 19 14  1  0  0  0  0
 20 12  1  0  0  0  0
 21 22  1  0  0  0  0
 23 26  1  0  0  0  0
 23 28  2  0  0  0  0
 24 22  2  0  0  0  0
 25 26  1  0  0  0  0
 26 21  2  0  0  0  0
 27 23  1  0  0  0  0
 28 24  1  0  0  0  0
M  END
>  <MODEL>
7

>  <REMARK>
 VINA RESULT:     -10.0      2.126      2.625
  Name = 
  2 active torsions:
  status: ('A' for Active; 'I' for Inactive)
    1  A    between atoms: C_1  and  C_2
    2  A    between atoms: C_10  and  C_13
                            x       y       z     vdW  Elec       q    Type
                         _______ _______ _______ _____ _____    ______ ____

>  <TORSDO>
F 2

$$$$
=
 OpenBabel11052413273D

 28 31  0  0  1  0  0  0  0  0999 V2000
  190.7410  176.1670  138.2530 C   0  0  1  0  0  3  0  0  0  0  0  0
  194.1830  177.3720  140.2190 O   0  0  0  0  0  0  0  0  0  0  0  0
  189.2410  177.7860  141.4280 C   0  0  2  0  0  3  0  0  0  0  0  0
  191.8040  177.2220  140.2770 C   0  0  0  0  0  0  0  0  0  0  0  0
  189.3020  176.8500  140.2260 C   0  0  0  0  0  2  0  0  0  0  0  0
  193.1590  176.7530  138.1820 C   0  0  0  0  0  3  0  0  0  0  0  0
  191.7350  177.4700  141.5940 C   0  0  0  0  0  3  0  0  0  0  0  0
  193.1120  177.1280  139.6020 C   0  0  0  0  0  0  0  0  0  0  0  0
  190.4360  177.5310  142.3500 C   0  0  0  0  0  2  0  0  0  0  0  0
  192.0610  176.3400  137.5420 C   0  0  0  0  0  3  0  0  0  0  0  0
  190.5580  177.1620  139.4120 C   0  0  2  0  0  3  0  0  0  0  0  0
  186.8880  178.3890  141.7670 C   0  0  0  0  0  3  0  0  0  0  0  0
  187.1710  176.8440  144.4000 C   0  0  0  0  0  3  0  0  0  0  0  0
  185.5520  178.6510  143.8160 C   0  0  0  0  0  0  0  0  0  0  0  0
  187.9390  177.6560  142.1620 C   0  0  0  0  0  0  0  0  0  0  0  0
  188.7070  175.6030  143.2190 F   0  0  0  0  0  0  0  0  0  0  0  0
  186.2450  177.9510  144.7120 C   0  0  0  0  0  3  0  0  0  0  0  0
  187.8770  176.6750  143.2730 C   0  0  0  0  0  0  0  0  0  0  0  0
  184.6720  179.7530  144.2870 C   0  0  0  0  0  1  0  0  0  0  0  0
  185.5290  178.2810  142.3710 C   0  0  0  0  0  2  0  0  0  0  0  0
  189.6020  176.2070  137.2730 C   0  0  0  0  0  0  0  0  0  0  0  0
  189.1810  177.4560  136.8020 C   0  0  0  0  0  3  0  0  0  0  0  0
  187.9080  175.1370  135.8910 C   0  0  0  0  0  0  0  0  0  0  0  0
  188.1320  177.5480  135.8850 C   0  0  0  0  0  3  0  0  0  0  0  0
  189.3650  173.7870  137.2700 O   0  0  0  0  0  1  0  0  0  0  0  0
  188.9610  175.0380  136.8130 C   0  0  0  0  0  0  0  0  0  0  0  0
  187.0920  173.7020  135.2980 Cl  0  0  0  0  0  0  0  0  0  0  0  0
  187.4980  176.3910  135.4290 C   0  0  0  0  0  3  0  0  0  0  0  0
  1 21  1  6  0  0  0
  1 11  1  0  0  0  0
  3 15  1  1  0  0  0
  3  9  1  0  0  0  0
  4  7  2  0  0  0  0
  5  3  1  0  0  0  0
  6  8  1  0  0  0  0
  7  9  1  0  0  0  0
  8  2  2  0  0  0  0
  8  4  1  0  0  0  0
 10  6  2  0  0  0  0
 10  1  1  0  0  0  0
 11  5  1  1  0  0  0
 11  4  1  0  0  0  0
 12 15  2  0  0  0  0
 12 20  1  0  0  0  0
 13 17  1  0  0  0  0
 14 19  1  0  0  0  0
 14 17  2  0  0  0  0
 15 18  1  0  0  0  0
 16 18  1  0  0  0  0
 18 13  2  0  0  0  0
 20 14  1  0  0  0  0
 22 21  2  0  0  0  0
 23 26  2  0  0  0  0
 24 22  1  0  0  0  0
 26 25  1  0  0  0  0
 26 21  1  0  0  0  0
 27 23  1  0  0  0  0
 28 24  2  0  0  0  0
 28 23  1  0  0  0  0
M  END
>  <MODEL>
8

>  <REMARK>
 VINA RESULT:      -9.9      4.226      8.081
  Name = 
  2 active torsions:
  status: ('A' for Active; 'I' for Inactive)
    1  A    between atoms: C_1  and  C_2
    2  A    between atoms: C_10  and  C_13
                            x       y       z     vdW  Elec       q    Type
                         _______ _______ _______ _____ _____    ______ ____

>  <TORSDO>
F 2

$$$$
=
 OpenBabel11052413273D

 28 31  0  0  1  0  0  0  0  0999 V2000
  187.6510  177.3820  143.6830 C   0  0  1  0  0  3  0  0  0  0  0  0
  187.0250  178.2250  147.6920 O   0  0  0  0  0  0  0  0  0  0  0  0
  184.0720  178.8410  143.5740 C   0  0  2  0  0  3  0  0  0  0  0  0
  186.1070  178.2140  145.4900 C   0  0  0  0  0  0  0  0  0  0  0  0
  185.2560  177.9970  143.1180 C   0  0  0  0  0  2  0  0  0  0  0  0
  188.5730  177.8260  145.9520 C   0  0  0  0  0  3  0  0  0  0  0  0
  184.8460  178.3650  145.9230 C   0  0  0  0  0  3  0  0  0  0  0  0
  187.2180  178.0940  146.4540 C   0  0  0  0  0  0  0  0  0  0  0  0
  183.6650  178.4460  144.9950 C   0  0  0  0  0  2  0  0  0  0  0  0
  188.7860  177.5300  144.6670 C   0  0  0  0  0  3  0  0  0  0  0  0
  186.4580  178.2950  144.0160 C   0  0  2  0  0  3  0  0  0  0  0  0
  183.1530  178.3810  141.3470 C   0  0  0  0  0  3  0  0  0  0  0  0
  180.5710  179.5840  142.4800 C   0  0  0  0  0  3  0  0  0  0  0  0
  181.3040  179.4190  140.1000 C   0  0  0  0  0  0  0  0  0  0  0  0
  182.9200  178.7340  142.6200 C   0  0  0  0  0  0  0  0  0  0  0  0
  181.3450  178.7370  144.4750 F   0  0  0  0  0  0  0  0  0  0  0  0
  180.5860  179.9970  141.0630 C   0  0  0  0  0  3  0  0  0  0  0  0
  181.5610  178.9870  143.1590 C   0  0  0  0  0  0  0  0  0  0  0  0
  181.2270  179.9640  138.7190 C   0  0  0  0  0  1  0  0  0  0  0  0
  182.0780  178.1660  140.3360 C   0  0  0  0  0  2  0  0  0  0  0  0
  188.1430  177.5660  142.2750 C   0  0  0  0  0  0  0  0  0  0  0  0
  187.4590  178.4650  141.4500 C   0  0  0  0  0  3  0  0  0  0  0  0
  189.6830  177.0920  140.4510 C   0  0  0  0  0  0  0  0  0  0  0  0
  187.8800  178.6770  140.1350 C   0  0  0  0  0  3  0  0  0  0  0  0
  189.9570  175.9740  142.5780 O   0  0  0  0  0  1  0  0  0  0  0  0
  189.2640  176.8730  141.7720 C   0  0  0  0  0  0  0  0  0  0  0  0
  191.0750  176.2480  139.7960 Cl  0  0  0  0  0  0  0  0  0  0  0  0
  188.9900  177.9930  139.6370 C   0  0  0  0  0  3  0  0  0  0  0  0
  1 21  1  6  0  0  0
  1 11  1  0  0  0  0
  1 10  1  0  0  0  0
  3 15  1  6  0  0  0
  3  9  1  0  0  0  0
  4  7  2  0  0  0  0
  4  8  1  0  0  0  0
  5  3  1  0  0  0  0
  6  8  1  0  0  0  0
  8  2  2  0  0  0  0
  9  7  1  0  0  0  0
 10  6  2  0  0  0  0
 11  5  1  6  0  0  0
 11  4  1  0  0  0  0
 12 15  2  0  0  0  0
 13 18  2  0  0  0  0
 14 20  1  0  0  0  0
 14 17  2  0  0  0  0
 15 18  1  0  0  0  0
 17 13  1  0  0  0  0
 18 16  1  0  0  0  0
 19 14  1  0  0  0  0
 20 12  1  0  0  0  0
 22 21  2  0  0  0  0
 23 26  2  0  0  0  0
 24 22  1  0  0  0  0
 26 21  1  0  0  0  0
 26 25  1  0  0  0  0
 27 23  1  0  0  0  0
 28 24  2  0  0  0  0
 28 23  1  0  0  0  0
M  END
>  <MODEL>
9

>  <REMARK>
 VINA RESULT:      -9.8      3.133      5.103
  Name = 
  2 active torsions:
  status: ('A' for Active; 'I' for Inactive)
    1  A    between atoms: C_1  and  C_2
    2  A    between atoms: C_10  and  C_13
                            x       y       z     vdW  Elec       q    Type
                         _______ _______ _______ _____ _____    ______ ____

>  <TORSDO>
F 2

$$$$
