=
 OpenBabel11052412293D

 30 33  0  0  1  0  0  0  0  0999 V2000
  189.6850  177.7360  140.5710 C   0  0  0  0  0  2  0  0  0  0  0  0
  190.0910  176.3010  138.5350 C   0  0  0  0  0  0  0  0  0  0  0  0
  185.3780  178.5180  139.1580 S   0  0  0  0  0  0  0  0  0  0  0  0
  188.6390  178.3830  141.5190 C   0  0  1  0  0  3  0  0  0  0  0  0
  185.0240  179.0610  140.8760 C   0  0  1  0  0  3  0  0  0  0  0  0
  189.9410  176.3780  137.0750 C   0  0  0  0  0  3  0  0  0  0  0  0
  191.0610  175.6650  139.0250 O   0  0  0  0  0  0  0  0  0  0  0  0
  187.1340  178.6450  139.5260 C   0  0  1  0  0  3  0  0  0  0  0  0
  188.9530  177.0850  136.5310 C   0  0  0  0  0  3  0  0  0  0  0  0
  189.0500  176.9070  139.4410 C   0  0  2  0  0  3  0  0  0  0  0  0
  187.2100  178.2570  140.9760 C   0  0  2  0  0  3  0  0  0  0  0  0
  183.9970  178.1390  141.5020 C   0  0  0  0  0  1  0  0  0  0  0  0
  186.2440  179.0700  141.6880 N   0  0  0  0  0  2  0  0  0  0  0  0
  187.9940  177.8270  137.3680 C   0  0  0  0  0  3  0  0  0  0  0  0
  188.0210  177.7520  138.7050 C   0  0  0  0  0  0  0  0  0  0  0  0
  188.7160  177.8260  142.9510 C   0  0  2  0  0  3  0  0  0  0  0  0
  190.6420  179.0680  144.0470 C   0  0  0  0  0  1  0  0  0  0  0  0
  190.1460  177.7270  143.5170 C   0  0  1  0  0  3  0  0  0  0  0  0
  191.5970  175.9210  144.4670 C   0  0  0  0  0  2  0  0  0  0  0  0
  190.3140  177.2190  145.9680 C   0  0  0  0  0  2  0  0  0  0  0  0
  190.2690  176.6280  144.5790 C   0  0  0  0  0  3  0  0  0  0  0  0
  192.1950  175.9210  145.7920 N   0  0  0  0  0  2  0  0  0  0  0  0
  191.6660  177.0320  146.4700 N   0  0  0  0  0  2  0  0  0  0  0  0
  187.9140  176.5410  143.1400 C   0  0  0  0  0  2  0  0  0  0  0  0
  186.7360  176.7850  144.0660 C   0  0  0  0  0  2  0  0  0  0  0  0
  186.9670  178.0340  144.8950 C   0  0  0  0  0  2  0  0  0  0  0  0
  186.5840  177.7860  146.3430 C   0  0  0  0  0  2  0  0  0  0  0  0
  184.3510  178.6100  146.3910 O   0  0  0  0  0  0  0  0  0  0  0  0
  185.5430  178.7620  146.7640 C   0  0  0  0  0  0  0  0  0  0  0  0
  185.8790  179.8200  147.5970 O   0  0  0  0  0  1  0  0  0  0  0  0
  1  4  1  0  0  0  0
  2  7  2  0  0  0  0
  2 10  1  0  0  0  0
  3  8  1  0  0  0  0
  3  5  1  0  0  0  0
  4 16  1  1  0  0  0
  5 12  1  1  0  0  0
  5 13  1  0  0  0  0
  6  2  1  0  0  0  0
  8 15  1  6  0  0  0
  8 11  1  0  0  0  0
  9  6  2  0  0  0  0
  9 14  1  0  0  0  0
 10  1  1  1  0  0  0
 11  4  1  0  0  0  0
 11 13  1  1  0  0  0
 14 15  2  0  0  0  0
 15 10  1  0  0  0  0
 16 24  1  6  0  0  0
 16 18  1  0  0  0  0
 18 17  1  1  0  0  0
 18 21  1  0  0  0  0
 19 21  1  0  0  0  0
 19 22  1  0  0  0  0
 20 23  1  0  0  0  0
 21 20  1  0  0  0  0
 22 23  1  0  0  0  0
 24 25  1  0  0  0  0
 25 26  1  0  0  0  0
 26 27  1  0  0  0  0
 27 29  1  0  0  0  0
 28 29  2  0  0  0  0
 29 30  1  0  0  0  0
M  END
>  <MODEL>
1

>  <REMARK>
 VINA RESULT:      -8.0      0.000      0.000
  Name = 
  8 active torsions:
  status: ('A' for Active; 'I' for Inactive)
    1  A    between atoms: C_4  and  C_13
    2  A    between atoms: C_7  and  C_15
    3  A    between atoms: C_7  and  C_16
    4  A    between atoms: C_8  and  C_12
    5  A    between atoms: C_8  and  C_13
    6  A    between atoms: C_13  and  C_27
    7  A    between atoms: C_16  and  C_30
    8  A    between atoms: C_27  and  C_30
                            x       y       z     vdW  Elec       q    Type
                         _______ _______ _______ _____ _____    ______ ____

>  <TORSDO>
F 8

$$$$
=
 OpenBabel11052412293D

 30 33  0  0  1  0  0  0  0  0999 V2000
  187.6160  177.5760  140.2190 C   0  0  0  0  0  2  0  0  0  0  0  0
  188.4450  178.1550  137.9070 C   0  0  0  0  0  0  0  0  0  0  0  0
  191.9500  177.5380  141.7610 S   0  0  0  0  0  0  0  0  0  0  0  0
  187.9210  177.5480  141.7410 C   0  0  1  0  0  3  0  0  0  0  0  0
  191.2400  177.6640  143.4500 C   0  0  1  0  0  3  0  0  0  0  0  0
  189.4280  177.6720  136.9260 C   0  0  0  0  0  3  0  0  0  0  0  0
  187.3540  178.6370  137.5030 O   0  0  0  0  0  0  0  0  0  0  0  0
  190.3190  177.0820  141.1560 C   0  0  1  0  0  3  0  0  0  0  0  0
  190.5670  177.1130  137.3290 C   0  0  0  0  0  3  0  0  0  0  0  0
  188.7700  178.1500  139.3780 C   0  0  2  0  0  3  0  0  0  0  0  0
  189.3920  177.8650  142.0420 C   0  0  2  0  0  3  0  0  0  0  0  0
  191.6740  178.9680  144.0900 C   0  0  0  0  0  1  0  0  0  0  0  0
  189.7760  177.5910  143.4130 N   0  0  0  0  0  2  0  0  0  0  0  0
  190.8700  176.9410  138.7600 C   0  0  0  0  0  3  0  0  0  0  0  0
  190.0590  177.4160  139.7130 C   0  0  0  0  0  0  0  0  0  0  0  0
  186.9990  178.4800  142.5460 C   0  0  2  0  0  3  0  0  0  0  0  0
  186.9440  176.4320  144.0490 C   0  0  0  0  0  1  0  0  0  0  0  0
  186.4230  177.8490  143.8280 C   0  0  1  0  0  3  0  0  0  0  0  0
  185.3540  179.1870  145.6550 C   0  0  0  0  0  2  0  0  0  0  0  0
  187.2870  177.9330  146.1810 C   0  0  0  0  0  2  0  0  0  0  0  0
  186.6630  178.7290  145.0600 C   0  0  0  0  0  3  0  0  0  0  0  0
  185.3960  178.8720  147.0740 N   0  0  0  0  0  2  0  0  0  0  0  0
  186.2770  177.7870  147.2180 N   0  0  0  0  0  2  0  0  0  0  0  0
  185.9330  179.1570  141.6880 C   0  0  0  0  0  2  0  0  0  0  0  0
  184.5470  178.7150  142.1220 C   0  0  0  0  0  2  0  0  0  0  0  0
  183.7870  178.1350  140.9440 C   0  0  0  0  0  2  0  0  0  0  0  0
  184.3800  178.6300  139.6360 C   0  0  0  0  0  2  0  0  0  0  0  0
  184.0070  180.8440  138.8460 O   0  0  0  0  0  1  0  0  0  0  0  0
  183.5230  179.7040  139.0670 C   0  0  0  0  0  0  0  0  0  0  0  0
  182.1980  179.4390  138.7480 O   0  0  0  0  0  0  0  0  0  0  0  0
  1  4  1  0  0  0  0
  2 10  1  0  0  0  0
  3  5  1  0  0  0  0
  4 11  1  0  0  0  0
  4 16  1  1  0  0  0
  5 12  1  6  0  0  0
  6  9  2  0  0  0  0
  6  2  1  0  0  0  0
  7  2  2  0  0  0  0
  8 15  1  6  0  0  0
  8  3  1  0  0  0  0
  8 11  1  0  0  0  0
  9 14  1  0  0  0  0
 10 15  1  0  0  0  0
 10  1  1  1  0  0  0
 11 13  1  1  0  0  0
 13  5  1  0  0  0  0
 14 15  2  0  0  0  0
 16 24  1  6  0  0  0
 16 18  1  0  0  0  0
 18 17  1  1  0  0  0
 18 21  1  0  0  0  0
 19 22  1  0  0  0  0
 20 23  1  0  0  0  0
 21 19  1  0  0  0  0
 21 20  1  0  0  0  0
 22 23  1  0  0  0  0
 24 25  1  0  0  0  0
 26 25  1  0  0  0  0
 27 26  1  0  0  0  0
 28 29  1  0  0  0  0
 29 27  1  0  0  0  0
 30 29  2  0  0  0  0
M  END
>  <MODEL>
2

>  <REMARK>
 VINA RESULT:      -6.9      3.188      5.121
  Name = 
  8 active torsions:
  status: ('A' for Active; 'I' for Inactive)
    1  A    between atoms: C_4  and  C_13
    2  A    between atoms: C_7  and  C_15
    3  A    between atoms: C_7  and  C_16
    4  A    between atoms: C_8  and  C_12
    5  A    between atoms: C_8  and  C_13
    6  A    between atoms: C_13  and  C_27
    7  A    between atoms: C_16  and  C_30
    8  A    between atoms: C_27  and  C_30
                            x       y       z     vdW  Elec       q    Type
                         _______ _______ _______ _____ _____    ______ ____

>  <TORSDO>
F 8

$$$$
=
 OpenBabel11052412293D

 30 33  0  0  1  0  0  0  0  0999 V2000
  185.2630  178.7520  141.1680 C   0  0  0  0  0  2  0  0  0  0  0  0
  182.8880  178.0380  140.7040 C   0  0  0  0  0  0  0  0  0  0  0  0
  184.4300  178.5750  145.6880 S   0  0  0  0  0  0  0  0  0  0  0  0
  186.4250  178.8170  142.1960 C   0  0  1  0  0  3  0  0  0  0  0  0
  186.2520  178.5550  145.9180 C   0  0  1  0  0  3  0  0  0  0  0  0
  181.5190  178.4210  141.0780 C   0  0  0  0  0  3  0  0  0  0  0  0
  183.1140  177.6110  139.5410 O   0  0  0  0  0  0  0  0  0  0  0  0
  184.6920  179.1100  143.9920 C   0  0  1  0  0  3  0  0  0  0  0  0
  181.2630  178.9230  142.2860 C   0  0  0  0  0  3  0  0  0  0  0  0
  183.9970  178.0770  141.7230 C   0  0  2  0  0  3  0  0  0  0  0  0
  185.9710  178.4200  143.6070 C   0  0  2  0  0  3  0  0  0  0  0  0
  186.6710  177.2520  146.5670 C   0  0  0  0  0  1  0  0  0  0  0  0
  186.9460  178.7190  144.6370 N   0  0  0  0  0  2  0  0  0  0  0  0
  182.3380  179.1280  143.2720 C   0  0  0  0  0  3  0  0  0  0  0  0
  183.5970  178.7400  143.0320 C   0  0  0  0  0  0  0  0  0  0  0  0
  187.6390  177.9750  141.7700 C   0  0  2  0  0  3  0  0  0  0  0  0
  188.4300  176.0150  143.1790 C   0  0  0  0  0  1  0  0  0  0  0  0
  188.5340  177.5180  142.9370 C   0  0  1  0  0  3  0  0  0  0  0  0
  190.4330  178.8590  143.8700 C   0  0  0  0  0  2  0  0  0  0  0  0
  190.9290  176.7740  142.8750 C   0  0  0  0  0  2  0  0  0  0  0  0
  189.9930  177.9510  142.7480 C   0  0  0  0  0  3  0  0  0  0  0  0
  191.6770  178.3190  144.3940 N   0  0  0  0  0  2  0  0  0  0  0  0
  191.6630  176.9410  144.1200 N   0  0  0  0  0  2  0  0  0  0  0  0
  188.4320  178.6020  140.6260 C   0  0  0  0  0  2  0  0  0  0  0  0
  188.2820  177.7720  139.3630 C   0  0  0  0  0  2  0  0  0  0  0  0
  189.6200  177.6350  138.6610 C   0  0  0  0  0  2  0  0  0  0  0  0
  190.4430  176.5310  139.3000 C   0  0  0  0  0  2  0  0  0  0  0  0
  192.1920  176.6270  137.6880 O   0  0  0  0  0  0  0  0  0  0  0  0
  191.3410  175.9180  138.2860 C   0  0  0  0  0  0  0  0  0  0  0  0
  191.2660  174.5570  138.0230 O   0  0  0  0  0  1  0  0  0  0  0  0
  1  4  1  0  0  0  0
  2  6  1  0  0  0  0
  2 10  1  0  0  0  0
  3  5  1  0  0  0  0
  4 16  1  6  0  0  0
  4 11  1  0  0  0  0
  5 12  1  6  0  0  0
  6  9  2  0  0  0  0
  7  2  2  0  0  0  0
  8 15  1  6  0  0  0
  8  3  1  0  0  0  0
  9 14  1  0  0  0  0
 10  1  1  6  0  0  0
 10 15  1  0  0  0  0
 11  8  1  0  0  0  0
 11 13  1  1  0  0  0
 13  5  1  0  0  0  0
 15 14  2  0  0  0  0
 16 24  1  6  0  0  0
 16 18  1  0  0  0  0
 18 17  1  6  0  0  0
 19 22  1  0  0  0  0
 20 23  1  0  0  0  0
 21 20  1  0  0  0  0
 21 18  1  0  0  0  0
 21 19  1  0  0  0  0
 23 22  1  0  0  0  0
 25 24  1  0  0  0  0
 26 27  1  0  0  0  0
 26 25  1  0  0  0  0
 28 29  2  0  0  0  0
 29 27  1  0  0  0  0
 30 29  1  0  0  0  0
M  END
>  <MODEL>
3

>  <REMARK>
 VINA RESULT:      -6.8      2.806      6.428
  Name = 
  8 active torsions:
  status: ('A' for Active; 'I' for Inactive)
    1  A    between atoms: C_4  and  C_13
    2  A    between atoms: C_7  and  C_15
    3  A    between atoms: C_7  and  C_16
    4  A    between atoms: C_8  and  C_12
    5  A    between atoms: C_8  and  C_13
    6  A    between atoms: C_13  and  C_27
    7  A    between atoms: C_16  and  C_30
    8  A    between atoms: C_27  and  C_30
                            x       y       z     vdW  Elec       q    Type
                         _______ _______ _______ _____ _____    ______ ____

>  <TORSDO>
F 8

$$$$
=
 OpenBabel11052412293D

 30 33  0  0  1  0  0  0  0  0999 V2000
  187.1200  178.8760  141.2890 C   0  0  0  0  0  2  0  0  0  0  0  0
  184.9300  178.1970  142.3400 C   0  0  0  0  0  0  0  0  0  0  0  0
  189.3900  177.0760  144.8620 S   0  0  0  0  0  0  0  0  0  0  0  0
  188.6580  178.6640  141.2330 C   0  0  1  0  0  3  0  0  0  0  0  0
  190.8850  177.1110  143.7970 C   0  0  1  0  0  3  0  0  0  0  0  0
  184.2270  178.3250  143.6240 C   0  0  0  0  0  3  0  0  0  0  0  0
  184.2680  178.2190  141.2690 O   0  0  0  0  0  0  0  0  0  0  0  0
  188.5860  178.1860  143.6980 C   0  0  1  0  0  3  0  0  0  0  0  0
  184.9080  178.3550  144.7690 C   0  0  0  0  0  3  0  0  0  0  0  0
  186.4170  177.9590  142.3050 C   0  0  2  0  0  3  0  0  0  0  0  0
  189.1590  177.7680  142.3730 C   0  0  2  0  0  3  0  0  0  0  0  0
  191.3770  175.6970  143.5610 C   0  0  0  0  0  1  0  0  0  0  0  0
  190.6020  177.7610  142.5130 N   0  0  0  0  0  2  0  0  0  0  0  0
  186.3790  178.2820  144.7850 C   0  0  0  0  0  3  0  0  0  0  0  0
  187.0860  178.0950  143.6640 C   0  0  0  0  0  0  0  0  0  0  0  0
  189.1290  178.1140  139.8760 C   0  0  2  0  0  3  0  0  0  0  0  0
  189.1210  179.1740  137.5670 C   0  0  0  0  0  1  0  0  0  0  0  0
  188.2720  178.5630  138.6780 C   0  0  1  0  0  3  0  0  0  0  0  0
  185.9430  177.8520  138.0920 C   0  0  0  0  0  2  0  0  0  0  0  0
  187.7080  177.1270  136.6990 C   0  0  0  0  0  2  0  0  0  0  0  0
  187.3900  177.4280  138.1440 C   0  0  0  0  0  3  0  0  0  0  0  0
  185.4570  177.5530  136.7550 N   0  0  0  0  0  2  0  0  0  0  0  0
  186.5760  177.5810  135.9070 N   0  0  0  0  0  2  0  0  0  0  0  0
  189.3810  176.6080  139.8930 C   0  0  0  0  0  2  0  0  0  0  0  0
  190.7650  176.2980  139.3500 C   0  0  0  0  0  2  0  0  0  0  0  0
  190.6590  175.5400  138.0400 C   0  0  0  0  0  2  0  0  0  0  0  0
  191.5810  176.1500  136.9990 C   0  0  0  0  0  2  0  0  0  0  0  0
  193.7760  176.9320  137.4880 O   0  0  0  0  0  0  0  0  0  0  0  0
  192.9990  175.9460  137.3990 C   0  0  0  0  0  0  0  0  0  0  0  0
  193.4570  174.6730  137.7070 O   0  0  0  0  0  1  0  0  0  0  0  0
  2  6  1  0  0  0  0
  4 16  1  6  0  0  0
  4  1  1  0  0  0  0
  4 11  1  0  0  0  0
  5 12  1  6  0  0  0
  5  3  1  0  0  0  0
  6  9  2  0  0  0  0
  7  2  2  0  0  0  0
  8 15  1  6  0  0  0
  8  3  1  0  0  0  0
  9 14  1  0  0  0  0
 10  1  1  6  0  0  0
 10  2  1  0  0  0  0
 10 15  1  0  0  0  0
 11 13  1  1  0  0  0
 11  8  1  0  0  0  0
 13  5  1  0  0  0  0
 15 14  2  0  0  0  0
 16 24  1  1  0  0  0
 18 17  1  6  0  0  0
 18 16  1  0  0  0  0
 19 21  1  0  0  0  0
 20 21  1  0  0  0  0
 21 18  1  0  0  0  0
 22 19  1  0  0  0  0
 23 20  1  0  0  0  0
 23 22  1  0  0  0  0
 25 24  1  0  0  0  0
 26 25  1  0  0  0  0
 27 29  1  0  0  0  0
 27 26  1  0  0  0  0
 29 28  2  0  0  0  0
 29 30  1  0  0  0  0
M  END
>  <MODEL>
4

>  <REMARK>
 VINA RESULT:      -6.7      2.751      7.938
  Name = 
  8 active torsions:
  status: ('A' for Active; 'I' for Inactive)
    1  A    between atoms: C_4  and  C_13
    2  A    between atoms: C_7  and  C_15
    3  A    between atoms: C_7  and  C_16
    4  A    between atoms: C_8  and  C_12
    5  A    between atoms: C_8  and  C_13
    6  A    between atoms: C_13  and  C_27
    7  A    between atoms: C_16  and  C_30
    8  A    between atoms: C_27  and  C_30
                            x       y       z     vdW  Elec       q    Type
                         _______ _______ _______ _____ _____    ______ ____

>  <TORSDO>
F 8

$$$$
=
 OpenBabel11052412293D

 30 33  0  0  1  0  0  0  0  0999 V2000
  185.2050  178.6190  141.0600 C   0  0  0  0  0  2  0  0  0  0  0  0
  182.8350  177.8950  140.5840 C   0  0  0  0  0  0  0  0  0  0  0  0
  184.2940  178.6330  145.5680 S   0  0  0  0  0  0  0  0  0  0  0  0
  186.3490  178.7230  142.1040 C   0  0  1  0  0  3  0  0  0  0  0  0
  186.1120  178.6170  145.8300 C   0  0  1  0  0  3  0  0  0  0  0  0
  181.4620  178.2980  140.9190 C   0  0  0  0  0  3  0  0  0  0  0  0
  183.0790  177.4190  139.4450 O   0  0  0  0  0  0  0  0  0  0  0  0
  184.5870  179.0960  143.8560 C   0  0  1  0  0  3  0  0  0  0  0  0
  181.1870  178.8510  142.1000 C   0  0  0  0  0  3  0  0  0  0  0  0
  183.9260  177.9720  141.6210 C   0  0  2  0  0  3  0  0  0  0  0  0
  185.8690  178.3860  143.5220 C   0  0  2  0  0  3  0  0  0  0  0  0
  186.5140  177.3400  146.5400 C   0  0  0  0  0  1  0  0  0  0  0  0
  186.8280  178.7250  144.5550 N   0  0  0  0  0  2  0  0  0  0  0  0
  182.2450  179.0920  143.0950 C   0  0  0  0  0  3  0  0  0  0  0  0
  183.5070  178.6910  142.8930 C   0  0  0  0  0  0  0  0  0  0  0  0
  187.5670  177.8600  141.7350 C   0  0  2  0  0  3  0  0  0  0  0  0
  188.4610  176.0030  143.2200 C   0  0  0  0  0  1  0  0  0  0  0  0
  188.4740  177.5000  142.9260 C   0  0  1  0  0  3  0  0  0  0  0  0
  190.3790  178.7460  143.9700 C   0  0  0  0  0  2  0  0  0  0  0  0
  190.8840  176.8750  142.6190 C   0  0  0  0  0  2  0  0  0  0  0  0
  189.9050  178.0180  142.7370 C   0  0  0  0  0  3  0  0  0  0  0  0
  191.6680  178.1790  144.3330 N   0  0  0  0  0  2  0  0  0  0  0  0
  191.6820  176.8650  143.8350 N   0  0  0  0  0  2  0  0  0  0  0  0
  188.3470  178.4030  140.5390 C   0  0  0  0  0  2  0  0  0  0  0  0
  188.6880  177.2780  139.5770 C   0  0  0  0  0  2  0  0  0  0  0  0
  189.6300  177.7780  138.4970 C   0  0  0  0  0  2  0  0  0  0  0  0
  189.0510  179.0070  137.8180 C   0  0  0  0  0  2  0  0  0  0  0  0
  186.7710  178.9990  137.1350 O   0  0  0  0  0  1  0  0  0  0  0  0
  187.9450  178.6070  136.9080 C   0  0  0  0  0  0  0  0  0  0  0  0
  188.2130  177.8310  135.7890 O   0  0  0  0  0  0  0  0  0  0  0  0
  1  4  1  0  0  0  0
  2  6  1  0  0  0  0
  2 10  1  0  0  0  0
  3  5  1  0  0  0  0
  4 16  1  6  0  0  0
  4 11  1  0  0  0  0
  5 12  1  6  0  0  0
  6  9  2  0  0  0  0
  7  2  2  0  0  0  0
  8 15  1  6  0  0  0
  8  3  1  0  0  0  0
  9 14  1  0  0  0  0
 10  1  1  6  0  0  0
 10 15  1  0  0  0  0
 11  8  1  0  0  0  0
 11 13  1  1  0  0  0
 13  5  1  0  0  0  0
 15 14  2  0  0  0  0
 16 24  1  6  0  0  0
 16 18  1  0  0  0  0
 18 17  1  6  0  0  0
 19 22  1  0  0  0  0
 20 21  1  0  0  0  0
 20 23  1  0  0  0  0
 21 18  1  0  0  0  0
 21 19  1  0  0  0  0
 23 22  1  0  0  0  0
 25 24  1  0  0  0  0
 26 25  1  0  0  0  0
 27 26  1  0  0  0  0
 29 28  1  0  0  0  0
 29 27  1  0  0  0  0
 30 29  2  0  0  0  0
M  END
>  <MODEL>
5

>  <REMARK>
 VINA RESULT:      -6.6      2.944      6.292
  Name = 
  8 active torsions:
  status: ('A' for Active; 'I' for Inactive)
    1  A    between atoms: C_4  and  C_13
    2  A    between atoms: C_7  and  C_15
    3  A    between atoms: C_7  and  C_16
    4  A    between atoms: C_8  and  C_12
    5  A    between atoms: C_8  and  C_13
    6  A    between atoms: C_13  and  C_27
    7  A    between atoms: C_16  and  C_30
    8  A    between atoms: C_27  and  C_30
                            x       y       z     vdW  Elec       q    Type
                         _______ _______ _______ _____ _____    ______ ____

>  <TORSDO>
F 8

$$$$
=
 OpenBabel11052412293D

 30 33  0  0  1  0  0  0  0  0999 V2000
  188.0070  178.5350  140.8310 C   0  0  0  0  0  2  0  0  0  0  0  0
  189.5210  177.7370  138.9770 C   0  0  0  0  0  0  0  0  0  0  0  0
  184.3500  177.9070  138.1120 S   0  0  0  0  0  0  0  0  0  0  0  0
  186.5660  178.5700  141.4100 C   0  0  1  0  0  3  0  0  0  0  0  0
  183.3340  177.9660  139.6400 C   0  0  1  0  0  3  0  0  0  0  0  0
  189.7750  178.0110  137.5550 C   0  0  0  0  0  3  0  0  0  0  0  0
  190.4830  177.4290  139.7290 O   0  0  0  0  0  0  0  0  0  0  0  0
  185.7190  178.6060  139.0460 C   0  0  1  0  0  3  0  0  0  0  0  0
  188.7830  178.3870  136.7500 C   0  0  0  0  0  3  0  0  0  0  0  0
  188.1140  177.7440  139.5150 C   0  0  2  0  0  3  0  0  0  0  0  0
  185.5310  178.0240  140.4180 C   0  0  2  0  0  3  0  0  0  0  0  0
  182.6400  176.6350  139.8430 C   0  0  0  0  0  1  0  0  0  0  0  0
  184.1600  178.2820  140.8100 N   0  0  0  0  0  2  0  0  0  0  0  0
  187.4120  178.5610  137.2580 C   0  0  0  0  0  3  0  0  0  0  0  0
  187.0860  178.2650  138.5220 C   0  0  0  0  0  0  0  0  0  0  0  0
  186.4530  177.8370  142.7570 C   0  0  2  0  0  3  0  0  0  0  0  0
  185.0490  179.7660  143.6290 C   0  0  0  0  0  1  0  0  0  0  0  0
  186.1440  178.7550  143.9550 C   0  0  1  0  0  3  0  0  0  0  0  0
  186.9670  177.9660  146.1850 C   0  0  0  0  0  2  0  0  0  0  0  0
  184.7050  178.6270  146.0050 C   0  0  0  0  0  2  0  0  0  0  0  0
  185.8070  177.9580  145.2200 C   0  0  0  0  0  3  0  0  0  0  0  0
  186.4440  178.3800  147.4770 N   0  0  0  0  0  2  0  0  0  0  0  0
  185.3050  179.1600  147.2180 N   0  0  0  0  0  2  0  0  0  0  0  0
  187.6180  176.8870  143.0250 C   0  0  0  0  0  2  0  0  0  0  0  0
  188.8260  177.6610  143.5230 C   0  0  0  0  0  2  0  0  0  0  0  0
  189.7380  176.7530  144.3270 C   0  0  0  0  0  2  0  0  0  0  0  0
  190.6820  177.5770  145.1860 C   0  0  0  0  0  2  0  0  0  0  0  0
  192.0550  176.7450  146.9430 O   0  0  0  0  0  0  0  0  0  0  0  0
  190.8900  176.9040  146.4960 C   0  0  0  0  0  0  0  0  0  0  0  0
  189.7980  176.4810  147.2410 O   0  0  0  0  0  1  0  0  0  0  0  0
  1  4  1  0  0  0  0
  2 10  1  0  0  0  0
  2  7  2  0  0  0  0
  3  5  1  0  0  0  0
  4 16  1  1  0  0  0
  5 12  1  1  0  0  0
  5 13  1  0  0  0  0
  6  2  1  0  0  0  0
  8  3  1  6  0  0  0
  8 11  1  0  0  0  0
  9 14  1  0  0  0  0
  9  6  2  0  0  0  0
 10  1  1  1  0  0  0
 11 13  1  1  0  0  0
 11  4  1  0  0  0  0
 14 15  2  0  0  0  0
 15  8  1  0  0  0  0
 15 10  1  0  0  0  0
 16 24  1  1  0  0  0
 16 18  1  0  0  0  0
 18 17  1  6  0  0  0
 18 21  1  0  0  0  0
 19 22  1  0  0  0  0
 20 23  1  0  0  0  0
 21 20  1  0  0  0  0
 21 19  1  0  0  0  0
 23 22  1  0  0  0  0
 24 25  1  0  0  0  0
 25 26  1  0  0  0  0
 26 27  1  0  0  0  0
 27 29  1  0  0  0  0
 29 28  2  0  0  0  0
 29 30  1  0  0  0  0
M  END
>  <MODEL>
6

>  <REMARK>
 VINA RESULT:      -6.6      2.521      3.787
  Name = 
  8 active torsions:
  status: ('A' for Active; 'I' for Inactive)
    1  A    between atoms: C_4  and  C_13
    2  A    between atoms: C_7  and  C_15
    3  A    between atoms: C_7  and  C_16
    4  A    between atoms: C_8  and  C_12
    5  A    between atoms: C_8  and  C_13
    6  A    between atoms: C_13  and  C_27
    7  A    between atoms: C_16  and  C_30
    8  A    between atoms: C_27  and  C_30
                            x       y       z     vdW  Elec       q    Type
                         _______ _______ _______ _____ _____    ______ ____

>  <TORSDO>
F 8

$$$$
=
 OpenBabel11052412293D

 30 33  0  0  1  0  0  0  0  0999 V2000
  187.1060  178.4090  142.5900 C   0  0  0  0  0  2  0  0  0  0  0  0
  188.9580  176.9480  143.4860 C   0  0  0  0  0  0  0  0  0  0  0  0
  188.4670  177.4920  138.2930 S   0  0  0  0  0  0  0  0  0  0  0  0
  186.2130  178.7780  141.3750 C   0  0  1  0  0  3  0  0  0  0  0  0
  186.8200  178.0980  137.7530 C   0  0  1  0  0  3  0  0  0  0  0  0
  190.4110  176.7800  143.3390 C   0  0  0  0  0  3  0  0  0  0  0  0
  188.4240  176.7480  144.6090 O   0  0  0  0  0  0  0  0  0  0  0  0
  188.1750  178.2540  139.8960 C   0  0  1  0  0  3  0  0  0  0  0  0
  191.0070  177.0330  142.1750 C   0  0  0  0  0  3  0  0  0  0  0  0
  188.1030  177.2750  142.2900 C   0  0  2  0  0  3  0  0  0  0  0  0
  186.6910  178.1050  140.0810 C   0  0  2  0  0  3  0  0  0  0  0  0
  186.0510  176.9710  137.0940 C   0  0  0  0  0  1  0  0  0  0  0  0
  186.0550  178.6260  138.8870 N   0  0  0  0  0  2  0  0  0  0  0  0
  190.2390  177.5060  141.0100 C   0  0  0  0  0  3  0  0  0  0  0  0
  188.9050  177.6170  141.0440 C   0  0  0  0  0  0  0  0  0  0  0  0
  184.7270  178.4700  141.6180 C   0  0  2  0  0  3  0  0  0  0  0  0
  183.2030  176.9990  140.2170 C   0  0  0  0  0  1  0  0  0  0  0  0
  183.8840  178.3590  140.3340 C   0  0  1  0  0  3  0  0  0  0  0  0
  183.0110  180.2040  138.8830 C   0  0  0  0  0  2  0  0  0  0  0  0
  181.4560  178.9700  140.1660 C   0  0  0  0  0  2  0  0  0  0  0  0
  182.8690  179.5010  140.2110 C   0  0  0  0  0  3  0  0  0  0  0  0
  181.6870  180.2600  138.2850 N   0  0  0  0  0  2  0  0  0  0  0  0
  180.9620  179.1780  138.8140 N   0  0  0  0  0  2  0  0  0  0  0  0
  184.0890  179.3780  142.6680 C   0  0  0  0  0  2  0  0  0  0  0  0
  183.6170  178.5610  143.8570 C   0  0  0  0  0  2  0  0  0  0  0  0
  184.2950  179.0390  145.1270 C   0  0  0  0  0  2  0  0  0  0  0  0
  185.2900  178.0010  145.6180 C   0  0  0  0  0  2  0  0  0  0  0  0
  187.0190  177.8940  147.2510 O   0  0  0  0  0  0  0  0  0  0  0  0
  186.0390  178.5340  146.7870 C   0  0  0  0  0  0  0  0  0  0  0  0
  185.6810  179.7530  147.3450 O   0  0  0  0  0  1  0  0  0  0  0  0
  2  7  2  0  0  0  0
  4 16  1  1  0  0  0
  4  1  1  0  0  0  0
  5 12  1  1  0  0  0
  5  3  1  0  0  0  0
  5 13  1  0  0  0  0
  6  2  1  0  0  0  0
  8  3  1  6  0  0  0
  8 11  1  0  0  0  0
  8 15  1  0  0  0  0
  9  6  2  0  0  0  0
 10  1  1  1  0  0  0
 10  2  1  0  0  0  0
 11 13  1  6  0  0  0
 11  4  1  0  0  0  0
 14 15  2  0  0  0  0
 14  9  1  0  0  0  0
 15 10  1  0  0  0  0
 16 24  1  1  0  0  0
 18 17  1  1  0  0  0
 18 16  1  0  0  0  0
 19 21  1  0  0  0  0
 20 21  1  0  0  0  0
 21 18  1  0  0  0  0
 22 23  1  0  0  0  0
 22 19  1  0  0  0  0
 23 20  1  0  0  0  0
 24 25  1  0  0  0  0
 25 26  1  0  0  0  0
 26 27  1  0  0  0  0
 27 29  1  0  0  0  0
 29 28  2  0  0  0  0
 29 30  1  0  0  0  0
M  END
>  <MODEL>
7

>  <REMARK>
 VINA RESULT:      -6.5      3.250      6.149
  Name = 
  8 active torsions:
  status: ('A' for Active; 'I' for Inactive)
    1  A    between atoms: C_4  and  C_13
    2  A    between atoms: C_7  and  C_15
    3  A    between atoms: C_7  and  C_16
    4  A    between atoms: C_8  and  C_12
    5  A    between atoms: C_8  and  C_13
    6  A    between atoms: C_13  and  C_27
    7  A    between atoms: C_16  and  C_30
    8  A    between atoms: C_27  and  C_30
                            x       y       z     vdW  Elec       q    Type
                         _______ _______ _______ _____ _____    ______ ____

>  <TORSDO>
F 8

$$$$
=
 OpenBabel11052412293D

 30 33  0  0  1  0  0  0  0  0999 V2000
  183.8030  177.8760  141.4080 C   0  0  0  0  0  2  0  0  0  0  0  0
  185.2700  178.8140  143.2340 C   0  0  0  0  0  0  0  0  0  0  0  0
  180.1710  180.0420  143.2180 S   0  0  0  0  0  0  0  0  0  0  0  0
  182.4710  177.9960  140.6190 C   0  0  1  0  0  3  0  0  0  0  0  0
  179.3390  179.7760  141.6030 C   0  0  1  0  0  3  0  0  0  0  0  0
  185.2950  178.9070  144.7010 C   0  0  0  0  0  3  0  0  0  0  0  0
  186.3520  178.6750  142.6050 O   0  0  0  0  0  0  0  0  0  0  0  0
  181.4020  178.8220  142.7360 C   0  0  1  0  0  3  0  0  0  0  0  0
  184.1610  179.0030  145.3930 C   0  0  0  0  0  3  0  0  0  0  0  0
  183.9730  178.9640  142.4830 C   0  0  2  0  0  3  0  0  0  0  0  0
  181.5150  179.0160  141.2510 C   0  0  2  0  0  3  0  0  0  0  0  0
  179.0380  181.1130  140.9570 C   0  0  0  0  0  1  0  0  0  0  0  0
  180.1720  178.9670  140.7080 N   0  0  0  0  0  2  0  0  0  0  0  0
  182.8520  178.9990  144.7180 C   0  0  0  0  0  3  0  0  0  0  0  0
  182.7480  178.9870  143.3830 C   0  0  0  0  0  0  0  0  0  0  0  0
  182.6920  178.3220  139.1320 C   0  0  2  0  0  3  0  0  0  0  0  0
  183.0910  176.5500  137.3570 C   0  0  0  0  0  1  0  0  0  0  0  0
  183.7290  177.4220  138.4330 C   0  0  1  0  0  3  0  0  0  0  0  0
  186.0520  178.2600  138.8520 C   0  0  0  0  0  2  0  0  0  0  0  0
  185.5060  177.5450  136.6670 C   0  0  0  0  0  2  0  0  0  0  0  0
  184.9060  178.2290  137.8710 C   0  0  0  0  0  3  0  0  0  0  0  0
  187.2450  177.8520  138.1280 N   0  0  0  0  0  2  0  0  0  0  0  0
  186.8110  177.0420  137.0650 N   0  0  0  0  0  2  0  0  0  0  0  0
  182.9270  179.8080  138.8710 C   0  0  0  0  0  2  0  0  0  0  0  0
  181.8430  180.3630  137.9640 C   0  0  0  0  0  2  0  0  0  0  0  0
  181.5240  181.7970  138.3420 C   0  0  0  0  0  2  0  0  0  0  0  0
  180.8330  182.5070  137.1900 C   0  0  0  0  0  2  0  0  0  0  0  0
  181.9330  184.6180  137.2150 O   0  0  0  0  0  0  0  0  0  0  0  0
  180.8670  183.9770  137.4100 C   0  0  0  0  0  0  0  0  0  0  0  0
  179.7150  184.6490  137.7960 O   0  0  0  0  0  1  0  0  0  0  0  0
  2  6  1  0  0  0  0
  4 16  1  6  0  0  0
  4 11  1  0  0  0  0
  4  1  1  0  0  0  0
  5 12  1  6  0  0  0
  5  3  1  0  0  0  0
  6  9  2  0  0  0  0
  7  2  2  0  0  0  0
  8  3  1  1  0  0  0
  8 15  1  0  0  0  0
 10  1  1  6  0  0  0
 10  2  1  0  0  0  0
 10 15  1  0  0  0  0
 11 13  1  6  0  0  0
 11  8  1  0  0  0  0
 13  5  1  0  0  0  0
 14  9  1  0  0  0  0
 15 14  2  0  0  0  0
 16 24  1  1  0  0  0
 18 17  1  6  0  0  0
 18 16  1  0  0  0  0
 20 23  1  0  0  0  0
 20 21  1  0  0  0  0
 21 18  1  0  0  0  0
 21 19  1  0  0  0  0
 22 19  1  0  0  0  0
 23 22  1  0  0  0  0
 25 26  1  0  0  0  0
 25 24  1  0  0  0  0
 27 29  1  0  0  0  0
 27 26  1  0  0  0  0
 28 29  2  0  0  0  0
 29 30  1  0  0  0  0
M  END
>  <MODEL>
8

>  <REMARK>
 VINA RESULT:      -6.4      4.885      8.590
  Name = 
  8 active torsions:
  status: ('A' for Active; 'I' for Inactive)
    1  A    between atoms: C_4  and  C_13
    2  A    between atoms: C_7  and  C_15
    3  A    between atoms: C_7  and  C_16
    4  A    between atoms: C_8  and  C_12
    5  A    between atoms: C_8  and  C_13
    6  A    between atoms: C_13  and  C_27
    7  A    between atoms: C_16  and  C_30
    8  A    between atoms: C_27  and  C_30
                            x       y       z     vdW  Elec       q    Type
                         _______ _______ _______ _____ _____    ______ ____

>  <TORSDO>
F 8

$$$$
=
 OpenBabel11052412293D

 30 33  0  0  1  0  0  0  0  0999 V2000
  188.7970  176.6400  144.0030 C   0  0  0  0  0  2  0  0  0  0  0  0
  191.2300  176.5310  144.6590 C   0  0  0  0  0  0  0  0  0  0  0  0
  187.7480  178.2780  148.1710 S   0  0  0  0  0  0  0  0  0  0  0  0
  187.3970  177.2460  144.2930 C   0  0  1  0  0  3  0  0  0  0  0  0
  186.1530  178.8220  147.4410 C   0  0  1  0  0  3  0  0  0  0  0  0
  192.0660  175.9950  145.7440 C   0  0  0  0  0  3  0  0  0  0  0  0
  191.6750  176.5360  143.4820 O   0  0  0  0  0  0  0  0  0  0  0  0
  188.0010  177.2310  146.7310 C   0  0  1  0  0  3  0  0  0  0  0  0
  191.6000  175.9320  146.9900 C   0  0  0  0  0  3  0  0  0  0  0  0
  189.8880  177.1440  144.9630 C   0  0  2  0  0  3  0  0  0  0  0  0
  187.3640  178.0160  145.6190 C   0  0  2  0  0  3  0  0  0  0  0  0
  186.0550  180.3330  147.4990 C   0  0  0  0  0  1  0  0  0  0  0  0
  186.0260  178.3680  146.0530 N   0  0  0  0  0  2  0  0  0  0  0  0
  190.2340  176.3760  147.3180 C   0  0  0  0  0  3  0  0  0  0  0  0
  189.4380  176.9390  146.4010 C   0  0  0  0  0  0  0  0  0  0  0  0
  186.8890  178.1360  143.1460 C   0  0  2  0  0  3  0  0  0  0  0  0
  184.9300  179.7020  143.5450 C   0  0  0  0  0  1  0  0  0  0  0  0
  185.3590  178.3060  143.1060 C   0  0  1  0  0  3  0  0  0  0  0  0
  183.2730  178.0800  141.7370 C   0  0  0  0  0  2  0  0  0  0  0  0
  185.2000  178.9560  140.6880 C   0  0  0  0  0  2  0  0  0  0  0  0
  184.7770  177.9520  141.7320 C   0  0  0  0  0  3  0  0  0  0  0  0
  182.9110  178.9080  140.5990 N   0  0  0  0  0  2  0  0  0  0  0  0
  184.0200  179.7270  140.3300 N   0  0  0  0  0  2  0  0  0  0  0  0
  187.4790  177.7620  141.7890 C   0  0  0  0  0  2  0  0  0  0  0  0
  188.6880  178.6280  141.4810 C   0  0  0  0  0  2  0  0  0  0  0  0
  189.6380  177.8960  140.5520 C   0  0  0  0  0  2  0  0  0  0  0  0
  188.8890  177.3580  139.3460 C   0  0  0  0  0  2  0  0  0  0  0  0
  189.0550  179.3810  138.1030 O   0  0  0  0  0  1  0  0  0  0  0  0
  189.2550  178.1390  138.1340 C   0  0  0  0  0  0  0  0  0  0  0  0
  189.8480  177.5040  137.0510 O   0  0  0  0  0  0  0  0  0  0  0  0
  1  4  1  0  0  0  0
  2 10  1  0  0  0  0
  2  6  1  0  0  0  0
  4 16  1  6  0  0  0
  4 11  1  0  0  0  0
  5 12  1  6  0  0  0
  5  3  1  0  0  0  0
  6  9  2  0  0  0  0
  7  2  2  0  0  0  0
  8 15  1  6  0  0  0
  8  3  1  0  0  0  0
  9 14  1  0  0  0  0
 10  1  1  6  0  0  0
 10 15  1  0  0  0  0
 11 13  1  1  0  0  0
 11  8  1  0  0  0  0
 13  5  1  0  0  0  0
 15 14  2  0  0  0  0
 16 24  1  6  0  0  0
 18 16  1  0  0  0  0
 18 17  1  6  0  0  0
 20 21  1  0  0  0  0
 21 19  1  0  0  0  0
 21 18  1  0  0  0  0
 22 19  1  0  0  0  0
 23 22  1  0  0  0  0
 23 20  1  0  0  0  0
 25 24  1  0  0  0  0
 26 25  1  0  0  0  0
 27 26  1  0  0  0  0
 28 29  1  0  0  0  0
 29 27  1  0  0  0  0
 30 29  2  0  0  0  0
M  END
>  <MODEL>
9

>  <REMARK>
 VINA RESULT:      -6.4      3.404      7.366
  Name = 
  8 active torsions:
  status: ('A' for Active; 'I' for Inactive)
    1  A    between atoms: C_4  and  C_13
    2  A    between atoms: C_7  and  C_15
    3  A    between atoms: C_7  and  C_16
    4  A    between atoms: C_8  and  C_12
    5  A    between atoms: C_8  and  C_13
    6  A    between atoms: C_13  and  C_27
    7  A    between atoms: C_16  and  C_30
    8  A    between atoms: C_27  and  C_30
                            x       y       z     vdW  Elec       q    Type
                         _______ _______ _______ _____ _____    ______ ____

>  <TORSDO>
F 8

$$$$
