=
 OpenBabel11052415333D

 37 40  0  0  1  0  0  0  0  0999 V2000
  181.2420  178.9080  142.5300 C   0  0  0  0  0  3  0  0  0  0  0  0
  181.2860  179.5100  140.3460 O   0  0  0  0  0  1  0  0  0  0  0  0
  183.6930  178.5990  141.6530 C   0  0  2  0  0  3  0  0  0  0  0  0
  182.7140  175.7500  139.6880 O   0  0  0  0  0  1  0  0  0  0  0  0
  184.8360  177.8640  142.3350 C   0  0  0  0  0  2  0  0  0  0  0  0
  180.8040  178.4850  141.1890 C   0  0  1  0  0  0  0  0  0  0  0  0
  182.2250  177.0420  139.8740 C   0  0  1  0  0  0  0  0  0  0  0  0
  179.6740  177.5820  139.1750 C   0  0  2  0  0  3  0  0  0  0  0  0
  183.0610  179.3160  144.0760 C   0  0  0  0  0  3  0  0  0  0  0  0
  181.4390  177.0790  141.1070 C   0  0  0  0  0  2  0  0  0  0  0  0
  179.4380  178.1820  140.6300 C   0  0  0  0  0  2  0  0  0  0  0  0
  182.5920  178.9730  142.7230 C   0  0  0  0  0  0  0  0  0  0  0  0
  183.4110  178.0520  140.1630 C   0  0  2  0  0  3  0  0  0  0  0  0
  185.4060  178.7490  143.4440 C   0  0  1  0  0  3  0  0  0  0  0  0
  181.2000  177.3930  138.7240 C   0  0  0  0  0  2  0  0  0  0  0  0
  184.3460  179.1940  144.4210 C   0  0  0  0  0  3  0  0  0  0  0  0
  187.4580  177.2390  143.5300 C   0  0  0  0  0  3  0  0  0  0  0  0
  186.5270  178.0560  144.1440 C   0  0  0  0  0  0  0  0  0  0  0  0
  186.7880  178.0890  145.4990 C   0  0  0  0  0  3  0  0  0  0  0  0
  187.8600  177.3110  145.7190 N   0  0  0  0  0  0  0  0  0  0  0  0
  188.2820  176.7940  144.5500 C   0  0  0  0  0  3  0  0  0  0  0  0
  187.9860  178.1120  148.0130 C   0  0  0  0  0  1  0  0  0  0  0  0
  188.4890  177.0920  147.0100 C   0  0  0  0  0  2  0  0  0  0  0  0
  179.3510  178.0300  136.8530 O   0  0  0  0  0  1  0  0  0  0  0  0
  178.9310  178.3960  138.1320 C   0  0  0  0  0  2  0  0  0  0  0  0
  184.4800  178.2960  139.0560 C   0  0  1  0  0  0  0  0  0  0  0  0
  184.1450  180.6950  138.8990 O   0  0  0  0  0  1  0  0  0  0  0  0
  184.1150  179.5020  138.1720 C   0  0  0  0  0  2  0  0  0  0  0  0
  185.8720  178.5140  139.6830 C   0  0  0  0  0  2  0  0  0  0  0  0
  187.0280  178.1370  138.8090 C   0  0  0  0  0  0  0  0  0  0  0  0
  188.4710  178.6370  136.8060 C   0  0  0  0  0  1  0  0  0  0  0  0
  187.7040  177.1060  139.0720 O   0  0  0  0  0  0  0  0  0  0  0  0
  187.3650  178.9590  137.6910 N   0  0  0  0  0  2  0  0  0  0  0  0
  184.5360  177.0410  138.1670 C   0  0  0  0  0  2  0  0  0  0  0  0
  184.2300  177.2990  136.6940 C   0  0  1  0  0  3  0  0  0  0  0  0
  185.3720  176.8000  135.8320 C   0  0  0  0  0  1  0  0  0  0  0  0
  183.0630  176.6250  136.3410 O   0  0  0  0  0  1  0  0  0  0  0  0
  1 12  2  0  0  0  0
  3  5  1  1  0  0  0
  3 12  1  0  0  0  0
  5 14  1  0  0  0  0
  6  2  1  6  0  0  0
  6  1  1  0  0  0  0
  7  4  1  6  0  0  0
  7 13  1  0  0  0  0
  7 10  1  0  0  0  0
  8 25  1  6  0  0  0
  8 11  1  0  0  0  0
  9 16  2  0  0  0  0
 10  6  1  0  0  0  0
 11  6  1  0  0  0  0
 12  9  1  0  0  0  0
 13 26  1  1  0  0  0
 13  3  1  0  0  0  0
 14 18  1  1  0  0  0
 14 16  1  0  0  0  0
 15  8  1  0  0  0  0
 15  7  1  0  0  0  0
 17 18  1  0  0  0  0
 17 21  2  0  0  0  0
 18 19  2  0  0  0  0
 19 20  1  0  0  0  0
 20 23  1  0  0  0  0
 21 20  1  0  0  0  0
 23 22  1  0  0  0  0
 24 25  1  0  0  0  0
 26 34  1  6  0  0  0
 26 29  1  0  0  0  0
 28 27  1  0  0  0  0
 28 26  1  0  0  0  0
 30 32  2  0  0  0  0
 30 29  1  0  0  0  0
 31 33  1  0  0  0  0
 33 30  1  0  0  0  0
 35 36  1  6  0  0  0
 35 34  1  0  0  0  0
 37 35  1  0  0  0  0
M  END
>  <MODEL>
1

>  <REMARK>
 VINA RESULT:      -6.6      0.000      0.000
  Name = 
  9 active torsions:
  status: ('A' for Active; 'I' for Inactive)
    1  A    between atoms: C_1  and  C_5
    2  A    between atoms: C_1  and  C_36
    3  A    between atoms: C_6  and  C_31
    4  A    between atoms: C_11  and  C_33
    5  A    between atoms: N_18  and  C_19
    6  A    between atoms: C_21  and  C_30
    7  A    between atoms: C_27  and  C_36
    8  A    between atoms: C_29  and  C_36
    9  A    between atoms: C_33  and  C_36
                            x       y       z     vdW  Elec       q    Type
                         _______ _______ _______ _____ _____    ______ ____

>  <TORSDO>
F 9

$$$$
=
 OpenBabel11052415333D

 37 40  0  0  1  0  0  0  0  0999 V2000
  179.8040  177.4210  141.4780 C   0  0  0  0  0  3  0  0  0  0  0  0
  180.0570  178.1740  139.3560 O   0  0  0  0  0  1  0  0  0  0  0  0
  182.2800  178.2320  141.1960 C   0  0  2  0  0  3  0  0  0  0  0  0
  183.0460  175.4150  139.0950 O   0  0  0  0  0  1  0  0  0  0  0  0
  183.4510  177.9810  142.1340 C   0  0  0  0  0  2  0  0  0  0  0  0
  179.8850  176.9730  140.0780 C   0  0  1  0  0  0  0  0  0  0  0  0
  182.0290  176.3670  139.1470 C   0  0  1  0  0  0  0  0  0  0  0  0
  179.7050  175.8600  137.8690 C   0  0  2  0  0  3  0  0  0  0  0  0
  180.8990  178.4110  143.3980 C   0  0  0  0  0  3  0  0  0  0  0  0
  181.0560  175.9690  140.1630 C   0  0  0  0  0  2  0  0  0  0  0  0
  178.9310  176.1800  139.2220 C   0  0  0  0  0  2  0  0  0  0  0  0
  180.9230  178.0230  141.9780 C   0  0  0  0  0  0  0  0  0  0  0  0
  182.5840  177.7480  139.6890 C   0  0  2  0  0  3  0  0  0  0  0  0
  183.3390  178.9230  143.3330 C   0  0  1  0  0  3  0  0  0  0  0  0
  181.2250  176.3600  137.7860 C   0  0  0  0  0  2  0  0  0  0  0  0
  182.0080  178.8030  144.0320 C   0  0  0  0  0  3  0  0  0  0  0  0
  184.4530  179.0380  145.6230 C   0  0  0  0  0  3  0  0  0  0  0  0
  184.4690  178.7000  144.2820 C   0  0  0  0  0  0  0  0  0  0  0  0
  185.7020  178.1630  143.9730 C   0  0  0  0  0  3  0  0  0  0  0  0
  186.4340  178.1670  145.0980 N   0  0  0  0  0  0  0  0  0  0  0  0
  185.7020  178.6830  146.1030 C   0  0  0  0  0  3  0  0  0  0  0  0
  188.1450  176.8250  144.0040 C   0  0  0  0  0  1  0  0  0  0  0  0
  187.7900  177.6580  145.2220 C   0  0  0  0  0  2  0  0  0  0  0  0
  179.5760  177.4930  136.1340 O   0  0  0  0  0  1  0  0  0  0  0  0
  178.9310  176.3800  136.6720 C   0  0  0  0  0  2  0  0  0  0  0  0
  183.6600  178.5080  138.8560 C   0  0  1  0  0  0  0  0  0  0  0  0
  185.2550  179.7810  140.1700 O   0  0  0  0  0  1  0  0  0  0  0  0
  185.0190  178.5370  139.5790 C   0  0  0  0  0  2  0  0  0  0  0  0
  183.8260  177.8620  137.4650 C   0  0  0  0  0  2  0  0  0  0  0  0
  185.2230  177.4510  137.1190 C   0  0  0  0  0  0  0  0  0  0  0  0
  186.9110  175.6100  136.7890 C   0  0  0  0  0  1  0  0  0  0  0  0
  186.0810  178.3270  136.8240 O   0  0  0  0  0  0  0  0  0  0  0  0
  185.5690  176.0660  137.1100 N   0  0  0  0  0  2  0  0  0  0  0  0
  183.1770  179.9570  138.6670 C   0  0  0  0  0  2  0  0  0  0  0  0
  181.6980  180.0860  138.3120 C   0  0  1  0  0  3  0  0  0  0  0  0
  181.1050  181.2990  138.9990 C   0  0  0  0  0  1  0  0  0  0  0  0
  181.5680  180.2330  136.9320 O   0  0  0  0  0  1  0  0  0  0  0  0
  1 12  2  0  0  0  0
  3 12  1  0  0  0  0
  3  5  1  1  0  0  0
  5 14  1  0  0  0  0
  6  2  1  6  0  0  0
  6 10  1  0  0  0  0
  6  1  1  0  0  0  0
  7  4  1  6  0  0  0
  7 13  1  0  0  0  0
  7 10  1  0  0  0  0
  8 25  1  6  0  0  0
  8 11  1  0  0  0  0
  9 16  2  0  0  0  0
 11  6  1  0  0  0  0
 12  9  1  0  0  0  0
 13 26  1  1  0  0  0
 13  3  1  0  0  0  0
 14 16  1  0  0  0  0
 14 18  1  1  0  0  0
 15  8  1  0  0  0  0
 15  7  1  0  0  0  0
 17 21  2  0  0  0  0
 18 17  1  0  0  0  0
 19 18  2  0  0  0  0
 19 20  1  0  0  0  0
 20 23  1  0  0  0  0
 20 21  1  0  0  0  0
 22 23  1  0  0  0  0
 24 25  1  0  0  0  0
 26 29  1  6  0  0  0
 26 28  1  0  0  0  0
 28 27  1  0  0  0  0
 30 29  1  0  0  0  0
 31 33  1  0  0  0  0
 32 30  2  0  0  0  0
 33 30  1  0  0  0  0
 34 26  1  0  0  0  0
 35 34  1  0  0  0  0
 35 36  1  1  0  0  0
 37 35  1  0  0  0  0
M  END
>  <MODEL>
2

>  <REMARK>
 VINA RESULT:      -6.2      1.699      2.723
  Name = 
  9 active torsions:
  status: ('A' for Active; 'I' for Inactive)
    1  A    between atoms: C_1  and  C_5
    2  A    between atoms: C_1  and  C_36
    3  A    between atoms: C_6  and  C_31
    4  A    between atoms: C_11  and  C_33
    5  A    between atoms: N_18  and  C_19
    6  A    between atoms: C_21  and  C_30
    7  A    between atoms: C_27  and  C_36
    8  A    between atoms: C_29  and  C_36
    9  A    between atoms: C_33  and  C_36
                            x       y       z     vdW  Elec       q    Type
                         _______ _______ _______ _____ _____    ______ ____

>  <TORSDO>
F 9

$$$$
=
 OpenBabel11052415333D

 37 40  0  0  1  0  0  0  0  0999 V2000
  180.0490  177.5570  140.6350 C   0  0  0  0  0  3  0  0  0  0  0  0
  180.3970  177.8890  138.4210 O   0  0  0  0  0  1  0  0  0  0  0  0
  182.6240  177.8630  140.2560 C   0  0  2  0  0  3  0  0  0  0  0  0
  182.8510  174.6450  138.6650 O   0  0  0  0  0  1  0  0  0  0  0  0
  183.7480  177.5700  141.2380 C   0  0  0  0  0  2  0  0  0  0  0  0
  180.0280  176.8750  139.3310 C   0  0  1  0  0  0  0  0  0  0  0  0
  182.0180  175.7550  138.5430 C   0  0  1  0  0  0  0  0  0  0  0  0
  179.6210  175.4590  137.3370 C   0  0  2  0  0  3  0  0  0  0  0  0
  181.3320  178.6450  142.3780 C   0  0  0  0  0  3  0  0  0  0  0  0
  181.0070  175.7090  139.5990 C   0  0  0  0  0  2  0  0  0  0  0  0
  178.9370  176.1310  138.6060 C   0  0  0  0  0  2  0  0  0  0  0  0
  181.2650  178.0280  141.0430 C   0  0  0  0  0  0  0  0  0  0  0  0
  182.8140  177.0880  138.8550 C   0  0  2  0  0  3  0  0  0  0  0  0
  183.8220  178.7030  142.2620 C   0  0  1  0  0  3  0  0  0  0  0  0
  181.2030  175.6630  137.1920 C   0  0  0  0  0  2  0  0  0  0  0  0
  182.5020  178.9360  142.9530 C   0  0  0  0  0  3  0  0  0  0  0  0
  184.8200  178.6960  144.6080 C   0  0  0  0  0  3  0  0  0  0  0  0
  184.9100  178.4460  143.2510 C   0  0  0  0  0  0  0  0  0  0  0  0
  186.1720  177.9610  142.9700 C   0  0  0  0  0  3  0  0  0  0  0  0
  186.8470  177.9100  144.1290 N   0  0  0  0  0  0  0  0  0  0  0  0
  186.0540  178.3410  145.1270 C   0  0  0  0  0  3  0  0  0  0  0  0
  188.6080  177.4670  145.7510 C   0  0  0  0  0  1  0  0  0  0  0  0
  188.2090  177.4270  144.2880 C   0  0  0  0  0  2  0  0  0  0  0  0
  179.7880  176.7020  135.3060 O   0  0  0  0  0  1  0  0  0  0  0  0
  178.9310  175.9000  136.0590 C   0  0  0  0  0  2  0  0  0  0  0  0
  183.9930  177.4980  137.9220 C   0  0  1  0  0  0  0  0  0  0  0  0
  182.3770  178.7100  136.5750 O   0  0  0  0  0  1  0  0  0  0  0  0
  183.4970  177.8760  136.5140 C   0  0  0  0  0  2  0  0  0  0  0  0
  184.7830  178.6760  138.5280 C   0  0  0  0  0  2  0  0  0  0  0  0
  186.2600  178.6420  138.2860 C   0  0  0  0  0  0  0  0  0  0  0  0
  188.5830  178.2530  139.1780 C   0  0  0  0  0  1  0  0  0  0  0  0
  186.7150  178.9060  137.1400 O   0  0  0  0  0  0  0  0  0  0  0  0
  187.1410  178.2950  139.3540 N   0  0  0  0  0  2  0  0  0  0  0  0
  184.9390  176.2900  137.7950 C   0  0  0  0  0  2  0  0  0  0  0  0
  185.1990  175.8420  136.3600 C   0  0  1  0  0  3  0  0  0  0  0  0
  186.6800  175.6010  136.1520 C   0  0  0  0  0  1  0  0  0  0  0  0
  184.5050  174.6590  136.1140 O   0  0  0  0  0  1  0  0  0  0  0  0
  1 12  2  0  0  0  0
  3 12  1  0  0  0  0
  3  5  1  1  0  0  0
  5 14  1  0  0  0  0
  6  2  1  6  0  0  0
  6 10  1  0  0  0  0
  6  1  1  0  0  0  0
  7  4  1  1  0  0  0
  7 13  1  0  0  0  0
  7 10  1  0  0  0  0
  8 25  1  6  0  0  0
  8 11  1  0  0  0  0
  9 16  2  0  0  0  0
 11  6  1  0  0  0  0
 12  9  1  0  0  0  0
 13 26  1  1  0  0  0
 13  3  1  0  0  0  0
 14 16  1  0  0  0  0
 14 18  1  1  0  0  0
 15  8  1  0  0  0  0
 15  7  1  0  0  0  0
 17 21  2  0  0  0  0
 18 17  1  0  0  0  0
 19 18  2  0  0  0  0
 19 20  1  0  0  0  0
 20 23  1  0  0  0  0
 20 21  1  0  0  0  0
 23 22  1  0  0  0  0
 24 25  1  0  0  0  0
 26 28  1  6  0  0  0
 26 29  1  0  0  0  0
 28 27  1  0  0  0  0
 30 29  1  0  0  0  0
 30 33  1  0  0  0  0
 31 33  1  0  0  0  0
 32 30  2  0  0  0  0
 34 26  1  0  0  0  0
 35 36  1  1  0  0  0
 35 34  1  0  0  0  0
 37 35  1  0  0  0  0
M  END
>  <MODEL>
3

>  <REMARK>
 VINA RESULT:      -5.8      1.574      2.313
  Name = 
  9 active torsions:
  status: ('A' for Active; 'I' for Inactive)
    1  A    between atoms: C_1  and  C_5
    2  A    between atoms: C_1  and  C_36
    3  A    between atoms: C_6  and  C_31
    4  A    between atoms: C_11  and  C_33
    5  A    between atoms: N_18  and  C_19
    6  A    between atoms: C_21  and  C_30
    7  A    between atoms: C_27  and  C_36
    8  A    between atoms: C_29  and  C_36
    9  A    between atoms: C_33  and  C_36
                            x       y       z     vdW  Elec       q    Type
                         _______ _______ _______ _____ _____    ______ ____

>  <TORSDO>
F 9

$$$$
=
 OpenBabel11052415333D

 37 40  0  0  1  0  0  0  0  0999 V2000
  187.9640  178.3060  139.3850 C   0  0  0  0  0  3  0  0  0  0  0  0
  188.2330  176.3330  138.3030 O   0  0  0  0  0  1  0  0  0  0  0  0
  185.6200  177.5460  138.4920 C   0  0  2  0  0  3  0  0  0  0  0  0
  186.5960  178.2530  135.1030 O   0  0  0  0  0  1  0  0  0  0  0  0
  184.3470  178.3730  138.4060 C   0  0  0  0  0  2  0  0  0  0  0  0
  188.5250  177.7070  138.1630 C   0  0  1  0  0  0  0  0  0  0  0  0
  187.1610  177.5650  136.1740 C   0  0  1  0  0  0  0  0  0  0  0  0
  189.8130  177.0610  136.1440 C   0  0  2  0  0  3  0  0  0  0  0  0
  186.0110  178.8630  140.7040 C   0  0  0  0  0  3  0  0  0  0  0  0
  187.7930  178.5270  137.0760 C   0  0  0  0  0  2  0  0  0  0  0  0
  189.9190  177.7140  137.5910 C   0  0  0  0  0  2  0  0  0  0  0  0
  186.6100  178.2050  139.5310 C   0  0  0  0  0  0  0  0  0  0  0  0
  186.0350  176.9050  137.0710 C   0  0  2  0  0  3  0  0  0  0  0  0
  183.7220  178.4700  139.7970 C   0  0  1  0  0  3  0  0  0  0  0  0
  188.3430  176.6530  135.6560 C   0  0  0  0  0  2  0  0  0  0  0  0
  184.6880  179.0090  140.8220 C   0  0  0  0  0  3  0  0  0  0  0  0
  181.3890  179.1170  140.6000 C   0  0  0  0  0  3  0  0  0  0  0  0
  182.4720  179.2850  139.7550 C   0  0  0  0  0  0  0  0  0  0  0  0
  182.1840  180.2940  138.8580 C   0  0  0  0  0  3  0  0  0  0  0  0
  180.9520  180.7430  139.1430 N   0  0  0  0  0  0  0  0  0  0  0  0
  180.4580  180.0540  140.1890 C   0  0  0  0  0  3  0  0  0  0  0  0
  180.7350  181.9000  137.0130 C   0  0  0  0  0  1  0  0  0  0  0  0
  180.2730  181.8290  138.4560 C   0  0  0  0  0  2  0  0  0  0  0  0
  191.7580  175.9550  136.9750 O   0  0  0  0  0  1  0  0  0  0  0  0
  190.7400  175.8640  136.0260 C   0  0  0  0  0  2  0  0  0  0  0  0
  185.1300  175.7980  136.4510 C   0  0  1  0  0  0  0  0  0  0  0  0
  185.2860  174.2420  134.5940 O   0  0  0  0  0  1  0  0  0  0  0  0
  185.9630  174.7340  135.7130 C   0  0  0  0  0  2  0  0  0  0  0  0
  184.2730  175.1220  137.5410 C   0  0  0  0  0  2  0  0  0  0  0  0
  184.3700  173.6290  137.5900 C   0  0  0  0  0  0  0  0  0  0  0  0
  183.4020  171.3840  136.9860 C   0  0  0  0  0  1  0  0  0  0  0  0
  185.3450  173.0820  138.1730 O   0  0  0  0  0  0  0  0  0  0  0  0
  183.3620  172.8360  136.9620 N   0  0  0  0  0  2  0  0  0  0  0  0
  184.1880  176.4690  135.4360 C   0  0  0  0  0  2  0  0  0  0  0  0
  182.7050  176.3420  135.7740 C   0  0  1  0  0  3  0  0  0  0  0  0
  182.0430  177.7030  135.7180 C   0  0  0  0  0  1  0  0  0  0  0  0
  182.0930  175.4980  134.8490 O   0  0  0  0  0  1  0  0  0  0  0  0
  1 12  2  0  0  0  0
  3  5  1  6  0  0  0
  3 12  1  0  0  0  0
  5 14  1  0  0  0  0
  6  2  1  6  0  0  0
  6  1  1  0  0  0  0
  7  4  1  6  0  0  0
  7 13  1  0  0  0  0
  7 10  1  0  0  0  0
  8 25  1  1  0  0  0
  8 11  1  0  0  0  0
  9 16  2  0  0  0  0
 10  6  1  0  0  0  0
 11  6  1  0  0  0  0
 12  9  1  0  0  0  0
 13 26  1  6  0  0  0
 13  3  1  0  0  0  0
 14 18  1  6  0  0  0
 14 16  1  0  0  0  0
 15  8  1  0  0  0  0
 15  7  1  0  0  0  0
 18 17  1  0  0  0  0
 19 20  1  0  0  0  0
 19 18  2  0  0  0  0
 20 21  1  0  0  0  0
 21 17  2  0  0  0  0
 22 23  1  0  0  0  0
 23 20  1  0  0  0  0
 25 24  1  0  0  0  0
 26 34  1  6  0  0  0
 26 29  1  0  0  0  0
 27 28  1  0  0  0  0
 28 26  1  0  0  0  0
 29 30  1  0  0  0  0
 30 32  2  0  0  0  0
 33 31  1  0  0  0  0
 33 30  1  0  0  0  0
 34 35  1  0  0  0  0
 35 36  1  6  0  0  0
 37 35  1  0  0  0  0
M  END
>  <MODEL>
4

>  <REMARK>
 VINA RESULT:      -5.5      3.818      7.519
  Name = 
  9 active torsions:
  status: ('A' for Active; 'I' for Inactive)
    1  A    between atoms: C_1  and  C_5
    2  A    between atoms: C_1  and  C_36
    3  A    between atoms: C_6  and  C_31
    4  A    between atoms: C_11  and  C_33
    5  A    between atoms: N_18  and  C_19
    6  A    between atoms: C_21  and  C_30
    7  A    between atoms: C_27  and  C_36
    8  A    between atoms: C_29  and  C_36
    9  A    between atoms: C_33  and  C_36
                            x       y       z     vdW  Elec       q    Type
                         _______ _______ _______ _____ _____    ______ ____

>  <TORSDO>
F 9

$$$$
=
 OpenBabel11052415333D

 37 40  0  0  1  0  0  0  0  0999 V2000
  190.8090  177.6490  140.9420 C   0  0  0  0  0  3  0  0  0  0  0  0
  190.1770  178.6320  142.8830 O   0  0  0  0  0  1  0  0  0  0  0  0
  188.2240  178.0650  140.8340 C   0  0  2  0  0  3  0  0  0  0  0  0
  187.6280  175.4750  143.2570 O   0  0  0  0  0  1  0  0  0  0  0  0
  187.2330  177.4960  139.8310 C   0  0  0  0  0  2  0  0  0  0  0  0
  190.6180  177.3900  142.3780 C   0  0  1  0  0  0  0  0  0  0  0  0
  188.4880  176.5670  143.1640 C   0  0  1  0  0  0  0  0  0  0  0  0
  190.6790  176.6370  144.7400 C   0  0  2  0  0  3  0  0  0  0  0  0
  189.8320  178.1690  138.7880 C   0  0  0  0  0  3  0  0  0  0  0  0
  189.6310  176.2020  142.3290 C   0  0  0  0  0  2  0  0  0  0  0  0
  191.5630  176.8930  143.4420 C   0  0  0  0  0  2  0  0  0  0  0  0
  189.6850  177.9810  140.2410 C   0  0  0  0  0  0  0  0  0  0  0  0
  187.8060  177.7480  142.3590 C   0  0  2  0  0  3  0  0  0  0  0  0
  187.3540  178.2690  138.5180 C   0  0  1  0  0  3  0  0  0  0  0  0
  189.1040  176.8810  144.5860 C   0  0  0  0  0  2  0  0  0  0  0  0
  188.7670  178.2790  137.9880 C   0  0  0  0  0  3  0  0  0  0  0  0
  186.7520  177.3250  136.2270 C   0  0  0  0  0  3  0  0  0  0  0  0
  186.4020  177.7320  137.5020 C   0  0  0  0  0  0  0  0  0  0  0  0
  185.0370  177.5910  137.6560 C   0  0  0  0  0  3  0  0  0  0  0  0
  184.5530  177.1060  136.5020 N   0  0  0  0  0  0  0  0  0  0  0  0
  185.5650  176.9330  135.6320 C   0  0  0  0  0  3  0  0  0  0  0  0
  182.2700  177.9300  136.6780 C   0  0  0  0  0  1  0  0  0  0  0  0
  183.1600  176.7800  136.2450 C   0  0  0  0  0  2  0  0  0  0  0  0
  192.0530  176.6450  146.6920 O   0  0  0  0  0  1  0  0  0  0  0  0
  191.2080  177.4380  145.9160 C   0  0  0  0  0  2  0  0  0  0  0  0
  186.5310  178.4240  142.9470 C   0  0  1  0  0  0  0  0  0  0  0  0
  185.6780  180.6900  143.1220 O   0  0  0  0  0  1  0  0  0  0  0  0
  186.2150  179.7530  142.2360 C   0  0  0  0  0  2  0  0  0  0  0  0
  185.3170  177.4780  142.8420 C   0  0  0  0  0  2  0  0  0  0  0  0
  184.0700  178.1030  142.3000 C   0  0  0  0  0  0  0  0  0  0  0  0
  182.6310  178.6730  140.3130 C   0  0  0  0  0  1  0  0  0  0  0  0
  183.2420  178.6380  143.0860 O   0  0  0  0  0  0  0  0  0  0  0  0
  183.8200  178.0760  140.8940 N   0  0  0  0  0  2  0  0  0  0  0  0
  186.7940  178.7190  144.4340 C   0  0  0  0  0  2  0  0  0  0  0  0
  185.7530  178.1340  145.3850 C   0  0  1  0  0  3  0  0  0  0  0  0
  186.4390  177.5030  146.5800 C   0  0  0  0  0  1  0  0  0  0  0  0
  184.9100  179.1520  145.8270 O   0  0  0  0  0  1  0  0  0  0  0  0
  1  6  1  0  0  0  0
  3  5  1  6  0  0  0
  3 13  1  0  0  0  0
  6  2  1  1  0  0  0
  6 11  1  0  0  0  0
  7  4  1  1  0  0  0
  7 15  1  0  0  0  0
  8 25  1  1  0  0  0
  9 12  1  0  0  0  0
 10  6  1  0  0  0  0
 10  7  1  0  0  0  0
 11  8  1  0  0  0  0
 12  3  1  0  0  0  0
 12  1  2  0  0  0  0
 13 26  1  6  0  0  0
 13  7  1  0  0  0  0
 14 18  1  6  0  0  0
 14  5  1  0  0  0  0
 15  8  1  0  0  0  0
 16 14  1  0  0  0  0
 16  9  2  0  0  0  0
 17 18  1  0  0  0  0
 18 19  2  0  0  0  0
 20 19  1  0  0  0  0
 21 17  2  0  0  0  0
 21 20  1  0  0  0  0
 23 20  1  0  0  0  0
 23 22  1  0  0  0  0
 25 24  1  0  0  0  0
 26 28  1  6  0  0  0
 26 34  1  0  0  0  0
 28 27  1  0  0  0  0
 29 26  1  0  0  0  0
 30 29  1  0  0  0  0
 30 32  2  0  0  0  0
 31 33  1  0  0  0  0
 33 30  1  0  0  0  0
 34 35  1  0  0  0  0
 35 37  1  0  0  0  0
 35 36  1  1  0  0  0
M  END
>  <MODEL>
5

>  <REMARK>
 VINA RESULT:      -5.5      3.050      8.687
  Name = 
  9 active torsions:
  status: ('A' for Active; 'I' for Inactive)
    1  A    between atoms: C_1  and  C_5
    2  A    between atoms: C_1  and  C_36
    3  A    between atoms: C_6  and  C_31
    4  A    between atoms: C_11  and  C_33
    5  A    between atoms: N_18  and  C_19
    6  A    between atoms: C_21  and  C_30
    7  A    between atoms: C_27  and  C_36
    8  A    between atoms: C_29  and  C_36
    9  A    between atoms: C_33  and  C_36
                            x       y       z     vdW  Elec       q    Type
                         _______ _______ _______ _____ _____    ______ ____

>  <TORSDO>
F 9

$$$$
=
 OpenBabel11052415333D

 37 40  0  0  1  0  0  0  0  0999 V2000
  179.3960  176.6080  140.7070 C   0  0  0  0  0  3  0  0  0  0  0  0
  179.7100  177.3870  138.6020 O   0  0  0  0  0  1  0  0  0  0  0  0
  181.7240  177.8090  140.6270 C   0  0  2  0  0  3  0  0  0  0  0  0
  183.1150  175.1480  138.6460 O   0  0  0  0  0  1  0  0  0  0  0  0
  182.8340  177.7530  141.6650 C   0  0  0  0  0  2  0  0  0  0  0  0
  179.6710  176.1760  139.3270 C   0  0  1  0  0  0  0  0  0  0  0  0
  181.9580  175.9230  138.5940 C   0  0  1  0  0  0  0  0  0  0  0  0
  179.8670  175.0430  137.1300 C   0  0  2  0  0  3  0  0  0  0  0  0
  180.1450  177.7670  142.6970 C   0  0  0  0  0  3  0  0  0  0  0  0
  180.9770  175.3750  139.5290 C   0  0  0  0  0  2  0  0  0  0  0  0
  178.9360  175.2370  138.4050 C   0  0  0  0  0  2  0  0  0  0  0  0
  180.3560  177.3840  141.2910 C   0  0  0  0  0  0  0  0  0  0  0  0
  182.2330  177.3770  139.1590 C   0  0  2  0  0  3  0  0  0  0  0  0
  182.4670  178.6670  142.8350 C   0  0  1  0  0  3  0  0  0  0  0  0
  181.2880  175.7820  137.1690 C   0  0  0  0  0  2  0  0  0  0  0  0
  181.1170  178.3350  143.4190 C   0  0  0  0  0  3  0  0  0  0  0  0
  183.3470  178.9830  145.2070 C   0  0  0  0  0  3  0  0  0  0  0  0
  183.5300  178.6320  143.8810 C   0  0  0  0  0  0  0  0  0  0  0  0
  184.8530  178.2850  143.6920 C   0  0  0  0  0  3  0  0  0  0  0  0
  185.4740  178.4160  144.8740 N   0  0  0  0  0  0  0  0  0  0  0  0
  184.5880  178.8290  145.7990 C   0  0  0  0  0  3  0  0  0  0  0  0
  187.3260  176.9650  144.2530 C   0  0  0  0  0  1  0  0  0  0  0  0
  186.8750  178.1210  145.1250 C   0  0  0  0  0  2  0  0  0  0  0  0
  179.5450  174.6210  134.8030 O   0  0  0  0  0  1  0  0  0  0  0  0
  179.1270  175.4280  135.8610 C   0  0  0  0  0  2  0  0  0  0  0  0
  183.2420  178.2990  138.4090 C   0  0  1  0  0  0  0  0  0  0  0  0
  183.9880  177.5500  136.2240 O   0  0  0  0  0  1  0  0  0  0  0  0
  183.0010  178.2820  136.8890 C   0  0  0  0  0  2  0  0  0  0  0  0
  183.1490  179.7460  138.9340 C   0  0  0  0  0  2  0  0  0  0  0  0
  181.8310  180.4200  138.7090 C   0  0  0  0  0  0  0  0  0  0  0  0
  179.6480  181.2570  139.6470 C   0  0  0  0  0  1  0  0  0  0  0  0
  181.5200  180.8210  137.5550 O   0  0  0  0  0  0  0  0  0  0  0  0
  180.9430  180.6160  139.8090 N   0  0  0  0  0  2  0  0  0  0  0  0
  184.6610  177.7700  138.6830 C   0  0  0  0  0  2  0  0  0  0  0  0
  185.6740  178.8500  139.0540 C   0  0  1  0  0  3  0  0  0  0  0  0
  186.1510  178.6450  140.4770 C   0  0  0  0  0  1  0  0  0  0  0  0
  186.7650  178.7730  138.1910 O   0  0  0  0  0  1  0  0  0  0  0  0
  1 12  2  0  0  0  0
  3 12  1  0  0  0  0
  3  5  1  1  0  0  0
  5 14  1  0  0  0  0
  6  2  1  6  0  0  0
  6 10  1  0  0  0  0
  6  1  1  0  0  0  0
  7  4  1  1  0  0  0
  7 13  1  0  0  0  0
  7 10  1  0  0  0  0
  8 25  1  6  0  0  0
  8 15  1  0  0  0  0
  8 11  1  0  0  0  0
  9 16  2  0  0  0  0
 11  6  1  0  0  0  0
 12  9  1  0  0  0  0
 13 26  1  1  0  0  0
 13  3  1  0  0  0  0
 14 16  1  0  0  0  0
 14 18  1  1  0  0  0
 15  7  1  0  0  0  0
 17 21  2  0  0  0  0
 18 17  1  0  0  0  0
 19 18  2  0  0  0  0
 19 20  1  0  0  0  0
 20 23  1  0  0  0  0
 20 21  1  0  0  0  0
 22 23  1  0  0  0  0
 24 25  1  0  0  0  0
 26 28  1  6  0  0  0
 26 34  1  0  0  0  0
 26 29  1  0  0  0  0
 27 28  1  0  0  0  0
 30 29  1  0  0  0  0
 30 33  1  0  0  0  0
 31 33  1  0  0  0  0
 32 30  2  0  0  0  0
 34 35  1  0  0  0  0
 35 36  1  1  0  0  0
 37 35  1  0  0  0  0
M  END
>  <MODEL>
6

>  <REMARK>
 VINA RESULT:      -5.5      2.190      3.912
  Name = 
  9 active torsions:
  status: ('A' for Active; 'I' for Inactive)
    1  A    between atoms: C_1  and  C_5
    2  A    between atoms: C_1  and  C_36
    3  A    between atoms: C_6  and  C_31
    4  A    between atoms: C_11  and  C_33
    5  A    between atoms: N_18  and  C_19
    6  A    between atoms: C_21  and  C_30
    7  A    between atoms: C_27  and  C_36
    8  A    between atoms: C_29  and  C_36
    9  A    between atoms: C_33  and  C_36
                            x       y       z     vdW  Elec       q    Type
                         _______ _______ _______ _____ _____    ______ ____

>  <TORSDO>
F 9

$$$$
=
 OpenBabel11052415333D

 37 40  0  0  1  0  0  0  0  0999 V2000
  188.3160  178.2750  140.6540 C   0  0  0  0  0  3  0  0  0  0  0  0
  188.8310  176.3690  139.5430 O   0  0  0  0  0  1  0  0  0  0  0  0
  186.3270  177.7140  139.0420 C   0  0  2  0  0  3  0  0  0  0  0  0
  188.3050  178.5930  136.1690 O   0  0  0  0  0  1  0  0  0  0  0  0
  185.1680  178.6170  138.6480 C   0  0  0  0  0  2  0  0  0  0  0  0
  189.1990  177.7300  139.6100 C   0  0  1  0  0  0  0  0  0  0  0  0
  188.4960  177.8030  137.3010 C   0  0  1  0  0  0  0  0  0  0  0  0
  191.0140  177.1500  138.0230 C   0  0  2  0  0  3  0  0  0  0  0  0
  186.0760  178.8520  141.3710 C   0  0  0  0  0  3  0  0  0  0  0  0
  188.8580  178.6630  138.4260 C   0  0  0  0  0  2  0  0  0  0  0  0
  190.7000  177.6960  139.4840 C   0  0  0  0  0  2  0  0  0  0  0  0
  186.9780  178.2430  140.3800 C   0  0  0  0  0  0  0  0  0  0  0  0
  187.1290  177.1490  137.7630 C   0  0  2  0  0  3  0  0  0  0  0  0
  184.1550  178.6540  139.7920 C   0  0  1  0  0  3  0  0  0  0  0  0
  189.7470  176.8610  137.0860 C   0  0  0  0  0  2  0  0  0  0  0  0
  184.7840  179.0650  141.1000 C   0  0  0  0  0  3  0  0  0  0  0  0
  181.6860  179.2890  139.7780 C   0  0  0  0  0  3  0  0  0  0  0  0
  183.0050  179.5400  139.4460 C   0  0  0  0  0  0  0  0  0  0  0  0
  183.0660  180.7120  138.7190 C   0  0  0  0  0  3  0  0  0  0  0  0
  181.8130  181.1780  138.6050 N   0  0  0  0  0  0  0  0  0  0  0  0
  180.9680  180.3430  139.2380 C   0  0  0  0  0  3  0  0  0  0  0  0
  179.9730  182.7220  138.2140 C   0  0  0  0  0  1  0  0  0  0  0  0
  181.4320  182.4120  137.9380 C   0  0  0  0  0  2  0  0  0  0  0  0
  191.1270  174.7730  137.8460 O   0  0  0  0  0  1  0  0  0  0  0  0
  191.8920  175.9140  138.0890 C   0  0  0  0  0  2  0  0  0  0  0  0
  186.4170  176.1400  136.8120 C   0  0  1  0  0  0  0  0  0  0  0  0
  185.7810  177.0680  134.6610 O   0  0  0  0  0  1  0  0  0  0  0  0
  186.7940  176.3860  135.3390 C   0  0  0  0  0  2  0  0  0  0  0  0
  186.7650  174.6880  137.2010 C   0  0  0  0  0  2  0  0  0  0  0  0
  187.2540  173.8300  136.0760 C   0  0  0  0  0  0  0  0  0  0  0  0
  189.1890  172.8460  134.7980 C   0  0  0  0  0  1  0  0  0  0  0  0
  186.4270  173.2510  135.3210 O   0  0  0  0  0  0  0  0  0  0  0  0
  188.6580  173.6610  135.8770 N   0  0  0  0  0  2  0  0  0  0  0  0
  184.8980  176.3360  136.9640 C   0  0  0  0  0  2  0  0  0  0  0  0
  184.1500  175.0980  137.4520 C   0  0  1  0  0  3  0  0  0  0  0  0
  183.0950  175.4960  138.4630 C   0  0  0  0  0  1  0  0  0  0  0  0
  183.5330  174.4760  136.3680 O   0  0  0  0  0  1  0  0  0  0  0  0
  3  5  1  6  0  0  0
  3 12  1  0  0  0  0
  5 14  1  0  0  0  0
  6  2  1  6  0  0  0
  6  1  1  0  0  0  0
  7  4  1  6  0  0  0
  7 13  1  0  0  0  0
  7 10  1  0  0  0  0
  8 25  1  1  0  0  0
  8 11  1  0  0  0  0
 10  6  1  0  0  0  0
 11  6  1  0  0  0  0
 12  1  2  0  0  0  0
 12  9  1  0  0  0  0
 13 26  1  6  0  0  0
 13  3  1  0  0  0  0
 14 18  1  6  0  0  0
 14 16  1  0  0  0  0
 15  7  1  0  0  0  0
 15  8  1  0  0  0  0
 16  9  2  0  0  0  0
 18 17  1  0  0  0  0
 19 18  2  0  0  0  0
 20 19  1  0  0  0  0
 20 21  1  0  0  0  0
 21 17  2  0  0  0  0
 23 22  1  0  0  0  0
 23 20  1  0  0  0  0
 24 25  1  0  0  0  0
 26 28  1  6  0  0  0
 26 34  1  0  0  0  0
 26 29  1  0  0  0  0
 27 28  1  0  0  0  0
 30 29  1  0  0  0  0
 31 33  1  0  0  0  0
 32 30  2  0  0  0  0
 33 30  1  0  0  0  0
 34 35  1  0  0  0  0
 35 36  1  1  0  0  0
 37 35  1  0  0  0  0
M  END
>  <MODEL>
7

>  <REMARK>
 VINA RESULT:      -5.3      3.702      7.489
  Name = 
  9 active torsions:
  status: ('A' for Active; 'I' for Inactive)
    1  A    between atoms: C_1  and  C_5
    2  A    between atoms: C_1  and  C_36
    3  A    between atoms: C_6  and  C_31
    4  A    between atoms: C_11  and  C_33
    5  A    between atoms: N_18  and  C_19
    6  A    between atoms: C_21  and  C_30
    7  A    between atoms: C_27  and  C_36
    8  A    between atoms: C_29  and  C_36
    9  A    between atoms: C_33  and  C_36
                            x       y       z     vdW  Elec       q    Type
                         _______ _______ _______ _____ _____    ______ ____

>  <TORSDO>
F 9

$$$$
=
 OpenBabel11052415333D

 37 40  0  0  1  0  0  0  0  0999 V2000
  191.1520  177.3790  141.3990 C   0  0  0  0  0  3  0  0  0  0  0  0
  190.3990  178.4490  143.2500 O   0  0  0  0  0  1  0  0  0  0  0  0
  188.6060  177.8970  141.0560 C   0  0  2  0  0  3  0  0  0  0  0  0
  187.6920  175.4130  143.4910 O   0  0  0  0  0  1  0  0  0  0  0  0
  187.6810  177.3370  139.9870 C   0  0  0  0  0  2  0  0  0  0  0  0
  190.8270  177.1740  142.8210 C   0  0  1  0  0  0  0  0  0  0  0  0
  188.6040  176.4650  143.4420 C   0  0  1  0  0  0  0  0  0  0  0  0
  190.6530  176.4950  145.1990 C   0  0  2  0  0  3  0  0  0  0  0  0
  190.3860  177.8690  139.1550 C   0  0  0  0  0  3  0  0  0  0  0  0
  189.7970  176.0270  142.7200 C   0  0  0  0  0  2  0  0  0  0  0  0
  191.6550  176.6730  143.9760 C   0  0  0  0  0  2  0  0  0  0  0  0
  190.1070  177.7340  140.5940 C   0  0  0  0  0  0  0  0  0  0  0  0
  188.0460  177.6470  142.5470 C   0  0  2  0  0  3  0  0  0  0  0  0
  187.9470  178.0630  138.6680 C   0  0  1  0  0  3  0  0  0  0  0  0
  189.1090  176.7990  144.9020 C   0  0  0  0  0  2  0  0  0  0  0  0
  189.3990  177.9970  138.2630 C   0  0  0  0  0  3  0  0  0  0  0  0
  185.7350  177.8790  137.4130 C   0  0  0  0  0  3  0  0  0  0  0  0
  187.0630  177.5330  137.5900 C   0  0  0  0  0  0  0  0  0  0  0  0
  187.4100  176.5990  136.6330 C   0  0  0  0  0  3  0  0  0  0  0  0
  186.3220  176.3750  135.8800 N   0  0  0  0  0  0  0  0  0  0  0  0
  185.3060  177.1360  136.3270 C   0  0  0  0  0  3  0  0  0  0  0  0
  186.1100  174.0450  135.2080 C   0  0  0  0  0  1  0  0  0  0  0  0
  186.2600  175.4790  134.7370 C   0  0  0  0  0  2  0  0  0  0  0  0
  192.0510  176.5880  147.1320 O   0  0  0  0  0  1  0  0  0  0  0  0
  191.1140  177.3110  146.3930 C   0  0  0  0  0  2  0  0  0  0  0  0
  186.7560  178.3930  143.0030 C   0  0  1  0  0  0  0  0  0  0  0  0
  185.6720  180.5630  142.9030 O   0  0  0  0  0  1  0  0  0  0  0  0
  186.5710  179.7200  142.2440 C   0  0  0  0  0  2  0  0  0  0  0  0
  185.5130  177.5030  142.8010 C   0  0  0  0  0  2  0  0  0  0  0  0
  184.3520  178.1730  142.1350 C   0  0  0  0  0  0  0  0  0  0  0  0
  183.2330  178.9430  140.0130 C   0  0  0  0  0  1  0  0  0  0  0  0
  183.3970  178.6150  142.8300 O   0  0  0  0  0  0  0  0  0  0  0  0
  184.3290  178.2950  140.7120 N   0  0  0  0  0  2  0  0  0  0  0  0
  186.8940  178.7060  144.5030 C   0  0  0  0  0  2  0  0  0  0  0  0
  185.7300  178.2130  145.3590 C   0  0  1  0  0  3  0  0  0  0  0  0
  186.2560  177.5360  146.6080 C   0  0  0  0  0  1  0  0  0  0  0  0
  184.9360  179.2980  145.7260 O   0  0  0  0  0  1  0  0  0  0  0  0
  1  6  1  0  0  0  0
  3  5  1  6  0  0  0
  3 13  1  0  0  0  0
  6  2  1  1  0  0  0
  6 11  1  0  0  0  0
  7  4  1  1  0  0  0
  7 15  1  0  0  0  0
  8 25  1  1  0  0  0
  9 12  1  0  0  0  0
 10  6  1  0  0  0  0
 10  7  1  0  0  0  0
 11  8  1  0  0  0  0
 12  3  1  0  0  0  0
 12  1  2  0  0  0  0
 13 26  1  6  0  0  0
 13  7  1  0  0  0  0
 14 18  1  6  0  0  0
 14  5  1  0  0  0  0
 15  8  1  0  0  0  0
 16 14  1  0  0  0  0
 16  9  2  0  0  0  0
 17 18  1  0  0  0  0
 19 18  2  0  0  0  0
 20 21  1  0  0  0  0
 20 19  1  0  0  0  0
 21 17  2  0  0  0  0
 23 22  1  0  0  0  0
 23 20  1  0  0  0  0
 25 24  1  0  0  0  0
 26 28  1  6  0  0  0
 26 34  1  0  0  0  0
 28 27  1  0  0  0  0
 29 26  1  0  0  0  0
 30 29  1  0  0  0  0
 30 32  2  0  0  0  0
 31 33  1  0  0  0  0
 33 30  1  0  0  0  0
 34 35  1  0  0  0  0
 35 37  1  0  0  0  0
 35 36  1  1  0  0  0
M  END
>  <MODEL>
8

>  <REMARK>
 VINA RESULT:      -5.2      3.153      8.834
  Name = 
  9 active torsions:
  status: ('A' for Active; 'I' for Inactive)
    1  A    between atoms: C_1  and  C_5
    2  A    between atoms: C_1  and  C_36
    3  A    between atoms: C_6  and  C_31
    4  A    between atoms: C_11  and  C_33
    5  A    between atoms: N_18  and  C_19
    6  A    between atoms: C_21  and  C_30
    7  A    between atoms: C_27  and  C_36
    8  A    between atoms: C_29  and  C_36
    9  A    between atoms: C_33  and  C_36
                            x       y       z     vdW  Elec       q    Type
                         _______ _______ _______ _____ _____    ______ ____

>  <TORSDO>
F 9

$$$$
=
 OpenBabel11052415333D

 37 40  0  0  1  0  0  0  0  0999 V2000
  180.5080  179.0070  135.4050 C   0  0  0  0  0  3  0  0  0  0  0  0
  179.3610  179.7840  137.1990 O   0  0  0  0  0  1  0  0  0  0  0  0
  181.1010  177.4960  137.4630 C   0  0  2  0  0  3  0  0  0  0  0  0
  183.0210  180.1470  138.9550 O   0  0  0  0  0  1  0  0  0  0  0  0
  182.2280  176.4800  137.5740 C   0  0  0  0  0  2  0  0  0  0  0  0
  180.4430  180.1270  136.3590 C   0  0  1  0  0  0  0  0  0  0  0  0
  181.7530  180.0390  138.3860 C   0  0  1  0  0  0  0  0  0  0  0  0
  180.4930  182.2860  137.5770 C   0  0  2  0  0  3  0  0  0  0  0  0
  180.9470  176.6600  135.0010 C   0  0  0  0  0  3  0  0  0  0  0  0
  181.8790  180.1040  136.9300 C   0  0  0  0  0  2  0  0  0  0  0  0
  180.2740  181.6100  136.1540 C   0  0  0  0  0  2  0  0  0  0  0  0
  180.7980  177.7840  135.9400 C   0  0  0  0  0  0  0  0  0  0  0  0
  181.1480  178.5970  138.6390 C   0  0  2  0  0  3  0  0  0  0  0  0
  181.8250  175.2080  136.8280 C   0  0  1  0  0  3  0  0  0  0  0  0
  180.8860  181.3000  138.7780 C   0  0  0  0  0  2  0  0  0  0  0  0
  181.4390  175.4820  135.3960 C   0  0  0  0  0  3  0  0  0  0  0  0
  182.7540  172.8410  136.6340 C   0  0  0  0  0  3  0  0  0  0  0  0
  182.9120  174.1880  136.9070 C   0  0  0  0  0  0  0  0  0  0  0  0
  184.2180  174.4130  137.2940 C   0  0  0  0  0  3  0  0  0  0  0  0
  184.8550  173.2320  137.2590 N   0  0  0  0  0  0  0  0  0  0  0  0
  183.9970  172.2750  136.8600 C   0  0  0  0  0  3  0  0  0  0  0  0
  187.1150  173.4250  136.3780 C   0  0  0  0  0  1  0  0  0  0  0  0
  186.2600  173.0260  137.5660 C   0  0  0  0  0  2  0  0  0  0  0  0
  178.9320  182.8440  139.2940 O   0  0  0  0  0  1  0  0  0  0  0  0
  179.2830  183.1130  137.9710 C   0  0  0  0  0  2  0  0  0  0  0  0
  180.8560  178.1490  140.1030 C   0  0  1  0  0  0  0  0  0  0  0  0
  183.0630  177.5930  140.9460 O   0  0  0  0  0  1  0  0  0  0  0  0
  182.0150  178.5120  141.0490 C   0  0  0  0  0  2  0  0  0  0  0  0
  179.5490  178.7880  140.6160 C   0  0  0  0  0  2  0  0  0  0  0  0
  179.6170  179.3450  142.0040 C   0  0  0  0  0  0  0  0  0  0  0  0
  179.2730  179.0220  144.4780 C   0  0  0  0  0  1  0  0  0  0  0  0
  180.0240  180.5250  142.1880 O   0  0  0  0  0  0  0  0  0  0  0  0
  179.2340  178.5300  143.1120 N   0  0  0  0  0  2  0  0  0  0  0  0
  180.6860  176.6200  140.1060 C   0  0  0  0  0  2  0  0  0  0  0  0
  179.2390  176.1480  140.2190 C   0  0  1  0  0  3  0  0  0  0  0  0
  178.9310  175.1540  139.1180 C   0  0  0  0  0  1  0  0  0  0  0  0
  179.0510  175.5330  141.4550 O   0  0  0  0  0  1  0  0  0  0  0  0
  1 12  2  0  0  0  0
  1  6  1  0  0  0  0
  3  5  1  6  0  0  0
  3 13  1  0  0  0  0
  6 10  1  0  0  0  0
  6  2  1  1  0  0  0
  7 13  1  0  0  0  0
  7 15  1  0  0  0  0
  7  4  1  1  0  0  0
  8 25  1  1  0  0  0
  8 15  1  0  0  0  0
  9 16  2  0  0  0  0
  9 12  1  0  0  0  0
 10  7  1  0  0  0  0
 11  6  1  0  0  0  0
 11  8  1  0  0  0  0
 12  3  1  0  0  0  0
 13 26  1  1  0  0  0
 14 18  1  6  0  0  0
 14  5  1  0  0  0  0
 16 14  1  0  0  0  0
 17 21  2  0  0  0  0
 17 18  1  0  0  0  0
 18 19  2  0  0  0  0
 20 19  1  0  0  0  0
 20 23  1  0  0  0  0
 21 20  1  0  0  0  0
 22 23  1  0  0  0  0
 25 24  1  0  0  0  0
 26 34  1  1  0  0  0
 26 29  1  0  0  0  0
 26 28  1  0  0  0  0
 27 28  1  0  0  0  0
 29 30  1  0  0  0  0
 30 32  2  0  0  0  0
 30 33  1  0  0  0  0
 33 31  1  0  0  0  0
 34 35  1  0  0  0  0
 35 36  1  6  0  0  0
 35 37  1  0  0  0  0
M  END
>  <MODEL>
9

>  <REMARK>
 VINA RESULT:      -5.0      4.350      7.358
  Name = 
  9 active torsions:
  status: ('A' for Active; 'I' for Inactive)
    1  A    between atoms: C_1  and  C_5
    2  A    between atoms: C_1  and  C_36
    3  A    between atoms: C_6  and  C_31
    4  A    between atoms: C_11  and  C_33
    5  A    between atoms: N_18  and  C_19
    6  A    between atoms: C_21  and  C_30
    7  A    between atoms: C_27  and  C_36
    8  A    between atoms: C_29  and  C_36
    9  A    between atoms: C_33  and  C_36
                            x       y       z     vdW  Elec       q    Type
                         _______ _______ _______ _____ _____    ______ ____

>  <TORSDO>
F 9

$$$$
