=
 OpenBabel11052412193D

 30 33  0  0  1  0  0  0  0  0999 V2000
  181.8330  175.7120  139.7180 C   0  0  0  0  0  2  0  0  0  0  0  0
  181.3490  177.0620  139.2060 C   0  0  1  0  0  0  0  0  0  0  0  0
  180.2160  180.6020  139.1610 C   0  0  0  0  0  2  0  0  0  0  0  0
  182.1470  179.2020  138.1430 C   0  0  0  0  0  2  0  0  0  0  0  0
  179.5370  177.4160  141.0550 C   0  0  0  0  0  2  0  0  0  0  0  0
  182.3350  178.2550  139.3260 C   0  0  2  0  0  3  0  0  0  0  0  0
  180.0750  178.6800  141.7150 C   0  0  0  0  0  2  0  0  0  0  0  0
  180.2760  180.8320  140.5960 N   0  0  0  0  0  2  0  0  0  0  0  0
  181.6170  175.9040  138.2190 C   0  0  2  0  0  0  0  0  0  0  0  0
  179.0920  177.6160  138.7570 O   0  0  0  0  0  0  0  0  0  0  0  0
  179.9250  177.3480  139.6090 C   0  0  0  0  0  0  0  0  0  0  0  0
  179.3360  179.9120  141.2160 C   0  0  0  0  0  2  0  0  0  0  0  0
  182.2820  181.5210  138.5130 O   0  0  0  0  0  0  0  0  0  0  0  0
  181.5980  180.5150  138.6030 C   0  0  0  0  0  0  0  0  0  0  0  0
  179.6170  172.8580  137.3440 C   0  0  1  0  0  3  0  0  0  0  0  0
  180.1290  173.8590  138.3600 C   0  0  1  0  0  3  0  0  0  0  0  0
  180.6670  173.8780  136.9540 C   0  0  2  0  0  3  0  0  0  0  0  0
  180.2270  171.6240  137.5620 O   0  0  0  0  0  1  0  0  0  0  0  0
  180.3620  175.1910  137.6600 C   0  0  2  0  0  3  0  0  0  0  0  0
  184.1340  178.0920  140.9410 O   0  0  0  0  0  1  0  0  0  0  0  0
  183.8200  177.9210  139.5900 C   0  0  2  0  0  3  0  0  0  0  0  0
  184.7850  178.7460  138.7300 C   0  0  0  0  0  2  0  0  0  0  0  0
  186.5580  178.4230  137.0000 C   0  0  0  0  0  1  0  0  0  0  0  0
  187.1280  178.2960  139.3930 C   0  0  0  0  0  1  0  0  0  0  0  0
  186.0600  177.9910  138.3650 C   0  0  0  0  0  3  0  0  0  0  0  0
  182.9170  175.9930  137.3970 C   0  0  2  0  0  3  0  0  0  0  0  0
  182.6310  176.1260  136.0350 O   0  0  0  0  0  0  0  0  0  0  0  0
  183.5700  177.0390  135.5500 C   0  0  0  0  0  1  0  0  0  0  0  0
  183.7780  174.8210  137.6230 C   0  0  0  0  0  0  0  0  0  0  0  0
  184.4560  173.9000  137.7990 N   0  0  0  0  0  0  0  0  0  0  0  0
  2  6  1  0  0  0  0
  2 11  1  0  0  0  0
  2  1  1  1  0  0  0
  3  8  1  0  0  0  0
  4 14  1  0  0  0  0
  4  6  1  0  0  0  0
  5  7  1  0  0  0  0
  6 21  1  6  0  0  0
  8 12  1  0  0  0  0
  9 26  1  6  0  0  0
  9  2  1  0  0  0  0
  9  1  1  0  0  0  0
 10 11  2  0  0  0  0
 11  5  1  0  0  0  0
 12  7  1  0  0  0  0
 13 14  2  0  0  0  0
 14  3  1  0  0  0  0
 15 18  1  0  0  0  0
 15 16  1  0  0  0  0
 17 15  1  0  0  0  0
 17 19  1  0  0  0  0
 17 16  1  0  0  0  0
 19  9  1  0  0  0  0
 19 16  1  0  0  0  0
 21 20  1  0  0  0  0
 22 21  1  0  0  0  0
 23 25  1  0  0  0  0
 25 22  1  0  0  0  0
 25 24  1  0  0  0  0
 26 29  1  0  0  0  0
 27 26  1  0  0  0  0
 28 27  1  0  0  0  0
 29 30  3  0  0  0  0
M  END
>  <MODEL>
1

>  <REMARK>
 VINA RESULT:      -4.2      0.000      0.000
  Name = 
  7 active torsions:
  status: ('A' for Active; 'I' for Inactive)
    1  A    between atoms: O_2  and  C_14
    2  A    between atoms: C_6  and  C_12
    3  A    between atoms: C_6  and  C_21
    4  A    between atoms: C_12  and  C_13
    5  A    between atoms: C_14  and  C_20
    6  A    between atoms: C_14  and  C_22
    7  A    between atoms: C_22  and  C_29
                            x       y       z     vdW  Elec       q    Type
                         _______ _______ _______ _____ _____    ______ ____

>  <TORSDO>
F 7

$$$$
=
 OpenBabel11052412193D

 30 33  0  0  1  0  0  0  0  0999 V2000
  181.5110  178.2970  138.0330 C   0  0  0  0  0  2  0  0  0  0  0  0
  181.7410  176.7940  138.1180 C   0  0  1  0  0  0  0  0  0  0  0  0
  181.8890  173.2030  137.1700 C   0  0  0  0  0  2  0  0  0  0  0  0
  183.5380  175.0330  137.9780 C   0  0  0  0  0  2  0  0  0  0  0  0
  179.5060  176.1130  136.9480 C   0  0  0  0  0  2  0  0  0  0  0  0
  182.8860  176.2070  137.2500 C   0  0  2  0  0  3  0  0  0  0  0  0
  180.0570  175.3920  135.7250 C   0  0  0  0  0  2  0  0  0  0  0  0
  181.3780  173.3490  135.8160 N   0  0  0  0  0  2  0  0  0  0  0  0
  182.0470  177.7000  139.3310 C   0  0  2  0  0  0  0  0  0  0  0  0
  180.2040  175.2310  139.0110 O   0  0  0  0  0  0  0  0  0  0  0  0
  180.4490  176.0170  138.1080 C   0  0  0  0  0  0  0  0  0  0  0  0
  180.0300  173.8830  135.9230 C   0  0  0  0  0  2  0  0  0  0  0  0
  184.1990  173.1510  136.7320 O   0  0  0  0  0  0  0  0  0  0  0  0
  183.2750  173.7530  137.2520 C   0  0  0  0  0  0  0  0  0  0  0  0
  179.8540  179.2940  141.9190 C   0  0  1  0  0  3  0  0  0  0  0  0
  180.1340  178.8930  140.4840 C   0  0  1  0  0  3  0  0  0  0  0  0
  181.2100  178.7450  141.5260 C   0  0  2  0  0  3  0  0  0  0  0  0
  179.9300  180.6800  142.0360 O   0  0  0  0  0  1  0  0  0  0  0  0
  181.0160  177.6530  140.4840 C   0  0  2  0  0  3  0  0  0  0  0  0
  183.6890  177.4330  135.3190 O   0  0  0  0  0  1  0  0  0  0  0  0
  183.9210  177.2010  136.6780 C   0  0  2  0  0  3  0  0  0  0  0  0
  185.3710  176.7450  136.8810 C   0  0  0  0  0  2  0  0  0  0  0  0
  187.1430  177.8900  138.2180 C   0  0  0  0  0  1  0  0  0  0  0  0
  187.3370  177.7570  135.7670 C   0  0  0  0  0  1  0  0  0  0  0  0
  186.3650  177.9020  136.9170 C   0  0  0  0  0  3  0  0  0  0  0  0
  183.5340  178.0020  139.6020 C   0  0  2  0  0  3  0  0  0  0  0  0
  183.8550  177.7390  140.9370 O   0  0  0  0  0  0  0  0  0  0  0  0
  184.9540  178.5550  141.2180 C   0  0  0  0  0  1  0  0  0  0  0  0
  183.8710  179.3940  139.2630 C   0  0  0  0  0  0  0  0  0  0  0  0
  184.1370  180.4880  138.9960 N   0  0  0  0  0  0  0  0  0  0  0  0
  1  9  1  0  0  0  0
  2  1  1  6  0  0  0
  2  9  1  0  0  0  0
  3 14  1  0  0  0  0
  5 11  1  0  0  0  0
  6 21  1  1  0  0  0
  6  4  1  0  0  0  0
  6  2  1  0  0  0  0
  7 12  1  0  0  0  0
  7  5  1  0  0  0  0
  8 12  1  0  0  0  0
  8  3  1  0  0  0  0
  9 26  1  1  0  0  0
  9 19  1  0  0  0  0
 11  2  1  0  0  0  0
 11 10  2  0  0  0  0
 13 14  2  0  0  0  0
 14  4  1  0  0  0  0
 15 18  1  0  0  0  0
 16 17  1  0  0  0  0
 16 15  1  0  0  0  0
 17 15  1  0  0  0  0
 19 16  1  0  0  0  0
 19 17  1  0  0  0  0
 20 21  1  0  0  0  0
 21 22  1  0  0  0  0
 22 25  1  0  0  0  0
 24 25  1  0  0  0  0
 25 23  1  0  0  0  0
 26 27  1  0  0  0  0
 27 28  1  0  0  0  0
 29 26  1  0  0  0  0
 30 29  3  0  0  0  0
M  END
>  <MODEL>
2

>  <REMARK>
 VINA RESULT:      -4.1      1.964      5.528
  Name = 
  7 active torsions:
  status: ('A' for Active; 'I' for Inactive)
    1  A    between atoms: O_2  and  C_14
    2  A    between atoms: C_6  and  C_12
    3  A    between atoms: C_6  and  C_21
    4  A    between atoms: C_12  and  C_13
    5  A    between atoms: C_14  and  C_20
    6  A    between atoms: C_14  and  C_22
    7  A    between atoms: C_22  and  C_29
                            x       y       z     vdW  Elec       q    Type
                         _______ _______ _______ _____ _____    ______ ____

>  <TORSDO>
F 7

$$$$
=
 OpenBabel11052412193D

 30 33  0  0  1  0  0  0  0  0999 V2000
  185.5470  173.4720  137.5530 C   0  0  0  0  0  2  0  0  0  0  0  0
  184.4910  173.6420  136.4700 C   0  0  1  0  0  0  0  0  0  0  0  0
  181.2260  173.5280  134.6980 C   0  0  0  0  0  2  0  0  0  0  0  0
  182.9310  175.3340  135.4440 C   0  0  0  0  0  2  0  0  0  0  0  0
  183.4350  171.2680  136.7500 C   0  0  0  0  0  2  0  0  0  0  0  0
  183.3550  174.6620  136.7490 C   0  0  2  0  0  3  0  0  0  0  0  0
  182.0220  171.6550  137.1660 C   0  0  0  0  0  2  0  0  0  0  0  0
  180.4640  172.8850  135.7570 N   0  0  0  0  0  2  0  0  0  0  0  0
  185.9420  174.1140  136.2260 C   0  0  2  0  0  0  0  0  0  0  0  0
  184.1260  172.1380  134.6790 O   0  0  0  0  0  0  0  0  0  0  0  0
  184.0560  172.3230  135.8850 C   0  0  0  0  0  0  0  0  0  0  0  0
  181.0650  171.5810  135.9850 C   0  0  0  0  0  2  0  0  0  0  0  0
  180.6480  175.7750  135.0850 O   0  0  0  0  0  0  0  0  0  0  0  0
  181.5360  174.9380  135.0800 C   0  0  0  0  0  0  0  0  0  0  0  0
  189.1720  172.5340  135.1690 C   0  0  1  0  0  3  0  0  0  0  0  0
  187.9610  172.5920  136.0780 C   0  0  1  0  0  3  0  0  0  0  0  0
  188.2210  173.7130  135.1070 C   0  0  2  0  0  3  0  0  0  0  0  0
  190.3100  172.8940  135.8890 O   0  0  0  0  0  1  0  0  0  0  0  0
  186.8000  173.2080  135.3110 C   0  0  2  0  0  3  0  0  0  0  0  0
  182.8350  175.3210  139.0220 O   0  0  0  0  0  1  0  0  0  0  0  0
  183.5790  175.6750  137.8940 C   0  0  2  0  0  3  0  0  0  0  0  0
  183.2500  177.1190  137.4940 C   0  0  0  0  0  2  0  0  0  0  0  0
  184.9500  178.5880  138.5840 C   0  0  0  0  0  1  0  0  0  0  0  0
  182.6060  179.3240  138.4160 C   0  0  0  0  0  1  0  0  0  0  0  0
  183.5070  178.1250  138.6110 C   0  0  0  0  0  3  0  0  0  0  0  0
  186.1890  175.6330  136.3050 C   0  0  2  0  0  3  0  0  0  0  0  0
  186.4130  176.1630  135.0300 O   0  0  0  0  0  0  0  0  0  0  0  0
  186.1640  177.5310  135.1520 C   0  0  0  0  0  1  0  0  0  0  0  0
  187.3210  175.9490  137.1920 C   0  0  0  0  0  0  0  0  0  0  0  0
  188.2110  176.1970  137.8880 N   0  0  0  0  0  0  0  0  0  0  0  0
  2  6  1  0  0  0  0
  2  1  1  1  0  0  0
  3 14  1  0  0  0  0
  3  8  1  0  0  0  0
  4  6  1  0  0  0  0
  5  7  1  0  0  0  0
  6 21  1  1  0  0  0
  8 12  1  0  0  0  0
  9 26  1  6  0  0  0
  9  2  1  0  0  0  0
  9  1  1  0  0  0  0
 10 11  2  0  0  0  0
 11  2  1  0  0  0  0
 11  5  1  0  0  0  0
 12  7  1  0  0  0  0
 14 13  2  0  0  0  0
 14  4  1  0  0  0  0
 15 18  1  0  0  0  0
 15 16  1  0  0  0  0
 17 15  1  0  0  0  0
 17 19  1  0  0  0  0
 17 16  1  0  0  0  0
 19 16  1  0  0  0  0
 19  9  1  0  0  0  0
 21 20  1  0  0  0  0
 22 21  1  0  0  0  0
 22 25  1  0  0  0  0
 23 25  1  0  0  0  0
 24 25  1  0  0  0  0
 26 29  1  0  0  0  0
 27 28  1  0  0  0  0
 27 26  1  0  0  0  0
 29 30  3  0  0  0  0
M  END
>  <MODEL>
3

>  <REMARK>
 VINA RESULT:      -3.6      3.455      6.468
  Name = 
  7 active torsions:
  status: ('A' for Active; 'I' for Inactive)
    1  A    between atoms: O_2  and  C_14
    2  A    between atoms: C_6  and  C_12
    3  A    between atoms: C_6  and  C_21
    4  A    between atoms: C_12  and  C_13
    5  A    between atoms: C_14  and  C_20
    6  A    between atoms: C_14  and  C_22
    7  A    between atoms: C_22  and  C_29
                            x       y       z     vdW  Elec       q    Type
                         _______ _______ _______ _____ _____    ______ ____

>  <TORSDO>
F 7

$$$$
=
 OpenBabel11052412193D

 30 33  0  0  1  0  0  0  0  0999 V2000
  183.2110  177.4220  136.3050 C   0  0  0  0  0  2  0  0  0  0  0  0
  182.7070  177.2600  137.7320 C   0  0  1  0  0  0  0  0  0  0  0  0
  180.5960  177.6010  140.7730 C   0  0  0  0  0  2  0  0  0  0  0  0
  181.4450  175.6870  139.2430 C   0  0  0  0  0  2  0  0  0  0  0  0
  182.1010  179.7770  138.0900 C   0  0  0  0  0  2  0  0  0  0  0  0
  181.3910  176.4620  137.9270 C   0  0  2  0  0  3  0  0  0  0  0  0
  180.6000  179.6580  138.3230 C   0  0  0  0  0  2  0  0  0  0  0  0
  179.5920  178.4840  140.2020 N   0  0  0  0  0  2  0  0  0  0  0  0
  184.0050  176.5570  137.2790 C   0  0  2  0  0  0  0  0  0  0  0  0
  183.4320  178.5440  139.5840 O   0  0  0  0  0  0  0  0  0  0  0  0
  182.8210  178.5370  138.5260 C   0  0  0  0  0  0  0  0  0  0  0  0
  180.2720  179.7070  139.8070 C   0  0  0  0  0  2  0  0  0  0  0  0
  179.4960  175.5330  140.5510 O   0  0  0  0  0  0  0  0  0  0  0  0
  180.4410  176.2260  140.2110 C   0  0  0  0  0  0  0  0  0  0  0  0
  187.5670  177.6310  136.8270 C   0  0  1  0  0  3  0  0  0  0  0  0
  186.0810  177.8490  136.6200 C   0  0  1  0  0  3  0  0  0  0  0  0
  186.5740  176.5460  137.1920 C   0  0  2  0  0  3  0  0  0  0  0  0
  188.1640  177.3220  135.6060 O   0  0  0  0  0  1  0  0  0  0  0  0
  185.3260  177.1970  137.7690 C   0  0  2  0  0  3  0  0  0  0  0  0
  180.0800  176.3260  135.8930 O   0  0  0  0  0  1  0  0  0  0  0  0
  180.9090  175.5920  136.7450 C   0  0  2  0  0  3  0  0  0  0  0  0
  180.1850  174.3150  137.1910 C   0  0  0  0  0  2  0  0  0  0  0  0
  180.1340  171.8180  137.2340 C   0  0  0  0  0  1  0  0  0  0  0  0
  181.0790  173.0020  135.2920 C   0  0  0  0  0  1  0  0  0  0  0  0
  180.9200  173.0380  136.7960 C   0  0  0  0  0  3  0  0  0  0  0  0
  183.9040  175.0430  137.0090 C   0  0  2  0  0  3  0  0  0  0  0  0
  184.6210  174.3220  137.9690 O   0  0  0  0  0  0  0  0  0  0  0  0
  184.5110  172.9840  137.5820 C   0  0  0  0  0  1  0  0  0  0  0  0
  184.3800  174.7030  135.6580 C   0  0  0  0  0  0  0  0  0  0  0  0
  184.7550  174.4370  134.5960 N   0  0  0  0  0  0  0  0  0  0  0  0
  1  9  1  0  0  0  0
  2  1  1  6  0  0  0
  2  6  1  0  0  0  0
  2 11  1  0  0  0  0
  4 14  1  0  0  0  0
  5  7  1  0  0  0  0
  5 11  1  0  0  0  0
  6 21  1  6  0  0  0
  6  4  1  0  0  0  0
  7 12  1  0  0  0  0
  8  3  1  0  0  0  0
  9 26  1  6  0  0  0
  9  2  1  0  0  0  0
  9 19  1  0  0  0  0
 11 10  2  0  0  0  0
 12  8  1  0  0  0  0
 14 13  2  0  0  0  0
 14  3  1  0  0  0  0
 15 17  1  0  0  0  0
 16 15  1  0  0  0  0
 16 17  1  0  0  0  0
 16 19  1  0  0  0  0
 17 19  1  0  0  0  0
 18 15  1  0  0  0  0
 20 21  1  0  0  0  0
 21 22  1  0  0  0  0
 24 25  1  0  0  0  0
 25 22  1  0  0  0  0
 25 23  1  0  0  0  0
 26 27  1  0  0  0  0
 28 27  1  0  0  0  0
 29 26  1  0  0  0  0
 30 29  3  0  0  0  0
M  END
>  <MODEL>
4

>  <REMARK>
 VINA RESULT:      -3.5      1.939      5.458
  Name = 
  7 active torsions:
  status: ('A' for Active; 'I' for Inactive)
    1  A    between atoms: O_2  and  C_14
    2  A    between atoms: C_6  and  C_12
    3  A    between atoms: C_6  and  C_21
    4  A    between atoms: C_12  and  C_13
    5  A    between atoms: C_14  and  C_20
    6  A    between atoms: C_14  and  C_22
    7  A    between atoms: C_22  and  C_29
                            x       y       z     vdW  Elec       q    Type
                         _______ _______ _______ _____ _____    ______ ____

>  <TORSDO>
F 7

$$$$
=
 OpenBabel11052412193D

 30 33  0  0  1  0  0  0  0  0999 V2000
  183.9650  176.4780  138.6380 C   0  0  0  0  0  2  0  0  0  0  0  0
  183.1170  177.1570  137.5710 C   0  0  1  0  0  0  0  0  0  0  0  0
  180.5120  177.7090  134.9780 C   0  0  0  0  0  2  0  0  0  0  0  0
  181.1830  178.7420  137.2600 C   0  0  0  0  0  2  0  0  0  0  0  0
  183.1010  175.1360  135.9140 C   0  0  0  0  0  2  0  0  0  0  0  0
  181.6340  177.4430  137.9270 C   0  0  2  0  0  3  0  0  0  0  0  0
  181.6070  174.8400  135.8740 C   0  0  0  0  0  2  0  0  0  0  0  0
  179.9250  176.3790  135.0210 N   0  0  0  0  0  2  0  0  0  0  0  0
  184.2650  177.9260  138.2630 C   0  0  2  0  0  0  0  0  0  0  0  0
  183.6910  177.3200  135.2800 O   0  0  0  0  0  0  0  0  0  0  0  0
  183.3620  176.5840  136.1980 C   0  0  0  0  0  0  0  0  0  0  0  0
  180.9650  175.4400  134.6320 C   0  0  0  0  0  2  0  0  0  0  0  0
  179.0090  178.8650  136.3700 O   0  0  0  0  0  0  0  0  0  0  0  0
  180.1510  178.4640  136.2150 C   0  0  0  0  0  0  0  0  0  0  0  0
  187.9290  177.4720  137.6210 C   0  0  1  0  0  3  0  0  0  0  0  0
  186.5090  176.9450  137.6160 C   0  0  1  0  0  3  0  0  0  0  0  0
  186.8120  178.2700  138.2640 C   0  0  2  0  0  3  0  0  0  0  0  0
  188.6620  176.8200  138.6110 O   0  0  0  0  0  1  0  0  0  0  0  0
  185.5520  178.1130  137.4250 C   0  0  2  0  0  3  0  0  0  0  0  0
  180.7970  176.0900  139.7550 O   0  0  0  0  0  1  0  0  0  0  0  0
  181.2380  177.3720  139.4180 C   0  0  2  0  0  3  0  0  0  0  0  0
  180.1700  178.4020  139.8080 C   0  0  0  0  0  2  0  0  0  0  0  0
  179.5380  180.3640  141.2190 C   0  0  0  0  0  1  0  0  0  0  0  0
  181.0400  178.6290  142.1150 C   0  0  0  0  0  1  0  0  0  0  0  0
  180.6460  179.3900  140.8680 C   0  0  0  0  0  3  0  0  0  0  0  0
  183.8510  178.9570  139.3310 C   0  0  2  0  0  3  0  0  0  0  0  0
  184.2270  180.2470  138.9440 O   0  0  0  0  0  0  0  0  0  0  0  0
  183.0280  180.9270  138.7210 C   0  0  0  0  0  1  0  0  0  0  0  0
  184.4290  178.6320  140.6450 C   0  0  0  0  0  0  0  0  0  0  0  0
  184.8840  178.3790  141.6780 N   0  0  0  0  0  0  0  0  0  0  0  0
  2  6  1  0  0  0  0
  2  9  1  0  0  0  0
  2  1  1  1  0  0  0
  3  8  1  0  0  0  0
  3 14  1  0  0  0  0
  4  6  1  0  0  0  0
  5 11  1  0  0  0  0
  6 21  1  1  0  0  0
  7  5  1  0  0  0  0
  9  1  1  0  0  0  0
  9 26  1  1  0  0  0
 10 11  2  0  0  0  0
 11  2  1  0  0  0  0
 12  8  1  0  0  0  0
 12  7  1  0  0  0  0
 14 13  2  0  0  0  0
 14  4  1  0  0  0  0
 15 17  1  0  0  0  0
 15 18  1  0  0  0  0
 16 15  1  0  0  0  0
 16 17  1  0  0  0  0
 19 16  1  0  0  0  0
 19  9  1  0  0  0  0
 19 17  1  0  0  0  0
 21 20  1  0  0  0  0
 21 22  1  0  0  0  0
 22 25  1  0  0  0  0
 25 23  1  0  0  0  0
 25 24  1  0  0  0  0
 26 29  1  0  0  0  0
 27 26  1  0  0  0  0
 28 27  1  0  0  0  0
 29 30  3  0  0  0  0
M  END
>  <MODEL>
5

>  <REMARK>
 VINA RESULT:      -3.4      2.394      5.827
  Name = 
  7 active torsions:
  status: ('A' for Active; 'I' for Inactive)
    1  A    between atoms: O_2  and  C_14
    2  A    between atoms: C_6  and  C_12
    3  A    between atoms: C_6  and  C_21
    4  A    between atoms: C_12  and  C_13
    5  A    between atoms: C_14  and  C_20
    6  A    between atoms: C_14  and  C_22
    7  A    between atoms: C_22  and  C_29
                            x       y       z     vdW  Elec       q    Type
                         _______ _______ _______ _____ _____    ______ ____

>  <TORSDO>
F 7

$$$$
=
 OpenBabel11052412193D

 30 33  0  0  1  0  0  0  0  0999 V2000
  181.8980  178.2420  139.3870 C   0  0  0  0  0  2  0  0  0  0  0  0
  183.2550  178.4000  138.7130 C   0  0  1  0  0  0  0  0  0  0  0  0
  186.9240  178.2790  138.1300 C   0  0  0  0  0  2  0  0  0  0  0  0
  184.7810  177.3370  137.0130 C   0  0  0  0  0  2  0  0  0  0  0  0
  184.4990  179.3090  140.8240 C   0  0  0  0  0  2  0  0  0  0  0  0
  183.9900  177.0980  138.2980 C   0  0  2  0  0  3  0  0  0  0  0  0
  185.5370  178.2110  141.0120 C   0  0  0  0  0  2  0  0  0  0  0  0
  187.2940  177.6930  139.4080 N   0  0  0  0  0  2  0  0  0  0  0  0
  181.9670  178.8520  137.9890 C   0  0  2  0  0  0  0  0  0  0  0  0
  184.5590  180.3750  138.7300 O   0  0  0  0  0  0  0  0  0  0  0  0
  184.1070  179.4470  139.3840 C   0  0  0  0  0  0  0  0  0  0  0  0
  186.8840  178.6290  140.4420 C   0  0  0  0  0  2  0  0  0  0  0  0
  186.9030  176.3480  136.7860 O   0  0  0  0  0  0  0  0  0  0  0  0
  186.2500  177.2540  137.2780 C   0  0  0  0  0  0  0  0  0  0  0  0
  180.0750  181.9540  138.9060 C   0  0  1  0  0  3  0  0  0  0  0  0
  181.0770  180.8670  139.2390 C   0  0  1  0  0  3  0  0  0  0  0  0
  180.2440  180.7600  137.9890 C   0  0  2  0  0  3  0  0  0  0  0  0
  178.9310  181.7830  139.6830 O   0  0  0  0  0  1  0  0  0  0  0  0
  181.7170  180.3780  137.9470 C   0  0  2  0  0  3  0  0  0  0  0  0
  182.5850  175.5290  139.4970 O   0  0  0  0  0  1  0  0  0  0  0  0
  183.1560  175.7990  138.2500 C   0  0  2  0  0  3  0  0  0  0  0  0
  183.9620  174.5820  137.7810 C   0  0  0  0  0  2  0  0  0  0  0  0
  183.4420  172.3690  136.7450 C   0  0  0  0  0  1  0  0  0  0  0  0
  181.8750  174.2510  136.4900 C   0  0  0  0  0  1  0  0  0  0  0  0
  183.3370  173.8720  136.5840 C   0  0  0  0  0  3  0  0  0  0  0  0
  181.4520  177.9270  136.8690 C   0  0  2  0  0  3  0  0  0  0  0  0
  181.4170  178.6060  135.6460 O   0  0  0  0  0  0  0  0  0  0  0  0
  181.9620  177.7170  134.7170 C   0  0  0  0  0  1  0  0  0  0  0  0
  180.1210  177.3860  137.1870 C   0  0  0  0  0  0  0  0  0  0  0  0
  179.0740  176.9610  137.4370 N   0  0  0  0  0  0  0  0  0  0  0  0
  2 11  1  0  0  0  0
  2  1  1  1  0  0  0
  3  8  1  0  0  0  0
  4 14  1  0  0  0  0
  4  6  1  0  0  0  0
  5  7  1  0  0  0  0
  6 21  1  6  0  0  0
  6  2  1  0  0  0  0
  8 12  1  0  0  0  0
  9 26  1  6  0  0  0
  9  2  1  0  0  0  0
  9  1  1  0  0  0  0
 10 11  2  0  0  0  0
 11  5  1  0  0  0  0
 12  7  1  0  0  0  0
 13 14  2  0  0  0  0
 14  3  1  0  0  0  0
 15 16  1  0  0  0  0
 15 18  1  0  0  0  0
 17 15  1  0  0  0  0
 17 16  1  0  0  0  0
 19  9  1  0  0  0  0
 19 17  1  0  0  0  0
 19 16  1  0  0  0  0
 21 20  1  0  0  0  0
 22 21  1  0  0  0  0
 24 25  1  0  0  0  0
 25 23  1  0  0  0  0
 25 22  1  0  0  0  0
 26 29  1  0  0  0  0
 27 26  1  0  0  0  0
 28 27  1  0  0  0  0
 29 30  3  0  0  0  0
M  END
>  <MODEL>
6

>  <REMARK>
 VINA RESULT:      -3.4      2.508      5.701
  Name = 
  7 active torsions:
  status: ('A' for Active; 'I' for Inactive)
    1  A    between atoms: O_2  and  C_14
    2  A    between atoms: C_6  and  C_12
    3  A    between atoms: C_6  and  C_21
    4  A    between atoms: C_12  and  C_13
    5  A    between atoms: C_14  and  C_20
    6  A    between atoms: C_14  and  C_22
    7  A    between atoms: C_22  and  C_29
                            x       y       z     vdW  Elec       q    Type
                         _______ _______ _______ _____ _____    ______ ____

>  <TORSDO>
F 7

$$$$
=
 OpenBabel11052412193D

 30 33  0  0  1  0  0  0  0  0999 V2000
  186.0450  177.6470  136.4000 C   0  0  0  0  0  2  0  0  0  0  0  0
  186.0780  176.1830  136.8170 C   0  0  1  0  0  0  0  0  0  0  0  0
  185.8570  172.4770  136.6510 C   0  0  0  0  0  2  0  0  0  0  0  0
  187.6470  174.2580  137.2410 C   0  0  0  0  0  2  0  0  0  0  0  0
  183.8830  175.5000  135.5740 C   0  0  0  0  0  2  0  0  0  0  0  0
  187.2100  175.3070  136.2190 C   0  0  2  0  0  3  0  0  0  0  0  0
  184.4420  174.4770  134.5940 C   0  0  0  0  0  2  0  0  0  0  0  0
  185.4860  172.3770  135.2480 N   0  0  0  0  0  2  0  0  0  0  0  0
  186.3890  177.2950  137.8440 C   0  0  2  0  0  0  0  0  0  0  0  0
  184.2870  175.0200  137.8380 O   0  0  0  0  0  0  0  0  0  0  0  0
  184.7050  175.5610  136.8260 C   0  0  0  0  0  0  0  0  0  0  0  0
  184.2110  173.0590  135.0940 C   0  0  0  0  0  2  0  0  0  0  0  0
  188.1720  172.0920  136.4890 O   0  0  0  0  0  0  0  0  0  0  0  0
  187.2890  172.8850  136.7690 C   0  0  0  0  0  0  0  0  0  0  0  0
  183.7700  179.5090  139.3550 C   0  0  1  0  0  3  0  0  0  0  0  0
  184.2360  178.5590  138.2700 C   0  0  1  0  0  3  0  0  0  0  0  0
  185.2170  179.0650  139.2940 C   0  0  2  0  0  3  0  0  0  0  0  0
  183.6570  180.7950  138.8280 O   0  0  0  0  0  1  0  0  0  0  0  0
  185.2660  177.6070  138.8610 C   0  0  2  0  0  3  0  0  0  0  0  0
  187.9680  176.9360  134.5940 O   0  0  0  0  0  1  0  0  0  0  0  0
  188.4060  176.0400  135.5720 C   0  0  2  0  0  3  0  0  0  0  0  0
  189.4430  175.0860  134.9670 C   0  0  0  0  0  2  0  0  0  0  0  0
  190.8460  176.3550  136.5980 C   0  0  0  0  0  1  0  0  0  0  0  0
  191.4380  174.0410  135.9970 C   0  0  0  0  0  1  0  0  0  0  0  0
  190.8600  175.3380  135.4740 C   0  0  0  0  0  3  0  0  0  0  0  0
  187.8730  177.4930  138.2080 C   0  0  2  0  0  3  0  0  0  0  0  0
  188.0490  177.4620  139.5950 O   0  0  0  0  0  0  0  0  0  0  0  0
  189.4310  177.4020  139.7890 C   0  0  0  0  0  1  0  0  0  0  0  0
  188.4000  178.7520  137.6580 C   0  0  0  0  0  0  0  0  0  0  0  0
  188.8130  179.7430  137.2260 N   0  0  0  0  0  0  0  0  0  0  0  0
  1  9  1  0  0  0  0
  2  1  1  6  0  0  0
  2 11  1  0  0  0  0
  2  9  1  0  0  0  0
  3 14  1  0  0  0  0
  5 11  1  0  0  0  0
  6 21  1  1  0  0  0
  6  2  1  0  0  0  0
  6  4  1  0  0  0  0
  7 12  1  0  0  0  0
  7  5  1  0  0  0  0
  8  3  1  0  0  0  0
  9 26  1  1  0  0  0
  9 19  1  0  0  0  0
 11 10  2  0  0  0  0
 12  8  1  0  0  0  0
 13 14  2  0  0  0  0
 14  4  1  0  0  0  0
 16 19  1  0  0  0  0
 16 17  1  0  0  0  0
 16 15  1  0  0  0  0
 17 15  1  0  0  0  0
 18 15  1  0  0  0  0
 19 17  1  0  0  0  0
 20 21  1  0  0  0  0
 22 25  1  0  0  0  0
 22 21  1  0  0  0  0
 25 24  1  0  0  0  0
 25 23  1  0  0  0  0
 26 27  1  0  0  0  0
 27 28  1  0  0  0  0
 29 26  1  0  0  0  0
 30 29  3  0  0  0  0
M  END
>  <MODEL>
7

>  <REMARK>
 VINA RESULT:      -3.2      3.783      7.549
  Name = 
  7 active torsions:
  status: ('A' for Active; 'I' for Inactive)
    1  A    between atoms: O_2  and  C_14
    2  A    between atoms: C_6  and  C_12
    3  A    between atoms: C_6  and  C_21
    4  A    between atoms: C_12  and  C_13
    5  A    between atoms: C_14  and  C_20
    6  A    between atoms: C_14  and  C_22
    7  A    between atoms: C_22  and  C_29
                            x       y       z     vdW  Elec       q    Type
                         _______ _______ _______ _____ _____    ______ ____

>  <TORSDO>
F 7

$$$$
=
 OpenBabel11052412193D

 30 33  0  0  1  0  0  0  0  0999 V2000
  185.3710  178.1170  136.5930 C   0  0  0  0  0  2  0  0  0  0  0  0
  184.5870  177.5530  137.7710 C   0  0  1  0  0  0  0  0  0  0  0  0
  181.8750  177.0290  140.2580 C   0  0  0  0  0  2  0  0  0  0  0  0
  183.1070  175.6320  138.4540 C   0  0  0  0  0  2  0  0  0  0  0  0
  183.8100  179.8660  138.7080 C   0  0  0  0  0  2  0  0  0  0  0  0
  183.2950  176.7590  137.4410 C   0  0  2  0  0  3  0  0  0  0  0  0
  182.3010  179.7140  138.5700 C   0  0  0  0  0  2  0  0  0  0  0  0
  180.9740  178.0610  139.7680 N   0  0  0  0  0  2  0  0  0  0  0  0
  185.9810  176.9880  137.4190 C   0  0  2  0  0  0  0  0  0  0  0  0
  184.8520  178.2230  140.0250 O   0  0  0  0  0  0  0  0  0  0  0  0
  184.4760  178.5380  138.9070 C   0  0  0  0  0  0  0  0  0  0  0  0
  181.6680  179.3320  139.9000 C   0  0  0  0  0  2  0  0  0  0  0  0
  180.9370  175.1400  139.2160 O   0  0  0  0  0  0  0  0  0  0  0  0
  181.9010  175.8830  139.3010 C   0  0  0  0  0  0  0  0  0  0  0  0
  189.5880  177.6940  138.1490 C   0  0  1  0  0  3  0  0  0  0  0  0
  188.2560  178.0940  137.5490 C   0  0  1  0  0  3  0  0  0  0  0  0
  188.4480  176.6980  138.0790 C   0  0  2  0  0  3  0  0  0  0  0  0
  190.4970  177.4310  137.1260 O   0  0  0  0  0  1  0  0  0  0  0  0
  187.1400  177.4300  138.3440 C   0  0  2  0  0  3  0  0  0  0  0  0
  182.3690  177.2140  135.2480 O   0  0  0  0  0  1  0  0  0  0  0  0
  183.1100  176.2840  135.9820 C   0  0  2  0  0  3  0  0  0  0  0  0
  182.4510  174.9030  135.8770 C   0  0  0  0  0  2  0  0  0  0  0  0
  180.8000  173.5370  134.5940 C   0  0  0  0  0  1  0  0  0  0  0  0
  180.0260  175.3790  136.0340 C   0  0  0  0  0  1  0  0  0  0  0  0
  181.1330  174.9230  135.1090 C   0  0  0  0  0  3  0  0  0  0  0  0
  186.0050  175.6220  136.7060 C   0  0  2  0  0  3  0  0  0  0  0  0
  186.4110  174.6130  137.5860 O   0  0  0  0  0  0  0  0  0  0  0  0
  185.6800  173.4830  137.2110 C   0  0  0  0  0  1  0  0  0  0  0  0
  186.8800  175.6470  135.5230 C   0  0  0  0  0  0  0  0  0  0  0  0
  187.5690  175.6670  134.5940 N   0  0  0  0  0  0  0  0  0  0  0  0
  1  9  1  0  0  0  0
  2  1  1  6  0  0  0
  2 11  1  0  0  0  0
  4 14  1  0  0  0  0
  5 11  1  0  0  0  0
  6 21  1  6  0  0  0
  6  2  1  0  0  0  0
  6  4  1  0  0  0  0
  7  5  1  0  0  0  0
  7 12  1  0  0  0  0
  8 12  1  0  0  0  0
  8  3  1  0  0  0  0
  9 26  1  6  0  0  0
  9  2  1  0  0  0  0
  9 19  1  0  0  0  0
 11 10  2  0  0  0  0
 13 14  2  0  0  0  0
 14  3  1  0  0  0  0
 16 17  1  0  0  0  0
 16 15  1  0  0  0  0
 16 19  1  0  0  0  0
 17 15  1  0  0  0  0
 17 19  1  0  0  0  0
 18 15  1  0  0  0  0
 20 21  1  0  0  0  0
 22 21  1  0  0  0  0
 23 25  1  0  0  0  0
 25 22  1  0  0  0  0
 25 24  1  0  0  0  0
 26 27  1  0  0  0  0
 28 27  1  0  0  0  0
 29 26  1  0  0  0  0
 30 29  3  0  0  0  0
M  END
>  <MODEL>
8

>  <REMARK>
 VINA RESULT:      -3.1      2.532      6.048
  Name = 
  7 active torsions:
  status: ('A' for Active; 'I' for Inactive)
    1  A    between atoms: O_2  and  C_14
    2  A    between atoms: C_6  and  C_12
    3  A    between atoms: C_6  and  C_21
    4  A    between atoms: C_12  and  C_13
    5  A    between atoms: C_14  and  C_20
    6  A    between atoms: C_14  and  C_22
    7  A    between atoms: C_22  and  C_29
                            x       y       z     vdW  Elec       q    Type
                         _______ _______ _______ _____ _____    ______ ____

>  <TORSDO>
F 7

$$$$
=
 OpenBabel11052412193D

 30 33  0  0  1  0  0  0  0  0999 V2000
  183.6990  176.3730  138.4230 C   0  0  0  0  0  2  0  0  0  0  0  0
  184.6600  176.3150  137.2430 C   0  0  1  0  0  0  0  0  0  0  0  0
  187.7980  175.9770  135.2800 C   0  0  0  0  0  2  0  0  0  0  0  0
  185.4920  174.7970  135.4130 C   0  0  0  0  0  2  0  0  0  0  0  0
  186.5370  177.7550  138.3530 C   0  0  0  0  0  2  0  0  0  0  0  0
  185.2970  174.9380  136.9220 C   0  0  2  0  0  3  0  0  0  0  0  0
  187.6680  176.7360  138.3850 C   0  0  0  0  0  2  0  0  0  0  0  0
  188.6960  175.7640  136.4040 N   0  0  0  0  0  2  0  0  0  0  0  0
  183.1530  176.5690  137.0120 C   0  0  2  0  0  0  0  0  0  0  0  0
  185.6660  178.1960  136.2160 O   0  0  0  0  0  0  0  0  0  0  0  0
  185.5990  177.4940  137.2140 C   0  0  0  0  0  0  0  0  0  0  0  0
  188.6350  176.9570  137.2320 C   0  0  0  0  0  2  0  0  0  0  0  0
  187.4410  173.7500  134.6130 O   0  0  0  0  0  0  0  0  0  0  0  0
  186.9480  174.7660  135.0720 C   0  0  0  0  0  0  0  0  0  0  0  0
  181.1850  179.7090  137.5710 C   0  0  1  0  0  3  0  0  0  0  0  0
  182.3290  178.7810  137.9290 C   0  0  1  0  0  3  0  0  0  0  0  0
  181.2910  178.3390  136.9320 C   0  0  2  0  0  3  0  0  0  0  0  0
  180.2280  179.6760  138.5830 O   0  0  0  0  0  1  0  0  0  0  0  0
  182.7580  178.0270  136.6780 C   0  0  2  0  0  3  0  0  0  0  0  0
  185.5620  172.9940  138.3450 O   0  0  0  0  0  1  0  0  0  0  0  0
  184.6430  173.6900  137.5560 C   0  0  2  0  0  3  0  0  0  0  0  0
  184.0310  172.7380  136.5200 C   0  0  0  0  0  2  0  0  0  0  0  0
  181.9480  171.5410  137.2030 C   0  0  0  0  0  1  0  0  0  0  0  0
  183.8530  170.2800  136.2820 C   0  0  0  0  0  1  0  0  0  0  0  0
  183.4610  171.4650  137.1370 C   0  0  0  0  0  3  0  0  0  0  0  0
  182.3340  175.3780  136.4790 C   0  0  2  0  0  3  0  0  0  0  0  0
  181.8480  175.6490  135.1950 O   0  0  0  0  0  0  0  0  0  0  0  0
  181.4890  174.4060  134.6690 C   0  0  0  0  0  1  0  0  0  0  0  0
  181.2210  175.0420  137.3820 C   0  0  0  0  0  0  0  0  0  0  0  0
  180.3470  174.7780  138.0930 N   0  0  0  0  0  0  0  0  0  0  0  0
  2  1  1  1  0  0  0
  3  8  1  0  0  0  0
  4  6  1  0  0  0  0
  5  7  1  0  0  0  0
  6  2  1  0  0  0  0
  6 21  1  6  0  0  0
  8 12  1  0  0  0  0
  9 26  1  6  0  0  0
  9  2  1  0  0  0  0
  9  1  1  0  0  0  0
 10 11  2  0  0  0  0
 11  2  1  0  0  0  0
 11  5  1  0  0  0  0
 12  7  1  0  0  0  0
 13 14  2  0  0  0  0
 14  3  1  0  0  0  0
 14  4  1  0  0  0  0
 15 16  1  0  0  0  0
 15 18  1  0  0  0  0
 17 15  1  0  0  0  0
 17 16  1  0  0  0  0
 19 17  1  0  0  0  0
 19  9  1  0  0  0  0
 19 16  1  0  0  0  0
 21 20  1  0  0  0  0
 22 25  1  0  0  0  0
 22 21  1  0  0  0  0
 24 25  1  0  0  0  0
 25 23  1  0  0  0  0
 26 29  1  0  0  0  0
 27 26  1  0  0  0  0
 28 27  1  0  0  0  0
 29 30  3  0  0  0  0
M  END
>  <MODEL>
9

>  <REMARK>
 VINA RESULT:      -3.1      2.831      6.642
  Name = 
  7 active torsions:
  status: ('A' for Active; 'I' for Inactive)
    1  A    between atoms: O_2  and  C_14
    2  A    between atoms: C_6  and  C_12
    3  A    between atoms: C_6  and  C_21
    4  A    between atoms: C_12  and  C_13
    5  A    between atoms: C_14  and  C_20
    6  A    between atoms: C_14  and  C_22
    7  A    between atoms: C_22  and  C_29
                            x       y       z     vdW  Elec       q    Type
                         _______ _______ _______ _____ _____    ______ ____

>  <TORSDO>
F 7

$$$$
