=
 OpenBabel11052414553D

 55 60  0  0  1  0  0  0  0  0999 V2000
  186.2760  177.9140  144.9240 C   0  0  0  0  0  2  0  0  0  0  0  0
  184.3270  178.8680  142.9490 C   0  0  2  0  0  3  0  0  0  0  0  0
  185.4740  177.9340  142.5590 C   0  0  0  0  0  2  0  0  0  0  0  0
  185.1220  178.8290  145.3280 C   0  0  0  0  0  2  0  0  0  0  0  0
  186.6650  178.1810  143.4760 C   0  0  2  0  0  3  0  0  0  0  0  0
  183.9250  178.6190  144.4020 C   0  0  0  0  0  2  0  0  0  0  0  0
  187.9760  175.6400  143.2990 O   0  0  0  0  0  0  0  0  0  0  0  0
  188.0470  177.1160  142.9890 P   0  0  1  0  0  4  0  0  0  0  0  0
  189.4410  177.7420  142.0030 C   0  0  1  0  0  3  0  0  0  0  0  0
  190.6100  177.9160  142.8580 N   0  0  0  0  0  2  0  0  0  0  0  0
  191.4070  179.7880  144.0530 O   0  0  0  0  0  1  0  0  0  0  0  0
  190.3350  178.9030  143.9060 C   0  0  2  0  0  3  0  0  0  0  0  0
  190.0030  178.2430  145.2410 C   0  0  0  0  0  2  0  0  0  0  0  0
  190.9410  177.0740  145.5370 C   0  0  0  0  0  2  0  0  0  0  0  0
  190.7940  176.5060  146.9530 C   0  0  2  0  0  3  0  0  0  0  0  0
  190.0180  177.4300  147.8770 C   0  0  0  0  0  1  0  0  0  0  0  0
  192.1060  176.1060  147.5490 C   0  0  0  0  0  0  0  0  0  0  0  0
  192.7470  175.1450  147.0510 O   0  0  0  0  0  0  0  0  0  0  0  0
  192.6380  176.8010  148.6300 O   0  0  0  0  0  1  0  0  0  0  0  0
  189.7840  176.8000  140.8530 C   0  0  0  0  0  2  0  0  0  0  0  0
  189.6900  177.7410  137.1450 C   0  0  0  0  0  3  0  0  0  0  0  0
  188.4460  178.3700  137.0740 C   0  0  0  0  0  3  0  0  0  0  0  0
  189.3560  177.3370  139.5180 C   0  0  0  0  0  0  0  0  0  0  0  0
  188.1070  177.9640  139.4340 C   0  0  0  0  0  3  0  0  0  0  0  0
  187.6530  178.4780  138.2170 C   0  0  0  0  0  3  0  0  0  0  0  0
  190.1500  177.2140  138.3570 C   0  0  0  0  0  0  0  0  0  0  0  0
  191.5020  176.5760  138.3850 C   0  0  0  0  0  2  0  0  0  0  0  0
  192.0040  176.4680  137.0850 O   0  0  0  0  0  0  0  0  0  0  0  0
  192.4590  175.1530  136.9780 C   0  0  0  0  0  2  0  0  0  0  0  0
  191.3610  174.1890  137.4050 C   0  0  0  0  0  2  0  0  0  0  0  0
  190.5030  173.7720  136.2210 C   0  0  0  0  0  2  0  0  0  0  0  0
  188.2270  174.5940  136.7440 C   0  0  0  0  0  1  0  0  0  0  0  0
  189.1160  173.3700  136.6870 C   0  0  0  0  0  2  0  0  0  0  0  0
  183.1220  178.6600  142.0460 C   0  0  0  0  0  2  0  0  0  0  0  0
  183.5580  178.1240  140.6930 C   0  0  0  0  0  2  0  0  0  0  0  0
  183.7180  179.2550  139.6940 C   0  0  0  0  0  2  0  0  0  0  0  0
  182.9310  178.9640  138.4250 C   0  0  0  0  0  2  0  0  0  0  0  0
  183.7690  178.2480  137.4740 N   0  0  0  0  0  2  0  0  0  0  0  0
  183.5400  174.0290  137.8110 N   0  0  2  0  0  0  0  0  0  0  0  0
  181.6170  176.0190  134.5940 O   0  0  0  0  0  1  0  0  0  0  0  0
  181.9980  175.5030  135.8400 C   0  0  2  0  0  0  0  0  0  0  0  0
  182.8930  177.5770  136.5220 C   0  0  1  0  0  3  0  0  0  0  0  0
  180.5590  174.1220  138.3080 O   0  0  0  0  0  1  0  0  0  0  0  0
  181.0470  176.0260  136.9240 C   0  0  1  0  0  3  0  0  0  0  0  0
  183.2970  176.1170  136.2750 C   0  0  1  0  0  3  0  0  0  0  0  0
  183.2920  171.9700  136.5130 C   0  0  0  0  0  1  0  0  0  0  0  0
  182.8070  175.0590  138.6160 C   0  0  2  0  0  3  0  0  0  0  0  0
  180.6400  178.2850  136.2350 F   0  0  0  0  0  0  0  0  0  0  0  0
  181.2820  175.3200  138.2940 C   0  0  2  0  0  0  0  0  0  0  0  0
  183.8120  175.4760  137.5970 C   0  0  1  0  0  3  0  0  0  0  0  0
  182.1520  174.0040  135.6690 C   0  0  0  0  0  2  0  0  0  0  0  0
  181.4560  177.5070  137.0360 C   0  0  2  0  0  3  0  0  0  0  0  0
  182.6450  173.2820  136.9070 C   0  0  2  0  0  3  0  0  0  0  0  0
  180.7030  176.1900  139.4220 C   0  0  0  0  0  2  0  0  0  0  0  0
  179.4860  175.5600  140.0880 C   0  0  0  0  0  1  0  0  0  0  0  0
  1  4  1  0  0  0  0
  2 34  1  6  0  0  0
  2  6  1  0  0  0  0
  3  2  1  0  0  0  0
  3  5  1  0  0  0  0
  5  8  1  6  0  0  0
  5  1  1  0  0  0  0
  6  4  1  0  0  0  0
  8  7  2  6  0  0  0
  9 20  1  6  0  0  0
  9 10  1  0  0  0  0
  9  8  1  0  0  0  0
 10 12  1  0  0  0  0
 12 11  1  1  0  0  0
 12 13  1  0  0  0  0
 13 14  1  0  0  0  0
 14 15  1  0  0  0  0
 15 17  1  0  0  0  0
 15 16  1  1  0  0  0
 17 19  1  0  0  0  0
 18 17  2  0  0  0  0
 21 26  1  0  0  0  0
 22 21  2  0  0  0  0
 22 25  1  0  0  0  0
 23 20  1  0  0  0  0
 24 23  1  0  0  0  0
 25 24  2  0  0  0  0
 26 27  1  0  0  0  0
 26 23  2  0  0  0  0
 28 27  1  0  0  0  0
 29 28  1  0  0  0  0
 29 30  1  0  0  0  0
 31 33  1  0  0  0  0
 31 30  1  0  0  0  0
 33 32  1  0  0  0  0
 35 34  1  0  0  0  0
 36 35  1  0  0  0  0
 37 36  1  0  0  0  0
 38 37  1  0  0  0  0
 39 47  1  0  0  0  0
 40 41  1  0  0  0  0
 41 45  1  0  0  0  0
 41 44  1  0  0  0  0
 42 52  1  0  0  0  0
 42 38  1  0  0  0  0
 44 52  1  0  0  0  0
 44 49  1  0  0  0  0
 45 42  1  0  0  0  0
 45 50  1  0  0  0  0
 46 53  1  0  0  0  0
 48 52  1  0  0  0  0
 49 43  1  0  0  0  0
 49 47  1  0  0  0  0
 49 54  1  0  0  0  0
 50 39  1  0  0  0  0
 50 47  1  0  0  0  0
 51 41  1  0  0  0  0
 51 53  1  0  0  0  0
 53 39  1  0  0  0  0
 54 55  1  0  0  0  0
M  END
>  <MODEL>
1

>  <REMARK>
 VINA RESULT:      -7.0      0.000      0.000
  Name = 
  23 active torsions:
  status: ('A' for Active; 'I' for Inactive)
    1  A    between atoms: C_4  and  C_37
    2  A    between atoms: C_4  and  C_40
    3  A    between atoms: C_5  and  O_19
    4  A    between atoms: C_5  and  C_40
    5  A    between atoms: C_7  and  N_22
    6  A    between atoms: C_8  and  N_22
    7  A    between atoms: C_8  and  C_43
    8  A    between atoms: C_10  and  C_32
    9  A    between atoms: C_11  and  C_38
   10  A    between atoms: C_13  and  C_48
   11  A    between atoms: C_13  and  C_52
   12  A    between atoms: C_16  and  C_36
   13  A    between atoms: O_19  and  C_45
   14  A    between atoms: C_26  and  C_45
   15  A    between atoms: C_27  and  C_54
   16  A    between atoms: P_28  and  C_44
   17  A    between atoms: P_28  and  C_49
   18  A    between atoms: C_32  and  C_48
   19  A    between atoms: N_33  and  C_49
   20  A    between atoms: N_33  and  C_52
   21  A    between atoms: C_36  and  C_49
   22  A    between atoms: C_43  and  C_51
   23  A    between atoms: C_51  and  C_54
                            x       y       z     vdW  Elec       q    Type
                         _______ _______ _______ _____ _____    ______ ____

>  <TORSDO>
F 23

$$$$
=
 OpenBabel11052414553D

 55 60  0  0  1  0  0  0  0  0999 V2000
  186.3370  177.8370  144.3110 C   0  0  0  0  0  2  0  0  0  0  0  0
  184.7580  178.9530  142.1030 C   0  0  2  0  0  3  0  0  0  0  0  0
  185.9350  178.0090  141.8520 C   0  0  0  0  0  2  0  0  0  0  0  0
  185.1500  178.7620  144.5740 C   0  0  0  0  0  2  0  0  0  0  0  0
  186.9640  178.1710  142.9630 C   0  0  2  0  0  3  0  0  0  0  0  0
  184.1180  178.6370  143.4540 C   0  0  0  0  0  2  0  0  0  0  0  0
  188.3840  175.6950  143.2170 O   0  0  0  0  0  0  0  0  0  0  0  0
  188.3860  177.0950  142.6480 P   0  0  1  0  0  4  0  0  0  0  0  0
  189.7400  177.5910  141.5400 C   0  0  1  0  0  3  0  0  0  0  0  0
  190.9700  177.7540  142.3060 N   0  0  0  0  0  2  0  0  0  0  0  0
  190.5660  179.7690  143.4660 O   0  0  0  0  0  1  0  0  0  0  0  0
  190.6870  178.3830  143.6000 C   0  0  2  0  0  3  0  0  0  0  0  0
  191.7430  178.0400  144.6470 C   0  0  0  0  0  2  0  0  0  0  0  0
  191.4500  176.6990  145.3180 C   0  0  0  0  0  2  0  0  0  0  0  0
  191.3170  176.7870  146.8430 C   0  0  2  0  0  3  0  0  0  0  0  0
  191.8330  175.5440  147.5500 C   0  0  0  0  0  1  0  0  0  0  0  0
  189.9290  177.1330  147.2780 C   0  0  0  0  0  0  0  0  0  0  0  0
  189.7510  177.7380  148.3670 O   0  0  0  0  0  1  0  0  0  0  0  0
  188.8340  176.8160  146.4800 O   0  0  0  0  0  0  0  0  0  0  0  0
  189.9610  176.5690  140.4290 C   0  0  0  0  0  2  0  0  0  0  0  0
  189.2290  176.9060  136.6880 C   0  0  0  0  0  3  0  0  0  0  0  0
  188.2810  177.9310  136.7060 C   0  0  0  0  0  3  0  0  0  0  0  0
  189.4020  177.0170  139.1090 C   0  0  0  0  0  0  0  0  0  0  0  0
  188.4450  178.0390  139.1170 C   0  0  0  0  0  3  0  0  0  0  0  0
  187.8860  178.4940  137.9200 C   0  0  0  0  0  3  0  0  0  0  0  0
  189.7890  176.4370  137.8820 C   0  0  0  0  0  0  0  0  0  0  0  0
  190.8210  175.3590  137.8040 C   0  0  0  0  0  2  0  0  0  0  0  0
  192.0990  175.9240  137.7870 O   0  0  0  0  0  0  0  0  0  0  0  0
  192.9590  174.8700  137.4700 C   0  0  0  0  0  2  0  0  0  0  0  0
  194.2350  175.4140  136.8460 C   0  0  0  0  0  2  0  0  0  0  0  0
  193.9370  176.2160  135.5890 C   0  0  0  0  0  2  0  0  0  0  0  0
  196.3810  176.1770  135.1950 C   0  0  0  0  0  1  0  0  0  0  0  0
  195.1420  177.0470  135.1910 C   0  0  0  0  0  2  0  0  0  0  0  0
  183.7150  178.8280  141.0050 C   0  0  0  0  0  2  0  0  0  0  0  0
  184.3550  179.0110  139.6400 C   0  0  0  0  0  2  0  0  0  0  0  0
  183.6890  178.1170  138.6090 C   0  0  0  0  0  2  0  0  0  0  0  0
  183.2630  176.7990  139.2380 C   0  0  0  0  0  2  0  0  0  0  0  0
  182.8910  175.8500  138.1980 N   0  0  0  0  0  2  0  0  0  0  0  0
  185.5820  172.6800  137.3830 N   0  0  2  0  0  0  0  0  0  0  0  0
  185.8700  176.3260  135.2340 O   0  0  0  0  0  1  0  0  0  0  0  0
  185.4930  175.0800  135.7520 C   0  0  2  0  0  0  0  0  0  0  0  0
  183.7900  176.0490  137.0690 C   0  0  1  0  0  3  0  0  0  0  0  0
  184.4710  172.3080  134.5960 O   0  0  0  0  0  1  0  0  0  0  0  0
  184.1720  174.6370  135.1100 C   0  0  1  0  0  3  0  0  0  0  0  0
  185.0800  175.2260  137.1890 C   0  0  1  0  0  3  0  0  0  0  0  0
  187.8400  172.1820  136.5850 C   0  0  0  0  0  1  0  0  0  0  0  0
  184.1430  172.7930  136.9790 C   0  0  2  0  0  3  0  0  0  0  0  0
  182.9450  176.6880  134.9380 F   0  0  0  0  0  0  0  0  0  0  0  0
  183.8100  173.1670  135.4810 C   0  0  2  0  0  0  0  0  0  0  0  0
  184.7710  173.8430  137.8320 C   0  0  1  0  0  3  0  0  0  0  0  0
  186.6990  174.1700  135.6390 C   0  0  0  0  0  2  0  0  0  0  0  0
  183.1520  175.5930  135.7580 C   0  0  2  0  0  3  0  0  0  0  0  0
  186.4980  172.7890  136.2330 C   0  0  2  0  0  3  0  0  0  0  0  0
  182.3050  172.9420  135.2610 C   0  0  0  0  0  2  0  0  0  0  0  0
  181.6280  172.2690  136.4480 C   0  0  0  0  0  1  0  0  0  0  0  0
  1  4  1  0  0  0  0
  2 34  1  6  0  0  0
  2  6  1  0  0  0  0
  3  2  1  0  0  0  0
  3  5  1  0  0  0  0
  5  8  1  6  0  0  0
  5  1  1  0  0  0  0
  6  4  1  0  0  0  0
  8  7  2  6  0  0  0
  9 20  1  6  0  0  0
  9 10  1  0  0  0  0
  9  8  1  0  0  0  0
 10 12  1  0  0  0  0
 12 11  1  6  0  0  0
 12 13  1  0  0  0  0
 13 14  1  0  0  0  0
 14 15  1  0  0  0  0
 15 17  1  0  0  0  0
 15 16  1  1  0  0  0
 17 18  1  0  0  0  0
 19 17  2  0  0  0  0
 21 22  2  0  0  0  0
 21 26  1  0  0  0  0
 22 25  1  0  0  0  0
 23 24  1  0  0  0  0
 23 20  1  0  0  0  0
 25 24  2  0  0  0  0
 26 23  2  0  0  0  0
 27 26  1  0  0  0  0
 28 27  1  0  0  0  0
 29 28  1  0  0  0  0
 30 29  1  0  0  0  0
 31 30  1  0  0  0  0
 33 32  1  0  0  0  0
 33 31  1  0  0  0  0
 35 34  1  0  0  0  0
 36 37  1  0  0  0  0
 36 35  1  0  0  0  0
 38 37  1  0  0  0  0
 39 50  1  0  0  0  0
 40 41  1  0  0  0  0
 41 45  1  0  0  0  0
 42 45  1  0  0  0  0
 42 38  1  0  0  0  0
 43 49  1  0  0  0  0
 44 49  1  0  0  0  0
 44 41  1  0  0  0  0
 44 52  1  0  0  0  0
 45 50  1  0  0  0  0
 47 39  1  0  0  0  0
 47 50  1  0  0  0  0
 48 52  1  0  0  0  0
 49 47  1  0  0  0  0
 51 41  1  0  0  0  0
 51 53  1  0  0  0  0
 52 42  1  0  0  0  0
 53 46  1  0  0  0  0
 53 39  1  0  0  0  0
 54 49  1  0  0  0  0
 54 55  1  0  0  0  0
M  END
>  <MODEL>
2

>  <REMARK>
 VINA RESULT:      -6.8      1.871      3.005
  Name = 
  23 active torsions:
  status: ('A' for Active; 'I' for Inactive)
    1  A    between atoms: C_4  and  C_37
    2  A    between atoms: C_4  and  C_40
    3  A    between atoms: C_5  and  O_19
    4  A    between atoms: C_5  and  C_40
    5  A    between atoms: C_7  and  N_22
    6  A    between atoms: C_8  and  N_22
    7  A    between atoms: C_8  and  C_43
    8  A    between atoms: C_10  and  C_32
    9  A    between atoms: C_11  and  C_38
   10  A    between atoms: C_13  and  C_48
   11  A    between atoms: C_13  and  C_52
   12  A    between atoms: C_16  and  C_36
   13  A    between atoms: O_19  and  C_45
   14  A    between atoms: C_26  and  C_45
   15  A    between atoms: C_27  and  C_54
   16  A    between atoms: P_28  and  C_44
   17  A    between atoms: P_28  and  C_49
   18  A    between atoms: C_32  and  C_48
   19  A    between atoms: N_33  and  C_49
   20  A    between atoms: N_33  and  C_52
   21  A    between atoms: C_36  and  C_49
   22  A    between atoms: C_43  and  C_51
   23  A    between atoms: C_51  and  C_54
                            x       y       z     vdW  Elec       q    Type
                         _______ _______ _______ _____ _____    ______ ____

>  <TORSDO>
F 23

$$$$
=
 OpenBabel11052414553D

 55 60  0  0  1  0  0  0  0  0999 V2000
  186.4870  177.9740  144.2800 C   0  0  0  0  0  2  0  0  0  0  0  0
  183.8640  179.2410  144.6440 C   0  0  2  0  0  3  0  0  0  0  0  0
  184.4080  178.9040  143.2550 C   0  0  0  0  0  2  0  0  0  0  0  0
  185.9440  178.2880  145.6730 C   0  0  0  0  0  2  0  0  0  0  0  0
  185.9290  178.9720  143.2720 C   0  0  2  0  0  3  0  0  0  0  0  0
  184.4170  178.2540  145.6710 C   0  0  0  0  0  2  0  0  0  0  0  0
  185.6430  178.6890  140.4360 O   0  0  0  0  0  0  0  0  0  0  0  0
  186.5810  178.6250  141.6180 P   0  0  1  0  0  4  0  0  0  0  0  0
  188.3550  178.3590  141.3210 C   0  0  1  0  0  3  0  0  0  0  0  0
  189.0510  178.2120  142.5930 N   0  0  0  0  0  2  0  0  0  0  0  0
  189.0450  175.9400  143.2310 O   0  0  0  0  0  1  0  0  0  0  0  0
  189.7970  176.9490  142.6260 C   0  0  2  0  0  3  0  0  0  0  0  0
  191.1460  177.0990  143.3220 C   0  0  0  0  0  2  0  0  0  0  0  0
  191.0100  177.8390  144.6530 C   0  0  0  0  0  2  0  0  0  0  0  0
  190.5000  176.9600  145.8000 C   0  0  2  0  0  3  0  0  0  0  0  0
  189.4110  177.6360  146.6180 C   0  0  0  0  0  1  0  0  0  0  0  0
  191.6070  176.4520  146.6680 C   0  0  0  0  0  0  0  0  0  0  0  0
  191.8630  177.0360  147.7530 O   0  0  0  0  0  1  0  0  0  0  0  0
  192.3380  175.3260  146.3030 O   0  0  0  0  0  0  0  0  0  0  0  0
  188.6010  177.1250  140.4570 C   0  0  0  0  0  2  0  0  0  0  0  0
  190.1350  177.5240  136.9740 C   0  0  0  0  0  3  0  0  0  0  0  0
  189.0760  178.1340  136.2990 C   0  0  0  0  0  3  0  0  0  0  0  0
  188.8090  177.4640  139.0090 C   0  0  0  0  0  0  0  0  0  0  0  0
  187.7500  178.0690  138.3200 C   0  0  0  0  0  3  0  0  0  0  0  0
  187.8830  178.4020  136.9700 C   0  0  0  0  0  3  0  0  0  0  0  0
  190.0090  177.1780  138.3250 C   0  0  0  0  0  0  0  0  0  0  0  0
  191.1830  176.5540  139.0080 C   0  0  0  0  0  2  0  0  0  0  0  0
  191.8130  175.6540  138.1450 O   0  0  0  0  0  0  0  0  0  0  0  0
  193.1610  176.0160  138.1620 C   0  0  0  0  0  2  0  0  0  0  0  0
  193.6580  176.2300  136.7400 C   0  0  0  0  0  2  0  0  0  0  0  0
  194.6970  175.1880  136.3560 C   0  0  0  0  0  2  0  0  0  0  0  0
  194.3710  172.7790  136.8280 C   0  0  0  0  0  1  0  0  0  0  0  0
  194.0200  173.9120  135.8880 C   0  0  0  0  0  2  0  0  0  0  0  0
  182.3450  179.1960  144.6620 C   0  0  0  0  0  2  0  0  0  0  0  0
  181.8040  178.9770  143.2600 C   0  0  0  0  0  2  0  0  0  0  0  0
  180.4060  178.3860  143.3100 C   0  0  0  0  0  2  0  0  0  0  0  0
  179.7760  178.3840  141.9250 C   0  0  0  0  0  2  0  0  0  0  0  0
  180.5000  177.4730  141.0510 N   0  0  0  0  0  2  0  0  0  0  0  0
  183.1290  175.3630  138.4820 N   0  0  2  0  0  0  0  0  0  0  0  0
  182.9210  179.5970  138.3090 O   0  0  0  0  0  1  0  0  0  0  0  0
  182.6810  178.2200  138.2170 C   0  0  2  0  0  0  0  0  0  0  0  0
  181.1890  178.2710  140.0450 C   0  0  1  0  0  3  0  0  0  0  0  0
  181.5810  176.2050  136.0260 O   0  0  0  0  0  1  0  0  0  0  0  0
  181.2870  177.9810  137.6200 C   0  0  1  0  0  3  0  0  0  0  0  0
  182.5100  177.6360  139.5900 C   0  0  1  0  0  3  0  0  0  0  0  0
  185.2380  175.5470  137.2560 C   0  0  0  0  0  1  0  0  0  0  0  0
  181.6400  175.4900  138.3730 C   0  0  2  0  0  3  0  0  0  0  0  0
  179.9760  179.7270  138.6060 F   0  0  0  0  0  0  0  0  0  0  0  0
  181.0460  176.4770  137.2910 C   0  0  2  0  0  0  0  0  0  0  0  0
  182.3640  176.0870  139.5320 C   0  0  1  0  0  3  0  0  0  0  0  0
  183.8830  177.6060  137.5270 C   0  0  0  0  0  2  0  0  0  0  0  0
  180.3570  178.4070  138.7710 C   0  0  2  0  0  3  0  0  0  0  0  0
  183.8350  176.0950  137.4140 C   0  0  2  0  0  3  0  0  0  0  0  0
  179.5350  176.2130  137.1890 C   0  0  0  0  0  2  0  0  0  0  0  0
  178.9450  176.6620  135.8580 C   0  0  0  0  0  1  0  0  0  0  0  0
  1  4  1  0  0  0  0
  2 34  1  6  0  0  0
  2  6  1  0  0  0  0
  3  5  1  0  0  0  0
  3  2  1  0  0  0  0
  5  8  1  6  0  0  0
  5  1  1  0  0  0  0
  6  4  1  0  0  0  0
  8  7  2  6  0  0  0
  9 20  1  6  0  0  0
  9  8  1  0  0  0  0
  9 10  1  0  0  0  0
 10 12  1  0  0  0  0
 12 11  1  1  0  0  0
 12 13  1  0  0  0  0
 13 14  1  0  0  0  0
 14 15  1  0  0  0  0
 15 16  1  1  0  0  0
 15 17  1  0  0  0  0
 17 18  1  0  0  0  0
 19 17  2  0  0  0  0
 21 26  1  0  0  0  0
 22 25  1  0  0  0  0
 22 21  2  0  0  0  0
 23 20  1  0  0  0  0
 24 23  1  0  0  0  0
 25 24  2  0  0  0  0
 26 27  1  0  0  0  0
 26 23  2  0  0  0  0
 28 29  1  0  0  0  0
 28 27  1  0  0  0  0
 30 29  1  0  0  0  0
 31 30  1  0  0  0  0
 33 31  1  0  0  0  0
 33 32  1  0  0  0  0
 35 36  1  0  0  0  0
 35 34  1  0  0  0  0
 37 36  1  0  0  0  0
 38 37  1  0  0  0  0
 39 50  1  0  0  0  0
 41 40  1  0  0  0  0
 41 45  1  0  0  0  0
 42 38  1  0  0  0  0
 43 49  1  0  0  0  0
 44 41  1  0  0  0  0
 44 52  1  0  0  0  0
 45 42  1  0  0  0  0
 46 53  1  0  0  0  0
 47 39  1  0  0  0  0
 47 50  1  0  0  0  0
 48 52  1  0  0  0  0
 49 44  1  0  0  0  0
 49 47  1  0  0  0  0
 50 45  1  0  0  0  0
 51 41  1  0  0  0  0
 52 42  1  0  0  0  0
 53 51  1  0  0  0  0
 53 39  1  0  0  0  0
 54 49  1  0  0  0  0
 55 54  1  0  0  0  0
M  END
>  <MODEL>
3

>  <REMARK>
 VINA RESULT:      -6.6      1.923      2.945
  Name = 
  23 active torsions:
  status: ('A' for Active; 'I' for Inactive)
    1  A    between atoms: C_4  and  C_37
    2  A    between atoms: C_4  and  C_40
    3  A    between atoms: C_5  and  O_19
    4  A    between atoms: C_5  and  C_40
    5  A    between atoms: C_7  and  N_22
    6  A    between atoms: C_8  and  N_22
    7  A    between atoms: C_8  and  C_43
    8  A    between atoms: C_10  and  C_32
    9  A    between atoms: C_11  and  C_38
   10  A    between atoms: C_13  and  C_48
   11  A    between atoms: C_13  and  C_52
   12  A    between atoms: C_16  and  C_36
   13  A    between atoms: O_19  and  C_45
   14  A    between atoms: C_26  and  C_45
   15  A    between atoms: C_27  and  C_54
   16  A    between atoms: P_28  and  C_44
   17  A    between atoms: P_28  and  C_49
   18  A    between atoms: C_32  and  C_48
   19  A    between atoms: N_33  and  C_49
   20  A    between atoms: N_33  and  C_52
   21  A    between atoms: C_36  and  C_49
   22  A    between atoms: C_43  and  C_51
   23  A    between atoms: C_51  and  C_54
                            x       y       z     vdW  Elec       q    Type
                         _______ _______ _______ _____ _____    ______ ____

>  <TORSDO>
F 23

$$$$
=
 OpenBabel11052414553D

 55 60  0  0  1  0  0  0  0  0999 V2000
  187.1580  177.5200  145.2910 C   0  0  0  0  0  2  0  0  0  0  0  0
  185.0250  179.0210  143.9460 C   0  0  2  0  0  3  0  0  0  0  0  0
  185.9580  178.0860  143.1750 C   0  0  0  0  0  2  0  0  0  0  0  0
  186.2190  178.4360  146.0740 C   0  0  0  0  0  2  0  0  0  0  0  0
  187.3150  178.0360  143.8660 C   0  0  2  0  0  3  0  0  0  0  0  0
  184.8600  178.5230  145.3810 C   0  0  0  0  0  2  0  0  0  0  0  0
  188.3700  175.4760  143.1310 O   0  0  0  0  0  0  0  0  0  0  0  0
  188.4430  176.9720  142.9320 P   0  0  1  0  0  4  0  0  0  0  0  0
  189.5490  177.6350  141.6500 C   0  0  1  0  0  3  0  0  0  0  0  0
  190.8260  178.0100  142.2460 N   0  0  0  0  0  2  0  0  0  0  0  0
  190.7100  179.4580  144.1050 O   0  0  0  0  0  1  0  0  0  0  0  0
  190.6980  178.1210  143.7020 C   0  0  2  0  0  3  0  0  0  0  0  0
  191.7820  177.3350  144.4330 C   0  0  0  0  0  2  0  0  0  0  0  0
  191.1820  176.3670  145.4520 C   0  0  0  0  0  2  0  0  0  0  0  0
  191.3220  176.8340  146.9060 C   0  0  2  0  0  3  0  0  0  0  0  0
  192.1950  175.9070  147.7370 C   0  0  0  0  0  1  0  0  0  0  0  0
  190.0000  177.0790  147.5590 C   0  0  0  0  0  0  0  0  0  0  0  0
  189.1350  176.1660  147.5740 O   0  0  0  0  0  0  0  0  0  0  0  0
  189.7260  178.2970  148.1730 O   0  0  0  0  0  1  0  0  0  0  0  0
  189.7840  176.6230  140.5320 C   0  0  0  0  0  2  0  0  0  0  0  0
  189.7340  177.5250  136.8130 C   0  0  0  0  0  3  0  0  0  0  0  0
  188.4840  178.1390  136.7180 C   0  0  0  0  0  3  0  0  0  0  0  0
  189.3700  177.1410  139.1850 C   0  0  0  0  0  0  0  0  0  0  0  0
  188.1150  177.7520  139.0760 C   0  0  0  0  0  3  0  0  0  0  0  0
  187.6730  178.2480  137.8480 C   0  0  0  0  0  3  0  0  0  0  0  0
  190.1830  177.0160  138.0380 C   0  0  0  0  0  0  0  0  0  0  0  0
  191.5410  176.3950  138.0920 C   0  0  0  0  0  2  0  0  0  0  0  0
  191.4290  175.0020  138.0560 O   0  0  0  0  0  0  0  0  0  0  0  0
  192.4990  174.5710  137.2710 C   0  0  0  0  0  2  0  0  0  0  0  0
  192.9860  175.7100  136.3890 C   0  0  0  0  0  2  0  0  0  0  0  0
  194.5010  175.6990  136.2610 C   0  0  0  0  0  2  0  0  0  0  0  0
  196.3800  176.5120  134.8680 C   0  0  0  0  0  1  0  0  0  0  0  0
  194.9610  176.7920  135.3140 C   0  0  0  0  0  2  0  0  0  0  0  0
  183.6630  179.1070  143.2780 C   0  0  0  0  0  2  0  0  0  0  0  0
  183.5930  178.1590  142.0930 C   0  0  0  0  0  2  0  0  0  0  0  0
  183.9010  178.8930  140.8000 C   0  0  0  0  0  2  0  0  0  0  0  0
  183.2200  178.2120  139.6220 C   0  0  0  0  0  2  0  0  0  0  0  0
  184.0760  178.2790  138.4460 N   0  0  0  0  0  2  0  0  0  0  0  0
  184.3520  174.4160  136.7270 N   0  0  2  0  0  0  0  0  0  0  0  0
  182.0800  177.4440  134.8120 O   0  0  0  0  0  1  0  0  0  0  0  0
  182.5690  176.4490  135.6680 C   0  0  2  0  0  0  0  0  0  0  0  0
  183.2450  178.0410  137.2730 C   0  0  1  0  0  3  0  0  0  0  0  0
  181.4040  173.8970  137.1510 O   0  0  0  0  0  1  0  0  0  0  0  0
  181.6090  176.2740  136.8530 C   0  0  1  0  0  3  0  0  0  0  0  0
  183.8050  176.9360  136.3680 C   0  0  1  0  0  3  0  0  0  0  0  0
  184.2910  173.2080  134.6000 C   0  0  0  0  0  1  0  0  0  0  0  0
  183.5380  174.8410  137.9120 C   0  0  2  0  0  3  0  0  0  0  0  0
  180.9150  178.5200  137.3160 F   0  0  0  0  0  0  0  0  0  0  0  0
  181.9820  175.0360  137.7240 C   0  0  2  0  0  0  0  0  0  0  0  0
  184.4450  175.8110  137.2330 C   0  0  1  0  0  3  0  0  0  0  0  0
  182.8890  175.2430  134.8060 C   0  0  0  0  0  2  0  0  0  0  0  0
  181.8490  177.5610  137.6650 C   0  0  2  0  0  3  0  0  0  0  0  0
  183.5130  174.0850  135.5600 C   0  0  2  0  0  3  0  0  0  0  0  0
  181.3520  175.1870  139.1190 C   0  0  0  0  0  2  0  0  0  0  0  0
  179.8460  174.9590  139.1160 C   0  0  0  0  0  1  0  0  0  0  0  0
  1  4  1  0  0  0  0
  2 34  1  6  0  0  0
  2  6  1  0  0  0  0
  3  5  1  0  0  0  0
  3  2  1  0  0  0  0
  5  8  1  6  0  0  0
  5  1  1  0  0  0  0
  6  4  1  0  0  0  0
  8  7  2  6  0  0  0
  9 20  1  6  0  0  0
  9 10  1  0  0  0  0
  9  8  1  0  0  0  0
 10 12  1  0  0  0  0
 12 11  1  6  0  0  0
 12 13  1  0  0  0  0
 13 14  1  0  0  0  0
 14 15  1  0  0  0  0
 15 17  1  0  0  0  0
 15 16  1  1  0  0  0
 17 18  2  0  0  0  0
 17 19  1  0  0  0  0
 21 26  1  0  0  0  0
 22 21  2  0  0  0  0
 22 25  1  0  0  0  0
 23 20  1  0  0  0  0
 24 23  1  0  0  0  0
 25 24  2  0  0  0  0
 26 27  1  0  0  0  0
 26 23  2  0  0  0  0
 28 27  1  0  0  0  0
 29 28  1  0  0  0  0
 30 29  1  0  0  0  0
 31 30  1  0  0  0  0
 32 33  1  0  0  0  0
 33 31  1  0  0  0  0
 35 34  1  0  0  0  0
 36 35  1  0  0  0  0
 37 36  1  0  0  0  0
 38 37  1  0  0  0  0
 39 50  1  0  0  0  0
 39 47  1  0  0  0  0
 40 41  1  0  0  0  0
 41 45  1  0  0  0  0
 41 44  1  0  0  0  0
 42 52  1  0  0  0  0
 42 38  1  0  0  0  0
 43 49  1  0  0  0  0
 44 52  1  0  0  0  0
 44 49  1  0  0  0  0
 45 50  1  0  0  0  0
 45 42  1  0  0  0  0
 46 53  1  0  0  0  0
 48 52  1  0  0  0  0
 49 47  1  0  0  0  0
 49 54  1  0  0  0  0
 50 47  1  0  0  0  0
 51 53  1  0  0  0  0
 51 41  1  0  0  0  0
 53 39  1  0  0  0  0
 55 54  1  0  0  0  0
M  END
>  <MODEL>
4

>  <REMARK>
 VINA RESULT:      -6.6      1.415      2.104
  Name = 
  23 active torsions:
  status: ('A' for Active; 'I' for Inactive)
    1  A    between atoms: C_4  and  C_37
    2  A    between atoms: C_4  and  C_40
    3  A    between atoms: C_5  and  O_19
    4  A    between atoms: C_5  and  C_40
    5  A    between atoms: C_7  and  N_22
    6  A    between atoms: C_8  and  N_22
    7  A    between atoms: C_8  and  C_43
    8  A    between atoms: C_10  and  C_32
    9  A    between atoms: C_11  and  C_38
   10  A    between atoms: C_13  and  C_48
   11  A    between atoms: C_13  and  C_52
   12  A    between atoms: C_16  and  C_36
   13  A    between atoms: O_19  and  C_45
   14  A    between atoms: C_26  and  C_45
   15  A    between atoms: C_27  and  C_54
   16  A    between atoms: P_28  and  C_44
   17  A    between atoms: P_28  and  C_49
   18  A    between atoms: C_32  and  C_48
   19  A    between atoms: N_33  and  C_49
   20  A    between atoms: N_33  and  C_52
   21  A    between atoms: C_36  and  C_49
   22  A    between atoms: C_43  and  C_51
   23  A    between atoms: C_51  and  C_54
                            x       y       z     vdW  Elec       q    Type
                         _______ _______ _______ _____ _____    ______ ____

>  <TORSDO>
F 23

$$$$
=
 OpenBabel11052414553D

 55 60  0  0  1  0  0  0  0  0999 V2000
  187.3140  177.3540  143.9310 C   0  0  0  0  0  2  0  0  0  0  0  0
  184.9490  178.8280  144.8480 C   0  0  2  0  0  3  0  0  0  0  0  0
  185.2830  178.6910  143.3620 C   0  0  0  0  0  2  0  0  0  0  0  0
  186.9780  177.4670  145.4160 C   0  0  0  0  0  2  0  0  0  0  0  0
  186.7920  178.5770  143.1870 C   0  0  2  0  0  3  0  0  0  0  0  0
  185.4700  177.6120  145.6120 C   0  0  0  0  0  2  0  0  0  0  0  0
  186.1280  178.7600  140.4070 O   0  0  0  0  0  0  0  0  0  0  0  0
  187.2020  178.4660  141.4270 P   0  0  1  0  0  4  0  0  0  0  0  0
  188.9020  178.1690  140.8530 C   0  0  1  0  0  3  0  0  0  0  0  0
  189.7950  178.0470  142.0000 N   0  0  0  0  0  2  0  0  0  0  0  0
  189.5640  175.7660  142.5590 O   0  0  0  0  0  1  0  0  0  0  0  0
  190.4260  176.7230  142.0180 C   0  0  2  0  0  3  0  0  0  0  0  0
  191.7520  176.7310  142.7720 C   0  0  0  0  0  2  0  0  0  0  0  0
  191.6430  175.9930  144.1060 C   0  0  0  0  0  2  0  0  0  0  0  0
  191.1500  176.8730  145.2600 C   0  0  2  0  0  3  0  0  0  0  0  0
  191.4490  178.3480  145.0430 C   0  0  0  0  0  1  0  0  0  0  0  0
  191.6410  176.4010  146.5910 C   0  0  0  0  0  0  0  0  0  0  0  0
  191.2840  177.0050  147.6350 O   0  0  0  0  0  1  0  0  0  0  0  0
  192.4660  175.2850  146.6890 O   0  0  0  0  0  0  0  0  0  0  0  0
  188.9940  176.9100  139.9970 C   0  0  0  0  0  2  0  0  0  0  0  0
  190.0940  176.8810  136.3320 C   0  0  0  0  0  3  0  0  0  0  0  0
  189.2480  177.8600  135.8050 C   0  0  0  0  0  3  0  0  0  0  0  0
  189.1170  177.2140  138.5310 C   0  0  0  0  0  0  0  0  0  0  0  0
  188.2680  178.1880  137.9920 C   0  0  0  0  0  3  0  0  0  0  0  0
  188.3330  178.5090  136.6340 C   0  0  0  0  0  3  0  0  0  0  0  0
  190.0310  176.5460  137.6890 C   0  0  0  0  0  0  0  0  0  0  0  0
  190.9790  175.5120  138.2080 C   0  0  0  0  0  2  0  0  0  0  0  0
  190.6690  174.2650  137.6590 O   0  0  0  0  0  0  0  0  0  0  0  0
  191.8200  173.8720  136.9740 C   0  0  0  0  0  2  0  0  0  0  0  0
  193.0470  174.4910  137.6270 C   0  0  0  0  0  2  0  0  0  0  0  0
  194.0970  174.8590  136.5900 C   0  0  0  0  0  2  0  0  0  0  0  0
  194.7050  176.5460  134.8830 C   0  0  0  0  0  1  0  0  0  0  0  0
  193.9380  176.3070  136.1660 C   0  0  0  0  0  2  0  0  0  0  0  0
  183.4490  178.9580  145.0610 C   0  0  0  0  0  2  0  0  0  0  0  0
  182.7690  179.4150  143.7820 C   0  0  0  0  0  2  0  0  0  0  0  0
  181.4040  178.7660  143.6370 C   0  0  0  0  0  2  0  0  0  0  0  0
  180.6780  179.3100  142.4170 C   0  0  0  0  0  2  0  0  0  0  0  0
  180.2440  178.2120  141.5660 N   0  0  0  0  0  2  0  0  0  0  0  0
  179.2640  177.3740  137.5290 N   0  0  2  0  0  0  0  0  0  0  0  0
  183.2180  176.7550  138.9350 O   0  0  0  0  0  1  0  0  0  0  0  0
  182.0000  177.2910  138.4980 C   0  0  2  0  0  0  0  0  0  0  0  0
  181.3580  177.8500  140.6990 C   0  0  1  0  0  3  0  0  0  0  0  0
  181.0600  179.5860  136.5190 O   0  0  0  0  0  1  0  0  0  0  0  0
  182.0590  178.8220  138.5680 C   0  0  1  0  0  3  0  0  0  0  0  0
  180.9210  176.9970  139.5010 C   0  0  1  0  0  3  0  0  0  0  0  0
  179.8640  175.9700  135.6170 C   0  0  0  0  0  1  0  0  0  0  0  0
  179.4660  178.7140  138.1680 C   0  0  2  0  0  3  0  0  0  0  0  0
  183.3010  179.2190  140.5780 F   0  0  0  0  0  0  0  0  0  0  0  0
  180.8190  179.4830  137.8940 C   0  0  2  0  0  0  0  0  0  0  0  0
  179.5290  177.4700  138.9890 C   0  0  1  0  0  3  0  0  0  0  0  0
  181.6800  176.6350  137.1690 C   0  0  0  0  0  2  0  0  0  0  0  0
  182.0150  179.0850  140.0860 C   0  0  2  0  0  3  0  0  0  0  0  0
  180.3420  177.0360  136.5810 C   0  0  2  0  0  3  0  0  0  0  0  0
  180.6600  180.9200  138.4150 C   0  0  0  0  0  2  0  0  0  0  0  0
  180.7180  181.9620  137.3050 C   0  0  0  0  0  1  0  0  0  0  0  0
  1  4  1  0  0  0  0
  2 34  1  6  0  0  0
  2  6  1  0  0  0  0
  3  2  1  0  0  0  0
  4  6  1  0  0  0  0
  5  8  1  6  0  0  0
  5  3  1  0  0  0  0
  5  1  1  0  0  0  0
  8  7  2  6  0  0  0
  9 20  1  1  0  0  0
  9  8  1  0  0  0  0
  9 10  1  0  0  0  0
 10 12  1  0  0  0  0
 12 11  1  1  0  0  0
 12 13  1  0  0  0  0
 13 14  1  0  0  0  0
 14 15  1  0  0  0  0
 15 16  1  6  0  0  0
 15 17  1  0  0  0  0
 17 19  2  0  0  0  0
 17 18  1  0  0  0  0
 21 26  1  0  0  0  0
 22 21  2  0  0  0  0
 22 25  1  0  0  0  0
 23 20  1  0  0  0  0
 24 23  1  0  0  0  0
 25 24  2  0  0  0  0
 26 27  1  0  0  0  0
 26 23  2  0  0  0  0
 28 27  1  0  0  0  0
 29 30  1  0  0  0  0
 29 28  1  0  0  0  0
 31 30  1  0  0  0  0
 32 33  1  0  0  0  0
 33 31  1  0  0  0  0
 35 34  1  0  0  0  0
 36 35  1  0  0  0  0
 37 36  1  0  0  0  0
 38 37  1  0  0  0  0
 39 47  1  0  0  0  0
 39 50  1  0  0  0  0
 41 44  1  0  0  0  0
 41 40  1  0  0  0  0
 41 45  1  0  0  0  0
 42 38  1  0  0  0  0
 43 49  1  0  0  0  0
 44 52  1  0  0  0  0
 45 42  1  0  0  0  0
 46 53  1  0  0  0  0
 47 50  1  0  0  0  0
 49 47  1  0  0  0  0
 49 54  1  0  0  0  0
 49 44  1  0  0  0  0
 50 45  1  0  0  0  0
 51 41  1  0  0  0  0
 52 48  1  0  0  0  0
 52 42  1  0  0  0  0
 53 51  1  0  0  0  0
 53 39  1  0  0  0  0
 55 54  1  0  0  0  0
M  END
>  <MODEL>
5

>  <REMARK>
 VINA RESULT:      -6.5      2.275      3.604
  Name = 
  23 active torsions:
  status: ('A' for Active; 'I' for Inactive)
    1  A    between atoms: C_4  and  C_37
    2  A    between atoms: C_4  and  C_40
    3  A    between atoms: C_5  and  O_19
    4  A    between atoms: C_5  and  C_40
    5  A    between atoms: C_7  and  N_22
    6  A    between atoms: C_8  and  N_22
    7  A    between atoms: C_8  and  C_43
    8  A    between atoms: C_10  and  C_32
    9  A    between atoms: C_11  and  C_38
   10  A    between atoms: C_13  and  C_48
   11  A    between atoms: C_13  and  C_52
   12  A    between atoms: C_16  and  C_36
   13  A    between atoms: O_19  and  C_45
   14  A    between atoms: C_26  and  C_45
   15  A    between atoms: C_27  and  C_54
   16  A    between atoms: P_28  and  C_44
   17  A    between atoms: P_28  and  C_49
   18  A    between atoms: C_32  and  C_48
   19  A    between atoms: N_33  and  C_49
   20  A    between atoms: N_33  and  C_52
   21  A    between atoms: C_36  and  C_49
   22  A    between atoms: C_43  and  C_51
   23  A    between atoms: C_51  and  C_54
                            x       y       z     vdW  Elec       q    Type
                         _______ _______ _______ _____ _____    ______ ____

>  <TORSDO>
F 23

$$$$
=
 OpenBabel11052414553D

 55 60  0  0  1  0  0  0  0  0999 V2000
  188.8960  177.1270  135.5740 C   0  0  0  0  0  2  0  0  0  0  0  0
  186.0410  176.6620  136.0680 C   0  0  2  0  0  3  0  0  0  0  0  0
  187.1160  176.1590  137.0330 C   0  0  0  0  0  2  0  0  0  0  0  0
  187.8300  177.6520  134.6140 C   0  0  0  0  0  2  0  0  0  0  0  0
  188.3950  175.8630  136.2620 C   0  0  2  0  0  3  0  0  0  0  0  0
  186.5270  177.9270  135.3640 C   0  0  0  0  0  2  0  0  0  0  0  0
  189.7950  173.7220  137.5510 O   0  0  0  0  0  0  0  0  0  0  0  0
  189.6590  175.2170  137.3870 P   0  0  1  0  0  4  0  0  0  0  0  0
  190.8660  176.3050  138.2020 C   0  0  1  0  0  3  0  0  0  0  0  0
  191.8740  176.7320  137.2390 N   0  0  0  0  0  2  0  0  0  0  0  0
  194.2010  176.9680  136.9290 O   0  0  0  0  0  1  0  0  0  0  0  0
  193.2120  176.3380  137.6890 C   0  0  2  0  0  3  0  0  0  0  0  0
  193.4030  174.8240  137.6600 C   0  0  0  0  0  2  0  0  0  0  0  0
  194.4210  174.4080  136.5980 C   0  0  0  0  0  2  0  0  0  0  0  0
  195.7280  173.8570  137.1790 C   0  0  2  0  0  3  0  0  0  0  0  0
  195.7980  173.9860  138.6920 C   0  0  0  0  0  1  0  0  0  0  0  0
  196.9380  174.4380  136.5190 C   0  0  0  0  0  0  0  0  0  0  0  0
  197.5110  173.8000  135.5990 O   0  0  0  0  0  0  0  0  0  0  0  0
  197.4200  175.6880  136.8940 O   0  0  0  0  0  1  0  0  0  0  0  0
  190.1950  177.5290  138.8170 C   0  0  0  0  0  2  0  0  0  0  0  0
  189.3980  177.8320  142.5480 C   0  0  0  0  0  3  0  0  0  0  0  0
  190.6600  177.6000  143.0970 C   0  0  0  0  0  3  0  0  0  0  0  0
  190.3150  177.5660  140.3140 C   0  0  0  0  0  0  0  0  0  0  0  0
  191.5750  177.3270  140.8740 C   0  0  0  0  0  3  0  0  0  0  0  0
  191.7470  177.3430  142.2610 C   0  0  0  0  0  3  0  0  0  0  0  0
  189.2130  177.8090  141.1610 C   0  0  0  0  0  0  0  0  0  0  0  0
  187.8470  178.0930  140.6240 C   0  0  0  0  0  2  0  0  0  0  0  0
  186.9990  178.4860  141.6630 O   0  0  0  0  0  0  0  0  0  0  0  0
  185.7650  178.7250  141.0550 C   0  0  0  0  0  2  0  0  0  0  0  0
  184.6600  178.6930  142.1000 C   0  0  0  0  0  2  0  0  0  0  0  0
  184.9760  179.6180  143.2650 C   0  0  0  0  0  2  0  0  0  0  0  0
  184.0210  178.4590  145.2340 C   0  0  0  0  0  1  0  0  0  0  0  0
  183.8390  179.6120  144.2700 C   0  0  0  0  0  2  0  0  0  0  0  0
  184.7430  176.9550  136.8020 C   0  0  0  0  0  2  0  0  0  0  0  0
  183.8560  175.7230  136.8270 C   0  0  0  0  0  2  0  0  0  0  0  0
  183.6380  175.2450  138.2510 C   0  0  0  0  0  2  0  0  0  0  0  0
  182.4160  175.9150  138.8600 C   0  0  0  0  0  2  0  0  0  0  0  0
  182.8140  177.1180  139.5770 N   0  0  0  0  0  2  0  0  0  0  0  0
  181.6210  180.7230  137.6960 N   0  0  2  0  0  0  0  0  0  0  0  0
  179.5850  179.3490  141.1550 O   0  0  0  0  0  1  0  0  0  0  0  0
  180.0940  179.5390  139.8640 C   0  0  2  0  0  0  0  0  0  0  0  0
  181.6080  177.7450  140.1030 C   0  0  1  0  0  3  0  0  0  0  0  0
  178.9470  179.5540  136.9050 O   0  0  0  0  0  1  0  0  0  0  0  0
  179.5720  178.4330  138.9380 C   0  0  1  0  0  3  0  0  0  0  0  0
  181.5690  179.2570  139.8460 C   0  0  1  0  0  3  0  0  0  0  0  0
  180.5830  182.8990  138.1090 C   0  0  0  0  0  1  0  0  0  0  0  0
  181.3670  179.3180  137.2390 C   0  0  2  0  0  3  0  0  0  0  0  0
  179.5970  176.4970  140.3510 F   0  0  0  0  0  0  0  0  0  0  0  0
  179.9240  178.7090  137.4450 C   0  0  2  0  0  0  0  0  0  0  0  0
  182.1900  179.5780  138.4550 C   0  0  1  0  0  3  0  0  0  0  0  0
  179.8280  180.9850  139.4920 C   0  0  0  0  0  2  0  0  0  0  0  0
  180.3520  177.1970  139.4270 C   0  0  2  0  0  3  0  0  0  0  0  0
  180.3890  181.3970  138.1460 C   0  0  2  0  0  3  0  0  0  0  0  0
  179.8480  177.3940  136.6520 C   0  0  0  0  0  2  0  0  0  0  0  0
  181.0230  177.2090  135.7000 C   0  0  0  0  0  1  0  0  0  0  0  0
  1  5  1  0  0  0  0
  2 34  1  1  0  0  0
  2  3  1  0  0  0  0
  4  6  1  0  0  0  0
  4  1  1  0  0  0  0
  5  3  1  0  0  0  0
  5  8  1  1  0  0  0
  6  2  1  0  0  0  0
  8  7  2  6  0  0  0
  8  9  1  0  0  0  0
  9 20  1  6  0  0  0
 10 12  1  0  0  0  0
 10  9  1  0  0  0  0
 12 11  1  6  0  0  0
 13 12  1  0  0  0  0
 14 15  1  0  0  0  0
 14 13  1  0  0  0  0
 15 16  1  1  0  0  0
 17 19  1  0  0  0  0
 17 15  1  0  0  0  0
 18 17  2  0  0  0  0
 20 23  1  0  0  0  0
 21 22  1  0  0  0  0
 23 24  2  0  0  0  0
 23 26  1  0  0  0  0
 24 25  1  0  0  0  0
 25 22  2  0  0  0  0
 26 21  2  0  0  0  0
 27 26  1  0  0  0  0
 27 28  1  0  0  0  0
 29 28  1  0  0  0  0
 29 30  1  0  0  0  0
 30 31  1  0  0  0  0
 31 33  1  0  0  0  0
 33 32  1  0  0  0  0
 34 35  1  0  0  0  0
 35 36  1  0  0  0  0
 36 37  1  0  0  0  0
 37 38  1  0  0  0  0
 38 42  1  0  0  0  0
 39 53  1  0  0  0  0
 39 50  1  0  0  0  0
 41 40  1  0  0  0  0
 43 49  1  0  0  0  0
 44 52  1  0  0  0  0
 44 41  1  0  0  0  0
 45 41  1  0  0  0  0
 45 42  1  0  0  0  0
 46 53  1  0  0  0  0
 47 49  1  0  0  0  0
 47 39  1  0  0  0  0
 47 50  1  0  0  0  0
 49 44  1  0  0  0  0
 50 45  1  0  0  0  0
 51 41  1  0  0  0  0
 52 42  1  0  0  0  0
 52 48  1  0  0  0  0
 53 51  1  0  0  0  0
 54 49  1  0  0  0  0
 55 54  1  0  0  0  0
M  END
>  <MODEL>
6

>  <REMARK>
 VINA RESULT:      -6.1      3.211      7.422
  Name = 
  23 active torsions:
  status: ('A' for Active; 'I' for Inactive)
    1  A    between atoms: C_4  and  C_37
    2  A    between atoms: C_4  and  C_40
    3  A    between atoms: C_5  and  O_19
    4  A    between atoms: C_5  and  C_40
    5  A    between atoms: C_7  and  N_22
    6  A    between atoms: C_8  and  N_22
    7  A    between atoms: C_8  and  C_43
    8  A    between atoms: C_10  and  C_32
    9  A    between atoms: C_11  and  C_38
   10  A    between atoms: C_13  and  C_48
   11  A    between atoms: C_13  and  C_52
   12  A    between atoms: C_16  and  C_36
   13  A    between atoms: O_19  and  C_45
   14  A    between atoms: C_26  and  C_45
   15  A    between atoms: C_27  and  C_54
   16  A    between atoms: P_28  and  C_44
   17  A    between atoms: P_28  and  C_49
   18  A    between atoms: C_32  and  C_48
   19  A    between atoms: N_33  and  C_49
   20  A    between atoms: N_33  and  C_52
   21  A    between atoms: C_36  and  C_49
   22  A    between atoms: C_43  and  C_51
   23  A    between atoms: C_51  and  C_54
                            x       y       z     vdW  Elec       q    Type
                         _______ _______ _______ _____ _____    ______ ____

>  <TORSDO>
F 23

$$$$
=
 OpenBabel11052414553D

 55 60  0  0  1  0  0  0  0  0999 V2000
  189.1280  173.2180  136.8350 C   0  0  0  0  0  2  0  0  0  0  0  0
  186.5210  174.3830  136.1600 C   0  0  2  0  0  3  0  0  0  0  0  0
  187.8300  175.1130  135.8550 C   0  0  0  0  0  2  0  0  0  0  0  0
  187.8280  172.4710  137.1250 C   0  0  0  0  0  2  0  0  0  0  0  0
  188.8830  174.7210  136.8840 C   0  0  2  0  0  3  0  0  0  0  0  0
  186.7470  172.8730  136.1220 C   0  0  0  0  0  2  0  0  0  0  0  0
  190.8280  175.8870  135.1320 O   0  0  0  0  0  0  0  0  0  0  0  0
  190.4220  175.6200  136.5630 P   0  0  1  0  0  4  0  0  0  0  0  0
  191.4090  176.3460  137.9070 C   0  0  1  0  0  3  0  0  0  0  0  0
  192.8120  176.4000  137.5140 N   0  0  0  0  0  2  0  0  0  0  0  0
  194.5470  175.5530  138.8710 O   0  0  0  0  0  1  0  0  0  0  0  0
  193.5220  175.2070  137.9870 C   0  0  2  0  0  3  0  0  0  0  0  0
  194.0720  174.3740  136.8330 C   0  0  0  0  0  2  0  0  0  0  0  0
  195.3020  175.0290  136.2060 C   0  0  0  0  0  2  0  0  0  0  0  0
  196.5830  174.1980  136.3450 C   0  0  2  0  0  3  0  0  0  0  0  0
  196.4290  173.0410  137.3200 C   0  0  0  0  0  1  0  0  0  0  0  0
  197.7780  175.0370  136.6700 C   0  0  0  0  0  0  0  0  0  0  0  0
  198.0310  175.3190  137.8700 O   0  0  0  0  0  1  0  0  0  0  0  0
  198.6260  175.4870  135.6630 O   0  0  0  0  0  0  0  0  0  0  0  0
  190.9240  177.7470  138.2660 C   0  0  0  0  0  2  0  0  0  0  0  0
  187.1330  177.8470  138.7790 C   0  0  0  0  0  3  0  0  0  0  0  0
  186.7190  178.3020  137.5260 C   0  0  0  0  0  3  0  0  0  0  0  0
  189.4490  177.9240  138.0480 C   0  0  0  0  0  0  0  0  0  0  0  0
  189.0240  178.3870  136.7970 C   0  0  0  0  0  3  0  0  0  0  0  0
  187.6640  178.5760  136.5370 C   0  0  0  0  0  3  0  0  0  0  0  0
  188.4930  177.6630  139.0530 C   0  0  0  0  0  0  0  0  0  0  0  0
  188.8810  177.1460  140.4010 C   0  0  0  0  0  2  0  0  0  0  0  0
  188.8880  178.1920  141.3270 O   0  0  0  0  0  0  0  0  0  0  0  0
  189.3920  177.6340  142.5040 C   0  0  0  0  0  2  0  0  0  0  0  0
  188.3940  177.8260  143.6360 C   0  0  0  0  0  2  0  0  0  0  0  0
  188.7400  176.9490  144.8300 C   0  0  0  0  0  2  0  0  0  0  0  0
  191.1430  176.9200  145.4260 C   0  0  0  0  0  1  0  0  0  0  0  0
  189.8160  177.6050  145.6750 C   0  0  0  0  0  2  0  0  0  0  0  0
  185.4400  174.7600  135.1600 C   0  0  0  0  0  2  0  0  0  0  0  0
  184.5330  175.8330  135.7380 C   0  0  0  0  0  2  0  0  0  0  0  0
  183.3910  175.2090  136.5190 C   0  0  0  0  0  2  0  0  0  0  0  0
  183.6710  175.2640  138.0130 C   0  0  0  0  0  2  0  0  0  0  0  0
  182.6540  176.0650  138.6800 N   0  0  0  0  0  2  0  0  0  0  0  0
  180.4620  179.6110  137.9220 N   0  0  2  0  0  0  0  0  0  0  0  0
  184.4020  179.8330  139.4790 O   0  0  0  0  0  1  0  0  0  0  0  0
  183.0270  179.6490  139.2820 C   0  0  2  0  0  0  0  0  0  0  0  0
  183.2780  177.3080  139.1160 C   0  0  1  0  0  3  0  0  0  0  0  0
  180.3550  180.3050  140.8630 O   0  0  0  0  0  1  0  0  0  0  0  0
  182.3980  179.0740  140.5580 C   0  0  1  0  0  3  0  0  0  0  0  0
  182.7940  178.5240  138.3140 C   0  0  1  0  0  3  0  0  0  0  0  0
  180.6990  181.9760  137.3400 C   0  0  0  0  0  1  0  0  0  0  0  0
  180.2880  178.6460  139.0550 C   0  0  2  0  0  3  0  0  0  0  0  0
  184.0750  177.5540  141.3440 F   0  0  0  0  0  0  0  0  0  0  0  0
  180.8420  179.0500  140.4790 C   0  0  2  0  0  0  0  0  0  0  0  0
  181.2820  178.3720  137.9770 C   0  0  1  0  0  3  0  0  0  0  0  0
  182.4830  180.9480  138.7230 C   0  0  0  0  0  2  0  0  0  0  0  0
  182.9320  177.6290  140.5680 C   0  0  2  0  0  3  0  0  0  0  0  0
  181.0090  180.9060  138.3670 C   0  0  2  0  0  3  0  0  0  0  0  0
  180.2950  178.0410  141.5020 C   0  0  0  0  0  2  0  0  0  0  0  0
  179.4910  176.9200  140.8560 C   0  0  0  0  0  1  0  0  0  0  0  0
  1  5  1  0  0  0  0
  1  4  1  0  0  0  0
  2 34  1  6  0  0  0
  3  2  1  0  0  0  0
  3  5  1  0  0  0  0
  5  8  1  6  0  0  0
  6  2  1  0  0  0  0
  6  4  1  0  0  0  0
  8  7  2  6  0  0  0
  8  9  1  0  0  0  0
  9 20  1  6  0  0  0
 10  9  1  0  0  0  0
 10 12  1  0  0  0  0
 12 11  1  1  0  0  0
 13 12  1  0  0  0  0
 14 15  1  0  0  0  0
 14 13  1  0  0  0  0
 15 17  1  0  0  0  0
 15 16  1  1  0  0  0
 17 18  1  0  0  0  0
 19 17  2  0  0  0  0
 21 26  1  0  0  0  0
 22 21  2  0  0  0  0
 23 20  1  0  0  0  0
 23 26  2  0  0  0  0
 24 23  1  0  0  0  0
 25 24  2  0  0  0  0
 25 22  1  0  0  0  0
 26 27  1  0  0  0  0
 27 28  1  0  0  0  0
 28 29  1  0  0  0  0
 29 30  1  0  0  0  0
 30 31  1  0  0  0  0
 31 33  1  0  0  0  0
 32 33  1  0  0  0  0
 34 35  1  0  0  0  0
 35 36  1  0  0  0  0
 36 37  1  0  0  0  0
 37 38  1  0  0  0  0
 38 42  1  0  0  0  0
 39 50  1  0  0  0  0
 39 53  1  0  0  0  0
 39 47  1  0  0  0  0
 41 40  1  0  0  0  0
 41 44  1  0  0  0  0
 42 52  1  0  0  0  0
 44 52  1  0  0  0  0
 45 42  1  0  0  0  0
 45 41  1  0  0  0  0
 46 53  1  0  0  0  0
 47 49  1  0  0  0  0
 49 44  1  0  0  0  0
 49 43  1  0  0  0  0
 49 54  1  0  0  0  0
 50 45  1  0  0  0  0
 50 47  1  0  0  0  0
 51 41  1  0  0  0  0
 52 48  1  0  0  0  0
 53 51  1  0  0  0  0
 55 54  1  0  0  0  0
M  END
>  <MODEL>
7

>  <REMARK>
 VINA RESULT:      -6.1      3.116      7.347
  Name = 
  23 active torsions:
  status: ('A' for Active; 'I' for Inactive)
    1  A    between atoms: C_4  and  C_37
    2  A    between atoms: C_4  and  C_40
    3  A    between atoms: C_5  and  O_19
    4  A    between atoms: C_5  and  C_40
    5  A    between atoms: C_7  and  N_22
    6  A    between atoms: C_8  and  N_22
    7  A    between atoms: C_8  and  C_43
    8  A    between atoms: C_10  and  C_32
    9  A    between atoms: C_11  and  C_38
   10  A    between atoms: C_13  and  C_48
   11  A    between atoms: C_13  and  C_52
   12  A    between atoms: C_16  and  C_36
   13  A    between atoms: O_19  and  C_45
   14  A    between atoms: C_26  and  C_45
   15  A    between atoms: C_27  and  C_54
   16  A    between atoms: P_28  and  C_44
   17  A    between atoms: P_28  and  C_49
   18  A    between atoms: C_32  and  C_48
   19  A    between atoms: N_33  and  C_49
   20  A    between atoms: N_33  and  C_52
   21  A    between atoms: C_36  and  C_49
   22  A    between atoms: C_43  and  C_51
   23  A    between atoms: C_51  and  C_54
                            x       y       z     vdW  Elec       q    Type
                         _______ _______ _______ _____ _____    ______ ____

>  <TORSDO>
F 23

$$$$
=
 OpenBabel11052414553D

 55 60  0  0  1  0  0  0  0  0999 V2000
  188.9530  178.6990  137.9940 C   0  0  0  0  0  2  0  0  0  0  0  0
  186.7650  177.3090  136.6200 C   0  0  2  0  0  3  0  0  0  0  0  0
  186.9760  177.1790  138.1290 C   0  0  0  0  0  2  0  0  0  0  0  0
  188.7380  178.8530  136.4900 C   0  0  0  0  0  2  0  0  0  0  0  0
  188.4570  177.3320  138.4510 C   0  0  2  0  0  3  0  0  0  0  0  0
  187.2620  178.6730  136.1410 C   0  0  0  0  0  2  0  0  0  0  0  0
  189.5080  175.9310  140.7170 O   0  0  0  0  0  0  0  0  0  0  0  0
  188.7260  177.1280  140.2300 P   0  0  1  0  0  4  0  0  0  0  0  0
  188.2200  178.3960  141.4300 C   0  0  1  0  0  3  0  0  0  0  0  0
  187.4270  177.7850  142.4900 N   0  0  0  0  0  2  0  0  0  0  0  0
  186.0080  179.5630  141.8630 O   0  0  0  0  0  1  0  0  0  0  0  0
  186.0550  178.3030  142.4660 C   0  0  2  0  0  3  0  0  0  0  0  0
  185.4400  178.3580  143.8620 C   0  0  0  0  0  2  0  0  0  0  0  0
  186.2560  177.5430  144.8650 C   0  0  0  0  0  2  0  0  0  0  0  0
  186.6560  178.3280  146.1190 C   0  0  2  0  0  3  0  0  0  0  0  0
  187.4700  177.4960  147.0970 C   0  0  0  0  0  1  0  0  0  0  0  0
  185.4860  178.9770  146.7870 C   0  0  0  0  0  0  0  0  0  0  0  0
  185.6810  179.8710  147.6510 O   0  0  0  0  0  1  0  0  0  0  0  0
  184.1860  178.6210  146.4450 O   0  0  0  0  0  0  0  0  0  0  0  0
  189.4260  179.1070  142.0390 C   0  0  0  0  0  2  0  0  0  0  0  0
  192.0550  176.7150  143.4560 C   0  0  0  0  0  3  0  0  0  0  0  0
  191.6150  176.6070  144.7770 C   0  0  0  0  0  3  0  0  0  0  0  0
  190.2150  178.2220  142.9600 C   0  0  0  0  0  0  0  0  0  0  0  0
  189.7860  178.1130  144.2890 C   0  0  0  0  0  3  0  0  0  0  0  0
  190.4840  177.3100  145.1940 C   0  0  0  0  0  3  0  0  0  0  0  0
  191.3690  177.5240  142.5440 C   0  0  0  0  0  0  0  0  0  0  0  0
  191.8650  177.5810  141.1350 C   0  0  0  0  0  2  0  0  0  0  0  0
  193.1860  177.1280  141.0770 O   0  0  0  0  0  0  0  0  0  0  0  0
  193.5110  177.1260  139.7190 C   0  0  0  0  0  2  0  0  0  0  0  0
  192.2690  176.8340  138.8900 C   0  0  0  0  0  2  0  0  0  0  0  0
  192.6380  176.3220  137.5060 C   0  0  0  0  0  2  0  0  0  0  0  0
  191.7760  175.6390  135.2880 C   0  0  0  0  0  1  0  0  0  0  0  0
  191.3870  176.0350  136.6960 C   0  0  0  0  0  2  0  0  0  0  0  0
  185.2970  177.1480  136.2580 C   0  0  0  0  0  2  0  0  0  0  0  0
  184.8950  175.6840  136.3090 C   0  0  0  0  0  2  0  0  0  0  0  0
  183.9150  175.4350  137.4410 C   0  0  0  0  0  2  0  0  0  0  0  0
  182.4930  175.7440  136.9960 C   0  0  0  0  0  2  0  0  0  0  0  0
  181.7510  176.3510  138.0920 N   0  0  0  0  0  2  0  0  0  0  0  0
  180.0850  180.2410  137.8640 N   0  0  2  0  0  0  0  0  0  0  0  0
  184.0600  179.7020  139.2470 O   0  0  0  0  0  1  0  0  0  0  0  0
  182.6680  179.7420  139.0950 C   0  0  2  0  0  0  0  0  0  0  0  0
  182.5650  177.4280  138.6410 C   0  0  1  0  0  3  0  0  0  0  0  0
  180.1710  180.5730  140.8680 O   0  0  0  0  0  1  0  0  0  0  0  0
  181.9990  179.1100  140.3230 C   0  0  1  0  0  3  0  0  0  0  0  0
  182.2420  178.7910  138.0130 C   0  0  1  0  0  3  0  0  0  0  0  0
  180.6520  182.6010  137.5550 C   0  0  0  0  0  1  0  0  0  0  0  0
  179.8050  179.1770  138.8820 C   0  0  2  0  0  3  0  0  0  0  0  0
  183.4560  177.2790  140.8420 F   0  0  0  0  0  0  0  0  0  0  0  0
  180.4550  179.3180  140.3150 C   0  0  2  0  0  0  0  0  0  0  0  0
  180.7140  178.9000  137.7330 C   0  0  1  0  0  3  0  0  0  0  0  0
  182.3040  181.1650  138.7200 C   0  0  0  0  0  2  0  0  0  0  0  0
  182.3130  177.6130  140.1370 C   0  0  2  0  0  3  0  0  0  0  0  0
  180.8310  181.3790  138.4320 C   0  0  2  0  0  3  0  0  0  0  0  0
  179.7960  178.2790  141.2370 C   0  0  0  0  0  2  0  0  0  0  0  0
  180.0330  178.5640  142.7150 C   0  0  0  0  0  1  0  0  0  0  0  0
  1  5  1  0  0  0  0
  2 34  1  1  0  0  0
  2  3  1  0  0  0  0
  3  5  1  0  0  0  0
  4  1  1  0  0  0  0
  5  8  1  1  0  0  0
  6  4  1  0  0  0  0
  6  2  1  0  0  0  0
  8  7  2  6  0  0  0
  8  9  1  0  0  0  0
  9 20  1  1  0  0  0
  9 10  1  0  0  0  0
 12 11  1  1  0  0  0
 12 10  1  0  0  0  0
 12 13  1  0  0  0  0
 13 14  1  0  0  0  0
 14 15  1  0  0  0  0
 15 17  1  0  0  0  0
 15 16  1  1  0  0  0
 17 18  1  0  0  0  0
 19 17  2  0  0  0  0
 20 23  1  0  0  0  0
 21 22  1  0  0  0  0
 22 25  2  0  0  0  0
 23 24  2  0  0  0  0
 24 25  1  0  0  0  0
 26 23  1  0  0  0  0
 26 21  2  0  0  0  0
 27 26  1  0  0  0  0
 28 27  1  0  0  0  0
 29 28  1  0  0  0  0
 30 29  1  0  0  0  0
 31 30  1  0  0  0  0
 32 33  1  0  0  0  0
 33 31  1  0  0  0  0
 34 35  1  0  0  0  0
 35 36  1  0  0  0  0
 37 36  1  0  0  0  0
 37 38  1  0  0  0  0
 38 42  1  0  0  0  0
 39 53  1  0  0  0  0
 39 47  1  0  0  0  0
 41 40  1  0  0  0  0
 41 44  1  0  0  0  0
 42 52  1  0  0  0  0
 45 42  1  0  0  0  0
 45 41  1  0  0  0  0
 46 53  1  0  0  0  0
 47 49  1  0  0  0  0
 49 44  1  0  0  0  0
 49 43  1  0  0  0  0
 49 54  1  0  0  0  0
 50 39  1  0  0  0  0
 50 45  1  0  0  0  0
 50 47  1  0  0  0  0
 51 41  1  0  0  0  0
 52 44  1  0  0  0  0
 52 48  1  0  0  0  0
 53 51  1  0  0  0  0
 54 55  1  0  0  0  0
M  END
>  <MODEL>
8

>  <REMARK>
 VINA RESULT:      -5.7      2.838      5.597
  Name = 
  23 active torsions:
  status: ('A' for Active; 'I' for Inactive)
    1  A    between atoms: C_4  and  C_37
    2  A    between atoms: C_4  and  C_40
    3  A    between atoms: C_5  and  O_19
    4  A    between atoms: C_5  and  C_40
    5  A    between atoms: C_7  and  N_22
    6  A    between atoms: C_8  and  N_22
    7  A    between atoms: C_8  and  C_43
    8  A    between atoms: C_10  and  C_32
    9  A    between atoms: C_11  and  C_38
   10  A    between atoms: C_13  and  C_48
   11  A    between atoms: C_13  and  C_52
   12  A    between atoms: C_16  and  C_36
   13  A    between atoms: O_19  and  C_45
   14  A    between atoms: C_26  and  C_45
   15  A    between atoms: C_27  and  C_54
   16  A    between atoms: P_28  and  C_44
   17  A    between atoms: P_28  and  C_49
   18  A    between atoms: C_32  and  C_48
   19  A    between atoms: N_33  and  C_49
   20  A    between atoms: N_33  and  C_52
   21  A    between atoms: C_36  and  C_49
   22  A    between atoms: C_43  and  C_51
   23  A    between atoms: C_51  and  C_54
                            x       y       z     vdW  Elec       q    Type
                         _______ _______ _______ _____ _____    ______ ____

>  <TORSDO>
F 23

$$$$
=
 OpenBabel11052414553D

 55 60  0  0  1  0  0  0  0  0999 V2000
  191.1410  177.1460  140.3810 C   0  0  0  0  0  2  0  0  0  0  0  0
  189.1240  177.1120  138.2500 C   0  0  2  0  0  3  0  0  0  0  0  0
  188.8990  177.8750  139.5560 C   0  0  0  0  0  2  0  0  0  0  0  0
  191.3840  176.3980  139.0710 C   0  0  0  0  0  2  0  0  0  0  0  0
  189.6490  177.1820  140.6870 C   0  0  2  0  0  3  0  0  0  0  0  0
  190.6160  177.0600  137.9280 C   0  0  0  0  0  2  0  0  0  0  0  0
  190.4550  178.8860  142.8440 O   0  0  0  0  0  0  0  0  0  0  0  0
  189.3480  178.0490  142.2480 P   0  0  1  0  0  4  0  0  0  0  0  0
  187.7090  178.0690  143.0350 C   0  0  1  0  0  3  0  0  0  0  0  0
  186.6830  177.7610  142.0450 N   0  0  0  0  0  2  0  0  0  0  0  0
  184.8640  179.0780  142.7700 O   0  0  0  0  0  1  0  0  0  0  0  0
  185.8490  178.9400  141.7890 C   0  0  2  0  0  3  0  0  0  0  0  0
  185.2170  178.9030  140.4010 C   0  0  0  0  0  2  0  0  0  0  0  0
  183.7560  179.3500  140.4390 C   0  0  0  0  0  2  0  0  0  0  0  0
  182.8880  178.7210  139.3430 C   0  0  2  0  0  3  0  0  0  0  0  0
  183.6260  178.5750  138.0220 C   0  0  0  0  0  1  0  0  0  0  0  0
  181.5820  179.4290  139.1690 C   0  0  0  0  0  0  0  0  0  0  0  0
  180.9170  179.7640  140.1840 O   0  0  0  0  0  1  0  0  0  0  0  0
  181.1080  179.7450  137.9000 O   0  0  0  0  0  0  0  0  0  0  0  0
  187.6250  177.0720  144.1860 C   0  0  0  0  0  2  0  0  0  0  0  0
  187.0300  178.6160  147.6360 C   0  0  0  0  0  3  0  0  0  0  0  0
  185.6380  178.7230  147.6290 C   0  0  0  0  0  3  0  0  0  0  0  0
  186.9710  177.6500  145.4080 C   0  0  0  0  0  0  0  0  0  0  0  0
  185.5760  177.7690  145.4080 C   0  0  0  0  0  3  0  0  0  0  0  0
  184.9120  178.3040  146.5140 C   0  0  0  0  0  3  0  0  0  0  0  0
  187.7060  178.0890  146.5300 C   0  0  0  0  0  0  0  0  0  0  0  0
  189.1940  177.9690  146.6000 C   0  0  0  0  0  2  0  0  0  0  0  0
  189.5460  176.8630  147.3790 O   0  0  0  0  0  0  0  0  0  0  0  0
  190.9260  176.9670  147.5560 C   0  0  0  0  0  2  0  0  0  0  0  0
  191.6450  176.5240  146.2910 C   0  0  0  0  0  2  0  0  0  0  0  0
  191.8440  175.0160  146.2680 C   0  0  0  0  0  2  0  0  0  0  0  0
  191.8620  175.3870  143.8200 C   0  0  0  0  0  1  0  0  0  0  0  0
  192.4630  174.5830  144.9520 C   0  0  0  0  0  2  0  0  0  0  0  0
  188.3790  177.7680  137.0990 C   0  0  0  0  0  2  0  0  0  0  0  0
  188.2550  176.8070  135.9290 C   0  0  0  0  0  2  0  0  0  0  0  0
  187.1410  177.2390  134.9940 C   0  0  0  0  0  2  0  0  0  0  0  0
  186.2710  176.0520  134.6120 C   0  0  0  0  0  2  0  0  0  0  0  0
  184.8640  176.4070  134.7340 N   0  0  0  0  0  2  0  0  0  0  0  0
  182.2990  173.0340  134.6750 N   0  0  2  0  0  0  0  0  0  0  0  0
  183.0450  175.0810  138.3150 O   0  0  0  0  0  1  0  0  0  0  0  0
  183.1220  174.2980  137.1560 C   0  0  2  0  0  0  0  0  0  0  0  0
  184.3950  175.9370  136.0320 C   0  0  1  0  0  3  0  0  0  0  0  0
  184.2030  171.4180  136.3790 O   0  0  0  0  0  1  0  0  0  0  0  0
  184.5330  173.7090  137.0280 C   0  0  1  0  0  3  0  0  0  0  0  0
  183.0660  175.1770  135.9390 C   0  0  1  0  0  3  0  0  0  0  0  0
  180.3790  172.0120  135.7950 C   0  0  0  0  0  1  0  0  0  0  0  0
  183.7950  173.0550  134.5950 C   0  0  2  0  0  3  0  0  0  0  0  0
  185.9320  175.4980  137.7950 F   0  0  0  0  0  0  0  0  0  0  0  0
  184.6220  172.6580  135.8810 C   0  0  2  0  0  0  0  0  0  0  0  0
  183.0250  174.3310  134.6320 C   0  0  1  0  0  3  0  0  0  0  0  0
  181.9380  173.3530  137.1810 C   0  0  0  0  0  2  0  0  0  0  0  0
  185.3750  174.9450  136.6550 C   0  0  2  0  0  3  0  0  0  0  0  0
  181.8120  172.4760  135.9500 C   0  0  2  0  0  3  0  0  0  0  0  0
  186.0920  172.4830  135.4630 C   0  0  0  0  0  2  0  0  0  0  0  0
  186.3500  171.1620  134.7500 C   0  0  0  0  0  1  0  0  0  0  0  0
  1  5  1  0  0  0  0
  2 34  1  6  0  0  0
  2  3  1  0  0  0  0
  3  5  1  0  0  0  0
  4  1  1  0  0  0  0
  5  8  1  1  0  0  0
  6  2  1  0  0  0  0
  6  4  1  0  0  0  0
  8  7  2  6  0  0  0
  8  9  1  0  0  0  0
  9 20  1  1  0  0  0
 10  9  1  0  0  0  0
 12 10  1  0  0  0  0
 12 11  1  1  0  0  0
 13 14  1  0  0  0  0
 13 12  1  0  0  0  0
 15 16  1  6  0  0  0
 15 14  1  0  0  0  0
 17 15  1  0  0  0  0
 17 18  1  0  0  0  0
 19 17  2  0  0  0  0
 20 23  1  0  0  0  0
 22 21  1  0  0  0  0
 23 24  2  0  0  0  0
 23 26  1  0  0  0  0
 24 25  1  0  0  0  0
 25 22  2  0  0  0  0
 26 27  1  0  0  0  0
 26 21  2  0  0  0  0
 27 28  1  0  0  0  0
 28 29  1  0  0  0  0
 30 29  1  0  0  0  0
 31 30  1  0  0  0  0
 32 33  1  0  0  0  0
 33 31  1  0  0  0  0
 35 34  1  0  0  0  0
 36 35  1  0  0  0  0
 37 38  1  0  0  0  0
 37 36  1  0  0  0  0
 38 42  1  0  0  0  0
 39 53  1  0  0  0  0
 41 51  1  0  0  0  0
 41 40  1  0  0  0  0
 42 52  1  0  0  0  0
 44 41  1  0  0  0  0
 45 42  1  0  0  0  0
 45 41  1  0  0  0  0
 46 53  1  0  0  0  0
 47 50  1  0  0  0  0
 47 39  1  0  0  0  0
 47 49  1  0  0  0  0
 49 43  1  0  0  0  0
 49 44  1  0  0  0  0
 50 39  1  0  0  0  0
 50 45  1  0  0  0  0
 52 44  1  0  0  0  0
 52 48  1  0  0  0  0
 53 51  1  0  0  0  0
 54 49  1  0  0  0  0
 55 54  1  0  0  0  0
M  END
>  <MODEL>
9

>  <REMARK>
 VINA RESULT:      -5.7      2.514      7.554
  Name = 
  23 active torsions:
  status: ('A' for Active; 'I' for Inactive)
    1  A    between atoms: C_4  and  C_37
    2  A    between atoms: C_4  and  C_40
    3  A    between atoms: C_5  and  O_19
    4  A    between atoms: C_5  and  C_40
    5  A    between atoms: C_7  and  N_22
    6  A    between atoms: C_8  and  N_22
    7  A    between atoms: C_8  and  C_43
    8  A    between atoms: C_10  and  C_32
    9  A    between atoms: C_11  and  C_38
   10  A    between atoms: C_13  and  C_48
   11  A    between atoms: C_13  and  C_52
   12  A    between atoms: C_16  and  C_36
   13  A    between atoms: O_19  and  C_45
   14  A    between atoms: C_26  and  C_45
   15  A    between atoms: C_27  and  C_54
   16  A    between atoms: P_28  and  C_44
   17  A    between atoms: P_28  and  C_49
   18  A    between atoms: C_32  and  C_48
   19  A    between atoms: N_33  and  C_49
   20  A    between atoms: N_33  and  C_52
   21  A    between atoms: C_36  and  C_49
   22  A    between atoms: C_43  and  C_51
   23  A    between atoms: C_51  and  C_54
                            x       y       z     vdW  Elec       q    Type
                         _______ _______ _______ _____ _____    ______ ____

>  <TORSDO>
F 23

$$$$
