=
 OpenBabel11052416433D

 43 47  0  0  1  0  0  0  0  0999 V2000
  183.9550  178.9140  140.2520 N   0  0  0  0  0  0  0  0  0  0  0  0
  184.8230  178.9610  141.4000 C   0  0  0  0  0  0  0  0  0  0  0  0
  185.8730  179.6600  141.3660 O   0  0  0  0  0  0  0  0  0  0  0  0
  180.0220  175.3710  139.4980 C   0  0  0  0  0  0  0  0  0  0  0  0
  180.5040  177.6700  139.9820 C   0  0  0  0  0  0  0  0  0  0  0  0
  181.4870  175.1160  139.5410 C   0  0  0  0  0  3  0  0  0  0  0  0
  179.0860  174.2370  139.2890 C   0  0  0  0  0  1  0  0  0  0  0  0
  181.8910  177.5540  139.4510 C   0  0  2  0  0  3  0  0  0  0  0  0
  179.5370  176.5890  139.7690 C   0  0  0  0  0  3  0  0  0  0  0  0
  182.3670  176.1310  139.5830 C   0  0  0  0  0  3  0  0  0  0  0  0
  182.5730  178.5260  140.3500 C   0  0  0  0  0  0  0  0  0  0  0  0
  181.6680  179.1340  141.1120 C   0  0  0  0  0  3  0  0  0  0  0  0
  180.3800  178.5600  140.9080 N   0  0  0  0  0  0  0  0  0  0  0  0
  184.5660  178.1070  142.6020 C   0  0  0  0  0  2  0  0  0  0  0  0
  187.3460  177.9450  145.2370 C   0  0  0  0  0  0  0  0  0  0  0  0
  186.6640  178.6340  146.4020 C   0  0  2  0  0  3  0  0  0  0  0  0
  186.9430  177.9040  147.7040 C   0  0  0  0  0  1  0  0  0  0  0  0
  184.5980  178.7030  145.0020 C   0  0  0  0  0  3  0  0  0  0  0  0
  186.5580  177.5380  144.0250 C   0  0  0  0  0  2  0  0  0  0  0  0
  185.4380  178.5480  143.7670 C   0  0  1  0  0  3  0  0  0  0  0  0
  188.6740  177.8470  145.1980 C   0  0  0  0  0  2  0  0  0  0  0  0
  185.1700  178.7420  146.2140 C   0  0  0  0  0  3  0  0  0  0  0  0
  184.5110  179.1990  138.9340 C   0  0  0  0  0  2  0  0  0  0  0  0
  185.4040  178.0390  138.4800 C   0  0  0  0  0  2  0  0  0  0  0  0
  185.4970  177.9080  137.0220 N   0  0  0  0  0  0  0  0  0  0  0  0
  184.5860  176.8700  136.5610 C   0  0  0  0  0  1  0  0  0  0  0  0
  186.8530  177.5170  136.6560 C   0  0  0  0  0  2  0  0  0  0  0  0
  189.1540  178.3950  137.2930 N   0  0  0  0  0  2  0  0  0  0  0  0
  187.8140  178.6470  136.8680 C   0  0  0  0  0  0  0  0  0  0  0  0
  187.4320  179.8360  136.7120 O   0  0  0  0  0  0  0  0  0  0  0  0
  189.6180  177.0710  137.6860 C   0  0  1  0  0  3  0  0  0  0  0  0
  191.5440  176.5330  139.1550 C   0  0  0  0  0  3  0  0  0  0  0  0
  190.5230  176.5000  136.5850 C   0  0  0  0  0  2  0  0  0  0  0  0
  191.2320  175.3880  137.0740 O   0  0  0  0  0  0  0  0  0  0  0  0
  190.3560  177.1400  139.0110 C   0  0  0  0  0  0  0  0  0  0  0  0
  192.2030  175.9010  137.9560 C   0  0  0  0  0  2  0  0  0  0  0  0
  189.7000  177.7550  140.2080 C   0  0  0  0  0  2  0  0  0  0  0  0
  190.2920  177.2440  141.4780 C   0  0  0  0  0  0  0  0  0  0  0  0
  191.4460  176.2690  143.8050 C   0  0  0  0  0  3  0  0  0  0  0  0
  191.8900  177.4580  143.2240 C   0  0  0  0  0  3  0  0  0  0  0  0
  190.4030  175.5640  143.2000 C   0  0  0  0  0  3  0  0  0  0  0  0
  191.3090  177.9170  142.0820 N   0  0  0  0  0  0  0  0  0  0  0  0
  189.8210  176.0510  142.0290 C   0  0  0  0  0  3  0  0  0  0  0  0
  1 11  1  0  0  0  0
  1  2  1  0  0  0  0
  2 14  1  0  0  0  0
  3  2  2  0  0  0  0
  4  6  1  0  0  0  0
  4  9  2  0  0  0  0
  5 13  2  0  0  0  0
  6 10  2  0  0  0  0
  7  4  1  0  0  0  0
  8 10  1  1  0  0  0
  8  5  1  0  0  0  0
  8 11  1  0  0  0  0
  9  5  1  0  0  0  0
 11 12  2  0  0  0  0
 13 12  1  0  0  0  0
 15 16  1  0  0  0  0
 16 17  1  1  0  0  0
 18 22  2  0  0  0  0
 19 15  1  0  0  0  0
 20 14  1  6  0  0  0
 20 19  1  0  0  0  0
 20 18  1  0  0  0  0
 21 15  2  0  0  0  0
 22 16  1  0  0  0  0
 23  1  1  0  0  0  0
 24 23  1  0  0  0  0
 25 24  1  0  0  0  0
 26 25  1  0  0  0  0
 27 29  1  0  0  0  0
 27 25  1  0  0  0  0
 29 28  1  0  0  0  0
 30 29  2  0  0  0  0
 31 28  1  6  0  0  0
 31 35  1  0  0  0  0
 33 34  1  0  0  0  0
 33 31  1  0  0  0  0
 34 36  1  0  0  0  0
 35 32  2  0  0  0  0
 35 37  1  0  0  0  0
 36 32  1  0  0  0  0
 37 38  1  0  0  0  0
 38 43  2  0  0  0  0
 38 42  1  0  0  0  0
 40 39  1  0  0  0  0
 41 39  2  0  0  0  0
 42 40  2  0  0  0  0
 43 41  1  0  0  0  0
M  END
>  <MODEL>
1

>  <REMARK>
 VINA RESULT:      -8.8      0.000      0.000
  Name = 
  11 active torsions:
  status: ('A' for Active; 'I' for Inactive)
    1  A    between atoms: C_1  and  C_34
    2  A    between atoms: C_1  and  C_35
    3  A    between atoms: N_2  and  C_6
    4  A    between atoms: N_2  and  C_13
    5  A    between atoms: N_3  and  C_4
    6  A    between atoms: C_6  and  C_12
    7  A    between atoms: N_8  and  C_27
    8  A    between atoms: N_8  and  C_30
    9  A    between atoms: C_11  and  C_14
   10  A    between atoms: C_13  and  C_27
   11  A    between atoms: C_14  and  C_41
                            x       y       z     vdW  Elec       q    Type
                         _______ _______ _______ _____ _____    ______ ____

>  <TORSDO>
F 11

$$$$
=
 OpenBabel11052416433D

 43 47  0  0  1  0  0  0  0  0999 V2000
  184.8230  178.6420  142.2040 N   0  0  0  0  0  0  0  0  0  0  0  0
  185.7280  179.1550  141.2100 C   0  0  0  0  0  0  0  0  0  0  0  0
  185.3380  179.3060  140.0200 O   0  0  0  0  0  0  0  0  0  0  0  0
  187.3860  177.5670  146.7710 C   0  0  0  0  0  0  0  0  0  0  0  0
  185.4370  178.6000  145.8300 C   0  0  0  0  0  0  0  0  0  0  0  0
  187.8400  177.2940  145.3820 C   0  0  0  0  0  3  0  0  0  0  0  0
  188.2600  177.2000  147.9150 C   0  0  0  0  0  1  0  0  0  0  0  0
  185.5730  177.8370  144.5580 C   0  0  2  0  0  3  0  0  0  0  0  0
  186.2560  178.2500  146.9950 C   0  0  0  0  0  3  0  0  0  0  0  0
  187.0180  177.4770  144.3350 C   0  0  0  0  0  3  0  0  0  0  0  0
  185.0280  178.8510  143.6130 C   0  0  0  0  0  0  0  0  0  0  0  0
  184.5670  179.8930  144.2990 C   0  0  0  0  0  3  0  0  0  0  0  0
  184.8670  179.7490  145.6840 N   0  0  0  0  0  0  0  0  0  0  0  0
  187.1680  179.4140  141.5330 C   0  0  0  0  0  2  0  0  0  0  0  0
  190.1080  176.9540  141.4600 C   0  0  0  0  0  0  0  0  0  0  0  0
  190.3040  176.8010  139.9640 C   0  0  2  0  0  3  0  0  0  0  0  0
  191.7790  176.8170  139.6040 C   0  0  0  0  0  1  0  0  0  0  0  0
  188.5530  178.5560  139.6720 C   0  0  0  0  0  3  0  0  0  0  0  0
  189.2120  178.0290  142.0050 C   0  0  0  0  0  2  0  0  0  0  0  0
  188.0380  178.2630  141.0520 C   0  0  1  0  0  3  0  0  0  0  0  0
  190.5880  176.0370  142.2970 C   0  0  0  0  0  2  0  0  0  0  0  0
  189.5970  177.8780  139.1760 C   0  0  0  0  0  3  0  0  0  0  0  0
  183.6960  177.8210  141.7750 C   0  0  0  0  0  2  0  0  0  0  0  0
  182.4040  178.6450  141.8060 C   0  0  0  0  0  2  0  0  0  0  0  0
  181.5640  178.4630  140.6170 N   0  0  0  0  0  0  0  0  0  0  0  0
  180.3920  177.6700  140.9580 C   0  0  0  0  0  1  0  0  0  0  0  0
  182.3190  177.7430  139.5980 C   0  0  0  0  0  2  0  0  0  0  0  0
  182.7680  177.9080  137.0990 N   0  0  0  0  0  2  0  0  0  0  0  0
  182.4000  178.5350  138.3290 C   0  0  0  0  0  0  0  0  0  0  0  0
  182.1830  179.7750  138.3460 O   0  0  0  0  0  0  0  0  0  0  0  0
  183.2260  176.5270  137.0280 C   0  0  1  0  0  3  0  0  0  0  0  0
  184.9340  175.5920  135.4900 C   0  0  0  0  0  3  0  0  0  0  0  0
  182.2540  175.7120  136.1620 C   0  0  0  0  0  2  0  0  0  0  0  0
  182.8370  174.4800  135.8160 O   0  0  0  0  0  0  0  0  0  0  0  0
  184.6330  176.4640  136.4660 C   0  0  0  0  0  0  0  0  0  0  0  0
  183.8340  174.7740  134.8640 C   0  0  0  0  0  2  0  0  0  0  0  0
  185.7320  177.2650  137.0930 C   0  0  0  0  0  2  0  0  0  0  0  0
  187.0750  176.7240  136.7340 C   0  0  0  0  0  0  0  0  0  0  0  0
  189.5980  175.7420  136.1270 C   0  0  0  0  0  3  0  0  0  0  0  0
  188.7410  175.0470  136.9820 C   0  0  0  0  0  3  0  0  0  0  0  0
  189.1720  176.9500  135.5700 C   0  0  0  0  0  3  0  0  0  0  0  0
  187.5080  175.5490  137.2660 N   0  0  0  0  0  0  0  0  0  0  0  0
  187.9040  177.4470  135.8740 C   0  0  0  0  0  3  0  0  0  0  0  0
  1 11  1  0  0  0  0
  2 14  1  0  0  0  0
  2  1  1  0  0  0  0
  3  2  2  0  0  0  0
  4  9  2  0  0  0  0
  4  7  1  0  0  0  0
  5  9  1  0  0  0  0
  6  4  1  0  0  0  0
  8 10  1  6  0  0  0
  8  5  1  0  0  0  0
 10  6  2  0  0  0  0
 11 12  2  0  0  0  0
 11  8  1  0  0  0  0
 12 13  1  0  0  0  0
 13  5  2  0  0  0  0
 15 19  1  0  0  0  0
 15 21  2  0  0  0  0
 16 17  1  1  0  0  0
 16 15  1  0  0  0  0
 18 20  1  0  0  0  0
 20 14  1  1  0  0  0
 20 19  1  0  0  0  0
 22 18  2  0  0  0  0
 22 16  1  0  0  0  0
 23 24  1  0  0  0  0
 23  1  1  0  0  0  0
 25 26  1  0  0  0  0
 25 24  1  0  0  0  0
 27 25  1  0  0  0  0
 28 29  1  0  0  0  0
 29 30  2  0  0  0  0
 29 27  1  0  0  0  0
 31 28  1  6  0  0  0
 32 35  2  0  0  0  0
 33 31  1  0  0  0  0
 34 33  1  0  0  0  0
 35 31  1  0  0  0  0
 35 37  1  0  0  0  0
 36 32  1  0  0  0  0
 36 34  1  0  0  0  0
 38 37  1  0  0  0  0
 38 42  1  0  0  0  0
 39 40  1  0  0  0  0
 40 42  2  0  0  0  0
 41 43  1  0  0  0  0
 41 39  2  0  0  0  0
 43 38  2  0  0  0  0
M  END
>  <MODEL>
2

>  <REMARK>
 VINA RESULT:      -8.3      2.283      6.723
  Name = 
  11 active torsions:
  status: ('A' for Active; 'I' for Inactive)
    1  A    between atoms: C_1  and  C_34
    2  A    between atoms: C_1  and  C_35
    3  A    between atoms: N_2  and  C_6
    4  A    between atoms: N_2  and  C_13
    5  A    between atoms: N_3  and  C_4
    6  A    between atoms: C_6  and  C_12
    7  A    between atoms: N_8  and  C_27
    8  A    between atoms: N_8  and  C_30
    9  A    between atoms: C_11  and  C_14
   10  A    between atoms: C_13  and  C_27
   11  A    between atoms: C_14  and  C_41
                            x       y       z     vdW  Elec       q    Type
                         _______ _______ _______ _____ _____    ______ ____

>  <TORSDO>
F 11

$$$$
=
 OpenBabel11052416433D

 43 47  0  0  1  0  0  0  0  0999 V2000
  184.0650  178.9860  140.8720 N   0  0  0  0  0  0  0  0  0  0  0  0
  185.0110  178.9940  141.9570 C   0  0  0  0  0  0  0  0  0  0  0  0
  186.0370  179.7240  141.8930 O   0  0  0  0  0  0  0  0  0  0  0  0
  180.0500  175.6300  139.7720 C   0  0  0  0  0  0  0  0  0  0  0  0
  180.6010  177.7570  140.7340 C   0  0  0  0  0  0  0  0  0  0  0  0
  181.5070  175.4100  139.5720 C   0  0  0  0  0  3  0  0  0  0  0  0
  179.0890  174.5570  139.4110 C   0  0  0  0  0  1  0  0  0  0  0  0
  181.9100  177.8070  140.0250 C   0  0  2  0  0  3  0  0  0  0  0  0
  179.6090  176.7350  140.3870 C   0  0  0  0  0  3  0  0  0  0  0  0
  182.3910  176.4060  139.7490 C   0  0  0  0  0  3  0  0  0  0  0  0
  182.7040  178.5510  141.0410 C   0  0  0  0  0  0  0  0  0  0  0  0
  181.9050  178.9350  142.0330 C   0  0  0  0  0  3  0  0  0  0  0  0
  180.5990  178.3950  141.8560 N   0  0  0  0  0  0  0  0  0  0  0  0
  184.8620  178.0640  143.1220 C   0  0  0  0  0  2  0  0  0  0  0  0
  187.9270  177.4390  145.3380 C   0  0  0  0  0  0  0  0  0  0  0  0
  187.5020  178.1540  146.6060 C   0  0  2  0  0  3  0  0  0  0  0  0
  187.8570  177.3370  147.8360 C   0  0  0  0  0  1  0  0  0  0  0  0
  185.2930  178.5420  145.5090 C   0  0  0  0  0  3  0  0  0  0  0  0
  186.9370  177.1880  144.2370 C   0  0  0  0  0  2  0  0  0  0  0  0
  185.9320  178.3400  144.1660 C   0  0  1  0  0  3  0  0  0  0  0  0
  189.2130  177.1790  145.1130 C   0  0  0  0  0  2  0  0  0  0  0  0
  186.0230  178.4560  146.6300 C   0  0  0  0  0  3  0  0  0  0  0  0
  184.5180  179.3630  139.5370 C   0  0  0  0  0  2  0  0  0  0  0  0
  185.4950  178.3110  138.9980 C   0  0  0  0  0  2  0  0  0  0  0  0
  185.7210  178.4080  137.5520 N   0  0  0  0  0  0  0  0  0  0  0  0
  184.9610  177.3740  136.8640 C   0  0  0  0  0  1  0  0  0  0  0  0
  187.1350  178.1980  137.2690 C   0  0  0  0  0  2  0  0  0  0  0  0
  188.4280  176.4370  138.5720 N   0  0  0  0  0  2  0  0  0  0  0  0
  187.5270  176.7740  137.5160 C   0  0  0  0  0  0  0  0  0  0  0  0
  187.0950  175.8620  136.7640 O   0  0  0  0  0  0  0  0  0  0  0  0
  189.1270  177.4440  139.3600 C   0  0  1  0  0  3  0  0  0  0  0  0
  191.3850  177.2560  140.3690 C   0  0  0  0  0  3  0  0  0  0  0  0
  188.6590  177.3640  140.8200 C   0  0  0  0  0  2  0  0  0  0  0  0
  189.5380  178.0890  141.6460 O   0  0  0  0  0  0  0  0  0  0  0  0
  190.6280  177.2470  139.2610 C   0  0  0  0  0  0  0  0  0  0  0  0
  190.7210  177.3280  141.7200 C   0  0  0  0  0  2  0  0  0  0  0  0
  191.2940  177.1880  137.9220 C   0  0  0  0  0  2  0  0  0  0  0  0
  192.2120  176.0170  137.8180 C   0  0  0  0  0  0  0  0  0  0  0  0
  193.9400  173.8610  137.5650 C   0  0  0  0  0  3  0  0  0  0  0  0
  194.4030  175.1100  137.9800 C   0  0  0  0  0  3  0  0  0  0  0  0
  192.5830  173.6990  137.2760 C   0  0  0  0  0  3  0  0  0  0  0  0
  193.5370  176.1540  138.0970 N   0  0  0  0  0  0  0  0  0  0  0  0
  191.7110  174.7820  137.4010 C   0  0  0  0  0  3  0  0  0  0  0  0
  1 11  1  0  0  0  0
  1  2  1  0  0  0  0
  2 14  1  0  0  0  0
  3  2  2  0  0  0  0
  4  9  2  0  0  0  0
  5 13  2  0  0  0  0
  6 10  2  0  0  0  0
  6  4  1  0  0  0  0
  7  4  1  0  0  0  0
  8 10  1  1  0  0  0
  8  5  1  0  0  0  0
  8 11  1  0  0  0  0
  9  5  1  0  0  0  0
 11 12  2  0  0  0  0
 13 12  1  0  0  0  0
 15 16  1  0  0  0  0
 16 22  1  0  0  0  0
 16 17  1  1  0  0  0
 18 22  2  0  0  0  0
 19 15  1  0  0  0  0
 20 14  1  6  0  0  0
 20 19  1  0  0  0  0
 20 18  1  0  0  0  0
 21 15  2  0  0  0  0
 23  1  1  0  0  0  0
 24 23  1  0  0  0  0
 25 24  1  0  0  0  0
 26 25  1  0  0  0  0
 27 29  1  0  0  0  0
 27 25  1  0  0  0  0
 29 28  1  0  0  0  0
 30 29  2  0  0  0  0
 31 28  1  6  0  0  0
 31 33  1  0  0  0  0
 32 36  1  0  0  0  0
 33 34  1  0  0  0  0
 34 36  1  0  0  0  0
 35 31  1  0  0  0  0
 35 32  2  0  0  0  0
 37 35  1  0  0  0  0
 38 37  1  0  0  0  0
 38 42  1  0  0  0  0
 39 40  1  0  0  0  0
 40 42  2  0  0  0  0
 41 43  1  0  0  0  0
 41 39  2  0  0  0  0
 43 38  2  0  0  0  0
M  END
>  <MODEL>
3

>  <REMARK>
 VINA RESULT:      -8.2      1.559      2.762
  Name = 
  11 active torsions:
  status: ('A' for Active; 'I' for Inactive)
    1  A    between atoms: C_1  and  C_34
    2  A    between atoms: C_1  and  C_35
    3  A    between atoms: N_2  and  C_6
    4  A    between atoms: N_2  and  C_13
    5  A    between atoms: N_3  and  C_4
    6  A    between atoms: C_6  and  C_12
    7  A    between atoms: N_8  and  C_27
    8  A    between atoms: N_8  and  C_30
    9  A    between atoms: C_11  and  C_14
   10  A    between atoms: C_13  and  C_27
   11  A    between atoms: C_14  and  C_41
                            x       y       z     vdW  Elec       q    Type
                         _______ _______ _______ _____ _____    ______ ____

>  <TORSDO>
F 11

$$$$
=
 OpenBabel11052416433D

 43 47  0  0  1  0  0  0  0  0999 V2000
  189.3030  177.4930  138.1040 N   0  0  0  0  0  0  0  0  0  0  0  0
  189.0140  177.7130  139.4970 C   0  0  0  0  0  0  0  0  0  0  0  0
  188.1660  178.5830  139.8350 O   0  0  0  0  0  0  0  0  0  0  0  0
  193.5720  174.4520  137.0510 C   0  0  0  0  0  0  0  0  0  0  0  0
  191.2220  174.7130  136.6500 C   0  0  0  0  0  0  0  0  0  0  0  0
  193.4880  175.6270  137.9580 C   0  0  0  0  0  3  0  0  0  0  0  0
  194.8610  173.7270  136.9050 C   0  0  0  0  0  1  0  0  0  0  0  0
  191.2550  176.1510  137.0360 C   0  0  2  0  0  3  0  0  0  0  0  0
  192.4710  173.9680  136.4630 C   0  0  0  0  0  3  0  0  0  0  0  0
  192.3840  176.3910  138.0030 C   0  0  0  0  0  3  0  0  0  0  0  0
  189.8920  176.2710  137.6240 C   0  0  0  0  0  0  0  0  0  0  0  0
  189.2300  175.1310  137.4440 C   0  0  0  0  0  3  0  0  0  0  0  0
  190.0850  174.1450  136.8740 N   0  0  0  0  0  0  0  0  0  0  0  0
  189.7820  177.0030  140.5690 C   0  0  0  0  0  2  0  0  0  0  0  0
  190.5510  178.4730  144.0250 C   0  0  0  0  0  0  0  0  0  0  0  0
  189.3400  177.9970  144.8050 C   0  0  2  0  0  3  0  0  0  0  0  0
  189.7420  177.4940  146.1800 C   0  0  0  0  0  1  0  0  0  0  0  0
  188.6650  176.7350  142.7590 C   0  0  0  0  0  3  0  0  0  0  0  0
  190.8350  177.9320  142.6540 C   0  0  0  0  0  2  0  0  0  0  0  0
  189.5220  177.6420  141.9240 C   0  0  1  0  0  3  0  0  0  0  0  0
  191.2770  179.4960  144.4730 C   0  0  0  0  0  2  0  0  0  0  0  0
  188.5860  176.9040  144.0860 C   0  0  0  0  0  3  0  0  0  0  0  0
  189.0580  178.5730  137.1540 C   0  0  0  0  0  2  0  0  0  0  0  0
  187.5870  178.5690  136.7240 C   0  0  0  0  0  2  0  0  0  0  0  0
  187.2050  177.3820  135.9510 N   0  0  0  0  0  0  0  0  0  0  0  0
  187.7210  177.4900  134.5940 C   0  0  0  0  0  1  0  0  0  0  0  0
  185.7510  177.2990  135.8790 C   0  0  0  0  0  2  0  0  0  0  0  0
  184.0960  176.8660  137.7610 N   0  0  0  0  0  2  0  0  0  0  0  0
  185.2070  176.4350  136.9740 C   0  0  0  0  0  0  0  0  0  0  0  0
  185.7550  175.3320  137.2370 O   0  0  0  0  0  0  0  0  0  0  0  0
  183.5310  178.2060  137.6560 C   0  0  1  0  0  3  0  0  0  0  0  0
  182.4060  179.5030  139.4460 C   0  0  0  0  0  3  0  0  0  0  0  0
  182.1140  178.1170  137.0710 C   0  0  0  0  0  2  0  0  0  0  0  0
  181.4390  179.3370  137.2600 O   0  0  0  0  0  0  0  0  0  0  0  0
  183.5150  178.8820  139.0140 C   0  0  0  0  0  0  0  0  0  0  0  0
  181.1390  179.4060  138.6350 C   0  0  0  0  0  2  0  0  0  0  0  0
  184.7730  178.9910  139.8170 C   0  0  0  0  0  2  0  0  0  0  0  0
  184.5050  178.8420  141.2770 C   0  0  0  0  0  0  0  0  0  0  0  0
  183.9890  178.6320  143.9950 C   0  0  0  0  0  3  0  0  0  0  0  0
  182.9500  178.6450  143.0640 C   0  0  0  0  0  3  0  0  0  0  0  0
  185.3080  178.7250  143.5440 C   0  0  0  0  0  3  0  0  0  0  0  0
  183.2260  178.7490  141.7350 N   0  0  0  0  0  0  0  0  0  0  0  0
  185.5710  178.8320  142.1780 C   0  0  0  0  0  3  0  0  0  0  0  0
  1  2  1  0  0  0  0
  2  3  2  0  0  0  0
  2 14  1  0  0  0  0
  4  6  1  0  0  0  0
  5 13  2  0  0  0  0
  5  8  1  0  0  0  0
  6 10  2  0  0  0  0
  7  4  1  0  0  0  0
  8 11  1  0  0  0  0
  8 10  1  1  0  0  0
  9  5  1  0  0  0  0
  9  4  2  0  0  0  0
 11  1  1  0  0  0  0
 12 11  2  0  0  0  0
 13 12  1  0  0  0  0
 15 21  2  0  0  0  0
 15 16  1  0  0  0  0
 16 17  1  1  0  0  0
 18 22  2  0  0  0  0
 19 15  1  0  0  0  0
 20 14  1  6  0  0  0
 20 19  1  0  0  0  0
 20 18  1  0  0  0  0
 22 16  1  0  0  0  0
 23  1  1  0  0  0  0
 24 23  1  0  0  0  0
 25 24  1  0  0  0  0
 26 25  1  0  0  0  0
 27 25  1  0  0  0  0
 27 29  1  0  0  0  0
 29 30  2  0  0  0  0
 29 28  1  0  0  0  0
 31 28  1  1  0  0  0
 31 35  1  0  0  0  0
 33 34  1  0  0  0  0
 33 31  1  0  0  0  0
 34 36  1  0  0  0  0
 35 32  2  0  0  0  0
 35 37  1  0  0  0  0
 36 32  1  0  0  0  0
 37 38  1  0  0  0  0
 38 42  2  0  0  0  0
 38 43  1  0  0  0  0
 40 39  2  0  0  0  0
 41 39  1  0  0  0  0
 42 40  1  0  0  0  0
 43 41  2  0  0  0  0
M  END
>  <MODEL>
4

>  <REMARK>
 VINA RESULT:      -7.9      2.400      7.732
  Name = 
  11 active torsions:
  status: ('A' for Active; 'I' for Inactive)
    1  A    between atoms: C_1  and  C_34
    2  A    between atoms: C_1  and  C_35
    3  A    between atoms: N_2  and  C_6
    4  A    between atoms: N_2  and  C_13
    5  A    between atoms: N_3  and  C_4
    6  A    between atoms: C_6  and  C_12
    7  A    between atoms: N_8  and  C_27
    8  A    between atoms: N_8  and  C_30
    9  A    between atoms: C_11  and  C_14
   10  A    between atoms: C_13  and  C_27
   11  A    between atoms: C_14  and  C_41
                            x       y       z     vdW  Elec       q    Type
                         _______ _______ _______ _____ _____    ______ ____

>  <TORSDO>
F 11

$$$$
=
 OpenBabel11052416433D

 43 47  0  0  1  0  0  0  0  0999 V2000
  184.7990  178.4090  140.4130 N   0  0  0  0  0  0  0  0  0  0  0  0
  185.4050  178.7930  141.6600 C   0  0  0  0  0  0  0  0  0  0  0  0
  186.5780  179.2570  141.6740 O   0  0  0  0  0  0  0  0  0  0  0  0
  180.1270  180.3130  138.6420 C   0  0  0  0  0  0  0  0  0  0  0  0
  181.1460  178.7030  140.0980 C   0  0  0  0  0  0  0  0  0  0  0  0
  181.4960  180.6910  138.1990 C   0  0  0  0  0  3  0  0  0  0  0  0
  178.9470  180.9560  138.0080 C   0  0  0  0  0  1  0  0  0  0  0  0
  182.4360  179.4480  140.1190 C   0  0  2  0  0  3  0  0  0  0  0  0
  179.9480  179.3130  139.5140 C   0  0  0  0  0  3  0  0  0  0  0  0
  182.5840  180.2410  138.8470 C   0  0  0  0  0  3  0  0  0  0  0  0
  183.3730  178.2990  140.2510 C   0  0  0  0  0  0  0  0  0  0  0  0
  182.6770  177.1770  140.4100 C   0  0  0  0  0  3  0  0  0  0  0  0
  181.2830  177.4310  140.2680 N   0  0  0  0  0  0  0  0  0  0  0  0
  184.7110  178.5520  142.9650 C   0  0  0  0  0  2  0  0  0  0  0  0
  187.4470  177.6710  145.5030 C   0  0  0  0  0  0  0  0  0  0  0  0
  186.9430  178.4160  146.7240 C   0  0  2  0  0  3  0  0  0  0  0  0
  187.0890  177.5700  147.9760 C   0  0  0  0  0  1  0  0  0  0  0  0
  184.9100  178.9880  145.3920 C   0  0  0  0  0  3  0  0  0  0  0  0
  186.5690  177.5050  144.2960 C   0  0  0  0  0  2  0  0  0  0  0  0
  185.6770  178.7360  144.1250 C   0  0  1  0  0  3  0  0  0  0  0  0
  188.7250  177.3050  145.4200 C   0  0  0  0  0  2  0  0  0  0  0  0
  185.5000  178.8390  146.5860 C   0  0  0  0  0  3  0  0  0  0  0  0
  185.6600  178.0460  139.2920 C   0  0  0  0  0  2  0  0  0  0  0  0
  185.0080  178.4730  137.9710 C   0  0  0  0  0  2  0  0  0  0  0  0
  185.1770  177.4930  136.8920 N   0  0  0  0  0  0  0  0  0  0  0  0
  184.0970  176.5180  136.9390 C   0  0  0  0  0  1  0  0  0  0  0  0
  186.4380  176.7850  137.0750 C   0  0  0  0  0  2  0  0  0  0  0  0
  188.6140  176.3490  135.8310 N   0  0  0  0  0  2  0  0  0  0  0  0
  187.3720  177.0470  135.9330 C   0  0  0  0  0  0  0  0  0  0  0  0
  187.0850  177.9190  135.0720 O   0  0  0  0  0  0  0  0  0  0  0  0
  189.1120  175.4730  136.8840 C   0  0  1  0  0  3  0  0  0  0  0  0
  191.4160  175.3910  137.8010 C   0  0  0  0  0  3  0  0  0  0  0  0
  189.4920  174.1140  136.2790 C   0  0  0  0  0  2  0  0  0  0  0  0
  190.2650  173.3790  137.1960 O   0  0  0  0  0  0  0  0  0  0  0  0
  190.3010  176.1060  137.5820 C   0  0  0  0  0  0  0  0  0  0  0  0
  191.5280  174.0010  137.2290 C   0  0  0  0  0  2  0  0  0  0  0  0
  190.1900  177.4810  138.1630 C   0  0  0  0  0  2  0  0  0  0  0  0
  190.3570  177.4640  139.6450 C   0  0  0  0  0  0  0  0  0  0  0  0
  190.6850  177.3640  142.3980 C   0  0  0  0  0  3  0  0  0  0  0  0
  191.7860  177.4500  141.5440 C   0  0  0  0  0  3  0  0  0  0  0  0
  189.4010  177.3290  141.8510 C   0  0  0  0  0  3  0  0  0  0  0  0
  191.6010  177.4970  140.1970 N   0  0  0  0  0  0  0  0  0  0  0  0
  189.2320  177.3780  140.4670 C   0  0  0  0  0  3  0  0  0  0  0  0
  1  2  1  0  0  0  0
  2  3  2  0  0  0  0
  2 14  1  0  0  0  0
  4  9  2  0  0  0  0
  5  8  1  0  0  0  0
  5 13  2  0  0  0  0
  6  4  1  0  0  0  0
  6 10  2  0  0  0  0
  7  4  1  0  0  0  0
  8 10  1  6  0  0  0
  8 11  1  0  0  0  0
  9  5  1  0  0  0  0
 11 12  2  0  0  0  0
 11  1  1  0  0  0  0
 13 12  1  0  0  0  0
 15 16  1  0  0  0  0
 16 17  1  1  0  0  0
 18 22  2  0  0  0  0
 19 15  1  0  0  0  0
 20 14  1  6  0  0  0
 20 19  1  0  0  0  0
 20 18  1  0  0  0  0
 21 15  2  0  0  0  0
 22 16  1  0  0  0  0
 23  1  1  0  0  0  0
 24 23  1  0  0  0  0
 25 26  1  0  0  0  0
 25 27  1  0  0  0  0
 25 24  1  0  0  0  0
 28 29  1  0  0  0  0
 29 27  1  0  0  0  0
 30 29  2  0  0  0  0
 31 28  1  6  0  0  0
 31 35  1  0  0  0  0
 33 31  1  0  0  0  0
 33 34  1  0  0  0  0
 34 36  1  0  0  0  0
 35 32  2  0  0  0  0
 35 37  1  0  0  0  0
 36 32  1  0  0  0  0
 37 38  1  0  0  0  0
 38 42  2  0  0  0  0
 38 43  1  0  0  0  0
 40 39  2  0  0  0  0
 41 39  1  0  0  0  0
 42 40  1  0  0  0  0
 43 41  2  0  0  0  0
M  END
>  <MODEL>
5

>  <REMARK>
 VINA RESULT:      -7.7      1.600      2.290
  Name = 
  11 active torsions:
  status: ('A' for Active; 'I' for Inactive)
    1  A    between atoms: C_1  and  C_34
    2  A    between atoms: C_1  and  C_35
    3  A    between atoms: N_2  and  C_6
    4  A    between atoms: N_2  and  C_13
    5  A    between atoms: N_3  and  C_4
    6  A    between atoms: C_6  and  C_12
    7  A    between atoms: N_8  and  C_27
    8  A    between atoms: N_8  and  C_30
    9  A    between atoms: C_11  and  C_14
   10  A    between atoms: C_13  and  C_27
   11  A    between atoms: C_14  and  C_41
                            x       y       z     vdW  Elec       q    Type
                         _______ _______ _______ _____ _____    ______ ____

>  <TORSDO>
F 11

$$$$
=
 OpenBabel11052416433D

 43 47  0  0  1  0  0  0  0  0999 V2000
  189.0440  177.1970  141.1160 N   0  0  0  0  0  0  0  0  0  0  0  0
  188.8250  176.7720  142.4730 C   0  0  0  0  0  0  0  0  0  0  0  0
  187.6700  176.4270  142.8460 O   0  0  0  0  0  0  0  0  0  0  0  0
  192.2450  176.2390  136.9410 C   0  0  0  0  0  0  0  0  0  0  0  0
  192.1980  176.6530  139.3030 C   0  0  0  0  0  0  0  0  0  0  0  0
  190.7710  176.4370  136.9370 C   0  0  0  0  0  3  0  0  0  0  0  0
  192.9560  175.9950  135.6600 C   0  0  0  0  0  1  0  0  0  0  0  0
  190.7630  176.2660  139.4030 C   0  0  2  0  0  3  0  0  0  0  0  0
  192.9480  176.4000  138.0690 C   0  0  0  0  0  3  0  0  0  0  0  0
  190.0770  176.5140  138.0850 C   0  0  0  0  0  3  0  0  0  0  0  0
  190.3470  177.1780  140.5050 C   0  0  0  0  0  0  0  0  0  0  0  0
  191.4130  177.8170  140.9770 C   0  0  0  0  0  3  0  0  0  0  0  0
  192.5620  177.5170  140.1900 N   0  0  0  0  0  0  0  0  0  0  0  0
  189.9210  176.8350  143.4920 C   0  0  0  0  0  2  0  0  0  0  0  0
  187.9240  177.8080  146.6170 C   0  0  0  0  0  0  0  0  0  0  0  0
  188.8390  177.2810  147.7050 C   0  0  2  0  0  3  0  0  0  0  0  0
  188.9480  178.2710  148.8510 C   0  0  0  0  0  1  0  0  0  0  0  0
  190.4680  176.7140  145.9000 C   0  0  0  0  0  3  0  0  0  0  0  0
  188.3990  177.8860  145.1940 C   0  0  0  0  0  2  0  0  0  0  0  0
  189.3510  176.7250  144.8970 C   0  0  1  0  0  3  0  0  0  0  0  0
  186.6400  178.0460  146.8760 C   0  0  0  0  0  2  0  0  0  0  0  0
  190.2250  176.9700  147.1930 C   0  0  0  0  0  3  0  0  0  0  0  0
  187.9220  177.7330  140.3540 C   0  0  0  0  0  2  0  0  0  0  0  0
  187.4130  179.0240  141.0070 C   0  0  0  0  0  2  0  0  0  0  0  0
  185.9560  179.1790  140.9400 N   0  0  0  0  0  0  0  0  0  0  0  0
  185.3390  178.5450  142.0960 C   0  0  0  0  0  1  0  0  0  0  0  0
  185.4540  178.5220  139.7390 C   0  0  0  0  0  2  0  0  0  0  0  0
  183.1170  178.5520  138.7360 N   0  0  0  0  0  2  0  0  0  0  0  0
  184.2780  179.2580  139.1750 C   0  0  0  0  0  0  0  0  0  0  0  0
  184.3220  180.5100  139.0440 O   0  0  0  0  0  0  0  0  0  0  0  0
  183.0610  177.0970  138.6670 C   0  0  1  0  0  3  0  0  0  0  0  0
  181.6390  175.7220  137.1710 C   0  0  0  0  0  3  0  0  0  0  0  0
  182.1180  176.5710  139.7590 C   0  0  0  0  0  2  0  0  0  0  0  0
  181.7990  175.2240  139.5090 O   0  0  0  0  0  0  0  0  0  0  0  0
  182.6010  176.6500  137.2930 C   0  0  0  0  0  0  0  0  0  0  0  0
  180.9250  175.2290  138.4040 C   0  0  0  0  0  2  0  0  0  0  0  0
  183.3150  177.1260  136.0660 C   0  0  0  0  0  2  0  0  0  0  0  0
  184.7060  176.5910  136.0010 C   0  0  0  0  0  0  0  0  0  0  0  0
  187.2910  175.5860  135.9480 C   0  0  0  0  0  3  0  0  0  0  0  0
  186.1870  174.7320  135.9820 C   0  0  0  0  0  3  0  0  0  0  0  0
  187.0840  176.9670  135.9400 C   0  0  0  0  0  3  0  0  0  0  0  0
  184.9280  175.2480  136.0080 N   0  0  0  0  0  0  0  0  0  0  0  0
  185.7860  177.4760  135.9670 C   0  0  0  0  0  3  0  0  0  0  0  0
  1  2  1  0  0  0  0
  2  3  2  0  0  0  0
  2 14  1  0  0  0  0
  4  9  2  0  0  0  0
  5  8  1  0  0  0  0
  5 13  2  0  0  0  0
  6  4  1  0  0  0  0
  6 10  2  0  0  0  0
  7  4  1  0  0  0  0
  8 10  1  6  0  0  0
  8 11  1  0  0  0  0
  9  5  1  0  0  0  0
 11 12  2  0  0  0  0
 11  1  1  0  0  0  0
 13 12  1  0  0  0  0
 15 21  2  0  0  0  0
 15 16  1  0  0  0  0
 16 17  1  1  0  0  0
 18 22  2  0  0  0  0
 19 15  1  0  0  0  0
 20 14  1  6  0  0  0
 20 19  1  0  0  0  0
 20 18  1  0  0  0  0
 22 16  1  0  0  0  0
 23 24  1  0  0  0  0
 23  1  1  0  0  0  0
 25 24  1  0  0  0  0
 25 26  1  0  0  0  0
 27 25  1  0  0  0  0
 28 29  1  0  0  0  0
 29 27  1  0  0  0  0
 30 29  2  0  0  0  0
 31 28  1  6  0  0  0
 31 33  1  0  0  0  0
 32 35  2  0  0  0  0
 32 36  1  0  0  0  0
 34 33  1  0  0  0  0
 35 31  1  0  0  0  0
 36 34  1  0  0  0  0
 37 35  1  0  0  0  0
 38 42  1  0  0  0  0
 38 37  1  0  0  0  0
 39 40  1  0  0  0  0
 40 42  2  0  0  0  0
 41 39  2  0  0  0  0
 41 43  1  0  0  0  0
 43 38  2  0  0  0  0
M  END
>  <MODEL>
6

>  <REMARK>
 VINA RESULT:      -7.6      2.133      7.808
  Name = 
  11 active torsions:
  status: ('A' for Active; 'I' for Inactive)
    1  A    between atoms: C_1  and  C_34
    2  A    between atoms: C_1  and  C_35
    3  A    between atoms: N_2  and  C_6
    4  A    between atoms: N_2  and  C_13
    5  A    between atoms: N_3  and  C_4
    6  A    between atoms: C_6  and  C_12
    7  A    between atoms: N_8  and  C_27
    8  A    between atoms: N_8  and  C_30
    9  A    between atoms: C_11  and  C_14
   10  A    between atoms: C_13  and  C_27
   11  A    between atoms: C_14  and  C_41
                            x       y       z     vdW  Elec       q    Type
                         _______ _______ _______ _____ _____    ______ ____

>  <TORSDO>
F 11

$$$$
=
 OpenBabel11052416433D

 43 47  0  0  1  0  0  0  0  0999 V2000
  189.8530  177.1830  139.7120 N   0  0  0  0  0  0  0  0  0  0  0  0
  190.7700  177.0780  138.6070 C   0  0  0  0  0  0  0  0  0  0  0  0
  190.3570  177.2490  137.4280 O   0  0  0  0  0  0  0  0  0  0  0  0
  188.9300  177.4740  144.9710 C   0  0  0  0  0  0  0  0  0  0  0  0
  190.4610  178.0800  143.2270 C   0  0  0  0  0  0  0  0  0  0  0  0
  188.1360  176.7530  143.9410 C   0  0  0  0  0  3  0  0  0  0  0  0
  188.5090  177.4200  146.3940 C   0  0  0  0  0  1  0  0  0  0  0  0
  189.4250  177.9020  142.1720 C   0  0  2  0  0  3  0  0  0  0  0  0
  190.0860  178.0670  144.6440 C   0  0  0  0  0  3  0  0  0  0  0  0
  188.4000  176.8980  142.6320 C   0  0  0  0  0  3  0  0  0  0  0  0
  190.2960  177.4390  141.0570 C   0  0  0  0  0  0  0  0  0  0  0  0
  191.5700  177.5030  141.4350 C   0  0  0  0  0  3  0  0  0  0  0  0
  191.6630  177.8620  142.8100 N   0  0  0  0  0  0  0  0  0  0  0  0
  192.1920  176.6580  138.8170 C   0  0  0  0  0  2  0  0  0  0  0  0
  192.2300  173.5630  136.5540 C   0  0  0  0  0  0  0  0  0  0  0  0
  193.7220  173.3930  136.3430 C   0  0  2  0  0  3  0  0  0  0  0  0
  194.1220  171.9310  136.4380 C   0  0  0  0  0  1  0  0  0  0  0  0
  194.0480  175.2630  137.9640 C   0  0  0  0  0  3  0  0  0  0  0  0
  191.7120  174.5150  137.5930 C   0  0  0  0  0  2  0  0  0  0  0  0
  192.6430  175.7250  137.7040 C   0  0  1  0  0  3  0  0  0  0  0  0
  191.3650  173.0040  135.7110 C   0  0  0  0  0  2  0  0  0  0  0  0
  194.5390  174.1880  137.3330 C   0  0  0  0  0  3  0  0  0  0  0  0
  188.4330  176.9510  139.4760 C   0  0  0  0  0  2  0  0  0  0  0  0
  187.7590  178.2480  139.0120 C   0  0  0  0  0  2  0  0  0  0  0  0
  186.7280  178.0390  137.9900 N   0  0  0  0  0  0  0  0  0  0  0  0
  187.1200  178.6990  136.7520 C   0  0  0  0  0  1  0  0  0  0  0  0
  185.4730  178.6280  138.4410 C   0  0  0  0  0  2  0  0  0  0  0  0
  182.9650  178.2980  138.1720 N   0  0  0  0  0  2  0  0  0  0  0  0
  184.3000  177.8460  137.9380 C   0  0  0  0  0  0  0  0  0  0  0  0
  184.4820  176.7550  137.3360 O   0  0  0  0  0  0  0  0  0  0  0  0
  182.6610  179.4390  139.0260 C   0  0  1  0  0  3  0  0  0  0  0  0
  180.7230  179.6920  140.5540 C   0  0  0  0  0  3  0  0  0  0  0  0
  181.9310  180.5110  138.2050 C   0  0  0  0  0  2  0  0  0  0  0  0
  181.3490  181.4600  139.0640 O   0  0  0  0  0  0  0  0  0  0  0  0
  181.8230  179.0030  140.2140 C   0  0  0  0  0  0  0  0  0  0  0  0
  180.2510  180.8170  139.6700 C   0  0  0  0  0  2  0  0  0  0  0  0
  182.2950  177.8940  141.1030 C   0  0  0  0  0  2  0  0  0  0  0  0
  183.1800  178.4040  142.1900 C   0  0  0  0  0  0  0  0  0  0  0  0
  184.8130  179.4170  144.1910 C   0  0  0  0  0  3  0  0  0  0  0  0
  183.4270  179.3780  144.3440 C   0  0  0  0  0  3  0  0  0  0  0  0
  185.3820  178.9350  143.0100 C   0  0  0  0  0  3  0  0  0  0  0  0
  182.6450  178.8770  143.3480 N   0  0  0  0  0  0  0  0  0  0  0  0
  184.5640  178.4260  142.0000 C   0  0  0  0  0  3  0  0  0  0  0  0
  1 11  1  0  0  0  0
  2 14  1  0  0  0  0
  2  1  1  0  0  0  0
  3  2  2  0  0  0  0
  4  7  1  0  0  0  0
  5  9  1  0  0  0  0
  6  4  1  0  0  0  0
  8 10  1  1  0  0  0
  8  5  1  0  0  0  0
  9  4  2  0  0  0  0
 10  6  2  0  0  0  0
 11 12  2  0  0  0  0
 11  8  1  0  0  0  0
 12 13  1  0  0  0  0
 13  5  2  0  0  0  0
 15 19  1  0  0  0  0
 16 17  1  1  0  0  0
 16 15  1  0  0  0  0
 16 22  1  0  0  0  0
 19 20  1  0  0  0  0
 20 18  1  0  0  0  0
 20 14  1  1  0  0  0
 21 15  2  0  0  0  0
 22 18  2  0  0  0  0
 23  1  1  0  0  0  0
 24 23  1  0  0  0  0
 25 27  1  0  0  0  0
 25 24  1  0  0  0  0
 26 25  1  0  0  0  0
 29 28  1  0  0  0  0
 29 27  1  0  0  0  0
 30 29  2  0  0  0  0
 31 28  1  6  0  0  0
 31 35  1  0  0  0  0
 33 31  1  0  0  0  0
 33 34  1  0  0  0  0
 34 36  1  0  0  0  0
 35 32  2  0  0  0  0
 35 37  1  0  0  0  0
 36 32  1  0  0  0  0
 37 38  1  0  0  0  0
 38 42  1  0  0  0  0
 39 40  1  0  0  0  0
 41 39  2  0  0  0  0
 42 40  2  0  0  0  0
 43 38  2  0  0  0  0
 43 41  1  0  0  0  0
M  END
>  <MODEL>
7

>  <REMARK>
 VINA RESULT:      -7.5      2.183      9.011
  Name = 
  11 active torsions:
  status: ('A' for Active; 'I' for Inactive)
    1  A    between atoms: C_1  and  C_34
    2  A    between atoms: C_1  and  C_35
    3  A    between atoms: N_2  and  C_6
    4  A    between atoms: N_2  and  C_13
    5  A    between atoms: N_3  and  C_4
    6  A    between atoms: C_6  and  C_12
    7  A    between atoms: N_8  and  C_27
    8  A    between atoms: N_8  and  C_30
    9  A    between atoms: C_11  and  C_14
   10  A    between atoms: C_13  and  C_27
   11  A    between atoms: C_14  and  C_41
                            x       y       z     vdW  Elec       q    Type
                         _______ _______ _______ _____ _____    ______ ____

>  <TORSDO>
F 11

$$$$
=
 OpenBabel11052416433D

 43 47  0  0  1  0  0  0  0  0999 V2000
  189.3840  178.1960  140.9100 N   0  0  0  0  0  0  0  0  0  0  0  0
  189.7750  177.7010  139.6160 C   0  0  0  0  0  0  0  0  0  0  0  0
  189.4590  178.3410  138.5760 O   0  0  0  0  0  0  0  0  0  0  0  0
  189.3400  177.1280  146.1490 C   0  0  0  0  0  0  0  0  0  0  0  0
  190.7560  177.5740  144.2650 C   0  0  0  0  0  0  0  0  0  0  0  0
  188.1840  177.1750  145.2160 C   0  0  0  0  0  3  0  0  0  0  0  0
  189.1160  176.7960  147.5800 C   0  0  0  0  0  1  0  0  0  0  0  0
  189.6400  178.1920  143.4960 C   0  0  2  0  0  3  0  0  0  0  0  0
  190.5910  177.2610  145.6880 C   0  0  0  0  0  3  0  0  0  0  0  0
  188.3280  177.6120  143.9530 C   0  0  0  0  0  3  0  0  0  0  0  0
  190.0520  177.7970  142.1210 C   0  0  0  0  0  0  0  0  0  0  0  0
  191.2410  177.2030  142.1680 C   0  0  0  0  0  3  0  0  0  0  0  0
  191.6560  177.0270  143.5190 N   0  0  0  0  0  0  0  0  0  0  0  0
  190.4580  176.3770  139.4670 C   0  0  0  0  0  2  0  0  0  0  0  0
  191.6040  174.8820  136.1280 C   0  0  0  0  0  0  0  0  0  0  0  0
  193.0110  175.4410  136.0420 C   0  0  2  0  0  3  0  0  0  0  0  0
  193.9870  174.3860  135.5550 C   0  0  0  0  0  1  0  0  0  0  0  0
  192.6540  176.3770  138.3290 C   0  0  0  0  0  3  0  0  0  0  0  0
  190.8180  174.9880  137.4040 C   0  0  0  0  0  2  0  0  0  0  0  0
  191.1690  176.2910  138.1260 C   0  0  1  0  0  3  0  0  0  0  0  0
  190.9870  174.4460  135.0320 C   0  0  0  0  0  2  0  0  0  0  0  0
  193.4980  175.9840  137.3650 C   0  0  0  0  0  3  0  0  0  0  0  0
  188.2250  179.0770  141.0080 C   0  0  0  0  0  2  0  0  0  0  0  0
  186.9510  178.3100  140.6360 C   0  0  0  0  0  2  0  0  0  0  0  0
  185.7240  179.0960  140.8030 N   0  0  0  0  0  0  0  0  0  0  0  0
  185.4400  179.2720  142.2210 C   0  0  0  0  0  1  0  0  0  0  0  0
  184.6050  178.3810  140.2020 C   0  0  0  0  0  2  0  0  0  0  0  0
  182.9630  178.6590  138.2780 N   0  0  0  0  0  2  0  0  0  0  0  0
  183.9070  179.2310  139.1850 C   0  0  0  0  0  0  0  0  0  0  0  0
  184.1810  180.4570  139.0950 O   0  0  0  0  0  0  0  0  0  0  0  0
  182.7370  177.2230  138.1830 C   0  0  1  0  0  3  0  0  0  0  0  0
  181.7060  175.9910  136.2920 C   0  0  0  0  0  3  0  0  0  0  0  0
  181.4280  176.8640  138.9010 C   0  0  0  0  0  2  0  0  0  0  0  0
  181.0290  175.5620  138.5500 O   0  0  0  0  0  0  0  0  0  0  0  0
  182.6930  176.7890  136.7290 C   0  0  0  0  0  0  0  0  0  0  0  0
  180.5710  175.6410  137.2190 C   0  0  0  0  0  2  0  0  0  0  0  0
  183.8240  177.1240  135.8080 C   0  0  0  0  0  2  0  0  0  0  0  0
  185.0390  176.3150  136.1180 C   0  0  0  0  0  0  0  0  0  0  0  0
  187.2630  174.7790  136.7440 C   0  0  0  0  0  3  0  0  0  0  0  0
  186.2310  174.2650  135.9570 C   0  0  0  0  0  3  0  0  0  0  0  0
  187.1690  176.0890  137.2190 C   0  0  0  0  0  3  0  0  0  0  0  0
  185.1490  175.0370  135.6630 N   0  0  0  0  0  0  0  0  0  0  0  0
  186.0510  176.8640  136.9070 C   0  0  0  0  0  3  0  0  0  0  0  0
  1 23  1  0  0  0  0
  1 11  1  0  0  0  0
  2  1  1  0  0  0  0
  3  2  2  0  0  0  0
  4  7  1  0  0  0  0
  5  9  1  0  0  0  0
  6  4  1  0  0  0  0
  8 10  1  1  0  0  0
  8  5  1  0  0  0  0
  9  4  2  0  0  0  0
 10  6  2  0  0  0  0
 11 12  2  0  0  0  0
 11  8  1  0  0  0  0
 12 13  1  0  0  0  0
 13  5  2  0  0  0  0
 14  2  1  0  0  0  0
 15 19  1  0  0  0  0
 16 17  1  1  0  0  0
 16 15  1  0  0  0  0
 16 22  1  0  0  0  0
 19 20  1  0  0  0  0
 20 18  1  0  0  0  0
 20 14  1  1  0  0  0
 21 15  2  0  0  0  0
 22 18  2  0  0  0  0
 24 25  1  0  0  0  0
 24 23  1  0  0  0  0
 25 26  1  0  0  0  0
 27 25  1  0  0  0  0
 28 29  1  0  0  0  0
 29 27  1  0  0  0  0
 30 29  2  0  0  0  0
 31 28  1  6  0  0  0
 31 33  1  0  0  0  0
 32 35  2  0  0  0  0
 32 36  1  0  0  0  0
 34 33  1  0  0  0  0
 35 31  1  0  0  0  0
 36 34  1  0  0  0  0
 37 38  1  0  0  0  0
 37 35  1  0  0  0  0
 38 43  1  0  0  0  0
 39 41  1  0  0  0  0
 40 39  2  0  0  0  0
 42 40  1  0  0  0  0
 42 38  2  0  0  0  0
 43 41  2  0  0  0  0
M  END
>  <MODEL>
8

>  <REMARK>
 VINA RESULT:      -7.4      2.207      8.903
  Name = 
  11 active torsions:
  status: ('A' for Active; 'I' for Inactive)
    1  A    between atoms: C_1  and  C_34
    2  A    between atoms: C_1  and  C_35
    3  A    between atoms: N_2  and  C_6
    4  A    between atoms: N_2  and  C_13
    5  A    between atoms: N_3  and  C_4
    6  A    between atoms: C_6  and  C_12
    7  A    between atoms: N_8  and  C_27
    8  A    between atoms: N_8  and  C_30
    9  A    between atoms: C_11  and  C_14
   10  A    between atoms: C_13  and  C_27
   11  A    between atoms: C_14  and  C_41
                            x       y       z     vdW  Elec       q    Type
                         _______ _______ _______ _____ _____    ______ ____

>  <TORSDO>
F 11

$$$$
=
 OpenBabel11052416433D

 43 47  0  0  1  0  0  0  0  0999 V2000
  189.6060  177.5580  137.7650 N   0  0  0  0  0  0  0  0  0  0  0  0
  188.7510  178.2110  136.8090 C   0  0  0  0  0  0  0  0  0  0  0  0
  188.6090  179.4630  136.8450 O   0  0  0  0  0  0  0  0  0  0  0  0
  193.7870  174.2550  137.3170 C   0  0  0  0  0  0  0  0  0  0  0  0
  191.4410  174.4940  136.8820 C   0  0  0  0  0  0  0  0  0  0  0  0
  193.7410  175.5880  137.9750 C   0  0  0  0  0  3  0  0  0  0  0  0
  195.0560  173.4820  137.3130 C   0  0  0  0  0  1  0  0  0  0  0  0
  191.5140  175.9790  136.9750 C   0  0  2  0  0  3  0  0  0  0  0  0
  192.6690  173.6940  136.8400 C   0  0  0  0  0  3  0  0  0  0  0  0
  192.6570  176.3750  137.8720 C   0  0  0  0  0  3  0  0  0  0  0  0
  190.1600  176.2490  137.5330 C   0  0  0  0  0  0  0  0  0  0  0  0
  189.4680  175.1150  137.5850 C   0  0  0  0  0  3  0  0  0  0  0  0
  190.2910  174.0130  137.2170 N   0  0  0  0  0  0  0  0  0  0  0  0
  187.9320  177.4210  135.8350 C   0  0  0  0  0  2  0  0  0  0  0  0
  184.6090  177.6310  137.7360 C   0  0  0  0  0  0  0  0  0  0  0  0
  183.6460  177.1610  136.6630 C   0  0  2  0  0  3  0  0  0  0  0  0
  182.6140  176.2080  137.2390 C   0  0  0  0  0  1  0  0  0  0  0  0
  185.6420  176.7070  135.2340 C   0  0  0  0  0  3  0  0  0  0  0  0
  186.0910  177.4850  137.5460 C   0  0  0  0  0  2  0  0  0  0  0  0
  186.4480  177.6600  136.0680 C   0  0  1  0  0  3  0  0  0  0  0  0
  184.1630  178.3310  138.7780 C   0  0  0  0  0  2  0  0  0  0  0  0
  184.3500  176.4810  135.5130 C   0  0  0  0  0  3  0  0  0  0  0  0
  189.8640  178.2100  139.0440 C   0  0  0  0  0  2  0  0  0  0  0  0
  189.6960  177.2050  140.1890 C   0  0  0  0  0  2  0  0  0  0  0  0
  188.4710  177.4060  140.9700 N   0  0  0  0  0  0  0  0  0  0  0  0
  187.8020  178.6230  140.5320 C   0  0  0  0  0  1  0  0  0  0  0  0
  188.8150  177.5590  142.3790 C   0  0  0  0  0  2  0  0  0  0  0  0
  187.4110  176.5510  144.2450 N   0  0  0  0  0  2  0  0  0  0  0  0
  188.3460  176.3830  143.1770 C   0  0  0  0  0  0  0  0  0  0  0  0
  188.8060  175.2350  142.9390 O   0  0  0  0  0  0  0  0  0  0  0  0
  186.9820  177.8620  144.7140 C   0  0  1  0  0  3  0  0  0  0  0  0
  185.8280  178.3860  146.8470 C   0  0  0  0  0  3  0  0  0  0  0  0
  185.6190  178.2040  144.0950 C   0  0  0  0  0  2  0  0  0  0  0  0
  185.0440  179.2940  144.7730 O   0  0  0  0  0  0  0  0  0  0  0  0
  186.9090  177.8840  146.2290 C   0  0  0  0  0  0  0  0  0  0  0  0
  184.6330  178.8000  146.0270 C   0  0  0  0  0  2  0  0  0  0  0  0
  188.0980  177.4860  147.0470 C   0  0  0  0  0  2  0  0  0  0  0  0
  189.3650  177.6140  146.2690 C   0  0  0  0  0  0  0  0  0  0  0  0
  191.6860  177.8330  144.7660 C   0  0  0  0  0  3  0  0  0  0  0  0
  190.7190  178.8400  144.7480 C   0  0  0  0  0  3  0  0  0  0  0  0
  191.4760  176.7010  145.5560 C   0  0  0  0  0  3  0  0  0  0  0  0
  189.5880  178.7100  145.4940 N   0  0  0  0  0  0  0  0  0  0  0  0
  190.3090  176.5870  146.3120 C   0  0  0  0  0  3  0  0  0  0  0  0
  1 23  1  0  0  0  0
  2  3  2  0  0  0  0
  2  1  1  0  0  0  0
  4  6  1  0  0  0  0
  5  8  1  0  0  0  0
  5 13  2  0  0  0  0
  7  4  1  0  0  0  0
  8 11  1  0  0  0  0
  8 10  1  1  0  0  0
  9  5  1  0  0  0  0
  9  4  2  0  0  0  0
 10  6  2  0  0  0  0
 11 12  2  0  0  0  0
 11  1  1  0  0  0  0
 13 12  1  0  0  0  0
 14  2  1  0  0  0  0
 15 21  2  0  0  0  0
 16 17  1  1  0  0  0
 16 15  1  0  0  0  0
 18 22  2  0  0  0  0
 18 20  1  0  0  0  0
 19 15  1  0  0  0  0
 20 14  1  1  0  0  0
 20 19  1  0  0  0  0
 22 16  1  0  0  0  0
 23 24  1  0  0  0  0
 24 25  1  0  0  0  0
 25 27  1  0  0  0  0
 26 25  1  0  0  0  0
 27 29  1  0  0  0  0
 29 28  1  0  0  0  0
 30 29  2  0  0  0  0
 31 28  1  1  0  0  0
 31 35  1  0  0  0  0
 33 31  1  0  0  0  0
 33 34  1  0  0  0  0
 34 36  1  0  0  0  0
 35 32  2  0  0  0  0
 35 37  1  0  0  0  0
 36 32  1  0  0  0  0
 38 43  1  0  0  0  0
 38 37  1  0  0  0  0
 39 41  1  0  0  0  0
 40 39  2  0  0  0  0
 40 42  1  0  0  0  0
 41 43  2  0  0  0  0
 42 38  2  0  0  0  0
M  END
>  <MODEL>
9

>  <REMARK>
 VINA RESULT:      -7.3      2.641      8.709
  Name = 
  11 active torsions:
  status: ('A' for Active; 'I' for Inactive)
    1  A    between atoms: C_1  and  C_34
    2  A    between atoms: C_1  and  C_35
    3  A    between atoms: N_2  and  C_6
    4  A    between atoms: N_2  and  C_13
    5  A    between atoms: N_3  and  C_4
    6  A    between atoms: C_6  and  C_12
    7  A    between atoms: N_8  and  C_27
    8  A    between atoms: N_8  and  C_30
    9  A    between atoms: C_11  and  C_14
   10  A    between atoms: C_13  and  C_27
   11  A    between atoms: C_14  and  C_41
                            x       y       z     vdW  Elec       q    Type
                         _______ _______ _______ _____ _____    ______ ____

>  <TORSDO>
F 11

$$$$
