=
 OpenBabel11052412543D

 25 25  0  0  1  0  0  0  0  0999 V2000
  189.3650  177.3230  142.8680 C   0  0  0  0  0  0  0  0  0  0  0  0
  188.1090  177.3310  143.3450 C   0  0  0  0  0  3  0  0  0  0  0  0
  191.2060  175.8670  143.8000 C   0  0  0  0  0  2  0  0  0  0  0  0
  189.9980  177.5310  145.2350 C   0  0  0  0  0  3  0  0  0  0  0  0
  192.4890  175.7950  147.3190 O   0  0  0  0  0  1  0  0  0  0  0  0
  191.7330  176.1120  146.1990 C   0  0  0  0  0  0  0  0  0  0  0  0
  190.5790  177.0180  146.3240 C   0  0  0  0  0  3  0  0  0  0  0  0
  190.5390  177.2650  143.8470 C   0  0  2  0  0  0  0  0  0  0  0  0
  192.0620  175.6000  145.0100 C   0  0  0  0  0  3  0  0  0  0  0  0
  191.6150  178.3350  143.5600 C   0  0  0  0  0  2  0  0  0  0  0  0
  191.2240  179.7260  144.0460 C   0  0  0  0  0  1  0  0  0  0  0  0
  190.1490  176.1940  140.9080 O   0  0  0  0  0  0  0  0  0  0  0  0
  189.6190  177.2270  141.4030 C   0  0  0  0  0  0  0  0  0  0  0  0
  189.2620  178.2890  140.5690 O   0  0  0  0  0  0  0  0  0  0  0  0
  188.5750  178.0850  139.3430 C   0  0  0  0  0  1  0  0  0  0  0  0
  186.9830  177.3050  142.5260 O   0  0  0  0  0  0  0  0  0  0  0  0
  186.2400  178.4880  142.2810 C   0  0  0  0  0  2  0  0  0  0  0  0
  184.1580  178.5980  143.6460 C   0  0  0  0  0  3  0  0  0  0  0  0
  184.7810  178.2430  142.5160 C   0  0  0  0  0  3  0  0  0  0  0  0
  184.8500  179.2660  144.7950 C   0  0  0  0  0  2  0  0  0  0  0  0
  184.6220  178.4830  146.0750 C   0  0  0  0  0  2  0  0  0  0  0  0
  185.5990  178.9490  147.1310 C   0  0  0  0  0  2  0  0  0  0  0  0
  186.8920  178.1710  146.9980 C   0  0  0  0  0  2  0  0  0  0  0  0
  187.8040  178.6160  147.9550 O   0  0  0  0  0  0  0  0  0  0  0  0
  187.9830  177.5240  148.8020 C   0  0  0  0  0  1  0  0  0  0  0  0
  1  2  2  0  0  0  0
  1  8  1  0  0  0  0
  3  8  1  0  0  0  0
  3  9  1  0  0  0  0
  4  7  2  0  0  0  0
  6  7  1  0  0  0  0
  6  5  1  0  0  0  0
  8 10  1  6  0  0  0
  8  4  1  0  0  0  0
  9  6  2  0  0  0  0
 10 11  1  0  0  0  0
 12 13  2  0  0  0  0
 13  1  1  0  0  0  0
 14 13  1  0  0  0  0
 15 14  1  0  0  0  0
 16  2  1  0  0  0  0
 17 19  1  0  0  0  0
 17 16  1  0  0  0  0
 18 20  1  0  0  0  0
 19 18  2  0  0  0  0
 20 21  1  0  0  0  0
 21 22  1  0  0  0  0
 23 22  1  0  0  0  0
 23 24  1  0  0  0  0
 24 25  1  0  0  0  0
M  END
>  <MODEL>
1

>  <REMARK>
 VINA RESULT:      -6.6      0.000      0.000
  Name = 
  12 active torsions:
  status: ('A' for Active; 'I' for Inactive)
    1  A    between atoms: C_1  and  C_18
    2  A    between atoms: C_1  and  C_24
    3  A    between atoms: C_2  and  O_7
    4  A    between atoms: C_2  and  C_25
    5  A    between atoms: C_3  and  O_16
    6  A    between atoms: C_6  and  C_15
    7  A    between atoms: C_6  and  C_21
    8  A    between atoms: O_13  and  C_24
    9  A    between atoms: O_16  and  C_23
   10  A    between atoms: C_17  and  C_18
   11  A    between atoms: C_20  and  C_23
   12  A    between atoms: C_21  and  C_25
                            x       y       z     vdW  Elec       q    Type
                         _______ _______ _______ _____ _____    ______ ____

>  <TORSDO>
F 12

$$$$
=
 OpenBabel11052412543D

 25 25  0  0  1  0  0  0  0  0999 V2000
  188.4510  177.4290  145.3580 C   0  0  0  0  0  0  0  0  0  0  0  0
  187.1120  177.3810  145.2570 C   0  0  0  0  0  3  0  0  0  0  0  0
  188.3800  177.8640  142.8720 C   0  0  0  0  0  2  0  0  0  0  0  0
  190.0600  176.3010  143.8800 C   0  0  0  0  0  3  0  0  0  0  0  0
  190.5810  176.3680  140.2350 O   0  0  0  0  0  1  0  0  0  0  0  0
  190.0010  176.6460  141.4650 C   0  0  0  0  0  0  0  0  0  0  0  0
  190.4130  175.8880  142.6580 C   0  0  0  0  0  3  0  0  0  0  0  0
  189.2940  177.5880  144.0920 C   0  0  2  0  0  0  0  0  0  0  0  0
  189.0780  177.6060  141.5620 C   0  0  0  0  0  3  0  0  0  0  0  0
  190.3310  178.7280  144.1990 C   0  0  0  0  0  2  0  0  0  0  0  0
  191.7680  178.2270  144.2830 C   0  0  0  0  0  1  0  0  0  0  0  0
  188.9350  178.4530  147.4670 O   0  0  0  0  0  0  0  0  0  0  0  0
  189.1090  177.4710  146.6940 C   0  0  0  0  0  0  0  0  0  0  0  0
  189.9230  176.4090  147.0970 O   0  0  0  0  0  0  0  0  0  0  0  0
  191.2780  176.6000  147.4740 C   0  0  0  0  0  1  0  0  0  0  0  0
  186.2670  177.3150  146.3620 O   0  0  0  0  0  0  0  0  0  0  0  0
  185.2130  178.2500  146.5220 C   0  0  0  0  0  2  0  0  0  0  0  0
  184.3370  179.6100  144.6250 C   0  0  0  0  0  3  0  0  0  0  0  0
  185.3190  179.3340  145.4920 C   0  0  0  0  0  3  0  0  0  0  0  0
  183.0390  178.8640  144.5840 C   0  0  0  0  0  2  0  0  0  0  0  0
  182.5490  178.7380  143.1530 C   0  0  0  0  0  2  0  0  0  0  0  0
  183.7350  178.5790  142.2270 C   0  0  0  0  0  2  0  0  0  0  0  0
  183.2770  178.7410  140.7920 C   0  0  0  0  0  2  0  0  0  0  0  0
  184.3400  179.1970  140.0140 O   0  0  0  0  0  0  0  0  0  0  0  0
  185.4650  179.0160  140.8180 C   0  0  0  0  0  1  0  0  0  0  0  0
  1 13  1  0  0  0  0
  2  1  2  0  0  0  0
  2 16  1  0  0  0  0
  3  8  1  0  0  0  0
  4  8  1  0  0  0  0
  5  6  1  0  0  0  0
  6  9  2  0  0  0  0
  6  7  1  0  0  0  0
  7  4  2  0  0  0  0
  8 10  1  1  0  0  0
  8  1  1  0  0  0  0
  9  3  1  0  0  0  0
 10 11  1  0  0  0  0
 13 14  1  0  0  0  0
 13 12  2  0  0  0  0
 14 15  1  0  0  0  0
 16 17  1  0  0  0  0
 18 19  2  0  0  0  0
 19 17  1  0  0  0  0
 20 18  1  0  0  0  0
 21 20  1  0  0  0  0
 22 21  1  0  0  0  0
 23 22  1  0  0  0  0
 24 23  1  0  0  0  0
 24 25  1  0  0  0  0
M  END
>  <MODEL>
2

>  <REMARK>
 VINA RESULT:      -6.6      1.691      5.077
  Name = 
  12 active torsions:
  status: ('A' for Active; 'I' for Inactive)
    1  A    between atoms: C_1  and  C_18
    2  A    between atoms: C_1  and  C_24
    3  A    between atoms: C_2  and  O_7
    4  A    between atoms: C_2  and  C_25
    5  A    between atoms: C_3  and  O_16
    6  A    between atoms: C_6  and  C_15
    7  A    between atoms: C_6  and  C_21
    8  A    between atoms: O_13  and  C_24
    9  A    between atoms: O_16  and  C_23
   10  A    between atoms: C_17  and  C_18
   11  A    between atoms: C_20  and  C_23
   12  A    between atoms: C_21  and  C_25
                            x       y       z     vdW  Elec       q    Type
                         _______ _______ _______ _____ _____    ______ ____

>  <TORSDO>
F 12

$$$$
=
 OpenBabel11052412543D

 25 25  0  0  1  0  0  0  0  0999 V2000
  188.4630  177.5290  144.8840 C   0  0  0  0  0  0  0  0  0  0  0  0
  187.4970  177.8360  145.7660 C   0  0  0  0  0  3  0  0  0  0  0  0
  190.6350  176.2500  144.7270 C   0  0  0  0  0  2  0  0  0  0  0  0
  189.9110  177.3440  146.8630 C   0  0  0  0  0  3  0  0  0  0  0  0
  193.1360  175.6670  147.4550 O   0  0  0  0  0  1  0  0  0  0  0  0
  191.9940  176.0760  146.7800 C   0  0  0  0  0  0  0  0  0  0  0  0
  190.8970  176.7230  147.5190 C   0  0  0  0  0  3  0  0  0  0  0  0
  189.9180  177.4710  145.3550 C   0  0  2  0  0  0  0  0  0  0  0  0
  191.9000  175.8880  145.4610 C   0  0  0  0  0  3  0  0  0  0  0  0
  190.7150  178.7470  145.0050 C   0  0  0  0  0  2  0  0  0  0  0  0
  191.3540  178.6950  143.6230 C   0  0  0  0  0  1  0  0  0  0  0  0
  187.7320  175.9310  143.2580 O   0  0  0  0  0  0  0  0  0  0  0  0
  188.1190  177.1090  143.4970 C   0  0  0  0  0  0  0  0  0  0  0  0
  188.2190  178.0300  142.4510 O   0  0  0  0  0  0  0  0  0  0  0  0
  188.6710  177.6550  141.1590 C   0  0  0  0  0  1  0  0  0  0  0  0
  186.1430  177.8350  145.4410 O   0  0  0  0  0  0  0  0  0  0  0  0
  185.3030  178.9070  145.8430 C   0  0  0  0  0  2  0  0  0  0  0  0
  183.5310  178.8570  144.0910 C   0  0  0  0  0  3  0  0  0  0  0  0
  183.9020  178.6750  145.3640 C   0  0  0  0  0  3  0  0  0  0  0  0
  184.4660  179.3200  143.0170 C   0  0  0  0  0  2  0  0  0  0  0  0
  184.6210  178.2480  141.9550 C   0  0  0  0  0  2  0  0  0  0  0  0
  184.3770  178.8520  140.5890 C   0  0  0  0  0  2  0  0  0  0  0  0
  185.5920  178.6260  139.7150 C   0  0  0  0  0  2  0  0  0  0  0  0
  185.2950  178.9910  138.4010 O   0  0  0  0  0  0  0  0  0  0  0  0
  186.1090  178.1730  137.6190 C   0  0  0  0  0  1  0  0  0  0  0  0
  1  8  1  0  0  0  0
  1  2  2  0  0  0  0
  3  8  1  0  0  0  0
  3  9  1  0  0  0  0
  4  7  2  0  0  0  0
  6  5  1  0  0  0  0
  6  7  1  0  0  0  0
  8 10  1  6  0  0  0
  8  4  1  0  0  0  0
  9  6  2  0  0  0  0
 11 10  1  0  0  0  0
 12 13  2  0  0  0  0
 13  1  1  0  0  0  0
 14 13  1  0  0  0  0
 15 14  1  0  0  0  0
 16  2  1  0  0  0  0
 16 17  1  0  0  0  0
 18 19  2  0  0  0  0
 19 17  1  0  0  0  0
 20 18  1  0  0  0  0
 21 20  1  0  0  0  0
 22 21  1  0  0  0  0
 23 22  1  0  0  0  0
 24 23  1  0  0  0  0
 25 24  1  0  0  0  0
M  END
>  <MODEL>
3

>  <REMARK>
 VINA RESULT:      -6.5      1.703      4.151
  Name = 
  12 active torsions:
  status: ('A' for Active; 'I' for Inactive)
    1  A    between atoms: C_1  and  C_18
    2  A    between atoms: C_1  and  C_24
    3  A    between atoms: C_2  and  O_7
    4  A    between atoms: C_2  and  C_25
    5  A    between atoms: C_3  and  O_16
    6  A    between atoms: C_6  and  C_15
    7  A    between atoms: C_6  and  C_21
    8  A    between atoms: O_13  and  C_24
    9  A    between atoms: O_16  and  C_23
   10  A    between atoms: C_17  and  C_18
   11  A    between atoms: C_20  and  C_23
   12  A    between atoms: C_21  and  C_25
                            x       y       z     vdW  Elec       q    Type
                         _______ _______ _______ _____ _____    ______ ____

>  <TORSDO>
F 12

$$$$
=
 OpenBabel11052412543D

 25 25  0  0  1  0  0  0  0  0999 V2000
  188.6340  177.9560  141.2550 C   0  0  0  0  0  0  0  0  0  0  0  0
  187.4700  178.3290  141.8130 C   0  0  0  0  0  3  0  0  0  0  0  0
  189.2290  176.5450  143.2630 C   0  0  0  0  0  2  0  0  0  0  0  0
  190.4190  178.6970  142.7740 C   0  0  0  0  0  3  0  0  0  0  0  0
  191.8290  177.2680  145.8620 O   0  0  0  0  0  1  0  0  0  0  0  0
  190.9980  177.3980  144.7580 C   0  0  0  0  0  0  0  0  0  0  0  0
  191.0140  178.6430  143.9700 C   0  0  0  0  0  3  0  0  0  0  0  0
  189.7760  177.4770  142.1520 C   0  0  2  0  0  0  0  0  0  0  0  0
  190.1950  176.3910  144.4080 C   0  0  0  0  0  3  0  0  0  0  0  0
  190.8770  176.7230  141.3740 C   0  0  0  0  0  2  0  0  0  0  0  0
  192.0380  177.6180  140.9570 C   0  0  0  0  0  1  0  0  0  0  0  0
  188.6350  176.7660  139.1780 O   0  0  0  0  0  0  0  0  0  0  0  0
  188.7720  177.8700  139.7740 C   0  0  0  0  0  0  0  0  0  0  0  0
  189.0480  179.0250  139.0380 O   0  0  0  0  0  0  0  0  0  0  0  0
  189.0620  179.0270  137.6180 C   0  0  0  0  0  1  0  0  0  0  0  0
  186.3540  178.7040  141.0690 O   0  0  0  0  0  0  0  0  0  0  0  0
  185.2900  179.4230  141.6720 C   0  0  0  0  0  2  0  0  0  0  0  0
  184.2540  178.2880  143.6350 C   0  0  0  0  0  3  0  0  0  0  0  0
  184.3210  178.4750  142.3110 C   0  0  0  0  0  3  0  0  0  0  0  0
  185.1430  178.9920  144.6140 C   0  0  0  0  0  2  0  0  0  0  0  0
  184.7020  178.6940  146.0350 C   0  0  0  0  0  2  0  0  0  0  0  0
  185.9040  178.7310  146.9530 C   0  0  0  0  0  2  0  0  0  0  0  0
  187.0650  178.0170  146.2910 C   0  0  0  0  0  2  0  0  0  0  0  0
  187.6820  177.1750  147.2150 O   0  0  0  0  0  0  0  0  0  0  0  0
  188.7800  177.9020  147.6720 C   0  0  0  0  0  1  0  0  0  0  0  0
  1  2  2  0  0  0  0
  1  8  1  0  0  0  0
  3  9  1  0  0  0  0
  4  7  2  0  0  0  0
  6  5  1  0  0  0  0
  7  6  1  0  0  0  0
  8 10  1  6  0  0  0
  8  4  1  0  0  0  0
  8  3  1  0  0  0  0
  9  6  2  0  0  0  0
 11 10  1  0  0  0  0
 12 13  2  0  0  0  0
 13  1  1  0  0  0  0
 14 13  1  0  0  0  0
 15 14  1  0  0  0  0
 16 17  1  0  0  0  0
 16  2  1  0  0  0  0
 17 19  1  0  0  0  0
 18 20  1  0  0  0  0
 19 18  2  0  0  0  0
 20 21  1  0  0  0  0
 21 22  1  0  0  0  0
 23 22  1  0  0  0  0
 23 24  1  0  0  0  0
 24 25  1  0  0  0  0
M  END
>  <MODEL>
4

>  <REMARK>
 VINA RESULT:      -6.4      1.374      1.966
  Name = 
  12 active torsions:
  status: ('A' for Active; 'I' for Inactive)
    1  A    between atoms: C_1  and  C_18
    2  A    between atoms: C_1  and  C_24
    3  A    between atoms: C_2  and  O_7
    4  A    between atoms: C_2  and  C_25
    5  A    between atoms: C_3  and  O_16
    6  A    between atoms: C_6  and  C_15
    7  A    between atoms: C_6  and  C_21
    8  A    between atoms: O_13  and  C_24
    9  A    between atoms: O_16  and  C_23
   10  A    between atoms: C_17  and  C_18
   11  A    between atoms: C_20  and  C_23
   12  A    between atoms: C_21  and  C_25
                            x       y       z     vdW  Elec       q    Type
                         _______ _______ _______ _____ _____    ______ ____

>  <TORSDO>
F 12

$$$$
=
 OpenBabel11052412543D

 25 25  0  0  1  0  0  0  0  0999 V2000
  188.6430  177.6290  143.7800 C   0  0  0  0  0  0  0  0  0  0  0  0
  187.4280  177.3450  144.2780 C   0  0  0  0  0  3  0  0  0  0  0  0
  190.7870  176.5230  144.5280 C   0  0  0  0  0  2  0  0  0  0  0  0
  189.3040  177.7360  146.1460 C   0  0  0  0  0  3  0  0  0  0  0  0
  192.1850  176.3860  148.0010 O   0  0  0  0  0  1  0  0  0  0  0  0
  191.3390  176.6400  146.9310 C   0  0  0  0  0  0  0  0  0  0  0  0
  190.0220  177.2560  147.1680 C   0  0  0  0  0  3  0  0  0  0  0  0
  189.8380  177.7310  144.7300 C   0  0  2  0  0  0  0  0  0  0  0  0
  191.7250  176.3310  145.6910 C   0  0  0  0  0  3  0  0  0  0  0  0
  190.6480  179.0330  144.5400 C   0  0  0  0  0  2  0  0  0  0  0  0
  191.8470  178.8640  143.6150 C   0  0  0  0  0  1  0  0  0  0  0  0
  188.5180  178.7290  141.6580 O   0  0  0  0  0  0  0  0  0  0  0  0
  188.8610  177.7030  142.3080 C   0  0  0  0  0  0  0  0  0  0  0  0
  189.4570  176.6290  141.6430 O   0  0  0  0  0  0  0  0  0  0  0  0
  190.4150  176.8200  140.6120 C   0  0  0  0  0  1  0  0  0  0  0  0
  186.3030  177.1570  143.4800 O   0  0  0  0  0  0  0  0  0  0  0  0
  185.3500  178.1960  143.3170 C   0  0  0  0  0  2  0  0  0  0  0  0
  183.5770  179.0630  144.8390 C   0  0  0  0  0  3  0  0  0  0  0  0
  184.8330  178.6380  144.6520 C   0  0  0  0  0  3  0  0  0  0  0  0
  182.5640  179.1530  143.7390 C   0  0  0  0  0  2  0  0  0  0  0  0
  181.2760  178.4650  144.1530 C   0  0  0  0  0  2  0  0  0  0  0  0
  180.2340  178.6550  143.0710 C   0  0  0  0  0  2  0  0  0  0  0  0
  180.8960  179.2150  141.8290 C   0  0  0  0  0  2  0  0  0  0  0  0
  179.9340  179.8300  141.0280 O   0  0  0  0  0  0  0  0  0  0  0  0
  179.3670  180.8040  141.8480 C   0  0  0  0  0  1  0  0  0  0  0  0
  1  2  2  0  0  0  0
  1  8  1  0  0  0  0
  3  8  1  0  0  0  0
  3  9  1  0  0  0  0
  4  7  2  0  0  0  0
  6  7  1  0  0  0  0
  6  5  1  0  0  0  0
  8 10  1  6  0  0  0
  8  4  1  0  0  0  0
  9  6  2  0  0  0  0
 11 10  1  0  0  0  0
 12 13  2  0  0  0  0
 13  1  1  0  0  0  0
 14 13  1  0  0  0  0
 15 14  1  0  0  0  0
 16  2  1  0  0  0  0
 17 16  1  0  0  0  0
 17 19  1  0  0  0  0
 19 18  2  0  0  0  0
 20 21  1  0  0  0  0
 20 18  1  0  0  0  0
 22 21  1  0  0  0  0
 23 22  1  0  0  0  0
 24 23  1  0  0  0  0
 24 25  1  0  0  0  0
M  END
>  <MODEL>
5

>  <REMARK>
 VINA RESULT:      -6.3      2.449      4.106
  Name = 
  12 active torsions:
  status: ('A' for Active; 'I' for Inactive)
    1  A    between atoms: C_1  and  C_18
    2  A    between atoms: C_1  and  C_24
    3  A    between atoms: C_2  and  O_7
    4  A    between atoms: C_2  and  C_25
    5  A    between atoms: C_3  and  O_16
    6  A    between atoms: C_6  and  C_15
    7  A    between atoms: C_6  and  C_21
    8  A    between atoms: O_13  and  C_24
    9  A    between atoms: O_16  and  C_23
   10  A    between atoms: C_17  and  C_18
   11  A    between atoms: C_20  and  C_23
   12  A    between atoms: C_21  and  C_25
                            x       y       z     vdW  Elec       q    Type
                         _______ _______ _______ _____ _____    ______ ____

>  <TORSDO>
F 12

$$$$
=
 OpenBabel11052412543D

 25 25  0  0  1  0  0  0  0  0999 V2000
  188.4530  177.4230  144.4280 C   0  0  0  0  0  0  0  0  0  0  0  0
  187.2890  177.7450  145.0180 C   0  0  0  0  0  3  0  0  0  0  0  0
  190.7240  176.4130  144.8760 C   0  0  0  0  0  2  0  0  0  0  0  0
  189.4190  177.5570  146.6850 C   0  0  0  0  0  3  0  0  0  0  0  0
  192.5780  176.3350  148.1300 O   0  0  0  0  0  1  0  0  0  0  0  0
  191.5860  176.5510  147.1840 C   0  0  0  0  0  0  0  0  0  0  0  0
  190.2870  177.1090  147.5990 C   0  0  0  0  0  3  0  0  0  0  0  0
  189.7580  177.5770  145.2110 C   0  0  2  0  0  0  0  0  0  0  0  0
  191.8160  176.2620  145.9020 C   0  0  0  0  0  3  0  0  0  0  0  0
  190.4770  178.9140  144.9240 C   0  0  0  0  0  2  0  0  0  0  0  0
  191.4010  178.8510  143.7130 C   0  0  0  0  0  1  0  0  0  0  0  0
  188.3220  175.5400  142.9560 O   0  0  0  0  0  0  0  0  0  0  0  0
  188.4700  176.7870  143.0810 C   0  0  0  0  0  0  0  0  0  0  0  0
  188.6450  177.5800  141.9450 O   0  0  0  0  0  0  0  0  0  0  0  0
  189.5110  177.1990  140.8870 C   0  0  0  0  0  1  0  0  0  0  0  0
  186.0500  177.5640  144.4070 O   0  0  0  0  0  0  0  0  0  0  0  0
  185.5190  178.5540  143.5420 C   0  0  0  0  0  2  0  0  0  0  0  0
  183.1590  178.6830  142.7500 C   0  0  0  0  0  3  0  0  0  0  0  0
  184.0420  178.6910  143.7560 C   0  0  0  0  0  3  0  0  0  0  0  0
  183.5500  178.5480  141.3100 C   0  0  0  0  0  2  0  0  0  0  0  0
  182.3450  178.1690  140.4700 C   0  0  0  0  0  2  0  0  0  0  0  0
  182.5470  176.7830  139.8960 C   0  0  0  0  0  2  0  0  0  0  0  0
  181.2470  176.2950  139.2930 C   0  0  0  0  0  2  0  0  0  0  0  0
  180.7830  175.1950  140.0150 O   0  0  0  0  0  0  0  0  0  0  0  0
  179.5150  175.5740  140.4530 C   0  0  0  0  0  1  0  0  0  0  0  0
  1  2  2  0  0  0  0
  1  8  1  0  0  0  0
  3  8  1  0  0  0  0
  3  9  1  0  0  0  0
  4  7  2  0  0  0  0
  6  7  1  0  0  0  0
  6  5  1  0  0  0  0
  8 10  1  6  0  0  0
  8  4  1  0  0  0  0
  9  6  2  0  0  0  0
 11 10  1  0  0  0  0
 12 13  2  0  0  0  0
 13  1  1  0  0  0  0
 14 13  1  0  0  0  0
 15 14  1  0  0  0  0
 16  2  1  0  0  0  0
 17 19  1  0  0  0  0
 17 16  1  0  0  0  0
 18 19  2  0  0  0  0
 20 18  1  0  0  0  0
 21 20  1  0  0  0  0
 22 21  1  0  0  0  0
 23 22  1  0  0  0  0
 23 24  1  0  0  0  0
 24 25  1  0  0  0  0
M  END
>  <MODEL>
6

>  <REMARK>
 VINA RESULT:      -6.0      2.635      4.623
  Name = 
  12 active torsions:
  status: ('A' for Active; 'I' for Inactive)
    1  A    between atoms: C_1  and  C_18
    2  A    between atoms: C_1  and  C_24
    3  A    between atoms: C_2  and  O_7
    4  A    between atoms: C_2  and  C_25
    5  A    between atoms: C_3  and  O_16
    6  A    between atoms: C_6  and  C_15
    7  A    between atoms: C_6  and  C_21
    8  A    between atoms: O_13  and  C_24
    9  A    between atoms: O_16  and  C_23
   10  A    between atoms: C_17  and  C_18
   11  A    between atoms: C_20  and  C_23
   12  A    between atoms: C_21  and  C_25
                            x       y       z     vdW  Elec       q    Type
                         _______ _______ _______ _____ _____    ______ ____

>  <TORSDO>
F 12

$$$$
=
 OpenBabel11052412543D

 25 25  0  0  1  0  0  0  0  0999 V2000
  188.1410  178.1810  141.3740 C   0  0  0  0  0  0  0  0  0  0  0  0
  186.8750  178.5920  141.5590 C   0  0  0  0  0  3  0  0  0  0  0  0
  190.3410  178.3240  142.6040 C   0  0  0  0  0  2  0  0  0  0  0  0
  189.0870  176.1620  142.4090 C   0  0  0  0  0  3  0  0  0  0  0  0
  192.1840  175.5380  144.3000 O   0  0  0  0  0  1  0  0  0  0  0  0
  191.2350  176.2330  143.5640 C   0  0  0  0  0  0  0  0  0  0  0  0
  190.1400  175.5030  142.9040 C   0  0  0  0  0  3  0  0  0  0  0  0
  188.9420  177.6590  142.5680 C   0  0  2  0  0  0  0  0  0  0  0  0
  191.3140  177.5620  143.4660 C   0  0  0  0  0  3  0  0  0  0  0  0
  188.2400  177.9120  143.9200 C   0  0  0  0  0  2  0  0  0  0  0  0
  187.3810  176.7400  144.3800 C   0  0  0  0  0  1  0  0  0  0  0  0
  189.1170  179.1340  139.4070 O   0  0  0  0  0  0  0  0  0  0  0  0
  188.7170  178.0960  140.0020 C   0  0  0  0  0  0  0  0  0  0  0  0
  188.8220  176.8530  139.3730 O   0  0  0  0  0  0  0  0  0  0  0  0
  188.3380  176.6330  138.0570 C   0  0  0  0  0  1  0  0  0  0  0  0
  186.0500  179.0090  140.5170 O   0  0  0  0  0  0  0  0  0  0  0  0
  184.6600  179.2010  140.7280 C   0  0  0  0  0  2  0  0  0  0  0  0
  183.8240  178.3450  142.9150 C   0  0  0  0  0  3  0  0  0  0  0  0
  184.1190  178.1300  141.6270 C   0  0  0  0  0  3  0  0  0  0  0  0
  184.0110  179.6670  143.5950 C   0  0  0  0  0  2  0  0  0  0  0  0
  184.9420  179.5210  144.7840 C   0  0  0  0  0  2  0  0  0  0  0  0
  184.4530  178.3990  145.6730 C   0  0  0  0  0  2  0  0  0  0  0  0
  185.1190  178.5050  147.0290 C   0  0  0  0  0  2  0  0  0  0  0  0
  186.4160  178.9930  146.8730 O   0  0  0  0  0  0  0  0  0  0  0  0
  187.2020  178.1510  147.6580 C   0  0  0  0  0  1  0  0  0  0  0  0
  1  2  2  0  0  0  0
  1  8  1  0  0  0  0
  3  9  1  0  0  0  0
  4  8  1  0  0  0  0
  4  7  2  0  0  0  0
  6  5  1  0  0  0  0
  7  6  1  0  0  0  0
  8  3  1  0  0  0  0
  8 10  1  1  0  0  0
  9  6  2  0  0  0  0
 10 11  1  0  0  0  0
 12 13  2  0  0  0  0
 13  1  1  0  0  0  0
 14 13  1  0  0  0  0
 15 14  1  0  0  0  0
 16 17  1  0  0  0  0
 16  2  1  0  0  0  0
 17 19  1  0  0  0  0
 18 20  1  0  0  0  0
 19 18  2  0  0  0  0
 20 21  1  0  0  0  0
 21 22  1  0  0  0  0
 22 23  1  0  0  0  0
 24 23  1  0  0  0  0
 24 25  1  0  0  0  0
M  END
>  <MODEL>
7

>  <REMARK>
 VINA RESULT:      -5.9      1.640      2.552
  Name = 
  12 active torsions:
  status: ('A' for Active; 'I' for Inactive)
    1  A    between atoms: C_1  and  C_18
    2  A    between atoms: C_1  and  C_24
    3  A    between atoms: C_2  and  O_7
    4  A    between atoms: C_2  and  C_25
    5  A    between atoms: C_3  and  O_16
    6  A    between atoms: C_6  and  C_15
    7  A    between atoms: C_6  and  C_21
    8  A    between atoms: O_13  and  C_24
    9  A    between atoms: O_16  and  C_23
   10  A    between atoms: C_17  and  C_18
   11  A    between atoms: C_20  and  C_23
   12  A    between atoms: C_21  and  C_25
                            x       y       z     vdW  Elec       q    Type
                         _______ _______ _______ _____ _____    ______ ____

>  <TORSDO>
F 12

$$$$
=
 OpenBabel11052412543D

 25 25  0  0  1  0  0  0  0  0999 V2000
  189.0810  177.6820  140.4830 C   0  0  0  0  0  0  0  0  0  0  0  0
  187.9300  178.2410  140.8940 C   0  0  0  0  0  3  0  0  0  0  0  0
  189.1110  178.9340  138.2900 C   0  0  0  0  0  2  0  0  0  0  0  0
  188.4460  176.5200  138.4110 C   0  0  0  0  0  3  0  0  0  0  0  0
  188.2000  177.6150  134.9040 O   0  0  0  0  0  1  0  0  0  0  0  0
  188.4070  177.6970  136.2740 C   0  0  0  0  0  0  0  0  0  0  0  0
  188.0310  176.5670  137.1410 C   0  0  0  0  0  3  0  0  0  0  0  0
  189.3680  177.5730  138.9840 C   0  0  2  0  0  0  0  0  0  0  0  0
  188.9550  178.7960  136.7980 C   0  0  0  0  0  3  0  0  0  0  0  0
  190.8170  177.1300  138.6800 C   0  0  0  0  0  2  0  0  0  0  0  0
  190.9140  175.6900  138.1910 C   0  0  0  0  0  1  0  0  0  0  0  0
  190.9760  178.1490  141.8680 O   0  0  0  0  0  0  0  0  0  0  0  0
  190.1330  177.3000  141.4670 C   0  0  0  0  0  0  0  0  0  0  0  0
  190.1810  175.9920  141.9540 O   0  0  0  0  0  0  0  0  0  0  0  0
  190.8020  175.6720  143.1900 C   0  0  0  0  0  1  0  0  0  0  0  0
  187.6220  178.4500  142.2360 O   0  0  0  0  0  0  0  0  0  0  0  0
  186.9790  177.4390  142.9950 C   0  0  0  0  0  2  0  0  0  0  0  0
  186.4280  178.1250  145.3270 C   0  0  0  0  0  3  0  0  0  0  0  0
  186.0920  178.0560  144.0340 C   0  0  0  0  0  3  0  0  0  0  0  0
  187.7140  177.5870  145.8750 C   0  0  0  0  0  2  0  0  0  0  0  0
  187.7860  177.8170  147.3730 C   0  0  0  0  0  2  0  0  0  0  0  0
  189.2350  177.9060  147.8000 C   0  0  0  0  0  2  0  0  0  0  0  0
  189.9720  176.6650  147.3400 C   0  0  0  0  0  2  0  0  0  0  0  0
  191.2050  177.0300  146.8010 O   0  0  0  0  0  0  0  0  0  0  0  0
  192.0380  175.9450  147.0690 C   0  0  0  0  0  1  0  0  0  0  0  0
  1  2  2  0  0  0  0
  1 13  1  0  0  0  0
  2 16  1  0  0  0  0
  3  8  1  0  0  0  0
  4  8  1  0  0  0  0
  5  6  1  0  0  0  0
  6  9  2  0  0  0  0
  6  7  1  0  0  0  0
  7  4  2  0  0  0  0
  8 10  1  6  0  0  0
  8  1  1  0  0  0  0
  9  3  1  0  0  0  0
 11 10  1  0  0  0  0
 13 12  2  0  0  0  0
 13 14  1  0  0  0  0
 14 15  1  0  0  0  0
 16 17  1  0  0  0  0
 17 19  1  0  0  0  0
 18 20  1  0  0  0  0
 19 18  2  0  0  0  0
 20 21  1  0  0  0  0
 21 22  1  0  0  0  0
 23 22  1  0  0  0  0
 24 25  1  0  0  0  0
 24 23  1  0  0  0  0
M  END
>  <MODEL>
8

>  <REMARK>
 VINA RESULT:      -5.7      2.149      5.723
  Name = 
  12 active torsions:
  status: ('A' for Active; 'I' for Inactive)
    1  A    between atoms: C_1  and  C_18
    2  A    between atoms: C_1  and  C_24
    3  A    between atoms: C_2  and  O_7
    4  A    between atoms: C_2  and  C_25
    5  A    between atoms: C_3  and  O_16
    6  A    between atoms: C_6  and  C_15
    7  A    between atoms: C_6  and  C_21
    8  A    between atoms: O_13  and  C_24
    9  A    between atoms: O_16  and  C_23
   10  A    between atoms: C_17  and  C_18
   11  A    between atoms: C_20  and  C_23
   12  A    between atoms: C_21  and  C_25
                            x       y       z     vdW  Elec       q    Type
                         _______ _______ _______ _____ _____    ______ ____

>  <TORSDO>
F 12

$$$$
=
 OpenBabel11052412543D

 25 25  0  0  1  0  0  0  0  0999 V2000
  189.6660  177.3960  141.4760 C   0  0  0  0  0  0  0  0  0  0  0  0
  188.4990  177.8950  141.0350 C   0  0  0  0  0  3  0  0  0  0  0  0
  190.1350  178.2710  143.7980 C   0  0  0  0  0  2  0  0  0  0  0  0
  190.9390  176.0130  143.0610 C   0  0  0  0  0  3  0  0  0  0  0  0
  192.0460  176.5630  146.5300 O   0  0  0  0  0  1  0  0  0  0  0  0
  191.4650  176.8320  145.2990 C   0  0  0  0  0  0  0  0  0  0  0  0
  191.6810  175.9130  144.1690 C   0  0  0  0  0  3  0  0  0  0  0  0
  189.8110  177.0150  142.9500 C   0  0  2  0  0  0  0  0  0  0  0  0
  190.7050  177.9200  145.1470 C   0  0  0  0  0  3  0  0  0  0  0  0
  188.5430  176.3450  143.5250 C   0  0  0  0  0  2  0  0  0  0  0  0
  187.7230  177.2740  144.4120 C   0  0  0  0  0  1  0  0  0  0  0  0
  191.8500  177.7230  140.5520 O   0  0  0  0  0  0  0  0  0  0  0  0
  190.7650  177.0800  140.5200 C   0  0  0  0  0  0  0  0  0  0  0  0
  190.5930  176.0570  139.5840 O   0  0  0  0  0  0  0  0  0  0  0  0
  190.9680  176.2120  138.2230 C   0  0  0  0  0  1  0  0  0  0  0  0
  188.2560  178.1950  139.6970 O   0  0  0  0  0  0  0  0  0  0  0  0
  187.3830  177.3880  138.9230 C   0  0  0  0  0  2  0  0  0  0  0  0
  185.3120  178.6010  138.2500 C   0  0  0  0  0  3  0  0  0  0  0  0
  186.5760  178.2420  137.9930 C   0  0  0  0  0  3  0  0  0  0  0  0
  184.5690  178.1810  139.4810 C   0  0  0  0  0  2  0  0  0  0  0  0
  184.9560  179.0600  140.6560 C   0  0  0  0  0  2  0  0  0  0  0  0
  184.6560  178.3340  141.9490 C   0  0  0  0  0  2  0  0  0  0  0  0
  185.1560  179.1590  143.1160 C   0  0  0  0  0  2  0  0  0  0  0  0
  184.0700  179.6120  143.8650 O   0  0  0  0  0  0  0  0  0  0  0  0
  184.2380  179.0200  145.1170 C   0  0  0  0  0  1  0  0  0  0  0  0
  1  8  1  0  0  0  0
  2  1  2  0  0  0  0
  3  9  1  0  0  0  0
  4  7  2  0  0  0  0
  6  5  1  0  0  0  0
  7  6  1  0  0  0  0
  8  4  1  0  0  0  0
  8 10  1  1  0  0  0
  8  3  1  0  0  0  0
  9  6  2  0  0  0  0
 10 11  1  0  0  0  0
 13 12  2  0  0  0  0
 13  1  1  0  0  0  0
 14 13  1  0  0  0  0
 15 14  1  0  0  0  0
 16  2  1  0  0  0  0
 17 16  1  0  0  0  0
 18 20  1  0  0  0  0
 19 18  2  0  0  0  0
 19 17  1  0  0  0  0
 20 21  1  0  0  0  0
 21 22  1  0  0  0  0
 22 23  1  0  0  0  0
 23 24  1  0  0  0  0
 24 25  1  0  0  0  0
M  END
>  <MODEL>
9

>  <REMARK>
 VINA RESULT:      -5.7      1.951      3.715
  Name = 
  12 active torsions:
  status: ('A' for Active; 'I' for Inactive)
    1  A    between atoms: C_1  and  C_18
    2  A    between atoms: C_1  and  C_24
    3  A    between atoms: C_2  and  O_7
    4  A    between atoms: C_2  and  C_25
    5  A    between atoms: C_3  and  O_16
    6  A    between atoms: C_6  and  C_15
    7  A    between atoms: C_6  and  C_21
    8  A    between atoms: O_13  and  C_24
    9  A    between atoms: O_16  and  C_23
   10  A    between atoms: C_17  and  C_18
   11  A    between atoms: C_20  and  C_23
   12  A    between atoms: C_21  and  C_25
                            x       y       z     vdW  Elec       q    Type
                         _______ _______ _______ _____ _____    ______ ____

>  <TORSDO>
F 12

$$$$
