=
 OpenBabel11052415123D

 55 58  0  0  1  0  0  0  0  0999 V2000
  187.0040  177.9720  139.8200 C   0  0  0  0  0  1  0  0  0  0  0  0
  181.7150  176.2580  139.8700 O   0  0  0  0  0  1  0  0  0  0  0  0
  183.3610  176.8910  138.2390 C   0  0  1  0  0  3  0  0  0  0  0  0
  184.8320  177.2790  138.0270 C   0  0  2  0  0  3  0  0  0  0  0  0
  184.7110  178.1140  140.8970 C   0  0  2  0  0  3  0  0  0  0  0  0
  183.0290  176.7010  139.7200 C   0  0  1  0  0  3  0  0  0  0  0  0
  182.4040  177.8710  137.5600 C   0  0  0  0  0  1  0  0  0  0  0  0
  185.0440  178.6030  138.4620 O   0  0  0  0  0  0  0  0  0  0  0  0
  185.6190  178.6020  139.7560 C   0  0  2  0  0  3  0  0  0  0  0  0
  183.2390  177.9750  140.5280 C   0  0  0  0  0  2  0  0  0  0  0  0
  184.2570  176.3250  135.8810 O   0  0  0  0  0  1  0  0  0  0  0  0
  185.1860  177.1370  136.5360 C   0  0  2  0  0  3  0  0  0  0  0  0
  186.6270  176.6800  136.2280 C   0  0  2  0  0  3  0  0  0  0  0  0
  186.5690  178.6230  134.5960 C   0  0  0  0  0  1  0  0  0  0  0  0
  187.4460  177.7500  135.4810 C   0  0  1  0  0  3  0  0  0  0  0  0
  189.6000  178.3760  136.5670 O   0  0  0  0  0  0  0  0  0  0  0  0
  188.2400  178.6110  136.4100 C   0  0  0  0  0  0  0  0  0  0  0  0
  187.6860  179.5300  137.0710 O   0  0  0  0  0  1  0  0  0  0  0  0
  186.5840  175.4720  135.4920 O   0  0  0  0  0  0  0  0  0  0  0  0
  186.5120  172.7540  137.8720 O   0  0  0  0  0  1  0  0  0  0  0  0
  187.1820  174.4010  136.2160 C   0  0  2  0  0  0  0  0  0  0  0  0
  185.2200  172.9960  135.8700 C   0  0  2  0  0  3  0  0  0  0  0  0
  187.7410  173.3650  135.2080 C   0  0  2  0  0  3  0  0  0  0  0  0
  186.3680  172.2950  134.6440 S   0  0  0  0  0  0  0  0  0  0  0  0
  186.0350  173.6930  136.9500 C   0  0  1  0  0  3  0  0  0  0  0  0
  184.1530  170.8630  135.8380 O   0  0  0  0  0  0  0  0  0  0  0  0
  184.2680  171.9750  136.4130 C   0  0  0  0  0  0  0  0  0  0  0  0
  183.4650  172.2680  137.5100 O   0  0  0  0  0  1  0  0  0  0  0  0
  188.2180  174.9780  137.2260 C   0  0  0  0  0  2  0  0  0  0  0  0
  189.4810  175.2010  136.6720 O   0  0  0  0  0  0  0  0  0  0  0  0
  190.3730  174.8570  137.6870 C   0  0  0  0  0  2  0  0  0  0  0  0
  190.9720  176.1140  138.2790 C   0  0  0  0  0  1  0  0  0  0  0  0
  188.8720  172.4880  135.7380 C   0  0  0  0  0  2  0  0  0  0  0  0
  189.9080  172.2530  134.6870 C   0  0  0  0  0  3  0  0  0  0  0  0
  191.1890  172.5420  134.9060 C   0  0  0  0  0  2  0  0  0  0  0  0
  184.8850  178.9690  142.1510 C   0  0  0  0  0  2  0  0  0  0  0  0
  184.7100  178.1680  143.4550 C   0  0  1  0  0  3  0  0  0  0  0  0
  187.1300  177.5470  143.5120 C   0  0  0  0  0  3  0  0  0  0  0  0
  188.3930  177.4590  145.5890 C   0  0  0  0  0  0  0  0  0  0  0  0
  186.0460  178.0900  145.6050 C   0  0  0  0  0  3  0  0  0  0  0  0
  187.2420  177.8500  146.2880 C   0  0  0  0  0  3  0  0  0  0  0  0
  188.3270  177.3070  144.1940 C   0  0  0  0  0  3  0  0  0  0  0  0
  185.9880  177.9450  144.2120 C   0  0  0  0  0  0  0  0  0  0  0  0
  189.6180  177.2150  146.2990 N   0  0  0  0  0  0  0  0  0  0  0  0
  189.6250  177.1960  147.6530 O   0  0  0  0  0  1  0  0  0  0  0  0
  190.8700  176.9810  145.5960 C   0  0  0  0  0  1  0  0  0  0  0  0
  183.6420  178.6050  144.2730 O   0  0  0  0  0  0  0  0  0  0  0  0
  182.9560  179.6440  143.6180 C   0  0  0  0  0  2  0  0  0  0  0  0
  180.8330  178.5360  144.3350 C   0  0  0  0  0  3  0  0  0  0  0  0
  179.6090  179.1830  141.9330 C   0  0  0  0  0  0  0  0  0  0  0  0
  180.9320  179.5710  142.1530 C   0  0  0  0  0  3  0  0  0  0  0  0
  179.5110  178.1670  144.0770 C   0  0  0  0  0  3  0  0  0  0  0  0
  181.5490  179.2360  143.3610 C   0  0  0  0  0  0  0  0  0  0  0  0
  178.9390  179.5260  140.6520 C   0  0  0  0  0  1  0  0  0  0  0  0
  178.9320  178.4920  142.8910 N   0  0  0  0  0  0  0  0  0  0  0  0
  3  7  1  1  0  0  0
  3  6  1  0  0  0  0
  4 12  1  6  0  0  0
  4  3  1  0  0  0  0
  4  8  1  0  0  0  0
  5 36  1  1  0  0  0
  6  2  1  6  0  0  0
  6 10  1  0  0  0  0
  8  9  1  0  0  0  0
  9  1  1  6  0  0  0
  9  5  1  0  0  0  0
 10  5  1  0  0  0  0
 12 11  1  1  0  0  0
 13 19  1  6  0  0  0
 13 12  1  0  0  0  0
 15 14  1  1  0  0  0
 15 13  1  0  0  0  0
 15 17  1  0  0  0  0
 17 16  2  0  0  0  0
 17 18  1  0  0  0  0
 19 21  1  0  0  0  0
 21 25  1  0  0  0  0
 21 29  1  1  0  0  0
 22 27  1  1  0  0  0
 22 25  1  0  0  0  0
 23 33  1  1  0  0  0
 23 21  1  0  0  0  0
 24 23  1  0  0  0  0
 24 22  1  0  0  0  0
 25 20  1  1  0  0  0
 26 27  2  0  0  0  0
 27 28  1  0  0  0  0
 30 29  1  0  0  0  0
 30 31  1  0  0  0  0
 31 32  1  0  0  0  0
 34 35  2  0  0  0  0
 34 33  1  0  0  0  0
 37 36  1  6  0  0  0
 37 43  1  0  0  0  0
 37 47  1  0  0  0  0
 38 42  2  0  0  0  0
 38 43  1  0  0  0  0
 39 41  2  0  0  0  0
 39 44  1  0  0  0  0
 40 41  1  0  0  0  0
 42 39  1  0  0  0  0
 43 40  2  0  0  0  0
 44 45  1  0  0  0  0
 46 44  1  0  0  0  0
 48 47  1  0  0  0  0
 50 51  2  0  0  0  0
 50 55  1  0  0  0  0
 51 53  1  0  0  0  0
 52 49  1  0  0  0  0
 53 48  1  0  0  0  0
 53 49  2  0  0  0  0
 54 50  1  0  0  0  0
 55 52  2  0  0  0  0
M  END
>  <MODEL>
1

>  <REMARK>
 VINA RESULT:      -6.6      0.000      0.000
  Name = 
  19 active torsions:
  status: ('A' for Active; 'I' for Inactive)
    1  A    between atoms: C_1  and  C_30
    2  A    between atoms: C_2  and  O_28
    3  A    between atoms: C_2  and  C_44
    4  A    between atoms: C_6  and  O_8
    5  A    between atoms: C_6  and  C_46
    6  A    between atoms: C_7  and  O_8
    7  A    between atoms: C_7  and  C_23
    8  A    between atoms: C_7  and  C_43
    9  A    between atoms: N_10  and  C_32
   10  A    between atoms: C_11  and  C_29
   11  A    between atoms: C_12  and  O_14
   12  A    between atoms: O_14  and  C_46
   13  A    between atoms: C_17  and  C_23
   14  A    between atoms: C_19  and  C_49
   15  A    between atoms: C_20  and  C_30
   16  A    between atoms: O_28  and  C_33
   17  A    between atoms: C_33  and  C_49
   18  A    between atoms: C_33  and  C_52
   19  A    between atoms: C_35  and  C_43
                            x       y       z     vdW  Elec       q    Type
                         _______ _______ _______ _____ _____    ______ ____

>  <TORSDO>
F 19

$$$$
=
 OpenBabel11052415123D

 55 58  0  0  1  0  0  0  0  0999 V2000
  185.9190  178.3740  137.4660 C   0  0  0  0  0  1  0  0  0  0  0  0
  185.6000  173.6210  134.5990 O   0  0  0  0  0  1  0  0  0  0  0  0
  184.0890  175.1750  135.6340 C   0  0  1  0  0  3  0  0  0  0  0  0
  183.9780  176.5290  136.3510 C   0  0  2  0  0  3  0  0  0  0  0  0
  186.8460  176.0490  137.0540 C   0  0  2  0  0  3  0  0  0  0  0  0
  185.5420  174.8060  135.3320 C   0  0  1  0  0  3  0  0  0  0  0  0
  183.3630  174.0630  136.3910 C   0  0  0  0  0  1  0  0  0  0  0  0
  184.4450  176.4080  137.6760 O   0  0  0  0  0  0  0  0  0  0  0  0
  185.7740  176.8890  137.7680 C   0  0  2  0  0  3  0  0  0  0  0  0
  186.3800  174.6720  136.5970 C   0  0  0  0  0  2  0  0  0  0  0  0
  182.3670  178.1520  135.5640 O   0  0  0  0  0  1  0  0  0  0  0  0
  182.5120  176.9960  136.3350 C   0  0  2  0  0  3  0  0  0  0  0  0
  181.8470  177.1710  137.7160 C   0  0  2  0  0  3  0  0  0  0  0  0
  181.5680  175.4850  139.5930 C   0  0  0  0  0  1  0  0  0  0  0  0
  181.1250  175.8980  138.1970 C   0  0  1  0  0  3  0  0  0  0  0  0
  178.9390  176.2440  139.3430 O   0  0  0  0  0  1  0  0  0  0  0  0
  179.6370  176.0390  138.1600 C   0  0  0  0  0  0  0  0  0  0  0  0
  179.0060  175.9510  137.0720 O   0  0  0  0  0  0  0  0  0  0  0  0
  180.9560  178.2690  137.6670 O   0  0  0  0  0  0  0  0  0  0  0  0
  182.1190  181.5110  138.7600 O   0  0  0  0  0  1  0  0  0  0  0  0
  181.2690  179.2370  138.6640 C   0  0  2  0  0  0  0  0  0  0  0  0
  180.2580  181.0150  137.3370 C   0  0  2  0  0  3  0  0  0  0  0  0
  179.9930  179.5300  139.4950 C   0  0  2  0  0  3  0  0  0  0  0  0
  178.9570  180.7260  138.5760 S   0  0  0  0  0  0  0  0  0  0  0  0
  181.5840  180.5360  137.9100 C   0  0  1  0  0  3  0  0  0  0  0  0
  180.8530  182.7150  135.7740 O   0  0  0  0  0  0  0  0  0  0  0  0
  180.2950  182.4360  136.8660 C   0  0  0  0  0  0  0  0  0  0  0  0
  179.7740  183.4570  137.6530 O   0  0  0  0  0  1  0  0  0  0  0  0
  182.5020  178.7530  139.4820 C   0  0  0  0  0  2  0  0  0  0  0  0
  183.5640  179.6600  139.4910 O   0  0  0  0  0  0  0  0  0  0  0  0
  184.3880  179.2240  140.5270 C   0  0  0  0  0  2  0  0  0  0  0  0
  183.7850  177.9910  141.1650 C   0  0  0  0  0  1  0  0  0  0  0  0
  180.2440  180.0650  140.9020 C   0  0  0  0  0  2  0  0  0  0  0  0
  179.6390  179.1690  141.9340 C   0  0  0  0  0  3  0  0  0  0  0  0
  180.3770  178.6460  142.9100 C   0  0  0  0  0  2  0  0  0  0  0  0
  188.1210  175.9480  137.8910 C   0  0  0  0  0  2  0  0  0  0  0  0
  188.7140  177.3220  138.2510 C   0  0  1  0  0  3  0  0  0  0  0  0
  190.0200  177.0850  140.3690 C   0  0  0  0  0  3  0  0  0  0  0  0
  189.1860  177.9080  142.5010 C   0  0  0  0  0  0  0  0  0  0  0  0
  187.8710  178.1900  140.4770 C   0  0  0  0  0  3  0  0  0  0  0  0
  188.0300  178.3680  141.8540 C   0  0  0  0  0  3  0  0  0  0  0  0
  190.1800  177.2630  141.7470 C   0  0  0  0  0  3  0  0  0  0  0  0
  188.8700  177.5530  139.7280 C   0  0  0  0  0  0  0  0  0  0  0  0
  189.3410  178.0960  143.9170 N   0  0  0  0  0  0  0  0  0  0  0  0
  190.5150  178.5490  144.4170 O   0  0  0  0  0  1  0  0  0  0  0  0
  188.2560  177.8140  144.8440 C   0  0  0  0  0  1  0  0  0  0  0  0
  189.8600  177.6810  137.5040 O   0  0  0  0  0  0  0  0  0  0  0  0
  190.0850  176.7090  136.5120 C   0  0  0  0  0  2  0  0  0  0  0  0
  192.2650  176.4510  137.7090 C   0  0  0  0  0  3  0  0  0  0  0  0
  192.6290  173.9220  136.6330 C   0  0  0  0  0  0  0  0  0  0  0  0
  191.4800  174.6460  136.3060 C   0  0  0  0  0  3  0  0  0  0  0  0
  193.3990  175.6950  138.0120 C   0  0  0  0  0  3  0  0  0  0  0  0
  191.3040  175.9240  136.8440 C   0  0  0  0  0  0  0  0  0  0  0  0
  192.8360  172.5640  136.0660 C   0  0  0  0  0  1  0  0  0  0  0  0
  193.5590  174.4590  137.4700 N   0  0  0  0  0  0  0  0  0  0  0  0
  3  4  1  0  0  0  0
  3  7  1  1  0  0  0
  4 12  1  1  0  0  0
  4  8  1  0  0  0  0
  5  9  1  0  0  0  0
  5 36  1  1  0  0  0
  6  2  1  1  0  0  0
  6  3  1  0  0  0  0
  6 10  1  0  0  0  0
  8  9  1  0  0  0  0
  9  1  1  6  0  0  0
 10  5  1  0  0  0  0
 12 11  1  1  0  0  0
 12 13  1  0  0  0  0
 13 19  1  6  0  0  0
 13 15  1  0  0  0  0
 15 14  1  1  0  0  0
 17 15  1  0  0  0  0
 17 16  1  0  0  0  0
 18 17  2  0  0  0  0
 19 21  1  0  0  0  0
 21 29  1  1  0  0  0
 21 23  1  0  0  0  0
 22 27  1  1  0  0  0
 22 25  1  0  0  0  0
 22 24  1  0  0  0  0
 23 33  1  1  0  0  0
 24 23  1  0  0  0  0
 25 21  1  0  0  0  0
 25 20  1  1  0  0  0
 26 27  2  0  0  0  0
 27 28  1  0  0  0  0
 29 30  1  0  0  0  0
 30 31  1  0  0  0  0
 31 32  1  0  0  0  0
 33 34  1  0  0  0  0
 34 35  2  0  0  0  0
 37 36  1  1  0  0  0
 37 43  1  0  0  0  0
 38 42  1  0  0  0  0
 39 44  1  0  0  0  0
 40 41  2  0  0  0  0
 41 39  1  0  0  0  0
 42 39  2  0  0  0  0
 43 38  2  0  0  0  0
 43 40  1  0  0  0  0
 44 45  1  0  0  0  0
 44 46  1  0  0  0  0
 47 37  1  0  0  0  0
 48 53  1  0  0  0  0
 48 47  1  0  0  0  0
 49 52  1  0  0  0  0
 50 55  1  0  0  0  0
 51 50  2  0  0  0  0
 51 53  1  0  0  0  0
 53 49  2  0  0  0  0
 54 50  1  0  0  0  0
 55 52  2  0  0  0  0
M  END
>  <MODEL>
2

>  <REMARK>
 VINA RESULT:      -5.9      3.303      8.945
  Name = 
  19 active torsions:
  status: ('A' for Active; 'I' for Inactive)
    1  A    between atoms: C_1  and  C_30
    2  A    between atoms: C_2  and  O_28
    3  A    between atoms: C_2  and  C_44
    4  A    between atoms: C_6  and  O_8
    5  A    between atoms: C_6  and  C_46
    6  A    between atoms: C_7  and  O_8
    7  A    between atoms: C_7  and  C_23
    8  A    between atoms: C_7  and  C_43
    9  A    between atoms: N_10  and  C_32
   10  A    between atoms: C_11  and  C_29
   11  A    between atoms: C_12  and  O_14
   12  A    between atoms: O_14  and  C_46
   13  A    between atoms: C_17  and  C_23
   14  A    between atoms: C_19  and  C_49
   15  A    between atoms: C_20  and  C_30
   16  A    between atoms: O_28  and  C_33
   17  A    between atoms: C_33  and  C_49
   18  A    between atoms: C_33  and  C_52
   19  A    between atoms: C_35  and  C_43
                            x       y       z     vdW  Elec       q    Type
                         _______ _______ _______ _____ _____    ______ ____

>  <TORSDO>
F 19

$$$$
=
 OpenBabel11052415123D

 55 58  0  0  1  0  0  0  0  0999 V2000
  186.1210  177.3400  137.9740 C   0  0  0  0  0  1  0  0  0  0  0  0
  183.6380  178.1890  142.8760 O   0  0  0  0  0  1  0  0  0  0  0  0
  183.0320  178.2090  140.5520 C   0  0  1  0  0  3  0  0  0  0  0  0
  183.5220  177.9180  139.1250 C   0  0  2  0  0  3  0  0  0  0  0  0
  186.2410  178.3630  140.2920 C   0  0  2  0  0  3  0  0  0  0  0  0
  184.1410  178.0100  141.5870 C   0  0  1  0  0  3  0  0  0  0  0  0
  182.3840  179.5880  140.6670 C   0  0  0  0  0  1  0  0  0  0  0  0
  184.3940  178.9430  138.7010 O   0  0  0  0  0  0  0  0  0  0  0  0
  185.7390  178.5270  138.8470 C   0  0  2  0  0  3  0  0  0  0  0  0
  185.3200  178.9460  141.3580 C   0  0  0  0  0  2  0  0  0  0  0  0
  181.4070  178.8530  138.4190 O   0  0  0  0  0  1  0  0  0  0  0  0
  182.3110  177.8150  138.1810 C   0  0  2  0  0  3  0  0  0  0  0  0
  181.5880  176.4520  138.1620 C   0  0  2  0  0  3  0  0  0  0  0  0
  179.6420  177.3210  139.5410 C   0  0  0  0  0  1  0  0  0  0  0  0
  180.6950  176.2320  139.3980 C   0  0  1  0  0  3  0  0  0  0  0  0
  179.2620  174.5120  138.3030 O   0  0  0  0  0  0  0  0  0  0  0  0
  180.0360  174.8900  139.3920 C   0  0  0  0  0  0  0  0  0  0  0  0
  180.1550  174.1080  140.3740 O   0  0  0  0  0  1  0  0  0  0  0  0
  182.5480  175.4190  138.0420 O   0  0  0  0  0  0  0  0  0  0  0  0
  184.1310  174.5750  134.9060 O   0  0  0  0  0  1  0  0  0  0  0  0
  182.5530  174.8640  136.7310 C   0  0  2  0  0  0  0  0  0  0  0  0
  184.7390  173.8500  137.1060 C   0  0  2  0  0  3  0  0  0  0  0  0
  182.1660  173.3650  136.8190 C   0  0  2  0  0  3  0  0  0  0  0  0
  183.6500  172.4040  137.2950 S   0  0  0  0  0  0  0  0  0  0  0  0
  184.0150  174.8920  136.2640 C   0  0  1  0  0  3  0  0  0  0  0  0
  186.2790  172.3340  136.0980 O   0  0  0  0  0  0  0  0  0  0  0  0
  186.0870  173.4850  136.5660 C   0  0  0  0  0  0  0  0  0  0  0  0
  187.1440  174.3860  136.6340 O   0  0  0  0  0  1  0  0  0  0  0  0
  181.6540  175.7320  135.8020 C   0  0  0  0  0  2  0  0  0  0  0  0
  182.3720  176.5780  134.9520 O   0  0  0  0  0  0  0  0  0  0  0  0
  181.4600  177.5710  134.5960 C   0  0  0  0  0  2  0  0  0  0  0  0
  180.0530  177.0780  134.8530 C   0  0  0  0  0  1  0  0  0  0  0  0
  181.5750  172.7710  135.5440 C   0  0  0  0  0  2  0  0  0  0  0  0
  180.2750  172.0870  135.8230 C   0  0  0  0  0  3  0  0  0  0  0  0
  180.1830  170.7590  135.8250 C   0  0  0  0  0  2  0  0  0  0  0  0
  187.6660  178.8910  140.4490 C   0  0  0  0  0  2  0  0  0  0  0  0
  188.6830  177.7840  140.7840 C   0  0  1  0  0  3  0  0  0  0  0  0
  189.3080  177.9370  138.3690 C   0  0  0  0  0  3  0  0  0  0  0  0
  191.1330  176.6370  137.4210 C   0  0  0  0  0  0  0  0  0  0  0  0
  190.5920  176.4530  139.7830 C   0  0  0  0  0  3  0  0  0  0  0  0
  191.3750  176.0820  138.6860 C   0  0  0  0  0  3  0  0  0  0  0  0
  190.0910  177.5670  137.2710 C   0  0  0  0  0  3  0  0  0  0  0  0
  189.5590  177.3880  139.6290 C   0  0  0  0  0  0  0  0  0  0  0  0
  191.9420  176.2510  136.2990 N   0  0  0  0  0  0  0  0  0  0  0  0
  193.2840  176.1270  136.4400 O   0  0  0  0  0  1  0  0  0  0  0  0
  191.3560  175.9800  134.9950 C   0  0  0  0  0  1  0  0  0  0  0  0
  189.4000  177.9900  141.9860 O   0  0  0  0  0  0  0  0  0  0  0  0
  188.5090  177.9140  143.0720 C   0  0  0  0  0  2  0  0  0  0  0  0
  190.6450  177.4510  144.2840 C   0  0  0  0  0  3  0  0  0  0  0  0
  189.2980  177.2050  146.6950 C   0  0  0  0  0  0  0  0  0  0  0  0
  188.5770  177.4900  145.5340 C   0  0  0  0  0  3  0  0  0  0  0  0
  191.3310  177.1670  145.4670 C   0  0  0  0  0  3  0  0  0  0  0  0
  189.2570  177.6060  144.3190 C   0  0  0  0  0  0  0  0  0  0  0  0
  188.5900  177.0740  147.9940 C   0  0  0  0  0  1  0  0  0  0  0  0
  190.6490  177.0480  146.6370 N   0  0  0  0  0  0  0  0  0  0  0  0
  3  7  1  6  0  0  0
  3  6  1  0  0  0  0
  4 12  1  6  0  0  0
  4  3  1  0  0  0  0
  5 36  1  6  0  0  0
  5 10  1  0  0  0  0
  6  2  1  1  0  0  0
  8  9  1  0  0  0  0
  8  4  1  0  0  0  0
  9  1  1  6  0  0  0
  9  5  1  0  0  0  0
 10  6  1  0  0  0  0
 12 11  1  1  0  0  0
 13 19  1  1  0  0  0
 13 12  1  0  0  0  0
 13 15  1  0  0  0  0
 15 14  1  6  0  0  0
 16 17  2  0  0  0  0
 17 15  1  0  0  0  0
 17 18  1  0  0  0  0
 21 29  1  6  0  0  0
 21 23  1  0  0  0  0
 21 19  1  0  0  0  0
 22 27  1  6  0  0  0
 22 24  1  0  0  0  0
 23 33  1  6  0  0  0
 23 24  1  0  0  0  0
 25 20  1  6  0  0  0
 25 21  1  0  0  0  0
 25 22  1  0  0  0  0
 26 27  2  0  0  0  0
 27 28  1  0  0  0  0
 30 29  1  0  0  0  0
 31 32  1  0  0  0  0
 31 30  1  0  0  0  0
 33 34  1  0  0  0  0
 34 35  2  0  0  0  0
 37 36  1  6  0  0  0
 37 47  1  0  0  0  0
 38 43  1  0  0  0  0
 39 41  2  0  0  0  0
 41 40  1  0  0  0  0
 42 39  1  0  0  0  0
 42 38  2  0  0  0  0
 43 40  2  0  0  0  0
 43 37  1  0  0  0  0
 44 45  1  0  0  0  0
 44 39  1  0  0  0  0
 46 44  1  0  0  0  0
 47 48  1  0  0  0  0
 48 53  1  0  0  0  0
 49 53  2  0  0  0  0
 49 52  1  0  0  0  0
 50 54  1  0  0  0  0
 51 50  2  0  0  0  0
 52 55  2  0  0  0  0
 53 51  1  0  0  0  0
 55 50  1  0  0  0  0
M  END
>  <MODEL>
3

>  <REMARK>
 VINA RESULT:      -5.2      2.947      7.288
  Name = 
  19 active torsions:
  status: ('A' for Active; 'I' for Inactive)
    1  A    between atoms: C_1  and  C_30
    2  A    between atoms: C_2  and  O_28
    3  A    between atoms: C_2  and  C_44
    4  A    between atoms: C_6  and  O_8
    5  A    between atoms: C_6  and  C_46
    6  A    between atoms: C_7  and  O_8
    7  A    between atoms: C_7  and  C_23
    8  A    between atoms: C_7  and  C_43
    9  A    between atoms: N_10  and  C_32
   10  A    between atoms: C_11  and  C_29
   11  A    between atoms: C_12  and  O_14
   12  A    between atoms: O_14  and  C_46
   13  A    between atoms: C_17  and  C_23
   14  A    between atoms: C_19  and  C_49
   15  A    between atoms: C_20  and  C_30
   16  A    between atoms: O_28  and  C_33
   17  A    between atoms: C_33  and  C_49
   18  A    between atoms: C_33  and  C_52
   19  A    between atoms: C_35  and  C_43
                            x       y       z     vdW  Elec       q    Type
                         _______ _______ _______ _____ _____    ______ ____

>  <TORSDO>
F 19

$$$$
=
 OpenBabel11052415123D

 55 58  0  0  1  0  0  0  0  0999 V2000
  187.3620  179.3850  140.2780 C   0  0  0  0  0  1  0  0  0  0  0  0
  192.4050  177.1220  139.6740 O   0  0  0  0  0  1  0  0  0  0  0  0
  190.2960  177.0900  138.5260 C   0  0  1  0  0  3  0  0  0  0  0  0
  188.8840  177.6940  138.4780 C   0  0  2  0  0  3  0  0  0  0  0  0
  189.3620  178.2730  141.3740 C   0  0  2  0  0  3  0  0  0  0  0  0
  191.1010  177.6160  139.7150 C   0  0  1  0  0  3  0  0  0  0  0  0
  190.2690  175.5620  138.4850 C   0  0  0  0  0  1  0  0  0  0  0  0
  188.0990  177.1570  139.5200 O   0  0  0  0  0  0  0  0  0  0  0  0
  188.0460  178.0650  140.6050 C   0  0  2  0  0  3  0  0  0  0  0  0
  190.4580  177.2650  141.0500 C   0  0  0  0  0  2  0  0  0  0  0  0
  187.8940  178.5760  136.4560 O   0  0  0  0  0  1  0  0  0  0  0  0
  188.2460  177.3930  137.1100 C   0  0  2  0  0  3  0  0  0  0  0  0
  187.0660  176.4000  137.1230 C   0  0  2  0  0  3  0  0  0  0  0  0
  187.0280  176.1920  134.5940 C   0  0  0  0  0  1  0  0  0  0  0  0
  187.0780  175.4420  135.9160 C   0  0  1  0  0  3  0  0  0  0  0  0
  189.3960  174.8580  135.2120 O   0  0  0  0  0  0  0  0  0  0  0  0
  188.2570  174.5230  135.9320 C   0  0  0  0  0  0  0  0  0  0  0  0
  188.2200  173.4360  136.5690 O   0  0  0  0  0  1  0  0  0  0  0  0
  185.8510  177.1230  137.1810 O   0  0  0  0  0  0  0  0  0  0  0  0
  182.9750  175.8620  138.9700 O   0  0  0  0  0  1  0  0  0  0  0  0
  184.7350  176.2530  137.3400 C   0  0  2  0  0  0  0  0  0  0  0  0
  183.3500  178.0850  138.1600 C   0  0  2  0  0  3  0  0  0  0  0  0
  183.7720  176.4490  136.1400 C   0  0  2  0  0  3  0  0  0  0  0  0
  182.7390  177.9270  136.4530 S   0  0  0  0  0  0  0  0  0  0  0  0
  183.9740  176.7590  138.5730 C   0  0  1  0  0  3  0  0  0  0  0  0
  181.1670  178.9040  138.6600 O   0  0  0  0  0  0  0  0  0  0  0  0
  182.2910  178.5610  139.1060 C   0  0  0  0  0  0  0  0  0  0  0  0
  182.5590  178.6860  140.4650 O   0  0  0  0  0  1  0  0  0  0  0  0
  185.2440  174.7980  137.5570 C   0  0  0  0  0  2  0  0  0  0  0  0
  184.2320  173.8870  137.8690 O   0  0  0  0  0  0  0  0  0  0  0  0
  184.8320  172.6360  137.7260 C   0  0  0  0  0  2  0  0  0  0  0  0
  184.8110  172.2300  136.2690 C   0  0  0  0  0  1  0  0  0  0  0  0
  182.8650  175.2610  135.8350 C   0  0  0  0  0  2  0  0  0  0  0  0
  181.4260  175.6670  135.8420 C   0  0  0  0  0  3  0  0  0  0  0  0
  180.4890  174.8920  135.3000 C   0  0  0  0  0  2  0  0  0  0  0  0
  189.1180  178.3540  142.8810 C   0  0  0  0  0  2  0  0  0  0  0  0
  189.0340  176.9710  143.5520 C   0  0  1  0  0  3  0  0  0  0  0  0
  191.1580  176.1860  144.6110 C   0  0  0  0  0  3  0  0  0  0  0  0
  191.5960  176.4630  146.9880 C   0  0  0  0  0  0  0  0  0  0  0  0
  189.5170  177.2680  146.0210 C   0  0  0  0  0  3  0  0  0  0  0  0
  190.3510  177.0910  147.1290 C   0  0  0  0  0  3  0  0  0  0  0  0
  191.9930  176.0100  145.7190 C   0  0  0  0  0  3  0  0  0  0  0  0
  189.9220  176.8210  144.7560 C   0  0  0  0  0  0  0  0  0  0  0  0
  192.4460  176.2870  148.1320 N   0  0  0  0  0  0  0  0  0  0  0  0
  193.2690  175.2130  148.2080 O   0  0  0  0  0  1  0  0  0  0  0  0
  192.4550  177.2440  149.2280 C   0  0  0  0  0  1  0  0  0  0  0  0
  187.7180  176.5000  143.7630 O   0  0  0  0  0  0  0  0  0  0  0  0
  186.8090  177.3830  143.1520 C   0  0  0  0  0  2  0  0  0  0  0  0
  186.1770  177.9250  145.5080 C   0  0  0  0  0  3  0  0  0  0  0  0
  183.6610  178.7710  144.7060 C   0  0  0  0  0  0  0  0  0  0  0  0
  184.5660  178.3080  143.7480 C   0  0  0  0  0  3  0  0  0  0  0  0
  185.2440  178.3950  146.4360 C   0  0  0  0  0  3  0  0  0  0  0  0
  185.8300  177.8750  144.1570 C   0  0  0  0  0  0  0  0  0  0  0  0
  182.3110  179.2300  144.2900 C   0  0  0  0  0  1  0  0  0  0  0  0
  184.0150  178.8020  146.0200 N   0  0  0  0  0  0  0  0  0  0  0  0
  3  7  1  1  0  0  0
  3  6  1  0  0  0  0
  4 12  1  6  0  0  0
  4  3  1  0  0  0  0
  4  8  1  0  0  0  0
  5 36  1  1  0  0  0
  6  2  1  1  0  0  0
  6 10  1  0  0  0  0
  8  9  1  0  0  0  0
  9  1  1  6  0  0  0
  9  5  1  0  0  0  0
 10  5  1  0  0  0  0
 12 11  1  1  0  0  0
 12 13  1  0  0  0  0
 13 19  1  6  0  0  0
 15 14  1  6  0  0  0
 15 17  1  0  0  0  0
 15 13  1  0  0  0  0
 16 17  2  0  0  0  0
 17 18  1  0  0  0  0
 19 21  1  0  0  0  0
 21 29  1  1  0  0  0
 21 25  1  0  0  0  0
 22 25  1  0  0  0  0
 22 27  1  1  0  0  0
 23 33  1  1  0  0  0
 23 24  1  0  0  0  0
 23 21  1  0  0  0  0
 24 22  1  0  0  0  0
 25 20  1  6  0  0  0
 26 27  2  0  0  0  0
 27 28  1  0  0  0  0
 29 30  1  0  0  0  0
 31 30  1  0  0  0  0
 32 31  1  0  0  0  0
 33 34  1  0  0  0  0
 35 34  2  0  0  0  0
 37 36  1  1  0  0  0
 37 47  1  0  0  0  0
 37 43  1  0  0  0  0
 38 43  2  0  0  0  0
 38 42  1  0  0  0  0
 39 41  1  0  0  0  0
 39 44  1  0  0  0  0
 40 41  2  0  0  0  0
 42 39  2  0  0  0  0
 43 40  1  0  0  0  0
 44 45  1  0  0  0  0
 44 46  1  0  0  0  0
 48 47  1  0  0  0  0
 48 53  1  0  0  0  0
 49 52  1  0  0  0  0
 50 55  1  0  0  0  0
 51 53  1  0  0  0  0
 51 50  2  0  0  0  0
 53 49  2  0  0  0  0
 54 50  1  0  0  0  0
 55 52  2  0  0  0  0
M  END
>  <MODEL>
4

>  <REMARK>
 VINA RESULT:      -5.0      2.433      5.498
  Name = 
  19 active torsions:
  status: ('A' for Active; 'I' for Inactive)
    1  A    between atoms: C_1  and  C_30
    2  A    between atoms: C_2  and  O_28
    3  A    between atoms: C_2  and  C_44
    4  A    between atoms: C_6  and  O_8
    5  A    between atoms: C_6  and  C_46
    6  A    between atoms: C_7  and  O_8
    7  A    between atoms: C_7  and  C_23
    8  A    between atoms: C_7  and  C_43
    9  A    between atoms: N_10  and  C_32
   10  A    between atoms: C_11  and  C_29
   11  A    between atoms: C_12  and  O_14
   12  A    between atoms: O_14  and  C_46
   13  A    between atoms: C_17  and  C_23
   14  A    between atoms: C_19  and  C_49
   15  A    between atoms: C_20  and  C_30
   16  A    between atoms: O_28  and  C_33
   17  A    between atoms: C_33  and  C_49
   18  A    between atoms: C_33  and  C_52
   19  A    between atoms: C_35  and  C_43
                            x       y       z     vdW  Elec       q    Type
                         _______ _______ _______ _____ _____    ______ ____

>  <TORSDO>
F 19

$$$$
=
 OpenBabel11052415123D

 55 58  0  0  1  0  0  0  0  0999 V2000
  185.9680  178.1380  136.9700 C   0  0  0  0  0  1  0  0  0  0  0  0
  187.9310  173.3710  134.8870 O   0  0  0  0  0  1  0  0  0  0  0  0
  186.0530  174.0950  136.1980 C   0  0  1  0  0  3  0  0  0  0  0  0
  185.3160  175.3190  136.7650 C   0  0  2  0  0  3  0  0  0  0  0  0
  187.9800  176.6590  136.5190 C   0  0  2  0  0  3  0  0  0  0  0  0
  187.3390  174.4920  135.4690 C   0  0  1  0  0  3  0  0  0  0  0  0
  186.3070  173.0310  137.2660 C   0  0  0  0  0  1  0  0  0  0  0  0
  186.0310  175.8400  137.8630 O   0  0  0  0  0  0  0  0  0  0  0  0
  186.7980  176.9580  137.4570 C   0  0  2  0  0  3  0  0  0  0  0  0
  188.3360  175.1820  136.3900 C   0  0  0  0  0  2  0  0  0  0  0  0
  183.5880  173.6290  136.7150 O   0  0  0  0  0  1  0  0  0  0  0  0
  183.8960  174.9060  137.1900 C   0  0  2  0  0  3  0  0  0  0  0  0
  182.7740  175.9050  136.8450 C   0  0  2  0  0  3  0  0  0  0  0  0
  181.9090  174.7530  134.7550 C   0  0  0  0  0  1  0  0  0  0  0  0
  182.5220  176.0220  135.3290 C   0  0  1  0  0  3  0  0  0  0  0  0
  182.2660  178.4000  134.6300 O   0  0  0  0  0  0  0  0  0  0  0  0
  181.6670  177.1980  134.9830 C   0  0  0  0  0  0  0  0  0  0  0  0
  180.4100  177.1190  135.0300 O   0  0  0  0  0  1  0  0  0  0  0  0
  183.0870  177.1670  137.4030 O   0  0  0  0  0  0  0  0  0  0  0  0
  182.1350  177.4530  140.8770 O   0  0  0  0  0  1  0  0  0  0  0  0
  182.1840  177.5120  138.4490 C   0  0  2  0  0  0  0  0  0  0  0  0
  183.9900  178.4840  139.7670 C   0  0  2  0  0  3  0  0  0  0  0  0
  181.8440  179.0210  138.3400 C   0  0  2  0  0  3  0  0  0  0  0  0
  183.1960  179.9840  139.1110 S   0  0  0  0  0  0  0  0  0  0  0  0
  182.9700  177.3540  139.7570 C   0  0  1  0  0  3  0  0  0  0  0  0
  185.2640  179.7600  141.3270 O   0  0  0  0  0  0  0  0  0  0  0  0
  184.6140  178.7060  141.1100 C   0  0  0  0  0  0  0  0  0  0  0  0
  184.5340  177.7320  142.0990 O   0  0  0  0  0  1  0  0  0  0  0  0
  180.9620  176.5480  138.4120 C   0  0  0  0  0  2  0  0  0  0  0  0
  180.9260  175.6430  139.4760 O   0  0  0  0  0  0  0  0  0  0  0  0
  179.5670  175.4100  139.6900 C   0  0  0  0  0  2  0  0  0  0  0  0
  179.3990  174.4050  140.8080 C   0  0  0  0  0  1  0  0  0  0  0  0
  180.5160  179.4340  138.9680 C   0  0  0  0  0  2  0  0  0  0  0  0
  180.5120  180.8890  139.3090 C   0  0  0  0  0  3  0  0  0  0  0  0
  179.3740  181.5390  139.5430 C   0  0  0  0  0  2  0  0  0  0  0  0
  189.2070  177.4900  136.8880 C   0  0  0  0  0  2  0  0  0  0  0  0
  189.9320  176.9680  138.1420 C   0  0  1  0  0  3  0  0  0  0  0  0
  191.5770  175.7540  136.7040 C   0  0  0  0  0  3  0  0  0  0  0  0
  193.8990  175.4540  137.3660 C   0  0  0  0  0  0  0  0  0  0  0  0
  192.3580  176.6620  138.8060 C   0  0  0  0  0  3  0  0  0  0  0  0
  193.6370  176.1610  138.5480 C   0  0  0  0  0  3  0  0  0  0  0  0
  192.8570  175.2530  136.4460 C   0  0  0  0  0  3  0  0  0  0  0  0
  191.3240  176.4650  137.8800 C   0  0  0  0  0  0  0  0  0  0  0  0
  195.2160  174.9440  137.1100 N   0  0  0  0  0  0  0  0  0  0  0  0
  196.0300  175.5740  136.2290 O   0  0  0  0  0  1  0  0  0  0  0  0
  195.7150  173.7530  137.7820 C   0  0  0  0  0  1  0  0  0  0  0  0
  189.8470  177.8200  139.2670 O   0  0  0  0  0  0  0  0  0  0  0  0
  188.6340  177.5770  139.9380 C   0  0  0  0  0  2  0  0  0  0  0  0
  187.9310  177.6440  142.3360 C   0  0  0  0  0  3  0  0  0  0  0  0
  190.3300  176.5070  143.1380 C   0  0  0  0  0  0  0  0  0  0  0  0
  190.1030  176.7420  141.7790 C   0  0  0  0  0  3  0  0  0  0  0  0
  188.1950  177.3930  143.6840 C   0  0  0  0  0  3  0  0  0  0  0  0
  188.8970  177.3230  141.3800 C   0  0  0  0  0  0  0  0  0  0  0  0
  191.6090  175.8950  143.5810 C   0  0  0  0  0  1  0  0  0  0  0  0
  189.3790  176.8370  144.0540 N   0  0  0  0  0  0  0  0  0  0  0  0
  3  4  1  0  0  0  0
  3  7  1  1  0  0  0
  4 12  1  1  0  0  0
  4  8  1  0  0  0  0
  5 36  1  1  0  0  0
  5  9  1  0  0  0  0
  6  2  1  1  0  0  0
  6  3  1  0  0  0  0
  6 10  1  0  0  0  0
  9  1  1  6  0  0  0
  9  8  1  0  0  0  0
 10  5  1  0  0  0  0
 12 11  1  6  0  0  0
 13 12  1  0  0  0  0
 13 19  1  6  0  0  0
 15 14  1  1  0  0  0
 15 13  1  0  0  0  0
 16 17  2  0  0  0  0
 17 18  1  0  0  0  0
 17 15  1  0  0  0  0
 19 21  1  0  0  0  0
 21 29  1  6  0  0  0
 21 25  1  0  0  0  0
 22 27  1  1  0  0  0
 23 21  1  0  0  0  0
 23 33  1  1  0  0  0
 23 24  1  0  0  0  0
 24 22  1  0  0  0  0
 25 22  1  0  0  0  0
 25 20  1  1  0  0  0
 27 26  2  0  0  0  0
 27 28  1  0  0  0  0
 29 30  1  0  0  0  0
 30 31  1  0  0  0  0
 31 32  1  0  0  0  0
 33 34  1  0  0  0  0
 34 35  2  0  0  0  0
 37 36  1  6  0  0  0
 37 47  1  0  0  0  0
 38 43  1  0  0  0  0
 39 41  2  0  0  0  0
 41 40  1  0  0  0  0
 42 38  2  0  0  0  0
 42 39  1  0  0  0  0
 43 37  1  0  0  0  0
 43 40  2  0  0  0  0
 44 39  1  0  0  0  0
 44 46  1  0  0  0  0
 45 44  1  0  0  0  0
 47 48  1  0  0  0  0
 48 53  1  0  0  0  0
 49 52  1  0  0  0  0
 50 54  1  0  0  0  0
 50 55  1  0  0  0  0
 51 50  2  0  0  0  0
 52 55  2  0  0  0  0
 53 51  1  0  0  0  0
 53 49  2  0  0  0  0
M  END
>  <MODEL>
5

>  <REMARK>
 VINA RESULT:      -5.0      3.171      8.444
  Name = 
  19 active torsions:
  status: ('A' for Active; 'I' for Inactive)
    1  A    between atoms: C_1  and  C_30
    2  A    between atoms: C_2  and  O_28
    3  A    between atoms: C_2  and  C_44
    4  A    between atoms: C_6  and  O_8
    5  A    between atoms: C_6  and  C_46
    6  A    between atoms: C_7  and  O_8
    7  A    between atoms: C_7  and  C_23
    8  A    between atoms: C_7  and  C_43
    9  A    between atoms: N_10  and  C_32
   10  A    between atoms: C_11  and  C_29
   11  A    between atoms: C_12  and  O_14
   12  A    between atoms: O_14  and  C_46
   13  A    between atoms: C_17  and  C_23
   14  A    between atoms: C_19  and  C_49
   15  A    between atoms: C_20  and  C_30
   16  A    between atoms: O_28  and  C_33
   17  A    between atoms: C_33  and  C_49
   18  A    between atoms: C_33  and  C_52
   19  A    between atoms: C_35  and  C_43
                            x       y       z     vdW  Elec       q    Type
                         _______ _______ _______ _____ _____    ______ ____

>  <TORSDO>
F 19

$$$$
=
 OpenBabel11052415123D

 55 58  0  0  1  0  0  0  0  0999 V2000
  184.9860  178.3670  139.7340 C   0  0  0  0  0  1  0  0  0  0  0  0
  186.6650  175.5350  135.2530 O   0  0  0  0  0  1  0  0  0  0  0  0
  187.5700  177.1710  136.7620 C   0  0  1  0  0  3  0  0  0  0  0  0
  187.3150  177.9620  138.0540 C   0  0  2  0  0  3  0  0  0  0  0  0
  184.4310  177.4800  137.4230 C   0  0  2  0  0  3  0  0  0  0  0  0
  186.3650  176.3110  136.3730 C   0  0  1  0  0  3  0  0  0  0  0  0
  188.0210  178.0730  135.6140 C   0  0  0  0  0  1  0  0  0  0  0  0
  186.3880  178.9960  137.8050 O   0  0  0  0  0  0  0  0  0  0  0  0
  185.0970  178.6040  138.2340 C   0  0  2  0  0  3  0  0  0  0  0  0
  185.1210  177.1470  136.1050 C   0  0  0  0  0  2  0  0  0  0  0  0
  189.0910  179.5730  137.7370 O   0  0  0  0  0  1  0  0  0  0  0  0
  188.6460  178.5410  138.5670 C   0  0  2  0  0  3  0  0  0  0  0  0
  189.7710  177.5170  138.8210 C   0  0  2  0  0  3  0  0  0  0  0  0
  191.2520  177.0770  136.8070 C   0  0  0  0  0  1  0  0  0  0  0  0
  190.0410  176.6130  137.6030 C   0  0  1  0  0  3  0  0  0  0  0  0
  191.4650  174.7080  138.3490 O   0  0  0  0  0  1  0  0  0  0  0  0
  190.2100  175.1770  137.9860 C   0  0  0  0  0  0  0  0  0  0  0  0
  189.2310  174.3830  137.9600 O   0  0  0  0  0  0  0  0  0  0  0  0
  189.4470  176.7440  139.9610 O   0  0  0  0  0  0  0  0  0  0  0  0
  189.6750  179.0100  142.7670 O   0  0  0  0  0  1  0  0  0  0  0  0
  190.0750  177.2580  141.1320 C   0  0  2  0  0  0  0  0  0  0  0  0
  187.9260  177.4510  142.2690 C   0  0  2  0  0  3  0  0  0  0  0  0
  190.1950  176.1180  142.1770 C   0  0  2  0  0  3  0  0  0  0  0  0
  188.5920  175.9440  143.0420 S   0  0  0  0  0  0  0  0  0  0  0  0
  189.0900  178.2710  141.7310 C   0  0  1  0  0  3  0  0  0  0  0  0
  187.1170  178.0400  144.4340 O   0  0  0  0  0  1  0  0  0  0  0  0
  187.0350  178.2230  143.1930 C   0  0  0  0  0  0  0  0  0  0  0  0
  186.0750  179.0930  142.6880 O   0  0  0  0  0  0  0  0  0  0  0  0
  191.4140  177.9470  140.7380 C   0  0  0  0  0  2  0  0  0  0  0  0
  192.5410  177.1470  140.9410 O   0  0  0  0  0  0  0  0  0  0  0  0
  193.2820  177.2820  139.7670 C   0  0  0  0  0  2  0  0  0  0  0  0
  194.5380  176.4450  139.8660 C   0  0  0  0  0  1  0  0  0  0  0  0
  191.3030  176.3000  143.2110 C   0  0  0  0  0  2  0  0  0  0  0  0
  190.7510  176.7950  144.5080 C   0  0  0  0  0  3  0  0  0  0  0  0
  191.2510  176.3810  145.6710 C   0  0  0  0  0  2  0  0  0  0  0  0
  182.9430  177.7550  137.2100 C   0  0  0  0  0  2  0  0  0  0  0  0
  182.0410  176.9710  138.1810 C   0  0  1  0  0  3  0  0  0  0  0  0
  180.6560  178.9670  138.7690 C   0  0  0  0  0  3  0  0  0  0  0  0
  180.0760  179.5050  141.0700 C   0  0  0  0  0  0  0  0  0  0  0  0
  181.4110  177.5380  140.5690 C   0  0  0  0  0  3  0  0  0  0  0  0
  180.7780  178.3690  141.4970 C   0  0  0  0  0  3  0  0  0  0  0  0
  180.0220  179.7990  139.6970 C   0  0  0  0  0  3  0  0  0  0  0  0
  181.3460  177.8310  139.2000 C   0  0  0  0  0  0  0  0  0  0  0  0
  179.4280  180.3540  142.0300 N   0  0  0  0  0  0  0  0  0  0  0  0
  179.1180  181.6320  141.7080 O   0  0  0  0  0  1  0  0  0  0  0  0
  179.0840  179.8720  143.3600 C   0  0  0  0  0  1  0  0  0  0  0  0
  181.1840  176.0340  137.5590 O   0  0  0  0  0  0  0  0  0  0  0  0
  181.4530  174.7530  138.0720 C   0  0  0  0  0  2  0  0  0  0  0  0
  182.1400  173.7180  135.9040 C   0  0  0  0  0  3  0  0  0  0  0  0
  184.6650  173.1500  136.9000 C   0  0  0  0  0  0  0  0  0  0  0  0
  183.7320  173.7900  137.7200 C   0  0  0  0  0  3  0  0  0  0  0  0
  183.1000  173.0790  135.1150 C   0  0  0  0  0  3  0  0  0  0  0  0
  182.4590  174.0670  137.2170 C   0  0  0  0  0  0  0  0  0  0  0  0
  186.0220  172.8430  137.4200 C   0  0  0  0  0  1  0  0  0  0  0  0
  184.3300  172.8080  135.6260 N   0  0  0  0  0  0  0  0  0  0  0  0
  3  7  1  6  0  0  0
  3  4  1  0  0  0  0
  4 12  1  6  0  0  0
  5 36  1  6  0  0  0
  5  9  1  0  0  0  0
  6  2  1  6  0  0  0
  6  3  1  0  0  0  0
  8  4  1  0  0  0  0
  8  9  1  0  0  0  0
  9  1  1  1  0  0  0
 10  6  1  0  0  0  0
 10  5  1  0  0  0  0
 12 11  1  6  0  0  0
 12 13  1  0  0  0  0
 13 19  1  1  0  0  0
 15 14  1  1  0  0  0
 15 17  1  0  0  0  0
 15 13  1  0  0  0  0
 17 16  1  0  0  0  0
 18 17  2  0  0  0  0
 19 21  1  0  0  0  0
 21 29  1  6  0  0  0
 21 25  1  0  0  0  0
 21 23  1  0  0  0  0
 22 24  1  0  0  0  0
 22 27  1  1  0  0  0
 23 24  1  0  0  0  0
 23 33  1  1  0  0  0
 25 22  1  0  0  0  0
 25 20  1  1  0  0  0
 27 26  1  0  0  0  0
 28 27  2  0  0  0  0
 29 30  1  0  0  0  0
 31 32  1  0  0  0  0
 31 30  1  0  0  0  0
 33 34  1  0  0  0  0
 34 35  2  0  0  0  0
 37 36  1  6  0  0  0
 37 43  1  0  0  0  0
 38 43  2  0  0  0  0
 38 42  1  0  0  0  0
 39 41  1  0  0  0  0
 39 44  1  0  0  0  0
 40 41  2  0  0  0  0
 42 39  2  0  0  0  0
 43 40  1  0  0  0  0
 44 46  1  0  0  0  0
 45 44  1  0  0  0  0
 47 48  1  0  0  0  0
 47 37  1  0  0  0  0
 49 53  1  0  0  0  0
 50 54  1  0  0  0  0
 50 51  1  0  0  0  0
 52 55  1  0  0  0  0
 52 49  2  0  0  0  0
 53 51  2  0  0  0  0
 53 48  1  0  0  0  0
 55 50  2  0  0  0  0
M  END
>  <MODEL>
6

>  <REMARK>
 VINA RESULT:      -4.8      3.035      7.623
  Name = 
  19 active torsions:
  status: ('A' for Active; 'I' for Inactive)
    1  A    between atoms: C_1  and  C_30
    2  A    between atoms: C_2  and  O_28
    3  A    between atoms: C_2  and  C_44
    4  A    between atoms: C_6  and  O_8
    5  A    between atoms: C_6  and  C_46
    6  A    between atoms: C_7  and  O_8
    7  A    between atoms: C_7  and  C_23
    8  A    between atoms: C_7  and  C_43
    9  A    between atoms: N_10  and  C_32
   10  A    between atoms: C_11  and  C_29
   11  A    between atoms: C_12  and  O_14
   12  A    between atoms: O_14  and  C_46
   13  A    between atoms: C_17  and  C_23
   14  A    between atoms: C_19  and  C_49
   15  A    between atoms: C_20  and  C_30
   16  A    between atoms: O_28  and  C_33
   17  A    between atoms: C_33  and  C_49
   18  A    between atoms: C_33  and  C_52
   19  A    between atoms: C_35  and  C_43
                            x       y       z     vdW  Elec       q    Type
                         _______ _______ _______ _____ _____    ______ ____

>  <TORSDO>
F 19

$$$$
=
 OpenBabel11052415123D

 55 58  0  0  1  0  0  0  0  0999 V2000
  187.5820  177.0610  137.2750 C   0  0  0  0  0  1  0  0  0  0  0  0
  185.3240  178.3130  142.2000 O   0  0  0  0  0  1  0  0  0  0  0  0
  184.6860  178.3830  139.8860 C   0  0  1  0  0  3  0  0  0  0  0  0
  185.1070  178.0070  138.4560 C   0  0  2  0  0  3  0  0  0  0  0  0
  187.8810  178.0910  139.5740 C   0  0  2  0  0  3  0  0  0  0  0  0
  185.7750  178.0490  140.9070 C   0  0  1  0  0  3  0  0  0  0  0  0
  184.2350  179.8400  139.9880 C   0  0  0  0  0  1  0  0  0  0  0  0
  186.1030  178.8960  138.0030 O   0  0  0  0  0  0  0  0  0  0  0  0
  187.3810  178.3020  138.1350 C   0  0  2  0  0  3  0  0  0  0  0  0
  187.0680  178.8110  140.6450 C   0  0  0  0  0  2  0  0  0  0  0  0
  182.8520  178.8090  138.1140 O   0  0  0  0  0  1  0  0  0  0  0  0
  183.8770  178.0570  137.5340 C   0  0  2  0  0  3  0  0  0  0  0  0
  183.3470  176.6930  137.0440 C   0  0  2  0  0  3  0  0  0  0  0  0
  182.9840  177.5580  134.6860 C   0  0  0  0  0  1  0  0  0  0  0  0
  183.5970  176.4600  135.5420 C   0  0  1  0  0  3  0  0  0  0  0  0
  185.7300  177.3880  134.6460 O   0  0  0  0  0  0  0  0  0  0  0  0
  185.0510  176.3220  135.2210 C   0  0  0  0  0  0  0  0  0  0  0  0
  185.6620  175.2420  135.4440 O   0  0  0  0  0  1  0  0  0  0  0  0
  181.9690  176.5930  137.3490 O   0  0  0  0  0  0  0  0  0  0  0  0
  181.3850  174.8880  140.4810 O   0  0  0  0  0  1  0  0  0  0  0  0
  181.6930  175.4380  138.1340 C   0  0  2  0  0  0  0  0  0  0  0  0
  180.1240  176.6860  139.5230 C   0  0  2  0  0  3  0  0  0  0  0  0
  180.3450  174.8270  137.6700 C   0  0  2  0  0  3  0  0  0  0  0  0
  178.9790  175.7590  138.4550 S   0  0  0  0  0  0  0  0  0  0  0  0
  181.4530  175.9430  139.5630 C   0  0  1  0  0  3  0  0  0  0  0  0
  178.9310  176.0400  141.4830 O   0  0  0  0  0  1  0  0  0  0  0  0
  179.5530  176.9510  140.8810 C   0  0  0  0  0  0  0  0  0  0  0  0
  179.6520  178.2130  141.4570 O   0  0  0  0  0  0  0  0  0  0  0  0
  182.9160  174.4750  138.0810 C   0  0  0  0  0  2  0  0  0  0  0  0
  182.9400  173.6560  136.9490 O   0  0  0  0  0  0  0  0  0  0  0  0
  183.7980  172.6120  137.2920 C   0  0  0  0  0  2  0  0  0  0  0  0
  183.0610  171.2960  137.1770 C   0  0  0  0  0  1  0  0  0  0  0  0
  180.1700  173.3400  137.9660 C   0  0  0  0  0  2  0  0  0  0  0  0
  179.5310  172.6350  136.8140 C   0  0  0  0  0  3  0  0  0  0  0  0
  179.5830  173.1400  135.5830 C   0  0  0  0  0  2  0  0  0  0  0  0
  189.3680  178.4200  139.7010 C   0  0  0  0  0  2  0  0  0  0  0  0
  190.1300  177.4240  140.5940 C   0  0  1  0  0  3  0  0  0  0  0  0
  190.2240  178.2710  142.9440 C   0  0  0  0  0  3  0  0  0  0  0  0
  188.8380  177.3350  144.7110 C   0  0  0  0  0  0  0  0  0  0  0  0
  188.6810  176.4760  142.4430 C   0  0  0  0  0  3  0  0  0  0  0  0
  188.2750  176.4500  143.7810 C   0  0  0  0  0  3  0  0  0  0  0  0
  189.8180  178.2460  144.2820 C   0  0  0  0  0  3  0  0  0  0  0  0
  189.6540  177.3920  142.0190 C   0  0  0  0  0  0  0  0  0  0  0  0
  188.4140  177.3020  146.0830 N   0  0  0  0  0  0  0  0  0  0  0  0
  189.2570  176.8510  147.0430 O   0  0  0  0  0  1  0  0  0  0  0  0
  187.0870  177.7480  146.4800 C   0  0  0  0  0  1  0  0  0  0  0  0
  190.2970  176.1380  140.0300 O   0  0  0  0  0  0  0  0  0  0  0  0
  190.3460  176.2540  138.6290 C   0  0  0  0  0  2  0  0  0  0  0  0
  192.8280  176.0080  138.4660 C   0  0  0  0  0  3  0  0  0  0  0  0
  192.5660  173.8110  136.7950 C   0  0  0  0  0  0  0  0  0  0  0  0
  191.4190  174.4510  137.2710 C   0  0  0  0  0  3  0  0  0  0  0  0
  193.9500  175.3420  137.9700 C   0  0  0  0  0  3  0  0  0  0  0  0
  191.5550  175.5620  138.1070 C   0  0  0  0  0  0  0  0  0  0  0  0
  192.4400  172.6320  135.9010 C   0  0  0  0  0  1  0  0  0  0  0  0
  193.7980  174.2690  137.1490 N   0  0  0  0  0  0  0  0  0  0  0  0
  3  7  1  6  0  0  0
  3  6  1  0  0  0  0
  4 12  1  6  0  0  0
  4  3  1  0  0  0  0
  5 36  1  6  0  0  0
  5 10  1  0  0  0  0
  6  2  1  1  0  0  0
  8  9  1  0  0  0  0
  8  4  1  0  0  0  0
  9  1  1  1  0  0  0
  9  5  1  0  0  0  0
 10  6  1  0  0  0  0
 12 11  1  1  0  0  0
 13 19  1  6  0  0  0
 13 12  1  0  0  0  0
 15 14  1  6  0  0  0
 15 13  1  0  0  0  0
 16 17  2  0  0  0  0
 17 18  1  0  0  0  0
 17 15  1  0  0  0  0
 19 21  1  0  0  0  0
 21 29  1  6  0  0  0
 21 25  1  0  0  0  0
 22 25  1  0  0  0  0
 22 27  1  1  0  0  0
 23 33  1  1  0  0  0
 23 21  1  0  0  0  0
 23 24  1  0  0  0  0
 24 22  1  0  0  0  0
 25 20  1  1  0  0  0
 27 28  2  0  0  0  0
 27 26  1  0  0  0  0
 30 31  1  0  0  0  0
 30 29  1  0  0  0  0
 32 31  1  0  0  0  0
 34 33  1  0  0  0  0
 35 34  2  0  0  0  0
 37 36  1  6  0  0  0
 37 43  1  0  0  0  0
 38 42  1  0  0  0  0
 39 44  1  0  0  0  0
 40 41  2  0  0  0  0
 41 39  1  0  0  0  0
 42 39  2  0  0  0  0
 43 40  1  0  0  0  0
 43 38  2  0  0  0  0
 44 46  1  0  0  0  0
 44 45  1  0  0  0  0
 47 37  1  0  0  0  0
 48 47  1  0  0  0  0
 50 55  2  0  0  0  0
 50 51  1  0  0  0  0
 51 53  2  0  0  0  0
 52 49  2  0  0  0  0
 53 49  1  0  0  0  0
 53 48  1  0  0  0  0
 54 50  1  0  0  0  0
 55 52  1  0  0  0  0
M  END
>  <MODEL>
7

>  <REMARK>
 VINA RESULT:      -4.8      2.909      7.499
  Name = 
  19 active torsions:
  status: ('A' for Active; 'I' for Inactive)
    1  A    between atoms: C_1  and  C_30
    2  A    between atoms: C_2  and  O_28
    3  A    between atoms: C_2  and  C_44
    4  A    between atoms: C_6  and  O_8
    5  A    between atoms: C_6  and  C_46
    6  A    between atoms: C_7  and  O_8
    7  A    between atoms: C_7  and  C_23
    8  A    between atoms: C_7  and  C_43
    9  A    between atoms: N_10  and  C_32
   10  A    between atoms: C_11  and  C_29
   11  A    between atoms: C_12  and  O_14
   12  A    between atoms: O_14  and  C_46
   13  A    between atoms: C_17  and  C_23
   14  A    between atoms: C_19  and  C_49
   15  A    between atoms: C_20  and  C_30
   16  A    between atoms: O_28  and  C_33
   17  A    between atoms: C_33  and  C_49
   18  A    between atoms: C_33  and  C_52
   19  A    between atoms: C_35  and  C_43
                            x       y       z     vdW  Elec       q    Type
                         _______ _______ _______ _____ _____    ______ ____

>  <TORSDO>
F 19

$$$$
=
 OpenBabel11052415123D

 55 58  0  0  1  0  0  0  0  0999 V2000
  186.8030  178.6280  140.7210 C   0  0  0  0  0  1  0  0  0  0  0  0
  191.8370  177.3980  142.7370 O   0  0  0  0  0  1  0  0  0  0  0  0
  190.7950  177.6350  140.5860 C   0  0  1  0  0  3  0  0  0  0  0  0
  189.5080  178.0460  139.8530 C   0  0  2  0  0  3  0  0  0  0  0  0
  188.1770  177.3750  142.4470 C   0  0  2  0  0  3  0  0  0  0  0  0
  190.6260  177.6840  142.1050 C   0  0  1  0  0  3  0  0  0  0  0  0
  191.3180  176.2790  140.1130 C   0  0  0  0  0  1  0  0  0  0  0  0
  188.5370  177.0340  139.9910 O   0  0  0  0  0  0  0  0  0  0  0  0
  187.6190  177.3770  141.0130 C   0  0  2  0  0  3  0  0  0  0  0  0
  189.5480  176.7270  142.5990 C   0  0  0  0  0  2  0  0  0  0  0  0
  189.0590  179.3480  137.8660 O   0  0  0  0  0  1  0  0  0  0  0  0
  189.8250  178.2930  138.3680 C   0  0  2  0  0  3  0  0  0  0  0  0
  189.7310  177.0600  137.4460 C   0  0  2  0  0  3  0  0  0  0  0  0
  191.6560  175.4120  137.3070 C   0  0  0  0  0  1  0  0  0  0  0  0
  191.0730  176.7120  136.7740 C   0  0  1  0  0  3  0  0  0  0  0  0
  190.2970  177.6520  134.6000 O   0  0  0  0  0  0  0  0  0  0  0  0
  190.9630  176.6430  135.2840 C   0  0  0  0  0  0  0  0  0  0  0  0
  191.4450  175.6700  134.6450 O   0  0  0  0  0  1  0  0  0  0  0  0
  188.7230  177.2800  136.4770 O   0  0  0  0  0  0  0  0  0  0  0  0
  185.8860  175.4530  137.7690 O   0  0  0  0  0  1  0  0  0  0  0  0
  187.7820  176.2110  136.4530 C   0  0  2  0  0  0  0  0  0  0  0  0
  185.9580  177.7260  137.0190 C   0  0  2  0  0  3  0  0  0  0  0  0
  187.0120  176.2520  135.1090 C   0  0  2  0  0  3  0  0  0  0  0  0
  185.6780  177.4990  135.2350 S   0  0  0  0  0  0  0  0  0  0  0  0
  186.7470  176.5330  137.5390 C   0  0  1  0  0  3  0  0  0  0  0  0
  184.5030  179.0740  138.3420 O   0  0  0  0  0  1  0  0  0  0  0  0
  184.6870  177.9690  137.7720 C   0  0  0  0  0  0  0  0  0  0  0  0
  183.7350  176.9630  137.8980 O   0  0  0  0  0  0  0  0  0  0  0  0
  188.5170  174.8730  136.7620 C   0  0  0  0  0  2  0  0  0  0  0  0
  187.6560  173.8030  137.0160 O   0  0  0  0  0  0  0  0  0  0  0  0
  188.4280  172.6680  136.7700 C   0  0  0  0  0  2  0  0  0  0  0  0
  189.5410  173.0140  135.8050 C   0  0  0  0  0  1  0  0  0  0  0  0
  186.4100  174.9210  134.6640 C   0  0  0  0  0  2  0  0  0  0  0  0
  184.9190  175.0020  134.5960 C   0  0  0  0  0  3  0  0  0  0  0  0
  184.1580  173.9570  134.9170 C   0  0  0  0  0  2  0  0  0  0  0  0
  187.1740  176.7760  143.4320 C   0  0  0  0  0  2  0  0  0  0  0  0
  186.5380  177.8300  144.3570 C   0  0  1  0  0  3  0  0  0  0  0  0
  184.2370  178.6190  144.9320 C   0  0  0  0  0  3  0  0  0  0  0  0
  182.5350  178.9890  143.2340 C   0  0  0  0  0  0  0  0  0  0  0  0
  184.7580  178.2400  142.6010 C   0  0  0  0  0  3  0  0  0  0  0  0
  183.4570  178.6090  142.2490 C   0  0  0  0  0  3  0  0  0  0  0  0
  182.9350  178.9890  144.5810 C   0  0  0  0  0  3  0  0  0  0  0  0
  185.1540  178.2490  143.9460 C   0  0  0  0  0  0  0  0  0  0  0  0
  181.2000  179.3670  142.8620 N   0  0  0  0  0  0  0  0  0  0  0  0
  180.6640  180.5170  143.3360 O   0  0  0  0  0  1  0  0  0  0  0  0
  180.3950  178.5420  141.9750 C   0  0  0  0  0  1  0  0  0  0  0  0
  186.6500  177.5440  145.7370 O   0  0  0  0  0  0  0  0  0  0  0  0
  187.3620  178.5810  146.3660 C   0  0  0  0  0  2  0  0  0  0  0  0
  189.0560  178.2840  148.1800 C   0  0  0  0  0  3  0  0  0  0  0  0
  190.7330  176.8820  146.4730 C   0  0  0  0  0  0  0  0  0  0  0  0
  189.5100  177.3580  145.9940 C   0  0  0  0  0  3  0  0  0  0  0  0
  190.2870  177.7920  148.6210 C   0  0  0  0  0  3  0  0  0  0  0  0
  188.6710  178.0700  146.8550 C   0  0  0  0  0  0  0  0  0  0  0  0
  191.6390  176.1270  145.5700 C   0  0  0  0  0  1  0  0  0  0  0  0
  191.0940  177.1100  147.7650 N   0  0  0  0  0  0  0  0  0  0  0  0
  3  7  1  6  0  0  0
  3  6  1  0  0  0  0
  4 12  1  6  0  0  0
  4  8  1  0  0  0  0
  4  3  1  0  0  0  0
  5 10  1  0  0  0  0
  5 36  1  1  0  0  0
  6 10  1  0  0  0  0
  6  2  1  1  0  0  0
  8  9  1  0  0  0  0
  9  1  1  6  0  0  0
  9  5  1  0  0  0  0
 12 11  1  6  0  0  0
 13 19  1  6  0  0  0
 13 12  1  0  0  0  0
 15 14  1  1  0  0  0
 15 13  1  0  0  0  0
 16 17  2  0  0  0  0
 17 15  1  0  0  0  0
 18 17  1  0  0  0  0
 21 19  1  0  0  0  0
 21 29  1  1  0  0  0
 21 25  1  0  0  0  0
 22 25  1  0  0  0  0
 22 27  1  1  0  0  0
 23 33  1  1  0  0  0
 23 24  1  0  0  0  0
 23 21  1  0  0  0  0
 24 22  1  0  0  0  0
 25 20  1  6  0  0  0
 27 28  2  0  0  0  0
 27 26  1  0  0  0  0
 29 30  1  0  0  0  0
 31 30  1  0  0  0  0
 32 31  1  0  0  0  0
 34 33  1  0  0  0  0
 34 35  2  0  0  0  0
 37 36  1  6  0  0  0
 37 47  1  0  0  0  0
 39 42  2  0  0  0  0
 40 43  1  0  0  0  0
 41 40  2  0  0  0  0
 41 39  1  0  0  0  0
 42 38  1  0  0  0  0
 43 37  1  0  0  0  0
 43 38  2  0  0  0  0
 44 39  1  0  0  0  0
 44 45  1  0  0  0  0
 46 44  1  0  0  0  0
 47 48  1  0  0  0  0
 48 53  1  0  0  0  0
 49 52  1  0  0  0  0
 50 55  1  0  0  0  0
 51 50  2  0  0  0  0
 51 53  1  0  0  0  0
 53 49  2  0  0  0  0
 54 50  1  0  0  0  0
 55 52  2  0  0  0  0
M  END
>  <MODEL>
8

>  <REMARK>
 VINA RESULT:      -4.7      2.149      6.581
  Name = 
  19 active torsions:
  status: ('A' for Active; 'I' for Inactive)
    1  A    between atoms: C_1  and  C_30
    2  A    between atoms: C_2  and  O_28
    3  A    between atoms: C_2  and  C_44
    4  A    between atoms: C_6  and  O_8
    5  A    between atoms: C_6  and  C_46
    6  A    between atoms: C_7  and  O_8
    7  A    between atoms: C_7  and  C_23
    8  A    between atoms: C_7  and  C_43
    9  A    between atoms: N_10  and  C_32
   10  A    between atoms: C_11  and  C_29
   11  A    between atoms: C_12  and  O_14
   12  A    between atoms: O_14  and  C_46
   13  A    between atoms: C_17  and  C_23
   14  A    between atoms: C_19  and  C_49
   15  A    between atoms: C_20  and  C_30
   16  A    between atoms: O_28  and  C_33
   17  A    between atoms: C_33  and  C_49
   18  A    between atoms: C_33  and  C_52
   19  A    between atoms: C_35  and  C_43
                            x       y       z     vdW  Elec       q    Type
                         _______ _______ _______ _____ _____    ______ ____

>  <TORSDO>
F 19

$$$$
=
 OpenBabel11052415123D

 55 58  0  0  1  0  0  0  0  0999 V2000
  187.6250  177.2560  137.8080 C   0  0  0  0  0  1  0  0  0  0  0  0
  184.0210  178.1820  141.9390 O   0  0  0  0  0  1  0  0  0  0  0  0
  184.0260  178.2550  139.5390 C   0  0  1  0  0  3  0  0  0  0  0  0
  184.8490  177.9540  138.2760 C   0  0  2  0  0  3  0  0  0  0  0  0
  187.2000  178.2490  140.1030 C   0  0  2  0  0  3  0  0  0  0  0  0
  184.8260  177.9910  140.8160 C   0  0  1  0  0  3  0  0  0  0  0  0
  183.4350  179.6640  139.5170 C   0  0  0  0  0  1  0  0  0  0  0  0
  185.8460  178.9370  138.1100 O   0  0  0  0  0  0  0  0  0  0  0  0
  187.0890  178.4520  138.5820 C   0  0  2  0  0  3  0  0  0  0  0  0
  186.0670  178.8680  140.9140 C   0  0  0  0  0  2  0  0  0  0  0  0
  182.7200  178.5950  137.3260 O   0  0  0  0  0  1  0  0  0  0  0  0
  183.9130  177.9210  137.0550 C   0  0  2  0  0  3  0  0  0  0  0  0
  183.6320  176.5250  136.4610 C   0  0  2  0  0  3  0  0  0  0  0  0
  185.4240  177.3390  134.8590 C   0  0  0  0  0  1  0  0  0  0  0  0
  184.6200  176.1420  135.3430 C   0  0  1  0  0  3  0  0  0  0  0  0
  185.6720  174.7220  137.1010 O   0  0  0  0  0  1  0  0  0  0  0  0
  185.5480  175.0440  135.7560 C   0  0  0  0  0  0  0  0  0  0  0  0
  186.2370  174.4250  134.9010 O   0  0  0  0  0  0  0  0  0  0  0  0
  182.2980  176.4800  135.9920 O   0  0  0  0  0  0  0  0  0  0  0  0
  180.9970  174.4410  138.6770 O   0  0  0  0  0  1  0  0  0  0  0  0
  181.6040  175.3460  136.5060 C   0  0  2  0  0  0  0  0  0  0  0  0
  180.4710  176.7220  138.1700 C   0  0  2  0  0  3  0  0  0  0  0  0
  180.1590  175.3470  135.9460 C   0  0  2  0  0  3  0  0  0  0  0  0
  179.1430  176.4950  136.9470 S   0  0  0  0  0  0  0  0  0  0  0  0
  181.4680  175.5810  138.0160 C   0  0  1  0  0  3  0  0  0  0  0  0
  180.4630  177.7080  140.3410 O   0  0  0  0  0  1  0  0  0  0  0  0
  179.9460  176.8650  139.5650 C   0  0  0  0  0  0  0  0  0  0  0  0
  178.9330  176.0330  140.0300 O   0  0  0  0  0  0  0  0  0  0  0  0
  182.4330  174.0610  136.2140 C   0  0  0  0  0  2  0  0  0  0  0  0
  182.0910  173.4290  135.0160 O   0  0  0  0  0  0  0  0  0  0  0  0
  183.1110  172.5010  134.8080 C   0  0  0  0  0  2  0  0  0  0  0  0
  183.4550  171.8280  136.1190 C   0  0  0  0  0  1  0  0  0  0  0  0
  179.4770  173.9820  135.9070 C   0  0  0  0  0  2  0  0  0  0  0  0
  179.4620  173.3500  137.2610 C   0  0  0  0  0  3  0  0  0  0  0  0
  179.7180  172.0530  137.4180 C   0  0  0  0  0  2  0  0  0  0  0  0
  188.5610  178.7020  140.6270 C   0  0  0  0  0  2  0  0  0  0  0  0
  189.4380  177.5330  141.1130 C   0  0  1  0  0  3  0  0  0  0  0  0
  190.1480  176.3230  139.0440 C   0  0  0  0  0  3  0  0  0  0  0  0
  192.4660  176.2710  138.3090 C   0  0  0  0  0  0  0  0  0  0  0  0
  191.8440  177.4830  140.3210 C   0  0  0  0  0  3  0  0  0  0  0  0
  192.8180  177.0620  139.4110 C   0  0  0  0  0  3  0  0  0  0  0  0
  191.1220  175.9030  138.1330 C   0  0  0  0  0  3  0  0  0  0  0  0
  190.5030  177.1190  140.1360 C   0  0  0  0  0  0  0  0  0  0  0  0
  193.4740  175.8440  137.3790 N   0  0  0  0  0  0  0  0  0  0  0  0
  194.7070  175.5020  137.8230 O   0  0  0  0  0  1  0  0  0  0  0  0
  193.2050  175.7630  135.9510 C   0  0  0  0  0  1  0  0  0  0  0  0
  189.9140  177.6670  142.4380 O   0  0  0  0  0  0  0  0  0  0  0  0
  188.8320  177.5540  143.3290 C   0  0  0  0  0  2  0  0  0  0  0  0
  190.6530  176.9260  144.9210 C   0  0  0  0  0  3  0  0  0  0  0  0
  188.9950  177.3780  147.0970 C   0  0  0  0  0  0  0  0  0  0  0  0
  188.5010  177.5780  145.8060 C   0  0  0  0  0  3  0  0  0  0  0  0
  191.1100  176.7370  146.2270 C   0  0  0  0  0  3  0  0  0  0  0  0
  189.3370  177.3420  144.7120 C   0  0  0  0  0  0  0  0  0  0  0  0
  188.1190  177.6190  148.2720 C   0  0  0  0  0  1  0  0  0  0  0  0
  190.2780  176.9620  147.2790 N   0  0  0  0  0  0  0  0  0  0  0  0
  3  7  1  6  0  0  0
  3  6  1  0  0  0  0
  4 12  1  6  0  0  0
  4  3  1  0  0  0  0
  5 36  1  1  0  0  0
  5 10  1  0  0  0  0
  6 10  1  0  0  0  0
  6  2  1  1  0  0  0
  8  4  1  0  0  0  0
  8  9  1  0  0  0  0
  9  1  1  6  0  0  0
  9  5  1  0  0  0  0
 12 11  1  1  0  0  0
 13 19  1  6  0  0  0
 13 12  1  0  0  0  0
 15 14  1  1  0  0  0
 15 17  1  0  0  0  0
 15 13  1  0  0  0  0
 17 16  1  0  0  0  0
 18 17  2  0  0  0  0
 19 21  1  0  0  0  0
 21 29  1  6  0  0  0
 21 25  1  0  0  0  0
 22 27  1  1  0  0  0
 23 33  1  1  0  0  0
 23 21  1  0  0  0  0
 23 24  1  0  0  0  0
 24 22  1  0  0  0  0
 25 22  1  0  0  0  0
 25 20  1  1  0  0  0
 27 28  2  0  0  0  0
 27 26  1  0  0  0  0
 30 29  1  0  0  0  0
 31 30  1  0  0  0  0
 31 32  1  0  0  0  0
 33 34  1  0  0  0  0
 34 35  2  0  0  0  0
 37 36  1  6  0  0  0
 37 47  1  0  0  0  0
 38 43  1  0  0  0  0
 39 41  2  0  0  0  0
 41 40  1  0  0  0  0
 42 39  1  0  0  0  0
 42 38  2  0  0  0  0
 43 40  2  0  0  0  0
 43 37  1  0  0  0  0
 44 45  1  0  0  0  0
 44 39  1  0  0  0  0
 46 44  1  0  0  0  0
 47 48  1  0  0  0  0
 48 53  1  0  0  0  0
 49 52  1  0  0  0  0
 50 55  1  0  0  0  0
 50 54  1  0  0  0  0
 51 50  2  0  0  0  0
 52 55  2  0  0  0  0
 53 49  2  0  0  0  0
 53 51  1  0  0  0  0
M  END
>  <MODEL>
9

>  <REMARK>
 VINA RESULT:      -4.6      3.289      7.131
  Name = 
  19 active torsions:
  status: ('A' for Active; 'I' for Inactive)
    1  A    between atoms: C_1  and  C_30
    2  A    between atoms: C_2  and  O_28
    3  A    between atoms: C_2  and  C_44
    4  A    between atoms: C_6  and  O_8
    5  A    between atoms: C_6  and  C_46
    6  A    between atoms: C_7  and  O_8
    7  A    between atoms: C_7  and  C_23
    8  A    between atoms: C_7  and  C_43
    9  A    between atoms: N_10  and  C_32
   10  A    between atoms: C_11  and  C_29
   11  A    between atoms: C_12  and  O_14
   12  A    between atoms: O_14  and  C_46
   13  A    between atoms: C_17  and  C_23
   14  A    between atoms: C_19  and  C_49
   15  A    between atoms: C_20  and  C_30
   16  A    between atoms: O_28  and  C_33
   17  A    between atoms: C_33  and  C_49
   18  A    between atoms: C_33  and  C_52
   19  A    between atoms: C_35  and  C_43
                            x       y       z     vdW  Elec       q    Type
                         _______ _______ _______ _____ _____    ______ ____

>  <TORSDO>
F 19

$$$$
