=
 OpenBabel11052416143D

 43 47  0  0  1  0  0  0  0  0999 V2000
  189.0410  178.9090  138.7670 N   0  0  0  0  0  2  0  0  0  0  0  0
  189.4500  177.6050  138.9770 C   0  0  1  0  0  3  0  0  0  0  0  0
  188.7130  179.3030  137.3640 C   0  0  0  0  0  2  0  0  0  0  0  0
  189.8380  176.7790  138.0580 C   0  0  0  0  0  2  0  0  0  0  0  0
  189.3650  177.0430  136.7610 C   0  0  1  0  0  3  0  0  0  0  0  0
  189.4190  178.4450  136.3500 N   0  0  0  0  0  2  0  0  0  0  0  0
  193.6270  174.2870  137.1840 C   0  0  0  0  0  0  0  0  0  0  0  0
  188.8690  175.0410  135.3460 N   0  0  0  0  0  0  0  0  0  0  0  0
  191.2750  174.0810  136.5810 C   0  0  0  0  0  0  0  0  0  0  0  0
  193.4750  175.6690  137.0850 C   0  0  0  0  0  3  0  0  0  0  0  0
  194.9810  173.7340  137.5360 C   0  0  0  0  0  1  0  0  0  0  0  0
  191.1960  175.4400  136.2130 C   0  0  0  0  0  0  0  0  0  0  0  0
  192.5050  173.4730  136.9700 C   0  0  0  0  0  3  0  0  0  0  0  0
  192.3320  176.2250  136.5810 C   0  0  0  0  0  3  0  0  0  0  0  0
  189.9350  176.0240  135.7440 C   0  0  2  0  0  3  0  0  0  0  0  0
  188.7360  174.0680  136.4660 C   0  0  0  0  0  2  0  0  0  0  0  0
  190.0230  173.3120  136.8080 C   0  0  0  0  0  2  0  0  0  0  0  0
  187.4890  175.5280  135.2360 C   0  0  0  0  0  2  0  0  0  0  0  0
  186.2360  174.3870  135.9500 S   0  0  0  0  0  0  0  0  0  0  0  0
  184.0050  175.3650  137.3080 C   0  0  0  0  0  3  0  0  0  0  0  0
  183.9640  177.6540  138.1130 C   0  0  0  0  0  0  0  0  0  0  0  0
  185.9950  176.7510  137.1230 C   0  0  0  0  0  3  0  0  0  0  0  0
  183.3540  176.3790  138.0020 C   0  0  0  0  0  3  0  0  0  0  0  0
  185.3250  175.6090  136.8510 C   0  0  0  0  0  0  0  0  0  0  0  0
  185.2960  177.8130  137.7100 C   0  0  0  0  0  3  0  0  0  0  0  0
  182.9830  179.8260  139.0610 N   0  0  0  0  0  0  0  0  0  0  0  0
  183.3420  178.7960  138.6440 C   0  0  0  0  0  0  0  0  0  0  0  0
  189.8120  177.1850  140.4030 C   0  0  0  0  0  2  0  0  0  0  0  0
  189.1380  177.8950  141.3740 O   0  0  0  0  0  0  0  0  0  0  0  0
  189.4400  177.4610  142.6820 C   0  0  0  0  0  2  0  0  0  0  0  0
  188.1760  176.8140  143.1680 C   0  0  0  0  0  2  0  0  0  0  0  0
  187.8420  177.1180  144.5140 N   0  0  0  0  0  0  0  0  0  0  0  0
  186.5150  177.7990  144.5290 C   0  0  0  0  0  0  0  0  0  0  0  0
  184.5790  178.5150  143.3240 C   0  0  0  0  0  3  0  0  0  0  0  0
  184.6710  178.7540  145.7110 C   0  0  0  0  0  3  0  0  0  0  0  0
  183.9570  178.7880  144.5160 C   0  0  0  0  0  3  0  0  0  0  0  0
  185.9760  178.2090  145.7300 C   0  0  0  0  0  3  0  0  0  0  0  0
  185.8990  178.0200  143.3350 C   0  0  0  0  0  3  0  0  0  0  0  0
  188.8620  177.8940  145.2110 C   0  0  0  0  0  2  0  0  0  0  0  0
  189.9620  177.1260  145.9890 C   0  0  0  0  0  2  0  0  0  0  0  0
  189.6700  176.7900  147.4420 C   0  0  0  0  0  2  0  0  0  0  0  0
  187.9210  177.9870  148.8520 C   0  0  0  0  0  1  0  0  0  0  0  0
  189.2470  178.0640  148.0930 C   0  0  0  0  0  2  0  0  0  0  0  0
  1  2  1  0  0  0  0
  2 28  1  1  0  0  0
  3  1  1  0  0  0  0
  4  2  1  0  0  0  0
  5  4  1  1  0  0  0
  6  5  1  0  0  0  0
  6  3  1  0  0  0  0
  7 11  1  0  0  0  0
  8 15  1  0  0  0  0
  8 16  1  0  0  0  0
  9 17  1  0  0  0  0
  9 13  1  0  0  0  0
 10  7  1  0  0  0  0
 12  9  2  0  0  0  0
 12 14  1  0  0  0  0
 13  7  2  0  0  0  0
 14 10  2  0  0  0  0
 15 12  1  1  0  0  0
 15  5  1  0  0  0  0
 16 17  1  0  0  0  0
 18  8  1  0  0  0  0
 18 19  1  0  0  0  0
 19 24  1  0  0  0  0
 20 23  1  0  0  0  0
 21 27  1  0  0  0  0
 22 25  2  0  0  0  0
 23 21  2  0  0  0  0
 24 22  1  0  0  0  0
 24 20  2  0  0  0  0
 25 21  1  0  0  0  0
 27 26  3  0  0  0  0
 28 29  1  0  0  0  0
 29 30  1  0  0  0  0
 30 31  1  0  0  0  0
 31 32  1  0  0  0  0
 32 33  1  0  0  0  0
 32 39  1  0  0  0  0
 33 37  1  0  0  0  0
 34 38  1  0  0  0  0
 34 36  2  0  0  0  0
 35 37  2  0  0  0  0
 36 35  1  0  0  0  0
 38 33  2  0  0  0  0
 39 40  1  0  0  0  0
 40 41  1  0  0  0  0
 41 43  1  0  0  0  0
 43 42  1  0  0  0  0
M  END
>  <MODEL>
1

>  <REMARK>
 VINA RESULT:      -7.8      0.000      0.000
  Name = 
  15 active torsions:
  status: ('A' for Active; 'I' for Inactive)
    1  A    between atoms: S_1  and  C_34
    2  A    between atoms: S_1  and  C_35
    3  A    between atoms: C_3  and  C_4
    4  A    between atoms: C_3  and  O_12
    5  A    between atoms: C_4  and  N_14
    6  A    between atoms: C_6  and  C_17
    7  A    between atoms: N_8  and  C_34
    8  A    between atoms: C_10  and  C_22
    9  A    between atoms: C_10  and  C_41
   10  A    between atoms: C_11  and  N_14
   11  A    between atoms: O_12  and  C_17
   12  A    between atoms: N_14  and  C_41
   13  A    between atoms: C_19  and  C_37
   14  A    between atoms: C_22  and  C_42
   15  A    between atoms: C_27  and  C_30
                            x       y       z     vdW  Elec       q    Type
                         _______ _______ _______ _____ _____    ______ ____

>  <TORSDO>
F 15

$$$$
=
 OpenBabel11052416143D

 43 47  0  0  1  0  0  0  0  0999 V2000
  189.1540  178.6720  138.8730 N   0  0  0  0  0  2  0  0  0  0  0  0
  189.4950  177.3340  138.9360 C   0  0  1  0  0  3  0  0  0  0  0  0
  188.6190  179.1790  137.5730 C   0  0  0  0  0  2  0  0  0  0  0  0
  189.6580  176.5480  137.9200 C   0  0  0  0  0  2  0  0  0  0  0  0
  188.9900  176.9270  136.7430 C   0  0  1  0  0  3  0  0  0  0  0  0
  189.0750  178.3460  136.4050 N   0  0  0  0  0  2  0  0  0  0  0  0
  193.0160  173.8410  136.2860 C   0  0  0  0  0  0  0  0  0  0  0  0
  188.1040  175.0720  135.3160 N   0  0  0  0  0  0  0  0  0  0  0  0
  190.5880  173.8530  136.0740 C   0  0  0  0  0  0  0  0  0  0  0  0
  192.9670  175.2340  136.2950 C   0  0  0  0  0  3  0  0  0  0  0  0
  194.3570  173.1660  136.3750 C   0  0  0  0  0  1  0  0  0  0  0  0
  190.5650  175.2370  135.8030 C   0  0  0  0  0  0  0  0  0  0  0  0
  191.8090  173.1290  136.2160 C   0  0  0  0  0  3  0  0  0  0  0  0
  191.8080  175.9070  136.0220 C   0  0  0  0  0  3  0  0  0  0  0  0
  189.2990  175.9440  135.5870 C   0  0  2  0  0  3  0  0  0  0  0  0
  188.0720  174.0350  136.3850 C   0  0  0  0  0  2  0  0  0  0  0  0
  189.3290  173.1640  136.4620 C   0  0  0  0  0  2  0  0  0  0  0  0
  186.7700  175.6670  135.4670 C   0  0  0  0  0  2  0  0  0  0  0  0
  185.5060  174.5050  136.1270 S   0  0  0  0  0  0  0  0  0  0  0  0
  185.1580  176.9930  137.3380 C   0  0  0  0  0  3  0  0  0  0  0  0
  183.4470  177.3060  139.0300 C   0  0  0  0  0  0  0  0  0  0  0  0
  183.5960  175.1950  137.8310 C   0  0  0  0  0  3  0  0  0  0  0  0
  184.4770  177.8340  138.2110 C   0  0  0  0  0  3  0  0  0  0  0  0
  184.7010  175.6570  137.2040 C   0  0  0  0  0  0  0  0  0  0  0  0
  182.9890  176.0030  138.7990 C   0  0  0  0  0  3  0  0  0  0  0  0
  182.2630  178.4440  141.0000 N   0  0  0  0  0  0  0  0  0  0  0  0
  182.8000  178.0120  140.0580 C   0  0  0  0  0  0  0  0  0  0  0  0
  190.0650  176.7970  140.2510 C   0  0  0  0  0  2  0  0  0  0  0  0
  189.6880  177.5340  141.3540 O   0  0  0  0  0  0  0  0  0  0  0  0
  189.9790  176.8850  142.5730 C   0  0  0  0  0  2  0  0  0  0  0  0
  188.6430  176.4450  143.0970 C   0  0  0  0  0  2  0  0  0  0  0  0
  188.3400  176.9160  144.4010 N   0  0  0  0  0  0  0  0  0  0  0  0
  186.9840  177.5360  144.3770 C   0  0  0  0  0  0  0  0  0  0  0  0
  185.1420  178.4540  145.5920 C   0  0  0  0  0  3  0  0  0  0  0  0
  185.1680  178.5420  143.1930 C   0  0  0  0  0  3  0  0  0  0  0  0
  184.6190  178.9250  144.4150 C   0  0  0  0  0  3  0  0  0  0  0  0
  186.4070  177.8600  143.1670 C   0  0  0  0  0  3  0  0  0  0  0  0
  186.3500  177.7270  145.5670 C   0  0  0  0  0  3  0  0  0  0  0  0
  189.3460  177.8230  144.9460 C   0  0  0  0  0  2  0  0  0  0  0  0
  190.2340  177.3160  146.1110 C   0  0  0  0  0  2  0  0  0  0  0  0
  189.5200  176.7690  147.3350 C   0  0  0  0  0  2  0  0  0  0  0  0
  187.9230  178.2400  148.6650 C   0  0  0  0  0  1  0  0  0  0  0  0
  189.3680  177.9130  148.2810 C   0  0  0  0  0  2  0  0  0  0  0  0
  1  2  1  0  0  0  0
  2 28  1  6  0  0  0
  3  1  1  0  0  0  0
  4  2  1  0  0  0  0
  5  4  1  1  0  0  0
  6  5  1  0  0  0  0
  6  3  1  0  0  0  0
  7 10  1  0  0  0  0
  7 11  1  0  0  0  0
  8 18  1  0  0  0  0
  8 15  1  0  0  0  0
  8 16  1  0  0  0  0
  9 13  1  0  0  0  0
  9 17  1  0  0  0  0
 12 14  1  0  0  0  0
 12  9  2  0  0  0  0
 13  7  2  0  0  0  0
 14 10  2  0  0  0  0
 15 12  1  1  0  0  0
 15  5  1  0  0  0  0
 16 17  1  0  0  0  0
 18 19  1  0  0  0  0
 19 24  1  0  0  0  0
 20 23  1  0  0  0  0
 21 27  1  0  0  0  0
 22 25  2  0  0  0  0
 23 21  2  0  0  0  0
 24 20  2  0  0  0  0
 24 22  1  0  0  0  0
 25 21  1  0  0  0  0
 27 26  3  0  0  0  0
 28 29  1  0  0  0  0
 29 30  1  0  0  0  0
 30 31  1  0  0  0  0
 31 32  1  0  0  0  0
 32 39  1  0  0  0  0
 33 32  1  0  0  0  0
 33 38  1  0  0  0  0
 35 36  2  0  0  0  0
 36 34  1  0  0  0  0
 37 35  1  0  0  0  0
 37 33  2  0  0  0  0
 38 34  2  0  0  0  0
 39 40  1  0  0  0  0
 40 41  1  0  0  0  0
 41 43  1  0  0  0  0
 43 42  1  0  0  0  0
M  END
>  <MODEL>
2

>  <REMARK>
 VINA RESULT:      -7.7      0.824      1.329
  Name = 
  15 active torsions:
  status: ('A' for Active; 'I' for Inactive)
    1  A    between atoms: S_1  and  C_34
    2  A    between atoms: S_1  and  C_35
    3  A    between atoms: C_3  and  C_4
    4  A    between atoms: C_3  and  O_12
    5  A    between atoms: C_4  and  N_14
    6  A    between atoms: C_6  and  C_17
    7  A    between atoms: N_8  and  C_34
    8  A    between atoms: C_10  and  C_22
    9  A    between atoms: C_10  and  C_41
   10  A    between atoms: C_11  and  N_14
   11  A    between atoms: O_12  and  C_17
   12  A    between atoms: N_14  and  C_41
   13  A    between atoms: C_19  and  C_37
   14  A    between atoms: C_22  and  C_42
   15  A    between atoms: C_27  and  C_30
                            x       y       z     vdW  Elec       q    Type
                         _______ _______ _______ _____ _____    ______ ____

>  <TORSDO>
F 15

$$$$
=
 OpenBabel11052416143D

 43 47  0  0  1  0  0  0  0  0999 V2000
  189.1320  178.4080  139.8730 N   0  0  0  0  0  2  0  0  0  0  0  0
  189.7190  177.1570  139.8270 C   0  0  1  0  0  3  0  0  0  0  0  0
  188.7030  179.0080  138.5740 C   0  0  0  0  0  2  0  0  0  0  0  0
  190.1810  176.5800  138.7640 C   0  0  0  0  0  2  0  0  0  0  0  0
  189.6300  177.0130  137.5460 C   0  0  1  0  0  3  0  0  0  0  0  0
  189.4800  178.4600  137.4070 N   0  0  0  0  0  2  0  0  0  0  0  0
  193.8790  174.2040  137.5790 C   0  0  0  0  0  0  0  0  0  0  0  0
  189.2760  175.4550  135.6200 N   0  0  0  0  0  0  0  0  0  0  0  0
  191.5860  174.1850  136.7540 C   0  0  0  0  0  0  0  0  0  0  0  0
  193.7170  175.5650  137.8330 C   0  0  0  0  0  3  0  0  0  0  0  0
  195.2060  173.5660  137.8840 C   0  0  0  0  0  1  0  0  0  0  0  0
  191.5190  175.5930  136.7480 C   0  0  0  0  0  0  0  0  0  0  0  0
  192.7870  173.4850  137.0680 C   0  0  0  0  0  3  0  0  0  0  0  0
  192.6110  176.2440  137.4000 C   0  0  0  0  0  3  0  0  0  0  0  0
  190.2930  176.2910  136.3470 C   0  0  2  0  0  3  0  0  0  0  0  0
  189.0650  174.2240  136.4320 C   0  0  0  0  0  2  0  0  0  0  0  0
  190.3290  173.3940  136.6680 C   0  0  0  0  0  2  0  0  0  0  0  0
  187.9030  175.9670  135.5290 C   0  0  0  0  0  2  0  0  0  0  0  0
  186.6110  174.6890  135.8150 S   0  0  0  0  0  0  0  0  0  0  0  0
  184.3100  175.1940  137.3080 C   0  0  0  0  0  3  0  0  0  0  0  0
  183.9170  177.3940  138.2530 C   0  0  0  0  0  0  0  0  0  0  0  0
  186.0250  176.9100  137.1390 C   0  0  0  0  0  3  0  0  0  0  0  0
  183.5270  176.0420  138.0850 C   0  0  0  0  0  3  0  0  0  0  0  0
  185.5470  175.6860  136.8210 C   0  0  0  0  0  0  0  0  0  0  0  0
  185.1830  177.8010  137.8140 C   0  0  0  0  0  3  0  0  0  0  0  0
  182.4380  179.0740  139.5070 N   0  0  0  0  0  0  0  0  0  0  0  0
  183.1350  178.3820  138.8750 C   0  0  0  0  0  0  0  0  0  0  0  0
  190.1870  176.5320  141.1430 C   0  0  0  0  0  2  0  0  0  0  0  0
  191.2090  177.2300  141.7500 O   0  0  0  0  0  0  0  0  0  0  0  0
  190.7960  177.9030  142.9190 C   0  0  0  0  0  2  0  0  0  0  0  0
  189.6930  177.0530  143.4780 C   0  0  0  0  0  2  0  0  0  0  0  0
  188.5440  177.7770  143.8900 N   0  0  0  0  0  0  0  0  0  0  0  0
  188.4580  177.7200  145.3790 C   0  0  0  0  0  0  0  0  0  0  0  0
  187.1080  177.8480  147.3470 C   0  0  0  0  0  3  0  0  0  0  0  0
  189.4220  177.2320  147.5090 C   0  0  0  0  0  3  0  0  0  0  0  0
  188.1590  177.3610  148.0810 C   0  0  0  0  0  3  0  0  0  0  0  0
  189.5750  177.3780  146.1100 C   0  0  0  0  0  3  0  0  0  0  0  0
  187.2700  178.0450  145.9590 C   0  0  0  0  0  3  0  0  0  0  0  0
  187.3100  177.3290  143.2540 C   0  0  0  0  0  2  0  0  0  0  0  0
  186.5380  178.3360  142.3620 C   0  0  0  0  0  2  0  0  0  0  0  0
  185.0460  178.1040  142.1930 C   0  0  0  0  0  2  0  0  0  0  0  0
  184.5830  179.8000  144.0350 C   0  0  0  0  0  1  0  0  0  0  0  0
  184.4240  178.3660  143.5230 C   0  0  0  0  0  2  0  0  0  0  0  0
  2  1  1  0  0  0  0
  2 28  1  1  0  0  0
  3  1  1  0  0  0  0
  4  2  1  0  0  0  0
  5  4  1  1  0  0  0
  6  5  1  0  0  0  0
  6  3  1  0  0  0  0
  7 10  1  0  0  0  0
  7 11  1  0  0  0  0
  8 15  1  0  0  0  0
  8 16  1  0  0  0  0
  9 13  1  0  0  0  0
 12  9  2  0  0  0  0
 12 14  1  0  0  0  0
 13  7  2  0  0  0  0
 14 10  2  0  0  0  0
 15 12  1  1  0  0  0
 15  5  1  0  0  0  0
 16 17  1  0  0  0  0
 17  9  1  0  0  0  0
 18  8  1  0  0  0  0
 18 19  1  0  0  0  0
 19 24  1  0  0  0  0
 20 23  1  0  0  0  0
 21 27  1  0  0  0  0
 22 25  2  0  0  0  0
 23 21  2  0  0  0  0
 24 22  1  0  0  0  0
 24 20  2  0  0  0  0
 25 21  1  0  0  0  0
 27 26  3  0  0  0  0
 28 29  1  0  0  0  0
 29 30  1  0  0  0  0
 30 31  1  0  0  0  0
 31 32  1  0  0  0  0
 32 33  1  0  0  0  0
 33 38  2  0  0  0  0
 33 37  1  0  0  0  0
 34 36  2  0  0  0  0
 35 36  1  0  0  0  0
 37 35  2  0  0  0  0
 38 34  1  0  0  0  0
 39 32  1  0  0  0  0
 40 39  1  0  0  0  0
 41 40  1  0  0  0  0
 41 43  1  0  0  0  0
 43 42  1  0  0  0  0
M  END
>  <MODEL>
3

>  <REMARK>
 VINA RESULT:      -7.6      0.898      2.644
  Name = 
  15 active torsions:
  status: ('A' for Active; 'I' for Inactive)
    1  A    between atoms: S_1  and  C_34
    2  A    between atoms: S_1  and  C_35
    3  A    between atoms: C_3  and  C_4
    4  A    between atoms: C_3  and  O_12
    5  A    between atoms: C_4  and  N_14
    6  A    between atoms: C_6  and  C_17
    7  A    between atoms: N_8  and  C_34
    8  A    between atoms: C_10  and  C_22
    9  A    between atoms: C_10  and  C_41
   10  A    between atoms: C_11  and  N_14
   11  A    between atoms: O_12  and  C_17
   12  A    between atoms: N_14  and  C_41
   13  A    between atoms: C_19  and  C_37
   14  A    between atoms: C_22  and  C_42
   15  A    between atoms: C_27  and  C_30
                            x       y       z     vdW  Elec       q    Type
                         _______ _______ _______ _____ _____    ______ ____

>  <TORSDO>
F 15

$$$$
=
 OpenBabel11052416143D

 43 47  0  0  1  0  0  0  0  0999 V2000
  187.4420  178.6070  138.3040 N   0  0  0  0  0  2  0  0  0  0  0  0
  188.2100  177.5180  138.6720 C   0  0  1  0  0  3  0  0  0  0  0  0
  187.0490  178.7090  136.8660 C   0  0  0  0  0  2  0  0  0  0  0  0
  188.8470  176.7350  137.8610 C   0  0  0  0  0  2  0  0  0  0  0  0
  188.3510  176.6840  136.5470 C   0  0  1  0  0  3  0  0  0  0  0  0
  188.0020  177.9760  135.9600 N   0  0  0  0  0  2  0  0  0  0  0  0
  193.0170  174.9070  137.5550 C   0  0  0  0  0  0  0  0  0  0  0  0
  188.4260  174.5550  135.2350 N   0  0  0  0  0  0  0  0  0  0  0  0
  190.8320  174.1830  136.7520 C   0  0  0  0  0  0  0  0  0  0  0  0
  192.5970  176.2200  137.3470 C   0  0  0  0  0  3  0  0  0  0  0  0
  194.4090  174.6670  138.0690 C   0  0  0  0  0  1  0  0  0  0  0  0
  190.5170  175.4760  136.2840 C   0  0  0  0  0  0  0  0  0  0  0  0
  192.1120  173.8660  137.2950 C   0  0  0  0  0  3  0  0  0  0  0  0
  191.4240  176.4980  136.7010 C   0  0  0  0  0  3  0  0  0  0  0  0
  189.2200  175.7580  135.6610 C   0  0  2  0  0  3  0  0  0  0  0  0
  188.3760  173.6320  136.4030 C   0  0  0  0  0  2  0  0  0  0  0  0
  189.7460  173.1810  136.9140 C   0  0  0  0  0  2  0  0  0  0  0  0
  186.9940  174.7360  134.9630 C   0  0  0  0  0  2  0  0  0  0  0  0
  185.9150  173.5040  135.7990 S   0  0  0  0  0  0  0  0  0  0  0  0
  184.0870  174.3420  137.7330 C   0  0  0  0  0  3  0  0  0  0  0  0
  183.0270  176.5180  137.5580 C   0  0  0  0  0  0  0  0  0  0  0  0
  184.7750  175.8900  135.9870 C   0  0  0  0  0  3  0  0  0  0  0  0
  183.2390  175.3070  138.2650 C   0  0  0  0  0  3  0  0  0  0  0  0
  184.8170  174.6670  136.5610 C   0  0  0  0  0  0  0  0  0  0  0  0
  183.8310  176.8140  136.4500 C   0  0  0  0  0  3  0  0  0  0  0  0
  181.3990  178.3420  138.3350 N   0  0  0  0  0  0  0  0  0  0  0  0
  182.0790  177.4940  137.9080 C   0  0  0  0  0  0  0  0  0  0  0  0
  188.6430  177.4040  140.1360 C   0  0  0  0  0  2  0  0  0  0  0  0
  189.9160  176.8990  140.2950 O   0  0  0  0  0  0  0  0  0  0  0  0
  190.5450  177.3560  141.4720 C   0  0  0  0  0  2  0  0  0  0  0  0
  190.0300  176.4530  142.5540 C   0  0  0  0  0  2  0  0  0  0  0  0
  189.2490  177.1060  143.5420 N   0  0  0  0  0  0  0  0  0  0  0  0
  189.9470  176.9810  144.8550 C   0  0  0  0  0  0  0  0  0  0  0  0
  189.8320  177.0850  147.2400 C   0  0  0  0  0  3  0  0  0  0  0  0
  191.8420  176.3380  146.1610 C   0  0  0  0  0  3  0  0  0  0  0  0
  191.0730  176.5060  147.3100 C   0  0  0  0  0  3  0  0  0  0  0  0
  191.2540  176.5440  144.8900 C   0  0  0  0  0  3  0  0  0  0  0  0
  189.2620  177.3410  145.9760 C   0  0  0  0  0  3  0  0  0  0  0  0
  187.8710  176.6320  143.6090 C   0  0  0  0  0  2  0  0  0  0  0  0
  186.7300  177.6670  143.4270 C   0  0  0  0  0  2  0  0  0  0  0  0
  185.9610  178.0700  144.6730 C   0  0  0  0  0  2  0  0  0  0  0  0
  183.5250  178.7310  144.3380 C   0  0  0  0  0  1  0  0  0  0  0  0
  185.0000  179.1310  144.2510 C   0  0  0  0  0  2  0  0  0  0  0  0
  1  2  1  0  0  0  0
  2 28  1  1  0  0  0
  3  1  1  0  0  0  0
  4  2  1  0  0  0  0
  5  4  1  1  0  0  0
  6  5  1  0  0  0  0
  6  3  1  0  0  0  0
  7 11  1  0  0  0  0
  8 15  1  0  0  0  0
  8 16  1  0  0  0  0
  9 17  1  0  0  0  0
  9 13  1  0  0  0  0
 10  7  1  0  0  0  0
 12 14  1  0  0  0  0
 12  9  2  0  0  0  0
 13  7  2  0  0  0  0
 14 10  2  0  0  0  0
 15 12  1  1  0  0  0
 15  5  1  0  0  0  0
 16 17  1  0  0  0  0
 18  8  1  0  0  0  0
 18 19  1  0  0  0  0
 19 24  1  0  0  0  0
 20 23  1  0  0  0  0
 21 27  1  0  0  0  0
 21 23  2  0  0  0  0
 22 25  2  0  0  0  0
 22 24  1  0  0  0  0
 24 20  2  0  0  0  0
 25 21  1  0  0  0  0
 27 26  3  0  0  0  0
 28 29  1  0  0  0  0
 29 30  1  0  0  0  0
 30 31  1  0  0  0  0
 31 32  1  0  0  0  0
 32 39  1  0  0  0  0
 32 33  1  0  0  0  0
 33 37  2  0  0  0  0
 33 38  1  0  0  0  0
 34 36  1  0  0  0  0
 35 36  2  0  0  0  0
 37 35  1  0  0  0  0
 38 34  2  0  0  0  0
 40 39  1  0  0  0  0
 40 41  1  0  0  0  0
 43 42  1  0  0  0  0
 43 41  1  0  0  0  0
M  END
>  <MODEL>
4

>  <REMARK>
 VINA RESULT:      -7.3      1.270      3.077
  Name = 
  15 active torsions:
  status: ('A' for Active; 'I' for Inactive)
    1  A    between atoms: S_1  and  C_34
    2  A    between atoms: S_1  and  C_35
    3  A    between atoms: C_3  and  C_4
    4  A    between atoms: C_3  and  O_12
    5  A    between atoms: C_4  and  N_14
    6  A    between atoms: C_6  and  C_17
    7  A    between atoms: N_8  and  C_34
    8  A    between atoms: C_10  and  C_22
    9  A    between atoms: C_10  and  C_41
   10  A    between atoms: C_11  and  N_14
   11  A    between atoms: O_12  and  C_17
   12  A    between atoms: N_14  and  C_41
   13  A    between atoms: C_19  and  C_37
   14  A    between atoms: C_22  and  C_42
   15  A    between atoms: C_27  and  C_30
                            x       y       z     vdW  Elec       q    Type
                         _______ _______ _______ _____ _____    ______ ____

>  <TORSDO>
F 15

$$$$
=
 OpenBabel11052416143D

 43 47  0  0  1  0  0  0  0  0999 V2000
  184.8620  179.5300  140.4890 N   0  0  0  0  0  2  0  0  0  0  0  0
  185.9750  178.7200  140.3560 C   0  0  1  0  0  3  0  0  0  0  0  0
  183.9310  179.6070  139.3220 C   0  0  0  0  0  2  0  0  0  0  0  0
  186.4340  178.2460  139.2410 C   0  0  0  0  0  2  0  0  0  0  0  0
  185.5020  178.1370  138.1950 C   0  0  1  0  0  3  0  0  0  0  0  0
  184.6180  179.2880  138.0220 N   0  0  0  0  0  2  0  0  0  0  0  0
  190.3550  176.7190  137.5810 C   0  0  0  0  0  0  0  0  0  0  0  0
  185.3610  176.4860  136.3200 N   0  0  0  0  0  0  0  0  0  0  0  0
  188.0800  175.9940  137.0930 C   0  0  0  0  0  0  0  0  0  0  0  0
  189.8320  177.9780  137.8740 C   0  0  0  0  0  3  0  0  0  0  0  0
  191.8410  176.5140  137.6840 C   0  0  0  0  0  1  0  0  0  0  0  0
  187.5970  177.3190  137.1160 C   0  0  0  0  0  0  0  0  0  0  0  0
  189.4680  175.6930  137.2230 C   0  0  0  0  0  3  0  0  0  0  0  0
  188.5250  178.2840  137.6130 C   0  0  0  0  0  3  0  0  0  0  0  0
  186.1740  177.6080  136.9050 C   0  0  2  0  0  3  0  0  0  0  0  0
  185.6430  175.2740  137.1380 C   0  0  0  0  0  2  0  0  0  0  0  0
  187.1180  174.8640  137.1790 C   0  0  0  0  0  2  0  0  0  0  0  0
  183.9000  176.5640  136.4340 C   0  0  0  0  0  2  0  0  0  0  0  0
  183.0790  174.9290  136.6240 S   0  0  0  0  0  0  0  0  0  0  0  0
  180.6990  174.8550  138.0760 C   0  0  0  0  0  3  0  0  0  0  0  0
  180.3950  176.2910  140.0090 C   0  0  0  0  0  0  0  0  0  0  0  0
  182.5510  176.2090  138.8840 C   0  0  0  0  0  3  0  0  0  0  0  0
  179.9180  175.2680  139.1500 C   0  0  0  0  0  3  0  0  0  0  0  0
  182.0100  175.3830  137.9610 C   0  0  0  0  0  0  0  0  0  0  0  0
  181.7240  176.7180  139.8920 C   0  0  0  0  0  3  0  0  0  0  0  0
  179.1570  177.5080  141.8970 N   0  0  0  0  0  0  0  0  0  0  0  0
  179.6390  176.9020  141.0230 C   0  0  0  0  0  0  0  0  0  0  0  0
  186.9540  178.6430  141.5300 C   0  0  0  0  0  2  0  0  0  0  0  0
  188.0960  177.9250  141.2470 O   0  0  0  0  0  0  0  0  0  0  0  0
  189.0380  177.9540  142.2970 C   0  0  0  0  0  2  0  0  0  0  0  0
  188.3670  177.2320  143.4290 C   0  0  0  0  0  2  0  0  0  0  0  0
  188.5040  177.8640  144.6920 N   0  0  0  0  0  0  0  0  0  0  0  0
  189.6390  177.2260  145.4200 C   0  0  0  0  0  0  0  0  0  0  0  0
  191.7810  176.1690  145.3280 C   0  0  0  0  0  3  0  0  0  0  0  0
  190.7880  176.6990  147.4480 C   0  0  0  0  0  3  0  0  0  0  0  0
  191.8820  176.2890  146.6900 C   0  0  0  0  0  3  0  0  0  0  0  0
  189.6430  177.2190  146.7980 C   0  0  0  0  0  3  0  0  0  0  0  0
  190.6200  176.6390  144.6800 C   0  0  0  0  0  3  0  0  0  0  0  0
  187.2790  177.8640  145.4840 C   0  0  0  0  0  2  0  0  0  0  0  0
  185.9250  177.9860  144.7380 C   0  0  0  0  0  2  0  0  0  0  0  0
  184.9070  178.9580  145.3120 C   0  0  0  0  0  2  0  0  0  0  0  0
  182.6600  178.8410  144.1210 C   0  0  0  0  0  1  0  0  0  0  0  0
  184.0750  179.4240  144.1650 C   0  0  0  0  0  2  0  0  0  0  0  0
  2  1  1  0  0  0  0
  2 28  1  6  0  0  0
  3  1  1  0  0  0  0
  4  2  1  0  0  0  0
  5  4  1  1  0  0  0
  6  5  1  0  0  0  0
  6  3  1  0  0  0  0
  7 11  1  0  0  0  0
  7 10  1  0  0  0  0
  8 18  1  0  0  0  0
  8 15  1  0  0  0  0
  8 16  1  0  0  0  0
  9 12  2  0  0  0  0
  9 17  1  0  0  0  0
  9 13  1  0  0  0  0
 12 14  1  0  0  0  0
 13  7  2  0  0  0  0
 14 10  2  0  0  0  0
 15 12  1  1  0  0  0
 15  5  1  0  0  0  0
 16 17  1  0  0  0  0
 18 19  1  0  0  0  0
 19 24  1  0  0  0  0
 20 23  1  0  0  0  0
 21 27  1  0  0  0  0
 22 25  2  0  0  0  0
 23 21  2  0  0  0  0
 24 20  2  0  0  0  0
 24 22  1  0  0  0  0
 25 21  1  0  0  0  0
 27 26  3  0  0  0  0
 29 28  1  0  0  0  0
 29 30  1  0  0  0  0
 30 31  1  0  0  0  0
 31 32  1  0  0  0  0
 32 33  1  0  0  0  0
 32 39  1  0  0  0  0
 33 37  1  0  0  0  0
 34 36  2  0  0  0  0
 36 35  1  0  0  0  0
 37 35  2  0  0  0  0
 38 34  1  0  0  0  0
 38 33  2  0  0  0  0
 40 41  1  0  0  0  0
 40 39  1  0  0  0  0
 42 43  1  0  0  0  0
 43 41  1  0  0  0  0
M  END
>  <MODEL>
5

>  <REMARK>
 VINA RESULT:      -7.3      2.123      4.472
  Name = 
  15 active torsions:
  status: ('A' for Active; 'I' for Inactive)
    1  A    between atoms: S_1  and  C_34
    2  A    between atoms: S_1  and  C_35
    3  A    between atoms: C_3  and  C_4
    4  A    between atoms: C_3  and  O_12
    5  A    between atoms: C_4  and  N_14
    6  A    between atoms: C_6  and  C_17
    7  A    between atoms: N_8  and  C_34
    8  A    between atoms: C_10  and  C_22
    9  A    between atoms: C_10  and  C_41
   10  A    between atoms: C_11  and  N_14
   11  A    between atoms: O_12  and  C_17
   12  A    between atoms: N_14  and  C_41
   13  A    between atoms: C_19  and  C_37
   14  A    between atoms: C_22  and  C_42
   15  A    between atoms: C_27  and  C_30
                            x       y       z     vdW  Elec       q    Type
                         _______ _______ _______ _____ _____    ______ ____

>  <TORSDO>
F 15

$$$$
=
 OpenBabel11052416143D

 43 47  0  0  1  0  0  0  0  0999 V2000
  182.5300  178.6440  140.7300 N   0  0  0  0  0  2  0  0  0  0  0  0
  182.7810  179.1190  139.4560 C   0  0  1  0  0  3  0  0  0  0  0  0
  181.1220  178.2540  141.0470 C   0  0  0  0  0  2  0  0  0  0  0  0
  181.8860  179.5180  138.6100 C   0  0  0  0  0  2  0  0  0  0  0  0
  180.5950  178.9930  138.7950 C   0  0  1  0  0  3  0  0  0  0  0  0
  180.1230  178.9680  140.1780 N   0  0  0  0  0  2  0  0  0  0  0  0
  180.8050  183.5480  136.5250 C   0  0  0  0  0  0  0  0  0  0  0  0
  179.3810  178.5940  136.6440 N   0  0  0  0  0  0  0  0  0  0  0  0
  180.4460  181.1880  136.0360 C   0  0  0  0  0  0  0  0  0  0  0  0
  180.6220  183.2390  137.8730 C   0  0  0  0  0  3  0  0  0  0  0  0
  181.0650  184.9780  136.1420 C   0  0  0  0  0  1  0  0  0  0  0  0
  179.9900  180.9310  137.3450 C   0  0  0  0  0  0  0  0  0  0  0  0
  180.7580  182.5050  135.5880 C   0  0  0  0  0  3  0  0  0  0  0  0
  180.1910  182.0030  138.2680 C   0  0  0  0  0  3  0  0  0  0  0  0
  179.6040  179.5770  137.7590 C   0  0  2  0  0  3  0  0  0  0  0  0
  180.5760  178.6640  135.7570 C   0  0  0  0  0  2  0  0  0  0  0  0
  180.8460  180.0500  135.1650 C   0  0  0  0  0  2  0  0  0  0  0  0
  179.3680  177.1650  136.9790 C   0  0  0  0  0  2  0  0  0  0  0  0
  179.8000  176.0640  135.5700 S   0  0  0  0  0  0  0  0  0  0  0  0
  181.8240  175.8550  137.4780 C   0  0  0  0  0  3  0  0  0  0  0  0
  183.5180  174.1280  137.2870 C   0  0  0  0  0  0  0  0  0  0  0  0
  181.6410  174.1640  135.7390 C   0  0  0  0  0  3  0  0  0  0  0  0
  182.9410  175.2110  137.9980 C   0  0  0  0  0  3  0  0  0  0  0  0
  181.2200  175.3120  136.3150 C   0  0  0  0  0  0  0  0  0  0  0  0
  182.8360  173.5900  136.1880 C   0  0  0  0  0  3  0  0  0  0  0  0
  185.6940  172.8640  137.7820 N   0  0  0  0  0  0  0  0  0  0  0  0
  184.7320  173.5060  137.6220 C   0  0  0  0  0  0  0  0  0  0  0  0
  184.2110  179.5450  139.1160 C   0  0  0  0  0  2  0  0  0  0  0  0
  185.0150  179.7070  140.2240 O   0  0  0  0  0  0  0  0  0  0  0  0
  185.9110  178.6340  140.4150 C   0  0  0  0  0  2  0  0  0  0  0  0
  186.4860  178.8570  141.7830 C   0  0  0  0  0  2  0  0  0  0  0  0
  186.7260  177.6690  142.5200 N   0  0  0  0  0  0  0  0  0  0  0  0
  186.2930  177.8910  143.9310 C   0  0  0  0  0  0  0  0  0  0  0  0
  186.6770  177.5240  146.2610 C   0  0  0  0  0  3  0  0  0  0  0  0
  184.9250  178.9990  145.5450 C   0  0  0  0  0  3  0  0  0  0  0  0
  185.7320  178.4740  146.5510 C   0  0  0  0  0  3  0  0  0  0  0  0
  185.2330  178.7330  144.1900 C   0  0  0  0  0  3  0  0  0  0  0  0
  186.9530  177.2160  144.9120 C   0  0  0  0  0  3  0  0  0  0  0  0
  188.1050  177.1970  142.4400 C   0  0  0  0  0  2  0  0  0  0  0  0
  189.2350  178.2530  142.3360 C   0  0  0  0  0  2  0  0  0  0  0  0
  190.1200  178.4380  143.5570 C   0  0  0  0  0  2  0  0  0  0  0  0
  191.1760  177.0460  145.4080 C   0  0  0  0  0  1  0  0  0  0  0  0
  190.3570  177.0750  144.1160 C   0  0  0  0  0  2  0  0  0  0  0  0
  1  3  1  0  0  0  0
  2 28  1  1  0  0  0
  2  1  1  0  0  0  0
  4  2  1  0  0  0  0
  5  4  1  1  0  0  0
  5  6  1  0  0  0  0
  6  3  1  0  0  0  0
  7 10  1  0  0  0  0
  8 18  1  0  0  0  0
  8 15  1  0  0  0  0
  9 12  2  0  0  0  0
 10 14  2  0  0  0  0
 11  7  1  0  0  0  0
 12 14  1  0  0  0  0
 13  9  1  0  0  0  0
 13  7  2  0  0  0  0
 15 12  1  6  0  0  0
 15  5  1  0  0  0  0
 16  8  1  0  0  0  0
 17 16  1  0  0  0  0
 17  9  1  0  0  0  0
 19 24  1  0  0  0  0
 19 18  1  0  0  0  0
 20 23  1  0  0  0  0
 21 27  1  0  0  0  0
 21 23  2  0  0  0  0
 22 25  2  0  0  0  0
 22 24  1  0  0  0  0
 24 20  2  0  0  0  0
 25 21  1  0  0  0  0
 27 26  3  0  0  0  0
 28 29  1  0  0  0  0
 29 30  1  0  0  0  0
 30 31  1  0  0  0  0
 31 32  1  0  0  0  0
 32 33  1  0  0  0  0
 33 37  2  0  0  0  0
 33 38  1  0  0  0  0
 34 36  1  0  0  0  0
 35 36  2  0  0  0  0
 37 35  1  0  0  0  0
 38 34  2  0  0  0  0
 39 32  1  0  0  0  0
 40 39  1  0  0  0  0
 40 41  1  0  0  0  0
 41 43  1  0  0  0  0
 43 42  1  0  0  0  0
M  END
>  <MODEL>
6

>  <REMARK>
 VINA RESULT:      -7.1      4.332      8.210
  Name = 
  15 active torsions:
  status: ('A' for Active; 'I' for Inactive)
    1  A    between atoms: S_1  and  C_34
    2  A    between atoms: S_1  and  C_35
    3  A    between atoms: C_3  and  C_4
    4  A    between atoms: C_3  and  O_12
    5  A    between atoms: C_4  and  N_14
    6  A    between atoms: C_6  and  C_17
    7  A    between atoms: N_8  and  C_34
    8  A    between atoms: C_10  and  C_22
    9  A    between atoms: C_10  and  C_41
   10  A    between atoms: C_11  and  N_14
   11  A    between atoms: O_12  and  C_17
   12  A    between atoms: N_14  and  C_41
   13  A    between atoms: C_19  and  C_37
   14  A    between atoms: C_22  and  C_42
   15  A    between atoms: C_27  and  C_30
                            x       y       z     vdW  Elec       q    Type
                         _______ _______ _______ _____ _____    ______ ____

>  <TORSDO>
F 15

$$$$
=
 OpenBabel11052416143D

 43 47  0  0  1  0  0  0  0  0999 V2000
  185.9830  178.0840  137.5350 N   0  0  0  0  0  2  0  0  0  0  0  0
  185.3490  178.2910  138.7470 C   0  0  1  0  0  3  0  0  0  0  0  0
  187.4630  177.8840  137.5650 C   0  0  0  0  0  2  0  0  0  0  0  0
  185.9340  178.6000  139.8600 C   0  0  0  0  0  2  0  0  0  0  0  0
  187.2870  178.2330  139.9620 C   0  0  1  0  0  3  0  0  0  0  0  0
  188.0990  178.5070  138.7780 N   0  0  0  0  0  2  0  0  0  0  0  0
  184.9300  178.5630  144.4650 C   0  0  0  0  0  0  0  0  0  0  0  0
  189.1660  177.9560  141.5900 N   0  0  0  0  0  0  0  0  0  0  0  0
  186.9870  177.7480  143.4440 C   0  0  0  0  0  0  0  0  0  0  0  0
  184.6950  179.2760  143.2900 C   0  0  0  0  0  3  0  0  0  0  0  0
  183.9400  178.6810  145.5910 C   0  0  0  0  0  1  0  0  0  0  0  0
  186.8910  178.6740  142.3850 C   0  0  0  0  0  0  0  0  0  0  0  0
  186.0720  177.7510  144.5380 C   0  0  0  0  0  3  0  0  0  0  0  0
  185.6450  179.3680  142.3110 C   0  0  0  0  0  3  0  0  0  0  0  0
  187.8890  178.6980  141.3100 C   0  0  2  0  0  3  0  0  0  0  0  0
  188.7840  176.5970  142.0630 C   0  0  0  0  0  2  0  0  0  0  0  0
  187.9050  176.5850  143.3170 C   0  0  0  0  0  2  0  0  0  0  0  0
  190.0310  177.6200  140.4510 C   0  0  0  0  0  2  0  0  0  0  0  0
  191.8140  177.4900  140.8820 S   0  0  0  0  0  0  0  0  0  0  0  0
  191.3120  178.5370  143.4180 C   0  0  0  0  0  3  0  0  0  0  0  0
  191.4440  177.1170  145.3810 C   0  0  0  0  0  0  0  0  0  0  0  0
  191.6710  176.1450  143.1620 C   0  0  0  0  0  3  0  0  0  0  0  0
  191.1680  178.3760  144.7920 C   0  0  0  0  0  3  0  0  0  0  0  0
  191.6010  177.3890  142.6370 C   0  0  0  0  0  0  0  0  0  0  0  0
  191.6500  176.0050  144.5550 C   0  0  0  0  0  3  0  0  0  0  0  0
  191.4270  176.5280  147.8770 N   0  0  0  0  0  0  0  0  0  0  0  0
  191.4910  176.8730  146.7640 C   0  0  0  0  0  0  0  0  0  0  0  0
  183.8360  178.5200  138.7390 C   0  0  0  0  0  2  0  0  0  0  0  0
  183.2390  178.2030  137.5380 O   0  0  0  0  0  0  0  0  0  0  0  0
  181.9070  178.6600  137.4490 C   0  0  0  0  0  2  0  0  0  0  0  0
  181.9530  180.0660  137.9730 C   0  0  0  0  0  2  0  0  0  0  0  0
  180.6810  180.6740  138.1340 N   0  0  0  0  0  0  0  0  0  0  0  0
  180.6440  181.9180  137.3130 C   0  0  0  0  0  0  0  0  0  0  0  0
  180.9450  184.2860  137.1870 C   0  0  0  0  0  3  0  0  0  0  0  0
  180.4850  183.0220  135.1990 C   0  0  0  0  0  3  0  0  0  0  0  0
  180.8670  184.2080  135.8200 C   0  0  0  0  0  3  0  0  0  0  0  0
  180.4060  181.8300  135.9570 C   0  0  0  0  0  3  0  0  0  0  0  0
  180.8150  183.1080  137.9520 C   0  0  0  0  0  3  0  0  0  0  0  0
  180.3250  180.9280  139.5270 C   0  0  0  0  0  2  0  0  0  0  0  0
  180.8010  179.9170  140.6010 C   0  0  0  0  0  2  0  0  0  0  0  0
  180.0290  179.8860  141.9090 C   0  0  0  0  0  2  0  0  0  0  0  0
  180.1280  178.3520  143.9380 C   0  0  0  0  0  1  0  0  0  0  0  0
  180.8910  179.1660  142.8910 C   0  0  0  0  0  2  0  0  0  0  0  0
  1  3  1  0  0  0  0
  1  2  1  0  0  0  0
  2 28  1  6  0  0  0
  2  4  1  0  0  0  0
  3  6  1  0  0  0  0
  5  4  1  6  0  0  0
  5 15  1  0  0  0  0
  6  5  1  0  0  0  0
  7 13  1  0  0  0  0
  7 11  1  0  0  0  0
  8 16  1  0  0  0  0
  9 13  2  0  0  0  0
 10  7  2  0  0  0  0
 12  9  1  0  0  0  0
 14 12  2  0  0  0  0
 14 10  1  0  0  0  0
 15  8  1  0  0  0  0
 15 12  1  1  0  0  0
 16 17  1  0  0  0  0
 17  9  1  0  0  0  0
 18 19  1  0  0  0  0
 18  8  1  0  0  0  0
 19 24  1  0  0  0  0
 20 23  1  0  0  0  0
 21 27  1  0  0  0  0
 22 25  2  0  0  0  0
 23 21  2  0  0  0  0
 24 22  1  0  0  0  0
 24 20  2  0  0  0  0
 25 21  1  0  0  0  0
 27 26  3  0  0  0  0
 29 28  1  0  0  0  0
 30 29  1  0  0  0  0
 30 31  1  0  0  0  0
 31 32  1  0  0  0  0
 32 39  1  0  0  0  0
 33 38  1  0  0  0  0
 33 32  1  0  0  0  0
 34 38  2  0  0  0  0
 35 36  2  0  0  0  0
 35 37  1  0  0  0  0
 36 34  1  0  0  0  0
 37 33  2  0  0  0  0
 39 40  1  0  0  0  0
 40 41  1  0  0  0  0
 41 43  1  0  0  0  0
 43 42  1  0  0  0  0
M  END
>  <MODEL>
7

>  <REMARK>
 VINA RESULT:      -7.0      3.572      9.191
  Name = 
  15 active torsions:
  status: ('A' for Active; 'I' for Inactive)
    1  A    between atoms: S_1  and  C_34
    2  A    between atoms: S_1  and  C_35
    3  A    between atoms: C_3  and  C_4
    4  A    between atoms: C_3  and  O_12
    5  A    between atoms: C_4  and  N_14
    6  A    between atoms: C_6  and  C_17
    7  A    between atoms: N_8  and  C_34
    8  A    between atoms: C_10  and  C_22
    9  A    between atoms: C_10  and  C_41
   10  A    between atoms: C_11  and  N_14
   11  A    between atoms: O_12  and  C_17
   12  A    between atoms: N_14  and  C_41
   13  A    between atoms: C_19  and  C_37
   14  A    between atoms: C_22  and  C_42
   15  A    between atoms: C_27  and  C_30
                            x       y       z     vdW  Elec       q    Type
                         _______ _______ _______ _____ _____    ______ ____

>  <TORSDO>
F 15

$$$$
=
 OpenBabel11052416143D

 43 47  0  0  1  0  0  0  0  0999 V2000
  185.8570  177.9780  137.5090 N   0  0  0  0  0  2  0  0  0  0  0  0
  185.2590  178.0220  138.7550 C   0  0  1  0  0  3  0  0  0  0  0  0
  187.3500  177.9890  137.4680 C   0  0  0  0  0  2  0  0  0  0  0  0
  185.8470  178.3470  139.8620 C   0  0  0  0  0  2  0  0  0  0  0  0
  187.2410  178.1700  139.8870 C   0  0  1  0  0  3  0  0  0  0  0  0
  187.9500  178.6250  138.6930 N   0  0  0  0  0  2  0  0  0  0  0  0
  184.8090  178.7080  144.3300 C   0  0  0  0  0  0  0  0  0  0  0  0
  189.0720  177.8430  141.5610 N   0  0  0  0  0  0  0  0  0  0  0  0
  186.8470  177.7760  143.3720 C   0  0  0  0  0  0  0  0  0  0  0  0
  184.6320  179.4040  143.1350 C   0  0  0  0  0  3  0  0  0  0  0  0
  183.8020  178.8950  145.4310 C   0  0  0  0  0  1  0  0  0  0  0  0
  186.8170  178.6820  142.2910 C   0  0  0  0  0  0  0  0  0  0  0  0
  185.9110  177.8460  144.4450 C   0  0  0  0  0  3  0  0  0  0  0  0
  185.6060  179.4310  142.1750 C   0  0  0  0  0  3  0  0  0  0  0  0
  187.8370  178.6370  141.2380 C   0  0  2  0  0  3  0  0  0  0  0  0
  188.6170  176.5140  142.0550 C   0  0  0  0  0  2  0  0  0  0  0  0
  187.7130  176.5700  143.2890 C   0  0  0  0  0  2  0  0  0  0  0  0
  189.9430  177.4430  140.4490 C   0  0  0  0  0  2  0  0  0  0  0  0
  191.7370  177.5020  140.8490 S   0  0  0  0  0  0  0  0  0  0  0  0
  191.2420  178.4990  143.4060 C   0  0  0  0  0  3  0  0  0  0  0  0
  191.4800  177.0650  145.3500 C   0  0  0  0  0  0  0  0  0  0  0  0
  191.7050  176.1280  143.1170 C   0  0  0  0  0  3  0  0  0  0  0  0
  191.1340  178.3170  144.7810 C   0  0  0  0  0  3  0  0  0  0  0  0
  191.5670  177.3730  142.6070 C   0  0  0  0  0  0  0  0  0  0  0  0
  191.7190  175.9720  144.5070 C   0  0  0  0  0  3  0  0  0  0  0  0
  191.7840  176.4990  147.8340 N   0  0  0  0  0  0  0  0  0  0  0  0
  191.5670  176.8090  146.7290 C   0  0  0  0  0  0  0  0  0  0  0  0
  183.7300  178.0340  138.8210 C   0  0  0  0  0  2  0  0  0  0  0  0
  183.1930  179.3020  138.8800 O   0  0  0  0  0  0  0  0  0  0  0  0
  182.1120  179.4820  137.9910 C   0  0  0  0  0  2  0  0  0  0  0  0
  180.8900  179.4180  138.8600 C   0  0  0  0  0  2  0  0  0  0  0  0
  180.8130  180.4410  139.8400 N   0  0  0  0  0  0  0  0  0  0  0  0
  180.3660  179.8310  141.1260 C   0  0  0  0  0  0  0  0  0  0  0  0
  179.1170  180.0380  143.1530 C   0  0  0  0  0  3  0  0  0  0  0  0
  180.1410  177.9450  142.5770 C   0  0  0  0  0  3  0  0  0  0  0  0
  179.2770  178.6940  143.3720 C   0  0  0  0  0  3  0  0  0  0  0  0
  180.6750  178.5150  141.3970 C   0  0  0  0  0  3  0  0  0  0  0  0
  179.6900  180.6220  142.0050 C   0  0  0  0  0  3  0  0  0  0  0  0
  179.9710  181.5660  139.4480 C   0  0  0  0  0  2  0  0  0  0  0  0
  179.1790  181.4610  138.1190 C   0  0  0  0  0  2  0  0  0  0  0  0
  179.4350  182.5370  137.0770 C   0  0  0  0  0  2  0  0  0  0  0  0
  180.9320  184.5890  137.2410 C   0  0  0  0  0  1  0  0  0  0  0  0
  180.8030  183.0680  137.3470 C   0  0  0  0  0  2  0  0  0  0  0  0
  1  2  1  0  0  0  0
  2 28  1  6  0  0  0
  2  4  1  0  0  0  0
  3  1  1  0  0  0  0
  3  6  1  0  0  0  0
  5  4  1  6  0  0  0
  5 15  1  0  0  0  0
  6  5  1  0  0  0  0
  7 13  1  0  0  0  0
  7 11  1  0  0  0  0
  8 16  1  0  0  0  0
  9 13  2  0  0  0  0
 10  7  2  0  0  0  0
 12  9  1  0  0  0  0
 14 12  2  0  0  0  0
 14 10  1  0  0  0  0
 15  8  1  0  0  0  0
 15 12  1  1  0  0  0
 16 17  1  0  0  0  0
 17  9  1  0  0  0  0
 18 19  1  0  0  0  0
 18  8  1  0  0  0  0
 19 24  1  0  0  0  0
 20 23  1  0  0  0  0
 21 27  1  0  0  0  0
 22 25  2  0  0  0  0
 23 21  2  0  0  0  0
 24 22  1  0  0  0  0
 24 20  2  0  0  0  0
 25 21  1  0  0  0  0
 27 26  3  0  0  0  0
 28 29  1  0  0  0  0
 30 31  1  0  0  0  0
 30 29  1  0  0  0  0
 31 32  1  0  0  0  0
 32 33  1  0  0  0  0
 33 37  2  0  0  0  0
 33 38  1  0  0  0  0
 34 36  1  0  0  0  0
 35 36  2  0  0  0  0
 37 35  1  0  0  0  0
 38 34  2  0  0  0  0
 39 32  1  0  0  0  0
 40 39  1  0  0  0  0
 41 43  1  0  0  0  0
 41 40  1  0  0  0  0
 42 43  1  0  0  0  0
M  END
>  <MODEL>
8

>  <REMARK>
 VINA RESULT:      -6.9      3.538      9.184
  Name = 
  15 active torsions:
  status: ('A' for Active; 'I' for Inactive)
    1  A    between atoms: S_1  and  C_34
    2  A    between atoms: S_1  and  C_35
    3  A    between atoms: C_3  and  C_4
    4  A    between atoms: C_3  and  O_12
    5  A    between atoms: C_4  and  N_14
    6  A    between atoms: C_6  and  C_17
    7  A    between atoms: N_8  and  C_34
    8  A    between atoms: C_10  and  C_22
    9  A    between atoms: C_10  and  C_41
   10  A    between atoms: C_11  and  N_14
   11  A    between atoms: O_12  and  C_17
   12  A    between atoms: N_14  and  C_41
   13  A    between atoms: C_19  and  C_37
   14  A    between atoms: C_22  and  C_42
   15  A    between atoms: C_27  and  C_30
                            x       y       z     vdW  Elec       q    Type
                         _______ _______ _______ _____ _____    ______ ____

>  <TORSDO>
F 15

$$$$
=
 OpenBabel11052416143D

 43 47  0  0  1  0  0  0  0  0999 V2000
  189.5740  177.4540  140.8970 N   0  0  0  0  0  2  0  0  0  0  0  0
  188.9880  177.2950  139.6540 C   0  0  1  0  0  3  0  0  0  0  0  0
  188.7340  178.0570  141.9740 C   0  0  0  0  0  2  0  0  0  0  0  0
  187.8930  177.8610  139.2590 C   0  0  0  0  0  2  0  0  0  0  0  0
  187.0080  178.2550  140.2770 C   0  0  1  0  0  3  0  0  0  0  0  0
  187.6290  178.9170  141.4230 N   0  0  0  0  0  2  0  0  0  0  0  0
  184.4680  177.0440  136.0320 C   0  0  0  0  0  0  0  0  0  0  0  0
  184.7060  179.1160  140.7470 N   0  0  0  0  0  0  0  0  0  0  0  0
  184.1060  177.6230  138.3720 C   0  0  0  0  0  0  0  0  0  0  0  0
  185.7770  177.4990  136.1790 C   0  0  0  0  0  3  0  0  0  0  0  0
  184.0280  176.5310  134.6880 C   0  0  0  0  0  1  0  0  0  0  0  0
  185.3240  178.3320  138.4390 C   0  0  0  0  0  0  0  0  0  0  0  0
  183.6220  177.0640  137.1520 C   0  0  0  0  0  3  0  0  0  0  0  0
  186.1800  178.1540  137.3100 C   0  0  0  0  0  3  0  0  0  0  0  0
  185.7630  178.9620  139.6890 C   0  0  2  0  0  3  0  0  0  0  0  0
  184.0560  177.7860  140.9080 C   0  0  0  0  0  2  0  0  0  0  0  0
  183.4180  177.2330  139.6300 C   0  0  0  0  0  2  0  0  0  0  0  0
  185.1440  179.3780  142.1240 C   0  0  0  0  0  2  0  0  0  0  0  0
  183.8910  178.9490  143.4000 S   0  0  0  0  0  0  0  0  0  0  0  0
  184.8440  178.9990  146.0210 C   0  0  0  0  0  3  0  0  0  0  0  0
  186.9700  177.9680  146.5740 C   0  0  0  0  0  0  0  0  0  0  0  0
  186.0520  177.7290  144.3340 C   0  0  0  0  0  3  0  0  0  0  0  0
  185.7910  178.6460  146.9760 C   0  0  0  0  0  3  0  0  0  0  0  0
  185.0340  178.5440  144.6910 C   0  0  0  0  0  0  0  0  0  0  0  0
  187.0660  177.4790  145.2650 C   0  0  0  0  0  3  0  0  0  0  0  0
  189.0560  177.6170  148.0250 N   0  0  0  0  0  0  0  0  0  0  0  0
  188.0650  177.7020  147.4130 C   0  0  0  0  0  0  0  0  0  0  0  0
  189.8370  176.6990  138.5290 C   0  0  0  0  0  2  0  0  0  0  0  0
  189.9140  177.5050  137.4130 O   0  0  0  0  0  0  0  0  0  0  0  0
  189.5800  176.8260  136.2210 C   0  0  0  0  0  2  0  0  0  0  0  0
  188.9120  175.5630  136.6790 C   0  0  0  0  0  2  0  0  0  0  0  0
  188.5680  174.6680  135.6320 N   0  0  0  0  0  0  0  0  0  0  0  0
  187.2310  174.0790  135.9340 C   0  0  0  0  0  0  0  0  0  0  0  0
  185.4760  173.7120  137.5140 C   0  0  0  0  0  3  0  0  0  0  0  0
  185.1970  173.0440  135.2250 C   0  0  0  0  0  3  0  0  0  0  0  0
  184.6720  173.2690  136.4950 C   0  0  0  0  0  3  0  0  0  0  0  0
  186.5030  173.4950  134.9190 C   0  0  0  0  0  3  0  0  0  0  0  0
  186.7970  174.1140  137.2230 C   0  0  0  0  0  3  0  0  0  0  0  0
  189.5740  173.6410  135.3840 C   0  0  0  0  0  2  0  0  0  0  0  0
  190.6260  173.3640  136.4890 C   0  0  0  0  0  2  0  0  0  0  0  0
  192.0720  173.7000  136.1630 C   0  0  0  0  0  2  0  0  0  0  0  0
  194.0790  174.2720  137.6210 C   0  0  0  0  0  1  0  0  0  0  0  0
  192.5940  174.4840  137.3200 C   0  0  0  0  0  2  0  0  0  0  0  0
  1  3  1  0  0  0  0
  2 28  1  6  0  0  0
  2  1  1  0  0  0  0
  4  2  1  0  0  0  0
  5  4  1  6  0  0  0
  5  6  1  0  0  0  0
  6  3  1  0  0  0  0
  7 10  2  0  0  0  0
  7 13  1  0  0  0  0
  8 16  1  0  0  0  0
  8 18  1  0  0  0  0
  9 12  1  0  0  0  0
  9 17  1  0  0  0  0
 10 14  1  0  0  0  0
 11  7  1  0  0  0  0
 13  9  2  0  0  0  0
 14 12  2  0  0  0  0
 15 12  1  6  0  0  0
 15  5  1  0  0  0  0
 15  8  1  0  0  0  0
 17 16  1  0  0  0  0
 18 19  1  0  0  0  0
 19 24  1  0  0  0  0
 20 23  1  0  0  0  0
 21 23  2  0  0  0  0
 21 27  1  0  0  0  0
 22 24  1  0  0  0  0
 22 25  2  0  0  0  0
 24 20  2  0  0  0  0
 25 21  1  0  0  0  0
 27 26  3  0  0  0  0
 29 28  1  0  0  0  0
 30 31  1  0  0  0  0
 30 29  1  0  0  0  0
 32 33  1  0  0  0  0
 32 31  1  0  0  0  0
 33 38  1  0  0  0  0
 35 36  2  0  0  0  0
 36 34  1  0  0  0  0
 37 35  1  0  0  0  0
 37 33  2  0  0  0  0
 38 34  2  0  0  0  0
 39 32  1  0  0  0  0
 39 40  1  0  0  0  0
 41 40  1  0  0  0  0
 41 43  1  0  0  0  0
 43 42  1  0  0  0  0
M  END
>  <MODEL>
9

>  <REMARK>
 VINA RESULT:      -6.9      2.298      8.519
  Name = 
  15 active torsions:
  status: ('A' for Active; 'I' for Inactive)
    1  A    between atoms: S_1  and  C_34
    2  A    between atoms: S_1  and  C_35
    3  A    between atoms: C_3  and  C_4
    4  A    between atoms: C_3  and  O_12
    5  A    between atoms: C_4  and  N_14
    6  A    between atoms: C_6  and  C_17
    7  A    between atoms: N_8  and  C_34
    8  A    between atoms: C_10  and  C_22
    9  A    between atoms: C_10  and  C_41
   10  A    between atoms: C_11  and  N_14
   11  A    between atoms: O_12  and  C_17
   12  A    between atoms: N_14  and  C_41
   13  A    between atoms: C_19  and  C_37
   14  A    between atoms: C_22  and  C_42
   15  A    between atoms: C_27  and  C_30
                            x       y       z     vdW  Elec       q    Type
                         _______ _______ _______ _____ _____    ______ ____

>  <TORSDO>
F 15

$$$$
