=
 OpenBabel11052412473D

 25 28  0  0  0  0  0  0  0  0999 V2000
  186.2250  178.2030  145.0890 C   0  0  0  0  0  0  0  0  0  0  0  0
  185.9960  177.7930  143.6710 C   0  0  0  0  0  0  0  0  0  0  0  0
  183.9690  179.0040  145.3970 C   0  0  0  0  0  3  0  0  0  0  0  0
  187.1970  177.9400  145.9410 C   0  0  0  0  0  0  0  0  0  0  0  0
  188.8860  177.5580  148.1060 C   0  0  0  0  0  3  0  0  0  0  0  0
  183.7750  178.8670  143.9730 N   0  0  0  0  0  0  0  0  0  0  0  0
  186.7830  178.3070  147.2180 C   0  0  0  0  0  0  0  0  0  0  0  0
  187.6180  178.1280  148.3200 C   0  0  0  0  0  3  0  0  0  0  0  0
  184.5040  178.4160  141.7060 C   0  0  0  0  0  0  0  0  0  0  0  0
  183.1510  178.5320  141.0920 C   0  0  0  0  0  1  0  0  0  0  0  0
  187.1090  178.1670  142.7960 N   0  0  0  0  0  2  0  0  0  0  0  0
  189.2910  177.1710  146.8120 C   0  0  0  0  0  3  0  0  0  0  0  0
  185.1610  178.7090  145.9070 C   0  0  0  0  0  0  0  0  0  0  0  0
  185.5700  178.7710  147.2710 N   0  0  0  0  0  0  0  0  0  0  0  0
  185.5890  178.4230  140.9260 C   0  0  0  0  0  3  0  0  0  0  0  0
  188.4400  177.3550  145.7090 C   0  0  0  0  0  3  0  0  0  0  0  0
  186.9460  178.3850  141.5190 C   0  0  0  0  0  0  0  0  0  0  0  0
  184.6820  178.3720  143.1650 C   0  0  0  0  0  0  0  0  0  0  0  0
  188.0980  178.6750  140.6640 C   0  0  0  0  0  3  0  0  0  0  0  0
  188.0790  178.4060  139.3990 N   0  0  0  0  0  0  0  0  0  0  0  0
  189.2290  178.6920  138.5550 C   0  0  0  0  0  2  0  0  0  0  0  0
  189.7300  177.4250  137.8730 C   0  0  0  0  0  2  0  0  0  0  0  0
  190.6170  176.6400  138.7780 C   0  0  0  0  0  0  0  0  0  0  0  0
  191.2670  177.2710  139.8300 O   0  0  0  0  0  1  0  0  0  0  0  0
  190.7920  175.4110  138.5790 O   0  0  0  0  0  0  0  0  0  0  0  0
  1 13  1  0  0  0  0
  1  4  1  0  0  0  0
  2  1  2  0  0  0  0
  3 13  1  0  0  0  0
  4  7  1  0  0  0  0
  5  8  1  0  0  0  0
  6  3  2  0  0  0  0
  7 14  1  0  0  0  0
  7  8  2  0  0  0  0
  9 18  2  0  0  0  0
 10  9  1  0  0  0  0
 11  2  1  0  0  0  0
 12  5  2  0  0  0  0
 13 14  2  0  0  0  0
 15 17  2  0  0  0  0
 15  9  1  0  0  0  0
 16  4  2  0  0  0  0
 16 12  1  0  0  0  0
 17 11  1  0  0  0  0
 18  2  1  0  0  0  0
 18  6  1  0  0  0  0
 19 17  1  0  0  0  0
 20 19  2  0  0  0  0
 21 20  1  0  0  0  0
 22 21  1  0  0  0  0
 22 23  1  0  0  0  0
 23 24  1  0  0  0  0
 25 23  2  0  0  0  0
M  END
>  <MODEL>
1

>  <REMARK>
 VINA RESULT:      -9.3      0.000      0.000
  Name = 
  4 active torsions:
  status: ('A' for Active; 'I' for Inactive)
    1  A    between atoms: C_2  and  C_25
    2  A    between atoms: C_6  and  C_23
    3  A    between atoms: N_15  and  C_21
    4  A    between atoms: C_21  and  C_25
                            x       y       z     vdW  Elec       q    Type
                         _______ _______ _______ _____ _____    ______ ____

>  <TORSDO>
F 4

$$$$
=
 OpenBabel11052412473D

 25 28  0  0  0  0  0  0  0  0999 V2000
  188.2070  177.5360  145.6090 C   0  0  0  0  0  0  0  0  0  0  0  0
  187.2080  177.3760  144.5110 C   0  0  0  0  0  0  0  0  0  0  0  0
  186.5870  178.3810  147.1870 C   0  0  0  0  0  3  0  0  0  0  0  0
  189.4400  177.0910  145.7560 C   0  0  0  0  0  0  0  0  0  0  0  0
  191.9550  176.2770  146.5890 C   0  0  0  0  0  3  0  0  0  0  0  0
  185.6490  178.4910  146.0950 N   0  0  0  0  0  0  0  0  0  0  0  0
  189.8210  177.2620  147.0840 C   0  0  0  0  0  0  0  0  0  0  0  0
  191.0830  176.8640  147.5230 C   0  0  0  0  0  3  0  0  0  0  0  0
  184.9930  178.3850  143.7630 C   0  0  0  0  0  0  0  0  0  0  0  0
  183.5500  178.6640  144.0050 C   0  0  0  0  0  1  0  0  0  0  0  0
  187.7210  177.8380  143.2180 N   0  0  0  0  0  2  0  0  0  0  0  0
  191.5550  176.0900  145.2490 C   0  0  0  0  0  3  0  0  0  0  0  0
  187.8170  177.9510  146.9270 C   0  0  0  0  0  0  0  0  0  0  0  0
  188.8930  177.7670  147.8420 N   0  0  0  0  0  0  0  0  0  0  0  0
  185.4870  178.4700  142.5250 C   0  0  0  0  0  3  0  0  0  0  0  0
  190.2810  176.4940  144.8200 C   0  0  0  0  0  3  0  0  0  0  0  0
  186.9330  178.2700  142.2720 C   0  0  0  0  0  0  0  0  0  0  0  0
  185.9140  178.0930  144.8730 C   0  0  0  0  0  0  0  0  0  0  0  0
  187.4790  178.6430  140.9660 C   0  0  0  0  0  3  0  0  0  0  0  0
  188.4720  177.9970  140.4450 N   0  0  0  0  0  0  0  0  0  0  0  0
  189.0130  178.3760  139.1480 C   0  0  0  0  0  2  0  0  0  0  0  0
  189.3420  177.1430  138.3170 C   0  0  0  0  0  2  0  0  0  0  0  0
  190.5870  176.4820  138.8020 C   0  0  0  0  0  0  0  0  0  0  0  0
  191.5370  177.2170  139.4970 O   0  0  0  0  0  1  0  0  0  0  0  0
  190.7860  175.2620  138.5680 O   0  0  0  0  0  0  0  0  0  0  0  0
  1  4  1  0  0  0  0
  1 13  1  0  0  0  0
  2 18  1  0  0  0  0
  2  1  2  0  0  0  0
  4  7  1  0  0  0  0
  5  8  1  0  0  0  0
  6  3  2  0  0  0  0
  7  8  2  0  0  0  0
  7 14  1  0  0  0  0
  9 10  1  0  0  0  0
  9 18  2  0  0  0  0
 11  2  1  0  0  0  0
 12  5  2  0  0  0  0
 13  3  1  0  0  0  0
 13 14  2  0  0  0  0
 15  9  1  0  0  0  0
 16 12  1  0  0  0  0
 16  4  2  0  0  0  0
 17 15  2  0  0  0  0
 17 11  1  0  0  0  0
 18  6  1  0  0  0  0
 19 17  1  0  0  0  0
 20 19  2  0  0  0  0
 21 20  1  0  0  0  0
 22 23  1  0  0  0  0
 22 21  1  0  0  0  0
 23 24  1  0  0  0  0
 25 23  2  0  0  0  0
M  END
>  <MODEL>
2

>  <REMARK>
 VINA RESULT:      -9.3      1.444      2.267
  Name = 
  4 active torsions:
  status: ('A' for Active; 'I' for Inactive)
    1  A    between atoms: C_2  and  C_25
    2  A    between atoms: C_6  and  C_23
    3  A    between atoms: N_15  and  C_21
    4  A    between atoms: C_21  and  C_25
                            x       y       z     vdW  Elec       q    Type
                         _______ _______ _______ _____ _____    ______ ____

>  <TORSDO>
F 4

$$$$
=
 OpenBabel11052412473D

 25 28  0  0  0  0  0  0  0  0999 V2000
  188.1970  177.5230  145.6370 C   0  0  0  0  0  0  0  0  0  0  0  0
  187.1720  177.3730  144.5610 C   0  0  0  0  0  0  0  0  0  0  0  0
  186.6190  178.3690  147.2550 C   0  0  0  0  0  3  0  0  0  0  0  0
  189.4310  177.0710  145.7530 C   0  0  0  0  0  0  0  0  0  0  0  0
  191.9620  176.2420  146.5240 C   0  0  0  0  0  3  0  0  0  0  0  0
  185.6560  178.4880  146.1860 N   0  0  0  0  0  0  0  0  0  0  0  0
  189.8440  177.2350  147.0730 C   0  0  0  0  0  0  0  0  0  0  0  0
  191.1140  176.8290  147.4800 C   0  0  0  0  0  3  0  0  0  0  0  0
  184.9460  178.3950  143.8700 C   0  0  0  0  0  0  0  0  0  0  0  0
  183.5100  178.6810  144.1460 C   0  0  0  0  0  1  0  0  0  0  0  0
  187.6580  177.8370  143.2590 N   0  0  0  0  0  2  0  0  0  0  0  0
  191.5300  176.0620  145.1930 C   0  0  0  0  0  3  0  0  0  0  0  0
  187.8410  177.9340  146.9650 C   0  0  0  0  0  0  0  0  0  0  0  0
  188.9370  177.7420  147.8540 N   0  0  0  0  0  0  0  0  0  0  0  0
  185.4110  178.4820  142.6210 C   0  0  0  0  0  3  0  0  0  0  0  0
  190.2470  176.4740  144.7950 C   0  0  0  0  0  3  0  0  0  0  0  0
  186.8500  178.2760  142.3330 C   0  0  0  0  0  0  0  0  0  0  0  0
  185.8910  178.0940  144.9570 C   0  0  0  0  0  0  0  0  0  0  0  0
  187.3670  178.6520  141.0160 C   0  0  0  0  0  3  0  0  0  0  0  0
  188.3990  178.0600  140.5070 N   0  0  0  0  0  0  0  0  0  0  0  0
  188.9110  178.4420  139.2000 C   0  0  0  0  0  2  0  0  0  0  0  0
  188.3620  177.5250  138.1140 C   0  0  0  0  0  2  0  0  0  0  0  0
  187.2290  178.1680  137.3880 C   0  0  0  0  0  0  0  0  0  0  0  0
  187.4030  179.4090  136.7910 O   0  0  0  0  0  0  0  0  0  0  0  0
  186.1100  177.5960  137.3310 O   0  0  0  0  0  1  0  0  0  0  0  0
  1  4  1  0  0  0  0
  1 13  1  0  0  0  0
  2 18  1  0  0  0  0
  2  1  2  0  0  0  0
  4  7  1  0  0  0  0
  5  8  1  0  0  0  0
  6  3  2  0  0  0  0
  7  8  2  0  0  0  0
  7 14  1  0  0  0  0
  9 10  1  0  0  0  0
  9 18  2  0  0  0  0
 11  2  1  0  0  0  0
 12  5  2  0  0  0  0
 13  3  1  0  0  0  0
 13 14  2  0  0  0  0
 15  9  1  0  0  0  0
 16 12  1  0  0  0  0
 16  4  2  0  0  0  0
 17 15  2  0  0  0  0
 17 11  1  0  0  0  0
 18  6  1  0  0  0  0
 19 17  1  0  0  0  0
 20 19  2  0  0  0  0
 21 20  1  0  0  0  0
 22 21  1  0  0  0  0
 23 22  1  0  0  0  0
 24 23  2  0  0  0  0
 25 23  1  0  0  0  0
M  END
>  <MODEL>
3

>  <REMARK>
 VINA RESULT:      -9.2      2.157      2.879
  Name = 
  4 active torsions:
  status: ('A' for Active; 'I' for Inactive)
    1  A    between atoms: C_2  and  C_25
    2  A    between atoms: C_6  and  C_23
    3  A    between atoms: N_15  and  C_21
    4  A    between atoms: C_21  and  C_25
                            x       y       z     vdW  Elec       q    Type
                         _______ _______ _______ _____ _____    ______ ____

>  <TORSDO>
F 4

$$$$
=
 OpenBabel11052412473D

 25 28  0  0  1  0  0  0  0  0999 V2000
  187.1100  177.9790  145.3470 C   0  0  0  0  0  0  0  0  0  0  0  0
  188.5410  178.0050  144.9230 C   0  0  2  0  0  3  0  0  0  0  0  0
  187.6190  177.3190  147.6120 C   0  0  0  0  0  3  0  0  0  0  0  0
  186.0110  178.4420  144.7830 C   0  0  0  0  0  0  0  0  0  0  0  0
  183.4860  179.3550  144.0940 C   0  0  0  0  0  3  0  0  0  0  0  0
  188.9780  177.0790  147.1880 N   0  0  0  0  0  0  0  0  0  0  0  0
  184.9860  178.4290  145.7260 C   0  0  0  0  0  0  0  0  0  0  0  0
  183.7080  178.8800  145.3990 C   0  0  0  0  0  3  0  0  0  0  0  0
  190.7530  176.9080  145.5460 C   0  0  0  0  0  0  0  0  0  0  0  0
  191.8400  176.6540  146.5320 C   0  0  0  0  0  1  0  0  0  0  0  0
  188.7440  177.3970  143.6050 N   0  0  0  0  0  0  0  0  0  0  0  0
  184.5340  179.3830  143.1510 C   0  0  0  0  0  3  0  0  0  0  0  0
  186.7320  177.7200  146.7070 C   0  0  0  0  0  0  0  0  0  0  0  0
  185.3520  178.0130  146.9020 N   0  0  0  0  0  0  0  0  0  0  0  0
  190.9680  176.6810  144.2470 C   0  0  0  0  0  3  0  0  0  0  0  0
  185.8170  178.9270  143.4920 C   0  0  0  0  0  3  0  0  0  0  0  0
  189.8790  176.8540  143.2580 C   0  0  0  0  0  0  0  0  0  0  0  0
  189.4110  177.3310  145.9760 C   0  0  0  0  0  0  0  0  0  0  0  0
  190.0670  176.3330  141.9030 C   0  0  0  0  0  3  0  0  0  0  0  0
  190.0930  177.1220  140.8780 N   0  0  0  0  0  0  0  0  0  0  0  0
  190.2750  176.5960  139.5340 C   0  0  0  0  0  2  0  0  0  0  0  0
  189.0470  176.8700  138.6740 C   0  0  0  0  0  2  0  0  0  0  0  0
  188.5200  178.2440  138.9090 C   0  0  0  0  0  0  0  0  0  0  0  0
  187.3570  178.4250  139.6450 O   0  0  0  0  0  1  0  0  0  0  0  0
  189.1170  179.2400  138.4260 O   0  0  0  0  0  0  0  0  0  0  0  0
  1 13  1  0  0  0  0
  2 11  1  6  0  0  0
  2  1  1  0  0  0  0
  2 18  1  0  0  0  0
  4  1  2  0  0  0  0
  4  7  1  0  0  0  0
  5  8  2  0  0  0  0
  6  3  1  0  0  0  0
  7 14  2  0  0  0  0
  8  7  1  0  0  0  0
  9 18  1  0  0  0  0
  9 10  1  0  0  0  0
 12 16  2  0  0  0  0
 12  5  1  0  0  0  0
 13 14  1  0  0  0  0
 13  3  2  0  0  0  0
 15  9  2  0  0  0  0
 16  4  1  0  0  0  0
 17 11  2  0  0  0  0
 17 15  1  0  0  0  0
 18  6  2  0  0  0  0
 19 17  1  0  0  0  0
 20 19  2  0  0  0  0
 21 20  1  0  0  0  0
 22 23  1  0  0  0  0
 22 21  1  0  0  0  0
 23 24  1  0  0  0  0
 25 23  2  0  0  0  0
M  END
>  <MODEL>
4

>  <REMARK>
 VINA RESULT:      -9.0      2.040      4.634
  Name = 
  4 active torsions:
  status: ('A' for Active; 'I' for Inactive)
    1  A    between atoms: C_2  and  C_25
    2  A    between atoms: C_6  and  C_23
    3  A    between atoms: N_15  and  C_21
    4  A    between atoms: C_21  and  C_25
                            x       y       z     vdW  Elec       q    Type
                         _______ _______ _______ _____ _____    ______ ____

>  <TORSDO>
F 4

$$$$
=
 OpenBabel11052412473D

 25 28  0  0  1  0  0  0  0  0999 V2000
  187.9180  177.5490  144.8410 C   0  0  0  0  0  0  0  0  0  0  0  0
  186.5820  177.5080  144.1730 C   0  0  2  0  0  3  0  0  0  0  0  0
  187.0320  178.3510  146.9380 C   0  0  0  0  0  3  0  0  0  0  0  0
  189.0900  177.0440  144.5080 C   0  0  0  0  0  0  0  0  0  0  0  0
  191.6790  176.0700  144.3290 C   0  0  0  0  0  3  0  0  0  0  0  0
  185.7730  178.5750  146.2680 N   0  0  0  0  0  0  0  0  0  0  0  0
  189.9330  177.1070  145.6130 C   0  0  0  0  0  0  0  0  0  0  0  0
  191.2400  176.6270  145.5440 C   0  0  0  0  0  3  0  0  0  0  0  0
  184.3170  178.6570  144.3320 C   0  0  0  0  0  0  0  0  0  0  0  0
  183.0780  178.9800  145.0950 C   0  0  0  0  0  1  0  0  0  0  0  0
  186.6240  178.0350  142.8070 N   0  0  0  0  0  0  0  0  0  0  0  0
  190.8120  175.9930  143.2190 C   0  0  0  0  0  3  0  0  0  0  0  0
  188.0560  177.8880  146.2280 C   0  0  0  0  0  0  0  0  0  0  0  0
  189.3760  177.5980  146.6800 N   0  0  0  0  0  0  0  0  0  0  0  0
  184.3360  178.8060  143.0050 C   0  0  0  0  0  3  0  0  0  0  0  0
  189.4970  176.4780  143.3020 C   0  0  0  0  0  3  0  0  0  0  0  0
  185.5780  178.5630  142.2340 C   0  0  0  0  0  0  0  0  0  0  0  0
  185.5540  178.2520  145.0160 C   0  0  0  0  0  0  0  0  0  0  0  0
  185.6390  179.0020  140.8390 C   0  0  0  0  0  3  0  0  0  0  0  0
  184.8480  178.5040  139.9440 N   0  0  0  0  0  0  0  0  0  0  0  0
  184.9180  178.9410  138.5580 C   0  0  0  0  0  2  0  0  0  0  0  0
  185.4330  177.8210  137.6620 C   0  0  0  0  0  2  0  0  0  0  0  0
  186.8980  177.9520  137.4240 C   0  0  0  0  0  0  0  0  0  0  0  0
  187.7100  176.8260  137.4550 O   0  0  0  0  0  1  0  0  0  0  0  0
  187.4050  179.0840  137.2120 O   0  0  0  0  0  0  0  0  0  0  0  0
  1 13  1  0  0  0  0
  2 11  1  6  0  0  0
  2  1  1  0  0  0  0
  2 18  1  0  0  0  0
  4  1  2  0  0  0  0
  4  7  1  0  0  0  0
  5  8  2  0  0  0  0
  6  3  1  0  0  0  0
  7 14  2  0  0  0  0
  8  7  1  0  0  0  0
  9 18  1  0  0  0  0
  9 10  1  0  0  0  0
 12 16  2  0  0  0  0
 12  5  1  0  0  0  0
 13 14  1  0  0  0  0
 13  3  2  0  0  0  0
 15  9  2  0  0  0  0
 16  4  1  0  0  0  0
 17 11  2  0  0  0  0
 17 15  1  0  0  0  0
 18  6  2  0  0  0  0
 19 17  1  0  0  0  0
 20 19  2  0  0  0  0
 21 20  1  0  0  0  0
 22 21  1  0  0  0  0
 23 24  1  0  0  0  0
 23 22  1  0  0  0  0
 25 23  2  0  0  0  0
M  END
>  <MODEL>
5

>  <REMARK>
 VINA RESULT:      -8.7      2.385      3.441
  Name = 
  4 active torsions:
  status: ('A' for Active; 'I' for Inactive)
    1  A    between atoms: C_2  and  C_25
    2  A    between atoms: C_6  and  C_23
    3  A    between atoms: N_15  and  C_21
    4  A    between atoms: C_21  and  C_25
                            x       y       z     vdW  Elec       q    Type
                         _______ _______ _______ _____ _____    ______ ____

>  <TORSDO>
F 4

$$$$
=
 OpenBabel11052412473D

 25 28  0  0  1  0  0  0  0  0999 V2000
  189.6490  177.4000  143.5210 C   0  0  0  0  0  0  0  0  0  0  0  0
  188.4980  177.0740  144.4140 C   0  0  2  0  0  3  0  0  0  0  0  0
  191.2430  177.5000  145.3300 C   0  0  0  0  0  3  0  0  0  0  0  0
  189.7950  177.3460  142.2110 C   0  0  0  0  0  0  0  0  0  0  0  0
  190.6350  177.2600  139.5700 C   0  0  0  0  0  3  0  0  0  0  0  0
  190.1320  177.4450  146.2510 N   0  0  0  0  0  0  0  0  0  0  0  0
  191.1490  177.4630  141.9080 C   0  0  0  0  0  0  0  0  0  0  0  0
  191.5920  177.4270  140.5870 C   0  0  0  0  0  3  0  0  0  0  0  0
  187.7780  177.4270  146.8300 C   0  0  0  0  0  0  0  0  0  0  0  0
  187.9890  177.2120  148.2900 C   0  0  0  0  0  1  0  0  0  0  0  0
  187.2900  177.8260  144.0670 N   0  0  0  0  0  0  0  0  0  0  0  0
  189.2670  177.1230  139.8860 C   0  0  0  0  0  3  0  0  0  0  0  0
  190.9870  177.5090  144.0260 C   0  0  0  0  0  0  0  0  0  0  0  0
  191.9200  177.5590  142.9510 N   0  0  0  0  0  0  0  0  0  0  0  0
  186.5800  177.8120  146.3830 C   0  0  0  0  0  3  0  0  0  0  0  0
  188.8330  177.1600  141.2210 C   0  0  0  0  0  3  0  0  0  0  0  0
  186.3670  178.1040  144.9460 C   0  0  0  0  0  0  0  0  0  0  0  0
  188.8850  177.3030  145.8700 C   0  0  0  0  0  0  0  0  0  0  0  0
  185.1360  178.7850  144.5400 C   0  0  0  0  0  3  0  0  0  0  0  0
  184.3930  178.3170  143.5900 N   0  0  0  0  0  0  0  0  0  0  0  0
  183.1740  179.0010  143.1870 C   0  0  0  0  0  2  0  0  0  0  0  0
  182.0310  178.6790  144.1410 C   0  0  0  0  0  2  0  0  0  0  0  0
  180.7090  178.9650  143.5140 C   0  0  0  0  0  0  0  0  0  0  0  0
  180.4970  180.1720  142.8620 O   0  0  0  0  0  0  0  0  0  0  0  0
  179.7790  178.1210  143.5900 O   0  0  0  0  0  1  0  0  0  0  0  0
  1 13  1  0  0  0  0
  2  1  1  6  0  0  0
  2 18  1  0  0  0  0
  3  6  1  0  0  0  0
  4  1  2  0  0  0  0
  5 12  1  0  0  0  0
  5  8  2  0  0  0  0
  7  4  1  0  0  0  0
  7 14  2  0  0  0  0
  8  7  1  0  0  0  0
  9 10  1  0  0  0  0
 11  2  1  0  0  0  0
 11 17  2  0  0  0  0
 12 16  2  0  0  0  0
 13  3  2  0  0  0  0
 14 13  1  0  0  0  0
 15  9  2  0  0  0  0
 16  4  1  0  0  0  0
 17 15  1  0  0  0  0
 18  6  2  0  0  0  0
 18  9  1  0  0  0  0
 19 17  1  0  0  0  0
 20 19  2  0  0  0  0
 21 20  1  0  0  0  0
 21 22  1  0  0  0  0
 23 25  1  0  0  0  0
 23 22  1  0  0  0  0
 24 23  2  0  0  0  0
M  END
>  <MODEL>
6

>  <REMARK>
 VINA RESULT:      -8.6      4.034      7.284
  Name = 
  4 active torsions:
  status: ('A' for Active; 'I' for Inactive)
    1  A    between atoms: C_2  and  C_25
    2  A    between atoms: C_6  and  C_23
    3  A    between atoms: N_15  and  C_21
    4  A    between atoms: C_21  and  C_25
                            x       y       z     vdW  Elec       q    Type
                         _______ _______ _______ _____ _____    ______ ____

>  <TORSDO>
F 4

$$$$
=
 OpenBabel11052412473D

 25 28  0  0  0  0  0  0  0  0999 V2000
  189.0690  177.5330  143.7820 C   0  0  0  0  0  0  0  0  0  0  0  0
  189.5240  178.0140  142.4440 C   0  0  0  0  0  0  0  0  0  0  0  0
  191.2410  176.6820  144.4010 C   0  0  0  0  0  3  0  0  0  0  0  0
  187.9750  177.7650  144.4810 C   0  0  0  0  0  0  0  0  0  0  0  0
  185.9640  178.0580  146.3670 C   0  0  0  0  0  3  0  0  0  0  0  0
  191.6610  176.8910  143.0350 N   0  0  0  0  0  0  0  0  0  0  0  0
  188.1770  177.3240  145.7860 C   0  0  0  0  0  0  0  0  0  0  0  0
  187.1780  177.4580  146.7490 C   0  0  0  0  0  3  0  0  0  0  0  0
  191.3070  177.4730  140.7090 C   0  0  0  0  0  0  0  0  0  0  0  0
  192.7400  177.3690  140.3130 C   0  0  0  0  0  1  0  0  0  0  0  0
  188.5630  177.7040  141.3820 N   0  0  0  0  0  2  0  0  0  0  0  0
  185.7740  178.5200  145.0480 C   0  0  0  0  0  3  0  0  0  0  0  0
  189.9850  176.9670  144.7300 C   0  0  0  0  0  0  0  0  0  0  0  0
  189.3630  176.8390  146.0050 N   0  0  0  0  0  0  0  0  0  0  0  0
  190.3610  177.5240  139.7680 C   0  0  0  0  0  3  0  0  0  0  0  0
  186.7890  178.3810  144.0870 C   0  0  0  0  0  3  0  0  0  0  0  0
  188.9270  177.5530  140.1380 C   0  0  0  0  0  0  0  0  0  0  0  0
  190.8980  177.4420  142.1220 C   0  0  0  0  0  0  0  0  0  0  0  0
  187.9240  177.3260  139.0960 C   0  0  0  0  0  3  0  0  0  0  0  0
  187.0960  178.2570  138.7480 N   0  0  0  0  0  0  0  0  0  0  0  0
  186.0990  178.0240  137.7140 C   0  0  0  0  0  2  0  0  0  0  0  0
  184.6960  178.0080  138.3080 C   0  0  0  0  0  2  0  0  0  0  0  0
  184.5650  179.0060  139.4080 C   0  0  0  0  0  0  0  0  0  0  0  0
  184.4160  180.3530  139.1090 O   0  0  0  0  0  0  0  0  0  0  0  0
  184.6080  178.6310  140.6090 O   0  0  0  0  0  1  0  0  0  0  0  0
  1  4  1  0  0  0  0
  1 13  1  0  0  0  0
  2  1  2  0  0  0  0
  3 13  1  0  0  0  0
  4  7  1  0  0  0  0
  5  8  1  0  0  0  0
  6  3  2  0  0  0  0
  7 14  1  0  0  0  0
  7  8  2  0  0  0  0
  9 18  2  0  0  0  0
 10  9  1  0  0  0  0
 11  2  1  0  0  0  0
 12  5  2  0  0  0  0
 13 14  2  0  0  0  0
 15 17  2  0  0  0  0
 15  9  1  0  0  0  0
 16  4  2  0  0  0  0
 16 12  1  0  0  0  0
 17 11  1  0  0  0  0
 18  2  1  0  0  0  0
 18  6  1  0  0  0  0
 19 17  1  0  0  0  0
 20 19  2  0  0  0  0
 21 22  1  0  0  0  0
 21 20  1  0  0  0  0
 22 23  1  0  0  0  0
 23 25  1  0  0  0  0
 24 23  2  0  0  0  0
M  END
>  <MODEL>
7

>  <REMARK>
 VINA RESULT:      -8.5      3.044      5.129
  Name = 
  4 active torsions:
  status: ('A' for Active; 'I' for Inactive)
    1  A    between atoms: C_2  and  C_25
    2  A    between atoms: C_6  and  C_23
    3  A    between atoms: N_15  and  C_21
    4  A    between atoms: C_21  and  C_25
                            x       y       z     vdW  Elec       q    Type
                         _______ _______ _______ _____ _____    ______ ____

>  <TORSDO>
F 4

$$$$
=
 OpenBabel11052412473D

 25 28  0  0  1  0  0  0  0  0999 V2000
  187.1270  177.9830  145.3860 C   0  0  0  0  0  0  0  0  0  0  0  0
  188.5620  177.9800  144.9740 C   0  0  2  0  0  3  0  0  0  0  0  0
  187.6110  177.4170  147.6820 C   0  0  0  0  0  3  0  0  0  0  0  0
  186.0370  178.4300  144.7930 C   0  0  0  0  0  0  0  0  0  0  0  0
  183.5250  179.3330  144.0440 C   0  0  0  0  0  3  0  0  0  0  0  0
  188.9720  177.1490  147.2810 N   0  0  0  0  0  0  0  0  0  0  0  0
  185.0040  178.4650  145.7270 C   0  0  0  0  0  0  0  0  0  0  0  0
  183.7330  178.9110  145.3700 C   0  0  0  0  0  3  0  0  0  0  0  0
  190.7590  176.8940  145.6620 C   0  0  0  0  0  0  0  0  0  0  0  0
  191.8360  176.6750  146.6680 C   0  0  0  0  0  1  0  0  0  0  0  0
  188.7720  177.3150  143.6850 N   0  0  0  0  0  0  0  0  0  0  0  0
  184.5810  179.3120  143.1090 C   0  0  0  0  0  3  0  0  0  0  0  0
  186.7360  177.7850  146.7520 C   0  0  0  0  0  0  0  0  0  0  0  0
  185.3560  178.0970  146.9230 N   0  0  0  0  0  0  0  0  0  0  0  0
  190.9840  176.6100  144.3770 C   0  0  0  0  0  3  0  0  0  0  0  0
  185.8580  178.8620  143.4810 C   0  0  0  0  0  3  0  0  0  0  0  0
  189.9050  176.7500  143.3710 C   0  0  0  0  0  0  0  0  0  0  0  0
  189.4180  177.3450  146.0630 C   0  0  0  0  0  0  0  0  0  0  0  0
  190.1010  176.1690  142.0420 C   0  0  0  0  0  3  0  0  0  0  0  0
  190.1780  176.9170  140.9880 N   0  0  0  0  0  0  0  0  0  0  0  0
  190.3670  176.3330  139.6690 C   0  0  0  0  0  2  0  0  0  0  0  0
  191.3060  177.1880  138.8280 C   0  0  0  0  0  2  0  0  0  0  0  0
  192.4960  176.4060  138.3850 C   0  0  0  0  0  0  0  0  0  0  0  0
  192.3300  175.1420  137.8370 O   0  0  0  0  0  0  0  0  0  0  0  0
  193.6520  176.8830  138.5240 O   0  0  0  0  0  1  0  0  0  0  0  0
  1 13  1  0  0  0  0
  2 11  1  6  0  0  0
  2  1  1  0  0  0  0
  2 18  1  0  0  0  0
  4  1  2  0  0  0  0
  4  7  1  0  0  0  0
  5  8  2  0  0  0  0
  6  3  1  0  0  0  0
  7 14  2  0  0  0  0
  8  7  1  0  0  0  0
  9 18  1  0  0  0  0
  9 10  1  0  0  0  0
 12 16  2  0  0  0  0
 12  5  1  0  0  0  0
 13 14  1  0  0  0  0
 13  3  2  0  0  0  0
 15  9  2  0  0  0  0
 16  4  1  0  0  0  0
 17 11  2  0  0  0  0
 17 15  1  0  0  0  0
 18  6  2  0  0  0  0
 19 17  1  0  0  0  0
 20 19  2  0  0  0  0
 21 20  1  0  0  0  0
 22 21  1  0  0  0  0
 23 25  1  0  0  0  0
 23 22  1  0  0  0  0
 24 23  2  0  0  0  0
M  END
>  <MODEL>
8

>  <REMARK>
 VINA RESULT:      -8.4      1.901      4.606
  Name = 
  4 active torsions:
  status: ('A' for Active; 'I' for Inactive)
    1  A    between atoms: C_2  and  C_25
    2  A    between atoms: C_6  and  C_23
    3  A    between atoms: N_15  and  C_21
    4  A    between atoms: C_21  and  C_25
                            x       y       z     vdW  Elec       q    Type
                         _______ _______ _______ _____ _____    ______ ____

>  <TORSDO>
F 4

$$$$
=
 OpenBabel11052412473D

 25 28  0  0  1  0  0  0  0  0999 V2000
  183.9370  178.6820  142.4670 C   0  0  0  0  0  0  0  0  0  0  0  0
  185.1410  178.8640  143.3310 C   0  0  2  0  0  3  0  0  0  0  0  0
  182.3780  178.9980  144.2810 C   0  0  0  0  0  3  0  0  0  0  0  0
  183.7830  178.6660  141.1560 C   0  0  0  0  0  0  0  0  0  0  0  0
  182.9320  178.7070  138.5190 C   0  0  0  0  0  3  0  0  0  0  0  0
  183.4950  178.9220  145.1940 N   0  0  0  0  0  0  0  0  0  0  0  0
  182.4250  178.7690  140.8660 C   0  0  0  0  0  0  0  0  0  0  0  0
  181.9760  178.7860  139.5470 C   0  0  0  0  0  3  0  0  0  0  0  0
  185.8240  178.5650  145.7660 C   0  0  0  0  0  0  0  0  0  0  0  0
  185.6760  178.9200  147.2050 C   0  0  0  0  0  1  0  0  0  0  0  0
  186.1920  177.8860  143.0380 N   0  0  0  0  0  0  0  0  0  0  0  0
  184.3070  178.6220  138.8200 C   0  0  0  0  0  3  0  0  0  0  0  0
  182.6090  178.8490  142.9810 C   0  0  0  0  0  0  0  0  0  0  0  0
  181.6650  178.8870  141.9140 N   0  0  0  0  0  0  0  0  0  0  0  0
  186.9280  177.9430  145.3460 C   0  0  0  0  0  3  0  0  0  0  0  0
  184.7480  178.6060  140.1540 C   0  0  0  0  0  3  0  0  0  0  0  0
  187.0650  177.5140  143.9340 C   0  0  0  0  0  0  0  0  0  0  0  0
  184.7420  178.8140  144.8000 C   0  0  0  0  0  0  0  0  0  0  0  0
  188.1500  176.5980  143.5770 C   0  0  0  0  0  3  0  0  0  0  0  0
  189.2180  177.0230  142.9840 N   0  0  0  0  0  0  0  0  0  0  0  0
  190.2900  176.1070  142.6270 C   0  0  0  0  0  2  0  0  0  0  0  0
  191.6520  176.7580  142.8350 C   0  0  0  0  0  2  0  0  0  0  0  0
  191.6670  177.5920  144.0700 C   0  0  0  0  0  0  0  0  0  0  0  0
  191.6830  178.9770  143.9720 O   0  0  0  0  0  0  0  0  0  0  0  0
  191.6840  177.0440  145.2020 O   0  0  0  0  0  1  0  0  0  0  0  0
  1 13  1  0  0  0  0
  2  1  1  6  0  0  0
  2 18  1  0  0  0  0
  3  6  1  0  0  0  0
  4  1  2  0  0  0  0
  5 12  1  0  0  0  0
  5  8  2  0  0  0  0
  7  4  1  0  0  0  0
  7 14  2  0  0  0  0
  8  7  1  0  0  0  0
  9 10  1  0  0  0  0
 11  2  1  0  0  0  0
 11 17  2  0  0  0  0
 12 16  2  0  0  0  0
 13  3  2  0  0  0  0
 14 13  1  0  0  0  0
 15  9  2  0  0  0  0
 16  4  1  0  0  0  0
 17 15  1  0  0  0  0
 18  6  2  0  0  0  0
 18  9  1  0  0  0  0
 19 17  1  0  0  0  0
 20 19  2  0  0  0  0
 21 22  1  0  0  0  0
 21 20  1  0  0  0  0
 22 23  1  0  0  0  0
 23 25  1  0  0  0  0
 24 23  2  0  0  0  0
M  END
>  <MODEL>
9

>  <REMARK>
 VINA RESULT:      -8.2      2.881      5.734
  Name = 
  4 active torsions:
  status: ('A' for Active; 'I' for Inactive)
    1  A    between atoms: C_2  and  C_25
    2  A    between atoms: C_6  and  C_23
    3  A    between atoms: N_15  and  C_21
    4  A    between atoms: C_21  and  C_25
                            x       y       z     vdW  Elec       q    Type
                         _______ _______ _______ _____ _____    ______ ____

>  <TORSDO>
F 4

$$$$
