=
 OpenBabel11052414553D

 55 60  0  0  1  0  0  0  0  0999 V2000
  184.0580  177.5050  140.0790 C   0  0  0  0  0  2  0  0  0  0  0  0
  187.3830  176.8550  135.5560 C   0  0  0  0  0  2  0  0  0  0  0  0
  184.7840  174.2120  135.2140 O   0  0  0  0  0  0  0  0  0  0  0  0
  182.8130  171.6550  134.9460 C   0  0  0  0  0  2  0  0  0  0  0  0
  181.4090  171.2390  134.5950 C   0  0  0  0  0  3  0  0  0  0  0  0
  181.8910  173.9170  135.4910 C   0  0  2  0  0  3  0  0  0  0  0  0
  180.4540  173.3810  135.4630 C   0  0  0  0  0  2  0  0  0  0  0  0
  184.9470  172.8340  137.0610 O   0  0  0  0  0  0  0  0  0  0  0  0
  180.3500  172.0410  134.7830 C   0  0  0  0  0  3  0  0  0  0  0  0
  182.8460  172.8040  135.9540 C   0  0  2  0  0  3  0  0  0  0  0  0
  182.2360  175.6450  139.7970 C   0  0  0  0  0  2  0  0  0  0  0  0
  185.0600  179.3830  138.7770 C   0  0  0  0  0  2  0  0  0  0  0  0
  182.5790  174.9690  138.4880 C   0  0  0  0  0  2  0  0  0  0  0  0
  186.8650  179.7230  136.3750 C   0  0  0  0  0  1  0  0  0  0  0  0
  182.0080  175.1920  136.3440 C   0  0  2  0  0  3  0  0  0  0  0  0
  186.0660  176.2330  135.1130 C   0  0  0  0  0  2  0  0  0  0  0  0
  186.0850  174.7470  135.3910 C   0  0  0  0  0  2  0  0  0  0  0  0
  187.3580  177.3520  137.0090 C   0  0  1  0  0  3  0  0  0  0  0  0
  182.3040  177.4480  139.6170 S   0  0  0  0  0  0  0  0  0  0  0  0
  184.2530  173.2800  136.1080 C   0  0  0  0  0  0  0  0  0  0  0  0
  184.5230  178.9430  140.1380 C   0  0  2  0  0  3  0  0  0  0  0  0
  186.3950  178.5310  137.2030 C   0  0  1  0  0  3  0  0  0  0  0  0
  181.4740  175.0130  137.6320 O   0  0  0  0  0  0  0  0  0  0  0  0
  186.3540  178.8980  138.5540 O   0  0  0  0  0  0  0  0  0  0  0  0
  181.3720  176.3910  135.6370 C   0  0  1  0  0  3  0  0  0  0  0  0
  180.3010  178.2840  136.5920 C   0  0  1  0  0  3  0  0  0  0  0  0
  179.9780  176.2160  135.5100 O   0  0  0  0  0  0  0  0  0  0  0  0
  179.4160  177.4910  135.6670 C   0  0  0  0  0  2  0  0  0  0  0  0
  181.6530  177.6630  136.4030 C   0  0  0  0  0  2  0  0  0  0  0  0
  180.3220  179.7440  136.1770 C   0  0  0  0  0  3  0  0  0  0  0  0
  181.2050  180.5320  137.1230 C   0  0  0  0  0  2  0  0  0  0  0  0
  179.7000  180.5790  137.2800 C   0  0  0  0  0  2  0  0  0  0  0  0
  187.0740  176.2090  137.9750 C   0  0  0  0  0  2  0  0  0  0  0  0
  188.2700  175.6340  138.4050 O   0  0  0  0  0  0  0  0  0  0  0  0
  189.0910  176.7250  138.6950 C   0  0  0  0  0  2  0  0  0  0  0  0
  190.4260  176.2530  139.2520 C   0  0  2  0  0  3  0  0  0  0  0  0
  191.9850  177.6310  140.4500 O   0  0  0  0  0  0  0  0  0  0  0  0
  188.7290  176.6670  141.5110 O   0  0  0  0  0  1  0  0  0  0  0  0
  190.8450  177.0850  140.4370 C   0  0  0  0  0  0  0  0  0  0  0  0
  189.9790  177.1940  141.5760 N   0  0  0  0  0  0  0  0  0  0  0  0
  191.1820  176.6600  143.6150 C   0  0  0  0  0  2  0  0  0  0  0  0
  189.8130  177.1500  144.0430 C   0  0  2  0  0  3  0  0  0  0  0  0
  190.4960  177.7560  142.8250 C   0  0  2  0  0  3  0  0  0  0  0  0
  189.9900  178.0810  145.2210 C   0  0  0  0  0  2  0  0  0  0  0  0
  190.8350  177.0240  147.1830 O   0  0  0  0  0  1  0  0  0  0  0  0
  188.5560  176.9840  146.9380 O   0  0  0  0  0  0  0  0  0  0  0  0
  189.8230  177.3380  146.5010 C   0  0  0  0  0  0  0  0  0  0  0  0
  191.1830  175.1420  136.2710 C   0  0  0  0  0  2  0  0  0  0  0  0
  191.7130  174.7400  137.6350 C   0  0  0  0  0  2  0  0  0  0  0  0
  191.4850  176.1570  138.1370 C   0  0  0  0  0  3  0  0  0  0  0  0
  190.9450  176.5560  136.7750 C   0  0  0  0  0  2  0  0  0  0  0  0
  185.5590  179.0990  141.2440 C   0  0  0  0  0  2  0  0  0  0  0  0
  185.0250  178.5970  142.5780 C   0  0  0  0  0  2  0  0  0  0  0  0
  186.0010  178.2620  144.8260 C   0  0  0  0  0  1  0  0  0  0  0  0
  186.1210  177.9020  143.3630 C   0  0  0  0  0  2  0  0  0  0  0  0
  1 21  1  0  0  0  0
  2 18  1  0  0  0  0
  3 17  1  0  0  0  0
  3 20  1  0  0  0  0
  5  9  2  0  0  0  0
  5  4  1  0  0  0  0
  6  7  1  1  0  0  0
  6 10  1  0  0  0  0
  6 15  1  0  0  0  0
  9  7  1  0  0  0  0
 10  4  1  6  0  0  0
 10 20  1  0  0  0  0
 12 21  1  0  0  0  0
 13 11  1  0  0  0  0
 15 23  1  1  0  0  0
 16 17  1  0  0  0  0
 16  2  1  0  0  0  0
 18 22  1  0  0  0  0
 18 33  1  1  0  0  0
 19 11  1  0  0  0  0
 19  1  1  0  0  0  0
 20  8  2  0  0  0  0
 21 52  1  1  0  0  0
 22 14  1  6  0  0  0
 22 24  1  0  0  0  0
 23 13  1  0  0  0  0
 24 12  1  0  0  0  0
 25 15  1  0  0  0  0
 25 29  1  1  0  0  0
 26 30  1  6  0  0  0
 27 25  1  0  0  0  0
 27 28  1  0  0  0  0
 28 26  1  0  0  0  0
 29 26  1  0  0  0  0
 30 31  1  0  0  0  0
 30 32  1  0  0  0  0
 31 32  1  0  0  0  0
 33 34  1  0  0  0  0
 34 35  1  0  0  0  0
 36 35  1  6  0  0  0
 36 39  1  0  0  0  0
 38 40  1  0  0  0  0
 39 37  2  0  0  0  0
 39 40  1  0  0  0  0
 41 42  1  0  0  0  0
 42 44  1  1  0  0  0
 43 40  1  6  0  0  0
 43 41  1  0  0  0  0
 43 42  1  0  0  0  0
 44 47  1  0  0  0  0
 47 46  2  0  0  0  0
 47 45  1  0  0  0  0
 48 51  1  0  0  0  0
 48 49  1  0  0  0  0
 49 50  1  0  0  0  0
 50 36  1  0  0  0  0
 51 50  1  0  0  0  0
 52 53  1  0  0  0  0
 53 55  1  0  0  0  0
 55 54  1  0  0  0  0
M  END
>  <MODEL>
1

>  <REMARK>
 VINA RESULT:      -5.7      0.000      0.000
  Name = 
  14 active torsions:
  status: ('A' for Active; 'I' for Inactive)
    1  A    between atoms: C_6  and  C_14
    2  A    between atoms: C_6  and  C_38
    3  A    between atoms: O_8  and  C_20
    4  A    between atoms: O_8  and  C_22
    5  A    between atoms: C_10  and  C_32
    6  A    between atoms: C_12  and  C_20
    7  A    between atoms: C_12  and  C_42
    8  A    between atoms: C_12  and  C_46
    9  A    between atoms: C_13  and  C_36
   10  A    between atoms: C_21  and  N_53
   11  A    between atoms: C_22  and  C_43
   12  A    between atoms: C_27  and  C_49
   13  A    between atoms: C_27  and  C_55
   14  A    between atoms: C_41  and  C_55
                            x       y       z     vdW  Elec       q    Type
                         _______ _______ _______ _____ _____    ______ ____

>  <TORSDO>
F 14

$$$$
=
 OpenBabel11052414553D

 55 60  0  0  1  0  0  0  0  0999 V2000
  179.7450  176.9920  140.2110 C   0  0  0  0  0  2  0  0  0  0  0  0
  184.5330  179.4010  138.4210 C   0  0  0  0  0  2  0  0  0  0  0  0
  184.6570  175.9290  137.0840 O   0  0  0  0  0  0  0  0  0  0  0  0
  185.0820  172.8580  136.1410 C   0  0  0  0  0  2  0  0  0  0  0  0
  184.6390  171.8270  135.1380 C   0  0  0  0  0  3  0  0  0  0  0  0
  182.8950  174.0130  135.7580 C   0  0  2  0  0  3  0  0  0  0  0  0
  182.3350  172.7910  135.0190 C   0  0  0  0  0  2  0  0  0  0  0  0
  184.6130  174.4870  138.8880 O   0  0  0  0  0  0  0  0  0  0  0  0
  183.4130  171.8290  134.5940 C   0  0  0  0  0  3  0  0  0  0  0  0
  183.9020  173.5520  136.8240 C   0  0  2  0  0  3  0  0  0  0  0  0
  179.8580  174.5620  139.2390 C   0  0  0  0  0  2  0  0  0  0  0  0
  179.9340  179.3530  139.4240 C   0  0  0  0  0  2  0  0  0  0  0  0
  181.1480  174.5260  138.4490 C   0  0  0  0  0  2  0  0  0  0  0  0
  182.0970  181.1980  138.3970 C   0  0  0  0  0  1  0  0  0  0  0  0
  181.7740  174.8910  136.3400 C   0  0  2  0  0  3  0  0  0  0  0  0
  184.3140  178.2760  137.4190 C   0  0  0  0  0  2  0  0  0  0  0  0
  185.0570  177.0390  137.8710 C   0  0  0  0  0  2  0  0  0  0  0  0
  183.4720  179.4380  139.5300 C   0  0  1  0  0  3  0  0  0  0  0  0
  178.9310  176.0760  138.8710 S   0  0  0  0  0  0  0  0  0  0  0  0
  184.4150  174.6800  137.6590 C   0  0  0  0  0  0  0  0  0  0  0  0
  179.1550  178.3820  140.3100 C   0  0  2  0  0  3  0  0  0  0  0  0
  182.0790  179.7930  138.9890 C   0  0  1  0  0  3  0  0  0  0  0  0
  180.8810  174.1460  137.1300 O   0  0  0  0  0  0  0  0  0  0  0  0
  181.1370  179.7420  140.0240 O   0  0  0  0  0  0  0  0  0  0  0  0
  181.0400  175.6560  135.2370 C   0  0  1  0  0  3  0  0  0  0  0  0
  179.4970  177.4500  135.4460 C   0  0  1  0  0  3  0  0  0  0  0  0
  179.7410  175.1400  135.0490 O   0  0  0  0  0  0  0  0  0  0  0  0
  178.9310  176.2440  134.7440 C   0  0  0  0  0  2  0  0  0  0  0  0
  180.9540  177.1250  135.5840 C   0  0  0  0  0  2  0  0  0  0  0  0
  179.3060  178.6920  134.5940 C   0  0  0  0  0  3  0  0  0  0  0  0
  180.3910  179.7000  134.9090 C   0  0  0  0  0  2  0  0  0  0  0  0
  179.0090  179.8710  135.5010 C   0  0  0  0  0  2  0  0  0  0  0  0
  183.4680  178.1430  140.3300 C   0  0  0  0  0  2  0  0  0  0  0  0
  184.6770  177.9940  141.0100 O   0  0  0  0  0  0  0  0  0  0  0  0
  184.3170  178.0070  142.3590 C   0  0  0  0  0  2  0  0  0  0  0  0
  185.4470  178.5760  143.2050 C   0  0  2  0  0  3  0  0  0  0  0  0
  186.1910  176.5780  144.3100 O   0  0  0  0  0  0  0  0  0  0  0  0
  188.0630  178.6020  142.0610 O   0  0  0  0  0  1  0  0  0  0  0  0
  186.4770  177.5200  143.5160 C   0  0  0  0  0  0  0  0  0  0  0  0
  187.7990  177.6300  142.9710 N   0  0  0  0  0  0  0  0  0  0  0  0
  188.8840  176.8730  145.0050 C   0  0  0  0  0  2  0  0  0  0  0  0
  189.9480  177.5880  144.1950 C   0  0  2  0  0  3  0  0  0  0  0  0
  188.8680  176.7760  143.4930 C   0  0  2  0  0  3  0  0  0  0  0  0
  191.2180  176.7710  144.2540 C   0  0  0  0  0  2  0  0  0  0  0  0
  191.9730  177.5420  146.3790 O   0  0  0  0  0  1  0  0  0  0  0  0
  191.6600  175.2780  146.1990 O   0  0  0  0  0  0  0  0  0  0  0  0
  191.6350  176.5590  145.6680 C   0  0  0  0  0  0  0  0  0  0  0  0
  184.9030  178.4950  146.4280 C   0  0  0  0  0  2  0  0  0  0  0  0
  183.9290  178.4670  145.2650 C   0  0  0  0  0  2  0  0  0  0  0  0
  184.8920  179.3080  144.4430 C   0  0  0  0  0  3  0  0  0  0  0  0
  185.8720  179.3260  145.6040 C   0  0  0  0  0  2  0  0  0  0  0  0
  179.1320  178.8220  141.7670 C   0  0  0  0  0  2  0  0  0  0  0  0
  180.2150  178.1210  142.5750 C   0  0  0  0  0  2  0  0  0  0  0  0
  179.3220  179.7940  144.1640 C   0  0  0  0  0  1  0  0  0  0  0  0
  180.4760  178.8630  143.8720 C   0  0  0  0  0  2  0  0  0  0  0  0
  1 21  1  0  0  0  0
  2 18  1  0  0  0  0
  3 20  1  0  0  0  0
  3 17  1  0  0  0  0
  5  4  1  0  0  0  0
  6  7  1  1  0  0  0
  6 15  1  0  0  0  0
  6 10  1  0  0  0  0
  9  7  1  0  0  0  0
  9  5  2  0  0  0  0
 10  4  1  6  0  0  0
 10 20  1  0  0  0  0
 12 24  1  0  0  0  0
 12 21  1  0  0  0  0
 13 11  1  0  0  0  0
 15 23  1  6  0  0  0
 16 17  1  0  0  0  0
 16  2  1  0  0  0  0
 18 33  1  6  0  0  0
 19 11  1  0  0  0  0
 19  1  1  0  0  0  0
 20  8  2  0  0  0  0
 21 52  1  1  0  0  0
 22 14  1  1  0  0  0
 22 18  1  0  0  0  0
 22 24  1  0  0  0  0
 23 13  1  0  0  0  0
 25 29  1  1  0  0  0
 25 15  1  0  0  0  0
 26 30  1  6  0  0  0
 26 29  1  0  0  0  0
 27 25  1  0  0  0  0
 28 27  1  0  0  0  0
 28 26  1  0  0  0  0
 30 31  1  0  0  0  0
 30 32  1  0  0  0  0
 31 32  1  0  0  0  0
 33 34  1  0  0  0  0
 34 35  1  0  0  0  0
 36 35  1  1  0  0  0
 36 39  1  0  0  0  0
 36 50  1  0  0  0  0
 38 40  1  0  0  0  0
 39 37  2  0  0  0  0
 40 39  1  0  0  0  0
 42 44  1  1  0  0  0
 42 41  1  0  0  0  0
 43 40  1  6  0  0  0
 43 42  1  0  0  0  0
 43 41  1  0  0  0  0
 44 47  1  0  0  0  0
 47 46  2  0  0  0  0
 47 45  1  0  0  0  0
 49 48  1  0  0  0  0
 50 49  1  0  0  0  0
 50 51  1  0  0  0  0
 51 48  1  0  0  0  0
 52 53  1  0  0  0  0
 53 55  1  0  0  0  0
 55 54  1  0  0  0  0
M  END
>  <MODEL>
2

>  <REMARK>
 VINA RESULT:      -4.9      2.743      4.721
  Name = 
  14 active torsions:
  status: ('A' for Active; 'I' for Inactive)
    1  A    between atoms: C_6  and  C_14
    2  A    between atoms: C_6  and  C_38
    3  A    between atoms: O_8  and  C_20
    4  A    between atoms: O_8  and  C_22
    5  A    between atoms: C_10  and  C_32
    6  A    between atoms: C_12  and  C_20
    7  A    between atoms: C_12  and  C_42
    8  A    between atoms: C_12  and  C_46
    9  A    between atoms: C_13  and  C_36
   10  A    between atoms: C_21  and  N_53
   11  A    between atoms: C_22  and  C_43
   12  A    between atoms: C_27  and  C_49
   13  A    between atoms: C_27  and  C_55
   14  A    between atoms: C_41  and  C_55
                            x       y       z     vdW  Elec       q    Type
                         _______ _______ _______ _____ _____    ______ ____

>  <TORSDO>
F 14

$$$$
=
 OpenBabel11052414553D

 55 60  0  0  1  0  0  0  0  0999 V2000
  180.2780  177.2770  140.7650 C   0  0  0  0  0  2  0  0  0  0  0  0
  184.9980  179.0870  138.2390 C   0  0  0  0  0  2  0  0  0  0  0  0
  184.4840  175.6390  136.9340 O   0  0  0  0  0  0  0  0  0  0  0  0
  184.3730  172.5480  135.9690 C   0  0  0  0  0  2  0  0  0  0  0  0
  183.6570  171.5890  135.0560 C   0  0  0  0  0  3  0  0  0  0  0  0
  182.3140  173.9700  135.9130 C   0  0  2  0  0  3  0  0  0  0  0  0
  181.5000  172.8340  135.2810 C   0  0  0  0  0  2  0  0  0  0  0  0
  184.5370  174.1980  138.7390 O   0  0  0  0  0  0  0  0  0  0  0  0
  182.3720  171.7480  134.7060 C   0  0  0  0  0  3  0  0  0  0  0  0
  183.4080  173.3770  136.8170 C   0  0  2  0  0  3  0  0  0  0  0  0
  179.9380  174.8610  139.8120 C   0  0  0  0  0  2  0  0  0  0  0  0
  180.6380  179.6030  139.9340 C   0  0  0  0  0  2  0  0  0  0  0  0
  181.0770  174.6720  138.8350 C   0  0  0  0  0  2  0  0  0  0  0  0
  182.8310  181.1740  138.5700 C   0  0  0  0  0  1  0  0  0  0  0  0
  181.4140  174.9750  136.6510 C   0  0  2  0  0  3  0  0  0  0  0  0
  184.4900  178.0070  137.2950 C   0  0  0  0  0  2  0  0  0  0  0  0
  185.1330  176.6830  137.6390 C   0  0  0  0  0  2  0  0  0  0  0  0
  184.1330  179.2470  139.4970 C   0  0  1  0  0  3  0  0  0  0  0  0
  179.1620  176.4820  139.5740 S   0  0  0  0  0  0  0  0  0  0  0  0
  184.1780  174.4250  137.5520 C   0  0  0  0  0  0  0  0  0  0  0  0
  179.8880  178.7290  140.9390 C   0  0  2  0  0  3  0  0  0  0  0  0
  182.7290  179.7760  139.1720 C   0  0  1  0  0  3  0  0  0  0  0  0
  180.5660  174.3400  137.5760 O   0  0  0  0  0  0  0  0  0  0  0  0
  181.9570  179.8340  140.3400 O   0  0  0  0  0  0  0  0  0  0  0  0
  180.6210  175.8360  135.6650 C   0  0  1  0  0  3  0  0  0  0  0  0
  180.1710  178.1660  135.7540 C   0  0  1  0  0  3  0  0  0  0  0  0
  179.2930  176.0090  136.1070 O   0  0  0  0  0  0  0  0  0  0  0  0
  178.9310  177.3120  135.7350 C   0  0  0  0  0  2  0  0  0  0  0  0
  181.2780  177.1870  135.5010 C   0  0  0  0  0  2  0  0  0  0  0  0
  180.1120  179.2030  134.6470 C   0  0  0  0  0  3  0  0  0  0  0  0
  181.1960  180.2400  134.8600 C   0  0  0  0  0  2  0  0  0  0  0  0
  179.7680  180.5510  135.2520 C   0  0  0  0  0  2  0  0  0  0  0  0
  184.0900  177.9540  140.3020 C   0  0  0  0  0  2  0  0  0  0  0  0
  185.3180  177.7360  140.9260 O   0  0  0  0  0  0  0  0  0  0  0  0
  185.2590  178.5170  142.0820 C   0  0  0  0  0  2  0  0  0  0  0  0
  186.4990  178.2960  142.9370 C   0  0  2  0  0  3  0  0  0  0  0  0
  188.0740  176.5290  142.5360 O   0  0  0  0  0  0  0  0  0  0  0  0
  187.5600  179.4290  140.5390 O   0  0  0  0  0  1  0  0  0  0  0  0
  187.5940  177.6310  142.1430 C   0  0  0  0  0  0  0  0  0  0  0  0
  188.1390  178.2860  140.9890 N   0  0  0  0  0  0  0  0  0  0  0  0
  189.5580  178.4100  139.0240 C   0  0  0  0  0  2  0  0  0  0  0  0
  189.1120  176.9660  139.1380 C   0  0  2  0  0  3  0  0  0  0  0  0
  189.3790  177.7850  140.3920 C   0  0  2  0  0  3  0  0  0  0  0  0
  190.3050  176.0780  138.8650 C   0  0  0  0  0  2  0  0  0  0  0  0
  189.5770  175.8170  136.6110 O   0  0  0  0  0  0  0  0  0  0  0  0
  190.4340  173.9350  137.6010 O   0  0  0  0  0  1  0  0  0  0  0  0
  190.0860  175.2770  137.6290 C   0  0  0  0  0  0  0  0  0  0  0  0
  187.1380  177.9150  146.1200 C   0  0  0  0  0  2  0  0  0  0  0  0
  187.3410  176.9640  144.9550 C   0  0  0  0  0  2  0  0  0  0  0  0
  186.1410  177.5770  144.2510 C   0  0  0  0  0  3  0  0  0  0  0  0
  185.9460  178.5370  145.4130 C   0  0  0  0  0  2  0  0  0  0  0  0
  180.1430  179.1550  142.3780 C   0  0  0  0  0  2  0  0  0  0  0  0
  180.3990  177.9530  143.2750 C   0  0  0  0  0  2  0  0  0  0  0  0
  182.4180  179.3480  143.5800 C   0  0  0  0  0  1  0  0  0  0  0  0
  181.6370  178.1740  144.1230 C   0  0  0  0  0  2  0  0  0  0  0  0
  1 21  1  0  0  0  0
  2 18  1  0  0  0  0
  3 20  1  0  0  0  0
  3 17  1  0  0  0  0
  5  4  1  0  0  0  0
  6  7  1  1  0  0  0
  6 15  1  0  0  0  0
  6 10  1  0  0  0  0
  9  5  2  0  0  0  0
  9  7  1  0  0  0  0
 10  4  1  6  0  0  0
 10 20  1  0  0  0  0
 12 24  1  0  0  0  0
 12 21  1  0  0  0  0
 13 11  1  0  0  0  0
 15 23  1  1  0  0  0
 16 17  1  0  0  0  0
 16  2  1  0  0  0  0
 18 33  1  6  0  0  0
 19 11  1  0  0  0  0
 19  1  1  0  0  0  0
 20  8  2  0  0  0  0
 21 52  1  1  0  0  0
 22 14  1  1  0  0  0
 22 18  1  0  0  0  0
 22 24  1  0  0  0  0
 23 13  1  0  0  0  0
 25 29  1  1  0  0  0
 25 27  1  0  0  0  0
 25 15  1  0  0  0  0
 26 30  1  6  0  0  0
 28 26  1  0  0  0  0
 28 27  1  0  0  0  0
 29 26  1  0  0  0  0
 30 31  1  0  0  0  0
 30 32  1  0  0  0  0
 31 32  1  0  0  0  0
 33 34  1  0  0  0  0
 34 35  1  0  0  0  0
 36 35  1  6  0  0  0
 36 50  1  0  0  0  0
 38 40  1  0  0  0  0
 39 37  2  0  0  0  0
 39 36  1  0  0  0  0
 40 39  1  0  0  0  0
 41 42  1  0  0  0  0
 41 43  1  0  0  0  0
 42 44  1  6  0  0  0
 42 43  1  0  0  0  0
 43 40  1  1  0  0  0
 45 47  2  0  0  0  0
 46 47  1  0  0  0  0
 47 44  1  0  0  0  0
 49 48  1  0  0  0  0
 50 49  1  0  0  0  0
 50 51  1  0  0  0  0
 51 48  1  0  0  0  0
 52 53  1  0  0  0  0
 53 55  1  0  0  0  0
 54 55  1  0  0  0  0
M  END
>  <MODEL>
3

>  <REMARK>
 VINA RESULT:      -4.6      2.116      4.782
  Name = 
  14 active torsions:
  status: ('A' for Active; 'I' for Inactive)
    1  A    between atoms: C_6  and  C_14
    2  A    between atoms: C_6  and  C_38
    3  A    between atoms: O_8  and  C_20
    4  A    between atoms: O_8  and  C_22
    5  A    between atoms: C_10  and  C_32
    6  A    between atoms: C_12  and  C_20
    7  A    between atoms: C_12  and  C_42
    8  A    between atoms: C_12  and  C_46
    9  A    between atoms: C_13  and  C_36
   10  A    between atoms: C_21  and  N_53
   11  A    between atoms: C_22  and  C_43
   12  A    between atoms: C_27  and  C_49
   13  A    between atoms: C_27  and  C_55
   14  A    between atoms: C_41  and  C_55
                            x       y       z     vdW  Elec       q    Type
                         _______ _______ _______ _____ _____    ______ ____

>  <TORSDO>
F 14

$$$$
=
 OpenBabel11052414553D

 55 60  0  0  1  0  0  0  0  0999 V2000
  183.9280  177.3690  139.5760 C   0  0  0  0  0  2  0  0  0  0  0  0
  188.2100  176.8380  135.9260 C   0  0  0  0  0  2  0  0  0  0  0  0
  186.2210  173.7180  135.5200 O   0  0  0  0  0  0  0  0  0  0  0  0
  184.8070  170.8120  135.2900 C   0  0  0  0  0  2  0  0  0  0  0  0
  183.6010  170.0910  134.7500 C   0  0  0  0  0  3  0  0  0  0  0  0
  183.4270  172.9000  135.2860 C   0  0  2  0  0  3  0  0  0  0  0  0
  182.1390  172.0950  135.0710 C   0  0  0  0  0  2  0  0  0  0  0  0
  186.2090  172.6310  137.5580 O   0  0  0  0  0  0  0  0  0  0  0  0
  182.4080  170.6880  134.6040 C   0  0  0  0  0  3  0  0  0  0  0  0
  184.4300  172.0590  136.0920 C   0  0  2  0  0  3  0  0  0  0  0  0
  182.5440  175.1700  139.2500 C   0  0  0  0  0  2  0  0  0  0  0  0
  184.8610  179.2350  138.2060 C   0  0  0  0  0  2  0  0  0  0  0  0
  183.2680  174.4200  138.1540 C   0  0  0  0  0  2  0  0  0  0  0  0
  187.0590  179.6280  136.1670 C   0  0  0  0  0  1  0  0  0  0  0  0
  183.1440  174.2670  135.9320 C   0  0  2  0  0  3  0  0  0  0  0  0
  187.1420  175.9230  135.3460 C   0  0  0  0  0  2  0  0  0  0  0  0
  187.3460  174.5130  135.8530 C   0  0  0  0  0  2  0  0  0  0  0  0
  187.7910  177.4920  137.2500 C   0  0  1  0  0  3  0  0  0  0  0  0
  182.3490  176.9150  138.8030 S   0  0  0  0  0  0  0  0  0  0  0  0
  185.6730  172.8150  136.4330 C   0  0  0  0  0  0  0  0  0  0  0  0
  184.1240  178.8670  139.4930 C   0  0  2  0  0  3  0  0  0  0  0  0
  186.6260  178.4760  137.0690 C   0  0  1  0  0  3  0  0  0  0  0  0
  182.3820  174.1440  137.1080 O   0  0  0  0  0  0  0  0  0  0  0  0
  186.2350  178.9890  138.3120 O   0  0  0  0  0  0  0  0  0  0  0  0
  182.4850  175.2240  134.9370 C   0  0  1  0  0  3  0  0  0  0  0  0
  181.3090  177.2420  135.3700 C   0  0  1  0  0  3  0  0  0  0  0  0
  181.1040  174.9590  134.8250 O   0  0  0  0  0  0  0  0  0  0  0  0
  180.4870  176.2060  134.6500 C   0  0  0  0  0  2  0  0  0  0  0  0
  182.6900  176.6580  135.3720 C   0  0  0  0  0  2  0  0  0  0  0  0
  181.2860  178.5540  134.6090 C   0  0  0  0  0  3  0  0  0  0  0  0
  181.2050  179.7110  135.5840 C   0  0  0  0  0  2  0  0  0  0  0  0
  179.9600  179.2470  134.8590 C   0  0  0  0  0  2  0  0  0  0  0  0
  187.4980  176.4410  138.3140 C   0  0  0  0  0  2  0  0  0  0  0  0
  188.3150  176.6440  139.4270 O   0  0  0  0  0  0  0  0  0  0  0  0
  189.3310  177.4800  138.9600 C   0  0  0  0  0  2  0  0  0  0  0  0
  190.6840  177.0100  139.4730 C   0  0  2  0  0  3  0  0  0  0  0  0
  190.5390  175.0240  138.1300 O   0  0  0  0  0  0  0  0  0  0  0  0
  193.4270  177.0290  138.6770 O   0  0  0  0  0  1  0  0  0  0  0  0
  191.2720  175.9580  138.5670 C   0  0  0  0  0  0  0  0  0  0  0  0
  192.6740  175.9780  138.2640 N   0  0  0  0  0  0  0  0  0  0  0  0
  194.7180  174.6780  138.1200 C   0  0  0  0  0  2  0  0  0  0  0  0
  194.4510  175.2090  136.7260 C   0  0  2  0  0  3  0  0  0  0  0  0
  193.2910  174.8120  137.6290 C   0  0  2  0  0  3  0  0  0  0  0  0
  194.7090  174.0950  135.7370 C   0  0  0  0  0  2  0  0  0  0  0  0
  196.7890  174.7450  134.7720 O   0  0  0  0  0  0  0  0  0  0  0  0
  196.8520  172.8760  136.0970 O   0  0  0  0  0  1  0  0  0  0  0  0
  196.1720  173.9300  135.5080 C   0  0  0  0  0  0  0  0  0  0  0  0
  190.3140  177.9740  142.5750 C   0  0  0  0  0  2  0  0  0  0  0  0
  191.5220  177.3940  141.8620 C   0  0  0  0  0  2  0  0  0  0  0  0
  190.5990  176.5970  140.9550 C   0  0  0  0  0  3  0  0  0  0  0  0
  189.3900  177.1860  141.6620 C   0  0  0  0  0  2  0  0  0  0  0  0
  184.8570  179.3540  140.7360 C   0  0  0  0  0  2  0  0  0  0  0  0
  184.7950  178.3230  141.8550 C   0  0  0  0  0  2  0  0  0  0  0  0
  185.2680  179.0710  144.1650 C   0  0  0  0  0  1  0  0  0  0  0  0
  184.1960  178.9320  143.1080 C   0  0  0  0  0  2  0  0  0  0  0  0
  2 18  1  0  0  0  0
  3 17  1  0  0  0  0
  3 20  1  0  0  0  0
  5  4  1  0  0  0  0
  6  7  1  1  0  0  0
  6 15  1  0  0  0  0
  6 10  1  0  0  0  0
  9  5  2  0  0  0  0
  9  7  1  0  0  0  0
 10  4  1  6  0  0  0
 10 20  1  0  0  0  0
 12 24  1  0  0  0  0
 12 21  1  0  0  0  0
 13 11  1  0  0  0  0
 15 23  1  1  0  0  0
 16 17  1  0  0  0  0
 16  2  1  0  0  0  0
 18 33  1  1  0  0  0
 19 11  1  0  0  0  0
 19  1  1  0  0  0  0
 20  8  2  0  0  0  0
 21  1  1  0  0  0  0
 21 52  1  1  0  0  0
 22 14  1  6  0  0  0
 22 18  1  0  0  0  0
 22 24  1  0  0  0  0
 23 13  1  0  0  0  0
 25 29  1  1  0  0  0
 25 15  1  0  0  0  0
 26 30  1  6  0  0  0
 26 29  1  0  0  0  0
 27 25  1  0  0  0  0
 28 27  1  0  0  0  0
 28 26  1  0  0  0  0
 30 32  1  0  0  0  0
 30 31  1  0  0  0  0
 32 31  1  0  0  0  0
 33 34  1  0  0  0  0
 35 34  1  0  0  0  0
 36 35  1  6  0  0  0
 36 50  1  0  0  0  0
 37 39  2  0  0  0  0
 39 36  1  0  0  0  0
 40 39  1  0  0  0  0
 40 38  1  0  0  0  0
 42 44  1  6  0  0  0
 42 43  1  0  0  0  0
 42 41  1  0  0  0  0
 43 41  1  0  0  0  0
 43 40  1  1  0  0  0
 45 47  2  0  0  0  0
 47 44  1  0  0  0  0
 47 46  1  0  0  0  0
 49 48  1  0  0  0  0
 50 51  1  0  0  0  0
 50 49  1  0  0  0  0
 51 48  1  0  0  0  0
 52 53  1  0  0  0  0
 53 55  1  0  0  0  0
 55 54  1  0  0  0  0
M  END
>  <MODEL>
4

>  <REMARK>
 VINA RESULT:      -4.3      2.255      4.548
  Name = 
  14 active torsions:
  status: ('A' for Active; 'I' for Inactive)
    1  A    between atoms: C_6  and  C_14
    2  A    between atoms: C_6  and  C_38
    3  A    between atoms: O_8  and  C_20
    4  A    between atoms: O_8  and  C_22
    5  A    between atoms: C_10  and  C_32
    6  A    between atoms: C_12  and  C_20
    7  A    between atoms: C_12  and  C_42
    8  A    between atoms: C_12  and  C_46
    9  A    between atoms: C_13  and  C_36
   10  A    between atoms: C_21  and  N_53
   11  A    between atoms: C_22  and  C_43
   12  A    between atoms: C_27  and  C_49
   13  A    between atoms: C_27  and  C_55
   14  A    between atoms: C_41  and  C_55
                            x       y       z     vdW  Elec       q    Type
                         _______ _______ _______ _____ _____    ______ ____

>  <TORSDO>
F 14

$$$$
