=
 OpenBabel11052415123D

 55 59  0  0  1  0  0  0  0  0999 V2000
  185.4650  178.4510  138.7670 C   0  0  0  0  0  2  0  0  0  0  0  0
  187.6820  179.7210  136.7620 C   0  0  0  0  0  1  0  0  0  0  0  0
  182.4060  176.3690  136.6580 C   0  0  2  0  0  3  0  0  0  0  0  0
  185.2770  173.8860  134.8740 O   0  0  0  0  0  1  0  0  0  0  0  0
  183.5850  176.4240  134.5940 C   0  0  0  0  0  1  0  0  0  0  0  0
  185.6740  174.6290  135.9870 C   0  0  2  0  0  0  0  0  0  0  0  0
  184.6890  175.6520  136.5450 C   0  0  1  0  0  3  0  0  0  0  0  0
  187.6380  177.2680  136.4710 C   0  0  0  0  0  2  0  0  0  0  0  0
  181.8310  178.6970  136.5560 O   0  0  0  0  0  1  0  0  0  0  0  0
  183.4120  175.6770  135.8340 N   0  0  0  0  0  0  0  0  0  0  0  0
  187.1760  174.7910  136.2400 C   0  0  0  0  0  2  0  0  0  0  0  0
  184.3100  177.4990  139.0510 C   0  0  0  0  0  2  0  0  0  0  0  0
  184.8710  174.2920  137.2210 C   0  0  0  0  0  2  0  0  0  0  0  0
  185.7830  178.4430  137.4060 O   0  0  0  0  0  0  0  0  0  0  0  0
  187.1790  178.4180  137.3530 C   0  0  2  0  0  3  0  0  0  0  0  0
  182.8000  177.8200  137.0400 C   0  0  1  0  0  3  0  0  0  0  0  0
  187.4930  175.9440  137.2090 C   0  0  1  0  0  3  0  0  0  0  0  0
  182.9860  178.0550  138.5390 C   0  0  0  0  0  2  0  0  0  0  0  0
  188.6400  175.6960  138.0910 N   0  0  0  0  0  0  0  0  0  0  0  0
  189.4670  176.8930  138.2320 C   0  0  0  0  0  2  0  0  0  0  0  0
  190.8400  176.8450  140.3220 C   0  0  0  0  0  3  0  0  0  0  0  0
  189.9710  177.7150  142.4160 C   0  0  0  0  0  0  0  0  0  0  0  0
  188.6220  177.8140  140.3990 C   0  0  0  0  0  3  0  0  0  0  0  0
  188.7810  178.0700  141.7640 C   0  0  0  0  0  3  0  0  0  0  0  0
  190.9980  177.1000  141.6870 C   0  0  0  0  0  3  0  0  0  0  0  0
  189.6550  177.2070  139.6750 C   0  0  0  0  0  0  0  0  0  0  0  0
  190.1420  177.9800  143.8540 C   0  0  0  0  0  0  0  0  0  0  0  0
  190.3970  179.1440  144.2630 O   0  0  0  0  0  0  0  0  0  0  0  0
  190.0220  176.9460  144.7760 O   0  0  0  0  0  1  0  0  0  0  0  0
  189.4600  174.6440  137.5020 C   0  0  0  0  0  2  0  0  0  0  0  0
  190.6990  175.9000  135.9410 O   0  0  0  0  0  0  0  0  0  0  0  0
  190.7220  175.2280  136.9590 C   0  0  0  0  0  0  0  0  0  0  0  0
  192.0090  175.0230  137.6930 C   0  0  0  0  0  2  0  0  0  0  0  0
  192.9330  174.1380  136.9120 C   0  0  0  0  0  0  0  0  0  0  0  0
  192.3790  173.0740  136.1210 S   0  0  0  0  0  0  0  0  0  0  0  0
  194.6600  175.6490  137.5390 O   0  0  0  0  0  0  0  0  0  0  0  0
  195.1620  174.3910  137.9190 C   0  0  0  0  0  2  0  0  0  0  0  0
  194.3520  174.5680  136.6880 C   0  0  1  0  0  3  0  0  0  0  0  0
  182.0780  175.5870  137.7850 O   0  0  0  0  0  0  0  0  0  0  0  0
  178.9310  175.5780  137.3740 C   0  0  1  0  0  3  0  0  0  0  0  0
  181.0500  174.6670  137.4570 C   0  0  2  0  0  0  0  0  0  0  0  0
  180.6020  174.8890  136.1300 O   0  0  0  0  0  0  0  0  0  0  0  0
  179.1650  176.9560  137.2940 O   0  0  0  0  0  1  0  0  0  0  0  0
  179.2690  174.9880  136.1530 O   0  0  0  0  0  0  0  0  0  0  0  0
  179.8540  174.9100  138.3480 C   0  0  1  0  0  3  0  0  0  0  0  0
  180.4380  174.6620  140.8410 C   0  0  0  0  0  1  0  0  0  0  0  0
  179.9530  176.8850  139.8650 C   0  0  0  0  0  3  0  0  0  0  0  0
  180.1170  175.5650  139.6940 C   0  0  0  0  0  0  0  0  0  0  0  0
  181.1360  178.3990  141.2890 O   0  0  0  0  0  0  0  0  0  0  0  0
  180.1400  177.6470  141.1140 C   0  0  0  0  0  0  0  0  0  0  0  0
  179.1850  177.5400  142.1160 O   0  0  0  0  0  1  0  0  0  0  0  0
  181.5290  173.2220  137.6350 C   0  0  0  0  0  2  0  0  0  0  0  0
  180.4450  172.3120  137.5490 O   0  0  0  0  0  0  0  0  0  0  0  0
  180.4180  171.3690  136.5600 C   0  0  0  0  0  0  0  0  0  0  0  0
  180.3940  170.5350  135.6880 C   0  0  0  0  0  3  0  0  0  0  0  0
  1 12  1  0  0  0  0
  3 16  1  0  0  0  0
  3 39  1  1  0  0  0
  5 10  1  0  0  0  0
  6  4  1  6  0  0  0
  6 11  1  0  0  0  0
  6  7  1  0  0  0  0
  6 13  1  0  0  0  0
  7 13  1  1  0  0  0
  8 17  1  0  0  0  0
  8 15  1  0  0  0  0
 10  7  1  0  0  0  0
 10  3  1  0  0  0  0
 11 17  1  0  0  0  0
 14  1  1  0  0  0  0
 15  2  1  6  0  0  0
 15 14  1  0  0  0  0
 16  9  1  1  0  0  0
 16 18  1  0  0  0  0
 17 19  1  6  0  0  0
 18 12  1  0  0  0  0
 19 20  1  0  0  0  0
 20 26  1  0  0  0  0
 21 25  1  0  0  0  0
 22 27  1  0  0  0  0
 23 24  2  0  0  0  0
 24 22  1  0  0  0  0
 25 22  2  0  0  0  0
 26 21  2  0  0  0  0
 26 23  1  0  0  0  0
 27 28  2  0  0  0  0
 27 29  1  0  0  0  0
 30 19  1  0  0  0  0
 31 32  2  0  0  0  0
 32 30  1  0  0  0  0
 32 33  1  0  0  0  0
 34 33  1  0  0  0  0
 35 34  2  0  0  0  0
 36 37  1  0  0  0  0
 38 34  1  1  0  0  0
 38 36  1  0  0  0  0
 38 37  1  0  0  0  0
 40 43  1  6  0  0  0
 40 45  1  0  0  0  0
 41 52  1  1  0  0  0
 41 39  1  0  0  0  0
 41 45  1  0  0  0  0
 42 44  1  0  0  0  0
 42 41  1  0  0  0  0
 44 40  1  0  0  0  0
 45 48  1  1  0  0  0
 47 50  1  0  0  0  0
 48 47  2  0  0  0  0
 48 46  1  0  0  0  0
 50 49  2  0  0  0  0
 50 51  1  0  0  0  0
 53 52  1  0  0  0  0
 54 53  1  0  0  0  0
 55 54  3  0  0  0  0
M  END
>  <MODEL>
1

>  <REMARK>
 VINA RESULT:      -5.2      0.000      0.000
  Name = 
  16 active torsions:
  status: ('A' for Active; 'I' for Inactive)
    1  A    between atoms: C_6  and  O_8
    2  A    between atoms: C_6  and  C_46
    3  A    between atoms: C_7  and  O_8
    4  A    between atoms: C_10  and  C_32
    5  A    between atoms: C_11  and  C_29
    6  A    between atoms: C_12  and  O_14
    7  A    between atoms: O_14  and  C_46
    8  A    between atoms: C_27  and  C_31
    9  A    between atoms: C_27  and  C_55
   10  A    between atoms: C_28  and  C_44
   11  A    between atoms: C_28  and  N_49
   12  A    between atoms: C_31  and  C_44
   13  A    between atoms: C_33  and  N_49
   14  A    between atoms: C_33  and  C_52
   15  A    between atoms: C_38  and  C_53
   16  A    between atoms: C_45  and  N_49
                            x       y       z     vdW  Elec       q    Type
                         _______ _______ _______ _____ _____    ______ ____

>  <TORSDO>
F 16

$$$$
=
 OpenBabel11052415123D

 55 59  0  0  1  0  0  0  0  0999 V2000
  185.7530  178.7990  137.6580 C   0  0  0  0  0  2  0  0  0  0  0  0
  186.7980  178.5250  134.5940 C   0  0  0  0  0  1  0  0  0  0  0  0
  181.6870  177.6020  138.0760 C   0  0  2  0  0  3  0  0  0  0  0  0
  182.6030  173.8200  136.5110 O   0  0  0  0  0  1  0  0  0  0  0  0
  181.5890  176.6460  135.9010 C   0  0  0  0  0  1  0  0  0  0  0  0
  183.6700  174.6140  136.9360 C   0  0  2  0  0  0  0  0  0  0  0  0
  183.3630  176.0480  137.3570 C   0  0  1  0  0  3  0  0  0  0  0  0
  186.0960  176.3020  135.4130 C   0  0  0  0  0  2  0  0  0  0  0  0
  181.6460  179.8540  137.2430 O   0  0  0  0  0  1  0  0  0  0  0  0
  181.9410  176.3820  137.2910 N   0  0  0  0  0  0  0  0  0  0  0  0
  185.0760  174.2370  136.4610 C   0  0  0  0  0  2  0  0  0  0  0  0
  184.7500  178.4870  138.7600 C   0  0  0  0  0  2  0  0  0  0  0  0
  183.5830  174.9560  138.4050 C   0  0  0  0  0  2  0  0  0  0  0  0
  185.3000  178.3100  136.4290 O   0  0  0  0  0  0  0  0  0  0  0  0
  186.4200  177.7280  135.8280 C   0  0  2  0  0  3  0  0  0  0  0  0
  182.5150  178.8290  137.6120 C   0  0  1  0  0  3  0  0  0  0  0  0
  186.0860  175.3860  136.6290 C   0  0  1  0  0  3  0  0  0  0  0  0
  183.5050  179.3590  138.6500 C   0  0  0  0  0  2  0  0  0  0  0  0
  187.4440  174.9520  136.9810 N   0  0  0  0  0  0  0  0  0  0  0  0
  188.4030  176.0440  136.8320 C   0  0  0  0  0  2  0  0  0  0  0  0
  188.1340  177.2070  139.0300 C   0  0  0  0  0  3  0  0  0  0  0  0
  189.9420  177.2680  140.6500 C   0  0  0  0  0  0  0  0  0  0  0  0
  190.2290  176.0960  138.5420 C   0  0  0  0  0  3  0  0  0  0  0  0
  190.7340  176.5050  139.7790 C   0  0  0  0  0  3  0  0  0  0  0  0
  188.6400  177.6170  140.2660 C   0  0  0  0  0  3  0  0  0  0  0  0
  188.9250  176.4400  138.1690 C   0  0  0  0  0  0  0  0  0  0  0  0
  190.4710  177.7040  141.9530 C   0  0  0  0  0  0  0  0  0  0  0  0
  191.7000  177.6030  142.2080 O   0  0  0  0  0  0  0  0  0  0  0  0
  189.6170  178.2330  142.9130 O   0  0  0  0  0  1  0  0  0  0  0  0
  187.8360  173.8770  136.0780 C   0  0  0  0  0  2  0  0  0  0  0  0
  189.5980  173.0770  137.4230 O   0  0  0  0  0  0  0  0  0  0  0  0
  189.2580  173.4960  136.3280 C   0  0  0  0  0  0  0  0  0  0  0  0
  190.2560  173.5870  135.2190 C   0  0  0  0  0  2  0  0  0  0  0  0
  191.6360  173.2770  135.7150 C   0  0  0  0  0  0  0  0  0  0  0  0
  192.2180  171.9990  135.4100 S   0  0  0  0  0  0  0  0  0  0  0  0
  193.3330  174.8490  135.1640 O   0  0  0  0  0  0  0  0  0  0  0  0
  192.2250  175.6530  135.4860 C   0  0  0  0  0  2  0  0  0  0  0  0
  192.5090  174.3910  136.2120 C   0  0  1  0  0  3  0  0  0  0  0  0
  181.8440  177.3380  139.4530 O   0  0  0  0  0  0  0  0  0  0  0  0
  179.9680  179.4560  140.8910 C   0  0  1  0  0  3  0  0  0  0  0  0
  180.5850  177.3760  140.1010 C   0  0  2  0  0  0  0  0  0  0  0  0
  179.6260  178.0130  139.2730 O   0  0  0  0  0  0  0  0  0  0  0  0
  180.8210  180.3340  140.2110 O   0  0  0  0  0  1  0  0  0  0  0  0
  179.0170  178.9600  139.9930 O   0  0  0  0  0  0  0  0  0  0  0  0
  180.6860  178.2230  141.3490 C   0  0  1  0  0  3  0  0  0  0  0  0
  183.1660  177.5390  141.3940 C   0  0  0  0  0  1  0  0  0  0  0  0
  182.2420  179.0830  143.0960 C   0  0  0  0  0  3  0  0  0  0  0  0
  182.0600  178.3540  141.9840 C   0  0  0  0  0  0  0  0  0  0  0  0
  184.5850  179.5350  143.2430 O   0  0  0  0  0  0  0  0  0  0  0  0
  183.5040  179.2730  143.8350 C   0  0  0  0  0  0  0  0  0  0  0  0
  183.4950  179.1720  145.2190 O   0  0  0  0  0  1  0  0  0  0  0  0
  180.1200  175.9650  140.4830 C   0  0  0  0  0  2  0  0  0  0  0  0
  180.7220  174.9880  139.6490 O   0  0  0  0  0  0  0  0  0  0  0  0
  179.9420  174.1490  138.9030 C   0  0  0  0  0  0  0  0  0  0  0  0
  179.2530  173.4110  138.2440 C   0  0  0  0  0  3  0  0  0  0  0  0
  1 12  1  0  0  0  0
  3 39  1  1  0  0  0
  5 10  1  0  0  0  0
  6  4  1  6  0  0  0
  6  7  1  0  0  0  0
  6 13  1  0  0  0  0
  7 13  1  1  0  0  0
  8 15  1  0  0  0  0
  8 17  1  0  0  0  0
 10  7  1  0  0  0  0
 10  3  1  0  0  0  0
 11 17  1  0  0  0  0
 11  6  1  0  0  0  0
 14  1  1  0  0  0  0
 15  2  1  6  0  0  0
 15 14  1  0  0  0  0
 16  9  1  1  0  0  0
 16  3  1  0  0  0  0
 16 18  1  0  0  0  0
 17 19  1  6  0  0  0
 18 12  1  0  0  0  0
 20 19  1  0  0  0  0
 20 26  1  0  0  0  0
 21 25  1  0  0  0  0
 22 27  1  0  0  0  0
 23 24  2  0  0  0  0
 24 22  1  0  0  0  0
 25 22  2  0  0  0  0
 26 23  1  0  0  0  0
 26 21  2  0  0  0  0
 27 28  2  0  0  0  0
 27 29  1  0  0  0  0
 30 32  1  0  0  0  0
 30 19  1  0  0  0  0
 32 31  2  0  0  0  0
 33 34  1  0  0  0  0
 33 32  1  0  0  0  0
 35 34  2  0  0  0  0
 36 37  1  0  0  0  0
 36 38  1  0  0  0  0
 37 38  1  0  0  0  0
 38 34  1  6  0  0  0
 39 41  1  0  0  0  0
 40 43  1  6  0  0  0
 40 45  1  0  0  0  0
 41 52  1  1  0  0  0
 41 45  1  0  0  0  0
 42 44  1  0  0  0  0
 42 41  1  0  0  0  0
 44 40  1  0  0  0  0
 45 48  1  6  0  0  0
 46 48  1  0  0  0  0
 47 50  1  0  0  0  0
 48 47  2  0  0  0  0
 49 50  2  0  0  0  0
 50 51  1  0  0  0  0
 53 52  1  0  0  0  0
 54 53  1  0  0  0  0
 55 54  3  0  0  0  0
M  END
>  <MODEL>
2

>  <REMARK>
 VINA RESULT:      -4.8      2.010      3.091
  Name = 
  16 active torsions:
  status: ('A' for Active; 'I' for Inactive)
    1  A    between atoms: C_6  and  O_8
    2  A    between atoms: C_6  and  C_46
    3  A    between atoms: C_7  and  O_8
    4  A    between atoms: C_10  and  C_32
    5  A    between atoms: C_11  and  C_29
    6  A    between atoms: C_12  and  O_14
    7  A    between atoms: O_14  and  C_46
    8  A    between atoms: C_27  and  C_31
    9  A    between atoms: C_27  and  C_55
   10  A    between atoms: C_28  and  C_44
   11  A    between atoms: C_28  and  N_49
   12  A    between atoms: C_31  and  C_44
   13  A    between atoms: C_33  and  N_49
   14  A    between atoms: C_33  and  C_52
   15  A    between atoms: C_38  and  C_53
   16  A    between atoms: C_45  and  N_49
                            x       y       z     vdW  Elec       q    Type
                         _______ _______ _______ _____ _____    ______ ____

>  <TORSDO>
F 16

$$$$
=
 OpenBabel11052415123D

 55 59  0  0  1  0  0  0  0  0999 V2000
  181.3140  176.3080  141.3470 C   0  0  0  0  0  2  0  0  0  0  0  0
  180.5980  178.5760  143.5590 C   0  0  0  0  0  1  0  0  0  0  0  0
  181.4600  177.9090  137.4030 C   0  0  2  0  0  3  0  0  0  0  0  0
  184.3880  180.6660  138.5930 O   0  0  0  0  0  1  0  0  0  0  0  0
  181.3980  180.1640  138.1550 C   0  0  0  0  0  1  0  0  0  0  0  0
  184.1440  179.5830  139.4390 C   0  0  2  0  0  0  0  0  0  0  0  0
  182.9760  178.6640  139.0980 C   0  0  1  0  0  3  0  0  0  0  0  0
  182.6910  179.2030  142.4060 C   0  0  0  0  0  2  0  0  0  0  0  0
  179.1400  177.5320  137.8930 O   0  0  0  0  0  1  0  0  0  0  0  0
  182.2820  179.0400  137.8670 N   0  0  0  0  0  0  0  0  0  0  0  0
  184.6540  179.6740  140.8810 C   0  0  0  0  0  2  0  0  0  0  0  0
  181.7670  175.8990  139.9520 C   0  0  0  0  0  2  0  0  0  0  0  0
  184.4130  178.2570  138.7700 C   0  0  0  0  0  2  0  0  0  0  0  0
  181.1300  177.6920  141.4160 O   0  0  0  0  0  0  0  0  0  0  0  0
  181.6940  178.0790  142.6360 C   0  0  2  0  0  3  0  0  0  0  0  0
  180.4170  177.4240  138.4430 C   0  0  1  0  0  3  0  0  0  0  0  0
  183.9810  178.6510  141.8130 C   0  0  1  0  0  3  0  0  0  0  0  0
  180.6300  175.9950  138.9410 C   0  0  0  0  0  2  0  0  0  0  0  0
  184.8610  178.1130  142.8580 N   0  0  0  0  0  0  0  0  0  0  0  0
  184.2820  178.3020  144.1860 C   0  0  0  0  0  2  0  0  0  0  0  0
  186.1960  177.1320  145.2930 C   0  0  0  0  0  3  0  0  0  0  0  0
  187.3200  178.1010  147.2150 C   0  0  0  0  0  0  0  0  0  0  0  0
  185.4900  179.2860  146.1440 C   0  0  0  0  0  3  0  0  0  0  0  0
  186.4700  179.2140  147.1380 C   0  0  0  0  0  3  0  0  0  0  0  0
  187.1750  177.0610  146.2870 C   0  0  0  0  0  3  0  0  0  0  0  0
  185.3570  178.2470  145.2160 C   0  0  0  0  0  0  0  0  0  0  0  0
  188.3520  178.0200  148.2620 C   0  0  0  0  0  0  0  0  0  0  0  0
  189.5730  177.9910  147.9530 O   0  0  0  0  0  0  0  0  0  0  0  0
  187.9870  177.9780  149.6030 O   0  0  0  0  0  1  0  0  0  0  0  0
  186.1300  178.8280  142.8100 C   0  0  0  0  0  2  0  0  0  0  0  0
  187.1280  176.7130  142.5240 O   0  0  0  0  0  0  0  0  0  0  0  0
  187.2100  177.9160  142.3310 C   0  0  0  0  0  0  0  0  0  0  0  0
  188.3720  178.4750  141.5750 C   0  0  0  0  0  2  0  0  0  0  0  0
  189.6580  177.8620  142.0410 C   0  0  0  0  0  0  0  0  0  0  0  0
  190.1030  178.1100  143.3860 S   0  0  0  0  0  0  0  0  0  0  0  0
  189.8400  176.8220  139.9100 O   0  0  0  0  0  0  0  0  0  0  0  0
  191.1440  177.2820  140.1700 C   0  0  0  0  0  2  0  0  0  0  0  0
  190.2760  176.7490  141.2490 C   0  0  1  0  0  3  0  0  0  0  0  0
  182.2870  176.8620  136.9440 O   0  0  0  0  0  0  0  0  0  0  0  0
  182.4000  174.3030  135.0700 C   0  0  1  0  0  3  0  0  0  0  0  0
  181.9160  176.4900  135.6280 C   0  0  2  0  0  0  0  0  0  0  0  0
  180.7730  175.6510  135.6610 O   0  0  0  0  0  0  0  0  0  0  0  0
  182.6200  173.6860  136.3080 O   0  0  0  0  0  1  0  0  0  0  0  0
  181.0330  174.5640  134.9290 O   0  0  0  0  0  0  0  0  0  0  0  0
  183.0200  175.6660  135.0070 C   0  0  1  0  0  3  0  0  0  0  0  0
  184.8420  175.0140  136.7030 C   0  0  0  0  0  1  0  0  0  0  0  0
  185.2070  176.8570  135.0910 C   0  0  0  0  0  3  0  0  0  0  0  0
  184.4240  175.8710  135.5510 C   0  0  0  0  0  0  0  0  0  0  0  0
  187.5900  176.6670  135.0230 O   0  0  0  0  0  0  0  0  0  0  0  0
  186.5700  177.1930  135.5440 C   0  0  0  0  0  0  0  0  0  0  0  0
  186.7300  178.1230  136.5620 O   0  0  0  0  0  1  0  0  0  0  0  0
  181.6570  177.7270  134.7600 C   0  0  0  0  0  2  0  0  0  0  0  0
  180.2670  177.9560  134.6000 O   0  0  0  0  0  0  0  0  0  0  0  0
  179.7780  179.2320  134.5980 C   0  0  0  0  0  0  0  0  0  0  0  0
  179.3450  180.3580  134.5940 C   0  0  0  0  0  3  0  0  0  0  0  0
  1 14  1  0  0  0  0
  3 39  1  1  0  0  0
  3 10  1  0  0  0  0
  3 16  1  0  0  0  0
  6  4  1  6  0  0  0
  6 11  1  0  0  0  0
  7 13  1  6  0  0  0
  7  6  1  0  0  0  0
  8 15  1  0  0  0  0
 10  5  1  0  0  0  0
 10  7  1  0  0  0  0
 11 17  1  0  0  0  0
 12  1  1  0  0  0  0
 13  6  1  0  0  0  0
 14 15  1  0  0  0  0
 15  2  1  1  0  0  0
 16  9  1  6  0  0  0
 16 18  1  0  0  0  0
 17  8  1  0  0  0  0
 17 19  1  1  0  0  0
 18 12  1  0  0  0  0
 19 20  1  0  0  0  0
 20 26  1  0  0  0  0
 21 25  1  0  0  0  0
 22 27  1  0  0  0  0
 23 24  2  0  0  0  0
 24 22  1  0  0  0  0
 25 22  2  0  0  0  0
 26 21  2  0  0  0  0
 26 23  1  0  0  0  0
 27 29  1  0  0  0  0
 28 27  2  0  0  0  0
 30 19  1  0  0  0  0
 32 31  2  0  0  0  0
 32 30  1  0  0  0  0
 33 34  1  0  0  0  0
 33 32  1  0  0  0  0
 34 35  2  0  0  0  0
 36 37  1  0  0  0  0
 36 38  1  0  0  0  0
 37 38  1  0  0  0  0
 38 34  1  1  0  0  0
 40 43  1  1  0  0  0
 41 52  1  6  0  0  0
 41 42  1  0  0  0  0
 41 39  1  0  0  0  0
 44 40  1  0  0  0  0
 44 42  1  0  0  0  0
 45 40  1  0  0  0  0
 45 48  1  1  0  0  0
 45 41  1  0  0  0  0
 47 50  1  0  0  0  0
 47 48  2  0  0  0  0
 48 46  1  0  0  0  0
 49 50  2  0  0  0  0
 50 51  1  0  0  0  0
 53 52  1  0  0  0  0
 54 53  1  0  0  0  0
 55 54  3  0  0  0  0
M  END
>  <MODEL>
3

>  <REMARK>
 VINA RESULT:      -4.7      3.220      6.240
  Name = 
  16 active torsions:
  status: ('A' for Active; 'I' for Inactive)
    1  A    between atoms: C_6  and  O_8
    2  A    between atoms: C_6  and  C_46
    3  A    between atoms: C_7  and  O_8
    4  A    between atoms: C_10  and  C_32
    5  A    between atoms: C_11  and  C_29
    6  A    between atoms: C_12  and  O_14
    7  A    between atoms: O_14  and  C_46
    8  A    between atoms: C_27  and  C_31
    9  A    between atoms: C_27  and  C_55
   10  A    between atoms: C_28  and  C_44
   11  A    between atoms: C_28  and  N_49
   12  A    between atoms: C_31  and  C_44
   13  A    between atoms: C_33  and  N_49
   14  A    between atoms: C_33  and  C_52
   15  A    between atoms: C_38  and  C_53
   16  A    between atoms: C_45  and  N_49
                            x       y       z     vdW  Elec       q    Type
                         _______ _______ _______ _____ _____    ______ ____

>  <TORSDO>
F 16

$$$$
=
 OpenBabel11052415123D

 55 59  0  0  1  0  0  0  0  0999 V2000
  185.6410  178.6350  138.5540 C   0  0  0  0  0  2  0  0  0  0  0  0
  187.5110  180.0760  136.3230 C   0  0  0  0  0  1  0  0  0  0  0  0
  182.4690  176.4080  136.7880 C   0  0  2  0  0  3  0  0  0  0  0  0
  185.2350  174.1400  134.5980 O   0  0  0  0  0  1  0  0  0  0  0  0
  183.3750  176.5740  134.5950 C   0  0  0  0  0  1  0  0  0  0  0  0
  185.7240  174.8860  135.6720 C   0  0  2  0  0  0  0  0  0  0  0  0
  184.7590  175.8350  136.3740 C   0  0  1  0  0  3  0  0  0  0  0  0
  187.5750  177.6310  135.9760 C   0  0  0  0  0  2  0  0  0  0  0  0
  181.7510  178.6990  136.8180 O   0  0  0  0  0  1  0  0  0  0  0  0
  183.4030  175.7950  135.8280 N   0  0  0  0  0  0  0  0  0  0  0  0
  187.2340  175.1350  135.7400 C   0  0  0  0  0  2  0  0  0  0  0  0
  184.5890  177.6100  138.9550 C   0  0  0  0  0  2  0  0  0  0  0  0
  185.1040  174.4770  136.9860 C   0  0  0  0  0  2  0  0  0  0  0  0
  185.7850  178.6720  137.1640 O   0  0  0  0  0  0  0  0  0  0  0  0
  187.1630  178.7340  136.9370 C   0  0  2  0  0  3  0  0  0  0  0  0
  182.8220  177.8730  137.1560 C   0  0  1  0  0  3  0  0  0  0  0  0
  187.6010  176.2880  136.6920 C   0  0  1  0  0  3  0  0  0  0  0  0
  183.1810  178.0920  138.6260 C   0  0  0  0  0  2  0  0  0  0  0  0
  188.8630  176.0950  137.4180 N   0  0  0  0  0  0  0  0  0  0  0  0
  189.4460  174.7880  137.1260 C   0  0  0  0  0  2  0  0  0  0  0  0
  191.8450  174.2890  137.6290 C   0  0  0  0  0  3  0  0  0  0  0  0
  193.6370  175.3000  136.3390 C   0  0  0  0  0  0  0  0  0  0  0  0
  191.3180  175.7800  135.7960 C   0  0  0  0  0  3  0  0  0  0  0  0
  192.6820  175.9560  135.5480 C   0  0  0  0  0  3  0  0  0  0  0  0
  193.2080  174.4660  137.3820 C   0  0  0  0  0  3  0  0  0  0  0  0
  190.8980  174.9390  136.8330 C   0  0  0  0  0  0  0  0  0  0  0  0
  195.0740  175.4850  136.0840 C   0  0  0  0  0  0  0  0  0  0  0  0
  195.4980  176.5520  135.5640 O   0  0  0  0  0  0  0  0  0  0  0  0
  195.9800  174.4840  136.4160 O   0  0  0  0  0  1  0  0  0  0  0  0
  188.5900  176.1610  138.8490 C   0  0  0  0  0  2  0  0  0  0  0  0
  189.6700  178.2480  139.0170 O   0  0  0  0  0  0  0  0  0  0  0  0
  189.5140  177.1370  139.4980 C   0  0  0  0  0  0  0  0  0  0  0  0
  190.2160  176.7640  140.7640 C   0  0  0  0  0  2  0  0  0  0  0  0
  189.3750  177.1010  141.9580 C   0  0  0  0  0  0  0  0  0  0  0  0
  188.3640  178.1160  141.8380 S   0  0  0  0  0  0  0  0  0  0  0  0
  190.5230  175.3820  143.1350 O   0  0  0  0  0  0  0  0  0  0  0  0
  190.4850  176.4470  144.0530 C   0  0  0  0  0  2  0  0  0  0  0  0
  189.3540  176.1690  143.1330 C   0  0  1  0  0  3  0  0  0  0  0  0
  182.3320  175.5870  137.9270 O   0  0  0  0  0  0  0  0  0  0  0  0
  179.2170  175.3660  137.3600 C   0  0  1  0  0  3  0  0  0  0  0  0
  181.3630  174.5810  137.6870 C   0  0  2  0  0  0  0  0  0  0  0  0
  180.9840  174.5830  136.3200 O   0  0  0  0  0  0  0  0  0  0  0  0
  179.4000  176.7270  137.0880 O   0  0  0  0  0  1  0  0  0  0  0  0
  179.6490  174.6200  136.2590 O   0  0  0  0  0  0  0  0  0  0  0  0
  180.1080  174.8940  138.4690 C   0  0  1  0  0  3  0  0  0  0  0  0
  181.0530  175.1710  140.8460 C   0  0  0  0  0  1  0  0  0  0  0  0
  179.6290  176.9240  139.8310 C   0  0  0  0  0  3  0  0  0  0  0  0
  180.2660  175.7500  139.7140 C   0  0  0  0  0  0  0  0  0  0  0  0
  180.1400  179.0030  140.8970 O   0  0  0  0  0  0  0  0  0  0  0  0
  179.6630  177.8400  140.9870 C   0  0  0  0  0  0  0  0  0  0  0  0
  179.1430  177.4120  142.2000 O   0  0  0  0  0  1  0  0  0  0  0  0
  181.8890  173.2020  138.1020 C   0  0  0  0  0  2  0  0  0  0  0  0
  181.4590  172.1990  137.1960 O   0  0  0  0  0  0  0  0  0  0  0  0
  182.3760  171.4790  136.4840 C   0  0  0  0  0  0  0  0  0  0  0  0
  183.1870  170.8460  135.8540 C   0  0  0  0  0  3  0  0  0  0  0  0
  1 12  1  0  0  0  0
  3 16  1  0  0  0  0
  3 39  1  1  0  0  0
  5 10  1  0  0  0  0
  6  4  1  6  0  0  0
  6 11  1  0  0  0  0
  6  7  1  0  0  0  0
  6 13  1  0  0  0  0
  7 13  1  1  0  0  0
  8 17  1  0  0  0  0
  8 15  1  0  0  0  0
 10  7  1  0  0  0  0
 10  3  1  0  0  0  0
 11 17  1  0  0  0  0
 14  1  1  0  0  0  0
 15  2  1  6  0  0  0
 15 14  1  0  0  0  0
 16  9  1  1  0  0  0
 16 18  1  0  0  0  0
 17 19  1  6  0  0  0
 18 12  1  0  0  0  0
 19 30  1  0  0  0  0
 20 19  1  0  0  0  0
 22 25  2  0  0  0  0
 23 26  1  0  0  0  0
 24 23  2  0  0  0  0
 24 22  1  0  0  0  0
 25 21  1  0  0  0  0
 26 20  1  0  0  0  0
 26 21  2  0  0  0  0
 27 22  1  0  0  0  0
 27 29  1  0  0  0  0
 28 27  2  0  0  0  0
 30 32  1  0  0  0  0
 31 32  2  0  0  0  0
 32 33  1  0  0  0  0
 33 34  1  0  0  0  0
 35 34  2  0  0  0  0
 36 37  1  0  0  0  0
 38 34  1  6  0  0  0
 38 36  1  0  0  0  0
 38 37  1  0  0  0  0
 40 43  1  6  0  0  0
 40 45  1  0  0  0  0
 41 39  1  0  0  0  0
 41 52  1  1  0  0  0
 41 45  1  0  0  0  0
 42 41  1  0  0  0  0
 44 42  1  0  0  0  0
 44 40  1  0  0  0  0
 45 48  1  1  0  0  0
 47 50  1  0  0  0  0
 48 47  2  0  0  0  0
 48 46  1  0  0  0  0
 49 50  2  0  0  0  0
 50 51  1  0  0  0  0
 53 52  1  0  0  0  0
 54 53  1  0  0  0  0
 55 54  3  0  0  0  0
M  END
>  <MODEL>
4

>  <REMARK>
 VINA RESULT:      -4.1      1.656      4.033
  Name = 
  16 active torsions:
  status: ('A' for Active; 'I' for Inactive)
    1  A    between atoms: C_6  and  O_8
    2  A    between atoms: C_6  and  C_46
    3  A    between atoms: C_7  and  O_8
    4  A    between atoms: C_10  and  C_32
    5  A    between atoms: C_11  and  C_29
    6  A    between atoms: C_12  and  O_14
    7  A    between atoms: O_14  and  C_46
    8  A    between atoms: C_27  and  C_31
    9  A    between atoms: C_27  and  C_55
   10  A    between atoms: C_28  and  C_44
   11  A    between atoms: C_28  and  N_49
   12  A    between atoms: C_31  and  C_44
   13  A    between atoms: C_33  and  N_49
   14  A    between atoms: C_33  and  C_52
   15  A    between atoms: C_38  and  C_53
   16  A    between atoms: C_45  and  N_49
                            x       y       z     vdW  Elec       q    Type
                         _______ _______ _______ _____ _____    ______ ____

>  <TORSDO>
F 16

$$$$
=
 OpenBabel11052415123D

 55 59  0  0  1  0  0  0  0  0999 V2000
  183.7290  177.7920  142.3120 C   0  0  0  0  0  2  0  0  0  0  0  0
  185.3930  180.2290  143.6710 C   0  0  0  0  0  1  0  0  0  0  0  0
  182.4820  178.7210  138.3460 C   0  0  2  0  0  3  0  0  0  0  0  0
  186.4620  179.4180  137.2210 O   0  0  0  0  0  1  0  0  0  0  0  0
  183.8460  180.6650  138.2140 C   0  0  0  0  0  1  0  0  0  0  0  0
  186.2440  178.7330  138.4170 C   0  0  2  0  0  0  0  0  0  0  0  0
  184.8070  178.6130  138.9150 C   0  0  1  0  0  3  0  0  0  0  0  0
  186.5810  179.4700  141.6420 C   0  0  0  0  0  2  0  0  0  0  0  0
  180.8940  179.7620  139.8150 O   0  0  0  0  0  1  0  0  0  0  0  0
  183.8280  179.2200  138.0150 N   0  0  0  0  0  0  0  0  0  0  0  0
  187.4110  178.6290  139.4040 C   0  0  0  0  0  2  0  0  0  0  0  0
  183.1400  177.0930  141.0940 C   0  0  0  0  0  2  0  0  0  0  0  0
  185.4900  177.4400  138.2110 C   0  0  0  0  0  2  0  0  0  0  0  0
  184.2540  179.0380  141.9560 O   0  0  0  0  0  0  0  0  0  0  0  0
  185.4760  179.1300  142.6290 C   0  0  2  0  0  3  0  0  0  0  0  0
  182.0570  178.9940  139.8130 C   0  0  1  0  0  3  0  0  0  0  0  0
  186.9540  178.2420  140.8220 C   0  0  1  0  0  3  0  0  0  0  0  0
  181.8300  177.7380  140.6550 C   0  0  0  0  0  2  0  0  0  0  0  0
  187.8970  177.3820  141.5490 N   0  0  0  0  0  0  0  0  0  0  0  0
  188.9080  178.1750  142.2440 C   0  0  0  0  0  2  0  0  0  0  0  0
  187.6630  177.3910  144.2670 C   0  0  0  0  0  3  0  0  0  0  0  0
  188.6600  177.5040  146.4790 C   0  0  0  0  0  0  0  0  0  0  0  0
  189.9150  178.2400  144.5330 C   0  0  0  0  0  3  0  0  0  0  0  0
  189.8290  178.0340  145.9130 C   0  0  0  0  0  3  0  0  0  0  0  0
  187.5780  177.1860  145.6460 C   0  0  0  0  0  3  0  0  0  0  0  0
  188.8340  177.9120  143.7080 C   0  0  0  0  0  0  0  0  0  0  0  0
  188.5640  177.2880  147.9320 C   0  0  0  0  0  0  0  0  0  0  0  0
  188.7190  178.2490  148.7310 O   0  0  0  0  0  1  0  0  0  0  0  0
  188.3000  176.0190  148.4350 O   0  0  0  0  0  0  0  0  0  0  0  0
  188.5770  176.5220  140.5870 C   0  0  0  0  0  2  0  0  0  0  0  0
  190.6330  176.0240  141.6250 O   0  0  0  0  0  0  0  0  0  0  0  0
  190.0560  176.6480  140.7490 C   0  0  0  0  0  0  0  0  0  0  0  0
  190.8340  177.5090  139.8060 C   0  0  0  0  0  2  0  0  0  0  0  0
  191.3980  176.6940  138.6820 C   0  0  0  0  0  0  0  0  0  0  0  0
  192.8040  176.3960  138.6710 S   0  0  0  0  0  0  0  0  0  0  0  0
  189.4460  176.7720  137.3250 O   0  0  0  0  0  0  0  0  0  0  0  0
  190.4750  176.4730  136.4130 C   0  0  0  0  0  2  0  0  0  0  0  0
  190.4700  175.9230  137.7910 C   0  0  1  0  0  3  0  0  0  0  0  0
  182.3680  177.3590  137.9990 O   0  0  0  0  0  0  0  0  0  0  0  0
  180.2830  175.1010  137.2060 C   0  0  1  0  0  3  0  0  0  0  0  0
  181.2910  177.1750  137.0970 C   0  0  2  0  0  0  0  0  0  0  0  0
  180.0570  177.2020  137.7960 O   0  0  0  0  0  0  0  0  0  0  0  0
  180.7200  174.5850  138.4320 O   0  0  0  0  0  1  0  0  0  0  0  0
  179.3560  176.1200  137.4450 O   0  0  0  0  0  0  0  0  0  0  0  0
  181.3860  175.8030  136.4720 C   0  0  1  0  0  3  0  0  0  0  0  0
  183.6350  175.5310  135.2530 C   0  0  0  0  0  1  0  0  0  0  0  0
  183.1330  174.2290  137.2980 C   0  0  0  0  0  3  0  0  0  0  0  0
  182.7640  175.1650  136.4120 C   0  0  0  0  0  0  0  0  0  0  0  0
  185.5010  174.0960  137.5950 O   0  0  0  0  0  1  0  0  0  0  0  0
  184.4180  173.5050  137.3420 C   0  0  0  0  0  0  0  0  0  0  0  0
  184.4270  172.1370  137.1110 O   0  0  0  0  0  0  0  0  0  0  0  0
  181.3130  178.2380  135.9920 C   0  0  0  0  0  2  0  0  0  0  0  0
  180.1620  179.0650  136.0580 O   0  0  0  0  0  0  0  0  0  0  0  0
  180.2970  180.4150  136.2250 C   0  0  0  0  0  0  0  0  0  0  0  0
  180.4150  181.6060  136.3710 C   0  0  0  0  0  3  0  0  0  0  0  0
  3 39  1  1  0  0  0
  3 16  1  0  0  0  0
  6  4  1  6  0  0  0
  6  7  1  0  0  0  0
  6 11  1  0  0  0  0
  7 13  1  6  0  0  0
  8 15  1  0  0  0  0
 10  5  1  0  0  0  0
 10  3  1  0  0  0  0
 10  7  1  0  0  0  0
 11 17  1  0  0  0  0
 12  1  1  0  0  0  0
 13  6  1  0  0  0  0
 14  1  1  0  0  0  0
 14 15  1  0  0  0  0
 15  2  1  1  0  0  0
 16  9  1  6  0  0  0
 16 18  1  0  0  0  0
 17 19  1  1  0  0  0
 17  8  1  0  0  0  0
 18 12  1  0  0  0  0
 19 20  1  0  0  0  0
 20 26  1  0  0  0  0
 21 25  1  0  0  0  0
 22 27  1  0  0  0  0
 23 24  2  0  0  0  0
 24 22  1  0  0  0  0
 25 22  2  0  0  0  0
 26 21  2  0  0  0  0
 26 23  1  0  0  0  0
 27 29  2  0  0  0  0
 27 28  1  0  0  0  0
 30 32  1  0  0  0  0
 30 19  1  0  0  0  0
 32 31  2  0  0  0  0
 33 32  1  0  0  0  0
 34 33  1  0  0  0  0
 35 34  2  0  0  0  0
 36 38  1  0  0  0  0
 37 36  1  0  0  0  0
 37 38  1  0  0  0  0
 38 34  1  1  0  0  0
 40 44  1  0  0  0  0
 40 43  1  1  0  0  0
 41 52  1  6  0  0  0
 41 42  1  0  0  0  0
 41 39  1  0  0  0  0
 44 42  1  0  0  0  0
 45 48  1  1  0  0  0
 45 41  1  0  0  0  0
 45 40  1  0  0  0  0
 46 48  1  0  0  0  0
 47 50  1  0  0  0  0
 48 47  2  0  0  0  0
 50 49  1  0  0  0  0
 51 50  2  0  0  0  0
 52 53  1  0  0  0  0
 53 54  1  0  0  0  0
 54 55  3  0  0  0  0
M  END
>  <MODEL>
5

>  <REMARK>
 VINA RESULT:      -4.0      2.501      4.979
  Name = 
  16 active torsions:
  status: ('A' for Active; 'I' for Inactive)
    1  A    between atoms: C_6  and  O_8
    2  A    between atoms: C_6  and  C_46
    3  A    between atoms: C_7  and  O_8
    4  A    between atoms: C_10  and  C_32
    5  A    between atoms: C_11  and  C_29
    6  A    between atoms: C_12  and  O_14
    7  A    between atoms: O_14  and  C_46
    8  A    between atoms: C_27  and  C_31
    9  A    between atoms: C_27  and  C_55
   10  A    between atoms: C_28  and  C_44
   11  A    between atoms: C_28  and  N_49
   12  A    between atoms: C_31  and  C_44
   13  A    between atoms: C_33  and  N_49
   14  A    between atoms: C_33  and  C_52
   15  A    between atoms: C_38  and  C_53
   16  A    between atoms: C_45  and  N_49
                            x       y       z     vdW  Elec       q    Type
                         _______ _______ _______ _____ _____    ______ ____

>  <TORSDO>
F 16

$$$$
=
 OpenBabel11052415123D

 55 59  0  0  1  0  0  0  0  0999 V2000
  185.5000  178.2660  138.8610 C   0  0  0  0  0  2  0  0  0  0  0  0
  187.4390  178.9050  136.3350 C   0  0  0  0  0  1  0  0  0  0  0  0
  181.4920  179.5260  138.1620 C   0  0  2  0  0  3  0  0  0  0  0  0
  181.3020  177.1310  134.7240 O   0  0  0  0  0  1  0  0  0  0  0  0
  181.8630  179.9250  135.8480 C   0  0  0  0  0  1  0  0  0  0  0  0
  182.3430  176.8850  135.6210 C   0  0  2  0  0  0  0  0  0  0  0  0
  182.5150  177.8490  136.7910 C   0  0  1  0  0  3  0  0  0  0  0  0
  185.6290  177.3900  135.6040 C   0  0  0  0  0  2  0  0  0  0  0  0
  182.7060  181.4830  138.8410 O   0  0  0  0  0  1  0  0  0  0  0  0
  181.5050  178.9050  136.8260 N   0  0  0  0  0  0  0  0  0  0  0  0
  183.5330  176.0570  135.1260 C   0  0  0  0  0  2  0  0  0  0  0  0
  184.1160  178.1040  139.4760 C   0  0  0  0  0  2  0  0  0  0  0  0
  181.8420  176.4900  136.9900 C   0  0  0  0  0  2  0  0  0  0  0  0
  185.4020  178.7490  137.5530 O   0  0  0  0  0  0  0  0  0  0  0  0
  186.3210  177.9990  136.8130 C   0  0  2  0  0  3  0  0  0  0  0  0
  182.8590  180.1200  138.5900 C   0  0  1  0  0  3  0  0  0  0  0  0
  184.7730  176.2040  136.0260 C   0  0  1  0  0  3  0  0  0  0  0  0
  183.4890  179.4520  139.8130 C   0  0  0  0  0  2  0  0  0  0  0  0
  185.5780  174.9830  136.1530 N   0  0  0  0  0  0  0  0  0  0  0  0
  185.1500  174.1840  137.2980 C   0  0  0  0  0  2  0  0  0  0  0  0
  184.2400  172.3530  135.8570 C   0  0  0  0  0  3  0  0  0  0  0  0
  181.9330  171.6220  136.0590 C   0  0  0  0  0  0  0  0  0  0  0  0
  182.7900  173.3790  137.5020 C   0  0  0  0  0  3  0  0  0  0  0  0
  181.7400  172.5540  137.0900 C   0  0  0  0  0  3  0  0  0  0  0  0
  183.1900  171.5290  135.4450 C   0  0  0  0  0  3  0  0  0  0  0  0
  184.0440  173.2730  136.8910 C   0  0  0  0  0  0  0  0  0  0  0  0
  180.8290  170.7540  135.6200 C   0  0  0  0  0  0  0  0  0  0  0  0
  179.6400  171.0230  135.9380 O   0  0  0  0  0  1  0  0  0  0  0  0
  181.0890  169.6280  134.8470 O   0  0  0  0  0  0  0  0  0  0  0  0
  186.9700  175.3640  136.3600 C   0  0  0  0  0  2  0  0  0  0  0  0
  188.4960  175.7890  134.6160 O   0  0  0  0  0  0  0  0  0  0  0  0
  187.7870  174.9680  135.1740 C   0  0  0  0  0  0  0  0  0  0  0  0
  187.7660  173.5500  134.7000 C   0  0  0  0  0  2  0  0  0  0  0  0
  188.5790  172.6740  135.6040 C   0  0  0  0  0  0  0  0  0  0  0  0
  187.9040  171.8420  136.5630 S   0  0  0  0  0  0  0  0  0  0  0  0
  190.5580  173.5200  134.5940 O   0  0  0  0  0  0  0  0  0  0  0  0
  190.9020  173.4000  135.9520 C   0  0  0  0  0  2  0  0  0  0  0  0
  190.0200  172.4140  135.2810 C   0  0  1  0  0  3  0  0  0  0  0  0
  180.9780  178.6210  139.1150 O   0  0  0  0  0  0  0  0  0  0  0  0
  179.7630  178.5180  142.0450 C   0  0  1  0  0  3  0  0  0  0  0  0
  179.9390  179.2350  139.8580 C   0  0  2  0  0  0  0  0  0  0  0  0
  180.4820  180.1630  140.7830 O   0  0  0  0  0  0  0  0  0  0  0  0
  180.9900  177.8880  142.2870 O   0  0  0  0  0  1  0  0  0  0  0  0
  179.9650  179.9000  141.9870 O   0  0  0  0  0  0  0  0  0  0  0  0
  179.2260  178.1900  140.6840 C   0  0  1  0  0  3  0  0  0  0  0  0
  179.0800  176.5330  138.7220 C   0  0  0  0  0  1  0  0  0  0  0  0
  179.4040  175.7300  141.0420 C   0  0  0  0  0  3  0  0  0  0  0  0
  179.2860  176.7560  140.1860 C   0  0  0  0  0  0  0  0  0  0  0  0
  179.4890  173.8950  139.5110 O   0  0  0  0  0  0  0  0  0  0  0  0
  179.4420  174.2940  140.7060 C   0  0  0  0  0  0  0  0  0  0  0  0
  179.4400  173.3630  141.7340 O   0  0  0  0  0  1  0  0  0  0  0  0
  178.9310  179.9210  138.9280 C   0  0  0  0  0  2  0  0  0  0  0  0
  178.9330  181.3260  139.1230 O   0  0  0  0  0  0  0  0  0  0  0  0
  179.1650  182.1640  138.0690 C   0  0  0  0  0  0  0  0  0  0  0  0
  179.3700  182.9030  137.1380 C   0  0  0  0  0  3  0  0  0  0  0  0
  1 12  1  0  0  0  0
  3 16  1  0  0  0  0
  3 39  1  1  0  0  0
  5 10  1  0  0  0  0
  6  4  1  6  0  0  0
  6  7  1  0  0  0  0
  6 13  1  0  0  0  0
  7 10  1  0  0  0  0
  7 13  1  1  0  0  0
  8 17  1  0  0  0  0
  8 15  1  0  0  0  0
 10  3  1  0  0  0  0
 11  6  1  0  0  0  0
 11 17  1  0  0  0  0
 12 18  1  0  0  0  0
 14  1  1  0  0  0  0
 15  2  1  6  0  0  0
 15 14  1  0  0  0  0
 16  9  1  1  0  0  0
 16 18  1  0  0  0  0
 17 19  1  6  0  0  0
 19 30  1  0  0  0  0
 19 20  1  0  0  0  0
 21 26  1  0  0  0  0
 22 24  2  0  0  0  0
 24 23  1  0  0  0  0
 25 21  2  0  0  0  0
 25 22  1  0  0  0  0
 26 20  1  0  0  0  0
 26 23  2  0  0  0  0
 27 28  1  0  0  0  0
 27 22  1  0  0  0  0
 29 27  2  0  0  0  0
 31 32  2  0  0  0  0
 32 30  1  0  0  0  0
 33 32  1  0  0  0  0
 33 34  1  0  0  0  0
 34 35  2  0  0  0  0
 36 38  1  0  0  0  0
 36 37  1  0  0  0  0
 38 34  1  1  0  0  0
 38 37  1  0  0  0  0
 39 41  1  0  0  0  0
 40 43  1  6  0  0  0
 41 52  1  6  0  0  0
 41 45  1  0  0  0  0
 41 42  1  0  0  0  0
 42 44  1  0  0  0  0
 44 40  1  0  0  0  0
 45 48  1  6  0  0  0
 45 40  1  0  0  0  0
 46 48  1  0  0  0  0
 48 47  2  0  0  0  0
 49 50  2  0  0  0  0
 50 47  1  0  0  0  0
 50 51  1  0  0  0  0
 52 53  1  0  0  0  0
 54 53  1  0  0  0  0
 55 54  3  0  0  0  0
M  END
>  <MODEL>
6

>  <REMARK>
 VINA RESULT:      -3.9      3.295      6.558
  Name = 
  16 active torsions:
  status: ('A' for Active; 'I' for Inactive)
    1  A    between atoms: C_6  and  O_8
    2  A    between atoms: C_6  and  C_46
    3  A    between atoms: C_7  and  O_8
    4  A    between atoms: C_10  and  C_32
    5  A    between atoms: C_11  and  C_29
    6  A    between atoms: C_12  and  O_14
    7  A    between atoms: O_14  and  C_46
    8  A    between atoms: C_27  and  C_31
    9  A    between atoms: C_27  and  C_55
   10  A    between atoms: C_28  and  C_44
   11  A    between atoms: C_28  and  N_49
   12  A    between atoms: C_31  and  C_44
   13  A    between atoms: C_33  and  N_49
   14  A    between atoms: C_33  and  C_52
   15  A    between atoms: C_38  and  C_53
   16  A    between atoms: C_45  and  N_49
                            x       y       z     vdW  Elec       q    Type
                         _______ _______ _______ _____ _____    ______ ____

>  <TORSDO>
F 16

$$$$
=
 OpenBabel11052415123D

 55 59  0  0  1  0  0  0  0  0999 V2000
  187.2890  178.3920  137.0010 C   0  0  0  0  0  2  0  0  0  0  0  0
  189.4380  177.9210  134.6120 C   0  0  0  0  0  1  0  0  0  0  0  0
  183.6930  176.1960  136.3760 C   0  0  2  0  0  3  0  0  0  0  0  0
  185.8700  172.6150  136.1980 O   0  0  0  0  0  1  0  0  0  0  0  0
  184.6130  174.9080  134.6020 C   0  0  0  0  0  1  0  0  0  0  0  0
  186.5160  173.7330  136.7290 C   0  0  2  0  0  0  0  0  0  0  0  0
  185.7920  175.0740  136.6530 C   0  0  1  0  0  3  0  0  0  0  0  0
  188.9430  175.7560  135.6940 C   0  0  0  0  0  2  0  0  0  0  0  0
  183.5150  178.1790  135.0350 O   0  0  0  0  0  1  0  0  0  0  0  0
  184.4630  174.9830  136.0500 N   0  0  0  0  0  0  0  0  0  0  0  0
  188.0420  173.6900  136.8430 C   0  0  0  0  0  2  0  0  0  0  0  0
  186.0300  177.9970  137.7630 C   0  0  0  0  0  2  0  0  0  0  0  0
  185.8180  174.2730  137.9550 C   0  0  0  0  0  2  0  0  0  0  0  0
  187.4380  177.6020  135.8580 O   0  0  0  0  0  0  0  0  0  0  0  0
  188.7940  177.2640  135.8170 C   0  0  2  0  0  3  0  0  0  0  0  0
  184.3700  177.5120  135.9100 C   0  0  1  0  0  3  0  0  0  0  0  0
  188.6630  175.0860  137.0320 C   0  0  1  0  0  3  0  0  0  0  0  0
  184.7690  178.4590  137.0420 C   0  0  0  0  0  2  0  0  0  0  0  0
  189.8470  175.1100  137.9000 N   0  0  0  0  0  0  0  0  0  0  0  0
  190.3540  176.4700  138.0630 C   0  0  0  0  0  2  0  0  0  0  0  0
  189.0920  177.1180  140.1240 C   0  0  0  0  0  3  0  0  0  0  0  0
  190.2500  177.6610  142.1880 C   0  0  0  0  0  0  0  0  0  0  0  0
  191.5090  177.0010  140.2180 C   0  0  0  0  0  3  0  0  0  0  0  0
  191.4750  177.4010  141.5570 C   0  0  0  0  0  3  0  0  0  0  0  0
  189.0600  177.5180  141.4620 C   0  0  0  0  0  3  0  0  0  0  0  0
  190.3160  176.8520  139.5030 C   0  0  0  0  0  0  0  0  0  0  0  0
  190.2100  178.0860  143.5970 C   0  0  0  0  0  0  0  0  0  0  0  0
  189.1500  177.9730  144.2680 O   0  0  0  0  0  1  0  0  0  0  0  0
  191.3450  178.6150  144.2010 O   0  0  0  0  0  0  0  0  0  0  0  0
  190.8940  174.3070  137.2790 C   0  0  0  0  0  2  0  0  0  0  0  0
  192.1380  175.8820  136.0470 O   0  0  0  0  0  0  0  0  0  0  0  0
  192.0980  175.1510  137.0230 C   0  0  0  0  0  0  0  0  0  0  0  0
  193.2360  175.1320  137.9920 C   0  0  0  0  0  2  0  0  0  0  0  0
  194.5020  174.6960  137.3190 C   0  0  0  0  0  0  0  0  0  0  0  0
  195.0870  175.5430  136.3140 S   0  0  0  0  0  0  0  0  0  0  0  0
  194.7270  172.3470  137.6130 O   0  0  0  0  0  0  0  0  0  0  0  0
  195.8660  172.7010  136.8680 C   0  0  0  0  0  2  0  0  0  0  0  0
  195.3160  173.5890  137.9210 C   0  0  1  0  0  3  0  0  0  0  0  0
  183.3720  176.2150  137.7500 O   0  0  0  0  0  0  0  0  0  0  0  0
  180.6800  177.8670  137.4400 C   0  0  1  0  0  3  0  0  0  0  0  0
  181.9790  176.0220  137.9270 C   0  0  2  0  0  0  0  0  0  0  0  0
  181.3360  175.9210  136.6670 O   0  0  0  0  0  0  0  0  0  0  0  0
  181.5360  178.6880  136.6940 O   0  0  0  0  0  1  0  0  0  0  0  0
  180.3050  176.7710  136.6570 O   0  0  0  0  0  0  0  0  0  0  0  0
  181.3850  177.2360  138.6020 C   0  0  1  0  0  3  0  0  0  0  0  0
  182.4390  179.5280  139.1070 C   0  0  0  0  0  1  0  0  0  0  0  0
  183.0870  177.5190  140.4010 C   0  0  0  0  0  3  0  0  0  0  0  0
  182.3190  178.0790  139.4540 C   0  0  0  0  0  0  0  0  0  0  0  0
  184.1970  177.8840  142.4860 O   0  0  0  0  0  1  0  0  0  0  0  0
  184.0570  178.2040  141.2760 C   0  0  0  0  0  0  0  0  0  0  0  0
  184.8420  179.2180  140.7450 O   0  0  0  0  0  0  0  0  0  0  0  0
  181.7000  174.7790  138.7800 C   0  0  0  0  0  2  0  0  0  0  0  0
  180.3080  174.5990  138.9770 O   0  0  0  0  0  0  0  0  0  0  0  0
  179.8400  174.1200  140.1680 C   0  0  0  0  0  0  0  0  0  0  0  0
  179.4290  173.6970  141.2200 C   0  0  0  0  0  3  0  0  0  0  0  0
  1 12  1  0  0  0  0
  3 39  1  1  0  0  0
  5 10  1  0  0  0  0
  6  4  1  6  0  0  0
  6 11  1  0  0  0  0
  6 13  1  0  0  0  0
  7  6  1  0  0  0  0
  7 13  1  1  0  0  0
  8 15  1  0  0  0  0
  8 17  1  0  0  0  0
 10  3  1  0  0  0  0
 10  7  1  0  0  0  0
 11 17  1  0  0  0  0
 14  1  1  0  0  0  0
 15  2  1  6  0  0  0
 15 14  1  0  0  0  0
 16  9  1  6  0  0  0
 16  3  1  0  0  0  0
 16 18  1  0  0  0  0
 17 19  1  6  0  0  0
 18 12  1  0  0  0  0
 19 20  1  0  0  0  0
 20 26  1  0  0  0  0
 21 25  1  0  0  0  0
 22 27  1  0  0  0  0
 23 24  2  0  0  0  0
 24 22  1  0  0  0  0
 25 22  2  0  0  0  0
 26 21  2  0  0  0  0
 26 23  1  0  0  0  0
 27 29  2  0  0  0  0
 27 28  1  0  0  0  0
 30 19  1  0  0  0  0
 31 32  2  0  0  0  0
 32 30  1  0  0  0  0
 32 33  1  0  0  0  0
 34 33  1  0  0  0  0
 35 34  2  0  0  0  0
 36 38  1  0  0  0  0
 37 36  1  0  0  0  0
 37 38  1  0  0  0  0
 38 34  1  6  0  0  0
 39 41  1  0  0  0  0
 40 43  1  6  0  0  0
 40 45  1  0  0  0  0
 41 45  1  0  0  0  0
 41 52  1  1  0  0  0
 42 41  1  0  0  0  0
 44 42  1  0  0  0  0
 44 40  1  0  0  0  0
 45 48  1  6  0  0  0
 46 48  1  0  0  0  0
 47 50  1  0  0  0  0
 48 47  2  0  0  0  0
 50 49  1  0  0  0  0
 51 50  2  0  0  0  0
 52 53  1  0  0  0  0
 53 54  1  0  0  0  0
 54 55  3  0  0  0  0
M  END
>  <MODEL>
7

>  <REMARK>
 VINA RESULT:      -3.8      1.927      2.622
  Name = 
  16 active torsions:
  status: ('A' for Active; 'I' for Inactive)
    1  A    between atoms: C_6  and  O_8
    2  A    between atoms: C_6  and  C_46
    3  A    between atoms: C_7  and  O_8
    4  A    between atoms: C_10  and  C_32
    5  A    between atoms: C_11  and  C_29
    6  A    between atoms: C_12  and  O_14
    7  A    between atoms: O_14  and  C_46
    8  A    between atoms: C_27  and  C_31
    9  A    between atoms: C_27  and  C_55
   10  A    between atoms: C_28  and  C_44
   11  A    between atoms: C_28  and  N_49
   12  A    between atoms: C_31  and  C_44
   13  A    between atoms: C_33  and  N_49
   14  A    between atoms: C_33  and  C_52
   15  A    between atoms: C_38  and  C_53
   16  A    between atoms: C_45  and  N_49
                            x       y       z     vdW  Elec       q    Type
                         _______ _______ _______ _____ _____    ______ ____

>  <TORSDO>
F 16

$$$$
=
 OpenBabel11052415123D

 55 59  0  0  1  0  0  0  0  0999 V2000
  189.3460  175.3560  137.3300 C   0  0  0  0  0  2  0  0  0  0  0  0
  187.9840  178.2980  137.1410 C   0  0  0  0  0  1  0  0  0  0  0  0
  193.5690  175.5100  136.7920 C   0  0  2  0  0  3  0  0  0  0  0  0
  193.9150  178.1840  140.0050 O   0  0  0  0  0  1  0  0  0  0  0  0
  193.6540  177.8790  136.9680 C   0  0  0  0  0  1  0  0  0  0  0  0
  192.7150  177.4820  139.8810 C   0  0  2  0  0  0  0  0  0  0  0  0
  192.5180  176.6290  138.6320 C   0  0  1  0  0  3  0  0  0  0  0  0
  189.6080  178.2770  139.0020 C   0  0  0  0  0  2  0  0  0  0  0  0
  192.6060  175.5640  134.5940 O   0  0  0  0  0  1  0  0  0  0  0  0
  193.6710  176.6380  137.7330 N   0  0  0  0  0  0  0  0  0  0  0  0
  191.5010  177.9990  140.6580 C   0  0  0  0  0  2  0  0  0  0  0  0
  190.5640  174.4550  137.4930 C   0  0  0  0  0  2  0  0  0  0  0  0
  192.9120  175.9870  139.9630 C   0  0  0  0  0  2  0  0  0  0  0  0
  189.7370  176.6930  137.2200 O   0  0  0  0  0  0  0  0  0  0  0  0
  188.8400  177.4070  138.0200 C   0  0  2  0  0  3  0  0  0  0  0  0
  192.2690  175.5160  135.9460 C   0  0  1  0  0  3  0  0  0  0  0  0
  190.1730  177.4260  140.1320 C   0  0  1  0  0  3  0  0  0  0  0  0
  191.3440  174.3230  136.1900 C   0  0  0  0  0  2  0  0  0  0  0  0
  189.1640  177.1820  141.1710 N   0  0  0  0  0  0  0  0  0  0  0  0
  188.6370  178.4370  141.7010 C   0  0  0  0  0  2  0  0  0  0  0  0
  186.3230  178.2390  142.6290 C   0  0  0  0  0  3  0  0  0  0  0  0
  184.3720  178.4450  141.1970 C   0  0  0  0  0  0  0  0  0  0  0  0
  186.6030  178.6810  140.2650 C   0  0  0  0  0  3  0  0  0  0  0  0
  185.2150  178.6710  140.0990 C   0  0  0  0  0  3  0  0  0  0  0  0
  184.9360  178.2280  142.4620 C   0  0  0  0  0  3  0  0  0  0  0  0
  187.1580  178.4730  141.5320 C   0  0  0  0  0  0  0  0  0  0  0  0
  182.9100  178.4310  141.0260 C   0  0  0  0  0  0  0  0  0  0  0  0
  182.1510  178.6690  142.0020 O   0  0  0  0  0  1  0  0  0  0  0  0
  182.3540  178.1550  139.7820 O   0  0  0  0  0  0  0  0  0  0  0  0
  189.7930  176.4550  142.2670 C   0  0  0  0  0  2  0  0  0  0  0  0
  187.9740  175.7610  143.5940 O   0  0  0  0  0  0  0  0  0  0  0  0
  188.9260  176.5160  143.4810 C   0  0  0  0  0  0  0  0  0  0  0  0
  189.2550  177.4760  144.5790 C   0  0  0  0  0  2  0  0  0  0  0  0
  190.7290  177.4900  144.8520 C   0  0  0  0  0  0  0  0  0  0  0  0
  191.4940  178.6550  144.5000 S   0  0  0  0  0  0  0  0  0  0  0  0
  191.9300  177.1130  146.8690 O   0  0  0  0  0  0  0  0  0  0  0  0
  190.6760  176.5250  147.1120 C   0  0  0  0  0  2  0  0  0  0  0  0
  191.3190  176.4670  145.7760 C   0  0  1  0  0  3  0  0  0  0  0  0
  193.7600  174.2890  137.4730 O   0  0  0  0  0  0  0  0  0  0  0  0
  195.3160  171.5290  137.6650 C   0  0  1  0  0  3  0  0  0  0  0  0
  194.3430  173.3330  136.6040 C   0  0  2  0  0  0  0  0  0  0  0  0
  193.5380  172.1670  136.5490 O   0  0  0  0  0  0  0  0  0  0  0  0
  194.7800  171.5770  138.9580 O   0  0  0  0  0  1  0  0  0  0  0  0
  194.3220  171.1090  136.7760 O   0  0  0  0  0  0  0  0  0  0  0  0
  195.6770  172.8940  137.1610 C   0  0  1  0  0  3  0  0  0  0  0  0
  197.7260  174.3740  137.6380 C   0  0  0  0  0  1  0  0  0  0  0  0
  195.9010  174.1570  139.2970 C   0  0  0  0  0  3  0  0  0  0  0  0
  196.3930  173.8640  138.0840 C   0  0  0  0  0  0  0  0  0  0  0  0
  195.9540  176.1370  140.6370 O   0  0  0  0  0  0  0  0  0  0  0  0
  196.5000  175.0510  140.3060 C   0  0  0  0  0  0  0  0  0  0  0  0
  197.6900  174.6760  140.9140 O   0  0  0  0  0  1  0  0  0  0  0  0
  194.5460  173.9190  135.2010 C   0  0  0  0  0  2  0  0  0  0  0  0
  195.9210  174.1530  134.9420 O   0  0  0  0  0  0  0  0  0  0  0  0
  196.3930  175.4310  134.8440 C   0  0  0  0  0  0  0  0  0  0  0  0
  196.8110  176.5590  134.7570 C   0  0  0  0  0  3  0  0  0  0  0  0
  1 12  1  0  0  0  0
  3 39  1  1  0  0  0
  3 10  1  0  0  0  0
  5 10  1  0  0  0  0
  6 13  1  0  0  0  0
  6  4  1  1  0  0  0
  6 11  1  0  0  0  0
  7  6  1  0  0  0  0
  7 13  1  1  0  0  0
  8 17  1  0  0  0  0
 10  7  1  0  0  0  0
 14  1  1  0  0  0  0
 14 15  1  0  0  0  0
 15  2  1  6  0  0  0
 15  8  1  0  0  0  0
 16  9  1  6  0  0  0
 16 18  1  0  0  0  0
 16  3  1  0  0  0  0
 17 11  1  0  0  0  0
 17 19  1  1  0  0  0
 18 12  1  0  0  0  0
 19 20  1  0  0  0  0
 19 30  1  0  0  0  0
 22 25  2  0  0  0  0
 23 26  1  0  0  0  0
 24 23  2  0  0  0  0
 24 22  1  0  0  0  0
 25 21  1  0  0  0  0
 26 20  1  0  0  0  0
 26 21  2  0  0  0  0
 27 22  1  0  0  0  0
 27 28  1  0  0  0  0
 29 27  2  0  0  0  0
 30 32  1  0  0  0  0
 32 31  2  0  0  0  0
 32 33  1  0  0  0  0
 33 34  1  0  0  0  0
 35 34  2  0  0  0  0
 36 37  1  0  0  0  0
 38 34  1  6  0  0  0
 38 36  1  0  0  0  0
 38 37  1  0  0  0  0
 40 43  1  1  0  0  0
 41 52  1  6  0  0  0
 41 45  1  0  0  0  0
 41 39  1  0  0  0  0
 42 41  1  0  0  0  0
 42 44  1  0  0  0  0
 44 40  1  0  0  0  0
 45 40  1  0  0  0  0
 45 48  1  1  0  0  0
 46 48  1  0  0  0  0
 47 50  1  0  0  0  0
 48 47  2  0  0  0  0
 50 49  2  0  0  0  0
 50 51  1  0  0  0  0
 53 52  1  0  0  0  0
 54 53  1  0  0  0  0
 55 54  3  0  0  0  0
M  END
>  <MODEL>
8

>  <REMARK>
 VINA RESULT:      -3.3      4.150     10.860
  Name = 
  16 active torsions:
  status: ('A' for Active; 'I' for Inactive)
    1  A    between atoms: C_6  and  O_8
    2  A    between atoms: C_6  and  C_46
    3  A    between atoms: C_7  and  O_8
    4  A    between atoms: C_10  and  C_32
    5  A    between atoms: C_11  and  C_29
    6  A    between atoms: C_12  and  O_14
    7  A    between atoms: O_14  and  C_46
    8  A    between atoms: C_27  and  C_31
    9  A    between atoms: C_27  and  C_55
   10  A    between atoms: C_28  and  C_44
   11  A    between atoms: C_28  and  N_49
   12  A    between atoms: C_31  and  C_44
   13  A    between atoms: C_33  and  N_49
   14  A    between atoms: C_33  and  C_52
   15  A    between atoms: C_38  and  C_53
   16  A    between atoms: C_45  and  N_49
                            x       y       z     vdW  Elec       q    Type
                         _______ _______ _______ _____ _____    ______ ____

>  <TORSDO>
F 16

$$$$
=
 OpenBabel11052415123D

 55 59  0  0  1  0  0  0  0  0999 V2000
  182.7740  178.1090  142.8530 C   0  0  0  0  0  2  0  0  0  0  0  0
  184.4220  180.5550  144.2140 C   0  0  0  0  0  1  0  0  0  0  0  0
  181.9130  178.8480  138.7470 C   0  0  2  0  0  3  0  0  0  0  0  0
  186.0020  179.3200  137.9390 O   0  0  0  0  0  1  0  0  0  0  0  0
  183.3680  180.7250  138.6260 C   0  0  0  0  0  1  0  0  0  0  0  0
  185.6520  178.7160  139.1480 C   0  0  2  0  0  0  0  0  0  0  0  0
  184.1740  178.6830  139.5230 C   0  0  1  0  0  3  0  0  0  0  0  0
  185.7440  179.6300  142.3430 C   0  0  0  0  0  2  0  0  0  0  0  0
  180.2530  180.0370  140.0090 O   0  0  0  0  0  1  0  0  0  0  0  0
  183.3030  179.2730  138.5080 N   0  0  0  0  0  0  0  0  0  0  0  0
  186.7240  178.6250  140.2380 C   0  0  0  0  0  2  0  0  0  0  0  0
  182.2610  177.3620  141.6290 C   0  0  0  0  0  2  0  0  0  0  0  0
  184.8620  177.4440  138.9490 C   0  0  0  0  0  2  0  0  0  0  0  0
  183.3820  179.3100  142.4750 O   0  0  0  0  0  0  0  0  0  0  0  0
  184.5450  179.3940  143.2470 C   0  0  2  0  0  3  0  0  0  0  0  0
  181.3760  179.2250  140.1530 C   0  0  1  0  0  3  0  0  0  0  0  0
  186.1310  178.3420  141.6300 C   0  0  1  0  0  3  0  0  0  0  0  0
  181.0230  178.0310  141.0400 C   0  0  0  0  0  2  0  0  0  0  0  0
  186.9700  177.4900  142.4840 N   0  0  0  0  0  0  0  0  0  0  0  0
  186.1960  176.9210  143.5850 C   0  0  0  0  0  2  0  0  0  0  0  0
  186.2140  177.8640  145.9020 C   0  0  0  0  0  3  0  0  0  0  0  0
  188.2160  177.7870  147.2750 C   0  0  0  0  0  0  0  0  0  0  0  0
  188.2270  176.8280  145.0430 C   0  0  0  0  0  3  0  0  0  0  0  0
  188.8880  177.1210  146.2400 C   0  0  0  0  0  3  0  0  0  0  0  0
  186.8750  178.1580  147.0970 C   0  0  0  0  0  3  0  0  0  0  0  0
  186.8870  177.1930  144.8770 C   0  0  0  0  0  0  0  0  0  0  0  0
  188.9080  178.1010  148.5350 C   0  0  0  0  0  0  0  0  0  0  0  0
  188.2560  178.2540  149.6010 O   0  0  0  0  0  1  0  0  0  0  0  0
  190.2930  178.2290  148.5600 O   0  0  0  0  0  0  0  0  0  0  0  0
  188.0350  178.3070  143.0510 C   0  0  0  0  0  2  0  0  0  0  0  0
  190.0020  179.2070  142.1170 O   0  0  0  0  0  0  0  0  0  0  0  0
  189.2390  178.2560  142.1700 C   0  0  0  0  0  0  0  0  0  0  0  0
  189.5320  177.0160  141.3870 C   0  0  0  0  0  2  0  0  0  0  0  0
  190.7940  177.1710  140.5950 C   0  0  0  0  0  0  0  0  0  0  0  0
  192.0560  177.1730  141.2830 S   0  0  0  0  0  0  0  0  0  0  0  0
  189.5080  176.4620  138.7240 O   0  0  0  0  0  0  0  0  0  0  0  0
  189.7180  177.8310  138.4840 C   0  0  0  0  0  2  0  0  0  0  0  0
  190.7610  176.9800  139.1070 C   0  0  1  0  0  3  0  0  0  0  0  0
  181.7690  177.4730  138.4680 O   0  0  0  0  0  0  0  0  0  0  0  0
  179.4910  175.6400  137.2350 C   0  0  1  0  0  3  0  0  0  0  0  0
  181.1000  177.2950  137.2320 C   0  0  2  0  0  0  0  0  0  0  0  0
  179.7820  177.8130  137.3100 O   0  0  0  0  0  0  0  0  0  0  0  0
  179.2510  175.4130  138.5960 O   0  0  0  0  0  1  0  0  0  0  0  0
  178.9380  176.8730  136.8750 O   0  0  0  0  0  0  0  0  0  0  0  0
  180.9510  175.8180  136.9480 C   0  0  1  0  0  3  0  0  0  0  0  0
  182.1430  175.0050  139.0770 C   0  0  0  0  0  1  0  0  0  0  0  0
  182.7260  174.0720  136.8590 C   0  0  0  0  0  3  0  0  0  0  0  0
  181.9570  174.8850  137.5990 C   0  0  0  0  0  0  0  0  0  0  0  0
  184.8560  173.5560  137.8170 O   0  0  0  0  0  1  0  0  0  0  0  0
  183.7620  173.1420  137.3490 C   0  0  0  0  0  0  0  0  0  0  0  0
  183.5150  171.7770  137.3040 O   0  0  0  0  0  0  0  0  0  0  0  0
  181.8760  177.9560  136.0860 C   0  0  0  0  0  2  0  0  0  0  0  0
  182.6350  176.9980  135.3660 O   0  0  0  0  0  0  0  0  0  0  0  0
  183.9910  177.1310  135.2700 C   0  0  0  0  0  0  0  0  0  0  0  0
  185.1890  177.2460  135.1830 C   0  0  0  0  0  3  0  0  0  0  0  0
  3 39  1  1  0  0  0
  3 16  1  0  0  0  0
  6  4  1  6  0  0  0
  6  7  1  0  0  0  0
  6 11  1  0  0  0  0
  7 13  1  6  0  0  0
  8 15  1  0  0  0  0
 10  5  1  0  0  0  0
 10  3  1  0  0  0  0
 10  7  1  0  0  0  0
 11 17  1  0  0  0  0
 12  1  1  0  0  0  0
 13  6  1  0  0  0  0
 14  1  1  0  0  0  0
 14 15  1  0  0  0  0
 15  2  1  1  0  0  0
 16  9  1  6  0  0  0
 16 18  1  0  0  0  0
 17  8  1  0  0  0  0
 17 19  1  1  0  0  0
 18 12  1  0  0  0  0
 19 30  1  0  0  0  0
 19 20  1  0  0  0  0
 20 26  1  0  0  0  0
 21 25  1  0  0  0  0
 22 27  1  0  0  0  0
 23 24  2  0  0  0  0
 24 22  1  0  0  0  0
 25 22  2  0  0  0  0
 26 23  1  0  0  0  0
 26 21  2  0  0  0  0
 27 29  2  0  0  0  0
 27 28  1  0  0  0  0
 31 32  2  0  0  0  0
 32 30  1  0  0  0  0
 33 32  1  0  0  0  0
 34 35  2  0  0  0  0
 34 33  1  0  0  0  0
 36 38  1  0  0  0  0
 37 36  1  0  0  0  0
 37 38  1  0  0  0  0
 38 34  1  1  0  0  0
 40 43  1  1  0  0  0
 41 52  1  6  0  0  0
 41 42  1  0  0  0  0
 41 39  1  0  0  0  0
 44 40  1  0  0  0  0
 44 42  1  0  0  0  0
 45 41  1  0  0  0  0
 45 40  1  0  0  0  0
 45 48  1  1  0  0  0
 47 50  1  0  0  0  0
 47 48  2  0  0  0  0
 48 46  1  0  0  0  0
 50 49  1  0  0  0  0
 51 50  2  0  0  0  0
 53 52  1  0  0  0  0
 54 53  1  0  0  0  0
 55 54  3  0  0  0  0
M  END
>  <MODEL>
9

>  <REMARK>
 VINA RESULT:      -3.2      2.854      5.338
  Name = 
  16 active torsions:
  status: ('A' for Active; 'I' for Inactive)
    1  A    between atoms: C_6  and  O_8
    2  A    between atoms: C_6  and  C_46
    3  A    between atoms: C_7  and  O_8
    4  A    between atoms: C_10  and  C_32
    5  A    between atoms: C_11  and  C_29
    6  A    between atoms: C_12  and  O_14
    7  A    between atoms: O_14  and  C_46
    8  A    between atoms: C_27  and  C_31
    9  A    between atoms: C_27  and  C_55
   10  A    between atoms: C_28  and  C_44
   11  A    between atoms: C_28  and  N_49
   12  A    between atoms: C_31  and  C_44
   13  A    between atoms: C_33  and  N_49
   14  A    between atoms: C_33  and  C_52
   15  A    between atoms: C_38  and  C_53
   16  A    between atoms: C_45  and  N_49
                            x       y       z     vdW  Elec       q    Type
                         _______ _______ _______ _____ _____    ______ ____

>  <TORSDO>
F 16

$$$$
