=
 OpenBabel11052415533D

 34 39  0  0  1  0  0  0  0  0999 V2000
  188.7140  177.6860  143.6160 C   0  0  0  0  0  0  0  0  0  0  0  0
  190.9950  177.7460  142.4500 C   0  0  0  0  0  0  0  0  0  0  0  0
  191.4910  177.8070  144.8610 C   0  0  0  0  0  3  0  0  0  0  0  0
  186.5130  177.5500  145.4660 C   0  0  0  0  0  3  0  0  0  0  0  0
  187.3530  177.9700  143.2360 N   0  0  0  0  0  0  0  0  0  0  0  0
  187.9500  177.4400  145.8660 C   0  0  0  0  0  0  0  0  0  0  0  0
  189.4700  176.9700  147.6820 C   0  0  0  0  0  3  0  0  0  0  0  0
  188.1810  177.1350  147.2070 C   0  0  0  0  0  3  0  0  0  0  0  0
  186.3350  177.9610  144.0410 C   0  0  0  0  0  0  0  0  0  0  0  0
  190.3560  177.4570  145.4690 C   0  0  0  0  0  0  0  0  0  0  0  0
  189.0300  177.5420  144.9360 C   0  0  1  0  0  3  0  0  0  0  0  0
  190.5430  177.1450  146.8200 C   0  0  0  0  0  3  0  0  0  0  0  0
  191.7300  177.5930  141.2680 C   0  0  0  0  0  3  0  0  0  0  0  0
  191.1330  177.0920  140.1090 C   0  0  0  0  0  0  0  0  0  0  0  0
  189.7840  176.7520  140.1270 C   0  0  0  0  0  3  0  0  0  0  0  0
  191.6800  178.2270  143.5520 O   0  0  0  0  0  0  0  0  0  0  0  0
  189.0410  176.9270  141.2950 C   0  0  0  0  0  3  0  0  0  0  0  0
  189.6260  177.4270  142.4730 C   0  0  0  0  0  0  0  0  0  0  0  0
  182.6700  178.9650  143.9350 C   0  0  0  0  0  3  0  0  0  0  0  0
  184.7190  178.2150  142.1420 C   0  0  0  0  0  3  0  0  0  0  0  0
  181.5500  178.8590  140.3550 C   0  0  2  0  0  3  0  0  0  0  0  0
  181.1740  179.1500  141.8270 C   0  0  0  0  0  2  0  0  0  0  0  0
  182.4420  178.8890  142.5620 C   0  0  0  0  0  0  0  0  0  0  0  0
  182.9710  178.5160  140.3630 N   0  0  0  0  0  0  0  0  0  0  0  0
  183.4340  178.5270  141.6980 C   0  0  0  0  0  0  0  0  0  0  0  0
  183.6830  177.9310  139.2390 C   0  0  0  0  0  1  0  0  0  0  0  0
  184.9890  178.2830  143.5240 C   0  0  0  0  0  0  0  0  0  0  0  0
  183.9550  178.6600  144.4130 C   0  0  0  0  0  3  0  0  0  0  0  0
  181.3080  180.0690  139.5140 C   0  0  0  0  0  0  0  0  0  0  0  0
  180.1990  180.6580  139.5720 O   0  0  0  0  0  1  0  0  0  0  0  0
  182.3050  180.5550  138.6750 O   0  0  0  0  0  0  0  0  0  0  0  0
  191.8870  176.9250  138.9070 N   0  0  0  0  0  2  0  0  0  0  0  0
  193.2380  176.8040  138.9210 O   0  0  0  0  0  0  0  0  0  0  0  0
  193.5190  175.8030  137.9880 C   0  0  0  0  0  1  0  0  0  0  0  0
  2 18  1  0  0  0  0
  2 16  1  0  0  0  0
  3 10  2  0  0  0  0
  4  6  1  0  0  0  0
  5  1  2  0  0  0  0
  5  9  1  0  0  0  0
  6  8  2  0  0  0  0
  8  7  1  0  0  0  0
  9  4  2  0  0  0  0
 10 12  1  0  0  0  0
 11  1  1  6  0  0  0
 11 10  1  0  0  0  0
 11  6  1  0  0  0  0
 12  7  2  0  0  0  0
 13  2  2  0  0  0  0
 14 15  2  0  0  0  0
 14 13  1  0  0  0  0
 15 17  1  0  0  0  0
 16  3  1  0  0  0  0
 17 18  2  0  0  0  0
 18  1  1  0  0  0  0
 19 28  1  0  0  0  0
 20 27  1  0  0  0  0
 21 29  1  6  0  0  0
 21 24  1  0  0  0  0
 21 22  1  0  0  0  0
 22 23  1  0  0  0  0
 23 19  2  0  0  0  0
 24 25  1  0  0  0  0
 25 20  2  0  0  0  0
 25 23  1  0  0  0  0
 26 24  1  0  0  0  0
 27  9  1  0  0  0  0
 27 28  2  0  0  0  0
 29 30  1  0  0  0  0
 31 29  2  0  0  0  0
 32 33  1  0  0  0  0
 32 14  1  0  0  0  0
 34 33  1  0  0  0  0
M  END
>  <MODEL>
1

>  <REMARK>
 VINA RESULT:     -11.1      0.000      0.000
  Name = 
  4 active torsions:
  status: ('A' for Active; 'I' for Inactive)
    1  A    between atoms: N_3  and  O_13
    2  A    between atoms: N_3  and  C_25
    3  A    between atoms: C_7  and  C_11
    4  A    between atoms: C_18  and  C_30
                            x       y       z     vdW  Elec       q    Type
                         _______ _______ _______ _____ _____    ______ ____

>  <TORSDO>
F 4

$$$$
=
 OpenBabel11052415533D

 34 39  0  0  1  0  0  0  0  0999 V2000
  188.8360  177.7680  143.1100 C   0  0  0  0  0  0  0  0  0  0  0  0
  191.3120  177.7870  142.4540 C   0  0  0  0  0  0  0  0  0  0  0  0
  191.2870  177.8770  144.9150 C   0  0  0  0  0  3  0  0  0  0  0  0
  186.2910  177.6830  144.4530 C   0  0  0  0  0  2  0  0  0  0  0  0
  187.5900  178.0620  142.4470 N   0  0  0  0  0  0  0  0  0  0  0  0
  187.6090  177.5630  145.1500 C   0  0  0  0  0  0  0  0  0  0  0  0
  188.7030  177.1030  147.2530 C   0  0  0  0  0  3  0  0  0  0  0  0
  187.5470  177.2750  146.5120 C   0  0  0  0  0  3  0  0  0  0  0  0
  186.4250  178.0760  143.0180 C   0  0  0  0  0  0  0  0  0  0  0  0
  190.0450  177.5480  145.2720 C   0  0  0  0  0  0  0  0  0  0  0  0
  188.8630  177.6400  144.4690 C   0  0  0  0  0  0  0  0  0  0  0  0
  189.9360  177.2540  146.6360 C   0  0  0  0  0  3  0  0  0  0  0  0
  192.2790  177.6090  141.4570 C   0  0  0  0  0  3  0  0  0  0  0  0
  191.9350  177.0980  140.2040 C   0  0  0  0  0  0  0  0  0  0  0  0
  190.6080  176.7730  139.9390 C   0  0  0  0  0  3  0  0  0  0  0  0
  191.7550  178.2760  143.6700 O   0  0  0  0  0  0  0  0  0  0  0  0
  189.6370  176.9730  140.9210 C   0  0  0  0  0  3  0  0  0  0  0  0
  189.9660  177.4830  142.1900 C   0  0  0  0  0  0  0  0  0  0  0  0
  184.2100  179.0520  140.0870 C   0  0  0  0  0  3  0  0  0  0  0  0
  183.9470  178.3950  142.8210 C   0  0  0  0  0  3  0  0  0  0  0  0
  180.6660  179.1820  141.3140 C   0  0  2  0  0  3  0  0  0  0  0  0
  181.6350  179.3400  140.1190 C   0  0  0  0  0  2  0  0  0  0  0  0
  182.9650  179.0310  140.7120 C   0  0  0  0  0  0  0  0  0  0  0  0
  181.4900  178.7590  142.4460 N   0  0  0  0  0  0  0  0  0  0  0  0
  182.8400  178.7120  142.0330 C   0  0  0  0  0  0  0  0  0  0  0  0
  181.0390  178.7340  143.8270 C   0  0  0  0  0  1  0  0  0  0  0  0
  185.2230  178.4040  142.2230 C   0  0  0  0  0  0  0  0  0  0  0  0
  185.3430  178.7350  140.8520 C   0  0  0  0  0  3  0  0  0  0  0  0
  179.6320  178.1500  141.0050 C   0  0  0  0  0  0  0  0  0  0  0  0
  178.9410  177.6600  141.9350 O   0  0  0  0  0  1  0  0  0  0  0  0
  179.4200  177.7330  139.6960 O   0  0  0  0  0  0  0  0  0  0  0  0
  192.9240  176.9060  139.1910 N   0  0  0  0  0  2  0  0  0  0  0  0
  192.5890  176.6710  137.8980 O   0  0  0  0  0  0  0  0  0  0  0  0
  193.3000  175.5220  137.5450 C   0  0  0  0  0  1  0  0  0  0  0  0
  1 11  2  0  0  0  0
  2 16  1  0  0  0  0
  3 10  2  0  0  0  0
  4  6  1  0  0  0  0
  5  9  2  0  0  0  0
  5  1  1  0  0  0  0
  6  8  2  0  0  0  0
  8  7  1  0  0  0  0
  9  4  1  0  0  0  0
 10 12  1  0  0  0  0
 11  6  1  0  0  0  0
 11 10  1  0  0  0  0
 12  7  2  0  0  0  0
 13  2  2  0  0  0  0
 14 13  1  0  0  0  0
 15 14  2  0  0  0  0
 15 17  1  0  0  0  0
 16  3  1  0  0  0  0
 17 18  2  0  0  0  0
 18  2  1  0  0  0  0
 18  1  1  0  0  0  0
 19 23  2  0  0  0  0
 19 28  1  0  0  0  0
 21 29  1  6  0  0  0
 21 24  1  0  0  0  0
 22 23  1  0  0  0  0
 22 21  1  0  0  0  0
 23 25  1  0  0  0  0
 24 26  1  0  0  0  0
 25 24  1  0  0  0  0
 25 20  2  0  0  0  0
 27 20  1  0  0  0  0
 27  9  1  0  0  0  0
 28 27  2  0  0  0  0
 29 30  1  0  0  0  0
 31 29  2  0  0  0  0
 32 14  1  0  0  0  0
 33 32  1  0  0  0  0
 34 33  1  0  0  0  0
M  END
>  <MODEL>
2

>  <REMARK>
 VINA RESULT:     -10.4      1.298      1.979
  Name = 
  4 active torsions:
  status: ('A' for Active; 'I' for Inactive)
    1  A    between atoms: N_3  and  O_13
    2  A    between atoms: N_3  and  C_25
    3  A    between atoms: C_7  and  C_11
    4  A    between atoms: C_18  and  C_30
                            x       y       z     vdW  Elec       q    Type
                         _______ _______ _______ _____ _____    ______ ____

>  <TORSDO>
F 4

$$$$
=
 OpenBabel11052415533D

 34 39  0  0  1  0  0  0  0  0999 V2000
  188.6270  177.5370  142.8470 C   0  0  0  0  0  0  0  0  0  0  0  0
  190.6190  176.5150  144.0910 C   0  0  0  0  0  0  0  0  0  0  0  0
  191.2060  176.3910  141.7030 C   0  0  0  0  0  3  0  0  0  0  0  0
  186.7800  178.6340  140.9290 C   0  0  0  0  0  2  0  0  0  0  0  0
  187.2420  177.7970  143.1520 N   0  0  0  0  0  0  0  0  0  0  0  0
  188.1680  178.1850  140.5930 C   0  0  0  0  0  0  0  0  0  0  0  0
  189.8640  178.1090  138.8760 C   0  0  0  0  0  3  0  0  0  0  0  0
  188.5860  178.4440  139.2890 C   0  0  0  0  0  3  0  0  0  0  0  0
  186.3640  178.2510  142.3120 C   0  0  0  0  0  0  0  0  0  0  0  0
  190.3420  177.1940  141.0800 C   0  0  0  0  0  0  0  0  0  0  0  0
  189.0580  177.6130  141.5540 C   0  0  0  0  0  0  0  0  0  0  0  0
  190.7230  177.4770  139.7630 C   0  0  0  0  0  3  0  0  0  0  0  0
  191.2770  176.3010  145.3080 C   0  0  0  0  0  3  0  0  0  0  0  0
  190.8520  176.9350  146.4780 C   0  0  0  0  0  0  0  0  0  0  0  0
  189.7500  177.7840  146.4330 C   0  0  0  0  0  3  0  0  0  0  0  0
  191.1300  175.8610  142.9840 O   0  0  0  0  0  0  0  0  0  0  0  0
  189.0750  177.9800  145.2280 C   0  0  0  0  0  3  0  0  0  0  0  0
  189.4910  177.3520  144.0390 C   0  0  0  0  0  0  0  0  0  0  0  0
  183.3600  178.9090  144.5470 C   0  0  0  0  0  3  0  0  0  0  0  0
  183.9120  178.4210  141.8200 C   0  0  0  0  0  3  0  0  0  0  0  0
  180.2850  178.8280  142.3970 C   0  0  2  0  0  3  0  0  0  0  0  0
  180.8780  179.0280  143.8120 C   0  0  0  0  0  2  0  0  0  0  0  0
  182.3410  178.8610  143.5970 C   0  0  0  0  0  0  0  0  0  0  0  0
  181.4270  178.6210  141.5080 N   0  0  0  0  0  0  0  0  0  0  0  0
  182.6100  178.6260  142.2800 C   0  0  0  0  0  0  0  0  0  0  0  0
  181.3280  178.1470  140.1380 C   0  0  0  0  0  1  0  0  0  0  0  0
  184.9690  178.4630  142.7520 C   0  0  0  0  0  0  0  0  0  0  0  0
  184.6810  178.7090  144.1150 C   0  0  0  0  0  3  0  0  0  0  0  0
  179.5160  180.0400  141.9860 C   0  0  0  0  0  0  0  0  0  0  0  0
  179.4020  181.0070  142.7820 O   0  0  0  0  0  1  0  0  0  0  0  0
  178.9310  180.1110  140.7260 O   0  0  0  0  0  0  0  0  0  0  0  0
  191.5320  176.7250  147.7170 N   0  0  0  0  0  2  0  0  0  0  0  0
  192.3030  175.6310  147.9330 O   0  0  0  0  0  0  0  0  0  0  0  0
  193.2360  176.0320  148.8920 C   0  0  0  0  0  1  0  0  0  0  0  0
  1  5  1  0  0  0  0
  1 18  1  0  0  0  0
  2 13  1  0  0  0  0
  3 16  1  0  0  0  0
  4  9  1  0  0  0  0
  6  4  1  0  0  0  0
  6 11  1  0  0  0  0
  7  8  1  0  0  0  0
  7 12  2  0  0  0  0
  8  6  2  0  0  0  0
  9 27  1  0  0  0  0
  9  5  2  0  0  0  0
 10 11  1  0  0  0  0
 10  3  2  0  0  0  0
 11  1  2  0  0  0  0
 12 10  1  0  0  0  0
 13 14  2  0  0  0  0
 14 32  1  0  0  0  0
 15 14  1  0  0  0  0
 16  2  1  0  0  0  0
 17 15  2  0  0  0  0
 18  2  2  0  0  0  0
 18 17  1  0  0  0  0
 20 25  2  0  0  0  0
 20 27  1  0  0  0  0
 21 29  1  6  0  0  0
 21 22  1  0  0  0  0
 23 22  1  0  0  0  0
 23 19  2  0  0  0  0
 24 25  1  0  0  0  0
 24 21  1  0  0  0  0
 25 23  1  0  0  0  0
 26 24  1  0  0  0  0
 27 28  2  0  0  0  0
 28 19  1  0  0  0  0
 29 30  1  0  0  0  0
 31 29  2  0  0  0  0
 32 33  1  0  0  0  0
 33 34  1  0  0  0  0
M  END
>  <MODEL>
3

>  <REMARK>
 VINA RESULT:     -10.4      2.099      4.731
  Name = 
  4 active torsions:
  status: ('A' for Active; 'I' for Inactive)
    1  A    between atoms: N_3  and  O_13
    2  A    between atoms: N_3  and  C_25
    3  A    between atoms: C_7  and  C_11
    4  A    between atoms: C_18  and  C_30
                            x       y       z     vdW  Elec       q    Type
                         _______ _______ _______ _____ _____    ______ ____

>  <TORSDO>
F 4

$$$$
=
 OpenBabel11052415533D

 34 39  0  0  1  0  0  0  0  0999 V2000
  188.6160  177.6890  145.1600 C   0  0  0  0  0  0  0  0  0  0  0  0
  189.8050  177.7230  147.4290 C   0  0  0  0  0  0  0  0  0  0  0  0
  187.5530  178.6210  147.8580 C   0  0  0  0  0  3  0  0  0  0  0  0
  186.7570  177.8140  142.9660 C   0  0  0  0  0  2  0  0  0  0  0  0
  189.0280  177.6270  143.7800 N   0  0  0  0  0  0  0  0  0  0  0  0
  186.3840  178.0580  144.3940 C   0  0  0  0  0  0  0  0  0  0  0  0
  184.5560  178.4260  145.9280 C   0  0  0  0  0  3  0  0  0  0  0  0
  185.0230  178.2330  144.6400 C   0  0  0  0  0  3  0  0  0  0  0  0
  188.2330  177.7190  142.7590 C   0  0  0  0  0  0  0  0  0  0  0  0
  186.8330  178.3140  146.7770 C   0  0  0  0  0  0  0  0  0  0  0  0
  187.3280  178.0220  145.4660 C   0  0  0  0  0  0  0  0  0  0  0  0
  185.4590  178.4800  146.9800 C   0  0  0  0  0  3  0  0  0  0  0  0
  190.8980  177.3160  148.2050 C   0  0  0  0  0  3  0  0  0  0  0  0
  191.8200  176.3880  147.7180 C   0  0  0  0  0  0  0  0  0  0  0  0
  191.6570  175.8690  146.4370 C   0  0  0  0  0  3  0  0  0  0  0  0
  188.9320  178.6270  148.0090 O   0  0  0  0  0  0  0  0  0  0  0  0
  190.5840  176.2910  145.6500 C   0  0  0  0  0  3  0  0  0  0  0  0
  189.6430  177.2230  146.1260 C   0  0  0  0  0  0  0  0  0  0  0  0
  190.7160  177.3990  139.8970 C   0  0  0  0  0  3  0  0  0  0  0  0
  187.9420  177.7740  140.2700 C   0  0  0  0  0  3  0  0  0  0  0  0
  188.8130  177.7270  136.6790 C   0  0  2  0  0  3  0  0  0  0  0  0
  190.1820  177.5020  137.3640 C   0  0  0  0  0  2  0  0  0  0  0  0
  189.8480  177.5230  138.8140 C   0  0  0  0  0  0  0  0  0  0  0  0
  187.8310  177.8050  137.7600 N   0  0  0  0  0  0  0  0  0  0  0  0
  188.5070  177.7030  138.9960 C   0  0  0  0  0  0  0  0  0  0  0  0
  186.4600  178.2570  137.5950 C   0  0  0  0  0  1  0  0  0  0  0  0
  188.7880  177.6510  141.3900 C   0  0  0  0  0  0  0  0  0  0  0  0
  190.1760  177.4630  141.1920 C   0  0  0  0  0  3  0  0  0  0  0  0
  188.4990  176.5850  135.7690 C   0  0  0  0  0  0  0  0  0  0  0  0
  188.0720  176.8120  134.6080 O   0  0  0  0  0  0  0  0  0  0  0  0
  188.6830  175.2740  136.1930 O   0  0  0  0  0  1  0  0  0  0  0  0
  192.9280  175.9650  148.5150 N   0  0  0  0  0  2  0  0  0  0  0  0
  193.8740  176.8360  148.9460 O   0  0  0  0  0  0  0  0  0  0  0  0
  193.8310  176.7530  150.3390 C   0  0  0  0  0  1  0  0  0  0  0  0
  1 11  2  0  0  0  0
  1 18  1  0  0  0  0
  2 16  1  0  0  0  0
  2 13  1  0  0  0  0
  3 16  1  0  0  0  0
  4  6  1  0  0  0  0
  5  1  1  0  0  0  0
  6  8  2  0  0  0  0
  6 11  1  0  0  0  0
  7 12  2  0  0  0  0
  8  7  1  0  0  0  0
  9  4  1  0  0  0  0
  9  5  2  0  0  0  0
 10 12  1  0  0  0  0
 10  3  2  0  0  0  0
 11 10  1  0  0  0  0
 14 13  2  0  0  0  0
 14 32  1  0  0  0  0
 15 14  1  0  0  0  0
 17 18  1  0  0  0  0
 17 15  2  0  0  0  0
 18  2  2  0  0  0  0
 19 28  1  0  0  0  0
 20 27  1  0  0  0  0
 21 29  1  6  0  0  0
 21 22  1  0  0  0  0
 21 24  1  0  0  0  0
 22 23  1  0  0  0  0
 23 25  1  0  0  0  0
 23 19  2  0  0  0  0
 24 25  1  0  0  0  0
 25 20  2  0  0  0  0
 26 24  1  0  0  0  0
 27  9  1  0  0  0  0
 28 27  2  0  0  0  0
 29 31  1  0  0  0  0
 30 29  2  0  0  0  0
 32 33  1  0  0  0  0
 33 34  1  0  0  0  0
M  END
>  <MODEL>
4

>  <REMARK>
 VINA RESULT:      -9.9      3.626      6.573
  Name = 
  4 active torsions:
  status: ('A' for Active; 'I' for Inactive)
    1  A    between atoms: N_3  and  O_13
    2  A    between atoms: N_3  and  C_25
    3  A    between atoms: C_7  and  C_11
    4  A    between atoms: C_18  and  C_30
                            x       y       z     vdW  Elec       q    Type
                         _______ _______ _______ _____ _____    ______ ____

>  <TORSDO>
F 4

$$$$
=
 OpenBabel11052415533D

 34 39  0  0  1  0  0  0  0  0999 V2000
  184.5260  178.2500  141.7110 C   0  0  0  0  0  0  0  0  0  0  0  0
  184.1920  177.8310  139.2070 C   0  0  0  0  0  0  0  0  0  0  0  0
  181.9250  178.0890  140.1340 C   0  0  0  0  0  3  0  0  0  0  0  0
  184.2580  178.8400  144.5170 C   0  0  0  0  0  3  0  0  0  0  0  0
  185.5840  178.0260  142.6640 N   0  0  0  0  0  0  0  0  0  0  0  0
  183.1260  178.8900  143.5390 C   0  0  0  0  0  0  0  0  0  0  0  0
  180.8120  179.4990  143.2180 C   0  0  0  0  0  3  0  0  0  0  0  0
  181.9180  179.3710  144.0400 C   0  0  0  0  0  3  0  0  0  0  0  0
  185.4980  178.2380  143.9410 C   0  0  0  0  0  0  0  0  0  0  0  0
  182.0930  178.6170  141.3470 C   0  0  0  0  0  0  0  0  0  0  0  0
  183.2730  178.5620  142.1560 C   0  0  1  0  0  3  0  0  0  0  0  0
  180.9010  179.1100  141.8900 C   0  0  0  0  0  3  0  0  0  0  0  0
  184.7600  177.7460  137.9300 C   0  0  0  0  0  3  0  0  0  0  0  0
  186.0880  178.1160  137.7070 C   0  0  0  0  0  0  0  0  0  0  0  0
  186.8610  178.5650  138.7730 C   0  0  0  0  0  3  0  0  0  0  0  0
  182.8620  177.4650  139.3220 O   0  0  0  0  0  0  0  0  0  0  0  0
  186.3070  178.6270  140.0520 C   0  0  0  0  0  3  0  0  0  0  0  0
  184.9700  178.2610  140.2950 C   0  0  0  0  0  0  0  0  0  0  0  0
  187.5720  177.5010  147.0410 C   0  0  0  0  0  3  0  0  0  0  0  0
  187.9550  177.8690  144.2670 C   0  0  0  0  0  3  0  0  0  0  0  0
  191.1640  177.2430  145.9880 C   0  0  2  0  0  3  0  0  0  0  0  0
  190.1390  177.1670  147.1440 C   0  0  0  0  0  2  0  0  0  0  0  0
  188.8390  177.4230  146.4660 C   0  0  0  0  0  0  0  0  0  0  0  0
  190.3850  177.4790  144.7740 N   0  0  0  0  0  0  0  0  0  0  0  0
  189.0220  177.6000  145.1260 C   0  0  0  0  0  0  0  0  0  0  0  0
  190.9530  177.8660  143.4940 C   0  0  0  0  0  1  0  0  0  0  0  0
  186.6580  177.9540  144.8110 C   0  0  0  0  0  0  0  0  0  0  0  0
  186.4770  177.7670  146.2020 C   0  0  0  0  0  3  0  0  0  0  0  0
  191.9190  175.9590  145.8840 C   0  0  0  0  0  0  0  0  0  0  0  0
  192.4290  175.4490  146.9150 O   0  0  0  0  0  1  0  0  0  0  0  0
  192.0550  175.3180  144.6580 O   0  0  0  0  0  0  0  0  0  0  0  0
  186.6630  178.0400  136.4010 N   0  0  0  0  0  2  0  0  0  0  0  0
  187.9380  177.6210  136.2030 O   0  0  0  0  0  0  0  0  0  0  0  0
  187.8290  176.2610  135.9050 C   0  0  0  0  0  1  0  0  0  0  0  0
  1 11  1  0  0  0  0
  1  5  2  0  0  0  0
  2 16  1  0  0  0  0
  2 18  1  0  0  0  0
  3 10  2  0  0  0  0
  5  9  1  0  0  0  0
  6  8  2  0  0  0  0
  6  4  1  0  0  0  0
  7  8  1  0  0  0  0
  9  4  2  0  0  0  0
  9 27  1  0  0  0  0
 10 12  1  0  0  0  0
 11 10  1  6  0  0  0
 11  6  1  0  0  0  0
 12  7  2  0  0  0  0
 13  2  2  0  0  0  0
 14 13  1  0  0  0  0
 14 15  2  0  0  0  0
 15 17  1  0  0  0  0
 16  3  1  0  0  0  0
 17 18  2  0  0  0  0
 18  1  1  0  0  0  0
 20 27  2  0  0  0  0
 20 25  1  0  0  0  0
 21 29  1  6  0  0  0
 21 22  1  0  0  0  0
 23 19  1  0  0  0  0
 23 22  1  0  0  0  0
 24 25  1  0  0  0  0
 24 21  1  0  0  0  0
 25 23  2  0  0  0  0
 26 24  1  0  0  0  0
 27 28  1  0  0  0  0
 28 19  2  0  0  0  0
 29 30  1  0  0  0  0
 31 29  2  0  0  0  0
 32 14  1  0  0  0  0
 33 32  1  0  0  0  0
 34 33  1  0  0  0  0
M  END
>  <MODEL>
5

>  <REMARK>
 VINA RESULT:      -9.9      2.555      7.862
  Name = 
  4 active torsions:
  status: ('A' for Active; 'I' for Inactive)
    1  A    between atoms: N_3  and  O_13
    2  A    between atoms: N_3  and  C_25
    3  A    between atoms: C_7  and  C_11
    4  A    between atoms: C_18  and  C_30
                            x       y       z     vdW  Elec       q    Type
                         _______ _______ _______ _____ _____    ______ ____

>  <TORSDO>
F 4

$$$$
=
 OpenBabel11052415533D

 34 39  0  0  1  0  0  0  0  0999 V2000
  187.9280  177.6830  143.7640 C   0  0  0  0  0  0  0  0  0  0  0  0
  185.7490  177.8580  145.0990 C   0  0  0  0  0  0  0  0  0  0  0  0
  187.4740  177.2390  146.7430 C   0  0  0  0  0  3  0  0  0  0  0  0
  190.6480  177.4240  142.8560 C   0  0  0  0  0  2  0  0  0  0  0  0
  188.2780  177.5140  142.3760 N   0  0  0  0  0  0  0  0  0  0  0  0
  190.2420  177.4180  144.2960 C   0  0  0  0  0  0  0  0  0  0  0  0
  191.0340  177.4370  146.5770 C   0  0  0  0  0  3  0  0  0  0  0  0
  191.2880  177.4050  145.2170 C   0  0  0  0  0  3  0  0  0  0  0  0
  189.4830  177.3530  141.9230 C   0  0  0  0  0  0  0  0  0  0  0  0
  188.6420  177.4570  146.1360 C   0  0  0  0  0  0  0  0  0  0  0  0
  188.8830  177.5160  144.7260 C   0  0  0  0  0  0  0  0  0  0  0  0
  189.7220  177.4480  147.0250 C   0  0  0  0  0  3  0  0  0  0  0  0
  184.4100  178.2670  145.1400 C   0  0  0  0  0  3  0  0  0  0  0  0
  183.8580  179.0290  144.1090 C   0  0  0  0  0  0  0  0  0  0  0  0
  184.6480  179.3760  143.0170 C   0  0  0  0  0  3  0  0  0  0  0  0
  186.2100  177.1280  146.1790 O   0  0  0  0  0  0  0  0  0  0  0  0
  185.9750  178.9490  142.9580 C   0  0  0  0  0  3  0  0  0  0  0  0
  186.5490  178.1840  143.9900 C   0  0  0  0  0  0  0  0  0  0  0  0
  191.1810  176.5620  138.6150 C   0  0  0  0  0  3  0  0  0  0  0  0
  188.6730  177.4600  139.5540 C   0  0  0  0  0  3  0  0  0  0  0  0
  188.7190  177.2430  135.8650 C   0  0  2  0  0  3  0  0  0  0  0  0
  190.1380  176.7610  136.2510 C   0  0  0  0  0  2  0  0  0  0  0  0
  190.1370  176.8480  137.7370 C   0  0  0  0  0  0  0  0  0  0  0  0
  188.0280  177.5090  137.1260 N   0  0  0  0  0  0  0  0  0  0  0  0
  188.9250  177.2810  138.1930 C   0  0  0  0  0  0  0  0  0  0  0  0
  186.7630  178.2140  137.2380 C   0  0  0  0  0  1  0  0  0  0  0  0
  189.7040  177.1780  140.4720 C   0  0  0  0  0  0  0  0  0  0  0  0
  190.9560  176.7290  139.9910 C   0  0  0  0  0  3  0  0  0  0  0  0
  188.0080  176.1820  135.0930 C   0  0  0  0  0  0  0  0  0  0  0  0
  188.5660  175.0720  134.8960 O   0  0  0  0  0  1  0  0  0  0  0  0
  186.7290  176.4080  134.5970 O   0  0  0  0  0  0  0  0  0  0  0  0
  182.4950  179.4560  144.1580 N   0  0  0  0  0  2  0  0  0  0  0  0
  181.5050  178.7640  143.5410 O   0  0  0  0  0  0  0  0  0  0  0  0
  180.6940  179.7390  142.9560 C   0  0  0  0  0  1  0  0  0  0  0  0
  1 18  1  0  0  0  0
  1 11  2  0  0  0  0
  2 13  1  0  0  0  0
  2 16  1  0  0  0  0
  4  6  1  0  0  0  0
  5  1  1  0  0  0  0
  6 11  1  0  0  0  0
  6  8  2  0  0  0  0
  7 12  2  0  0  0  0
  8  7  1  0  0  0  0
  9  5  2  0  0  0  0
  9  4  1  0  0  0  0
 10  3  2  0  0  0  0
 10 12  1  0  0  0  0
 11 10  1  0  0  0  0
 14 32  1  0  0  0  0
 14 13  2  0  0  0  0
 15 14  1  0  0  0  0
 16  3  1  0  0  0  0
 17 15  2  0  0  0  0
 17 18  1  0  0  0  0
 18  2  2  0  0  0  0
 19 28  1  0  0  0  0
 20 27  1  0  0  0  0
 21 29  1  1  0  0  0
 21 22  1  0  0  0  0
 21 24  1  0  0  0  0
 22 23  1  0  0  0  0
 23 25  1  0  0  0  0
 23 19  2  0  0  0  0
 24 26  1  0  0  0  0
 24 25  1  0  0  0  0
 25 20  2  0  0  0  0
 27  9  1  0  0  0  0
 28 27  2  0  0  0  0
 30 29  1  0  0  0  0
 31 29  2  0  0  0  0
 33 32  1  0  0  0  0
 34 33  1  0  0  0  0
M  END
>  <MODEL>
6

>  <REMARK>
 VINA RESULT:      -9.4      2.944      7.129
  Name = 
  4 active torsions:
  status: ('A' for Active; 'I' for Inactive)
    1  A    between atoms: N_3  and  O_13
    2  A    between atoms: N_3  and  C_25
    3  A    between atoms: C_7  and  C_11
    4  A    between atoms: C_18  and  C_30
                            x       y       z     vdW  Elec       q    Type
                         _______ _______ _______ _____ _____    ______ ____

>  <TORSDO>
F 4

$$$$
=
 OpenBabel11052415533D

 34 39  0  0  1  0  0  0  0  0999 V2000
  182.9800  178.0550  140.9740 C   0  0  0  0  0  0  0  0  0  0  0  0
  182.1570  177.3350  138.6580 C   0  0  0  0  0  0  0  0  0  0  0  0
  180.1190  177.7870  139.9640 C   0  0  0  0  0  3  0  0  0  0  0  0
  183.2740  179.0030  143.6770 C   0  0  0  0  0  3  0  0  0  0  0  0
  184.2030  177.9150  141.7250 N   0  0  0  0  0  0  0  0  0  0  0  0
  181.9730  178.9680  142.9390 C   0  0  0  0  0  0  0  0  0  0  0  0
  179.6470  179.6130  142.9950 C   0  0  0  0  0  3  0  0  0  0  0  0
  180.8920  179.5510  143.5970 C   0  0  0  0  0  3  0  0  0  0  0  0
  184.3710  178.2890  142.9560 C   0  0  0  0  0  0  0  0  0  0  0  0
  180.5270  178.4580  141.0430 C   0  0  0  0  0  0  0  0  0  0  0  0
  181.8420  178.4640  141.6080 C   0  0  1  0  0  3  0  0  0  0  0  0
  179.4700  179.0560  141.7370 C   0  0  0  0  0  3  0  0  0  0  0  0
  182.4630  177.0690  137.3170 C   0  0  0  0  0  3  0  0  0  0  0  0
  183.7240  177.3610  136.7950 C   0  0  0  0  0  0  0  0  0  0  0  0
  184.6960  177.9140  137.6240 C   0  0  0  0  0  3  0  0  0  0  0  0
  180.8730  177.0330  139.0750 O   0  0  0  0  0  0  0  0  0  0  0  0
  184.4050  178.1560  138.9670 C   0  0  0  0  0  3  0  0  0  0  0  0
  183.1380  177.8710  139.5090 C   0  0  0  0  0  0  0  0  0  0  0  0
  187.0060  177.8770  145.6650 C   0  0  0  0  0  3  0  0  0  0  0  0
  186.8410  177.8780  142.8450 C   0  0  0  0  0  3  0  0  0  0  0  0
  190.3190  177.3610  143.9800 C   0  0  2  0  0  3  0  0  0  0  0  0
  189.5400  177.4680  145.3120 C   0  0  0  0  0  2  0  0  0  0  0  0
  188.1350  177.6820  144.8710 C   0  0  0  0  0  0  0  0  0  0  0  0
  189.3180  177.4690  142.9200 N   0  0  0  0  0  0  0  0  0  0  0  0
  188.0530  177.6820  143.5090 C   0  0  0  0  0  0  0  0  0  0  0  0
  189.6280  177.6710  141.5140 C   0  0  0  0  0  1  0  0  0  0  0  0
  185.6770  178.0770  143.6150 C   0  0  0  0  0  0  0  0  0  0  0  0
  185.7710  178.0740  145.0260 C   0  0  0  0  0  3  0  0  0  0  0  0
  191.0260  176.0480  143.9010 C   0  0  0  0  0  0  0  0  0  0  0  0
  192.0500  175.8470  144.6030 O   0  0  0  0  0  1  0  0  0  0  0  0
  190.5550  175.0430  143.0640 O   0  0  0  0  0  0  0  0  0  0  0  0
  184.0310  177.1010  135.4240 N   0  0  0  0  0  2  0  0  0  0  0  0
  185.3030  176.8940  135.0020 O   0  0  0  0  0  0  0  0  0  0  0  0
  185.3470  175.5480  134.6350 C   0  0  0  0  0  1  0  0  0  0  0  0
  1  5  2  0  0  0  0
  2 16  1  0  0  0  0
  2 18  1  0  0  0  0
  3 10  2  0  0  0  0
  5  9  1  0  0  0  0
  6  8  2  0  0  0  0
  6  4  1  0  0  0  0
  7  8  1  0  0  0  0
  9 27  1  0  0  0  0
  9  4  2  0  0  0  0
 10 11  1  0  0  0  0
 10 12  1  0  0  0  0
 11  1  1  6  0  0  0
 11  6  1  0  0  0  0
 12  7  2  0  0  0  0
 13  2  2  0  0  0  0
 14 13  1  0  0  0  0
 14 15  2  0  0  0  0
 15 17  1  0  0  0  0
 16  3  1  0  0  0  0
 17 18  2  0  0  0  0
 18  1  1  0  0  0  0
 20 25  2  0  0  0  0
 20 27  1  0  0  0  0
 21 29  1  1  0  0  0
 21 22  1  0  0  0  0
 23 22  1  0  0  0  0
 23 19  2  0  0  0  0
 24 25  1  0  0  0  0
 24 21  1  0  0  0  0
 25 23  1  0  0  0  0
 26 24  1  0  0  0  0
 27 28  2  0  0  0  0
 28 19  1  0  0  0  0
 29 30  1  0  0  0  0
 31 29  2  0  0  0  0
 32 14  1  0  0  0  0
 33 32  1  0  0  0  0
 34 33  1  0  0  0  0
M  END
>  <MODEL>
7

>  <REMARK>
 VINA RESULT:      -9.1      2.329      8.305
  Name = 
  4 active torsions:
  status: ('A' for Active; 'I' for Inactive)
    1  A    between atoms: N_3  and  O_13
    2  A    between atoms: N_3  and  C_25
    3  A    between atoms: C_7  and  C_11
    4  A    between atoms: C_18  and  C_30
                            x       y       z     vdW  Elec       q    Type
                         _______ _______ _______ _____ _____    ______ ____

>  <TORSDO>
F 4

$$$$
=
 OpenBabel11052415533D

 34 39  0  0  1  0  0  0  0  0999 V2000
  188.6330  177.4860  143.0760 C   0  0  0  0  0  0  0  0  0  0  0  0
  186.1740  177.6740  143.7690 C   0  0  0  0  0  0  0  0  0  0  0  0
  187.4070  177.2110  145.8500 C   0  0  0  0  0  3  0  0  0  0  0  0
  191.5000  177.2560  142.9410 C   0  0  0  0  0  2  0  0  0  0  0  0
  189.3430  177.2430  141.8450 N   0  0  0  0  0  0  0  0  0  0  0  0
  190.7240  177.3260  144.2190 C   0  0  0  0  0  0  0  0  0  0  0  0
  190.8790  177.5090  146.6220 C   0  0  0  0  0  3  0  0  0  0  0  0
  191.4870  177.4010  145.3830 C   0  0  0  0  0  3  0  0  0  0  0  0
  190.6270  177.0920  141.7400 C   0  0  0  0  0  0  0  0  0  0  0  0
  188.6910  177.4280  145.5610 C   0  0  0  0  0  0  0  0  0  0  0  0
  189.2980  177.4070  144.2650 C   0  0  0  0  0  0  0  0  0  0  0  0
  189.4950  177.5070  146.7040 C   0  0  0  0  0  3  0  0  0  0  0  0
  184.8670  178.0430  143.4270 C   0  0  0  0  0  3  0  0  0  0  0  0
  184.6000  178.7230  142.2370 C   0  0  0  0  0  0  0  0  0  0  0  0
  185.6480  179.0270  141.3730 C   0  0  0  0  0  3  0  0  0  0  0  0
  186.3410  177.0260  144.9810 O   0  0  0  0  0  0  0  0  0  0  0  0
  186.9480  178.6380  141.6970 C   0  0  0  0  0  3  0  0  0  0  0  0
  187.2360  177.9560  142.8940 C   0  0  0  0  0  0  0  0  0  0  0  0
  193.1790  176.8890  138.9300 C   0  0  0  0  0  3  0  0  0  0  0  0
  190.4510  176.3040  139.3680 C   0  0  0  0  0  3  0  0  0  0  0  0
  191.4420  175.5330  135.8920 C   0  0  2  0  0  3  0  0  0  0  0  0
  192.7630  176.0400  136.5170 C   0  0  0  0  0  2  0  0  0  0  0  0
  192.3780  176.3600  137.9180 C   0  0  0  0  0  0  0  0  0  0  0  0
  190.4530  175.5560  136.9690 N   0  0  0  0  0  0  0  0  0  0  0  0
  191.0600  176.0780  138.1320 C   0  0  0  0  0  0  0  0  0  0  0  0
  189.0210  175.4000  136.7740 C   0  0  0  0  0  1  0  0  0  0  0  0
  191.2290  176.8350  140.4150 C   0  0  0  0  0  0  0  0  0  0  0  0
  192.5950  177.1240  140.1850 C   0  0  0  0  0  3  0  0  0  0  0  0
  191.6180  174.1440  135.3730 C   0  0  0  0  0  0  0  0  0  0  0  0
  192.6650  173.5030  135.6480 O   0  0  0  0  0  1  0  0  0  0  0  0
  190.6290  173.5500  134.5970 O   0  0  0  0  0  0  0  0  0  0  0  0
  183.2680  179.1090  141.8940 N   0  0  0  0  0  2  0  0  0  0  0  0
  182.7450  178.8650  140.6670 O   0  0  0  0  0  0  0  0  0  0  0  0
  181.4400  178.4330  140.9110 C   0  0  0  0  0  1  0  0  0  0  0  0
  1 11  2  0  0  0  0
  2 16  1  0  0  0  0
  4  6  1  0  0  0  0
  5  1  1  0  0  0  0
  6 11  1  0  0  0  0
  6  8  2  0  0  0  0
  7 12  2  0  0  0  0
  8  7  1  0  0  0  0
  9  5  2  0  0  0  0
  9  4  1  0  0  0  0
 10  3  2  0  0  0  0
 10 12  1  0  0  0  0
 11 10  1  0  0  0  0
 13  2  1  0  0  0  0
 14 13  2  0  0  0  0
 15 17  2  0  0  0  0
 15 14  1  0  0  0  0
 16  3  1  0  0  0  0
 17 18  1  0  0  0  0
 18  1  1  0  0  0  0
 18  2  2  0  0  0  0
 19 28  1  0  0  0  0
 20 27  1  0  0  0  0
 21 29  1  1  0  0  0
 21 22  1  0  0  0  0
 21 24  1  0  0  0  0
 22 23  1  0  0  0  0
 23 25  1  0  0  0  0
 23 19  2  0  0  0  0
 24 25  1  0  0  0  0
 25 20  2  0  0  0  0
 26 24  1  0  0  0  0
 27  9  1  0  0  0  0
 28 27  2  0  0  0  0
 29 30  1  0  0  0  0
 31 29  2  0  0  0  0
 32 14  1  0  0  0  0
 33 34  1  0  0  0  0
 33 32  1  0  0  0  0
M  END
>  <MODEL>
8

>  <REMARK>
 VINA RESULT:      -9.0      2.314      7.940
  Name = 
  4 active torsions:
  status: ('A' for Active; 'I' for Inactive)
    1  A    between atoms: N_3  and  O_13
    2  A    between atoms: N_3  and  C_25
    3  A    between atoms: C_7  and  C_11
    4  A    between atoms: C_18  and  C_30
                            x       y       z     vdW  Elec       q    Type
                         _______ _______ _______ _____ _____    ______ ____

>  <TORSDO>
F 4

$$$$
=
 OpenBabel11052415533D

 34 39  0  0  1  0  0  0  0  0999 V2000
  190.1920  176.7030  138.9900 C   0  0  0  0  0  0  0  0  0  0  0  0
  191.5080  175.7780  136.9960 C   0  0  0  0  0  0  0  0  0  0  0  0
  189.2510  176.2420  136.1310 C   0  0  0  0  0  3  0  0  0  0  0  0
  188.2560  177.8610  140.7790 C   0  0  0  0  0  3  0  0  0  0  0  0
  190.3320  176.6700  140.4240 N   0  0  0  0  0  0  0  0  0  0  0  0
  188.0520  177.7180  139.3030 C   0  0  0  0  0  0  0  0  0  0  0  0
  186.6190  178.2680  137.4390 C   0  0  0  0  0  3  0  0  0  0  0  0
  186.8930  178.3030  138.7960 C   0  0  0  0  0  3  0  0  0  0  0  0
  189.4690  177.1420  141.2710 C   0  0  0  0  0  0  0  0  0  0  0  0
  188.6640  177.0080  137.0520 C   0  0  0  0  0  0  0  0  0  0  0  0
  189.0130  177.1110  138.4370 C   0  0  1  0  0  3  0  0  0  0  0  0
  187.4920  177.6120  136.5840 C   0  0  0  0  0  3  0  0  0  0  0  0
  192.7500  175.4260  136.4520 C   0  0  0  0  0  3  0  0  0  0  0  0
  193.9400  175.7310  137.1160 C   0  0  0  0  0  0  0  0  0  0  0  0
  193.8890  176.3840  138.3440 C   0  0  0  0  0  3  0  0  0  0  0  0
  190.3880  175.4550  136.2520 O   0  0  0  0  0  0  0  0  0  0  0  0
  192.6540  176.7130  138.9030 C   0  0  0  0  0  3  0  0  0  0  0  0
  191.4450  176.4170  138.2470 C   0  0  0  0  0  0  0  0  0  0  0  0
  191.2870  176.6050  144.5660 C   0  0  0  0  0  3  0  0  0  0  0  0
  188.6930  177.2450  143.6510 C   0  0  0  0  0  3  0  0  0  0  0  0
  188.7990  177.0480  147.3400 C   0  0  2  0  0  3  0  0  0  0  0  0
  190.2640  176.7520  146.9420 C   0  0  0  0  0  2  0  0  0  0  0  0
  190.2370  176.8220  145.4560 C   0  0  0  0  0  0  0  0  0  0  0  0
  188.0870  177.3060  146.0890 N   0  0  0  0  0  0  0  0  0  0  0  0
  188.9840  177.1330  145.0120 C   0  0  0  0  0  0  0  0  0  0  0  0
  186.6410  177.3800  145.9650 C   0  0  0  0  0  1  0  0  0  0  0  0
  189.7310  177.0340  142.7210 C   0  0  0  0  0  0  0  0  0  0  0  0
  191.0270  176.7140  143.1910 C   0  0  0  0  0  3  0  0  0  0  0  0
  188.7390  178.2430  148.2320 C   0  0  0  0  0  0  0  0  0  0  0  0
  189.7770  178.6300  148.8280 O   0  0  0  0  0  1  0  0  0  0  0  0
  187.5470  178.9380  148.4010 O   0  0  0  0  0  0  0  0  0  0  0  0
  195.2060  175.3820  136.5540 N   0  0  0  0  0  2  0  0  0  0  0  0
  196.0410  176.3160  136.0360 O   0  0  0  0  0  0  0  0  0  0  0  0
  197.2190  175.6250  135.7450 C   0  0  0  0  0  1  0  0  0  0  0  0
  1  5  2  0  0  0  0
  2 18  1  0  0  0  0
  3 16  1  0  0  0  0
  3 10  2  0  0  0  0
  4  9  2  0  0  0  0
  5  9  1  0  0  0  0
  6  4  1  0  0  0  0
  7  8  1  0  0  0  0
  8  6  2  0  0  0  0
  9 27  1  0  0  0  0
 11 10  1  6  0  0  0
 11  1  1  0  0  0  0
 11  6  1  0  0  0  0
 12 10  1  0  0  0  0
 12  7  2  0  0  0  0
 13  2  2  0  0  0  0
 13 14  1  0  0  0  0
 14 15  2  0  0  0  0
 15 17  1  0  0  0  0
 16  2  1  0  0  0  0
 18 17  2  0  0  0  0
 18  1  1  0  0  0  0
 19 23  1  0  0  0  0
 20 25  1  0  0  0  0
 21 29  1  1  0  0  0
 22 21  1  0  0  0  0
 23 22  1  0  0  0  0
 24 21  1  0  0  0  0
 25 23  2  0  0  0  0
 25 24  1  0  0  0  0
 26 24  1  0  0  0  0
 27 28  1  0  0  0  0
 27 20  2  0  0  0  0
 28 19  2  0  0  0  0
 29 31  2  0  0  0  0
 29 30  1  0  0  0  0
 32 14  1  0  0  0  0
 33 32  1  0  0  0  0
 34 33  1  0  0  0  0
M  END
>  <MODEL>
9

>  <REMARK>
 VINA RESULT:      -9.0      4.207      7.598
  Name = 
  4 active torsions:
  status: ('A' for Active; 'I' for Inactive)
    1  A    between atoms: N_3  and  O_13
    2  A    between atoms: N_3  and  C_25
    3  A    between atoms: C_7  and  C_11
    4  A    between atoms: C_18  and  C_30
                            x       y       z     vdW  Elec       q    Type
                         _______ _______ _______ _____ _____    ______ ____

>  <TORSDO>
F 4

$$$$
