=
 OpenBabel11052413373D

 28 31  0  0  1  0  0  0  0  0999 V2000
  190.1640  177.5020  141.7230 C   0  0  2  0  0  0  0  0  0  0  0  0
  191.1640  178.0050  143.8640 C   0  0  2  0  0  3  0  0  0  0  0  0
  190.5670  178.6550  142.6080 C   0  0  2  0  0  3  0  0  0  0  0  0
  192.4840  178.4300  144.0150 O   0  0  0  0  0  1  0  0  0  0  0  0
  191.1320  176.5340  143.6080 C   0  0  0  0  0  0  0  0  0  0  0  0
  188.3340  177.4460  143.2680 C   0  0  1  0  0  3  0  0  0  0  0  0
  188.8270  176.0260  142.9930 C   0  0  0  0  0  2  0  0  0  0  0  0
  191.5070  175.6380  144.5220 C   0  0  0  0  0  2  0  0  0  0  0  0
  189.0700  178.3650  142.2930 C   0  0  2  0  0  3  0  0  0  0  0  0
  190.2440  176.1880  142.4620 C   0  0  1  0  0  3  0  0  0  0  0  0
  190.0590  176.7200  139.4470 N   0  0  0  0  0  0  0  0  0  0  0  0
  190.4320  177.6380  140.2620 C   0  0  0  0  0  3  0  0  0  0  0  0
  190.3080  176.8430  138.0340 C   0  0  0  0  0  2  0  0  0  0  0  0
  189.5590  177.9780  137.4810 C   0  0  0  0  0  0  0  0  0  0  0  0
  188.9420  178.9100  137.0280 C   0  0  0  0  0  3  0  0  0  0  0  0
  186.5450  177.5460  142.9790 S   0  0  0  0  0  0  0  0  0  0  0  0
  186.1990  178.1460  144.6700 C   0  0  2  0  0  3  0  0  0  0  0  0
  186.4480  177.0860  145.7490 C   0  0  0  0  0  2  0  0  0  0  0  0
  188.1410  178.5650  148.8040 C   0  0  0  0  0  3  0  0  0  0  0  0
  187.5030  177.4560  146.7440 C   0  0  0  0  0  0  0  0  0  0  0  0
  189.8120  177.4130  147.4810 C   0  0  0  0  0  0  0  0  0  0  0  0
  187.1610  178.2130  147.8700 C   0  0  0  0  0  3  0  0  0  0  0  0
  188.8310  177.0610  146.5480 C   0  0  0  0  0  3  0  0  0  0  0  0
  191.0960  177.0270  147.2920 F   0  0  0  0  0  0  0  0  0  0  0  0
  189.4670  178.1640  148.6090 C   0  0  0  0  0  3  0  0  0  0  0  0
  184.8630  178.8850  144.8040 C   0  0  0  0  0  2  0  0  0  0  0  0
  182.5160  178.9710  144.0200 C   0  0  0  0  0  1  0  0  0  0  0  0
  183.9410  178.6610  143.6160 C   0  0  0  0  0  2  0  0  0  0  0  0
  1 12  1  6  0  0  0
  1  9  1  0  0  0  0
  1 10  1  0  0  0  0
  1  3  1  0  0  0  0
  2  4  1  6  0  0  0
  3  2  1  0  0  0  0
  5  2  1  0  0  0  0
  5  8  2  0  0  0  0
  7  6  1  0  0  0  0
  9  3  1  0  0  0  0
  9  6  1  0  0  0  0
 10  7  1  0  0  0  0
 10  5  1  0  0  0  0
 11 12  2  0  0  0  0
 13 11  1  0  0  0  0
 14 13  1  0  0  0  0
 15 14  3  0  0  0  0
 16  6  1  0  0  0  0
 16 17  1  0  0  0  0
 17 26  1  0  0  0  0
 17 18  1  0  0  0  0
 18 20  1  0  0  0  0
 20 22  1  0  0  0  0
 21 25  2  0  0  0  0
 22 19  2  0  0  0  0
 23 20  2  0  0  0  0
 23 21  1  0  0  0  0
 24 21  1  0  0  0  0
 25 19  1  0  0  0  0
 28 27  1  0  0  0  0
 28 26  1  0  0  0  0
M  END
>  <MODEL>
1

>  <REMARK>
 VINA RESULT:      -7.5      0.000      0.000
  Name = 
  9 active torsions:
  status: ('A' for Active; 'I' for Inactive)
    1  A    between atoms: C_1  and  C_11
    2  A    between atoms: C_6  and  N_8
    3  A    between atoms: C_6  and  C_22
    4  A    between atoms: C_9  and  C_18
    5  A    between atoms: C_10  and  S_14
    6  A    between atoms: C_10  and  C_18
    7  A    between atoms: C_10  and  C_25
    8  A    between atoms: S_14  and  C_17
    9  A    between atoms: C_20  and  C_25
                            x       y       z     vdW  Elec       q    Type
                         _______ _______ _______ _____ _____    ______ ____

>  <TORSDO>
F 9

$$$$
=
 OpenBabel11052413373D

 28 31  0  0  1  0  0  0  0  0999 V2000
  190.5220  177.4740  142.2540 C   0  0  2  0  0  0  0  0  0  0  0  0
  191.2350  178.4460  144.3480 C   0  0  2  0  0  3  0  0  0  0  0  0
  190.6970  178.7990  142.9550 C   0  0  2  0  0  3  0  0  0  0  0  0
  192.4750  179.0600  144.5280 O   0  0  0  0  0  1  0  0  0  0  0  0
  191.4000  176.9610  144.3510 C   0  0  0  0  0  0  0  0  0  0  0  0
  188.5640  177.4290  143.6340 C   0  0  1  0  0  3  0  0  0  0  0  0
  189.2440  176.0610  143.6510 C   0  0  0  0  0  2  0  0  0  0  0  0
  191.7820  176.2840  145.4340 C   0  0  0  0  0  2  0  0  0  0  0  0
  189.2830  178.2660  142.5760 C   0  0  2  0  0  3  0  0  0  0  0  0
  190.6790  176.3200  143.2160 C   0  0  1  0  0  3  0  0  0  0  0  0
  190.3710  176.5470  140.0360 N   0  0  0  0  0  0  0  0  0  0  0  0
  190.9190  177.4040  140.8180 C   0  0  0  0  0  3  0  0  0  0  0  0
  190.7430  176.4750  138.6470 C   0  0  0  0  0  2  0  0  0  0  0  0
  189.9520  177.4250  137.8560 C   0  0  0  0  0  0  0  0  0  0  0  0
  189.3030  178.2070  137.2070 C   0  0  0  0  0  3  0  0  0  0  0  0
  186.8140  177.2440  143.1890 S   0  0  0  0  0  0  0  0  0  0  0  0
  186.2330  177.6950  144.8620 C   0  0  2  0  0  3  0  0  0  0  0  0
  185.3750  178.9660  144.8800 C   0  0  0  0  0  2  0  0  0  0  0  0
  183.0630  178.7530  141.8810 C   0  0  0  0  0  3  0  0  0  0  0  0
  184.1290  178.8800  144.0550 C   0  0  0  0  0  0  0  0  0  0  0  0
  181.7120  178.7870  143.8920 C   0  0  0  0  0  0  0  0  0  0  0  0
  184.2220  178.8300  142.6590 C   0  0  0  0  0  3  0  0  0  0  0  0
  182.8720  178.8640  144.6700 C   0  0  0  0  0  3  0  0  0  0  0  0
  180.4970  178.7670  144.4880 F   0  0  0  0  0  0  0  0  0  0  0  0
  181.8070  178.7310  142.4980 C   0  0  0  0  0  3  0  0  0  0  0  0
  187.3300  177.6560  145.9310 C   0  0  0  0  0  2  0  0  0  0  0  0
  187.9460  178.0300  148.3000 C   0  0  0  0  0  1  0  0  0  0  0  0
  186.9100  178.3160  147.2350 C   0  0  0  0  0  2  0  0  0  0  0  0
  1 12  1  6  0  0  0
  1  9  1  0  0  0  0
  1  3  1  0  0  0  0
  1 10  1  0  0  0  0
  2  5  1  0  0  0  0
  2  4  1  6  0  0  0
  3  2  1  0  0  0  0
  5  8  2  0  0  0  0
  6  7  1  0  0  0  0
  9  3  1  0  0  0  0
  9  6  1  0  0  0  0
 10  7  1  0  0  0  0
 10  5  1  0  0  0  0
 11 12  2  0  0  0  0
 13 11  1  0  0  0  0
 14 13  1  0  0  0  0
 15 14  3  0  0  0  0
 16  6  1  0  0  0  0
 16 17  1  0  0  0  0
 17 18  1  0  0  0  0
 17 26  1  0  0  0  0
 19 25  2  0  0  0  0
 19 22  1  0  0  0  0
 20 23  1  0  0  0  0
 20 18  1  0  0  0  0
 21 24  1  0  0  0  0
 21 23  2  0  0  0  0
 22 20  2  0  0  0  0
 25 21  1  0  0  0  0
 26 28  1  0  0  0  0
 28 27  1  0  0  0  0
M  END
>  <MODEL>
2

>  <REMARK>
 VINA RESULT:      -7.1      2.277      4.499
  Name = 
  9 active torsions:
  status: ('A' for Active; 'I' for Inactive)
    1  A    between atoms: C_1  and  C_11
    2  A    between atoms: C_6  and  N_8
    3  A    between atoms: C_6  and  C_22
    4  A    between atoms: C_9  and  C_18
    5  A    between atoms: C_10  and  S_14
    6  A    between atoms: C_10  and  C_18
    7  A    between atoms: C_10  and  C_25
    8  A    between atoms: S_14  and  C_17
    9  A    between atoms: C_20  and  C_25
                            x       y       z     vdW  Elec       q    Type
                         _______ _______ _______ _____ _____    ______ ____

>  <TORSDO>
F 9

$$$$
=
 OpenBabel11052413373D

 28 31  0  0  1  0  0  0  0  0999 V2000
  182.9710  177.5240  139.3930 C   0  0  2  0  0  0  0  0  0  0  0  0
  181.4780  179.1540  140.3700 C   0  0  2  0  0  3  0  0  0  0  0  0
  182.0870  177.7620  140.5920 C   0  0  2  0  0  3  0  0  0  0  0  0
  180.0880  179.0440  140.3310 O   0  0  0  0  0  1  0  0  0  0  0  0
  181.9890  179.6080  139.0410 C   0  0  0  0  0  0  0  0  0  0  0  0
  184.4080  178.9850  140.6340 C   0  0  1  0  0  3  0  0  0  0  0  0
  184.4130  179.3790  139.1580 C   0  0  0  0  0  2  0  0  0  0  0  0
  181.7250  180.8170  138.5470 C   0  0  0  0  0  2  0  0  0  0  0  0
  183.6340  177.6710  140.7360 C   0  0  2  0  0  3  0  0  0  0  0  0
  183.1400  178.7830  138.5770 C   0  0  1  0  0  3  0  0  0  0  0  0
  182.8950  176.0070  137.5240 N   0  0  0  0  0  0  0  0  0  0  0  0
  182.9580  176.1570  138.7970 C   0  0  0  0  0  3  0  0  0  0  0  0
  182.8880  174.6910  136.9370 C   0  0  0  0  0  2  0  0  0  0  0  0
  184.0520  173.9230  137.3940 C   0  0  0  0  0  0  0  0  0  0  0  0
  185.0080  173.2920  137.7680 C   0  0  0  0  0  3  0  0  0  0  0  0
  186.1100  178.7470  141.2170 S   0  0  0  0  0  0  0  0  0  0  0  0
  185.6310  178.8410  142.9790 C   0  0  2  0  0  3  0  0  0  0  0  0
  185.8520  177.5260  143.7350 C   0  0  0  0  0  2  0  0  0  0  0  0
  189.3180  177.4480  145.2730 C   0  0  0  0  0  3  0  0  0  0  0  0
  186.9550  177.5750  144.7450 C   0  0  0  0  0  0  0  0  0  0  0  0
  187.7020  177.8130  147.0400 C   0  0  0  0  0  0  0  0  0  0  0  0
  188.2820  177.4070  144.3340 C   0  0  0  0  0  3  0  0  0  0  0  0
  186.6660  177.7720  146.1010 C   0  0  0  0  0  3  0  0  0  0  0  0
  187.4200  178.0090  148.3500 F   0  0  0  0  0  0  0  0  0  0  0  0
  189.0270  177.6520  146.6260 C   0  0  0  0  0  3  0  0  0  0  0  0
  184.2610  179.4860  143.2150 C   0  0  0  0  0  2  0  0  0  0  0  0
  182.0270  178.8590  144.0790 C   0  0  0  0  0  1  0  0  0  0  0  0
  183.5090  178.8680  144.3820 C   0  0  0  0  0  2  0  0  0  0  0  0
  1 12  1  6  0  0  0
  1  3  1  0  0  0  0
  1  9  1  0  0  0  0
  2  4  1  6  0  0  0
  2  3  1  0  0  0  0
  3  9  1  0  0  0  0
  5  2  1  0  0  0  0
  6  9  1  0  0  0  0
  6 16  1  0  0  0  0
  7  6  1  0  0  0  0
  8  5  2  0  0  0  0
 10  5  1  0  0  0  0
 10  7  1  0  0  0  0
 10  1  1  0  0  0  0
 11 12  2  0  0  0  0
 13 14  1  0  0  0  0
 13 11  1  0  0  0  0
 14 15  3  0  0  0  0
 16 17  1  0  0  0  0
 17 26  1  0  0  0  0
 17 18  1  0  0  0  0
 18 20  1  0  0  0  0
 19 25  1  0  0  0  0
 20 23  2  0  0  0  0
 21 24  1  0  0  0  0
 22 20  1  0  0  0  0
 22 19  2  0  0  0  0
 23 21  1  0  0  0  0
 25 21  2  0  0  0  0
 26 28  1  0  0  0  0
 27 28  1  0  0  0  0
M  END
>  <MODEL>
3

>  <REMARK>
 VINA RESULT:      -7.0      4.631      6.569
  Name = 
  9 active torsions:
  status: ('A' for Active; 'I' for Inactive)
    1  A    between atoms: C_1  and  C_11
    2  A    between atoms: C_6  and  N_8
    3  A    between atoms: C_6  and  C_22
    4  A    between atoms: C_9  and  C_18
    5  A    between atoms: C_10  and  S_14
    6  A    between atoms: C_10  and  C_18
    7  A    between atoms: C_10  and  C_25
    8  A    between atoms: S_14  and  C_17
    9  A    between atoms: C_20  and  C_25
                            x       y       z     vdW  Elec       q    Type
                         _______ _______ _______ _____ _____    ______ ____

>  <TORSDO>
F 9

$$$$
=
 OpenBabel11052413373D

 28 31  0  0  1  0  0  0  0  0999 V2000
  189.9790  176.8250  137.4640 C   0  0  2  0  0  0  0  0  0  0  0  0
  187.6070  176.4550  137.1910 C   0  0  2  0  0  3  0  0  0  0  0  0
  188.9210  175.7530  137.5580 C   0  0  2  0  0  3  0  0  0  0  0  0
  187.0500  175.8280  136.0760 O   0  0  0  0  0  1  0  0  0  0  0  0
  187.9840  177.8590  136.8470 C   0  0  0  0  0  0  0  0  0  0  0  0
  189.0320  177.4190  139.5830 C   0  0  1  0  0  3  0  0  0  0  0  0
  189.2730  178.6760  138.7490 C   0  0  0  0  0  2  0  0  0  0  0  0
  187.0800  178.7920  136.5470 C   0  0  0  0  0  2  0  0  0  0  0  0
  189.6740  176.2570  138.8240 C   0  0  2  0  0  3  0  0  0  0  0  0
  189.3610  178.1940  137.3090 C   0  0  1  0  0  3  0  0  0  0  0  0
  192.3610  176.4780  137.5540 N   0  0  0  0  0  0  0  0  0  0  0  0
  191.2850  176.4420  136.8540 C   0  0  0  0  0  3  0  0  0  0  0  0
  193.6270  176.1060  136.9770 C   0  0  0  0  0  2  0  0  0  0  0  0
  194.1130  174.8570  137.5770 C   0  0  0  0  0  0  0  0  0  0  0  0
  194.5130  173.8320  138.0700 C   0  0  0  0  0  3  0  0  0  0  0  0
  189.8100  177.5980  141.2120 S   0  0  0  0  0  0  0  0  0  0  0  0
  188.2140  177.8590  142.0630 C   0  0  2  0  0  3  0  0  0  0  0  0
  187.8560  176.7270  143.0320 C   0  0  0  0  0  2  0  0  0  0  0  0
  188.8490  177.6130  146.5830 C   0  0  0  0  0  3  0  0  0  0  0  0
  187.7650  177.1470  144.4650 C   0  0  0  0  0  0  0  0  0  0  0  0
  186.4470  177.8430  146.3780 C   0  0  0  0  0  0  0  0  0  0  0  0
  188.9260  177.2230  145.2430 C   0  0  0  0  0  3  0  0  0  0  0  0
  186.5240  177.4530  145.0370 C   0  0  0  0  0  3  0  0  0  0  0  0
  185.2460  178.1420  146.9280 F   0  0  0  0  0  0  0  0  0  0  0  0
  187.6090  177.9230  147.1510 C   0  0  0  0  0  3  0  0  0  0  0  0
  187.0750  178.2780  141.1280 C   0  0  0  0  0  2  0  0  0  0  0  0
  184.7110  178.3690  141.8590 C   0  0  0  0  0  1  0  0  0  0  0  0
  186.0210  179.1250  141.8220 C   0  0  0  0  0  2  0  0  0  0  0  0
  1 12  1  6  0  0  0
  1  3  1  0  0  0  0
  1  9  1  0  0  0  0
  2  4  1  6  0  0  0
  2  3  1  0  0  0  0
  3  9  1  0  0  0  0
  5  2  1  0  0  0  0
  5 10  1  0  0  0  0
  6 16  1  0  0  0  0
  7  6  1  0  0  0  0
  8  5  2  0  0  0  0
  9  6  1  0  0  0  0
 10  1  1  0  0  0  0
 10  7  1  0  0  0  0
 12 11  2  0  0  0  0
 13 11  1  0  0  0  0
 13 14  1  0  0  0  0
 14 15  3  0  0  0  0
 16 17  1  0  0  0  0
 17 18  1  0  0  0  0
 18 20  1  0  0  0  0
 19 25  1  0  0  0  0
 20 23  2  0  0  0  0
 20 22  1  0  0  0  0
 21 24  1  0  0  0  0
 21 25  2  0  0  0  0
 22 19  2  0  0  0  0
 23 21  1  0  0  0  0
 26 28  1  0  0  0  0
 26 17  1  0  0  0  0
 28 27  1  0  0  0  0
M  END
>  <MODEL>
4

>  <REMARK>
 VINA RESULT:      -7.0      3.075      5.110
  Name = 
  9 active torsions:
  status: ('A' for Active; 'I' for Inactive)
    1  A    between atoms: C_1  and  C_11
    2  A    between atoms: C_6  and  N_8
    3  A    between atoms: C_6  and  C_22
    4  A    between atoms: C_9  and  C_18
    5  A    between atoms: C_10  and  S_14
    6  A    between atoms: C_10  and  C_18
    7  A    between atoms: C_10  and  C_25
    8  A    between atoms: S_14  and  C_17
    9  A    between atoms: C_20  and  C_25
                            x       y       z     vdW  Elec       q    Type
                         _______ _______ _______ _____ _____    ______ ____

>  <TORSDO>
F 9

$$$$
=
 OpenBabel11052413373D

 28 31  0  0  1  0  0  0  0  0999 V2000
  190.2650  177.0020  138.2320 C   0  0  2  0  0  0  0  0  0  0  0  0
  188.1310  176.0890  137.5590 C   0  0  2  0  0  3  0  0  0  0  0  0
  189.4210  175.7540  138.3210 C   0  0  2  0  0  3  0  0  0  0  0  0
  187.9790  175.1910  136.5020 O   0  0  0  0  0  1  0  0  0  0  0  0
  188.3270  177.4710  137.0260 C   0  0  0  0  0  0  0  0  0  0  0  0
  188.7460  177.6980  139.9500 C   0  0  1  0  0  3  0  0  0  0  0  0
  188.9550  178.8330  138.9480 C   0  0  0  0  0  2  0  0  0  0  0  0
  187.3730  178.1270  136.3670 C   0  0  0  0  0  2  0  0  0  0  0  0
  189.7460  176.6000  139.5870 C   0  0  2  0  0  3  0  0  0  0  0  0
  189.4710  178.1630  137.6830 C   0  0  1  0  0  3  0  0  0  0  0  0
  192.1400  176.2400  136.9260 N   0  0  0  0  0  0  0  0  0  0  0  0
  191.7260  176.8210  137.9930 C   0  0  0  0  0  3  0  0  0  0  0  0
  193.5480  176.0660  136.6820 C   0  0  0  0  0  2  0  0  0  0  0  0
  194.0620  174.9250  137.4510 C   0  0  0  0  0  0  0  0  0  0  0  0
  194.4820  173.9880  138.0830 C   0  0  0  0  0  3  0  0  0  0  0  0
  189.0650  178.2930  141.6340 S   0  0  0  0  0  0  0  0  0  0  0  0
  189.5920  176.6460  142.2280 C   0  0  2  0  0  3  0  0  0  0  0  0
  188.5170  175.9310  143.0540 C   0  0  0  0  0  2  0  0  0  0  0  0
  187.7670  177.9510  146.1750 C   0  0  0  0  0  3  0  0  0  0  0  0
  187.8080  176.8100  144.0360 C   0  0  0  0  0  0  0  0  0  0  0  0
  185.8700  178.1180  144.6780 C   0  0  0  0  0  0  0  0  0  0  0  0
  188.4240  177.1330  145.2510 C   0  0  0  0  0  3  0  0  0  0  0  0
  186.5280  177.3000  143.7540 C   0  0  0  0  0  3  0  0  0  0  0  0
  184.6330  178.5940  144.4010 F   0  0  0  0  0  0  0  0  0  0  0  0
  186.4900  178.4440  145.8880 C   0  0  0  0  0  3  0  0  0  0  0  0
  190.9890  176.6320  142.8570 C   0  0  0  0  0  2  0  0  0  0  0  0
  191.6680  178.5870  144.2160 C   0  0  0  0  0  1  0  0  0  0  0  0
  191.6670  177.9920  142.8250 C   0  0  0  0  0  2  0  0  0  0  0  0
  1 12  1  6  0  0  0
  1  3  1  0  0  0  0
  1  9  1  0  0  0  0
  2  4  1  6  0  0  0
  2  3  1  0  0  0  0
  3  9  1  0  0  0  0
  5  2  1  0  0  0  0
  5 10  1  0  0  0  0
  6 16  1  0  0  0  0
  7  6  1  0  0  0  0
  8  5  2  0  0  0  0
  9  6  1  0  0  0  0
 10  1  1  0  0  0  0
 10  7  1  0  0  0  0
 11 12  2  0  0  0  0
 13 11  1  0  0  0  0
 13 14  1  0  0  0  0
 14 15  3  0  0  0  0
 16 17  1  0  0  0  0
 17 26  1  0  0  0  0
 17 18  1  0  0  0  0
 18 20  1  0  0  0  0
 20 22  1  0  0  0  0
 21 25  2  0  0  0  0
 22 19  2  0  0  0  0
 23 20  2  0  0  0  0
 23 21  1  0  0  0  0
 24 21  1  0  0  0  0
 25 19  1  0  0  0  0
 28 26  1  0  0  0  0
 28 27  1  0  0  0  0
M  END
>  <MODEL>
5

>  <REMARK>
 VINA RESULT:      -6.6      2.989      5.594
  Name = 
  9 active torsions:
  status: ('A' for Active; 'I' for Inactive)
    1  A    between atoms: C_1  and  C_11
    2  A    between atoms: C_6  and  N_8
    3  A    between atoms: C_6  and  C_22
    4  A    between atoms: C_9  and  C_18
    5  A    between atoms: C_10  and  S_14
    6  A    between atoms: C_10  and  C_18
    7  A    between atoms: C_10  and  C_25
    8  A    between atoms: S_14  and  C_17
    9  A    between atoms: C_20  and  C_25
                            x       y       z     vdW  Elec       q    Type
                         _______ _______ _______ _____ _____    ______ ____

>  <TORSDO>
F 9

$$$$
=
 OpenBabel11052413373D

 28 31  0  0  1  0  0  0  0  0999 V2000
  188.7100  177.2350  143.7630 C   0  0  2  0  0  0  0  0  0  0  0  0
  190.9460  176.4190  143.3480 C   0  0  2  0  0  3  0  0  0  0  0  0
  189.4700  175.9980  143.3540 C   0  0  2  0  0  3  0  0  0  0  0  0
  191.6520  175.6200  144.2490 O   0  0  0  0  0  1  0  0  0  0  0  0
  190.9610  177.8390  143.8110 C   0  0  0  0  0  0  0  0  0  0  0  0
  189.1400  177.7990  141.4740 C   0  0  1  0  0  3  0  0  0  0  0  0
  189.3880  179.0150  142.3660 C   0  0  0  0  0  2  0  0  0  0  0  0
  192.0770  178.5660  143.8610 C   0  0  0  0  0  2  0  0  0  0  0  0
  188.5140  176.7230  142.3610 C   0  0  2  0  0  3  0  0  0  0  0  0
  189.6040  178.4530  143.7630 C   0  0  1  0  0  3  0  0  0  0  0  0
  187.0390  178.0720  145.2830 N   0  0  0  0  0  0  0  0  0  0  0  0
  187.5710  177.0550  144.7090 C   0  0  0  0  0  3  0  0  0  0  0  0
  185.9360  177.9100  146.1940 C   0  0  0  0  0  2  0  0  0  0  0  0
  184.7130  178.4860  145.6220 C   0  0  0  0  0  0  0  0  0  0  0  0
  183.7080  178.9580  145.1530 C   0  0  0  0  0  3  0  0  0  0  0  0
  187.9960  178.2370  140.1350 S   0  0  0  0  0  0  0  0  0  0  0  0
  189.1330  177.6490  138.8300 C   0  0  2  0  0  3  0  0  0  0  0  0
  190.5130  177.2510  139.3670 C   0  0  0  0  0  2  0  0  0  0  0  0
  191.1930  174.2690  137.1250 C   0  0  0  0  0  3  0  0  0  0  0  0
  191.2360  176.2480  138.5250 C   0  0  0  0  0  0  0  0  0  0  0  0
  193.2930  175.3880  137.5720 C   0  0  0  0  0  0  0  0  0  0  0  0
  190.5230  175.2120  137.9110 C   0  0  0  0  0  3  0  0  0  0  0  0
  192.6240  176.3310  138.3580 C   0  0  0  0  0  3  0  0  0  0  0  0
  194.6350  175.4730  137.4090 F   0  0  0  0  0  0  0  0  0  0  0  0
  192.5780  174.3580  136.9550 C   0  0  0  0  0  3  0  0  0  0  0  0
  189.1710  178.5480  137.5900 C   0  0  0  0  0  2  0  0  0  0  0  0
  189.2080  177.5980  135.3040 C   0  0  0  0  0  1  0  0  0  0  0  0
  188.3150  178.0200  136.4500 C   0  0  0  0  0  2  0  0  0  0  0  0
  1 12  1  1  0  0  0
  2  3  1  0  0  0  0
  2  5  1  0  0  0  0
  2  4  1  1  0  0  0
  3  1  1  0  0  0  0
  5  8  2  0  0  0  0
  6  9  1  0  0  0  0
  6  7  1  0  0  0  0
  7 10  1  0  0  0  0
  9  3  1  0  0  0  0
  9  1  1  0  0  0  0
 10  1  1  0  0  0  0
 10  5  1  0  0  0  0
 11 13  1  0  0  0  0
 12 11  2  0  0  0  0
 14 13  1  0  0  0  0
 15 14  3  0  0  0  0
 16  6  1  0  0  0  0
 17 18  1  0  0  0  0
 17 16  1  0  0  0  0
 19 22  1  0  0  0  0
 20 18  1  0  0  0  0
 21 23  2  0  0  0  0
 22 20  2  0  0  0  0
 23 20  1  0  0  0  0
 24 21  1  0  0  0  0
 25 19  2  0  0  0  0
 25 21  1  0  0  0  0
 26 17  1  0  0  0  0
 27 28  1  0  0  0  0
 28 26  1  0  0  0  0
M  END
>  <MODEL>
6

>  <REMARK>
 VINA RESULT:      -6.6      3.010      7.597
  Name = 
  9 active torsions:
  status: ('A' for Active; 'I' for Inactive)
    1  A    between atoms: C_1  and  C_11
    2  A    between atoms: C_6  and  N_8
    3  A    between atoms: C_6  and  C_22
    4  A    between atoms: C_9  and  C_18
    5  A    between atoms: C_10  and  S_14
    6  A    between atoms: C_10  and  C_18
    7  A    between atoms: C_10  and  C_25
    8  A    between atoms: S_14  and  C_17
    9  A    between atoms: C_20  and  C_25
                            x       y       z     vdW  Elec       q    Type
                         _______ _______ _______ _____ _____    ______ ____

>  <TORSDO>
F 9

$$$$
=
 OpenBabel11052413373D

 28 31  0  0  1  0  0  0  0  0999 V2000
  189.8360  177.2330  141.9620 C   0  0  2  0  0  0  0  0  0  0  0  0
  190.3920  178.5740  143.8930 C   0  0  2  0  0  3  0  0  0  0  0  0
  190.1810  178.6420  142.3740 C   0  0  2  0  0  3  0  0  0  0  0  0
  191.6900  178.9890  144.1920 O   0  0  0  0  0  1  0  0  0  0  0  0
  190.2240  177.1360  144.2570 C   0  0  0  0  0  0  0  0  0  0  0  0
  187.7170  177.8860  142.8680 C   0  0  1  0  0  3  0  0  0  0  0  0
  188.0680  176.4730  143.3310 C   0  0  0  0  0  2  0  0  0  0  0  0
  190.2650  176.7060  145.5180 C   0  0  0  0  0  2  0  0  0  0  0  0
  188.7660  178.2840  141.8300 C   0  0  2  0  0  3  0  0  0  0  0  0
  189.5750  176.3580  143.1640 C   0  0  1  0  0  3  0  0  0  0  0  0
  189.7840  176.8000  139.5920 N   0  0  0  0  0  0  0  0  0  0  0  0
  190.4380  176.7260  140.6940 C   0  0  0  0  0  3  0  0  0  0  0  0
  190.3580  176.3190  138.3620 C   0  0  0  0  0  2  0  0  0  0  0  0
  191.8090  176.5440  138.3540 C   0  0  0  0  0  0  0  0  0  0  0  0
  193.0000  176.7290  138.3460 C   0  0  0  0  0  3  0  0  0  0  0  0
  186.0670  177.8990  142.1140 S   0  0  0  0  0  0  0  0  0  0  0  0
  185.2270  178.2210  143.7050 C   0  0  2  0  0  3  0  0  0  0  0  0
  184.2390  179.3920  143.6390 C   0  0  0  0  0  2  0  0  0  0  0  0
  180.5410  178.6220  143.9780 C   0  0  0  0  0  3  0  0  0  0  0  0
  182.8380  178.9980  143.2950 C   0  0  0  0  0  0  0  0  0  0  0  0
  181.1950  178.2540  141.6750 C   0  0  0  0  0  0  0  0  0  0  0  0
  181.8530  178.9920  144.2910 C   0  0  0  0  0  3  0  0  0  0  0  0
  182.5070  178.6230  141.9880 C   0  0  0  0  0  3  0  0  0  0  0  0
  180.8760  177.8950  140.4080 F   0  0  0  0  0  0  0  0  0  0  0  0
  180.2120  178.2540  142.6690 C   0  0  0  0  0  3  0  0  0  0  0  0
  186.1730  178.2560  144.9090 C   0  0  0  0  0  2  0  0  0  0  0  0
  185.1490  178.2000  147.1630 C   0  0  0  0  0  1  0  0  0  0  0  0
  185.6430  179.1040  146.0540 C   0  0  0  0  0  2  0  0  0  0  0  0
  1 12  1  6  0  0  0
  1  3  1  0  0  0  0
  1 10  1  0  0  0  0
  2  4  1  6  0  0  0
  2  5  1  0  0  0  0
  3  2  1  0  0  0  0
  5  8  2  0  0  0  0
  6  7  1  0  0  0  0
  9  1  1  0  0  0  0
  9  3  1  0  0  0  0
  9  6  1  0  0  0  0
 10  7  1  0  0  0  0
 10  5  1  0  0  0  0
 11 12  2  0  0  0  0
 13 11  1  0  0  0  0
 14 13  1  0  0  0  0
 15 14  3  0  0  0  0
 16  6  1  0  0  0  0
 16 17  1  0  0  0  0
 17 26  1  0  0  0  0
 18 17  1  0  0  0  0
 19 22  1  0  0  0  0
 20 18  1  0  0  0  0
 20 22  2  0  0  0  0
 21 23  2  0  0  0  0
 21 25  1  0  0  0  0
 23 20  1  0  0  0  0
 24 21  1  0  0  0  0
 25 19  2  0  0  0  0
 26 28  1  0  0  0  0
 28 27  1  0  0  0  0
M  END
>  <MODEL>
7

>  <REMARK>
 VINA RESULT:      -6.4      2.851      4.976
  Name = 
  9 active torsions:
  status: ('A' for Active; 'I' for Inactive)
    1  A    between atoms: C_1  and  C_11
    2  A    between atoms: C_6  and  N_8
    3  A    between atoms: C_6  and  C_22
    4  A    between atoms: C_9  and  C_18
    5  A    between atoms: C_10  and  S_14
    6  A    between atoms: C_10  and  C_18
    7  A    between atoms: C_10  and  C_25
    8  A    between atoms: S_14  and  C_17
    9  A    between atoms: C_20  and  C_25
                            x       y       z     vdW  Elec       q    Type
                         _______ _______ _______ _____ _____    ______ ____

>  <TORSDO>
F 9

$$$$
=
 OpenBabel11052413373D

 28 31  0  0  1  0  0  0  0  0999 V2000
  187.6460  176.9240  137.8820 C   0  0  2  0  0  0  0  0  0  0  0  0
  189.4300  178.2900  136.9950 C   0  0  2  0  0  3  0  0  0  0  0  0
  187.9060  178.2220  137.1590 C   0  0  2  0  0  3  0  0  0  0  0  0
  189.7400  178.3620  135.6360 O   0  0  0  0  0  1  0  0  0  0  0  0
  189.9530  177.0140  137.5670 C   0  0  0  0  0  0  0  0  0  0  0  0
  188.3670  178.2510  139.7420 C   0  0  1  0  0  3  0  0  0  0  0  0
  189.0090  176.8660  139.8110 C   0  0  0  0  0  2  0  0  0  0  0  0
  191.2560  176.7520  137.6650 C   0  0  0  0  0  2  0  0  0  0  0  0
  187.3410  178.2060  138.6100 C   0  0  2  0  0  3  0  0  0  0  0  0
  188.9300  176.3160  138.3950 C   0  0  1  0  0  3  0  0  0  0  0  0
  186.5200  175.4820  136.3150 N   0  0  0  0  0  0  0  0  0  0  0  0
  186.4780  176.1140  137.4320 C   0  0  0  0  0  3  0  0  0  0  0  0
  185.4000  174.6930  135.8730 C   0  0  0  0  0  2  0  0  0  0  0  0
  185.1420  173.5990  136.8170 C   0  0  0  0  0  0  0  0  0  0  0  0
  184.9290  172.7010  137.5930 C   0  0  0  0  0  3  0  0  0  0  0  0
  187.5390  178.6280  141.3120 S   0  0  0  0  0  0  0  0  0  0  0  0
  188.7310  177.6540  142.2960 C   0  0  2  0  0  3  0  0  0  0  0  0
  188.0580  176.6320  143.2200 C   0  0  0  0  0  2  0  0  0  0  0  0
  185.9010  178.3270  145.8380 C   0  0  0  0  0  3  0  0  0  0  0  0
  187.5970  177.1930  144.5280 C   0  0  0  0  0  0  0  0  0  0  0  0
  187.9840  177.6570  146.8760 C   0  0  0  0  0  0  0  0  0  0  0  0
  186.3380  177.7980  144.6200 C   0  0  0  0  0  3  0  0  0  0  0  0
  188.4210  177.1280  145.6570 C   0  0  0  0  0  3  0  0  0  0  0  0
  188.7820  177.5900  147.9680 F   0  0  0  0  0  0  0  0  0  0  0  0
  186.7240  178.2560  146.9670 C   0  0  0  0  0  3  0  0  0  0  0  0
  189.8150  178.5010  142.9710 C   0  0  0  0  0  2  0  0  0  0  0  0
  191.6810  177.8500  144.4640 C   0  0  0  0  0  1  0  0  0  0  0  0
  191.1590  177.7930  143.0450 C   0  0  0  0  0  2  0  0  0  0  0  0
  1 12  1  6  0  0  0
  1 10  1  0  0  0  0
  1  9  1  0  0  0  0
  2  4  1  6  0  0  0
  2  3  1  0  0  0  0
  2  5  1  0  0  0  0
  3  1  1  0  0  0  0
  3  9  1  0  0  0  0
  5  8  2  0  0  0  0
  5 10  1  0  0  0  0
  6  7  1  0  0  0  0
  6 16  1  0  0  0  0
  9  6  1  0  0  0  0
 10  7  1  0  0  0  0
 11 12  2  0  0  0  0
 13 11  1  0  0  0  0
 13 14  1  0  0  0  0
 14 15  3  0  0  0  0
 16 17  1  0  0  0  0
 17 26  1  0  0  0  0
 17 18  1  0  0  0  0
 18 20  1  0  0  0  0
 19 25  1  0  0  0  0
 20 22  1  0  0  0  0
 20 23  2  0  0  0  0
 21 25  2  0  0  0  0
 21 24  1  0  0  0  0
 22 19  2  0  0  0  0
 23 21  1  0  0  0  0
 26 28  1  0  0  0  0
 28 27  1  0  0  0  0
M  END
>  <MODEL>
8

>  <REMARK>
 VINA RESULT:      -6.4      3.132      5.187
  Name = 
  9 active torsions:
  status: ('A' for Active; 'I' for Inactive)
    1  A    between atoms: C_1  and  C_11
    2  A    between atoms: C_6  and  N_8
    3  A    between atoms: C_6  and  C_22
    4  A    between atoms: C_9  and  C_18
    5  A    between atoms: C_10  and  S_14
    6  A    between atoms: C_10  and  C_18
    7  A    between atoms: C_10  and  C_25
    8  A    between atoms: S_14  and  C_17
    9  A    between atoms: C_20  and  C_25
                            x       y       z     vdW  Elec       q    Type
                         _______ _______ _______ _____ _____    ______ ____

>  <TORSDO>
F 9

$$$$
=
 OpenBabel11052413373D

 28 31  0  0  1  0  0  0  0  0999 V2000
  190.1970  176.7170  137.3980 C   0  0  2  0  0  0  0  0  0  0  0  0
  187.8310  176.2620  137.2110 C   0  0  2  0  0  3  0  0  0  0  0  0
  189.1940  175.5910  137.4280 C   0  0  2  0  0  3  0  0  0  0  0  0
  187.2390  175.7320  136.0640 O   0  0  0  0  0  1  0  0  0  0  0  0
  188.1260  177.7120  137.0050 C   0  0  0  0  0  0  0  0  0  0  0  0
  189.3480  177.0310  139.6160 C   0  0  1  0  0  3  0  0  0  0  0  0
  189.4860  178.3820  138.9150 C   0  0  0  0  0  2  0  0  0  0  0  0
  187.1670  178.6250  136.8580 C   0  0  0  0  0  2  0  0  0  0  0  0
  189.9960  175.9920  138.7010 C   0  0  2  0  0  3  0  0  0  0  0  0
  189.5110  178.0630  137.4280 C   0  0  1  0  0  3  0  0  0  0  0  0
  192.5580  176.2400  137.3440 N   0  0  0  0  0  0  0  0  0  0  0  0
  191.4810  176.4680  136.6820 C   0  0  0  0  0  3  0  0  0  0  0  0
  193.8020  175.9930  136.6630 C   0  0  0  0  0  2  0  0  0  0  0  0
  194.5150  174.8750  137.2920 C   0  0  0  0  0  0  0  0  0  0  0  0
  195.1010  173.9570  137.8080 C   0  0  0  0  0  3  0  0  0  0  0  0
  190.2110  177.0710  141.2120 S   0  0  0  0  0  0  0  0  0  0  0  0
  188.6560  177.1250  142.1710 C   0  0  2  0  0  3  0  0  0  0  0  0
  188.0130  178.5170  142.1980 C   0  0  0  0  0  2  0  0  0  0  0  0
  184.6200  178.6480  140.5100 C   0  0  0  0  0  3  0  0  0  0  0  0
  186.5310  178.5150  141.9970 C   0  0  0  0  0  0  0  0  0  0  0  0
  184.2820  178.3980  142.8960 C   0  0  0  0  0  0  0  0  0  0  0  0
  186.0050  178.6460  140.7070 C   0  0  0  0  0  3  0  0  0  0  0  0
  185.6670  178.3960  143.0920 C   0  0  0  0  0  3  0  0  0  0  0  0
  183.4480  178.2790  143.9560 F   0  0  0  0  0  0  0  0  0  0  0  0
  183.7590  178.5230  141.6050 C   0  0  0  0  0  3  0  0  0  0  0  0
  188.7480  176.4420  143.5390 C   0  0  0  0  0  2  0  0  0  0  0  0
  190.0860  177.6330  145.2480 C   0  0  0  0  0  1  0  0  0  0  0  0
  188.6920  177.4250  144.6970 C   0  0  0  0  0  2  0  0  0  0  0  0
  1 12  1  6  0  0  0
  1  3  1  0  0  0  0
  1 10  1  0  0  0  0
  1  9  1  0  0  0  0
  2  4  1  6  0  0  0
  2  3  1  0  0  0  0
  3  9  1  0  0  0  0
  5  2  1  0  0  0  0
  5 10  1  0  0  0  0
  6 16  1  0  0  0  0
  7  6  1  0  0  0  0
  8  5  2  0  0  0  0
  9  6  1  0  0  0  0
 10  7  1  0  0  0  0
 12 11  2  0  0  0  0
 13 14  1  0  0  0  0
 13 11  1  0  0  0  0
 14 15  3  0  0  0  0
 16 17  1  0  0  0  0
 17 18  1  0  0  0  0
 17 26  1  0  0  0  0
 19 22  2  0  0  0  0
 19 25  1  0  0  0  0
 20 18  1  0  0  0  0
 20 23  2  0  0  0  0
 21 23  1  0  0  0  0
 21 24  1  0  0  0  0
 22 20  1  0  0  0  0
 25 21  2  0  0  0  0
 26 28  1  0  0  0  0
 28 27  1  0  0  0  0
M  END
>  <MODEL>
9

>  <REMARK>
 VINA RESULT:      -6.3      3.449      6.331
  Name = 
  9 active torsions:
  status: ('A' for Active; 'I' for Inactive)
    1  A    between atoms: C_1  and  C_11
    2  A    between atoms: C_6  and  N_8
    3  A    between atoms: C_6  and  C_22
    4  A    between atoms: C_9  and  C_18
    5  A    between atoms: C_10  and  S_14
    6  A    between atoms: C_10  and  C_18
    7  A    between atoms: C_10  and  C_25
    8  A    between atoms: S_14  and  C_17
    9  A    between atoms: C_20  and  C_25
                            x       y       z     vdW  Elec       q    Type
                         _______ _______ _______ _____ _____    ______ ____

>  <TORSDO>
F 9

$$$$
