=
 OpenBabel11052416223D

 43 48  0  0  1  0  0  0  0  0999 V2000
  184.6170  178.3120  143.7330 C   0  0  0  0  0  3  0  0  0  0  0  0
  191.1680  176.2770  146.7610 C   0  0  1  0  0  3  0  0  0  0  0  0
  186.9180  177.8120  144.3860 C   0  0  0  0  0  0  0  0  0  0  0  0
  187.7090  178.1250  141.6700 C   0  0  0  0  0  0  0  0  0  0  0  0
  188.8590  177.1370  146.2580 C   0  0  0  0  0  0  0  0  0  0  0  0
  191.6500  177.1420  145.6060 C   0  0  0  0  0  2  0  0  0  0  0  0
  192.2230  176.2420  147.8460 C   0  0  0  0  0  1  0  0  0  0  0  0
  189.2330  177.3190  144.9090 C   0  0  0  0  0  0  0  0  0  0  0  0
  189.8740  176.8530  147.3300 C   0  0  0  0  0  2  0  0  0  0  0  0
  190.6490  177.0620  144.4570 C   0  0  0  0  0  2  0  0  0  0  0  0
  188.5890  177.8110  142.5760 N   0  0  0  0  0  0  0  0  0  0  0  0
  188.2480  177.6470  143.9630 C   0  0  0  0  0  0  0  0  0  0  0  0
  186.5920  177.6500  145.6980 N   0  0  0  0  0  0  0  0  0  0  0  0
  185.9010  178.1550  143.3790 C   0  0  0  0  0  0  0  0  0  0  0  0
  186.3320  178.3050  142.0230 N   0  0  0  0  0  2  0  0  0  0  0  0
  187.5270  177.3250  146.6300 C   0  0  0  0  0  3  0  0  0  0  0  0
  181.1750  179.3800  142.6580 C   0  0  0  0  0  3  0  0  0  0  0  0
  181.2510  179.2790  141.2660 C   0  0  0  0  0  0  0  0  0  0  0  0
  183.5520  178.5510  141.4500 C   0  0  0  0  0  3  0  0  0  0  0  0
  182.2860  179.0590  143.4450 C   0  0  0  0  0  3  0  0  0  0  0  0
  183.4810  178.6430  142.8480 C   0  0  0  0  0  0  0  0  0  0  0  0
  182.4430  178.8710  140.6610 C   0  0  0  0  0  3  0  0  0  0  0  0
  179.8970  181.0250  140.4380 O   0  0  0  0  0  1  0  0  0  0  0  0
  180.0750  179.6410  140.4280 C   0  0  0  0  0  2  0  0  0  0  0  0
  188.1250  178.2590  140.2500 C   0  0  0  0  0  2  0  0  0  0  0  0
  186.8950  178.3750  139.3610 C   0  0  0  0  0  2  0  0  0  0  0  0
  187.0840  177.6530  138.0200 C   0  0  2  0  0  3  0  0  0  0  0  0
  185.8350  177.0000  137.5710 N   0  0  0  0  0  0  0  0  0  0  0  0
  184.2150  176.9850  135.7960 C   0  0  0  0  0  2  0  0  0  0  0  0
  184.6940  177.8070  137.9970 C   0  0  0  0  0  2  0  0  0  0  0  0
  185.7000  176.9130  136.1040 C   0  0  1  0  0  0  0  0  0  0  0  0
  186.3400  177.9870  135.4660 O   0  0  0  0  0  1  0  0  0  0  0  0
  183.5590  177.5270  137.0420 C   0  0  0  0  0  2  0  0  0  0  0  0
  186.2690  175.5780  135.6130 C   0  0  0  0  0  2  0  0  0  0  0  0
  185.6960  174.3970  136.3290 C   0  0  0  0  0  0  0  0  0  0  0  0
  185.4960  172.8260  137.7910 N   0  0  0  0  0  0  0  0  0  0  0  0
  184.5030  172.7040  136.8940 C   0  0  0  0  0  0  0  0  0  0  0  0
  183.4660  171.6410  136.9520 C   0  0  0  0  0  1  0  0  0  0  0  0
  184.5810  173.6870  135.9250 C   0  0  0  0  0  3  0  0  0  0  0  0
  186.2320  173.8660  137.4430 N   0  0  0  0  0  2  0  0  0  0  0  0
  188.2350  176.6550  138.1370 C   0  0  0  0  0  2  0  0  0  0  0  0
  190.3190  177.1420  137.6050 C   0  0  0  0  0  1  0  0  0  0  0  0
  189.0940  176.7830  137.0460 O   0  0  0  0  0  0  0  0  0  0  0  0
  2  9  1  0  0  0  0
  2  7  1  1  0  0  0
  3 13  1  0  0  0  0
  4 15  1  0  0  0  0
  4 11  2  0  0  0  0
  5 16  1  0  0  0  0
  5  9  1  0  0  0  0
  6  2  1  0  0  0  0
  8  5  2  0  0  0  0
 10  8  1  0  0  0  0
 10  6  1  0  0  0  0
 11 12  1  0  0  0  0
 12  3  2  0  0  0  0
 12  8  1  0  0  0  0
 13 16  2  0  0  0  0
 14  1  2  0  0  0  0
 14  3  1  0  0  0  0
 15 14  1  0  0  0  0
 17 20  1  0  0  0  0
 18 17  2  0  0  0  0
 19 21  1  0  0  0  0
 21 20  2  0  0  0  0
 21  1  1  0  0  0  0
 22 18  1  0  0  0  0
 22 19  2  0  0  0  0
 24 23  1  0  0  0  0
 24 18  1  0  0  0  0
 25  4  1  0  0  0  0
 26 25  1  0  0  0  0
 27 41  1  1  0  0  0
 27 26  1  0  0  0  0
 28 30  1  0  0  0  0
 28 27  1  0  0  0  0
 29 31  1  0  0  0  0
 29 33  1  0  0  0  0
 31 32  1  6  0  0  0
 31 28  1  0  0  0  0
 33 30  1  0  0  0  0
 34 31  1  0  0  0  0
 34 35  1  0  0  0  0
 35 40  1  0  0  0  0
 37 38  1  0  0  0  0
 37 36  2  0  0  0  0
 39 35  2  0  0  0  0
 39 37  1  0  0  0  0
 40 36  1  0  0  0  0
 43 42  1  0  0  0  0
 43 41  1  0  0  0  0
M  END
>  <MODEL>
1

>  <REMARK>
 VINA RESULT:      -9.3      0.000      0.000
  Name = 
  10 active torsions:
  status: ('A' for Active; 'I' for Inactive)
    1  A    between atoms: C_1  and  C_35
    2  A    between atoms: C_2  and  C_6
    3  A    between atoms: C_2  and  C_13
    4  A    between atoms: C_3  and  N_4
    5  A    between atoms: C_3  and  C_6
    6  A    between atoms: C_3  and  C_12
    7  A    between atoms: C_11  and  C_14
    8  A    between atoms: C_12  and  O_17
    9  A    between atoms: C_14  and  C_22
   10  A    between atoms: C_19  and  C_37
                            x       y       z     vdW  Elec       q    Type
                         _______ _______ _______ _____ _____    ______ ____

>  <TORSDO>
F 10

$$$$
=
 OpenBabel11052416223D

 43 48  0  0  1  0  0  0  0  0999 V2000
  184.5960  178.3020  143.9250 C   0  0  0  0  0  3  0  0  0  0  0  0
  191.1840  176.2710  146.8730 C   0  0  1  0  0  3  0  0  0  0  0  0
  186.9040  177.7980  144.5480 C   0  0  0  0  0  0  0  0  0  0  0  0
  187.6520  178.0700  141.8150 C   0  0  0  0  0  0  0  0  0  0  0  0
  188.8720  177.1370  146.3960 C   0  0  0  0  0  0  0  0  0  0  0  0
  191.6520  177.1180  145.6980 C   0  0  0  0  0  2  0  0  0  0  0  0
  192.2570  176.2450  147.9400 C   0  0  0  0  0  1  0  0  0  0  0  0
  189.2240  177.3000  145.0390 C   0  0  0  0  0  0  0  0  0  0  0  0
  189.9040  176.8620  147.4550 C   0  0  0  0  0  2  0  0  0  0  0  0
  190.6320  177.0280  144.5670 C   0  0  0  0  0  2  0  0  0  0  0  0
  188.5450  177.7640  142.7100 N   0  0  0  0  0  0  0  0  0  0  0  0
  188.2260  177.6200  144.1050 C   0  0  0  0  0  0  0  0  0  0  0  0
  186.5990  177.6550  145.8670 N   0  0  0  0  0  0  0  0  0  0  0  0
  185.8720  178.1330  143.5520 C   0  0  0  0  0  0  0  0  0  0  0  0
  186.2820  178.2630  142.1880 N   0  0  0  0  0  2  0  0  0  0  0  0
  187.5470  177.3370  146.7880 C   0  0  0  0  0  3  0  0  0  0  0  0
  181.1380  179.3630  142.8940 C   0  0  0  0  0  3  0  0  0  0  0  0
  181.1940  179.2550  141.5020 C   0  0  0  0  0  0  0  0  0  0  0  0
  183.4970  178.5270  141.6570 C   0  0  0  0  0  3  0  0  0  0  0  0
  182.2600  179.0470  143.6670 C   0  0  0  0  0  3  0  0  0  0  0  0
  183.4470  178.6280  143.0560 C   0  0  0  0  0  0  0  0  0  0  0  0
  182.3770  178.8430  140.8820 C   0  0  0  0  0  3  0  0  0  0  0  0
  180.0040  180.9830  140.4240 O   0  0  0  0  0  1  0  0  0  0  0  0
  180.0060  179.6110  140.6790 C   0  0  0  0  0  2  0  0  0  0  0  0
  188.0450  178.1830  140.3860 C   0  0  0  0  0  2  0  0  0  0  0  0
  189.2740  177.3250  140.1220 C   0  0  0  0  0  2  0  0  0  0  0  0
  189.2270  176.6630  138.7370 C   0  0  2  0  0  3  0  0  0  0  0  0
  190.5150  176.7990  138.0230 N   0  0  0  0  0  0  0  0  0  0  0  0
  192.4740  175.5740  137.3630 C   0  0  0  0  0  2  0  0  0  0  0  0
  191.5700  177.0850  138.9910 C   0  0  0  0  0  2  0  0  0  0  0  0
  190.9560  175.5630  137.3470 C   0  0  1  0  0  0  0  0  0  0  0  0
  190.5110  174.4200  138.0290 O   0  0  0  0  0  1  0  0  0  0  0  0
  192.8700  176.5930  138.4020 C   0  0  0  0  0  2  0  0  0  0  0  0
  190.4510  175.5580  135.9000 C   0  0  0  0  0  2  0  0  0  0  0  0
  189.5960  174.3730  135.5810 C   0  0  0  0  0  0  0  0  0  0  0  0
  189.0610  172.3830  134.9500 N   0  0  0  0  0  0  0  0  0  0  0  0
  187.9350  173.0630  135.2240 C   0  0  0  0  0  0  0  0  0  0  0  0
  186.5720  172.4840  135.0950 C   0  0  0  0  0  1  0  0  0  0  0  0
  188.2150  174.3520  135.6320 C   0  0  0  0  0  2  0  0  0  0  0  0
  190.0850  173.1900  135.1680 N   0  0  0  0  0  0  0  0  0  0  0  0
  188.0670  177.2510  137.9320 C   0  0  0  0  0  2  0  0  0  0  0  0
  187.4250  178.4950  136.2280 C   0  0  0  0  0  1  0  0  0  0  0  0
  188.5530  178.1210  136.9570 O   0  0  0  0  0  0  0  0  0  0  0  0
  2  9  1  0  0  0  0
  2  7  1  1  0  0  0
  3 13  1  0  0  0  0
  4 15  1  0  0  0  0
  4 11  2  0  0  0  0
  5 16  1  0  0  0  0
  5  9  1  0  0  0  0
  6  2  1  0  0  0  0
  8  5  2  0  0  0  0
 10  8  1  0  0  0  0
 10  6  1  0  0  0  0
 11 12  1  0  0  0  0
 12  3  2  0  0  0  0
 12  8  1  0  0  0  0
 13 16  2  0  0  0  0
 14  1  2  0  0  0  0
 14  3  1  0  0  0  0
 15 14  1  0  0  0  0
 17 20  1  0  0  0  0
 18 17  2  0  0  0  0
 19 21  1  0  0  0  0
 21 20  2  0  0  0  0
 21  1  1  0  0  0  0
 22 18  1  0  0  0  0
 22 19  2  0  0  0  0
 23 24  1  0  0  0  0
 24 18  1  0  0  0  0
 25  4  1  0  0  0  0
 26 25  1  0  0  0  0
 27 41  1  6  0  0  0
 27 26  1  0  0  0  0
 28 27  1  0  0  0  0
 28 30  1  0  0  0  0
 29 33  1  0  0  0  0
 31 29  1  0  0  0  0
 31 28  1  0  0  0  0
 31 32  1  1  0  0  0
 33 30  1  0  0  0  0
 34 31  1  0  0  0  0
 35 39  1  0  0  0  0
 35 34  1  0  0  0  0
 36 40  1  0  0  0  0
 36 37  2  0  0  0  0
 37 39  1  0  0  0  0
 38 37  1  0  0  0  0
 40 35  2  0  0  0  0
 42 43  1  0  0  0  0
 43 41  1  0  0  0  0
M  END
>  <MODEL>
2

>  <REMARK>
 VINA RESULT:      -9.2      1.934      3.223
  Name = 
  10 active torsions:
  status: ('A' for Active; 'I' for Inactive)
    1  A    between atoms: C_1  and  C_35
    2  A    between atoms: C_2  and  C_6
    3  A    between atoms: C_2  and  C_13
    4  A    between atoms: C_3  and  N_4
    5  A    between atoms: C_3  and  C_6
    6  A    between atoms: C_3  and  C_12
    7  A    between atoms: C_11  and  C_14
    8  A    between atoms: C_12  and  O_17
    9  A    between atoms: C_14  and  C_22
   10  A    between atoms: C_19  and  C_37
                            x       y       z     vdW  Elec       q    Type
                         _______ _______ _______ _____ _____    ______ ____

>  <TORSDO>
F 10

$$$$
=
 OpenBabel11052416223D

 43 48  0  0  1  0  0  0  0  0999 V2000
  184.6190  178.3230  143.9040 C   0  0  0  0  0  3  0  0  0  0  0  0
  191.1850  176.2930  146.9020 C   0  0  1  0  0  3  0  0  0  0  0  0
  186.9220  177.8100  144.5400 C   0  0  0  0  0  0  0  0  0  0  0  0
  187.6750  178.0170  141.8030 C   0  0  0  0  0  0  0  0  0  0  0  0
  188.8810  177.1700  146.4050 C   0  0  0  0  0  0  0  0  0  0  0  0
  191.6610  177.1100  145.7110 C   0  0  0  0  0  2  0  0  0  0  0  0
  192.2560  176.2790  147.9720 C   0  0  0  0  0  1  0  0  0  0  0  0
  189.2370  177.3010  145.0440 C   0  0  0  0  0  0  0  0  0  0  0  0
  189.9090  176.9080  147.4700 C   0  0  0  0  0  2  0  0  0  0  0  0
  190.6420  177.0060  144.5810 C   0  0  0  0  0  2  0  0  0  0  0  0
  188.5640  177.7220  142.7060 N   0  0  0  0  0  0  0  0  0  0  0  0
  188.2420  177.6110  144.1030 C   0  0  0  0  0  0  0  0  0  0  0  0
  186.6140  177.6990  145.8620 N   0  0  0  0  0  0  0  0  0  0  0  0
  185.8940  178.1340  143.5370 C   0  0  0  0  0  0  0  0  0  0  0  0
  186.3060  178.2310  142.1700 N   0  0  0  0  0  2  0  0  0  0  0  0
  187.5580  177.3910  146.7900 C   0  0  0  0  0  3  0  0  0  0  0  0
  181.1640  179.3690  142.8480 C   0  0  0  0  0  3  0  0  0  0  0  0
  181.2280  179.2540  141.4570 C   0  0  0  0  0  0  0  0  0  0  0  0
  183.5330  178.5330  141.6280 C   0  0  0  0  0  3  0  0  0  0  0  0
  182.2830  179.0600  143.6280 C   0  0  0  0  0  3  0  0  0  0  0  0
  183.4740  178.6410  143.0270 C   0  0  0  0  0  0  0  0  0  0  0  0
  182.4160  178.8420  140.8460 C   0  0  0  0  0  3  0  0  0  0  0  0
  179.1290  180.3270  141.3890 O   0  0  0  0  0  1  0  0  0  0  0  0
  180.0450  179.6030  140.6250 C   0  0  0  0  0  2  0  0  0  0  0  0
  188.0710  178.0960  140.3730 C   0  0  0  0  0  2  0  0  0  0  0  0
  189.2030  177.1170  140.0980 C   0  0  0  0  0  2  0  0  0  0  0  0
  189.7430  177.2490  138.6670 C   0  0  2  0  0  3  0  0  0  0  0  0
  191.2150  177.3960  138.6500 N   0  0  0  0  0  0  0  0  0  0  0  0
  193.2640  176.1570  138.8590 C   0  0  0  0  0  2  0  0  0  0  0  0
  191.6950  177.5500  140.0200 C   0  0  0  0  0  2  0  0  0  0  0  0
  191.9280  176.2090  138.1380 C   0  0  1  0  0  0  0  0  0  0  0  0
  191.2230  175.0280  138.4180 O   0  0  0  0  0  1  0  0  0  0  0  0
  193.1220  177.0610  140.0580 C   0  0  0  0  0  2  0  0  0  0  0  0
  192.1560  176.3560  136.6300 C   0  0  0  0  0  2  0  0  0  0  0  0
  193.5400  175.9810  136.2060 C   0  0  0  0  0  0  0  0  0  0  0  0
  195.6060  176.2070  135.6340 N   0  0  0  0  0  0  0  0  0  0  0  0
  195.2790  174.9060  135.5520 C   0  0  0  0  0  0  0  0  0  0  0  0
  196.2280  173.8430  135.1310 C   0  0  0  0  0  1  0  0  0  0  0  0
  193.9600  174.6990  135.9060 C   0  0  0  0  0  3  0  0  0  0  0  0
  194.5350  176.8700  136.0340 N   0  0  0  0  0  2  0  0  0  0  0  0
  189.0480  178.4170  137.9670 C   0  0  0  0  0  2  0  0  0  0  0  0
  187.2760  178.2860  136.6610 C   0  0  0  0  0  1  0  0  0  0  0  0
  188.6470  178.0390  136.6850 O   0  0  0  0  0  0  0  0  0  0  0  0
  2  9  1  0  0  0  0
  2  7  1  1  0  0  0
  3 13  1  0  0  0  0
  4 15  1  0  0  0  0
  4 11  2  0  0  0  0
  5 16  1  0  0  0  0
  5  9  1  0  0  0  0
  6  2  1  0  0  0  0
  8  5  2  0  0  0  0
 10  8  1  0  0  0  0
 10  6  1  0  0  0  0
 11 12  1  0  0  0  0
 12  3  2  0  0  0  0
 12  8  1  0  0  0  0
 13 16  2  0  0  0  0
 14  1  2  0  0  0  0
 14  3  1  0  0  0  0
 15 14  1  0  0  0  0
 17 20  1  0  0  0  0
 18 17  2  0  0  0  0
 19 21  1  0  0  0  0
 21 20  2  0  0  0  0
 21  1  1  0  0  0  0
 22 18  1  0  0  0  0
 22 19  2  0  0  0  0
 24 23  1  0  0  0  0
 24 18  1  0  0  0  0
 25  4  1  0  0  0  0
 26 25  1  0  0  0  0
 27 41  1  1  0  0  0
 27 26  1  0  0  0  0
 28 27  1  0  0  0  0
 28 30  1  0  0  0  0
 29 33  1  0  0  0  0
 30 33  1  0  0  0  0
 31 32  1  1  0  0  0
 31 28  1  0  0  0  0
 31 29  1  0  0  0  0
 34 31  1  0  0  0  0
 35 34  1  0  0  0  0
 36 40  1  0  0  0  0
 37 36  2  0  0  0  0
 37 39  1  0  0  0  0
 38 37  1  0  0  0  0
 39 35  2  0  0  0  0
 40 35  1  0  0  0  0
 42 43  1  0  0  0  0
 43 41  1  0  0  0  0
M  END
>  <MODEL>
3

>  <REMARK>
 VINA RESULT:      -9.2      2.988      5.005
  Name = 
  10 active torsions:
  status: ('A' for Active; 'I' for Inactive)
    1  A    between atoms: C_1  and  C_35
    2  A    between atoms: C_2  and  C_6
    3  A    between atoms: C_2  and  C_13
    4  A    between atoms: C_3  and  N_4
    5  A    between atoms: C_3  and  C_6
    6  A    between atoms: C_3  and  C_12
    7  A    between atoms: C_11  and  C_14
    8  A    between atoms: C_12  and  O_17
    9  A    between atoms: C_14  and  C_22
   10  A    between atoms: C_19  and  C_37
                            x       y       z     vdW  Elec       q    Type
                         _______ _______ _______ _____ _____    ______ ____

>  <TORSDO>
F 10

$$$$
=
 OpenBabel11052416223D

 43 48  0  0  1  0  0  0  0  0999 V2000
  186.8460  177.7630  144.3840 C   0  0  0  0  0  3  0  0  0  0  0  0
  181.7300  179.8200  139.3020 C   0  0  1  0  0  3  0  0  0  0  0  0
  185.4550  178.3180  142.4530 C   0  0  0  0  0  0  0  0  0  0  0  0
  187.7970  178.3550  140.8350 C   0  0  0  0  0  0  0  0  0  0  0  0
  183.0130  178.8910  141.2550 C   0  0  0  0  0  0  0  0  0  0  0  0
  182.7450  179.1180  138.4110 C   0  0  0  0  0  2  0  0  0  0  0  0
  180.3690  179.7940  138.6420 C   0  0  0  0  0  1  0  0  0  0  0  0
  184.1850  178.8810  140.4670 C   0  0  0  0  0  0  0  0  0  0  0  0
  181.6540  179.1110  140.6510 C   0  0  0  0  0  2  0  0  0  0  0  0
  184.1390  179.2680  139.0100 C   0  0  0  0  0  2  0  0  0  0  0  0
  186.6350  178.6150  140.3100 N   0  0  0  0  0  0  0  0  0  0  0  0
  185.4190  178.6040  141.0780 C   0  0  0  0  0  0  0  0  0  0  0  0
  184.3050  178.3150  143.1820 N   0  0  0  0  0  0  0  0  0  0  0  0
  186.7600  178.0310  143.0730 C   0  0  0  0  0  0  0  0  0  0  0  0
  187.9160  178.0580  142.2320 N   0  0  0  0  0  2  0  0  0  0  0  0
  183.1010  178.5870  142.6150 C   0  0  0  0  0  3  0  0  0  0  0  0
  189.1030  177.1790  147.3350 C   0  0  0  0  0  3  0  0  0  0  0  0
  190.3370  176.9370  146.7250 C   0  0  0  0  0  0  0  0  0  0  0  0
  189.3110  177.2170  144.5510 C   0  0  0  0  0  3  0  0  0  0  0  0
  187.9760  177.4460  146.5520 C   0  0  0  0  0  3  0  0  0  0  0  0
  188.0700  177.4680  145.1560 C   0  0  0  0  0  0  0  0  0  0  0  0
  190.4400  176.9490  145.3310 C   0  0  0  0  0  3  0  0  0  0  0  0
  192.3460  175.7120  146.8950 O   0  0  0  0  0  1  0  0  0  0  0  0
  191.5320  176.6300  147.5580 C   0  0  0  0  0  2  0  0  0  0  0  0
  189.0180  178.4040  139.9890 C   0  0  0  0  0  2  0  0  0  0  0  0
  188.6240  178.4530  138.5200 C   0  0  0  0  0  2  0  0  0  0  0  0
  188.9060  177.1250  137.8040 C   0  0  2  0  0  3  0  0  0  0  0  0
  187.6860  176.5770  137.1720 N   0  0  0  0  0  0  0  0  0  0  0  0
  186.6210  176.2380  135.0440 C   0  0  0  0  0  2  0  0  0  0  0  0
  186.7230  177.6570  136.9740 C   0  0  0  0  0  2  0  0  0  0  0  0
  187.9090  176.0270  135.8200 C   0  0  1  0  0  0  0  0  0  0  0  0
  188.9450  176.7030  135.1570 O   0  0  0  0  0  1  0  0  0  0  0  0
  185.8350  177.2670  135.8180 C   0  0  0  0  0  2  0  0  0  0  0  0
  188.2180  174.5290  135.9170 C   0  0  0  0  0  2  0  0  0  0  0  0
  187.0400  173.7140  136.3470 C   0  0  0  0  0  0  0  0  0  0  0  0
  185.5330  172.8690  137.6360 N   0  0  0  0  0  0  0  0  0  0  0  0
  185.3960  172.3360  136.4100 C   0  0  0  0  0  0  0  0  0  0  0  0
  184.3570  171.3330  136.0590 C   0  0  0  0  0  1  0  0  0  0  0  0
  186.3410  172.8400  135.5370 C   0  0  0  0  0  3  0  0  0  0  0  0
  186.5470  173.7160  137.5990 N   0  0  0  0  0  2  0  0  0  0  0  0
  189.5260  176.1360  138.7910 C   0  0  0  0  0  2  0  0  0  0  0  0
  191.5510  176.3620  137.9490 C   0  0  0  0  0  1  0  0  0  0  0  0
  190.5500  175.4190  138.1730 O   0  0  0  0  0  0  0  0  0  0  0  0
  1 21  1  0  0  0  0
  2  7  1  6  0  0  0
  2  9  1  0  0  0  0
  3 14  1  0  0  0  0
  3 13  1  0  0  0  0
  4 15  1  0  0  0  0
  5 16  1  0  0  0  0
  6 10  1  0  0  0  0
  6  2  1  0  0  0  0
  8 12  1  0  0  0  0
  8  5  2  0  0  0  0
  9  5  1  0  0  0  0
 10  8  1  0  0  0  0
 11  4  2  0  0  0  0
 11 12  1  0  0  0  0
 12  3  2  0  0  0  0
 14  1  2  0  0  0  0
 15 14  1  0  0  0  0
 16 13  2  0  0  0  0
 18 17  1  0  0  0  0
 18 24  1  0  0  0  0
 19 21  2  0  0  0  0
 19 22  1  0  0  0  0
 20 17  2  0  0  0  0
 21 20  1  0  0  0  0
 22 18  2  0  0  0  0
 23 24  1  0  0  0  0
 25  4  1  0  0  0  0
 26 25  1  0  0  0  0
 27 26  1  1  0  0  0
 27 41  1  0  0  0  0
 28 27  1  0  0  0  0
 29 33  1  0  0  0  0
 29 31  1  0  0  0  0
 30 28  1  0  0  0  0
 31 32  1  6  0  0  0
 31 34  1  0  0  0  0
 31 28  1  0  0  0  0
 33 30  1  0  0  0  0
 34 35  1  0  0  0  0
 35 40  1  0  0  0  0
 37 36  2  0  0  0  0
 38 37  1  0  0  0  0
 39 35  2  0  0  0  0
 39 37  1  0  0  0  0
 40 36  1  0  0  0  0
 42 43  1  0  0  0  0
 43 41  1  0  0  0  0
M  END
>  <MODEL>
4

>  <REMARK>
 VINA RESULT:      -9.2      2.207      6.516
  Name = 
  10 active torsions:
  status: ('A' for Active; 'I' for Inactive)
    1  A    between atoms: C_1  and  C_35
    2  A    between atoms: C_2  and  C_6
    3  A    between atoms: C_2  and  C_13
    4  A    between atoms: C_3  and  N_4
    5  A    between atoms: C_3  and  C_6
    6  A    between atoms: C_3  and  C_12
    7  A    between atoms: C_11  and  C_14
    8  A    between atoms: C_12  and  O_17
    9  A    between atoms: C_14  and  C_22
   10  A    between atoms: C_19  and  C_37
                            x       y       z     vdW  Elec       q    Type
                         _______ _______ _______ _____ _____    ______ ____

>  <TORSDO>
F 10

$$$$
=
 OpenBabel11052416223D

 43 48  0  0  1  0  0  0  0  0999 V2000
  186.4750  177.8950  144.4970 C   0  0  0  0  0  3  0  0  0  0  0  0
  181.3460  179.8670  139.3960 C   0  0  1  0  0  3  0  0  0  0  0  0
  185.0830  178.4280  142.5610 C   0  0  0  0  0  0  0  0  0  0  0  0
  187.4310  178.5120  140.9540 C   0  0  0  0  0  0  0  0  0  0  0  0
  182.6360  178.9580  141.3530 C   0  0  0  0  0  0  0  0  0  0  0  0
  182.3770  179.1860  138.5080 C   0  0  0  0  0  2  0  0  0  0  0  0
  179.9880  179.8170  138.7290 C   0  0  0  0  0  1  0  0  0  0  0  0
  183.8120  178.9710  140.5710 C   0  0  0  0  0  0  0  0  0  0  0  0
  181.2760  179.1540  140.7430 C   0  0  0  0  0  2  0  0  0  0  0  0
  183.7660  179.3600  139.1140 C   0  0  0  0  0  2  0  0  0  0  0  0
  186.2670  178.7520  140.4250 N   0  0  0  0  0  0  0  0  0  0  0  0
  185.0470  178.7160  141.1860 C   0  0  0  0  0  0  0  0  0  0  0  0
  183.9300  178.4020  143.2850 N   0  0  0  0  0  0  0  0  0  0  0  0
  186.3890  178.1640  143.1870 C   0  0  0  0  0  0  0  0  0  0  0  0
  187.5500  178.2140  142.3510 N   0  0  0  0  0  2  0  0  0  0  0  0
  182.7230  178.6530  142.7120 C   0  0  0  0  0  3  0  0  0  0  0  0
  188.7170  177.2870  147.4550 C   0  0  0  0  0  3  0  0  0  0  0  0
  189.9680  177.1230  146.8540 C   0  0  0  0  0  0  0  0  0  0  0  0
  188.9590  177.4500  144.6780 C   0  0  0  0  0  3  0  0  0  0  0  0
  187.5890  177.5380  146.6670 C   0  0  0  0  0  3  0  0  0  0  0  0
  187.7000  177.6210  145.2750 C   0  0  0  0  0  0  0  0  0  0  0  0
  190.0880  177.1980  145.4630 C   0  0  0  0  0  3  0  0  0  0  0  0
  192.0210  175.9720  147.0070 O   0  0  0  0  0  1  0  0  0  0  0  0
  191.1640  176.8340  147.6910 C   0  0  0  0  0  2  0  0  0  0  0  0
  188.6550  178.5850  140.1140 C   0  0  0  0  0  2  0  0  0  0  0  0
  188.4710  177.7400  138.8620 C   0  0  0  0  0  2  0  0  0  0  0  0
  189.7000  176.8690  138.5690 C   0  0  2  0  0  3  0  0  0  0  0  0
  189.3280  175.6120  137.8830 N   0  0  0  0  0  0  0  0  0  0  0  0
  189.3480  174.5250  135.7390 C   0  0  0  0  0  2  0  0  0  0  0  0
  188.0030  175.7670  137.2880 C   0  0  0  0  0  2  0  0  0  0  0  0
  190.2070  175.2690  136.7470 C   0  0  1  0  0  0  0  0  0  0  0  0
  190.7210  176.4210  136.1310 O   0  0  0  0  0  1  0  0  0  0  0  0
  187.9180  174.8170  136.1180 C   0  0  0  0  0  2  0  0  0  0  0  0
  191.3440  174.3640  137.2310 C   0  0  0  0  0  2  0  0  0  0  0  0
  192.7000  174.8880  136.8810 C   0  0  0  0  0  0  0  0  0  0  0  0
  194.4890  176.0870  136.9850 N   0  0  0  0  0  0  0  0  0  0  0  0
  194.5740  175.2830  135.9120 C   0  0  0  0  0  0  0  0  0  0  0  0
  195.7350  175.2670  134.9850 C   0  0  0  0  0  1  0  0  0  0  0  0
  193.4500  174.4890  135.7910 C   0  0  0  0  0  3  0  0  0  0  0  0
  193.3340  175.8460  137.5810 N   0  0  0  0  0  2  0  0  0  0  0  0
  190.4550  176.6010  139.8720 C   0  0  0  0  0  2  0  0  0  0  0  0
  191.8960  177.5030  141.2760 C   0  0  0  0  0  1  0  0  0  0  0  0
  191.6200  177.3660  139.9170 O   0  0  0  0  0  0  0  0  0  0  0  0
  1 21  1  0  0  0  0
  2  7  1  6  0  0  0
  2  9  1  0  0  0  0
  3 14  1  0  0  0  0
  3 13  1  0  0  0  0
  4 15  1  0  0  0  0
  5 16  1  0  0  0  0
  6 10  1  0  0  0  0
  6  2  1  0  0  0  0
  8 12  1  0  0  0  0
  8  5  2  0  0  0  0
  9  5  1  0  0  0  0
 10  8  1  0  0  0  0
 11  4  2  0  0  0  0
 11 12  1  0  0  0  0
 12  3  2  0  0  0  0
 14  1  2  0  0  0  0
 15 14  1  0  0  0  0
 16 13  2  0  0  0  0
 18 17  1  0  0  0  0
 18 24  1  0  0  0  0
 19 21  2  0  0  0  0
 19 22  1  0  0  0  0
 20 17  2  0  0  0  0
 21 20  1  0  0  0  0
 22 18  2  0  0  0  0
 23 24  1  0  0  0  0
 25  4  1  0  0  0  0
 26 25  1  0  0  0  0
 27 26  1  1  0  0  0
 27 41  1  0  0  0  0
 28 27  1  0  0  0  0
 29 33  1  0  0  0  0
 29 31  1  0  0  0  0
 30 28  1  0  0  0  0
 31 32  1  6  0  0  0
 31 34  1  0  0  0  0
 31 28  1  0  0  0  0
 33 30  1  0  0  0  0
 35 34  1  0  0  0  0
 35 40  1  0  0  0  0
 36 40  1  0  0  0  0
 37 36  2  0  0  0  0
 38 37  1  0  0  0  0
 39 37  1  0  0  0  0
 39 35  2  0  0  0  0
 41 43  1  0  0  0  0
 43 42  1  0  0  0  0
M  END
>  <MODEL>
5

>  <REMARK>
 VINA RESULT:      -9.0      3.216      7.658
  Name = 
  10 active torsions:
  status: ('A' for Active; 'I' for Inactive)
    1  A    between atoms: C_1  and  C_35
    2  A    between atoms: C_2  and  C_6
    3  A    between atoms: C_2  and  C_13
    4  A    between atoms: C_3  and  N_4
    5  A    between atoms: C_3  and  C_6
    6  A    between atoms: C_3  and  C_12
    7  A    between atoms: C_11  and  C_14
    8  A    between atoms: C_12  and  O_17
    9  A    between atoms: C_14  and  C_22
   10  A    between atoms: C_19  and  C_37
                            x       y       z     vdW  Elec       q    Type
                         _______ _______ _______ _____ _____    ______ ____

>  <TORSDO>
F 10

$$$$
=
 OpenBabel11052416223D

 43 48  0  0  1  0  0  0  0  0999 V2000
  184.5740  178.2790  144.0890 C   0  0  0  0  0  3  0  0  0  0  0  0
  191.2490  176.2150  146.8090 C   0  0  1  0  0  3  0  0  0  0  0  0
  186.9020  177.7850  144.6440 C   0  0  0  0  0  0  0  0  0  0  0  0
  187.5950  178.2150  141.9170 C   0  0  0  0  0  0  0  0  0  0  0  0
  188.9140  177.0630  146.4200 C   0  0  0  0  0  0  0  0  0  0  0  0
  191.6800  177.1310  145.6730 C   0  0  0  0  0  2  0  0  0  0  0  0
  192.3410  176.1520  147.8550 C   0  0  0  0  0  1  0  0  0  0  0  0
  189.2390  177.3030  145.0670 C   0  0  0  0  0  0  0  0  0  0  0  0
  189.9690  176.7510  147.4440 C   0  0  0  0  0  2  0  0  0  0  0  0
  190.6420  177.0830  144.5580 C   0  0  0  0  0  2  0  0  0  0  0  0
  188.5090  177.8780  142.7780 N   0  0  0  0  0  0  0  0  0  0  0  0
  188.2180  177.6550  144.1690 C   0  0  0  0  0  0  0  0  0  0  0  0
  186.6230  177.5670  145.9580 N   0  0  0  0  0  0  0  0  0  0  0  0
  185.8460  178.1540  143.6850 C   0  0  0  0  0  0  0  0  0  0  0  0
  186.2290  178.3630  142.3220 N   0  0  0  0  0  2  0  0  0  0  0  0
  187.5940  177.2180  146.8440 C   0  0  0  0  0  3  0  0  0  0  0  0
  181.0900  179.3640  143.1750 C   0  0  0  0  0  3  0  0  0  0  0  0
  181.1130  179.3000  141.7790 C   0  0  0  0  0  0  0  0  0  0  0  0
  183.4210  178.5750  141.8550 C   0  0  0  0  0  3  0  0  0  0  0  0
  182.2320  179.0260  143.9100 C   0  0  0  0  0  3  0  0  0  0  0  0
  183.4040  178.6300  143.2580 C   0  0  0  0  0  0  0  0  0  0  0  0
  182.2820  178.9120  141.1180 C   0  0  0  0  0  3  0  0  0  0  0  0
  179.2810  180.7740  141.5950 O   0  0  0  0  0  1  0  0  0  0  0  0
  179.9060  179.6800  140.9970 C   0  0  0  0  0  2  0  0  0  0  0  0
  187.9600  178.4100  140.4890 C   0  0  0  0  0  2  0  0  0  0  0  0
  188.6740  177.1720  139.9660 C   0  0  0  0  0  2  0  0  0  0  0  0
  189.4510  177.4590  138.6740 C   0  0  2  0  0  3  0  0  0  0  0  0
  188.8860  176.7230  137.5220 N   0  0  0  0  0  0  0  0  0  0  0  0
  187.4030  176.9570  135.6450 C   0  0  0  0  0  2  0  0  0  0  0  0
  187.5900  176.1660  137.9010 C   0  0  0  0  0  2  0  0  0  0  0  0
  188.5940  177.5760  136.3530 C   0  0  1  0  0  0  0  0  0  0  0  0
  188.2530  178.8810  136.7440 O   0  0  0  0  0  1  0  0  0  0  0  0
  186.7770  176.0100  136.6390 C   0  0  0  0  0  2  0  0  0  0  0  0
  189.8050  177.5950  135.4150 C   0  0  0  0  0  2  0  0  0  0  0  0
  190.4100  176.2430  135.2100 C   0  0  0  0  0  0  0  0  0  0  0  0
  190.5830  174.1790  134.6120 N   0  0  0  0  0  0  0  0  0  0  0  0
  191.7140  174.5380  135.2430 C   0  0  0  0  0  0  0  0  0  0  0  0
  192.8620  173.6200  135.4620 C   0  0  0  0  0  1  0  0  0  0  0  0
  191.6610  175.8560  135.6550 C   0  0  0  0  0  2  0  0  0  0  0  0
  189.7790  175.2280  134.5940 N   0  0  0  0  0  0  0  0  0  0  0  0
  190.9290  177.1300  138.8860 C   0  0  0  0  0  2  0  0  0  0  0  0
  192.6750  177.5020  140.1810 C   0  0  0  0  0  1  0  0  0  0  0  0
  191.2880  177.3680  140.2130 O   0  0  0  0  0  0  0  0  0  0  0  0
  2  9  1  0  0  0  0
  2  7  1  1  0  0  0
  3 13  1  0  0  0  0
  4 15  1  0  0  0  0
  4 11  2  0  0  0  0
  5 16  1  0  0  0  0
  5  9  1  0  0  0  0
  6  2  1  0  0  0  0
  8  5  2  0  0  0  0
 10  8  1  0  0  0  0
 10  6  1  0  0  0  0
 11 12  1  0  0  0  0
 12  3  2  0  0  0  0
 12  8  1  0  0  0  0
 13 16  2  0  0  0  0
 14  1  2  0  0  0  0
 14  3  1  0  0  0  0
 15 14  1  0  0  0  0
 17 20  1  0  0  0  0
 18 17  2  0  0  0  0
 19 21  1  0  0  0  0
 21 20  2  0  0  0  0
 21  1  1  0  0  0  0
 22 18  1  0  0  0  0
 22 19  2  0  0  0  0
 24 23  1  0  0  0  0
 24 18  1  0  0  0  0
 25  4  1  0  0  0  0
 26 25  1  0  0  0  0
 27 41  1  1  0  0  0
 27 26  1  0  0  0  0
 28 30  1  0  0  0  0
 28 27  1  0  0  0  0
 29 31  1  0  0  0  0
 29 33  1  0  0  0  0
 31 32  1  1  0  0  0
 31 28  1  0  0  0  0
 33 30  1  0  0  0  0
 34 31  1  0  0  0  0
 35 34  1  0  0  0  0
 35 39  1  0  0  0  0
 36 37  2  0  0  0  0
 37 38  1  0  0  0  0
 37 39  1  0  0  0  0
 40 36  1  0  0  0  0
 40 35  2  0  0  0  0
 41 43  1  0  0  0  0
 42 43  1  0  0  0  0
M  END
>  <MODEL>
6

>  <REMARK>
 VINA RESULT:      -8.7      1.987      3.128
  Name = 
  10 active torsions:
  status: ('A' for Active; 'I' for Inactive)
    1  A    between atoms: C_1  and  C_35
    2  A    between atoms: C_2  and  C_6
    3  A    between atoms: C_2  and  C_13
    4  A    between atoms: C_3  and  N_4
    5  A    between atoms: C_3  and  C_6
    6  A    between atoms: C_3  and  C_12
    7  A    between atoms: C_11  and  C_14
    8  A    between atoms: C_12  and  O_17
    9  A    between atoms: C_14  and  C_22
   10  A    between atoms: C_19  and  C_37
                            x       y       z     vdW  Elec       q    Type
                         _______ _______ _______ _____ _____    ______ ____

>  <TORSDO>
F 10

$$$$
=
 OpenBabel11052416223D

 43 48  0  0  1  0  0  0  0  0999 V2000
  185.0060  178.2440  144.3010 C   0  0  0  0  0  3  0  0  0  0  0  0
  191.5980  176.0300  147.1050 C   0  0  1  0  0  3  0  0  0  0  0  0
  187.3060  177.6320  144.8540 C   0  0  0  0  0  0  0  0  0  0  0  0
  187.9080  177.5670  142.0730 C   0  0  0  0  0  0  0  0  0  0  0  0
  189.3290  177.0160  146.6580 C   0  0  0  0  0  0  0  0  0  0  0  0
  192.0540  176.7140  145.8240 C   0  0  0  0  0  2  0  0  0  0  0  0
  192.7280  176.0310  148.1120 C   0  0  0  0  0  1  0  0  0  0  0  0
  189.6110  177.0120  145.2750 C   0  0  0  0  0  0  0  0  0  0  0  0
  190.3990  176.7730  147.6860 C   0  0  0  0  0  2  0  0  0  0  0  0
  190.9650  176.5880  144.7630 C   0  0  0  0  0  2  0  0  0  0  0  0
  188.8290  177.2870  142.9480 N   0  0  0  0  0  0  0  0  0  0  0  0
  188.5840  177.3110  144.3650 C   0  0  0  0  0  0  0  0  0  0  0  0
  187.0700  177.6480  146.1950 N   0  0  0  0  0  0  0  0  0  0  0  0
  186.2430  177.9420  143.8830 C   0  0  0  0  0  0  0  0  0  0  0  0
  186.5800  177.9010  142.4930 N   0  0  0  0  0  2  0  0  0  0  0  0
  188.0470  177.3550  147.0940 C   0  0  0  0  0  3  0  0  0  0  0  0
  181.5310  179.3330  143.3590 C   0  0  0  0  0  3  0  0  0  0  0  0
  181.5390  179.1890  141.9680 C   0  0  0  0  0  0  0  0  0  0  0  0
  183.8360  178.4300  142.0650 C   0  0  0  0  0  3  0  0  0  0  0  0
  182.6750  179.0190  144.1010 C   0  0  0  0  0  3  0  0  0  0  0  0
  183.8330  178.5660  143.4620 C   0  0  0  0  0  0  0  0  0  0  0  0
  182.6950  178.7430  141.3200 C   0  0  0  0  0  3  0  0  0  0  0  0
  180.0410  180.8990  141.3380 O   0  0  0  0  0  1  0  0  0  0  0  0
  180.3300  179.5430  141.1770 C   0  0  0  0  0  2  0  0  0  0  0  0
  188.2240  177.5030  140.6220 C   0  0  0  0  0  2  0  0  0  0  0  0
  187.3810  178.5210  139.8660 C   0  0  0  0  0  2  0  0  0  0  0  0
  186.5940  177.8760  138.7170 C   0  0  2  0  0  3  0  0  0  0  0  0
  187.2590  178.0910  137.4130 N   0  0  0  0  0  0  0  0  0  0  0  0
  188.9010  177.1590  135.9260 C   0  0  0  0  0  2  0  0  0  0  0  0
  188.5150  178.8030  137.6290 C   0  0  0  0  0  2  0  0  0  0  0  0
  187.6520  176.8430  136.7300 C   0  0  1  0  0  0  0  0  0  0  0  0
  187.9600  175.8300  137.6510 O   0  0  0  0  0  1  0  0  0  0  0  0
  189.4360  178.4540  136.4850 C   0  0  0  0  0  2  0  0  0  0  0  0
  186.5290  176.3930  135.7900 C   0  0  0  0  0  2  0  0  0  0  0  0
  186.0060  175.0290  136.1100 C   0  0  0  0  0  0  0  0  0  0  0  0
  185.0100  173.4530  137.1910 N   0  0  0  0  0  0  0  0  0  0  0  0
  185.5730  172.9270  136.0890 C   0  0  0  0  0  0  0  0  0  0  0  0
  185.4880  171.4890  135.7270 C   0  0  0  0  0  1  0  0  0  0  0  0
  186.2320  173.8940  135.3540 C   0  0  0  0  0  3  0  0  0  0  0  0
  185.2790  174.7470  137.2050 N   0  0  0  0  0  2  0  0  0  0  0  0
  185.1620  178.4100  138.7180 C   0  0  0  0  0  2  0  0  0  0  0  0
  183.1300  178.2140  137.8820 C   0  0  0  0  0  1  0  0  0  0  0  0
  184.4660  177.9200  137.6130 O   0  0  0  0  0  0  0  0  0  0  0  0
  2  9  1  0  0  0  0
  2  7  1  1  0  0  0
  3 13  1  0  0  0  0
  4 15  1  0  0  0  0
  4 11  2  0  0  0  0
  5 16  1  0  0  0  0
  5  9  1  0  0  0  0
  6  2  1  0  0  0  0
  8  5  2  0  0  0  0
 10  8  1  0  0  0  0
 10  6  1  0  0  0  0
 11 12  1  0  0  0  0
 12  3  2  0  0  0  0
 12  8  1  0  0  0  0
 13 16  2  0  0  0  0
 14  1  2  0  0  0  0
 14  3  1  0  0  0  0
 15 14  1  0  0  0  0
 17 20  1  0  0  0  0
 18 17  2  0  0  0  0
 19 21  1  0  0  0  0
 21 20  2  0  0  0  0
 21  1  1  0  0  0  0
 22 18  1  0  0  0  0
 22 19  2  0  0  0  0
 24 23  1  0  0  0  0
 24 18  1  0  0  0  0
 25  4  1  0  0  0  0
 26 25  1  0  0  0  0
 27 41  1  6  0  0  0
 27 26  1  0  0  0  0
 28 30  1  0  0  0  0
 28 27  1  0  0  0  0
 29 33  1  0  0  0  0
 29 31  1  0  0  0  0
 31 28  1  0  0  0  0
 31 32  1  1  0  0  0
 33 30  1  0  0  0  0
 34 35  1  0  0  0  0
 34 31  1  0  0  0  0
 35 40  1  0  0  0  0
 36 40  1  0  0  0  0
 37 36  2  0  0  0  0
 38 37  1  0  0  0  0
 39 37  1  0  0  0  0
 39 35  2  0  0  0  0
 43 42  1  0  0  0  0
 43 41  1  0  0  0  0
M  END
>  <MODEL>
7

>  <REMARK>
 VINA RESULT:      -8.3      1.139      2.210
  Name = 
  10 active torsions:
  status: ('A' for Active; 'I' for Inactive)
    1  A    between atoms: C_1  and  C_35
    2  A    between atoms: C_2  and  C_6
    3  A    between atoms: C_2  and  C_13
    4  A    between atoms: C_3  and  N_4
    5  A    between atoms: C_3  and  C_6
    6  A    between atoms: C_3  and  C_12
    7  A    between atoms: C_11  and  C_14
    8  A    between atoms: C_12  and  O_17
    9  A    between atoms: C_14  and  C_22
   10  A    between atoms: C_19  and  C_37
                            x       y       z     vdW  Elec       q    Type
                         _______ _______ _______ _____ _____    ______ ____

>  <TORSDO>
F 10

$$$$
=
 OpenBabel11052416223D

 43 48  0  0  1  0  0  0  0  0999 V2000
  189.1150  177.0990  143.4240 C   0  0  0  0  0  3  0  0  0  0  0  0
  189.5290  176.9520  135.9390 C   0  0  1  0  0  3  0  0  0  0  0  0
  188.9770  177.3520  140.9980 C   0  0  0  0  0  0  0  0  0  0  0  0
  186.4910  178.6990  141.3260 C   0  0  0  0  0  0  0  0  0  0  0  0
  189.9420  176.9690  138.4190 C   0  0  0  0  0  0  0  0  0  0  0  0
  188.7210  178.2240  136.1500 C   0  0  0  0  0  2  0  0  0  0  0  0
  190.2420  177.0170  134.6060 C   0  0  0  0  0  1  0  0  0  0  0  0
  188.7220  177.6550  138.6070 C   0  0  0  0  0  0  0  0  0  0  0  0
  190.5560  176.8040  137.0570 C   0  0  0  0  0  2  0  0  0  0  0  0
  187.8940  178.0970  137.4260 C   0  0  0  0  0  2  0  0  0  0  0  0
  186.9770  178.5030  140.1350 N   0  0  0  0  0  0  0  0  0  0  0  0
  188.2310  177.8350  139.9100 C   0  0  0  0  0  0  0  0  0  0  0  0
  190.1610  176.7140  140.7860 N   0  0  0  0  0  0  0  0  0  0  0  0
  188.4430  177.5520  142.3560 C   0  0  0  0  0  0  0  0  0  0  0  0
  187.1920  178.2330  142.4850 N   0  0  0  0  0  2  0  0  0  0  0  0
  190.6520  176.5210  139.5340 C   0  0  0  0  0  3  0  0  0  0  0  0
  189.3750  177.0960  147.1760 C   0  0  0  0  0  3  0  0  0  0  0  0
  188.0620  177.3700  147.5680 C   0  0  0  0  0  0  0  0  0  0  0  0
  187.3990  177.4890  145.2430 C   0  0  0  0  0  3  0  0  0  0  0  0
  189.6970  177.0120  145.8180 C   0  0  0  0  0  3  0  0  0  0  0  0
  188.7140  177.2070  144.8420 C   0  0  0  0  0  0  0  0  0  0  0  0
  187.0740  177.5740  146.6000 C   0  0  0  0  0  3  0  0  0  0  0  0
  188.6050  178.3640  149.6370 O   0  0  0  0  0  1  0  0  0  0  0  0
  187.7240  177.4810  149.0130 C   0  0  0  0  0  2  0  0  0  0  0  0
  185.1790  179.3790  141.4870 C   0  0  0  0  0  2  0  0  0  0  0  0
  184.1130  178.3580  141.8580 C   0  0  0  0  0  2  0  0  0  0  0  0
  182.9340  178.3730  140.8750 C   0  0  2  0  0  3  0  0  0  0  0  0
  181.6390  178.2280  141.5740 N   0  0  0  0  0  0  0  0  0  0  0  0
  179.7040  179.4610  142.2920 C   0  0  0  0  0  2  0  0  0  0  0  0
  181.8170  178.5620  142.9850 C   0  0  0  0  0  2  0  0  0  0  0  0
  180.5970  179.1610  141.1010 C   0  0  1  0  0  0  0  0  0  0  0  0
  181.1560  180.3660  140.6480 O   0  0  0  0  0  1  0  0  0  0  0  0
  180.4830  179.0330  143.5110 C   0  0  0  0  0  2  0  0  0  0  0  0
  179.7770  178.4970  139.9900 C   0  0  0  0  0  2  0  0  0  0  0  0
  179.5530  177.0360  140.2200 C   0  0  0  0  0  0  0  0  0  0  0  0
  178.9800  175.2150  141.2210 N   0  0  0  0  0  0  0  0  0  0  0  0
  179.5210  174.8980  140.0330 C   0  0  0  0  0  0  0  0  0  0  0  0
  179.6730  173.5040  139.5430 C   0  0  0  0  0  1  0  0  0  0  0  0
  179.9120  176.0300  139.3430 C   0  0  0  0  0  3  0  0  0  0  0  0
  179.0010  176.5320  141.3380 N   0  0  0  0  0  2  0  0  0  0  0  0
  183.1360  177.2820  139.8230 C   0  0  0  0  0  2  0  0  0  0  0  0
  184.2080  177.2880  137.8960 C   0  0  0  0  0  1  0  0  0  0  0  0
  183.1030  177.8380  138.5440 O   0  0  0  0  0  0  0  0  0  0  0  0
  1 21  1  0  0  0  0
  2  7  1  6  0  0  0
  2  6  1  0  0  0  0
  2  9  1  0  0  0  0
  3 14  1  0  0  0  0
  4 25  1  0  0  0  0
  4 15  1  0  0  0  0
  5  8  2  0  0  0  0
  5 16  1  0  0  0  0
  6 10  1  0  0  0  0
  8 12  1  0  0  0  0
  9  5  1  0  0  0  0
 10  8  1  0  0  0  0
 11  4  2  0  0  0  0
 12 11  1  0  0  0  0
 12  3  2  0  0  0  0
 13  3  1  0  0  0  0
 14 15  1  0  0  0  0
 14  1  2  0  0  0  0
 16 13  2  0  0  0  0
 17 18  1  0  0  0  0
 18 24  1  0  0  0  0
 19 22  1  0  0  0  0
 20 17  2  0  0  0  0
 21 19  2  0  0  0  0
 21 20  1  0  0  0  0
 22 18  2  0  0  0  0
 24 23  1  0  0  0  0
 25 26  1  0  0  0  0
 27 41  1  6  0  0  0
 27 28  1  0  0  0  0
 27 26  1  0  0  0  0
 28 30  1  0  0  0  0
 29 33  1  0  0  0  0
 30 33  1  0  0  0  0
 31 32  1  6  0  0  0
 31 28  1  0  0  0  0
 31 29  1  0  0  0  0
 34 35  1  0  0  0  0
 34 31  1  0  0  0  0
 35 40  1  0  0  0  0
 36 40  1  0  0  0  0
 37 36  2  0  0  0  0
 38 37  1  0  0  0  0
 39 37  1  0  0  0  0
 39 35  2  0  0  0  0
 42 43  1  0  0  0  0
 43 41  1  0  0  0  0
M  END
>  <MODEL>
8

>  <REMARK>
 VINA RESULT:      -8.3      3.277      7.383
  Name = 
  10 active torsions:
  status: ('A' for Active; 'I' for Inactive)
    1  A    between atoms: C_1  and  C_35
    2  A    between atoms: C_2  and  C_6
    3  A    between atoms: C_2  and  C_13
    4  A    between atoms: C_3  and  N_4
    5  A    between atoms: C_3  and  C_6
    6  A    between atoms: C_3  and  C_12
    7  A    between atoms: C_11  and  C_14
    8  A    between atoms: C_12  and  O_17
    9  A    between atoms: C_14  and  C_22
   10  A    between atoms: C_19  and  C_37
                            x       y       z     vdW  Elec       q    Type
                         _______ _______ _______ _____ _____    ______ ____

>  <TORSDO>
F 10

$$$$
=
 OpenBabel11052416223D

 43 48  0  0  1  0  0  0  0  0999 V2000
  187.0680  173.5210  136.2070 C   0  0  0  0  0  3  0  0  0  0  0  0
  194.4220  174.8840  136.7400 C   0  0  1  0  0  3  0  0  0  0  0  0
  189.3600  174.2280  136.6730 C   0  0  0  0  0  0  0  0  0  0  0  0
  188.3350  176.5710  137.9210 C   0  0  0  0  0  0  0  0  0  0  0  0
  192.1170  173.8970  136.5460 C   0  0  0  0  0  0  0  0  0  0  0  0
  193.9100  175.6240  137.9670 C   0  0  0  0  0  2  0  0  0  0  0  0
  195.8730  174.5060  136.9420 C   0  0  0  0  0  1  0  0  0  0  0  0
  191.5860  175.0410  137.1810 C   0  0  0  0  0  0  0  0  0  0  0  0
  193.5950  173.6210  136.5190 C   0  0  0  0  0  2  0  0  0  0  0  0
  192.4930  176.1260  137.7060 C   0  0  0  0  0  2  0  0  0  0  0  0
  189.6190  176.3800  137.8450 N   0  0  0  0  0  0  0  0  0  0  0  0
  190.1930  175.2120  137.2320 C   0  0  0  0  0  0  0  0  0  0  0  0
  189.9020  173.1250  136.0860 N   0  0  0  0  0  0  0  0  0  0  0  0
  187.9020  174.4270  136.7360 C   0  0  0  0  0  0  0  0  0  0  0  0
  187.4200  175.6150  137.3710 N   0  0  0  0  0  2  0  0  0  0  0  0
  191.2470  172.9420  136.0180 C   0  0  0  0  0  3  0  0  0  0  0  0
  183.4910  172.9010  137.1930 C   0  0  0  0  0  3  0  0  0  0  0  0
  182.7840  173.5970  136.2090 C   0  0  0  0  0  0  0  0  0  0  0  0
  184.8750  174.2780  135.1970 C   0  0  0  0  0  3  0  0  0  0  0  0
  184.8900  172.8890  137.1740 C   0  0  0  0  0  3  0  0  0  0  0  0
  185.5920  173.5760  136.1780 C   0  0  0  0  0  0  0  0  0  0  0  0
  183.4770  174.2920  135.2140 C   0  0  0  0  0  3  0  0  0  0  0  0
  180.8190  172.5310  136.9610 O   0  0  0  0  0  1  0  0  0  0  0  0
  181.2970  173.6270  136.2420 C   0  0  0  0  0  2  0  0  0  0  0  0
  187.8080  177.8110  138.5500 C   0  0  0  0  0  2  0  0  0  0  0  0
  188.9050  178.4810  139.3650 C   0  0  0  0  0  2  0  0  0  0  0  0
  188.6960  178.2960  140.8740 C   0  0  2  0  0  3  0  0  0  0  0  0
  189.6190  177.2840  141.4330 N   0  0  0  0  0  0  0  0  0  0  0  0
  191.2080  176.9110  143.1980 C   0  0  0  0  0  2  0  0  0  0  0  0
  190.9560  177.5040  140.8880 C   0  0  0  0  0  2  0  0  0  0  0  0
  189.7950  177.3790  142.8960 C   0  0  1  0  0  0  0  0  0  0  0  0
  189.6580  178.7020  143.3430 O   0  0  0  0  0  1  0  0  0  0  0  0
  191.9480  176.9540  141.8840 C   0  0  0  0  0  2  0  0  0  0  0  0
  188.7830  176.4660  143.5970 C   0  0  0  0  0  2  0  0  0  0  0  0
  188.1920  177.0800  144.8250 C   0  0  0  0  0  0  0  0  0  0  0  0
  188.0220  177.7370  146.8710 N   0  0  0  0  0  0  0  0  0  0  0  0
  186.8630  177.9930  146.2420 C   0  0  0  0  0  0  0  0  0  0  0  0
  185.6910  178.6270  146.8990 C   0  0  0  0  0  1  0  0  0  0  0  0
  186.9100  177.5890  144.9210 C   0  0  0  0  0  3  0  0  0  0  0  0
  188.8400  177.1730  146.0000 N   0  0  0  0  0  2  0  0  0  0  0  0
  187.2340  177.9410  141.1450 C   0  0  0  0  0  2  0  0  0  0  0  0
  185.3010  179.0030  141.1540 C   0  0  0  0  0  1  0  0  0  0  0  0
  186.5750  179.0270  141.7200 O   0  0  0  0  0  0  0  0  0  0  0  0
  1 14  2  0  0  0  0
  2  7  1  1  0  0  0
  2  6  1  0  0  0  0
  3 14  1  0  0  0  0
  3 12  1  0  0  0  0
  4 25  1  0  0  0  0
  5  8  1  0  0  0  0
  8 12  2  0  0  0  0
  8 10  1  0  0  0  0
  9  5  1  0  0  0  0
  9  2  1  0  0  0  0
 10  6  1  0  0  0  0
 11  4  2  0  0  0  0
 12 11  1  0  0  0  0
 13  3  2  0  0  0  0
 14 15  1  0  0  0  0
 15  4  1  0  0  0  0
 16 13  1  0  0  0  0
 16  5  2  0  0  0  0
 18 24  1  0  0  0  0
 18 17  2  0  0  0  0
 19 22  2  0  0  0  0
 19 21  1  0  0  0  0
 20 17  1  0  0  0  0
 21  1  1  0  0  0  0
 21 20  2  0  0  0  0
 22 18  1  0  0  0  0
 24 23  1  0  0  0  0
 25 26  1  0  0  0  0
 27 26  1  6  0  0  0
 27 41  1  0  0  0  0
 27 28  1  0  0  0  0
 28 31  1  0  0  0  0
 30 28  1  0  0  0  0
 30 33  1  0  0  0  0
 31 29  1  0  0  0  0
 31 32  1  1  0  0  0
 31 34  1  0  0  0  0
 33 29  1  0  0  0  0
 34 35  1  0  0  0  0
 35 39  2  0  0  0  0
 35 40  1  0  0  0  0
 37 36  2  0  0  0  0
 37 38  1  0  0  0  0
 39 37  1  0  0  0  0
 40 36  1  0  0  0  0
 41 43  1  0  0  0  0
 42 43  1  0  0  0  0
M  END
>  <MODEL>
9

>  <REMARK>
 VINA RESULT:      -8.1      3.094      8.508
  Name = 
  10 active torsions:
  status: ('A' for Active; 'I' for Inactive)
    1  A    between atoms: C_1  and  C_35
    2  A    between atoms: C_2  and  C_6
    3  A    between atoms: C_2  and  C_13
    4  A    between atoms: C_3  and  N_4
    5  A    between atoms: C_3  and  C_6
    6  A    between atoms: C_3  and  C_12
    7  A    between atoms: C_11  and  C_14
    8  A    between atoms: C_12  and  O_17
    9  A    between atoms: C_14  and  C_22
   10  A    between atoms: C_19  and  C_37
                            x       y       z     vdW  Elec       q    Type
                         _______ _______ _______ _____ _____    ______ ____

>  <TORSDO>
F 10

$$$$
