=
 OpenBabel11052414413D

 32 37  0  0  1  0  0  0  0  0999 V2000
  187.3860  178.2360  141.2360 C   0  0  1  0  0  3  0  0  0  0  0  0
  188.4620  177.3560  139.1570 C   0  0  1  0  0  3  0  0  0  0  0  0
  186.3880  179.2850  141.7180 C   0  0  0  0  0  2  0  0  0  0  0  0
  187.4690  178.3550  139.7190 C   0  0  1  0  0  3  0  0  0  0  0  0
  188.4800  177.4170  137.6850 N   0  0  1  0  0  0  0  0  0  0  0  0
  193.3330  176.5800  139.0290 C   0  0  0  0  0  3  0  0  0  0  0  0
  189.8040  177.7840  139.7540 C   0  0  1  0  0  3  0  0  0  0  0  0
  191.9220  176.0040  137.1490 C   0  0  0  0  0  3  0  0  0  0  0  0
  190.8160  176.5620  137.8000 C   0  0  0  0  0  0  0  0  0  0  0  0
  186.1390  178.2640  139.0420 C   0  0  0  0  0  0  0  0  0  0  0  0
  189.4680  176.4680  137.1420 C   0  0  0  0  0  2  0  0  0  0  0  0
  186.1020  177.8700  137.7050 O   0  0  0  0  0  0  0  0  0  0  0  0
  185.0190  178.6280  139.6750 C   0  0  0  0  0  3  0  0  0  0  0  0
  189.7810  177.5550  141.2010 N   0  0  0  0  0  2  0  0  0  0  0  0
  188.7960  178.4600  141.8200 C   0  0  2  0  0  3  0  0  0  0  0  0
  190.9620  177.0970  139.0930 C   0  0  0  0  0  0  0  0  0  0  0  0
  187.1430  177.0680  137.1380 C   0  0  2  0  0  3  0  0  0  0  0  0
  184.9980  178.9760  141.1470 C   0  0  0  0  0  2  0  0  0  0  0  0
  193.1790  176.0150  137.7610 C   0  0  0  0  0  3  0  0  0  0  0  0
  192.2300  177.1280  139.6890 C   0  0  0  0  0  3  0  0  0  0  0  0
  190.6760  177.0460  144.6360 C   0  0  1  0  0  3  0  0  0  0  0  0
  188.2910  176.8580  147.4580 O   0  0  0  0  0  0  0  0  0  0  0  0
  192.0540  176.9270  144.6020 F   0  0  0  0  0  0  0  0  0  0  0  0
  187.7330  177.1280  145.2280 N   0  0  0  0  0  2  0  0  0  0  0  0
  188.8060  178.3080  143.3460 C   0  0  1  0  0  3  0  0  0  0  0  0
  190.1970  177.1270  146.0790 C   0  0  0  0  0  2  0  0  0  0  0  0
  187.9880  177.0950  143.7930 C   0  0  0  0  0  2  0  0  0  0  0  0
  190.2170  178.2540  143.8660 C   0  0  0  0  0  0  0  0  0  0  0  0
  190.9360  179.3780  143.8920 C   0  0  0  0  0  2  0  0  0  0  0  0
  188.7060  177.0100  146.2800 C   0  0  0  0  0  0  0  0  0  0  0  0
  186.7780  175.5760  137.2440 C   0  0  0  0  0  2  0  0  0  0  0  0
  185.3970  175.3860  137.1680 O   0  0  0  0  0  1  0  0  0  0  0  0
  1  3  1  1  0  0  0
  1 15  1  0  0  0  0
  2  4  1  0  0  0  0
  2  7  1  0  0  0  0
  4  1  1  0  0  0  0
  5  2  1  0  0  0  0
  6 20  1  0  0  0  0
  7 14  1  0  0  0  0
  8 19  1  0  0  0  0
  8  9  2  0  0  0  0
  9 16  1  0  0  0  0
 10 13  2  0  0  0  0
 10  4  1  0  0  0  0
 11  5  1  0  0  0  0
 11  9  1  0  0  0  0
 12 10  1  0  0  0  0
 13 18  1  0  0  0  0
 14 15  1  0  0  0  0
 15 25  1  0  0  0  0
 16 20  2  0  0  0  0
 16  7  1  0  0  0  0
 17 31  1  0  0  0  0
 17  5  1  0  0  0  0
 17 12  1  0  0  0  0
 18  3  1  0  0  0  0
 19  6  2  0  0  0  0
 21 26  1  0  0  0  0
 23 21  1  0  0  0  0
 24 30  1  0  0  0  0
 25 27  1  0  0  0  0
 25 28  1  0  0  0  0
 26 30  1  0  0  0  0
 27 24  1  0  0  0  0
 28 29  2  0  0  0  0
 28 21  1  0  0  0  0
 30 22  2  0  0  0  0
 32 31  1  0  0  0  0
M  END
>  <MODEL>
1

>  <REMARK>
 VINA RESULT:      -9.0      0.000      0.000
  Name = 
  2 active torsions:
  status: ('A' for Active; 'I' for Inactive)
    1  A    between atoms: C_13  and  C_29
    2  A    between atoms: C_16  and  C_27
                            x       y       z     vdW  Elec       q    Type
                         _______ _______ _______ _____ _____    ______ ____

>  <TORSDO>
F 2

$$$$
=
 OpenBabel11052414413D

 32 37  0  0  1  0  0  0  0  0999 V2000
  186.1760  178.0600  139.7600 C   0  0  1  0  0  3  0  0  0  0  0  0
  187.1020  177.8850  142.0770 C   0  0  1  0  0  3  0  0  0  0  0  0
  186.4800  178.6560  138.3880 C   0  0  0  0  0  2  0  0  0  0  0  0
  187.3370  178.4240  140.6780 C   0  0  1  0  0  3  0  0  0  0  0  0
  188.2620  178.1670  142.9410 N   0  0  1  0  0  0  0  0  0  0  0  0
  184.1940  178.7130  145.9750 C   0  0  0  0  0  3  0  0  0  0  0  0
  185.8510  178.6200  142.5580 C   0  0  1  0  0  3  0  0  0  0  0  0
  186.4920  178.0090  146.2530 C   0  0  0  0  0  3  0  0  0  0  0  0
  186.6900  178.0850  144.8700 C   0  0  0  0  0  0  0  0  0  0  0  0
  188.6710  178.0200  140.1390 C   0  0  0  0  0  0  0  0  0  0  0  0
  188.0200  177.6700  144.3070 C   0  0  0  0  0  2  0  0  0  0  0  0
  189.7210  177.8380  141.0370 O   0  0  0  0  0  0  0  0  0  0  0  0
  188.8760  177.9130  138.8220 C   0  0  0  0  0  3  0  0  0  0  0  0
  184.7000  178.1820  141.7620 N   0  0  0  0  0  2  0  0  0  0  0  0
  184.8770  178.6280  140.3690 C   0  0  2  0  0  3  0  0  0  0  0  0
  185.6200  178.4400  144.0290 C   0  0  0  0  0  0  0  0  0  0  0  0
  189.4780  177.5000  142.4070 C   0  0  2  0  0  3  0  0  0  0  0  0
  187.7500  178.0130  137.8170 C   0  0  0  0  0  2  0  0  0  0  0  0
  185.2470  178.3240  146.8050 C   0  0  0  0  0  3  0  0  0  0  0  0
  184.3820  178.7800  144.5920 C   0  0  0  0  0  3  0  0  0  0  0  0
  181.2580  179.1350  140.0370 C   0  0  1  0  0  3  0  0  0  0  0  0
  180.0320  176.3620  137.9190 O   0  0  0  0  0  0  0  0  0  0  0  0
  180.6520  180.3170  140.4260 F   0  0  0  0  0  0  0  0  0  0  0  0
  182.0730  176.4340  139.0070 N   0  0  0  0  0  2  0  0  0  0  0  0
  183.6500  178.2600  139.5240 C   0  0  1  0  0  3  0  0  0  0  0  0
  180.4170  178.4470  138.9710 C   0  0  0  0  0  2  0  0  0  0  0  0
  183.0260  176.9420  139.9870 C   0  0  0  0  0  2  0  0  0  0  0  0
  182.6490  179.3840  139.5230 C   0  0  0  0  0  0  0  0  0  0  0  0
  182.9150  180.4800  138.8090 C   0  0  0  0  0  2  0  0  0  0  0  0
  180.8220  177.0340  138.6300 C   0  0  0  0  0  0  0  0  0  0  0  0
  189.4990  175.9710  142.5850 C   0  0  0  0  0  2  0  0  0  0  0  0
  190.6810  175.5480  143.1960 O   0  0  0  0  0  1  0  0  0  0  0  0
  1  3  1  6  0  0  0
  1 15  1  0  0  0  0
  1  4  1  0  0  0  0
  2  7  1  0  0  0  0
  2  5  1  0  0  0  0
  4  2  1  0  0  0  0
  5 11  1  0  0  0  0
  6 19  1  0  0  0  0
  7 16  1  0  0  0  0
  8 19  2  0  0  0  0
  9  8  1  0  0  0  0
 10  4  1  0  0  0  0
 10 12  1  0  0  0  0
 11  9  1  0  0  0  0
 12 17  1  0  0  0  0
 13 10  2  0  0  0  0
 14  7  1  0  0  0  0
 15 14  1  0  0  0  0
 16 20  1  0  0  0  0
 16  9  2  0  0  0  0
 17 31  1  0  0  0  0
 17  5  1  0  0  0  0
 18  3  1  0  0  0  0
 18 13  1  0  0  0  0
 20  6  2  0  0  0  0
 21 23  1  0  0  0  0
 22 30  2  0  0  0  0
 24 27  1  0  0  0  0
 25 27  1  0  0  0  0
 25 15  1  0  0  0  0
 26 21  1  0  0  0  0
 28 25  1  0  0  0  0
 28 21  1  0  0  0  0
 29 28  2  0  0  0  0
 30 26  1  0  0  0  0
 30 24  1  0  0  0  0
 31 32  1  0  0  0  0
M  END
>  <MODEL>
2

>  <REMARK>
 VINA RESULT:      -8.9      3.841      7.937
  Name = 
  2 active torsions:
  status: ('A' for Active; 'I' for Inactive)
    1  A    between atoms: C_13  and  C_29
    2  A    between atoms: C_16  and  C_27
                            x       y       z     vdW  Elec       q    Type
                         _______ _______ _______ _____ _____    ______ ____

>  <TORSDO>
F 2

$$$$
=
 OpenBabel11052414413D

 32 37  0  0  1  0  0  0  0  0999 V2000
  186.6670  178.1030  139.3390 C   0  0  1  0  0  3  0  0  0  0  0  0
  187.1010  177.9280  141.7960 C   0  0  1  0  0  3  0  0  0  0  0  0
  187.2770  178.6410  138.0480 C   0  0  0  0  0  2  0  0  0  0  0  0
  187.6450  178.4140  140.4660 C   0  0  1  0  0  3  0  0  0  0  0  0
  188.0830  178.1580  142.8700 N   0  0  1  0  0  0  0  0  0  0  0  0
  183.5410  179.0470  145.0240 C   0  0  0  0  0  3  0  0  0  0  0  0
  185.8330  178.7570  142.0080 C   0  0  1  0  0  3  0  0  0  0  0  0
  185.6850  178.2020  145.7650 C   0  0  0  0  0  3  0  0  0  0  0  0
  186.1580  178.2290  144.4480 C   0  0  0  0  0  0  0  0  0  0  0  0
  189.0280  177.9110  140.2090 C   0  0  0  0  0  0  0  0  0  0  0  0
  187.5410  177.7140  144.1670 C   0  0  0  0  0  2  0  0  0  0  0  0
  189.8650  177.6850  141.3010 O   0  0  0  0  0  0  0  0  0  0  0  0
  189.4830  177.7560  138.9610 C   0  0  0  0  0  3  0  0  0  0  0  0
  184.8350  178.3730  141.0040 N   0  0  0  0  0  2  0  0  0  0  0  0
  185.3150  178.7690  139.6690 C   0  0  2  0  0  3  0  0  0  0  0  0
  185.3030  178.6310  143.4060 C   0  0  0  0  0  0  0  0  0  0  0  0
  189.3320  177.3990  142.5990 C   0  0  2  0  0  3  0  0  0  0  0  0
  188.5890  177.9020  137.7500 C   0  0  0  0  0  2  0  0  0  0  0  0
  184.3800  178.6120  146.0520 C   0  0  0  0  0  3  0  0  0  0  0  0
  184.0040  179.0650  143.7060 C   0  0  0  0  0  3  0  0  0  0  0  0
  181.7200  178.2790  139.1250 C   0  0  1  0  0  3  0  0  0  0  0  0
  181.4140  176.4700  135.9130 O   0  0  0  0  0  0  0  0  0  0  0  0
  180.7740  178.9380  139.8900 F   0  0  0  0  0  0  0  0  0  0  0  0
  183.3410  176.6630  137.1800 N   0  0  0  0  0  2  0  0  0  0  0  0
  184.2580  178.4600  138.6010 C   0  0  1  0  0  3  0  0  0  0  0  0
  181.1270  177.9050  137.7740 C   0  0  0  0  0  2  0  0  0  0  0  0
  184.0960  176.9520  138.3940 C   0  0  0  0  0  2  0  0  0  0  0  0
  182.9510  179.1230  138.9400 C   0  0  0  0  0  0  0  0  0  0  0  0
  182.8400  180.4440  138.7840 C   0  0  0  0  0  2  0  0  0  0  0  0
  181.9580  176.9680  136.9320 C   0  0  0  0  0  0  0  0  0  0  0  0
  189.2120  175.8770  142.7970 C   0  0  0  0  0  2  0  0  0  0  0  0
  190.4690  175.2690  142.8220 O   0  0  0  0  0  1  0  0  0  0  0  0
  1  3  1  6  0  0  0
  1 15  1  0  0  0  0
  1  4  1  0  0  0  0
  2  7  1  0  0  0  0
  2  5  1  0  0  0  0
  4  2  1  0  0  0  0
  5 11  1  0  0  0  0
  6 19  1  0  0  0  0
  7 16  1  0  0  0  0
  8 19  2  0  0  0  0
  9  8  1  0  0  0  0
 10  4  1  0  0  0  0
 10 12  1  0  0  0  0
 11  9  1  0  0  0  0
 12 17  1  0  0  0  0
 13 10  2  0  0  0  0
 14  7  1  0  0  0  0
 15 14  1  0  0  0  0
 16 20  1  0  0  0  0
 16  9  2  0  0  0  0
 17 31  1  0  0  0  0
 17  5  1  0  0  0  0
 18  3  1  0  0  0  0
 18 13  1  0  0  0  0
 20  6  2  0  0  0  0
 21 23  1  0  0  0  0
 22 30  2  0  0  0  0
 24 27  1  0  0  0  0
 25 28  1  0  0  0  0
 25 15  1  0  0  0  0
 26 21  1  0  0  0  0
 27 25  1  0  0  0  0
 28 21  1  0  0  0  0
 29 28  2  0  0  0  0
 30 24  1  0  0  0  0
 30 26  1  0  0  0  0
 31 32  1  0  0  0  0
M  END
>  <MODEL>
3

>  <REMARK>
 VINA RESULT:      -8.8      3.698      8.060
  Name = 
  2 active torsions:
  status: ('A' for Active; 'I' for Inactive)
    1  A    between atoms: C_13  and  C_29
    2  A    between atoms: C_16  and  C_27
                            x       y       z     vdW  Elec       q    Type
                         _______ _______ _______ _____ _____    ______ ____

>  <TORSDO>
F 2

$$$$
=
 OpenBabel11052414413D

 32 37  0  0  1  0  0  0  0  0999 V2000
  186.7810  177.7700  143.0680 C   0  0  1  0  0  3  0  0  0  0  0  0
  185.9820  178.1580  140.7300 C   0  0  1  0  0  3  0  0  0  0  0  0
  186.6550  178.3210  144.4860 C   0  0  0  0  0  2  0  0  0  0  0  0
  185.8970  178.6280  142.1700 C   0  0  1  0  0  3  0  0  0  0  0  0
  185.0660  178.9370  139.8780 N   0  0  1  0  0  0  0  0  0  0  0  0
  189.1890  178.1220  136.9810 C   0  0  0  0  0  3  0  0  0  0  0  0
  187.4430  178.3920  140.3440 C   0  0  1  0  0  3  0  0  0  0  0  0
  186.8140  178.3840  136.5970 C   0  0  0  0  0  3  0  0  0  0  0  0
  186.5870  178.4160  137.9770 C   0  0  0  0  0  0  0  0  0  0  0  0
  184.4840  178.7270  142.6460 C   0  0  0  0  0  0  0  0  0  0  0  0
  185.1720  178.5000  138.4750 C   0  0  0  0  0  2  0  0  0  0  0  0
  183.4930  179.0390  141.7160 O   0  0  0  0  0  0  0  0  0  0  0  0
  184.1840  178.5980  143.9420 C   0  0  0  0  0  3  0  0  0  0  0  0
  188.2950  177.4790  141.1130 N   0  0  0  0  0  2  0  0  0  0  0  0
  188.2280  177.8420  142.5400 C   0  0  2  0  0  3  0  0  0  0  0  0
  187.6660  178.2590  138.8670 C   0  0  0  0  0  0  0  0  0  0  0  0
  183.6610  178.7480  140.3240 C   0  0  2  0  0  3  0  0  0  0  0  0
  185.2070  178.1730  144.9710 C   0  0  0  0  0  2  0  0  0  0  0  0
  188.1120  178.2390  136.1000 C   0  0  0  0  0  3  0  0  0  0  0  0
  188.9670  178.1410  138.3610 C   0  0  0  0  0  3  0  0  0  0  0  0
  191.5090  177.7590  144.1820 C   0  0  1  0  0  3  0  0  0  0  0  0
  192.3150  174.1820  144.6640 O   0  0  0  0  0  0  0  0  0  0  0  0
  192.0800  178.9000  144.7180 F   0  0  0  0  0  0  0  0  0  0  0  0
  190.7000  175.0260  143.2390 N   0  0  0  0  0  2  0  0  0  0  0  0
  189.1740  176.9610  143.3660 C   0  0  1  0  0  3  0  0  0  0  0  0
  192.0550  176.5240  144.8850 C   0  0  0  0  0  2  0  0  0  0  0  0
  190.0390  176.0730  142.4690 C   0  0  0  0  0  2  0  0  0  0  0  0
  190.0090  177.8020  144.2940 C   0  0  0  0  0  0  0  0  0  0  0  0
  189.4320  178.3350  145.3720 C   0  0  0  0  0  2  0  0  0  0  0  0
  191.7120  175.2020  144.2440 C   0  0  0  0  0  0  0  0  0  0  0  0
  183.0660  177.3660  139.9980 C   0  0  0  0  0  2  0  0  0  0  0  0
  181.6870  177.3420  140.2190 O   0  0  0  0  0  1  0  0  0  0  0  0
  1  3  1  1  0  0  0
  2  4  1  0  0  0  0
  3 18  1  0  0  0  0
  4 10  1  0  0  0  0
  4  1  1  0  0  0  0
  5 17  1  0  0  0  0
  5  2  1  0  0  0  0
  6 20  1  0  0  0  0
  7  2  1  0  0  0  0
  7 14  1  0  0  0  0
  8  9  2  0  0  0  0
  9 11  1  0  0  0  0
  9 16  1  0  0  0  0
 10 13  2  0  0  0  0
 11  5  1  0  0  0  0
 12 10  1  0  0  0  0
 13 18  1  0  0  0  0
 14 15  1  0  0  0  0
 15  1  1  0  0  0  0
 15 25  1  0  0  0  0
 16  7  1  0  0  0  0
 17 12  1  0  0  0  0
 19  8  1  0  0  0  0
 19  6  2  0  0  0  0
 20 16  2  0  0  0  0
 21 28  1  0  0  0  0
 21 23  1  0  0  0  0
 21 26  1  0  0  0  0
 24 30  1  0  0  0  0
 25 28  1  0  0  0  0
 27 24  1  0  0  0  0
 27 25  1  0  0  0  0
 28 29  2  0  0  0  0
 30 22  2  0  0  0  0
 30 26  1  0  0  0  0
 31 32  1  0  0  0  0
 31 17  1  0  0  0  0
M  END
>  <MODEL>
4

>  <REMARK>
 VINA RESULT:      -8.6      2.714      3.795
  Name = 
  2 active torsions:
  status: ('A' for Active; 'I' for Inactive)
    1  A    between atoms: C_13  and  C_29
    2  A    between atoms: C_16  and  C_27
                            x       y       z     vdW  Elec       q    Type
                         _______ _______ _______ _____ _____    ______ ____

>  <TORSDO>
F 2

$$$$
=
 OpenBabel11052414413D

 32 37  0  0  1  0  0  0  0  0999 V2000
  186.0750  178.5510  142.9420 C   0  0  1  0  0  3  0  0  0  0  0  0
  188.4440  177.9200  142.4520 C   0  0  1  0  0  3  0  0  0  0  0  0
  184.9280  178.2530  143.9050 C   0  0  0  0  0  2  0  0  0  0  0  0
  187.2620  177.6990  143.3750 C   0  0  1  0  0  3  0  0  0  0  0  0
  189.6150  177.1580  142.9200 N   0  0  1  0  0  0  0  0  0  0  0  0
  189.8300  176.9060  137.8260 C   0  0  0  0  0  3  0  0  0  0  0  0
  187.9570  177.4210  141.0910 C   0  0  1  0  0  3  0  0  0  0  0  0
  191.4340  176.9320  139.6380 C   0  0  0  0  0  3  0  0  0  0  0  0
  190.4020  177.1490  140.5570 C   0  0  0  0  0  0  0  0  0  0  0  0
  187.6310  177.8800  144.8120 C   0  0  0  0  0  0  0  0  0  0  0  0
  190.7540  177.3490  142.0050 C   0  0  0  0  0  2  0  0  0  0  0  0
  188.9320  177.5720  145.2060 O   0  0  0  0  0  0  0  0  0  0  0  0
  186.7180  178.2530  145.7150 C   0  0  0  0  0  3  0  0  0  0  0  0
  186.8980  178.3110  140.6040 N   0  0  0  0  0  2  0  0  0  0  0  0
  185.7220  178.1900  141.4840 C   0  0  2  0  0  3  0  0  0  0  0  0
  189.0770  177.2870  140.1030 C   0  0  0  0  0  0  0  0  0  0  0  0
  190.0200  177.6140  144.2750 C   0  0  2  0  0  3  0  0  0  0  0  0
  185.3210  178.6820  145.3240 C   0  0  0  0  0  2  0  0  0  0  0  0
  191.1480  176.8080  138.2750 C   0  0  0  0  0  3  0  0  0  0  0  0
  188.7960  177.1350  138.7380 C   0  0  0  0  0  3  0  0  0  0  0  0
  182.3920  178.0270  139.9510 C   0  0  1  0  0  3  0  0  0  0  0  0
  181.8130  181.3450  138.4230 O   0  0  0  0  0  0  0  0  0  0  0  0
  181.5210  176.9840  140.2160 F   0  0  0  0  0  0  0  0  0  0  0  0
  183.8610  180.5020  139.0940 N   0  0  0  0  0  2  0  0  0  0  0  0
  184.5620  179.0440  140.9560 C   0  0  1  0  0  3  0  0  0  0  0  0
  181.6090  179.2640  139.5310 C   0  0  0  0  0  2  0  0  0  0  0  0
  184.7830  179.4470  139.4960 C   0  0  0  0  0  2  0  0  0  0  0  0
  183.2490  178.3340  141.1480 C   0  0  0  0  0  0  0  0  0  0  0  0
  182.7370  178.2530  142.3780 C   0  0  0  0  0  2  0  0  0  0  0  0
  182.4320  180.4000  138.9750 C   0  0  0  0  0  0  0  0  0  0  0  0
  190.6910  178.9990  144.3100 C   0  0  0  0  0  2  0  0  0  0  0  0
  192.0600  178.8930  144.5660 O   0  0  0  0  0  1  0  0  0  0  0  0
  1  4  1  0  0  0  0
  1  3  1  1  0  0  0
  2  5  1  0  0  0  0
  2  4  1  0  0  0  0
  3 18  1  0  0  0  0
  4 10  1  0  0  0  0
  5 17  1  0  0  0  0
  6 19  2  0  0  0  0
  6 20  1  0  0  0  0
  7  2  1  0  0  0  0
  8  9  2  0  0  0  0
  9 11  1  0  0  0  0
 10 12  1  0  0  0  0
 10 13  2  0  0  0  0
 11  5  1  0  0  0  0
 14  7  1  0  0  0  0
 14 15  1  0  0  0  0
 15  1  1  0  0  0  0
 16  9  1  0  0  0  0
 16  7  1  0  0  0  0
 17 31  1  0  0  0  0
 17 12  1  0  0  0  0
 18 13  1  0  0  0  0
 19  8  1  0  0  0  0
 20 16  2  0  0  0  0
 21 23  1  0  0  0  0
 21 28  1  0  0  0  0
 22 30  2  0  0  0  0
 24 27  1  0  0  0  0
 25 28  1  0  0  0  0
 25 15  1  0  0  0  0
 26 21  1  0  0  0  0
 27 25  1  0  0  0  0
 28 29  2  0  0  0  0
 30 24  1  0  0  0  0
 30 26  1  0  0  0  0
 31 32  1  0  0  0  0
M  END
>  <MODEL>
5

>  <REMARK>
 VINA RESULT:      -8.0      3.183      6.646
  Name = 
  2 active torsions:
  status: ('A' for Active; 'I' for Inactive)
    1  A    between atoms: C_13  and  C_29
    2  A    between atoms: C_16  and  C_27
                            x       y       z     vdW  Elec       q    Type
                         _______ _______ _______ _____ _____    ______ ____

>  <TORSDO>
F 2

$$$$
=
 OpenBabel11052414413D

 32 37  0  0  1  0  0  0  0  0999 V2000
  188.5790  177.7030  141.1250 C   0  0  1  0  0  3  0  0  0  0  0  0
  189.0310  177.1070  138.7380 C   0  0  1  0  0  3  0  0  0  0  0  0
  187.8770  178.7480  141.9890 C   0  0  0  0  0  2  0  0  0  0  0  0
  188.3430  178.0880  139.6690 C   0  0  1  0  0  3  0  0  0  0  0  0
  188.7350  177.4350  137.3330 N   0  0  1  0  0  0  0  0  0  0  0  0
  193.5860  175.8450  137.3230 C   0  0  0  0  0  3  0  0  0  0  0  0
  190.5190  177.2720  139.0520 C   0  0  1  0  0  3  0  0  0  0  0  0
  191.7280  175.7800  135.7730 C   0  0  0  0  0  3  0  0  0  0  0  0
  190.8860  176.3250  136.7480 C   0  0  0  0  0  0  0  0  0  0  0  0
  186.9000  178.2680  139.3270 C   0  0  0  0  0  0  0  0  0  0  0  0
  189.4280  176.5000  136.4290 C   0  0  0  0  0  2  0  0  0  0  0  0
  186.5130  178.1310  137.9950 O   0  0  0  0  0  0  0  0  0  0  0  0
  186.0120  178.6280  140.2600 C   0  0  0  0  0  3  0  0  0  0  0  0
  190.7800  176.7840  140.4100 N   0  0  0  0  0  2  0  0  0  0  0  0
  190.1000  177.6620  141.3790 C   0  0  2  0  0  3  0  0  0  0  0  0
  191.3890  176.5960  138.0340 C   0  0  0  0  0  0  0  0  0  0  0  0
  187.2740  177.3390  137.0770 C   0  0  2  0  0  3  0  0  0  0  0  0
  186.3660  178.7010  141.7280 C   0  0  0  0  0  2  0  0  0  0  0  0
  193.0760  175.5430  136.0590 C   0  0  0  0  0  3  0  0  0  0  0  0
  192.7480  176.3790  138.3050 C   0  0  0  0  0  3  0  0  0  0  0  0
  188.7560  177.5170  144.7900 C   0  0  1  0  0  3  0  0  0  0  0  0
  191.6800  177.1280  147.0200 O   0  0  0  0  0  0  0  0  0  0  0  0
  187.4020  177.3570  145.0300 F   0  0  0  0  0  0  0  0  0  0  0  0
  191.7430  177.8230  144.8140 N   0  0  0  0  0  2  0  0  0  0  0  0
  190.4210  177.2330  142.8160 C   0  0  1  0  0  3  0  0  0  0  0  0
  189.5580  177.0070  145.9780 C   0  0  0  0  0  2  0  0  0  0  0  0
  191.1640  178.3330  143.5770 C   0  0  0  0  0  2  0  0  0  0  0  0
  189.1710  176.8020  143.5340 C   0  0  0  0  0  0  0  0  0  0  0  0
  188.6210  175.6280  143.2180 C   0  0  0  0  0  2  0  0  0  0  0  0
  191.0300  177.3420  145.9650 C   0  0  0  0  0  0  0  0  0  0  0  0
  186.7240  175.9010  137.0380 C   0  0  0  0  0  2  0  0  0  0  0  0
  185.3390  175.8840  137.2160 O   0  0  0  0  0  1  0  0  0  0  0  0
  1 15  1  0  0  0  0
  1  3  1  1  0  0  0
  2  7  1  0  0  0  0
  2  4  1  0  0  0  0
  4  1  1  0  0  0  0
  5  2  1  0  0  0  0
  6 20  1  0  0  0  0
  7 14  1  0  0  0  0
  8 19  1  0  0  0  0
  8  9  2  0  0  0  0
  9 16  1  0  0  0  0
 10  4  1  0  0  0  0
 10 13  2  0  0  0  0
 11  9  1  0  0  0  0
 11  5  1  0  0  0  0
 12 10  1  0  0  0  0
 13 18  1  0  0  0  0
 14 15  1  0  0  0  0
 15 25  1  0  0  0  0
 16 20  2  0  0  0  0
 16  7  1  0  0  0  0
 17  5  1  0  0  0  0
 17 12  1  0  0  0  0
 18  3  1  0  0  0  0
 19  6  2  0  0  0  0
 21 23  1  0  0  0  0
 21 26  1  0  0  0  0
 24 30  1  0  0  0  0
 25 28  1  0  0  0  0
 25 27  1  0  0  0  0
 27 24  1  0  0  0  0
 28 21  1  0  0  0  0
 29 28  2  0  0  0  0
 30 26  1  0  0  0  0
 30 22  2  0  0  0  0
 31 17  1  0  0  0  0
 31 32  1  0  0  0  0
M  END
>  <MODEL>
6

>  <REMARK>
 VINA RESULT:      -7.9      1.585      2.023
  Name = 
  2 active torsions:
  status: ('A' for Active; 'I' for Inactive)
    1  A    between atoms: C_13  and  C_29
    2  A    between atoms: C_16  and  C_27
                            x       y       z     vdW  Elec       q    Type
                         _______ _______ _______ _____ _____    ______ ____

>  <TORSDO>
F 2

$$$$
=
 OpenBabel11052414413D

 32 37  0  0  1  0  0  0  0  0999 V2000
  184.1450  178.5920  142.6540 C   0  0  1  0  0  3  0  0  0  0  0  0
  183.4930  178.0260  140.3070 C   0  0  1  0  0  3  0  0  0  0  0  0
  183.7280  179.4600  143.8390 C   0  0  0  0  0  2  0  0  0  0  0  0
  183.1370  178.8390  141.5370 C   0  0  1  0  0  3  0  0  0  0  0  0
  182.4740  178.2040  139.2580 N   0  0  1  0  0  0  0  0  0  0  0  0
  186.9100  177.9080  136.7500 C   0  0  0  0  0  3  0  0  0  0  0  0
  184.8510  178.5790  139.8710 C   0  0  1  0  0  3  0  0  0  0  0  0
  184.6110  177.3010  136.3000 C   0  0  0  0  0  3  0  0  0  0  0  0
  184.2550  177.6560  137.6060 C   0  0  0  0  0  0  0  0  0  0  0  0
  181.7190  178.6280  141.9580 C   0  0  0  0  0  0  0  0  0  0  0  0
  182.8360  177.4380  138.0530 C   0  0  0  0  0  2  0  0  0  0  0  0
  180.7730  178.3380  140.9760 O   0  0  0  0  0  0  0  0  0  0  0  0
  181.3490  178.7910  143.2320 C   0  0  0  0  0  3  0  0  0  0  0  0
  185.8560  178.2350  140.8810 N   0  0  0  0  0  2  0  0  0  0  0  0
  185.5500  178.9530  142.1320 C   0  0  2  0  0  3  0  0  0  0  0  0
  185.2420  178.1030  138.5030 C   0  0  0  0  0  0  0  0  0  0  0  0
  181.1510  177.7270  139.7380 C   0  0  2  0  0  3  0  0  0  0  0  0
  182.3490  179.0170  144.3440 C   0  0  0  0  0  2  0  0  0  0  0  0
  185.9350  177.4290  135.8720 C   0  0  0  0  0  3  0  0  0  0  0  0
  186.5630  178.2530  138.0580 C   0  0  0  0  0  3  0  0  0  0  0  0
  188.2670  176.6690  143.0640 C   0  0  1  0  0  3  0  0  0  0  0  0
  188.8790  177.2340  146.6680 O   0  0  0  0  0  0  0  0  0  0  0  0
  189.0140  176.0030  142.1090 F   0  0  0  0  0  0  0  0  0  0  0  0
  186.9950  177.8910  145.4950 N   0  0  0  0  0  2  0  0  0  0  0  0
  186.6310  178.6840  143.1870 C   0  0  1  0  0  3  0  0  0  0  0  0
  189.0740  176.8180  144.3460 C   0  0  0  0  0  2  0  0  0  0  0  0
  186.0770  177.8760  144.3630 C   0  0  0  0  0  2  0  0  0  0  0  0
  187.8280  178.0180  142.5650 C   0  0  0  0  0  0  0  0  0  0  0  0
  188.6420  178.7460  141.7980 C   0  0  0  0  0  2  0  0  0  0  0  0
  188.3050  177.3010  145.5510 C   0  0  0  0  0  0  0  0  0  0  0  0
  181.0230  176.1960  139.8440 C   0  0  0  0  0  2  0  0  0  0  0  0
  179.9060  175.8320  140.5990 O   0  0  0  0  0  1  0  0  0  0  0  0
  1  3  1  1  0  0  0
  2  4  1  0  0  0  0
  3 18  1  0  0  0  0
  4 10  1  0  0  0  0
  4  1  1  0  0  0  0
  5 17  1  0  0  0  0
  5  2  1  0  0  0  0
  6 20  1  0  0  0  0
  7  2  1  0  0  0  0
  7 14  1  0  0  0  0
  8  9  2  0  0  0  0
  9 11  1  0  0  0  0
  9 16  1  0  0  0  0
 10 13  2  0  0  0  0
 11  5  1  0  0  0  0
 12 10  1  0  0  0  0
 13 18  1  0  0  0  0
 14 15  1  0  0  0  0
 15  1  1  0  0  0  0
 15 25  1  0  0  0  0
 16  7  1  0  0  0  0
 17 31  1  0  0  0  0
 17 12  1  0  0  0  0
 19  8  1  0  0  0  0
 19  6  2  0  0  0  0
 20 16  2  0  0  0  0
 21 26  1  0  0  0  0
 23 21  1  0  0  0  0
 24 30  1  0  0  0  0
 25 27  1  0  0  0  0
 26 30  1  0  0  0  0
 27 24  1  0  0  0  0
 28 21  1  0  0  0  0
 28 25  1  0  0  0  0
 29 28  2  0  0  0  0
 30 22  2  0  0  0  0
 31 32  1  0  0  0  0
M  END
>  <MODEL>
7

>  <REMARK>
 VINA RESULT:      -7.6      3.329      4.943
  Name = 
  2 active torsions:
  status: ('A' for Active; 'I' for Inactive)
    1  A    between atoms: C_13  and  C_29
    2  A    between atoms: C_16  and  C_27
                            x       y       z     vdW  Elec       q    Type
                         _______ _______ _______ _____ _____    ______ ____

>  <TORSDO>
F 2

$$$$
=
 OpenBabel11052414413D

 32 37  0  0  1  0  0  0  0  0999 V2000
  190.0780  177.1470  139.4710 C   0  0  1  0  0  3  0  0  0  0  0  0
  189.3560  177.4890  141.8410 C   0  0  1  0  0  3  0  0  0  0  0  0
  191.1910  177.5090  138.4920 C   0  0  0  0  0  2  0  0  0  0  0  0
  190.4290  177.7840  140.8100 C   0  0  1  0  0  3  0  0  0  0  0  0
  189.7360  178.0370  143.1540 N   0  0  1  0  0  0  0  0  0  0  0  0
  184.6880  178.7250  142.8520 C   0  0  0  0  0  3  0  0  0  0  0  0
  188.1050  178.1730  141.2880 C   0  0  1  0  0  3  0  0  0  0  0  0
  186.2870  178.3130  144.6210 C   0  0  0  0  0  3  0  0  0  0  0  0
  187.3040  178.1550  143.6740 C   0  0  0  0  0  0  0  0  0  0  0  0
  191.7930  177.4220  141.3020 C   0  0  0  0  0  0  0  0  0  0  0  0
  188.6790  177.7770  144.1480 C   0  0  0  0  0  2  0  0  0  0  0  0
  192.0500  177.5120  142.6690 O   0  0  0  0  0  0  0  0  0  0  0  0
  192.7680  177.0970  140.4460 C   0  0  0  0  0  3  0  0  0  0  0  0
  187.6830  177.4860  140.0640 N   0  0  0  0  0  2  0  0  0  0  0  0
  188.7040  177.6850  139.0200 C   0  0  2  0  0  3  0  0  0  0  0  0
  187.0030  178.2430  142.3030 C   0  0  0  0  0  0  0  0  0  0  0  0
  190.9950  177.4070  143.6320 C   0  0  2  0  0  3  0  0  0  0  0  0
  192.5160  176.9010  138.9690 C   0  0  0  0  0  2  0  0  0  0  0  0
  184.9810  178.6000  144.2120 C   0  0  0  0  0  3  0  0  0  0  0  0
  185.6970  178.5560  141.9010 C   0  0  0  0  0  3  0  0  0  0  0  0
  185.7760  176.9730  136.9270 C   0  0  1  0  0  3  0  0  0  0  0  0
  186.8150  174.2920  134.6010 O   0  0  0  0  0  0  0  0  0  0  0  0
  184.6720  177.8080  136.9160 F   0  0  0  0  0  0  0  0  0  0  0  0
  187.9090  174.8940  136.5490 N   0  0  0  0  0  2  0  0  0  0  0  0
  188.2560  177.0500  137.6970 C   0  0  1  0  0  3  0  0  0  0  0  0
  185.8590  176.2050  135.6150 C   0  0  0  0  0  2  0  0  0  0  0  0
  188.0230  175.5450  137.8490 C   0  0  0  0  0  2  0  0  0  0  0  0
  187.0410  177.7530  137.1550 C   0  0  0  0  0  0  0  0  0  0  0  0
  187.1870  178.9670  136.6180 C   0  0  0  0  0  2  0  0  0  0  0  0
  186.8650  175.0800  135.5800 C   0  0  0  0  0  0  0  0  0  0  0  0
  190.8440  175.9450  144.0930 C   0  0  0  0  0  2  0  0  0  0  0  0
  192.0560  175.2570  144.0000 O   0  0  0  0  0  1  0  0  0  0  0  0
  1  3  1  6  0  0  0
  1  4  1  0  0  0  0
  2  5  1  0  0  0  0
  3 18  1  0  0  0  0
  4 10  1  0  0  0  0
  4  2  1  0  0  0  0
  5 17  1  0  0  0  0
  5 11  1  0  0  0  0
  6 19  1  0  0  0  0
  7  2  1  0  0  0  0
  7 16  1  0  0  0  0
  9 11  1  0  0  0  0
  9  8  1  0  0  0  0
 10 12  1  0  0  0  0
 12 17  1  0  0  0  0
 13 10  2  0  0  0  0
 14  7  1  0  0  0  0
 15  1  1  0  0  0  0
 15 14  1  0  0  0  0
 16  9  2  0  0  0  0
 17 31  1  0  0  0  0
 18 13  1  0  0  0  0
 19  8  2  0  0  0  0
 20 16  1  0  0  0  0
 20  6  2  0  0  0  0
 21 28  1  0  0  0  0
 22 30  2  0  0  0  0
 23 21  1  0  0  0  0
 24 27  1  0  0  0  0
 25 27  1  0  0  0  0
 25 15  1  0  0  0  0
 26 21  1  0  0  0  0
 28 25  1  0  0  0  0
 29 28  2  0  0  0  0
 30 26  1  0  0  0  0
 30 24  1  0  0  0  0
 32 31  1  0  0  0  0
M  END
>  <MODEL>
8

>  <REMARK>
 VINA RESULT:      -7.6      2.840      7.773
  Name = 
  2 active torsions:
  status: ('A' for Active; 'I' for Inactive)
    1  A    between atoms: C_13  and  C_29
    2  A    between atoms: C_16  and  C_27
                            x       y       z     vdW  Elec       q    Type
                         _______ _______ _______ _____ _____    ______ ____

>  <TORSDO>
F 2

$$$$
=
 OpenBabel11052414413D

 32 37  0  0  1  0  0  0  0  0999 V2000
  185.6440  178.3360  139.7650 C   0  0  1  0  0  3  0  0  0  0  0  0
  186.6780  178.0100  142.0180 C   0  0  1  0  0  3  0  0  0  0  0  0
  185.9090  178.9740  138.4040 C   0  0  0  0  0  2  0  0  0  0  0  0
  186.8690  178.5970  140.6330 C   0  0  1  0  0  3  0  0  0  0  0  0
  187.8950  178.1930  142.8290 N   0  0  1  0  0  0  0  0  0  0  0  0
  184.0260  178.8200  146.0990 C   0  0  0  0  0  3  0  0  0  0  0  0
  185.4960  178.7890  142.5960 C   0  0  1  0  0  3  0  0  0  0  0  0
  186.2930  177.9830  146.2230 C   0  0  0  0  0  3  0  0  0  0  0  0
  186.4230  178.1100  144.8360 C   0  0  0  0  0  0  0  0  0  0  0  0
  188.1490  178.1470  140.0050 C   0  0  0  0  0  0  0  0  0  0  0  0
  187.6970  177.6500  144.1850 C   0  0  0  0  0  2  0  0  0  0  0  0
  189.2330  177.8710  140.8370 O   0  0  0  0  0  0  0  0  0  0  0  0
  188.2790  178.0870  138.6760 C   0  0  0  0  0  3  0  0  0  0  0  0
  184.2830  178.4470  141.8470 N   0  0  0  0  0  2  0  0  0  0  0  0
  184.4120  178.9440  140.4650 C   0  0  2  0  0  3  0  0  0  0  0  0
  185.3320  178.5570  144.0690 C   0  0  0  0  0  0  0  0  0  0  0  0
  189.0430  177.4860  142.2030 C   0  0  2  0  0  3  0  0  0  0  0  0
  187.1100  178.2910  137.7380 C   0  0  0  0  0  2  0  0  0  0  0  0
  185.0980  178.3390  146.8540 C   0  0  0  0  0  3  0  0  0  0  0  0
  184.1450  178.9370  144.7120 C   0  0  0  0  0  3  0  0  0  0  0  0
  183.0740  177.3350  137.4500 C   0  0  1  0  0  3  0  0  0  0  0  0
  179.7780  178.8970  136.8410 O   0  0  0  0  0  0  0  0  0  0  0  0
  183.6510  176.1940  136.9210 F   0  0  0  0  0  0  0  0  0  0  0  0
  181.4420  179.7380  138.2120 N   0  0  0  0  0  2  0  0  0  0  0  0
  183.1240  178.6790  139.6740 C   0  0  1  0  0  3  0  0  0  0  0  0
  181.6080  177.4110  137.0490 C   0  0  0  0  0  2  0  0  0  0  0  0
  182.8040  179.8350  138.7230 C   0  0  0  0  0  2  0  0  0  0  0  0
  183.2070  177.3640  138.9480 C   0  0  0  0  0  0  0  0  0  0  0  0
  183.1040  176.2340  139.6520 C   0  0  0  0  0  2  0  0  0  0  0  0
  180.9160  178.7190  137.3450 C   0  0  0  0  0  0  0  0  0  0  0  0
  188.9890  175.9510  142.3170 C   0  0  0  0  0  2  0  0  0  0  0  0
  190.1960  175.4360  142.7940 O   0  0  0  0  0  1  0  0  0  0  0  0
  1  3  1  6  0  0  0
  1 15  1  0  0  0  0
  1  4  1  0  0  0  0
  2  7  1  0  0  0  0
  2  5  1  0  0  0  0
  4  2  1  0  0  0  0
  5 11  1  0  0  0  0
  6 19  1  0  0  0  0
  7 16  1  0  0  0  0
  8 19  2  0  0  0  0
  9  8  1  0  0  0  0
 10  4  1  0  0  0  0
 10 12  1  0  0  0  0
 11  9  1  0  0  0  0
 12 17  1  0  0  0  0
 13 10  2  0  0  0  0
 14  7  1  0  0  0  0
 15 14  1  0  0  0  0
 16 20  1  0  0  0  0
 16  9  2  0  0  0  0
 17 31  1  0  0  0  0
 17  5  1  0  0  0  0
 18  3  1  0  0  0  0
 18 13  1  0  0  0  0
 20  6  2  0  0  0  0
 21 28  1  0  0  0  0
 22 30  2  0  0  0  0
 23 21  1  0  0  0  0
 24 27  1  0  0  0  0
 25 15  1  0  0  0  0
 26 30  1  0  0  0  0
 26 21  1  0  0  0  0
 27 25  1  0  0  0  0
 28 29  2  0  0  0  0
 28 25  1  0  0  0  0
 30 24  1  0  0  0  0
 31 32  1  0  0  0  0
M  END
>  <MODEL>
9

>  <REMARK>
 VINA RESULT:      -7.5      3.835      8.079
  Name = 
  2 active torsions:
  status: ('A' for Active; 'I' for Inactive)
    1  A    between atoms: C_13  and  C_29
    2  A    between atoms: C_16  and  C_27
                            x       y       z     vdW  Elec       q    Type
                         _______ _______ _______ _____ _____    ______ ____

>  <TORSDO>
F 2

$$$$
