=
 OpenBabel11052415273D

 37 41  0  0  1  0  0  0  0  0999 V2000
  183.1160  178.1630  141.8510 C   0  0  1  0  0  3  0  0  0  0  0  0
  179.7290  178.8810  141.2230 S   0  0  1  0  0  0  0  0  0  0  0  0
  183.6340  177.2070  139.4470 C   0  0  0  0  0  2  0  0  0  0  0  0
  180.4410  180.9980  137.4010 C   0  0  0  0  0  3  0  0  0  0  0  0
  181.1480  178.4270  140.1820 C   0  0  1  0  0  0  0  0  0  0  0  0
  180.4800  180.4030  138.6650 C   0  0  0  0  0  0  0  0  0  0  0  0
  181.1820  176.8670  140.1450 C   0  0  2  0  0  3  0  0  0  0  0  0
  180.0360  181.1700  139.7510 O   0  0  0  0  0  0  0  0  0  0  0  0
  180.9570  179.0690  138.8040 C   0  0  0  0  0  0  0  0  0  0  0  0
  181.3250  178.9950  136.3900 C   0  0  0  0  0  3  0  0  0  0  0  0
  180.2310  178.7090  142.6520 O   0  0  0  0  0  0  0  0  0  0  0  0
  179.6900  180.6310  140.9880 C   0  0  0  0  0  0  0  0  0  0  0  0
  181.3840  178.3930  137.6460 C   0  0  0  0  0  3  0  0  0  0  0  0
  182.5060  176.2140  139.7240 C   0  0  0  0  0  2  0  0  0  0  0  0
  179.3320  181.3890  141.9260 O   0  0  0  0  0  0  0  0  0  0  0  0
  182.4290  179.0530  140.8070 C   0  0  2  0  0  3  0  0  0  0  0  0
  180.8550  180.3000  136.2600 C   0  0  0  0  0  0  0  0  0  0  0  0
  183.7360  178.3510  140.4620 C   0  0  1  0  0  0  0  0  0  0  0  0
  180.8120  180.8800  134.9890 O   0  0  0  0  0  0  0  0  0  0  0  0
  180.6450  182.2770  134.7870 C   0  0  0  0  0  1  0  0  0  0  0  0
  183.7430  179.0400  142.9220 C   0  0  0  0  0  2  0  0  0  0  0  0
  184.2460  178.8800  145.3360 C   0  0  0  0  0  1  0  0  0  0  0  0
  183.1860  178.6610  144.2780 C   0  0  0  0  0  2  0  0  0  0  0  0
  184.8920  179.3280  140.2840 C   0  0  0  0  0  2  0  0  0  0  0  0
  186.0990  178.6310  140.2320 O   0  0  0  0  0  0  0  0  0  0  0  0
  186.7650  178.9950  141.4010 C   0  0  0  0  0  2  0  0  0  0  0  0
  187.1040  177.4840  143.2880 C   0  0  0  0  0  2  0  0  0  0  0  0
  187.3720  177.7860  142.0230 C   0  0  0  0  0  3  0  0  0  0  0  0
  179.9920  176.2370  139.4280 C   0  0  0  0  0  2  0  0  0  0  0  0
  180.0860  174.7230  139.4730 C   0  0  0  0  0  2  0  0  0  0  0  0
  180.1530  175.0260  136.9910 C   0  0  0  0  0  3  0  0  0  0  0  0
  180.0360  174.1700  138.0920 C   0  0  0  0  0  0  0  0  0  0  0  0
  179.8380  172.7990  137.8910 C   0  0  0  0  0  3  0  0  0  0  0  0
  179.5660  170.8280  136.3820 C   0  0  0  0  0  1  0  0  0  0  0  0
  179.8920  173.1390  135.4950 C   0  0  0  0  0  3  0  0  0  0  0  0
  179.7690  172.2840  136.5940 C   0  0  0  0  0  0  0  0  0  0  0  0
  180.0820  174.5110  135.6930 C   0  0  0  0  0  3  0  0  0  0  0  0
  1 21  1  1  0  0  0
  2 11  2  1  0  0  0
  3 14  1  0  0  0  0
  3 18  1  0  0  0  0
  4  6  1  0  0  0  0
  5  9  1  6  0  0  0
  5 16  1  0  0  0  0
  5  2  1  0  0  0  0
  6  9  2  0  0  0  0
  6  8  1  0  0  0  0
  7 29  1  6  0  0  0
  7  5  1  0  0  0  0
  8 12  1  0  0  0  0
 10 13  2  0  0  0  0
 12  2  1  0  0  0  0
 12 15  2  0  0  0  0
 13  9  1  0  0  0  0
 14  7  1  0  0  0  0
 16  1  1  0  0  0  0
 17 10  1  0  0  0  0
 17  4  2  0  0  0  0
 18 16  1  0  0  0  0
 18  1  1  0  0  0  0
 19 17  1  0  0  0  0
 20 19  1  0  0  0  0
 21 23  1  0  0  0  0
 23 22  1  0  0  0  0
 24 18  1  0  0  0  0
 25 24  1  0  0  0  0
 25 26  1  0  0  0  0
 26 28  1  0  0  0  0
 28 27  2  0  0  0  0
 29 30  1  0  0  0  0
 31 32  1  0  0  0  0
 32 30  1  0  0  0  0
 33 32  2  0  0  0  0
 34 36  1  0  0  0  0
 35 37  1  0  0  0  0
 35 36  2  0  0  0  0
 36 33  1  0  0  0  0
 37 31  2  0  0  0  0
M  END
>  <MODEL>
1

>  <REMARK>
 VINA RESULT:      -5.9      0.000      0.000
  Name = 
  10 active torsions:
  status: ('A' for Active; 'I' for Inactive)
    1  A    between atoms: C_1  and  C_5
    2  A    between atoms: O_3  and  C_32
    3  A    between atoms: C_5  and  C_23
    4  A    between atoms: C_6  and  C_31
    5  A    between atoms: C_14  and  C_37
    6  A    between atoms: O_17  and  C_26
    7  A    between atoms: O_17  and  C_33
    8  A    between atoms: C_26  and  C_34
    9  A    between atoms: C_31  and  C_37
   10  A    between atoms: C_33  and  C_36
                            x       y       z     vdW  Elec       q    Type
                         _______ _______ _______ _____ _____    ______ ____

>  <TORSDO>
F 10

$$$$
=
 OpenBabel11052415273D

 37 41  0  0  1  0  0  0  0  0999 V2000
  181.1150  180.8110  139.2510 C   0  0  1  0  0  3  0  0  0  0  0  0
  181.3460  178.8210  142.1440 S   0  0  1  0  0  0  0  0  0  0  0  0
  182.2820  179.0760  137.6430 C   0  0  0  0  0  2  0  0  0  0  0  0
  179.7460  175.1460  140.2660 C   0  0  0  0  0  3  0  0  0  0  0  0
  181.6000  178.5220  140.3690 C   0  0  1  0  0  0  0  0  0  0  0  0
  180.1080  176.4380  140.6570 C   0  0  0  0  0  0  0  0  0  0  0  0
  183.0910  178.8760  140.0760 C   0  0  2  0  0  3  0  0  0  0  0  0
  179.3110  177.0640  141.6260 O   0  0  0  0  0  0  0  0  0  0  0  0
  181.2480  177.0600  140.0750 C   0  0  0  0  0  0  0  0  0  0  0  0
  181.6080  175.0480  138.7370 C   0  0  0  0  0  3  0  0  0  0  0  0
  181.1650  180.3310  142.2560 O   0  0  0  0  0  0  0  0  0  0  0  0
  179.7170  178.1750  142.3610 C   0  0  0  0  0  0  0  0  0  0  0  0
  181.9730  176.3420  139.1060 C   0  0  0  0  0  3  0  0  0  0  0  0
  183.4620  179.1460  138.6100 C   0  0  0  0  0  2  0  0  0  0  0  0
  178.9310  178.7010  143.1900 O   0  0  0  0  0  0  0  0  0  0  0  0
  180.5930  179.4070  139.5790 C   0  0  2  0  0  3  0  0  0  0  0  0
  180.4920  174.4430  139.3120 C   0  0  0  0  0  0  0  0  0  0  0  0
  181.0030  179.7490  138.1520 C   0  0  1  0  0  0  0  0  0  0  0  0
  180.1470  173.1470  138.9180 O   0  0  0  0  0  0  0  0  0  0  0  0
  179.2010  172.8830  137.8910 C   0  0  0  0  0  1  0  0  0  0  0  0
  179.9550  181.7940  139.2710 C   0  0  0  0  0  2  0  0  0  0  0  0
  181.7730  183.1410  138.2770 C   0  0  0  0  0  1  0  0  0  0  0  0
  180.2720  182.9700  138.3720 C   0  0  0  0  0  2  0  0  0  0  0  0
  179.8150  179.7820  137.1980 C   0  0  0  0  0  2  0  0  0  0  0  0
  180.2670  179.8040  135.8780 O   0  0  0  0  0  0  0  0  0  0  0  0
  179.4260  180.7120  135.2350 C   0  0  0  0  0  2  0  0  0  0  0  0
  180.1930  183.0230  135.0590 C   0  0  0  0  0  2  0  0  0  0  0  0
  180.2460  181.7790  134.5970 C   0  0  0  0  0  3  0  0  0  0  0  0
  184.0960  177.9440  140.7460 C   0  0  0  0  0  2  0  0  0  0  0  0
  185.3360  178.7120  141.1650 C   0  0  0  0  0  2  0  0  0  0  0  0
  184.7370  178.9140  143.5860 C   0  0  0  0  0  3  0  0  0  0  0  0
  185.6260  178.4600  142.6040 C   0  0  0  0  0  0  0  0  0  0  0  0
  186.8020  177.8010  142.9780 C   0  0  0  0  0  3  0  0  0  0  0  0
  188.3300  176.8800  144.7260 C   0  0  0  0  0  1  0  0  0  0  0  0
  186.1930  178.0340  145.3100 C   0  0  0  0  0  3  0  0  0  0  0  0
  187.0840  177.5860  144.3300 C   0  0  0  0  0  0  0  0  0  0  0  0
  185.0200  178.6990  144.9380 C   0  0  0  0  0  3  0  0  0  0  0  0
  1 21  1  6  0  0  0
  1 16  1  0  0  0  0
  2 11  2  6  0  0  0
  2 12  1  0  0  0  0
  3 18  1  0  0  0  0
  3 14  1  0  0  0  0
  4  6  1  0  0  0  0
  5  9  1  6  0  0  0
  5  2  1  0  0  0  0
  6  8  1  0  0  0  0
  7  5  1  0  0  0  0
  7 29  1  6  0  0  0
  8 12  1  0  0  0  0
  9  6  2  0  0  0  0
 10 13  2  0  0  0  0
 10 17  1  0  0  0  0
 12 15  2  0  0  0  0
 13  9  1  0  0  0  0
 14  7  1  0  0  0  0
 16  5  1  0  0  0  0
 17  4  2  0  0  0  0
 18  1  1  0  0  0  0
 18 16  1  0  0  0  0
 19 17  1  0  0  0  0
 20 19  1  0  0  0  0
 22 23  1  0  0  0  0
 23 21  1  0  0  0  0
 24 18  1  0  0  0  0
 25 24  1  0  0  0  0
 26 25  1  0  0  0  0
 28 27  2  0  0  0  0
 28 26  1  0  0  0  0
 29 30  1  0  0  0  0
 30 32  1  0  0  0  0
 31 37  1  0  0  0  0
 32 33  1  0  0  0  0
 32 31  2  0  0  0  0
 33 36  2  0  0  0  0
 36 34  1  0  0  0  0
 36 35  1  0  0  0  0
 37 35  2  0  0  0  0
M  END
>  <MODEL>
2

>  <REMARK>
 VINA RESULT:      -5.9      1.813      7.312
  Name = 
  10 active torsions:
  status: ('A' for Active; 'I' for Inactive)
    1  A    between atoms: C_1  and  C_5
    2  A    between atoms: O_3  and  C_32
    3  A    between atoms: C_5  and  C_23
    4  A    between atoms: C_6  and  C_31
    5  A    between atoms: C_14  and  C_37
    6  A    between atoms: O_17  and  C_26
    7  A    between atoms: O_17  and  C_33
    8  A    between atoms: C_26  and  C_34
    9  A    between atoms: C_31  and  C_37
   10  A    between atoms: C_33  and  C_36
                            x       y       z     vdW  Elec       q    Type
                         _______ _______ _______ _____ _____    ______ ____

>  <TORSDO>
F 10

$$$$
=
 OpenBabel11052415273D

 37 41  0  0  1  0  0  0  0  0999 V2000
  184.0970  178.4340  137.7440 C   0  0  1  0  0  3  0  0  0  0  0  0
  180.8090  177.2900  137.2290 S   0  0  1  0  0  0  0  0  0  0  0  0
  183.4420  180.3860  139.3930 C   0  0  0  0  0  2  0  0  0  0  0  0
  179.7210  177.1610  141.5170 C   0  0  0  0  0  3  0  0  0  0  0  0
  181.5870  178.4420  138.3990 C   0  0  1  0  0  0  0  0  0  0  0  0
  180.3270  177.1730  140.2570 C   0  0  0  0  0  0  0  0  0  0  0  0
  181.5770  179.8400  137.7070 C   0  0  2  0  0  3  0  0  0  0  0  0
  180.4410  175.9470  139.5870 O   0  0  0  0  0  0  0  0  0  0  0  0
  180.7950  178.4010  139.7100 C   0  0  0  0  0  0  0  0  0  0  0  0
  180.0150  179.5460  141.7220 C   0  0  0  0  0  3  0  0  0  0  0  0
  181.9080  176.9660  136.2230 O   0  0  0  0  0  0  0  0  0  0  0  0
  180.6930  175.8340  138.2220 C   0  0  0  0  0  0  0  0  0  0  0  0
  180.6350  179.5720  140.4730 C   0  0  0  0  0  3  0  0  0  0  0  0
  182.5520  180.8920  138.2590 C   0  0  0  0  0  2  0  0  0  0  0  0
  180.8140  174.6970  137.6980 O   0  0  0  0  0  0  0  0  0  0  0  0
  183.0210  177.9230  138.7110 C   0  0  2  0  0  3  0  0  0  0  0  0
  179.5560  178.3420  142.2520 C   0  0  0  0  0  0  0  0  0  0  0  0
  184.0140  178.9820  139.1730 C   0  0  1  0  0  0  0  0  0  0  0  0
  178.9440  178.3450  143.5090 O   0  0  0  0  0  0  0  0  0  0  0  0
  179.1820  179.3580  144.4760 C   0  0  0  0  0  1  0  0  0  0  0  0
  185.1580  177.3600  137.5640 C   0  0  0  0  0  2  0  0  0  0  0  0
  187.5050  177.5990  136.8280 C   0  0  0  0  0  1  0  0  0  0  0  0
  186.0580  177.7270  136.4030 C   0  0  0  0  0  2  0  0  0  0  0  0
  184.9740  178.4550  140.2340 C   0  0  0  0  0  2  0  0  0  0  0  0
  185.0700  179.3700  141.2830 O   0  0  0  0  0  0  0  0  0  0  0  0
  184.8990  178.6020  142.4340 C   0  0  0  0  0  2  0  0  0  0  0  0
  182.9570  179.3710  143.6990 C   0  0  0  0  0  2  0  0  0  0  0  0
  183.4520  178.5460  142.7820 C   0  0  0  0  0  3  0  0  0  0  0  0
  180.1820  180.4230  137.5010 C   0  0  0  0  0  2  0  0  0  0  0  0
  180.0690  181.0610  136.1290 C   0  0  0  0  0  2  0  0  0  0  0  0
  180.7480  183.3150  135.2820 C   0  0  0  0  0  3  0  0  0  0  0  0
  180.1000  182.5440  136.2540 C   0  0  0  0  0  0  0  0  0  0  0  0
  179.5120  183.1660  137.3610 C   0  0  0  0  0  3  0  0  0  0  0  0
  178.9310  185.2180  138.6610 C   0  0  0  0  0  1  0  0  0  0  0  0
  180.2030  185.3270  136.5150 C   0  0  0  0  0  3  0  0  0  0  0  0
  179.5610  184.5570  137.4900 C   0  0  0  0  0  0  0  0  0  0  0  0
  180.7980  184.7060  135.4120 C   0  0  0  0  0  3  0  0  0  0  0  0
  1 21  1  1  0  0  0
  1 16  1  0  0  0  0
  1 18  1  0  0  0  0
  2 11  2  6  0  0  0
  2 12  1  0  0  0  0
  2  5  1  0  0  0  0
  4 17  1  0  0  0  0
  5 16  1  0  0  0  0
  5  9  1  1  0  0  0
  6  4  2  0  0  0  0
  7 29  1  1  0  0  0
  7 14  1  0  0  0  0
  7  5  1  0  0  0  0
  8  6  1  0  0  0  0
  9  6  1  0  0  0  0
  9 13  2  0  0  0  0
 10 17  2  0  0  0  0
 12  8  1  0  0  0  0
 13 10  1  0  0  0  0
 14  3  1  0  0  0  0
 15 12  2  0  0  0  0
 16 18  1  0  0  0  0
 17 19  1  0  0  0  0
 18  3  1  0  0  0  0
 18 24  1  0  0  0  0
 19 20  1  0  0  0  0
 23 22  1  0  0  0  0
 23 21  1  0  0  0  0
 24 25  1  0  0  0  0
 25 26  1  0  0  0  0
 26 28  1  0  0  0  0
 28 27  2  0  0  0  0
 30 32  1  0  0  0  0
 30 29  1  0  0  0  0
 31 37  2  0  0  0  0
 31 32  1  0  0  0  0
 32 33  2  0  0  0  0
 33 36  1  0  0  0  0
 35 36  2  0  0  0  0
 36 34  1  0  0  0  0
 37 35  1  0  0  0  0
M  END
>  <MODEL>
3

>  <REMARK>
 VINA RESULT:      -5.7      2.672      6.905
  Name = 
  10 active torsions:
  status: ('A' for Active; 'I' for Inactive)
    1  A    between atoms: C_1  and  C_5
    2  A    between atoms: O_3  and  C_32
    3  A    between atoms: C_5  and  C_23
    4  A    between atoms: C_6  and  C_31
    5  A    between atoms: C_14  and  C_37
    6  A    between atoms: O_17  and  C_26
    7  A    between atoms: O_17  and  C_33
    8  A    between atoms: C_26  and  C_34
    9  A    between atoms: C_31  and  C_37
   10  A    between atoms: C_33  and  C_36
                            x       y       z     vdW  Elec       q    Type
                         _______ _______ _______ _____ _____    ______ ____

>  <TORSDO>
F 10

$$$$
=
 OpenBabel11052415273D

 37 41  0  0  1  0  0  0  0  0999 V2000
  184.8880  178.6670  138.2470 C   0  0  1  0  0  3  0  0  0  0  0  0
  182.6570  176.7820  136.2860 S   0  0  1  0  0  0  0  0  0  0  0  0
  183.0600  179.6010  139.9040 C   0  0  0  0  0  2  0  0  0  0  0  0
  180.6310  174.8250  139.7000 C   0  0  0  0  0  3  0  0  0  0  0  0
  182.5350  177.6390  137.8840 C   0  0  1  0  0  0  0  0  0  0  0  0
  181.4850  175.4690  138.8000 C   0  0  0  0  0  0  0  0  0  0  0  0
  182.1200  179.1080  137.5610 C   0  0  2  0  0  3  0  0  0  0  0  0
  182.2790  174.6600  137.9750 O   0  0  0  0  0  0  0  0  0  0  0  0
  181.5180  176.8910  138.7520 C   0  0  0  0  0  0  0  0  0  0  0  0
  179.8260  176.9470  140.5130 C   0  0  0  0  0  3  0  0  0  0  0  0
  184.0120  177.2010  135.7280 O   0  0  0  0  0  0  0  0  0  0  0  0
  182.9060  175.1170  136.8190 C   0  0  0  0  0  0  0  0  0  0  0  0
  180.6830  177.6040  139.6320 C   0  0  0  0  0  3  0  0  0  0  0  0
  182.3760  180.1550  138.6560 C   0  0  0  0  0  2  0  0  0  0  0  0
  183.6300  174.3370  136.1470 O   0  0  0  0  0  0  0  0  0  0  0  0
  183.9150  177.5340  138.5970 C   0  0  2  0  0  3  0  0  0  0  0  0
  179.7960  175.5550  140.5540 C   0  0  0  0  0  0  0  0  0  0  0  0
  184.2070  178.6250  139.6190 C   0  0  1  0  0  0  0  0  0  0  0  0
  178.9310  174.9230  141.4520 O   0  0  0  0  0  0  0  0  0  0  0  0
  179.2060  173.6480  142.0160 C   0  0  0  0  0  1  0  0  0  0  0  0
  186.3090  178.1260  138.2550 C   0  0  0  0  0  2  0  0  0  0  0  0
  188.4990  178.7850  137.3180 C   0  0  0  0  0  1  0  0  0  0  0  0
  187.0320  178.5810  137.0050 C   0  0  0  0  0  2  0  0  0  0  0  0
  184.9800  178.1010  140.8240 C   0  0  0  0  0  2  0  0  0  0  0  0
  184.8410  178.9810  141.8970 O   0  0  0  0  0  0  0  0  0  0  0  0
  185.0730  178.1970  143.0260 C   0  0  0  0  0  2  0  0  0  0  0  0
  183.3540  178.9330  144.5960 C   0  0  0  0  0  2  0  0  0  0  0  0
  184.6350  178.9370  144.2410 C   0  0  0  0  0  3  0  0  0  0  0  0
  180.7190  179.2430  136.9720 C   0  0  0  0  0  2  0  0  0  0  0  0
  179.9830  180.4050  137.6140 C   0  0  0  0  0  2  0  0  0  0  0  0
  179.8970  181.6290  135.4330 C   0  0  0  0  0  3  0  0  0  0  0  0
  180.1790  181.6390  136.8040 C   0  0  0  0  0  0  0  0  0  0  0  0
  180.6780  182.8000  137.4050 C   0  0  0  0  0  3  0  0  0  0  0  0
  181.4060  185.1860  137.2800 C   0  0  0  0  0  1  0  0  0  0  0  0
  180.5960  183.9420  135.2720 C   0  0  0  0  0  3  0  0  0  0  0  0
  180.8830  183.9520  136.6410 C   0  0  0  0  0  0  0  0  0  0  0  0
  180.1040  182.7810  134.6680 C   0  0  0  0  0  3  0  0  0  0  0  0
  1 21  1  1  0  0  0
  1 16  1  0  0  0  0
  1 18  1  0  0  0  0
  2 11  2  6  0  0  0
  2 12  1  0  0  0  0
  2  5  1  0  0  0  0
  4 17  1  0  0  0  0
  5 16  1  0  0  0  0
  5  9  1  1  0  0  0
  6  4  2  0  0  0  0
  7 29  1  1  0  0  0
  7  5  1  0  0  0  0
  7 14  1  0  0  0  0
  8  6  1  0  0  0  0
  9  6  1  0  0  0  0
  9 13  2  0  0  0  0
 10 17  2  0  0  0  0
 12  8  1  0  0  0  0
 13 10  1  0  0  0  0
 14  3  1  0  0  0  0
 15 12  2  0  0  0  0
 16 18  1  0  0  0  0
 17 19  1  0  0  0  0
 18  3  1  0  0  0  0
 18 24  1  0  0  0  0
 19 20  1  0  0  0  0
 23 22  1  0  0  0  0
 23 21  1  0  0  0  0
 24 25  1  0  0  0  0
 25 26  1  0  0  0  0
 26 28  1  0  0  0  0
 28 27  2  0  0  0  0
 29 30  1  0  0  0  0
 31 32  1  0  0  0  0
 32 33  2  0  0  0  0
 32 30  1  0  0  0  0
 35 36  2  0  0  0  0
 36 34  1  0  0  0  0
 36 33  1  0  0  0  0
 37 35  1  0  0  0  0
 37 31  2  0  0  0  0
M  END
>  <MODEL>
4

>  <REMARK>
 VINA RESULT:      -5.7      2.820      6.877
  Name = 
  10 active torsions:
  status: ('A' for Active; 'I' for Inactive)
    1  A    between atoms: C_1  and  C_5
    2  A    between atoms: O_3  and  C_32
    3  A    between atoms: C_5  and  C_23
    4  A    between atoms: C_6  and  C_31
    5  A    between atoms: C_14  and  C_37
    6  A    between atoms: O_17  and  C_26
    7  A    between atoms: O_17  and  C_33
    8  A    between atoms: C_26  and  C_34
    9  A    between atoms: C_31  and  C_37
   10  A    between atoms: C_33  and  C_36
                            x       y       z     vdW  Elec       q    Type
                         _______ _______ _______ _____ _____    ______ ____

>  <TORSDO>
F 10

$$$$
=
 OpenBabel11052415273D

 37 41  0  0  1  0  0  0  0  0999 V2000
  180.2030  178.4500  138.4390 C   0  0  1  0  0  3  0  0  0  0  0  0
  182.1220  175.6700  139.4240 S   0  0  1  0  0  0  0  0  0  0  0  0
  182.1330  180.2230  138.7400 C   0  0  0  0  0  2  0  0  0  0  0  0
  185.5830  176.5930  136.8230 C   0  0  0  0  0  3  0  0  0  0  0  0
  182.5050  177.3950  138.9980 C   0  0  1  0  0  0  0  0  0  0  0  0
  184.3450  176.4510  137.4560 C   0  0  0  0  0  0  0  0  0  0  0  0
  182.3760  178.2100  140.3220 C   0  0  2  0  0  3  0  0  0  0  0  0
  183.5840  175.3180  137.1350 O   0  0  0  0  0  0  0  0  0  0  0  0
  183.9090  177.4360  138.3860 C   0  0  0  0  0  0  0  0  0  0  0  0
  185.9890  178.6580  138.0000 C   0  0  0  0  0  3  0  0  0  0  0  0
  180.6000  175.6190  139.4820 O   0  0  0  0  0  0  0  0  0  0  0  0
  182.5220  174.8560  137.9080 C   0  0  0  0  0  0  0  0  0  0  0  0
  184.7510  178.5380  138.6290 C   0  0  0  0  0  3  0  0  0  0  0  0
  182.2050  179.7300  140.1840 C   0  0  0  0  0  2  0  0  0  0  0  0
  181.8650  173.8500  137.5360 O   0  0  0  0  0  0  0  0  0  0  0  0
  181.5090  177.8560  137.8950 C   0  0  2  0  0  3  0  0  0  0  0  0
  186.4120  177.6890  137.0930 C   0  0  0  0  0  0  0  0  0  0  0  0
  181.2690  179.3580  137.8160 C   0  0  1  0  0  0  0  0  0  0  0  0
  187.6560  177.8380  136.4730 O   0  0  0  0  0  0  0  0  0  0  0  0
  188.6820  178.6690  136.9990 C   0  0  0  0  0  1  0  0  0  0  0  0
  179.0650  178.1080  137.4910 C   0  0  0  0  0  2  0  0  0  0  0  0
  178.9310  176.3280  135.7820 C   0  0  0  0  0  1  0  0  0  0  0  0
  179.0250  176.6110  137.2660 C   0  0  0  0  0  2  0  0  0  0  0  0
  181.0940  179.8440  136.3820 C   0  0  0  0  0  2  0  0  0  0  0  0
  181.0970  181.2390  136.3500 O   0  0  0  0  0  0  0  0  0  0  0  0
  180.2140  181.5680  135.3220 C   0  0  0  0  0  2  0  0  0  0  0  0
  180.9290  183.8280  135.9050 C   0  0  0  0  0  2  0  0  0  0  0  0
  180.0940  183.0490  135.2270 C   0  0  0  0  0  3  0  0  0  0  0  0
  183.4230  177.8570  141.3740 C   0  0  0  0  0  2  0  0  0  0  0  0
  183.6150  179.0110  142.3410 C   0  0  0  0  0  2  0  0  0  0  0  0
  184.3580  179.0010  144.7310 C   0  0  0  0  0  3  0  0  0  0  0  0
  184.5890  178.6290  143.4010 C   0  0  0  0  0  0  0  0  0  0  0  0
  185.7520  177.9280  143.0640 C   0  0  0  0  0  3  0  0  0  0  0  0
  187.9080  176.8390  143.7000 C   0  0  0  0  0  1  0  0  0  0  0  0
  186.4420  177.9560  145.3850 C   0  0  0  0  0  3  0  0  0  0  0  0
  186.6770  177.5890  144.0570 C   0  0  0  0  0  0  0  0  0  0  0  0
  185.2830  178.6620  145.7220 C   0  0  0  0  0  3  0  0  0  0  0  0
  1 21  1  6  0  0  0
  2 11  2  6  0  0  0
  3 14  1  0  0  0  0
  4 17  2  0  0  0  0
  4  6  1  0  0  0  0
  5  9  1  6  0  0  0
  5  2  1  0  0  0  0
  5  7  1  0  0  0  0
  6  9  2  0  0  0  0
  7 29  1  1  0  0  0
  8  6  1  0  0  0  0
  8 12  1  0  0  0  0
  9 13  1  0  0  0  0
 10 13  2  0  0  0  0
 12  2  1  0  0  0  0
 14  7  1  0  0  0  0
 15 12  2  0  0  0  0
 16  1  1  0  0  0  0
 16  5  1  0  0  0  0
 17 10  1  0  0  0  0
 18 16  1  0  0  0  0
 18  1  1  0  0  0  0
 18  3  1  0  0  0  0
 19 20  1  0  0  0  0
 19 17  1  0  0  0  0
 22 23  1  0  0  0  0
 23 21  1  0  0  0  0
 24 18  1  0  0  0  0
 25 24  1  0  0  0  0
 26 25  1  0  0  0  0
 28 26  1  0  0  0  0
 28 27  2  0  0  0  0
 29 30  1  0  0  0  0
 30 32  1  0  0  0  0
 31 37  1  0  0  0  0
 32 31  2  0  0  0  0
 33 32  1  0  0  0  0
 33 36  2  0  0  0  0
 34 36  1  0  0  0  0
 35 37  2  0  0  0  0
 36 35  1  0  0  0  0
M  END
>  <MODEL>
5

>  <REMARK>
 VINA RESULT:      -5.5      2.567      7.690
  Name = 
  10 active torsions:
  status: ('A' for Active; 'I' for Inactive)
    1  A    between atoms: C_1  and  C_5
    2  A    between atoms: O_3  and  C_32
    3  A    between atoms: C_5  and  C_23
    4  A    between atoms: C_6  and  C_31
    5  A    between atoms: C_14  and  C_37
    6  A    between atoms: O_17  and  C_26
    7  A    between atoms: O_17  and  C_33
    8  A    between atoms: C_26  and  C_34
    9  A    between atoms: C_31  and  C_37
   10  A    between atoms: C_33  and  C_36
                            x       y       z     vdW  Elec       q    Type
                         _______ _______ _______ _____ _____    ______ ____

>  <TORSDO>
F 10

$$$$
=
 OpenBabel11052415273D

 37 41  0  0  1  0  0  0  0  0999 V2000
  181.3530  177.3840  137.1280 C   0  0  1  0  0  3  0  0  0  0  0  0
  181.5940  180.7860  137.9930 S   0  0  1  0  0  0  0  0  0  0  0  0
  181.9570  176.4580  139.5230 C   0  0  0  0  0  2  0  0  0  0  0  0
  179.1110  180.4780  141.6440 C   0  0  0  0  0  3  0  0  0  0  0  0
  181.5520  179.2320  138.9360 C   0  0  1  0  0  0  0  0  0  0  0  0
  179.7530  180.3480  140.4090 C   0  0  0  0  0  0  0  0  0  0  0  0
  183.0300  178.7450  139.0410 C   0  0  2  0  0  3  0  0  0  0  0  0
  179.2200  181.0640  139.3290 O   0  0  0  0  0  0  0  0  0  0  0  0
  180.9010  179.5140  140.2940 C   0  0  0  0  0  0  0  0  0  0  0  0
  180.7040  178.9870  142.6710 C   0  0  0  0  0  3  0  0  0  0  0  0
  181.7100  180.3480  136.5380 O   0  0  0  0  0  0  0  0  0  0  0  0
  179.9170  181.3160  138.1500 C   0  0  0  0  0  0  0  0  0  0  0  0
  181.3460  178.8360  141.4430 C   0  0  0  0  0  3  0  0  0  0  0  0
  183.2470  177.2640  139.3840 C   0  0  0  0  0  2  0  0  0  0  0  0
  179.3580  181.9390  137.2100 O   0  0  0  0  0  0  0  0  0  0  0  0
  180.6290  178.2320  138.1810 C   0  0  2  0  0  3  0  0  0  0  0  0
  179.5820  179.8070  142.7790 C   0  0  0  0  0  0  0  0  0  0  0  0
  180.9020  176.7580  138.4530 C   0  0  1  0  0  0  0  0  0  0  0  0
  178.9550  179.9350  144.0220 O   0  0  0  0  0  0  0  0  0  0  0  0
  179.0450  178.9410  145.0340 C   0  0  0  0  0  1  0  0  0  0  0  0
  180.4060  177.1080  135.9710 C   0  0  0  0  0  2  0  0  0  0  0  0
  182.6640  177.1170  134.9640 C   0  0  0  0  0  1  0  0  0  0  0  0
  181.2070  176.7800  134.7280 C   0  0  0  0  0  2  0  0  0  0  0  0
  179.6250  175.9270  138.4920 C   0  0  0  0  0  2  0  0  0  0  0  0
  179.8580  174.7310  139.1720 O   0  0  0  0  0  0  0  0  0  0  0  0
  179.1260  173.7780  138.4650 C   0  0  0  0  0  2  0  0  0  0  0  0
  180.9300  172.9810  137.0250 C   0  0  0  0  0  2  0  0  0  0  0  0
  179.7440  173.5730  137.1260 C   0  0  0  0  0  3  0  0  0  0  0  0
  183.9260  179.6520  139.8800 C   0  0  0  0  0  2  0  0  0  0  0  0
  185.2840  179.0090  140.0910 C   0  0  0  0  0  2  0  0  0  0  0  0
  186.7020  178.1760  141.9770 C   0  0  0  0  0  3  0  0  0  0  0  0
  185.4930  178.7300  141.5390 C   0  0  0  0  0  0  0  0  0  0  0  0
  184.4710  178.9880  142.4580 C   0  0  0  0  0  3  0  0  0  0  0  0
  183.5760  178.9860  144.7900 C   0  0  0  0  0  1  0  0  0  0  0  0
  185.8690  178.1570  144.2510 C   0  0  0  0  0  3  0  0  0  0  0  0
  184.6600  178.7050  143.8140 C   0  0  0  0  0  0  0  0  0  0  0  0
  186.8900  177.8910  143.3330 C   0  0  0  0  0  3  0  0  0  0  0  0
  1 21  1  6  0  0  0
  1 16  1  0  0  0  0
  1 18  1  0  0  0  0
  2 11  2  6  0  0  0
  2 12  1  0  0  0  0
  2  5  1  0  0  0  0
  4 17  1  0  0  0  0
  5  7  1  0  0  0  0
  5  9  1  1  0  0  0
  6  4  2  0  0  0  0
  7 14  1  0  0  0  0
  7 29  1  1  0  0  0
  8  6  1  0  0  0  0
  9  6  1  0  0  0  0
  9 13  2  0  0  0  0
 10 17  2  0  0  0  0
 12  8  1  0  0  0  0
 13 10  1  0  0  0  0
 14  3  1  0  0  0  0
 15 12  2  0  0  0  0
 16 18  1  0  0  0  0
 16  5  1  0  0  0  0
 17 19  1  0  0  0  0
 18 24  1  0  0  0  0
 18  3  1  0  0  0  0
 19 20  1  0  0  0  0
 23 22  1  0  0  0  0
 23 21  1  0  0  0  0
 24 25  1  0  0  0  0
 26 25  1  0  0  0  0
 27 28  2  0  0  0  0
 28 26  1  0  0  0  0
 29 30  1  0  0  0  0
 30 32  1  0  0  0  0
 31 37  1  0  0  0  0
 32 31  2  0  0  0  0
 32 33  1  0  0  0  0
 33 36  2  0  0  0  0
 36 35  1  0  0  0  0
 36 34  1  0  0  0  0
 37 35  2  0  0  0  0
M  END
>  <MODEL>
6

>  <REMARK>
 VINA RESULT:      -5.4      1.932      7.299
  Name = 
  10 active torsions:
  status: ('A' for Active; 'I' for Inactive)
    1  A    between atoms: C_1  and  C_5
    2  A    between atoms: O_3  and  C_32
    3  A    between atoms: C_5  and  C_23
    4  A    between atoms: C_6  and  C_31
    5  A    between atoms: C_14  and  C_37
    6  A    between atoms: O_17  and  C_26
    7  A    between atoms: O_17  and  C_33
    8  A    between atoms: C_26  and  C_34
    9  A    between atoms: C_31  and  C_37
   10  A    between atoms: C_33  and  C_36
                            x       y       z     vdW  Elec       q    Type
                         _______ _______ _______ _____ _____    ______ ____

>  <TORSDO>
F 10

$$$$
=
 OpenBabel11052415273D

 37 41  0  0  1  0  0  0  0  0999 V2000
  180.7860  179.8090  139.0770 C   0  0  1  0  0  3  0  0  0  0  0  0
  181.0340  176.8420  140.9510 S   0  0  1  0  0  0  0  0  0  0  0  0
  183.2120  179.6780  138.0500 C   0  0  0  0  0  2  0  0  0  0  0  0
  182.5990  174.3670  137.6320 C   0  0  0  0  0  3  0  0  0  0  0  0
  182.0330  177.6060  139.6390 C   0  0  1  0  0  0  0  0  0  0  0  0
  181.9970  175.3050  138.4750 C   0  0  0  0  0  0  0  0  0  0  0  0
  183.0460  178.5520  140.3570 C   0  0  2  0  0  3  0  0  0  0  0  0
  180.7020  175.0230  138.9320 O   0  0  0  0  0  0  0  0  0  0  0  0
  182.7030  176.4880  138.8340 C   0  0  0  0  0  0  0  0  0  0  0  0
  184.5890  175.7200  137.4850 C   0  0  0  0  0  3  0  0  0  0  0  0
  180.0080  177.9070  141.3210 O   0  0  0  0  0  0  0  0  0  0  0  0
  180.1110  175.6590  140.0200 C   0  0  0  0  0  0  0  0  0  0  0  0
  183.9960  176.6730  138.3120 C   0  0  0  0  0  3  0  0  0  0  0  0
  183.6990  179.6450  139.4970 C   0  0  0  0  0  2  0  0  0  0  0  0
  178.9310  175.3740  140.3500 O   0  0  0  0  0  0  0  0  0  0  0  0
  181.0720  178.3580  138.6730 C   0  0  2  0  0  3  0  0  0  0  0  0
  183.8940  174.5630  137.1380 C   0  0  0  0  0  0  0  0  0  0  0  0
  181.6990  179.5010  137.8850 C   0  0  1  0  0  0  0  0  0  0  0  0
  184.5110  173.6280  136.3020 O   0  0  0  0  0  0  0  0  0  0  0  0
  183.8120  172.5340  135.7260 C   0  0  0  0  0  1  0  0  0  0  0  0
  179.3630  180.1690  138.6780 C   0  0  0  0  0  2  0  0  0  0  0  0
  179.3370  181.3540  140.8460 C   0  0  0  0  0  1  0  0  0  0  0  0
  178.9440  181.4390  139.3870 C   0  0  0  0  0  2  0  0  0  0  0  0
  181.1440  179.6050  136.4700 C   0  0  0  0  0  2  0  0  0  0  0  0
  181.6390  178.5620  135.6870 O   0  0  0  0  0  0  0  0  0  0  0  0
  180.6440  178.3310  134.7390 C   0  0  0  0  0  2  0  0  0  0  0  0
  179.3250  176.5430  135.7520 C   0  0  0  0  0  2  0  0  0  0  0  0
  179.4190  177.8260  135.4190 C   0  0  0  0  0  3  0  0  0  0  0  0
  184.0750  177.8240  141.2160 C   0  0  0  0  0  2  0  0  0  0  0  0
  185.2090  178.7600  141.5950 C   0  0  0  0  0  2  0  0  0  0  0  0
  187.0770  177.6610  142.8440 C   0  0  0  0  0  3  0  0  0  0  0  0
  185.8360  178.3080  142.8670 C   0  0  0  0  0  0  0  0  0  0  0  0
  185.1710  178.4980  144.0830 C   0  0  0  0  0  3  0  0  0  0  0  0
  185.0470  178.2620  146.5670 C   0  0  0  0  0  1  0  0  0  0  0  0
  186.9930  177.4140  145.2520 C   0  0  0  0  0  3  0  0  0  0  0  0
  185.7500  178.0540  145.2760 C   0  0  0  0  0  0  0  0  0  0  0  0
  187.6560  177.2160  144.0360 C   0  0  0  0  0  3  0  0  0  0  0  0
  1 21  1  6  0  0  0
  2 11  2  6  0  0  0
  3 14  1  0  0  0  0
  4  6  1  0  0  0  0
  5  9  1  6  0  0  0
  5  7  1  0  0  0  0
  5  2  1  0  0  0  0
  6  9  2  0  0  0  0
  6  8  1  0  0  0  0
  7 29  1  6  0  0  0
  8 12  1  0  0  0  0
 10 13  2  0  0  0  0
 12 15  2  0  0  0  0
 12  2  1  0  0  0  0
 13  9  1  0  0  0  0
 14  7  1  0  0  0  0
 16  1  1  0  0  0  0
 16  5  1  0  0  0  0
 17 10  1  0  0  0  0
 17  4  2  0  0  0  0
 18  3  1  0  0  0  0
 18 16  1  0  0  0  0
 18  1  1  0  0  0  0
 19 17  1  0  0  0  0
 20 19  1  0  0  0  0
 21 23  1  0  0  0  0
 23 22  1  0  0  0  0
 24 18  1  0  0  0  0
 25 24  1  0  0  0  0
 26 28  1  0  0  0  0
 26 25  1  0  0  0  0
 28 27  2  0  0  0  0
 29 30  1  0  0  0  0
 30 32  1  0  0  0  0
 31 32  2  0  0  0  0
 31 37  1  0  0  0  0
 32 33  1  0  0  0  0
 33 36  2  0  0  0  0
 35 36  1  0  0  0  0
 36 34  1  0  0  0  0
 37 35  2  0  0  0  0
M  END
>  <MODEL>
7

>  <REMARK>
 VINA RESULT:      -5.2      2.333      7.335
  Name = 
  10 active torsions:
  status: ('A' for Active; 'I' for Inactive)
    1  A    between atoms: C_1  and  C_5
    2  A    between atoms: O_3  and  C_32
    3  A    between atoms: C_5  and  C_23
    4  A    between atoms: C_6  and  C_31
    5  A    between atoms: C_14  and  C_37
    6  A    between atoms: O_17  and  C_26
    7  A    between atoms: O_17  and  C_33
    8  A    between atoms: C_26  and  C_34
    9  A    between atoms: C_31  and  C_37
   10  A    between atoms: C_33  and  C_36
                            x       y       z     vdW  Elec       q    Type
                         _______ _______ _______ _____ _____    ______ ____

>  <TORSDO>
F 10

$$$$
=
 OpenBabel11052415273D

 37 41  0  0  1  0  0  0  0  0999 V2000
  180.7380  180.2320  139.7640 C   0  0  1  0  0  3  0  0  0  0  0  0
  181.1640  176.9190  140.8730 S   0  0  1  0  0  0  0  0  0  0  0  0
  182.9670  180.3270  138.3570 C   0  0  0  0  0  2  0  0  0  0  0  0
  182.0940  175.2460  136.8820 C   0  0  0  0  0  3  0  0  0  0  0  0
  181.9740  177.9560  139.6190 C   0  0  1  0  0  0  0  0  0  0  0  0
  181.6680  175.9740  137.9970 C   0  0  0  0  0  0  0  0  0  0  0  0
  183.1210  178.7150  140.3540 C   0  0  2  0  0  3  0  0  0  0  0  0
  180.4500  175.5990  138.5830 O   0  0  0  0  0  0  0  0  0  0  0  0
  182.4650  177.0440  138.4900 C   0  0  0  0  0  0  0  0  0  0  0  0
  184.0860  176.5940  136.7180 C   0  0  0  0  0  3  0  0  0  0  0  0
  180.2490  177.8770  141.6290 O   0  0  0  0  0  0  0  0  0  0  0  0
  180.0610  175.9770  139.8650 C   0  0  0  0  0  0  0  0  0  0  0  0
  183.6670  177.3390  137.8200 C   0  0  0  0  0  3  0  0  0  0  0  0
  183.6730  179.9700  139.6630 C   0  0  0  0  0  2  0  0  0  0  0  0
  178.9370  175.6280  140.3100 O   0  0  0  0  0  0  0  0  0  0  0  0
  180.9020  178.9060  139.0090 C   0  0  2  0  0  3  0  0  0  0  0  0
  183.3020  175.5450  136.2420 C   0  0  0  0  0  0  0  0  0  0  0  0
  181.4410  180.1950  138.4030 C   0  0  1  0  0  0  0  0  0  0  0  0
  183.7450  174.8200  135.1320 O   0  0  0  0  0  0  0  0  0  0  0  0
  184.3270  173.5280  135.2410 C   0  0  0  0  0  1  0  0  0  0  0  0
  179.2860  180.6740  139.6890 C   0  0  0  0  0  2  0  0  0  0  0  0
  179.3030  180.6570  142.1600 C   0  0  0  0  0  1  0  0  0  0  0  0
  178.9310  181.4610  140.9330 C   0  0  0  0  0  2  0  0  0  0  0  0
  180.6750  180.6150  137.1540 C   0  0  0  0  0  2  0  0  0  0  0  0
  181.2380  181.7750  136.6190 O   0  0  0  0  0  0  0  0  0  0  0  0
  180.4430  182.8090  137.1110 C   0  0  0  0  0  2  0  0  0  0  0  0
  180.8820  184.7600  135.7110 C   0  0  0  0  0  2  0  0  0  0  0  0
  181.1100  184.1140  136.8490 C   0  0  0  0  0  3  0  0  0  0  0  0
  184.2440  177.8100  140.8540 C   0  0  0  0  0  2  0  0  0  0  0  0
  185.5190  178.6080  141.0550 C   0  0  0  0  0  2  0  0  0  0  0  0
  185.4330  178.2180  143.5250 C   0  0  0  0  0  3  0  0  0  0  0  0
  186.1700  178.2120  142.3350 C   0  0  0  0  0  0  0  0  0  0  0  0
  187.5250  177.8660  142.3550 C   0  0  0  0  0  3  0  0  0  0  0  0
  189.5770  177.1420  143.5800 C   0  0  0  0  0  1  0  0  0  0  0  0
  187.4020  177.5160  144.7470 C   0  0  0  0  0  3  0  0  0  0  0  0
  188.1400  177.5150  143.5600 C   0  0  0  0  0  0  0  0  0  0  0  0
  186.0490  177.8690  144.7300 C   0  0  0  0  0  3  0  0  0  0  0  0
  1 21  1  6  0  0  0
  2 11  2  1  0  0  0
  3 18  1  0  0  0  0
  3 14  1  0  0  0  0
  4  6  1  0  0  0  0
  5  9  1  6  0  0  0
  5  7  1  0  0  0  0
  5  2  1  0  0  0  0
  6  9  2  0  0  0  0
  6  8  1  0  0  0  0
  7 29  1  6  0  0  0
  8 12  1  0  0  0  0
 10 13  2  0  0  0  0
 12 15  2  0  0  0  0
 12  2  1  0  0  0  0
 13  9  1  0  0  0  0
 14  7  1  0  0  0  0
 16  5  1  0  0  0  0
 16  1  1  0  0  0  0
 17 10  1  0  0  0  0
 17  4  2  0  0  0  0
 18 16  1  0  0  0  0
 18  1  1  0  0  0  0
 19 20  1  0  0  0  0
 19 17  1  0  0  0  0
 21 23  1  0  0  0  0
 23 22  1  0  0  0  0
 24 18  1  0  0  0  0
 25 26  1  0  0  0  0
 25 24  1  0  0  0  0
 27 28  2  0  0  0  0
 28 26  1  0  0  0  0
 29 30  1  0  0  0  0
 30 32  1  0  0  0  0
 31 37  1  0  0  0  0
 32 33  1  0  0  0  0
 32 31  2  0  0  0  0
 33 36  2  0  0  0  0
 36 34  1  0  0  0  0
 36 35  1  0  0  0  0
 37 35  2  0  0  0  0
M  END
>  <MODEL>
8

>  <REMARK>
 VINA RESULT:      -5.0      2.361      7.132
  Name = 
  10 active torsions:
  status: ('A' for Active; 'I' for Inactive)
    1  A    between atoms: C_1  and  C_5
    2  A    between atoms: O_3  and  C_32
    3  A    between atoms: C_5  and  C_23
    4  A    between atoms: C_6  and  C_31
    5  A    between atoms: C_14  and  C_37
    6  A    between atoms: O_17  and  C_26
    7  A    between atoms: O_17  and  C_33
    8  A    between atoms: C_26  and  C_34
    9  A    between atoms: C_31  and  C_37
   10  A    between atoms: C_33  and  C_36
                            x       y       z     vdW  Elec       q    Type
                         _______ _______ _______ _____ _____    ______ ____

>  <TORSDO>
F 10

$$$$
=
 OpenBabel11052415273D

 37 41  0  0  1  0  0  0  0  0999 V2000
  180.1930  178.2850  139.8060 C   0  0  1  0  0  3  0  0  0  0  0  0
  179.9750  177.7590  136.3340 S   0  0  1  0  0  0  0  0  0  0  0  0
  181.6920  176.1710  140.2990 C   0  0  0  0  0  2  0  0  0  0  0  0
  184.3130  177.1290  135.7200 C   0  0  0  0  0  3  0  0  0  0  0  0
  180.9880  177.0530  137.6670 C   0  0  1  0  0  0  0  0  0  0  0  0
  183.0240  177.4730  136.1400 C   0  0  0  0  0  0  0  0  0  0  0  0
  180.1730  175.8560  138.2470 C   0  0  2  0  0  3  0  0  0  0  0  0
  182.4630  178.6400  135.6030 O   0  0  0  0  0  0  0  0  0  0  0  0
  182.3410  176.6450  137.0740 C   0  0  0  0  0  0  0  0  0  0  0  0
  184.2820  175.1620  137.1140 C   0  0  0  0  0  3  0  0  0  0  0  0
  178.9400  178.6180  137.0520 O   0  0  0  0  0  0  0  0  0  0  0  0
  181.1010  178.9310  135.6430 C   0  0  0  0  0  0  0  0  0  0  0  0
  183.0030  175.4990  137.5530 C   0  0  0  0  0  3  0  0  0  0  0  0
  180.5700  175.3650  139.6480 C   0  0  0  0  0  2  0  0  0  0  0  0
  180.6770  180.0160  135.1680 O   0  0  0  0  0  0  0  0  0  0  0  0
  181.2630  178.1730  138.7120 C   0  0  2  0  0  3  0  0  0  0  0  0
  184.9460  175.9750  136.1970 C   0  0  0  0  0  0  0  0  0  0  0  0
  181.5690  177.6880  140.1240 C   0  0  1  0  0  0  0  0  0  0  0  0
  186.2300  175.6160  135.7790 O   0  0  0  0  0  0  0  0  0  0  0  0
  186.7630  174.3120  135.9690 C   0  0  0  0  0  1  0  0  0  0  0  0
  180.0500  179.7410  140.2180 C   0  0  0  0  0  2  0  0  0  0  0  0
  179.5260  179.6780  142.6330 C   0  0  0  0  0  1  0  0  0  0  0  0
  178.9470  179.8700  141.2470 C   0  0  0  0  0  2  0  0  0  0  0  0
  182.6150  178.5500  140.8200 C   0  0  0  0  0  2  0  0  0  0  0  0
  183.8380  177.8780  140.8530 O   0  0  0  0  0  0  0  0  0  0  0  0
  184.6870  178.7300  141.5570 C   0  0  0  0  0  2  0  0  0  0  0  0
  184.0630  179.2600  143.8570 C   0  0  0  0  0  2  0  0  0  0  0  0
  184.6220  178.4050  143.0090 C   0  0  0  0  0  3  0  0  0  0  0  0
  179.9970  174.6940  137.2750 C   0  0  0  0  0  2  0  0  0  0  0  0
  179.9120  173.3790  138.0280 C   0  0  0  0  0  2  0  0  0  0  0  0
  179.5610  171.3640  136.5870 C   0  0  0  0  0  3  0  0  0  0  0  0
  180.4420  172.2750  137.1820 C   0  0  0  0  0  0  0  0  0  0  0  0
  181.8220  172.1250  137.0080 C   0  0  0  0  0  3  0  0  0  0  0  0
  183.7850  170.9200  136.0420 C   0  0  0  0  0  1  0  0  0  0  0  0
  181.4390  170.1700  135.6330 C   0  0  0  0  0  3  0  0  0  0  0  0
  182.3210  171.0750  136.2320 C   0  0  0  0  0  0  0  0  0  0  0  0
  180.0590  170.3130  135.8110 C   0  0  0  0  0  3  0  0  0  0  0  0
  1 18  1  0  0  0  0
  1 21  1  1  0  0  0
  2 11  2  1  0  0  0
  2  5  1  0  0  0  0
  4  6  2  0  0  0  0
  4 17  1  0  0  0  0
  5  9  1  6  0  0  0
  5  7  1  0  0  0  0
  5 16  1  0  0  0  0
  6  9  1  0  0  0  0
  7 29  1  6  0  0  0
  7 14  1  0  0  0  0
  8 12  1  0  0  0  0
  8  6  1  0  0  0  0
  9 13  2  0  0  0  0
 10 13  1  0  0  0  0
 12  2  1  0  0  0  0
 14  3  1  0  0  0  0
 15 12  2  0  0  0  0
 16  1  1  0  0  0  0
 16 18  1  0  0  0  0
 17 10  2  0  0  0  0
 18  3  1  0  0  0  0
 18 24  1  0  0  0  0
 19 20  1  0  0  0  0
 19 17  1  0  0  0  0
 21 23  1  0  0  0  0
 23 22  1  0  0  0  0
 24 25  1  0  0  0  0
 25 26  1  0  0  0  0
 26 28  1  0  0  0  0
 28 27  2  0  0  0  0
 29 30  1  0  0  0  0
 31 32  1  0  0  0  0
 32 30  1  0  0  0  0
 33 32  2  0  0  0  0
 34 36  1  0  0  0  0
 35 37  1  0  0  0  0
 35 36  2  0  0  0  0
 36 33  1  0  0  0  0
 37 31  2  0  0  0  0
M  END
>  <MODEL>
9

>  <REMARK>
 VINA RESULT:      -4.1      2.440      4.419
  Name = 
  10 active torsions:
  status: ('A' for Active; 'I' for Inactive)
    1  A    between atoms: C_1  and  C_5
    2  A    between atoms: O_3  and  C_32
    3  A    between atoms: C_5  and  C_23
    4  A    between atoms: C_6  and  C_31
    5  A    between atoms: C_14  and  C_37
    6  A    between atoms: O_17  and  C_26
    7  A    between atoms: O_17  and  C_33
    8  A    between atoms: C_26  and  C_34
    9  A    between atoms: C_31  and  C_37
   10  A    between atoms: C_33  and  C_36
                            x       y       z     vdW  Elec       q    Type
                         _______ _______ _______ _____ _____    ______ ____

>  <TORSDO>
F 10

$$$$
