=
 OpenBabel11052413493D

 27 30  0  0  1  0  0  0  0  0999 V2000
  188.1720  177.5790  142.2870 C   0  0  2  0  0  3  0  0  0  0  0  0
  185.7540  178.0710  141.9800 N   0  0  0  0  0  0  0  0  0  0  0  0
  183.0060  178.7470  144.3200 C   0  0  0  0  0  3  0  0  0  0  0  0
  180.6760  179.2060  143.9020 O   0  0  0  0  0  1  0  0  0  0  0  0
  186.6240  177.9980  144.2080 C   0  0  0  0  0  3  0  0  0  0  0  0
  183.4450  178.5260  141.5570 C   0  0  0  0  0  3  0  0  0  0  0  0
  182.1660  178.8120  142.0460 C   0  0  0  0  0  3  0  0  0  0  0  0
  184.5080  178.3500  142.4480 C   0  0  0  0  0  0  0  0  0  0  0  0
  181.9470  178.9220  143.4240 C   0  0  0  0  0  0  0  0  0  0  0  0
  184.2860  178.4610  143.8370 C   0  0  0  0  0  0  0  0  0  0  0  0
  186.8090  177.8950  142.8260 C   0  0  0  0  0  0  0  0  0  0  0  0
  185.3560  178.2830  144.7150 C   0  0  0  0  0  3  0  0  0  0  0  0
  191.6840  177.2540  144.8180 C   0  0  0  0  0  3  0  0  0  0  0  0
  189.2060  177.4360  143.4110 C   0  0  1  0  0  3  0  0  0  0  0  0
  190.0610  176.1830  143.2170 C   0  0  0  0  0  2  0  0  0  0  0  0
  190.9580  175.9890  144.4380 C   0  0  0  0  0  2  0  0  0  0  0  0
  191.2830  178.4670  144.4060 C   0  0  0  0  0  3  0  0  0  0  0  0
  190.1390  178.6510  143.4400 C   0  0  0  0  0  2  0  0  0  0  0  0
  188.6730  178.8750  141.0980 S   0  0  0  0  0  0  0  0  0  0  0  0
  191.4280  177.6790  140.6840 F   0  0  0  0  0  0  0  0  0  0  0  0
  189.9370  175.8240  137.9090 C   0  0  0  0  0  0  0  0  0  0  0  0
  190.3120  174.9000  136.9440 O   0  0  0  0  0  1  0  0  0  0  0  0
  189.1780  177.6840  139.8580 C   0  0  0  0  0  0  0  0  0  0  0  0
  190.8790  176.2990  138.8260 C   0  0  0  0  0  3  0  0  0  0  0  0
  188.6170  176.2810  137.9630 C   0  0  0  0  0  3  0  0  0  0  0  0
  188.2380  177.2110  138.9350 C   0  0  0  0  0  3  0  0  0  0  0  0
  190.5040  177.2300  139.8000 C   0  0  0  0  0  0  0  0  0  0  0  0
  1 19  1  6  0  0  0
  1 11  1  0  0  0  0
  2  8  2  0  0  0  0
  2 11  1  0  0  0  0
  5 12  1  0  0  0  0
  6  7  2  0  0  0  0
  6  8  1  0  0  0  0
  7  9  1  0  0  0  0
  8 10  1  0  0  0  0
  9  4  1  0  0  0  0
  9  3  2  0  0  0  0
 10  3  1  0  0  0  0
 10 12  2  0  0  0  0
 11  5  2  0  0  0  0
 14  1  1  6  0  0  0
 14 18  1  0  0  0  0
 15 14  1  0  0  0  0
 15 16  1  0  0  0  0
 16 13  1  0  0  0  0
 17 13  2  0  0  0  0
 18 17  1  0  0  0  0
 21 25  2  0  0  0  0
 21 24  1  0  0  0  0
 22 21  1  0  0  0  0
 23 19  1  0  0  0  0
 24 27  2  0  0  0  0
 25 26  1  0  0  0  0
 26 23  2  0  0  0  0
 27 23  1  0  0  0  0
 27 20  1  0  0  0  0
M  END
>  <MODEL>
1

>  <REMARK>
 VINA RESULT:      -8.0      0.000      0.000
  Name = 
  4 active torsions:
  status: ('A' for Active; 'I' for Inactive)
    1  A    between atoms: S_1  and  C_15
    2  A    between atoms: S_1  and  C_18
    3  A    between atoms: C_9  and  C_15
    4  A    between atoms: C_15  and  C_19
                            x       y       z     vdW  Elec       q    Type
                         _______ _______ _______ _____ _____    ______ ____

>  <TORSDO>
F 4

$$$$
=
 OpenBabel11052413493D

 27 30  0  0  1  0  0  0  0  0999 V2000
  189.2600  177.1630  144.0800 C   0  0  2  0  0  3  0  0  0  0  0  0
  186.9650  177.7520  143.3270 N   0  0  0  0  0  0  0  0  0  0  0  0
  183.8890  178.6670  145.1100 C   0  0  0  0  0  3  0  0  0  0  0  0
  181.6970  179.2150  144.2650 O   0  0  0  0  0  1  0  0  0  0  0  0
  187.4230  177.7450  145.6760 C   0  0  0  0  0  3  0  0  0  0  0  0
  184.7960  178.2950  142.4810 C   0  0  0  0  0  3  0  0  0  0  0  0
  183.4680  178.6630  142.7220 C   0  0  0  0  0  3  0  0  0  0  0  0
  185.6740  178.1120  143.5530 C   0  0  0  0  0  0  0  0  0  0  0  0
  183.0160  178.8490  144.0330 C   0  0  0  0  0  0  0  0  0  0  0  0
  185.2160  178.3000  144.8750 C   0  0  0  0  0  0  0  0  0  0  0  0
  187.8430  177.5670  144.3540 C   0  0  0  0  0  0  0  0  0  0  0  0
  186.1030  178.1130  145.9360 C   0  0  0  0  0  3  0  0  0  0  0  0
  191.6900  176.4060  147.5970 C   0  0  0  0  0  3  0  0  0  0  0  0
  189.9520  176.6340  145.3420 C   0  0  1  0  0  3  0  0  0  0  0  0
  191.4400  176.3810  145.0910 C   0  0  0  0  0  2  0  0  0  0  0  0
  192.0520  175.7010  146.3140 C   0  0  0  0  0  2  0  0  0  0  0  0
  190.6500  177.2500  147.6870 C   0  0  0  0  0  3  0  0  0  0  0  0
  189.8280  177.6450  146.4870 C   0  0  0  0  0  2  0  0  0  0  0  0
  190.1750  178.5820  143.3780 S   0  0  0  0  0  0  0  0  0  0  0  0
  192.3910  177.1220  141.9120 F   0  0  0  0  0  0  0  0  0  0  0  0
  190.0490  176.8830  139.1150 C   0  0  0  0  0  0  0  0  0  0  0  0
  190.0030  176.3690  137.8270 O   0  0  0  0  0  1  0  0  0  0  0  0
  190.1380  177.9140  141.7160 C   0  0  0  0  0  0  0  0  0  0  0  0
  191.2110  176.7470  139.8820 C   0  0  0  0  0  3  0  0  0  0  0  0
  188.9340  177.5360  139.6460 C   0  0  0  0  0  3  0  0  0  0  0  0
  188.9780  178.0530  140.9440 C   0  0  0  0  0  3  0  0  0  0  0  0
  191.2590  177.2630  141.1800 C   0  0  0  0  0  0  0  0  0  0  0  0
  1 19  1  1  0  0  0
  1 11  1  0  0  0  0
  2  8  2  0  0  0  0
  2 11  1  0  0  0  0
  5 12  1  0  0  0  0
  6  7  2  0  0  0  0
  6  8  1  0  0  0  0
  7  9  1  0  0  0  0
  8 10  1  0  0  0  0
  9  4  1  0  0  0  0
  9  3  2  0  0  0  0
 10  3  1  0  0  0  0
 10 12  2  0  0  0  0
 11  5  2  0  0  0  0
 13 17  2  0  0  0  0
 14  1  1  6  0  0  0
 14 18  1  0  0  0  0
 15 14  1  0  0  0  0
 15 16  1  0  0  0  0
 16 13  1  0  0  0  0
 18 17  1  0  0  0  0
 21 25  2  0  0  0  0
 21 24  1  0  0  0  0
 22 21  1  0  0  0  0
 23 19  1  0  0  0  0
 24 27  2  0  0  0  0
 25 26  1  0  0  0  0
 26 23  2  0  0  0  0
 27 23  1  0  0  0  0
 27 20  1  0  0  0  0
M  END
>  <MODEL>
2

>  <REMARK>
 VINA RESULT:      -8.0      1.613      2.025
  Name = 
  4 active torsions:
  status: ('A' for Active; 'I' for Inactive)
    1  A    between atoms: S_1  and  C_15
    2  A    between atoms: S_1  and  C_18
    3  A    between atoms: C_9  and  C_15
    4  A    between atoms: C_15  and  C_19
                            x       y       z     vdW  Elec       q    Type
                         _______ _______ _______ _____ _____    ______ ____

>  <TORSDO>
F 4

$$$$
=
 OpenBabel11052413493D

 27 30  0  0  1  0  0  0  0  0999 V2000
  189.2700  177.6580  143.6240 C   0  0  2  0  0  3  0  0  0  0  0  0
  189.7180  176.9930  141.2710 N   0  0  0  0  0  0  0  0  0  0  0  0
  192.7220  177.0740  139.1610 C   0  0  0  0  0  3  0  0  0  0  0  0
  193.0380  176.4030  136.8660 O   0  0  0  0  0  1  0  0  0  0  0  0
  191.5250  177.8810  142.5640 C   0  0  0  0  0  3  0  0  0  0  0  0
  190.0230  176.3240  138.9950 C   0  0  0  0  0  3  0  0  0  0  0  0
  190.8630  176.1780  137.8870 C   0  0  0  0  0  3  0  0  0  0  0  0
  190.5290  176.8460  140.1900 C   0  0  0  0  0  0  0  0  0  0  0  0
  192.2100  176.5520  137.9700 C   0  0  0  0  0  0  0  0  0  0  0  0
  191.8870  177.2220  140.2720 C   0  0  0  0  0  0  0  0  0  0  0  0
  190.1850  177.4980  142.4480 C   0  0  0  0  0  0  0  0  0  0  0  0
  192.3790  177.7410  141.4690 C   0  0  0  0  0  3  0  0  0  0  0  0
  191.1920  176.6570  147.3860 C   0  0  0  0  0  3  0  0  0  0  0  0
  190.0370  177.6020  144.9510 C   0  0  1  0  0  3  0  0  0  0  0  0
  189.1040  177.2620  146.1140 C   0  0  0  0  0  2  0  0  0  0  0  0
  189.8700  177.3820  147.4300 C   0  0  0  0  0  2  0  0  0  0  0  0
  191.7890  176.3170  146.2340 C   0  0  0  0  0  3  0  0  0  0  0  0
  191.1340  176.5340  144.8930 C   0  0  0  0  0  2  0  0  0  0  0  0
  187.9700  176.3730  143.5660 S   0  0  0  0  0  0  0  0  0  0  0  0
  186.8700  178.1160  141.3420 F   0  0  0  0  0  0  0  0  0  0  0  0
  184.5600  179.4330  143.8510 C   0  0  0  0  0  0  0  0  0  0  0  0
  183.5270  180.3550  143.9440 O   0  0  0  0  0  1  0  0  0  0  0  0
  186.6400  177.5700  143.6650 C   0  0  0  0  0  0  0  0  0  0  0  0
  185.2100  179.2310  142.6300 C   0  0  0  0  0  3  0  0  0  0  0  0
  184.9510  178.7070  144.9800 C   0  0  0  0  0  3  0  0  0  0  0  0
  185.9920  177.7780  144.8870 C   0  0  0  0  0  3  0  0  0  0  0  0
  186.2510  178.3030  142.5340 C   0  0  0  0  0  0  0  0  0  0  0  0
  1 19  1  1  0  0  0
  2 11  1  0  0  0  0
  3 10  1  0  0  0  0
  4  9  1  0  0  0  0
  6  8  1  0  0  0  0
  7  9  1  0  0  0  0
  7  6  2  0  0  0  0
  8 10  1  0  0  0  0
  8  2  2  0  0  0  0
  9  3  2  0  0  0  0
 10 12  2  0  0  0  0
 11  5  2  0  0  0  0
 11  1  1  0  0  0  0
 12  5  1  0  0  0  0
 13 16  1  0  0  0  0
 14  1  1  6  0  0  0
 14 15  1  0  0  0  0
 15 16  1  0  0  0  0
 17 13  2  0  0  0  0
 18 14  1  0  0  0  0
 18 17  1  0  0  0  0
 19 23  1  0  0  0  0
 20 27  1  0  0  0  0
 21 22  1  0  0  0  0
 21 25  1  0  0  0  0
 23 26  1  0  0  0  0
 24 21  2  0  0  0  0
 26 25  2  0  0  0  0
 27 24  1  0  0  0  0
 27 23  2  0  0  0  0
M  END
>  <MODEL>
3

>  <REMARK>
 VINA RESULT:      -7.8      2.182      7.100
  Name = 
  4 active torsions:
  status: ('A' for Active; 'I' for Inactive)
    1  A    between atoms: S_1  and  C_15
    2  A    between atoms: S_1  and  C_18
    3  A    between atoms: C_9  and  C_15
    4  A    between atoms: C_15  and  C_19
                            x       y       z     vdW  Elec       q    Type
                         _______ _______ _______ _____ _____    ______ ____

>  <TORSDO>
F 4

$$$$
=
 OpenBabel11052413493D

 27 30  0  0  1  0  0  0  0  0999 V2000
  189.1170  177.6520  143.7030 C   0  0  2  0  0  3  0  0  0  0  0  0
  189.3180  177.0830  141.2920 N   0  0  0  0  0  0  0  0  0  0  0  0
  192.1560  176.9410  138.9660 C   0  0  0  0  0  3  0  0  0  0  0  0
  192.2280  176.3780  136.6220 O   0  0  0  0  0  1  0  0  0  0  0  0
  191.3040  177.6750  142.4880 C   0  0  0  0  0  3  0  0  0  0  0  0
  189.3810  176.5230  138.9680 C   0  0  0  0  0  3  0  0  0  0  0  0
  190.1180  176.3470  137.7930 C   0  0  0  0  0  3  0  0  0  0  0  0
  190.0280  176.9080  140.1460 C   0  0  0  0  0  0  0  0  0  0  0  0
  191.5030  176.5550  137.7920 C   0  0  0  0  0  0  0  0  0  0  0  0
  191.4240  177.1180  140.1430 C   0  0  0  0  0  0  0  0  0  0  0  0
  189.9230  177.4580  142.4540 C   0  0  0  0  0  0  0  0  0  0  0  0
  192.0570  177.5030  141.3250 C   0  0  0  0  0  3  0  0  0  0  0  0
  191.2970  176.7380  147.3450 C   0  0  0  0  0  3  0  0  0  0  0  0
  190.0000  177.6170  144.9570 C   0  0  1  0  0  3  0  0  0  0  0  0
  189.1560  177.4420  146.2210 C   0  0  0  0  0  2  0  0  0  0  0  0
  190.0510  177.5800  147.4510 C   0  0  0  0  0  2  0  0  0  0  0  0
  191.7510  176.2680  146.1730 C   0  0  0  0  0  3  0  0  0  0  0  0
  190.9930  176.4520  144.8830 C   0  0  0  0  0  2  0  0  0  0  0  0
  187.8070  176.3800  143.7890 S   0  0  0  0  0  0  0  0  0  0  0  0
  186.1860  177.2290  146.2060 F   0  0  0  0  0  0  0  0  0  0  0  0
  184.4390  179.4950  143.9320 C   0  0  0  0  0  0  0  0  0  0  0  0
  183.4230  180.4400  143.9680 O   0  0  0  0  0  1  0  0  0  0  0  0
  186.4910  177.5940  143.8570 C   0  0  0  0  0  0  0  0  0  0  0  0
  184.8110  178.8230  145.1000 C   0  0  0  0  0  3  0  0  0  0  0  0
  185.0890  179.2160  142.7260 C   0  0  0  0  0  3  0  0  0  0  0  0
  186.1120  178.2650  142.6890 C   0  0  0  0  0  3  0  0  0  0  0  0
  185.8350  177.8710  145.0660 C   0  0  0  0  0  0  0  0  0  0  0  0
  1 19  1  1  0  0  0
  2 11  1  0  0  0  0
  3 10  1  0  0  0  0
  4  9  1  0  0  0  0
  6  8  1  0  0  0  0
  7  6  2  0  0  0  0
  8  2  2  0  0  0  0
  9  7  1  0  0  0  0
  9  3  2  0  0  0  0
 10  8  1  0  0  0  0
 10 12  2  0  0  0  0
 11  5  2  0  0  0  0
 11  1  1  0  0  0  0
 12  5  1  0  0  0  0
 13 16  1  0  0  0  0
 14  1  1  6  0  0  0
 14 15  1  0  0  0  0
 15 16  1  0  0  0  0
 17 13  2  0  0  0  0
 18 14  1  0  0  0  0
 18 17  1  0  0  0  0
 19 23  1  0  0  0  0
 21 22  1  0  0  0  0
 21 24  1  0  0  0  0
 23 27  1  0  0  0  0
 25 21  2  0  0  0  0
 26 25  1  0  0  0  0
 26 23  2  0  0  0  0
 27 24  2  0  0  0  0
 27 20  1  0  0  0  0
M  END
>  <MODEL>
4

>  <REMARK>
 VINA RESULT:      -7.7      2.380      7.029
  Name = 
  4 active torsions:
  status: ('A' for Active; 'I' for Inactive)
    1  A    between atoms: S_1  and  C_15
    2  A    between atoms: S_1  and  C_18
    3  A    between atoms: C_9  and  C_15
    4  A    between atoms: C_15  and  C_19
                            x       y       z     vdW  Elec       q    Type
                         _______ _______ _______ _____ _____    ______ ____

>  <TORSDO>
F 4

$$$$
=
 OpenBabel11052413493D

 27 30  0  0  1  0  0  0  0  0999 V2000
  189.2660  176.9410  139.7400 C   0  0  2  0  0  3  0  0  0  0  0  0
  188.0860  177.3580  141.8880 N   0  0  0  0  0  0  0  0  0  0  0  0
  189.1080  177.1270  145.4080 C   0  0  0  0  0  3  0  0  0  0  0  0
  187.8600  177.5530  147.4280 O   0  0  0  0  0  1  0  0  0  0  0  0
  190.3750  176.6640  141.9660 C   0  0  0  0  0  3  0  0  0  0  0  0
  186.8430  177.7830  143.8860 C   0  0  0  0  0  3  0  0  0  0  0  0
  186.7900  177.8310  145.2830 C   0  0  0  0  0  3  0  0  0  0  0  0
  188.0270  177.4080  143.2450 C   0  0  0  0  0  0  0  0  0  0  0  0
  187.9200  177.5040  146.0420 C   0  0  0  0  0  0  0  0  0  0  0  0
  189.1660  177.0790  144.0120 C   0  0  0  0  0  0  0  0  0  0  0  0
  189.2280  176.9960  141.2380 C   0  0  0  0  0  0  0  0  0  0  0  0
  190.3420  176.7060  143.3610 C   0  0  0  0  0  3  0  0  0  0  0  0
  192.7690  175.5490  137.5850 C   0  0  0  0  0  3  0  0  0  0  0  0
  190.5500  176.2740  139.2310 C   0  0  1  0  0  3  0  0  0  0  0  0
  190.2810  175.4520  137.9690 C   0  0  0  0  0  2  0  0  0  0  0  0
  191.5410  174.6740  137.5930 C   0  0  0  0  0  2  0  0  0  0  0  0
  192.8150  176.7320  138.2180 C   0  0  0  0  0  3  0  0  0  0  0  0
  191.6080  177.3300  138.8950 C   0  0  0  0  0  2  0  0  0  0  0  0
  189.0930  178.6300  139.0620 S   0  0  0  0  0  0  0  0  0  0  0  0
  189.4300  178.2370  136.0750 F   0  0  0  0  0  0  0  0  0  0  0  0
  185.8820  177.3600  136.0380 C   0  0  0  0  0  0  0  0  0  0  0  0
  184.9060  176.9730  135.1300 O   0  0  0  0  0  1  0  0  0  0  0  0
  187.8490  178.1340  137.8730 C   0  0  0  0  0  0  0  0  0  0  0  0
  187.1860  177.6100  135.6000 C   0  0  0  0  0  3  0  0  0  0  0  0
  185.5590  177.4990  137.3910 C   0  0  0  0  0  3  0  0  0  0  0  0
  186.5410  177.8880  138.3070 C   0  0  0  0  0  3  0  0  0  0  0  0
  188.1700  178.0000  136.5140 C   0  0  0  0  0  0  0  0  0  0  0  0
  1 19  1  6  0  0  0
  1 11  1  0  0  0  0
  2  8  1  0  0  0  0
  3  9  1  0  0  0  0
  5 12  2  0  0  0  0
  6  7  1  0  0  0  0
  7  9  2  0  0  0  0
  8  6  2  0  0  0  0
  8 10  1  0  0  0  0
  9  4  1  0  0  0  0
 10  3  2  0  0  0  0
 11  2  2  0  0  0  0
 11  5  1  0  0  0  0
 12 10  1  0  0  0  0
 13 16  1  0  0  0  0
 13 17  2  0  0  0  0
 14  1  1  6  0  0  0
 15 14  1  0  0  0  0
 16 15  1  0  0  0  0
 17 18  1  0  0  0  0
 18 14  1  0  0  0  0
 20 27  1  0  0  0  0
 21 25  1  0  0  0  0
 22 21  1  0  0  0  0
 23 26  1  0  0  0  0
 23 19  1  0  0  0  0
 24 21  2  0  0  0  0
 24 27  1  0  0  0  0
 25 26  2  0  0  0  0
 27 23  2  0  0  0  0
M  END
>  <MODEL>
5

>  <REMARK>
 VINA RESULT:      -7.2      3.150      5.057
  Name = 
  4 active torsions:
  status: ('A' for Active; 'I' for Inactive)
    1  A    between atoms: S_1  and  C_15
    2  A    between atoms: S_1  and  C_18
    3  A    between atoms: C_9  and  C_15
    4  A    between atoms: C_15  and  C_19
                            x       y       z     vdW  Elec       q    Type
                         _______ _______ _______ _____ _____    ______ ____

>  <TORSDO>
F 4

$$$$
=
 OpenBabel11052413493D

 27 30  0  0  1  0  0  0  0  0999 V2000
  188.9160  177.6410  143.5870 C   0  0  2  0  0  3  0  0  0  0  0  0
  190.9560  177.5080  142.1730 N   0  0  0  0  0  0  0  0  0  0  0  0
  191.5050  176.8660  138.5990 C   0  0  0  0  0  3  0  0  0  0  0  0
  193.5510  176.7510  137.3290 O   0  0  0  0  0  1  0  0  0  0  0  0
  188.8280  177.1800  141.1290 C   0  0  0  0  0  3  0  0  0  0  0  0
  192.9900  177.3970  140.9200 C   0  0  0  0  0  3  0  0  0  0  0  0
  193.6400  177.2050  139.6970 C   0  0  0  0  0  3  0  0  0  0  0  0
  191.5950  177.3240  140.9870 C   0  0  0  0  0  0  0  0  0  0  0  0
  192.9000  176.9400  138.5390 C   0  0  0  0  0  0  0  0  0  0  0  0
  190.8500  177.0570  139.8190 C   0  0  0  0  0  0  0  0  0  0  0  0
  189.5980  177.4430  142.2670 C   0  0  0  0  0  0  0  0  0  0  0  0
  189.4590  176.9870  139.9000 C   0  0  0  0  0  3  0  0  0  0  0  0
  191.4610  176.6700  146.9680 C   0  0  0  0  0  3  0  0  0  0  0  0
  189.9120  177.5910  144.7520 C   0  0  1  0  0  3  0  0  0  0  0  0
  189.1970  177.3240  146.0780 C   0  0  0  0  0  2  0  0  0  0  0  0
  190.1960  177.4490  147.2260 C   0  0  0  0  0  2  0  0  0  0  0  0
  191.8230  176.2720  145.7380 C   0  0  0  0  0  3  0  0  0  0  0  0
  190.9410  176.4780  144.5330 C   0  0  0  0  0  2  0  0  0  0  0  0
  187.6050  176.3830  143.7920 S   0  0  0  0  0  0  0  0  0  0  0  0
  186.1410  177.3750  146.2550 F   0  0  0  0  0  0  0  0  0  0  0  0
  184.2630  179.5250  143.9710 C   0  0  0  0  0  0  0  0  0  0  0  0
  183.2550  180.4770  144.0180 O   0  0  0  0  0  1  0  0  0  0  0  0
  186.3010  177.6080  143.8750 C   0  0  0  0  0  0  0  0  0  0  0  0
  184.7050  178.9150  145.1490 C   0  0  0  0  0  3  0  0  0  0  0  0
  184.8360  179.1750  142.7450 C   0  0  0  0  0  3  0  0  0  0  0  0
  185.8520  178.2160  142.6970 C   0  0  0  0  0  3  0  0  0  0  0  0
  185.7210  177.9560  145.1040 C   0  0  0  0  0  0  0  0  0  0  0  0
  1 19  1  1  0  0  0
  2 11  1  0  0  0  0
  3 10  1  0  0  0  0
  4  9  1  0  0  0  0
  5 11  2  0  0  0  0
  6  8  1  0  0  0  0
  7  6  2  0  0  0  0
  8  2  2  0  0  0  0
  9  3  2  0  0  0  0
  9  7  1  0  0  0  0
 10 12  2  0  0  0  0
 10  8  1  0  0  0  0
 11  1  1  0  0  0  0
 12  5  1  0  0  0  0
 13 16  1  0  0  0  0
 14  1  1  6  0  0  0
 14 15  1  0  0  0  0
 15 16  1  0  0  0  0
 17 13  2  0  0  0  0
 18 14  1  0  0  0  0
 18 17  1  0  0  0  0
 19 23  1  0  0  0  0
 21 22  1  0  0  0  0
 21 24  1  0  0  0  0
 23 27  1  0  0  0  0
 25 21  2  0  0  0  0
 26 25  1  0  0  0  0
 26 23  2  0  0  0  0
 27 24  2  0  0  0  0
 27 20  1  0  0  0  0
M  END
>  <MODEL>
6

>  <REMARK>
 VINA RESULT:      -7.2      2.595      7.376
  Name = 
  4 active torsions:
  status: ('A' for Active; 'I' for Inactive)
    1  A    between atoms: S_1  and  C_15
    2  A    between atoms: S_1  and  C_18
    3  A    between atoms: C_9  and  C_15
    4  A    between atoms: C_15  and  C_19
                            x       y       z     vdW  Elec       q    Type
                         _______ _______ _______ _____ _____    ______ ____

>  <TORSDO>
F 4

$$$$
=
 OpenBabel11052413493D

 27 30  0  0  1  0  0  0  0  0999 V2000
  189.2140  177.0200  139.7100 C   0  0  2  0  0  3  0  0  0  0  0  0
  190.2420  176.8110  141.9640 N   0  0  0  0  0  0  0  0  0  0  0  0
  189.0120  177.4660  145.3610 C   0  0  0  0  0  3  0  0  0  0  0  0
  190.1150  177.2320  147.4940 O   0  0  0  0  0  1  0  0  0  0  0  0
  187.9800  177.5790  141.8130 C   0  0  0  0  0  3  0  0  0  0  0  0
  191.3420  176.5750  144.0740 C   0  0  0  0  0  3  0  0  0  0  0  0
  191.3060  176.6840  145.4670 C   0  0  0  0  0  3  0  0  0  0  0  0
  190.2140  176.9120  143.3190 C   0  0  0  0  0  0  0  0  0  0  0  0
  190.1440  177.1270  146.1100 C   0  0  0  0  0  0  0  0  0  0  0  0
  189.0430  177.3590  143.9680 C   0  0  0  0  0  0  0  0  0  0  0  0
  189.1570  177.1320  141.2030 C   0  0  0  0  0  0  0  0  0  0  0  0
  187.9250  177.6920  143.2030 C   0  0  0  0  0  3  0  0  0  0  0  0
  192.7790  175.5910  137.6850 C   0  0  0  0  0  3  0  0  0  0  0  0
  190.5020  176.3310  139.2420 C   0  0  1  0  0  3  0  0  0  0  0  0
  190.2730  175.5570  137.9430 C   0  0  0  0  0  2  0  0  0  0  0  0
  191.5280  174.7540  137.6040 C   0  0  0  0  0  2  0  0  0  0  0  0
  192.8270  176.7520  138.3570 C   0  0  0  0  0  3  0  0  0  0  0  0
  191.6050  177.3650  138.9940 C   0  0  0  0  0  2  0  0  0  0  0  0
  189.0550  178.6830  138.9660 S   0  0  0  0  0  0  0  0  0  0  0  0
  189.4240  178.2540  135.9880 F   0  0  0  0  0  0  0  0  0  0  0  0
  185.8950  177.3020  135.9360 C   0  0  0  0  0  0  0  0  0  0  0  0
  184.9350  176.8820  135.0260 O   0  0  0  0  0  1  0  0  0  0  0  0
  187.8300  178.1440  137.7740 C   0  0  0  0  0  0  0  0  0  0  0  0
  187.1970  177.5740  135.5050 C   0  0  0  0  0  3  0  0  0  0  0  0
  185.5590  177.4540  137.2840 C   0  0  0  0  0  3  0  0  0  0  0  0
  186.5250  177.8770  138.2020 C   0  0  0  0  0  3  0  0  0  0  0  0
  188.1650  177.9970  136.4200 C   0  0  0  0  0  0  0  0  0  0  0  0
  1 19  1  6  0  0  0
  1 11  1  0  0  0  0
  2  8  1  0  0  0  0
  3  9  1  0  0  0  0
  5 12  2  0  0  0  0
  6  7  1  0  0  0  0
  7  9  2  0  0  0  0
  8 10  1  0  0  0  0
  8  6  2  0  0  0  0
  9  4  1  0  0  0  0
 10  3  2  0  0  0  0
 11  5  1  0  0  0  0
 11  2  2  0  0  0  0
 12 10  1  0  0  0  0
 13 17  2  0  0  0  0
 14  1  1  6  0  0  0
 15 14  1  0  0  0  0
 16 13  1  0  0  0  0
 16 15  1  0  0  0  0
 17 18  1  0  0  0  0
 18 14  1  0  0  0  0
 20 27  1  0  0  0  0
 21 25  1  0  0  0  0
 22 21  1  0  0  0  0
 23 26  1  0  0  0  0
 23 19  1  0  0  0  0
 24 21  2  0  0  0  0
 24 27  1  0  0  0  0
 25 26  2  0  0  0  0
 27 23  2  0  0  0  0
M  END
>  <MODEL>
7

>  <REMARK>
 VINA RESULT:      -7.2      3.692      5.715
  Name = 
  4 active torsions:
  status: ('A' for Active; 'I' for Inactive)
    1  A    between atoms: S_1  and  C_15
    2  A    between atoms: S_1  and  C_18
    3  A    between atoms: C_9  and  C_15
    4  A    between atoms: C_15  and  C_19
                            x       y       z     vdW  Elec       q    Type
                         _______ _______ _______ _____ _____    ______ ____

>  <TORSDO>
F 4

$$$$
=
 OpenBabel11052413493D

 27 30  0  0  1  0  0  0  0  0999 V2000
  182.1450  178.6320  140.7340 C   0  0  2  0  0  3  0  0  0  0  0  0
  184.2040  178.2610  142.0770 N   0  0  0  0  0  0  0  0  0  0  0  0
  184.9810  178.6290  145.6470 C   0  0  0  0  0  3  0  0  0  0  0  0
  187.0380  178.2440  146.8460 O   0  0  0  0  0  1  0  0  0  0  0  0
  182.2300  179.0050  143.2070 C   0  0  0  0  0  3  0  0  0  0  0  0
  186.2470  177.8770  143.2590 C   0  0  0  0  0  3  0  0  0  0  0  0
  186.9580  177.8740  144.4630 C   0  0  0  0  0  3  0  0  0  0  0  0
  184.9010  178.2550  143.2440 C   0  0  0  0  0  0  0  0  0  0  0  0
  186.3270  178.2490  145.6540 C   0  0  0  0  0  0  0  0  0  0  0  0
  184.2660  178.6330  144.4470 C   0  0  0  0  0  0  0  0  0  0  0  0
  182.8910  178.6250  142.0340 C   0  0  0  0  0  0  0  0  0  0  0  0
  182.9230  179.0080  144.4180 C   0  0  0  0  0  3  0  0  0  0  0  0
  179.5710  175.3630  139.4930 C   0  0  0  0  0  3  0  0  0  0  0  0
  181.2340  177.4060  140.5980 C   0  0  1  0  0  3  0  0  0  0  0  0
  179.8550  177.8000  140.0630 C   0  0  0  0  0  2  0  0  0  0  0  0
  178.9310  176.5850  140.1020 C   0  0  0  0  0  2  0  0  0  0  0  0
  180.8980  175.2530  139.3250 C   0  0  0  0  0  3  0  0  0  0  0  0
  181.8450  176.3860  139.6320 C   0  0  0  0  0  2  0  0  0  0  0  0
  183.3350  178.7200  139.3480 S   0  0  0  0  0  0  0  0  0  0  0  0
  181.6260  178.0250  136.9420 F   0  0  0  0  0  0  0  0  0  0  0  0
  180.6700  181.5530  136.9090 C   0  0  0  0  0  0  0  0  0  0  0  0
  179.8640  182.4140  136.1770 O   0  0  0  0  0  1  0  0  0  0  0  0
  182.2910  179.8160  138.3890 C   0  0  0  0  0  0  0  0  0  0  0  0
  180.7500  180.2020  136.5580 C   0  0  0  0  0  3  0  0  0  0  0  0
  181.4020  182.0370  137.9970 C   0  0  0  0  0  3  0  0  0  0  0  0
  182.2130  181.1700  138.7350 C   0  0  0  0  0  3  0  0  0  0  0  0
  181.5600  179.3320  137.2930 C   0  0  0  0  0  0  0  0  0  0  0  0
  1 19  1  6  0  0  0
  1 11  1  0  0  0  0
  2  8  1  0  0  0  0
  3  9  1  0  0  0  0
  5 12  2  0  0  0  0
  6  7  1  0  0  0  0
  7  9  2  0  0  0  0
  8  6  2  0  0  0  0
  8 10  1  0  0  0  0
  9  4  1  0  0  0  0
 10  3  2  0  0  0  0
 11  2  2  0  0  0  0
 11  5  1  0  0  0  0
 12 10  1  0  0  0  0
 13 16  1  0  0  0  0
 14  1  1  6  0  0  0
 15 16  1  0  0  0  0
 15 14  1  0  0  0  0
 17 13  2  0  0  0  0
 17 18  1  0  0  0  0
 18 14  1  0  0  0  0
 20 27  1  0  0  0  0
 21 25  1  0  0  0  0
 22 21  1  0  0  0  0
 23 26  1  0  0  0  0
 23 19  1  0  0  0  0
 24 21  2  0  0  0  0
 24 27  1  0  0  0  0
 25 26  2  0  0  0  0
 27 23  2  0  0  0  0
M  END
>  <MODEL>
8

>  <REMARK>
 VINA RESULT:      -7.2      4.780      8.176
  Name = 
  4 active torsions:
  status: ('A' for Active; 'I' for Inactive)
    1  A    between atoms: S_1  and  C_15
    2  A    between atoms: S_1  and  C_18
    3  A    between atoms: C_9  and  C_15
    4  A    between atoms: C_15  and  C_19
                            x       y       z     vdW  Elec       q    Type
                         _______ _______ _______ _____ _____    ______ ____

>  <TORSDO>
F 4

$$$$
=
 OpenBabel11052413493D

 27 30  0  0  1  0  0  0  0  0999 V2000
  189.4390  176.9200  139.5000 C   0  0  2  0  0  3  0  0  0  0  0  0
  188.5170  177.1510  141.7970 N   0  0  0  0  0  0  0  0  0  0  0  0
  190.0660  177.5320  145.1040 C   0  0  0  0  0  3  0  0  0  0  0  0
  189.0600  177.7400  147.2860 O   0  0  0  0  0  1  0  0  0  0  0  0
  190.8940  177.1720  141.5190 C   0  0  0  0  0  3  0  0  0  0  0  0
  187.5110  177.3580  143.9570 C   0  0  0  0  0  3  0  0  0  0  0  0
  187.6530  177.5060  145.3400 C   0  0  0  0  0  3  0  0  0  0  0  0
  188.6460  177.2960  143.1420 C   0  0  0  0  0  0  0  0  0  0  0  0
  188.9270  177.5930  145.9130 C   0  0  0  0  0  0  0  0  0  0  0  0
  189.9310  177.3840  143.7210 C   0  0  0  0  0  0  0  0  0  0  0  0
  189.6060  177.0890  140.9800 C   0  0  0  0  0  0  0  0  0  0  0  0
  191.0550  177.3210  142.8980 C   0  0  0  0  0  3  0  0  0  0  0  0
  192.5430  175.1550  137.0300 C   0  0  0  0  0  3  0  0  0  0  0  0
  190.6040  176.1360  138.8840 C   0  0  1  0  0  3  0  0  0  0  0  0
  190.1250  175.2510  137.7310 C   0  0  0  0  0  2  0  0  0  0  0  0
  191.2780  174.3670  137.2590 C   0  0  0  0  0  2  0  0  0  0  0  0
  192.7400  176.3720  137.5610 C   0  0  0  0  0  3  0  0  0  0  0  0
  191.6680  177.0940  138.3380 C   0  0  0  0  0  2  0  0  0  0  0  0
  189.2670  178.5620  138.7140 S   0  0  0  0  0  0  0  0  0  0  0  0
  186.4770  178.6310  139.9000 F   0  0  0  0  0  0  0  0  0  0  0  0
  185.3270  177.4470  136.6380 C   0  0  0  0  0  0  0  0  0  0  0  0
  184.1390  177.1110  136.0040 O   0  0  0  0  0  1  0  0  0  0  0  0
  187.7230  178.1300  137.9140 C   0  0  0  0  0  0  0  0  0  0  0  0
  185.3130  177.8750  137.9690 C   0  0  0  0  0  3  0  0  0  0  0  0
  186.5380  177.3560  135.9460 C   0  0  0  0  0  3  0  0  0  0  0  0
  187.7350  177.6950  136.5840 C   0  0  0  0  0  3  0  0  0  0  0  0
  186.5080  178.2150  138.6100 C   0  0  0  0  0  0  0  0  0  0  0  0
  1 19  1  6  0  0  0
  1 11  1  0  0  0  0
  2  8  1  0  0  0  0
  3  9  1  0  0  0  0
  5 12  2  0  0  0  0
  6  7  1  0  0  0  0
  7  9  2  0  0  0  0
  8 10  1  0  0  0  0
  8  6  2  0  0  0  0
  9  4  1  0  0  0  0
 10  3  2  0  0  0  0
 11  5  1  0  0  0  0
 11  2  2  0  0  0  0
 12 10  1  0  0  0  0
 13 16  1  0  0  0  0
 13 17  2  0  0  0  0
 14  1  1  6  0  0  0
 15 14  1  0  0  0  0
 16 15  1  0  0  0  0
 17 18  1  0  0  0  0
 18 14  1  0  0  0  0
 21 24  1  0  0  0  0
 22 21  1  0  0  0  0
 23 27  1  0  0  0  0
 23 19  1  0  0  0  0
 24 27  2  0  0  0  0
 25 26  1  0  0  0  0
 25 21  2  0  0  0  0
 26 23  2  0  0  0  0
 27 20  1  0  0  0  0
M  END
>  <MODEL>
9

>  <REMARK>
 VINA RESULT:      -7.1      3.436      5.574
  Name = 
  4 active torsions:
  status: ('A' for Active; 'I' for Inactive)
    1  A    between atoms: S_1  and  C_15
    2  A    between atoms: S_1  and  C_18
    3  A    between atoms: C_9  and  C_15
    4  A    between atoms: C_15  and  C_19
                            x       y       z     vdW  Elec       q    Type
                         _______ _______ _______ _____ _____    ______ ____

>  <TORSDO>
F 4

$$$$
