=
 OpenBabel11052414093D

 34 39  0  0  1  0  0  0  0  0999 V2000
  188.3660  177.5250  137.3650 C   0  0  0  0  0  0  0  0  0  0  0  0
  185.9390  176.8810  137.5220 C   0  0  0  0  0  0  0  0  0  0  0  0
  186.9800  178.0960  139.4420 C   0  0  0  0  0  0  0  0  0  0  0  0
  185.8570  178.7410  141.5930 C   0  0  1  0  0  3  0  0  0  0  0  0
  187.1950  176.1720  135.5620 C   0  0  0  0  0  2  0  0  0  0  0  0
  186.3280  175.6870  136.7140 C   0  0  0  0  0  2  0  0  0  0  0  0
  184.6450  178.9840  139.3530 C   0  0  0  0  0  0  0  0  0  0  0  0
  186.9870  177.8810  137.9360 C   0  0  1  0  0  3  0  0  0  0  0  0
  184.0880  178.3480  138.3010 C   0  0  0  0  0  0  0  0  0  0  0  0
  184.5660  178.2530  142.2280 C   0  0  0  0  0  1  0  0  0  0  0  0
  188.5150  176.7420  136.0820 C   0  0  0  0  0  2  0  0  0  0  0  0
  188.2870  177.8540  140.1860 C   0  0  2  0  0  3  0  0  0  0  0  0
  189.4860  177.7990  138.0440 C   0  0  0  0  0  3  0  0  0  0  0  0
  184.6440  177.1440  137.6590 C   0  0  0  0  0  3  0  0  0  0  0  0
  187.0110  178.0630  142.3090 C   0  0  0  0  0  2  0  0  0  0  0  0
  188.3070  178.4130  141.6110 C   0  0  1  0  0  3  0  0  0  0  0  0
  184.0160  180.1280  139.8430 O   0  0  0  0  0  1  0  0  0  0  0  0
  185.8560  178.5120  140.0870 C   0  0  0  0  0  0  0  0  0  0  0  0
  189.4300  178.4640  139.3800 C   0  0  0  0  0  2  0  0  0  0  0  0
  191.4630  178.2530  143.7410 C   0  0  0  0  0  0  0  0  0  0  0  0
  191.6460  176.8700  143.8410 C   0  0  0  0  0  3  0  0  0  0  0  0
  189.4760  177.8930  142.3930 C   0  0  0  0  0  0  0  0  0  0  0  0
  190.7470  176.0000  143.2190 C   0  0  0  0  0  3  0  0  0  0  0  0
  190.3810  178.7640  143.0180 C   0  0  0  0  0  3  0  0  0  0  0  0
  189.6650  176.5100  142.4960 C   0  0  0  0  0  3  0  0  0  0  0  0
  192.3340  179.0970  144.3440 F   0  0  0  0  0  0  0  0  0  0  0  0
  182.7960  178.8490  137.7340 C   0  0  0  0  0  2  0  0  0  0  0  0
  180.0570  179.0450  136.4480 C   0  0  0  0  0  1  0  0  0  0  0  0
  181.6440  177.8940  138.0560 C   0  0  2  0  0  3  0  0  0  0  0  0
  180.2760  178.5690  137.8720 C   0  0  1  0  0  3  0  0  0  0  0  0
  180.7120  179.4750  140.2290 C   0  0  0  0  0  2  0  0  0  0  0  0
  180.8860  177.9880  140.5210 C   0  0  0  0  0  2  0  0  0  0  0  0
  181.7990  177.3250  139.4790 C   0  0  0  0  0  2  0  0  0  0  0  0
  180.0320  179.7080  138.8730 C   0  0  0  0  0  2  0  0  0  0  0  0
  1 13  2  0  0  0  0
  2 14  2  0  0  0  0
  2  8  1  0  0  0  0
  3 18  2  0  0  0  0
  3 12  1  0  0  0  0
  4 10  1  1  0  0  0
  4 15  1  0  0  0  0
  5 11  1  0  0  0  0
  5  6  1  0  0  0  0
  6  2  1  0  0  0  0
  7 17  1  0  0  0  0
  7 18  1  0  0  0  0
  8  1  1  1  0  0  0
  8  3  1  0  0  0  0
  9  7  2  0  0  0  0
 11  1  1  0  0  0  0
 12 19  1  6  0  0  0
 12 16  1  0  0  0  0
 13 19  1  0  0  0  0
 14  9  1  0  0  0  0
 16 15  1  0  0  0  0
 16 22  1  1  0  0  0
 18  4  1  0  0  0  0
 20 21  1  0  0  0  0
 20 26  1  0  0  0  0
 22 25  2  0  0  0  0
 22 24  1  0  0  0  0
 23 21  2  0  0  0  0
 24 20  2  0  0  0  0
 25 23  1  0  0  0  0
 27  9  1  0  0  0  0
 29 27  1  1  0  0  0
 29 33  1  0  0  0  0
 30 28  1  6  0  0  0
 30 29  1  0  0  0  0
 30 34  1  0  0  0  0
 31 32  1  0  0  0  0
 33 32  1  0  0  0  0
 34 31  1  0  0  0  0
M  END
>  <MODEL>
1

>  <REMARK>
 VINA RESULT:      -8.2      0.000      0.000
  Name = 
  3 active torsions:
  status: ('A' for Active; 'I' for Inactive)
    1  A    between atoms: C_3  and  C_13
    2  A    between atoms: C_3  and  C_17
    3  A    between atoms: C_12  and  C_28
                            x       y       z     vdW  Elec       q    Type
                         _______ _______ _______ _____ _____    ______ ____

>  <TORSDO>
F 3

$$$$
=
 OpenBabel11052414093D

 34 39  0  0  1  0  0  0  0  0999 V2000
  188.4140  177.5800  137.4270 C   0  0  0  0  0  0  0  0  0  0  0  0
  185.9970  176.8890  137.5110 C   0  0  0  0  0  0  0  0  0  0  0  0
  186.9580  178.1130  139.4660 C   0  0  0  0  0  0  0  0  0  0  0  0
  185.7620  178.7240  141.5870 C   0  0  1  0  0  3  0  0  0  0  0  0
  187.3220  176.2150  135.5840 C   0  0  0  0  0  2  0  0  0  0  0  0
  186.4320  175.7070  136.7090 C   0  0  0  0  0  2  0  0  0  0  0  0
  184.6090  178.9560  139.3140 C   0  0  0  0  0  0  0  0  0  0  0  0
  187.0130  177.9070  137.9600 C   0  0  1  0  0  3  0  0  0  0  0  0
  184.0960  178.3150  138.2440 C   0  0  0  0  0  0  0  0  0  0  0  0
  184.4620  178.2070  142.1820 C   0  0  0  0  0  1  0  0  0  0  0  0
  188.6150  176.8080  136.1450 C   0  0  0  0  0  2  0  0  0  0  0  0
  188.2470  177.8920  140.2470 C   0  0  2  0  0  3  0  0  0  0  0  0
  189.5090  177.8720  138.1390 C   0  0  0  0  0  3  0  0  0  0  0  0
  184.6930  177.1260  137.6120 C   0  0  0  0  0  3  0  0  0  0  0  0
  186.9080  178.0640  142.3330 C   0  0  0  0  0  2  0  0  0  0  0  0
  188.2160  178.4430  141.6740 C   0  0  1  0  0  3  0  0  0  0  0  0
  183.9450  180.0850  139.7930 O   0  0  0  0  0  1  0  0  0  0  0  0
  185.8090  178.5030  140.0810 C   0  0  0  0  0  0  0  0  0  0  0  0
  189.4020  178.5280  139.4770 C   0  0  0  0  0  2  0  0  0  0  0  0
  190.7670  176.1320  143.3100 C   0  0  0  0  0  0  0  0  0  0  0  0
  191.5420  177.0530  144.0210 C   0  0  0  0  0  3  0  0  0  0  0  0
  189.3720  177.9410  142.4870 C   0  0  0  0  0  0  0  0  0  0  0  0
  191.2340  178.4150  143.9670 C   0  0  0  0  0  3  0  0  0  0  0  0
  189.6840  176.5740  142.5450 C   0  0  0  0  0  3  0  0  0  0  0  0
  190.1510  178.8580  143.2010 C   0  0  0  0  0  3  0  0  0  0  0  0
  191.0650  174.8110  143.3620 F   0  0  0  0  0  0  0  0  0  0  0  0
  182.8110  178.7940  137.6420 C   0  0  0  0  0  2  0  0  0  0  0  0
  180.9700  178.1730  135.3140 C   0  0  0  0  0  1  0  0  0  0  0  0
  181.7400  177.7020  137.6830 C   0  0  2  0  0  3  0  0  0  0  0  0
  180.5530  178.0320  136.7670 C   0  0  1  0  0  3  0  0  0  0  0  0
  179.7600  179.4410  138.7550 C   0  0  0  0  0  2  0  0  0  0  0  0
  179.9250  178.1060  139.4730 C   0  0  0  0  0  2  0  0  0  0  0  0
  181.2760  177.4590  139.1330 C   0  0  0  0  0  2  0  0  0  0  0  0
  179.7640  179.2650  137.2300 C   0  0  0  0  0  2  0  0  0  0  0  0
  1 13  2  0  0  0  0
  2 14  2  0  0  0  0
  2  8  1  0  0  0  0
  3 18  2  0  0  0  0
  3 12  1  0  0  0  0
  4 10  1  1  0  0  0
  4 15  1  0  0  0  0
  5 11  1  0  0  0  0
  5  6  1  0  0  0  0
  6  2  1  0  0  0  0
  7 17  1  0  0  0  0
  7 18  1  0  0  0  0
  8  1  1  1  0  0  0
  8  3  1  0  0  0  0
  9  7  2  0  0  0  0
 11  1  1  0  0  0  0
 12 19  1  6  0  0  0
 12 16  1  0  0  0  0
 13 19  1  0  0  0  0
 14  9  1  0  0  0  0
 16 15  1  0  0  0  0
 16 22  1  1  0  0  0
 18  4  1  0  0  0  0
 20 26  1  0  0  0  0
 20 21  1  0  0  0  0
 22 24  1  0  0  0  0
 22 25  2  0  0  0  0
 23 21  2  0  0  0  0
 24 20  2  0  0  0  0
 25 23  1  0  0  0  0
 27  9  1  0  0  0  0
 29 27  1  1  0  0  0
 29 33  1  0  0  0  0
 30 28  1  6  0  0  0
 30 34  1  0  0  0  0
 30 29  1  0  0  0  0
 31 32  1  0  0  0  0
 33 32  1  0  0  0  0
 34 31  1  0  0  0  0
M  END
>  <MODEL>
2

>  <REMARK>
 VINA RESULT:      -7.9      0.928      1.305
  Name = 
  3 active torsions:
  status: ('A' for Active; 'I' for Inactive)
    1  A    between atoms: C_3  and  C_13
    2  A    between atoms: C_3  and  C_17
    3  A    between atoms: C_12  and  C_28
                            x       y       z     vdW  Elec       q    Type
                         _______ _______ _______ _____ _____    ______ ____

>  <TORSDO>
F 3

$$$$
=
 OpenBabel11052414093D

 34 39  0  0  1  0  0  0  0  0999 V2000
  186.1790  177.5090  143.1920 C   0  0  0  0  0  0  0  0  0  0  0  0
  187.1350  178.6620  141.1710 C   0  0  0  0  0  0  0  0  0  0  0  0
  188.6720  177.3360  142.6290 C   0  0  0  0  0  0  0  0  0  0  0  0
  191.1460  177.0370  142.3180 C   0  0  1  0  0  3  0  0  0  0  0  0
  184.7820  179.0030  141.6870 C   0  0  0  0  0  2  0  0  0  0  0  0
  186.1040  179.7100  141.4300 C   0  0  0  0  0  2  0  0  0  0  0  0
  189.5520  176.9640  140.3180 C   0  0  0  0  0  0  0  0  0  0  0  0
  187.2540  177.4800  142.0980 C   0  0  1  0  0  3  0  0  0  0  0  0
  188.7080  177.6590  139.5260 C   0  0  0  0  0  0  0  0  0  0  0  0
  192.1460  177.8170  141.4800 C   0  0  0  0  0  1  0  0  0  0  0  0
  184.8470  178.1860  142.9780 C   0  0  0  0  0  2  0  0  0  0  0  0
  188.8520  177.3240  144.1410 C   0  0  2  0  0  3  0  0  0  0  0  0
  186.4290  177.0310  144.4170 C   0  0  0  0  0  3  0  0  0  0  0  0
  187.7680  178.6880  140.0020 C   0  0  0  0  0  3  0  0  0  0  0  0
  191.3020  177.4840  143.7610 C   0  0  0  0  0  2  0  0  0  0  0  0
  190.2260  176.8360  144.6040 C   0  0  1  0  0  3  0  0  0  0  0  0
  190.3720  176.0030  139.7290 O   0  0  0  0  0  1  0  0  0  0  0  0
  189.7290  177.1970  141.7830 C   0  0  0  0  0  0  0  0  0  0  0  0
  187.7620  176.4510  144.7570 C   0  0  0  0  0  2  0  0  0  0  0  0
  191.7570  176.8890  148.0930 C   0  0  0  0  0  0  0  0  0  0  0  0
  190.8430  177.7000  148.7720 C   0  0  0  0  0  3  0  0  0  0  0  0
  190.4570  177.1270  146.0570 C   0  0  0  0  0  0  0  0  0  0  0  0
  189.7360  178.2230  148.0960 C   0  0  0  0  0  3  0  0  0  0  0  0
  191.5650  176.6030  146.7380 C   0  0  0  0  0  3  0  0  0  0  0  0
  189.5440  177.9370  146.7410 C   0  0  0  0  0  3  0  0  0  0  0  0
  192.8290  176.3820  148.7470 F   0  0  0  0  0  0  0  0  0  0  0  0
  188.7180  177.4220  138.0480 C   0  0  0  0  0  2  0  0  0  0  0  0
  189.1230  174.6690  136.8430 C   0  0  0  0  0  1  0  0  0  0  0  0
  187.5640  176.5090  137.6270 C   0  0  2  0  0  3  0  0  0  0  0  0
  187.9650  175.5780  136.4730 C   0  0  1  0  0  3  0  0  0  0  0  0
  187.4190  177.6090  135.0080 C   0  0  0  0  0  2  0  0  0  0  0  0
  186.0930  177.5030  135.7550 C   0  0  0  0  0  2  0  0  0  0  0  0
  186.3220  177.3450  137.2650 C   0  0  0  0  0  2  0  0  0  0  0  0
  188.2600  176.3350  135.1700 C   0  0  0  0  0  2  0  0  0  0  0  0
  1 13  2  0  0  0  0
  2  6  1  0  0  0  0
  3 12  1  0  0  0  0
  4 10  1  6  0  0  0
  4 15  1  0  0  0  0
  5 11  1  0  0  0  0
  6  5  1  0  0  0  0
  7 18  1  0  0  0  0
  8  2  1  1  0  0  0
  8  3  1  0  0  0  0
  8  1  1  0  0  0  0
  9 14  1  0  0  0  0
  9  7  2  0  0  0  0
 11  1  1  0  0  0  0
 12 16  1  0  0  0  0
 12 19  1  1  0  0  0
 13 19  1  0  0  0  0
 14  2  2  0  0  0  0
 15 16  1  0  0  0  0
 16 22  1  1  0  0  0
 17  7  1  0  0  0  0
 18  4  1  0  0  0  0
 18  3  2  0  0  0  0
 20 26  1  0  0  0  0
 20 21  1  0  0  0  0
 22 24  1  0  0  0  0
 22 25  2  0  0  0  0
 23 21  2  0  0  0  0
 24 20  2  0  0  0  0
 25 23  1  0  0  0  0
 27  9  1  0  0  0  0
 29 27  1  6  0  0  0
 30 28  1  1  0  0  0
 30 29  1  0  0  0  0
 31 34  1  0  0  0  0
 31 32  1  0  0  0  0
 32 33  1  0  0  0  0
 33 29  1  0  0  0  0
 34 30  1  0  0  0  0
M  END
>  <MODEL>
3

>  <REMARK>
 VINA RESULT:      -7.4      3.077      6.097
  Name = 
  3 active torsions:
  status: ('A' for Active; 'I' for Inactive)
    1  A    between atoms: C_3  and  C_13
    2  A    between atoms: C_3  and  C_17
    3  A    between atoms: C_12  and  C_28
                            x       y       z     vdW  Elec       q    Type
                         _______ _______ _______ _____ _____    ______ ____

>  <TORSDO>
F 3

$$$$
=
 OpenBabel11052414093D

 34 39  0  0  1  0  0  0  0  0999 V2000
  186.7320  177.4290  145.3250 C   0  0  0  0  0  0  0  0  0  0  0  0
  184.9390  179.0360  144.5960 C   0  0  0  0  0  0  0  0  0  0  0  0
  186.2410  177.8230  142.8410 C   0  0  0  0  0  0  0  0  0  0  0  0
  185.9800  178.0530  140.3550 C   0  0  1  0  0  3  0  0  0  0  0  0
  185.4140  178.8390  146.9750 C   0  0  0  0  0  2  0  0  0  0  0  0
  185.3120  179.8170  145.8130 C   0  0  0  0  0  2  0  0  0  0  0  0
  183.9350  177.9800  141.8900 C   0  0  0  0  0  0  0  0  0  0  0  0
  185.6860  177.7720  144.2570 C   0  0  1  0  0  3  0  0  0  0  0  0
  183.2240  178.6130  142.8460 C   0  0  0  0  0  0  0  0  0  0  0  0
  185.3040  179.1270  139.5190 C   0  0  0  0  0  1  0  0  0  0  0  0
  186.5720  177.8640  146.7610 C   0  0  0  0  0  2  0  0  0  0  0  0
  187.7410  177.6170  142.6740 C   0  0  2  0  0  3  0  0  0  0  0  0
  187.8820  176.8280  144.9960 C   0  0  0  0  0  3  0  0  0  0  0  0
  183.8110  179.3590  143.9720 C   0  0  0  0  0  3  0  0  0  0  0  0
  187.4780  178.2970  140.2990 C   0  0  0  0  0  2  0  0  0  0  0  0
  188.1770  177.3350  141.2350 C   0  0  1  0  0  3  0  0  0  0  0  0
  183.2410  177.2940  140.8940 O   0  0  0  0  0  1  0  0  0  0  0  0
  185.4230  178.0180  141.7720 C   0  0  0  0  0  0  0  0  0  0  0  0
  188.1820  176.4690  143.5780 C   0  0  0  0  0  2  0  0  0  0  0  0
  191.6750  177.2800  139.7250 C   0  0  0  0  0  0  0  0  0  0  0  0
  192.4470  177.6540  140.8300 C   0  0  0  0  0  3  0  0  0  0  0  0
  189.6640  177.4420  141.0750 C   0  0  0  0  0  0  0  0  0  0  0  0
  191.8300  177.9220  142.0550 C   0  0  0  0  0  3  0  0  0  0  0  0
  190.2870  177.1740  139.8470 C   0  0  0  0  0  3  0  0  0  0  0  0
  190.4410  177.8160  142.1780 C   0  0  0  0  0  3  0  0  0  0  0  0
  192.2730  177.0210  138.5380 F   0  0  0  0  0  0  0  0  0  0  0  0
  181.7280  178.6080  142.7800 C   0  0  0  0  0  2  0  0  0  0  0  0
  179.2170  180.1300  143.5370 C   0  0  0  0  0  1  0  0  0  0  0  0
  181.2060  179.8150  141.9960 C   0  0  2  0  0  3  0  0  0  0  0  0
  179.6790  179.9470  142.1030 C   0  0  1  0  0  3  0  0  0  0  0  0
  179.6710  178.2140  140.2150 C   0  0  0  0  0  2  0  0  0  0  0  0
  180.5640  179.2620  139.5590 C   0  0  0  0  0  2  0  0  0  0  0  0
  181.6580  179.7380  140.5250 C   0  0  0  0  0  2  0  0  0  0  0  0
  178.9310  178.7870  141.4310 C   0  0  0  0  0  2  0  0  0  0  0  0
  1 11  1  0  0  0  0
  2  6  1  0  0  0  0
  4 10  1  6  0  0  0
  4 18  1  0  0  0  0
  6  5  1  0  0  0  0
  7  9  2  0  0  0  0
  8  3  1  6  0  0  0
  8  2  1  0  0  0  0
  8  1  1  0  0  0  0
  9 14  1  0  0  0  0
 11  5  1  0  0  0  0
 12  3  1  0  0  0  0
 12 19  1  1  0  0  0
 13  1  2  0  0  0  0
 14  2  2  0  0  0  0
 15  4  1  0  0  0  0
 15 16  1  0  0  0  0
 16 22  1  1  0  0  0
 16 12  1  0  0  0  0
 17  7  1  0  0  0  0
 18  7  1  0  0  0  0
 18  3  2  0  0  0  0
 19 13  1  0  0  0  0
 20 24  2  0  0  0  0
 20 21  1  0  0  0  0
 21 23  2  0  0  0  0
 22 25  2  0  0  0  0
 23 25  1  0  0  0  0
 24 22  1  0  0  0  0
 26 20  1  0  0  0  0
 27  9  1  0  0  0  0
 29 30  1  0  0  0  0
 29 27  1  1  0  0  0
 30 28  1  1  0  0  0
 31 34  1  0  0  0  0
 32 31  1  0  0  0  0
 32 33  1  0  0  0  0
 33 29  1  0  0  0  0
 34 30  1  0  0  0  0
M  END
>  <MODEL>
4

>  <REMARK>
 VINA RESULT:      -7.1      2.522      5.285
  Name = 
  3 active torsions:
  status: ('A' for Active; 'I' for Inactive)
    1  A    between atoms: C_3  and  C_13
    2  A    between atoms: C_3  and  C_17
    3  A    between atoms: C_12  and  C_28
                            x       y       z     vdW  Elec       q    Type
                         _______ _______ _______ _____ _____    ______ ____

>  <TORSDO>
F 3

$$$$
=
 OpenBabel11052414093D

 34 39  0  0  1  0  0  0  0  0999 V2000
  190.0790  177.7990  139.4980 C   0  0  0  0  0  0  0  0  0  0  0  0
  187.6710  177.2260  139.0490 C   0  0  0  0  0  0  0  0  0  0  0  0
  188.3170  177.9510  141.3510 C   0  0  0  0  0  0  0  0  0  0  0  0
  186.7990  178.1510  143.3410 C   0  0  1  0  0  3  0  0  0  0  0  0
  189.2840  176.9170  137.2530 C   0  0  0  0  0  2  0  0  0  0  0  0
  188.2140  176.2240  138.0850 C   0  0  0  0  0  2  0  0  0  0  0  0
  186.0370  178.9220  141.0240 C   0  0  0  0  0  0  0  0  0  0  0  0
  188.6140  178.0720  139.8640 C   0  0  1  0  0  3  0  0  0  0  0  0
  185.6960  178.5530  139.7720 C   0  0  0  0  0  0  0  0  0  0  0  0
  185.4130  177.5830  143.5980 C   0  0  0  0  0  1  0  0  0  0  0  0
  190.4760  177.3110  138.1250 C   0  0  0  0  0  2  0  0  0  0  0  0
  189.4590  177.5050  142.2560 C   0  0  2  0  0  3  0  0  0  0  0  0
  191.0470  177.8760  140.4190 C   0  0  0  0  0  3  0  0  0  0  0  0
  186.3720  177.4990  138.9950 C   0  0  0  0  0  3  0  0  0  0  0  0
  187.7990  177.2900  144.0930 C   0  0  0  0  0  2  0  0  0  0  0  0
  189.2020  177.7370  143.7460 C   0  0  1  0  0  3  0  0  0  0  0  0
  185.3190  179.9530  141.6290 O   0  0  0  0  0  1  0  0  0  0  0  0
  187.0880  178.2570  141.8500 C   0  0  0  0  0  0  0  0  0  0  0  0
  190.7320  178.2340  141.8350 C   0  0  0  0  0  2  0  0  0  0  0  0
  191.9250  175.3280  144.8920 C   0  0  0  0  0  0  0  0  0  0  0  0
  192.0580  175.6970  146.2340 C   0  0  0  0  0  3  0  0  0  0  0  0
  190.2030  177.0150  144.5990 C   0  0  0  0  0  0  0  0  0  0  0  0
  191.2660  176.7220  146.7590 C   0  0  0  0  0  3  0  0  0  0  0  0
  190.9990  175.9850  144.0750 C   0  0  0  0  0  3  0  0  0  0  0  0
  190.3400  177.3800  145.9430 C   0  0  0  0  0  3  0  0  0  0  0  0
  192.6920  174.3350  144.3820 F   0  0  0  0  0  0  0  0  0  0  0  0
  184.5330  179.2130  139.0970 C   0  0  0  0  0  2  0  0  0  0  0  0
  183.3400  177.5310  136.8740 C   0  0  0  0  0  1  0  0  0  0  0  0
  183.2570  178.3850  139.2600 C   0  0  2  0  0  3  0  0  0  0  0  0
  182.5040  178.2300  137.9300 C   0  0  1  0  0  3  0  0  0  0  0  0
  181.5560  180.5400  138.5120 C   0  0  0  0  0  2  0  0  0  0  0  0
  181.1690  179.8050  139.7910 C   0  0  0  0  0  2  0  0  0  0  0  0
  182.3520  179.0000  140.3460 C   0  0  0  0  0  2  0  0  0  0  0  0
  181.9510  179.5600  137.3980 C   0  0  0  0  0  2  0  0  0  0  0  0
  1  8  1  0  0  0  0
  1 13  2  0  0  0  0
  3 18  2  0  0  0  0
  3 12  1  0  0  0  0
  4 10  1  6  0  0  0
  4 15  1  0  0  0  0
  5  6  1  0  0  0  0
  5 11  1  0  0  0  0
  6  2  1  0  0  0  0
  7 17  1  0  0  0  0
  7 18  1  0  0  0  0
  8  2  1  6  0  0  0
  8  3  1  0  0  0  0
  9  7  2  0  0  0  0
 11  1  1  0  0  0  0
 12 19  1  6  0  0  0
 12 16  1  0  0  0  0
 13 19  1  0  0  0  0
 14  2  2  0  0  0  0
 14  9  1  0  0  0  0
 16 15  1  0  0  0  0
 16 22  1  1  0  0  0
 18  4  1  0  0  0  0
 20 21  1  0  0  0  0
 21 23  2  0  0  0  0
 22 25  2  0  0  0  0
 24 22  1  0  0  0  0
 24 20  2  0  0  0  0
 25 23  1  0  0  0  0
 26 20  1  0  0  0  0
 27  9  1  0  0  0  0
 29 27  1  6  0  0  0
 29 33  1  0  0  0  0
 30 28  1  6  0  0  0
 30 29  1  0  0  0  0
 31 32  1  0  0  0  0
 32 33  1  0  0  0  0
 34 30  1  0  0  0  0
 34 31  1  0  0  0  0
M  END
>  <MODEL>
5

>  <REMARK>
 VINA RESULT:      -7.1      1.675      2.646
  Name = 
  3 active torsions:
  status: ('A' for Active; 'I' for Inactive)
    1  A    between atoms: C_3  and  C_13
    2  A    between atoms: C_3  and  C_17
    3  A    between atoms: C_12  and  C_28
                            x       y       z     vdW  Elec       q    Type
                         _______ _______ _______ _____ _____    ______ ____

>  <TORSDO>
F 3

$$$$
=
 OpenBabel11052414093D

 34 39  0  0  1  0  0  0  0  0999 V2000
  186.9250  177.7720  138.3860 C   0  0  0  0  0  0  0  0  0  0  0  0
  188.2460  178.6280  140.3490 C   0  0  0  0  0  0  0  0  0  0  0  0
  185.8010  178.2010  140.6470 C   0  0  0  0  0  0  0  0  0  0  0  0
  184.4600  178.5690  142.7380 C   0  0  1  0  0  3  0  0  0  0  0  0
  189.3840  178.3830  138.2120 C   0  0  0  0  0  2  0  0  0  0  0  0
  189.0550  179.3600  139.3310 C   0  0  0  0  0  2  0  0  0  0  0  0
  186.8060  177.5530  142.8430 C   0  0  0  0  0  0  0  0  0  0  0  0
  187.0690  177.7930  139.9130 C   0  0  1  0  0  3  0  0  0  0  0  0
  188.1290  177.7590  142.6760 C   0  0  0  0  0  0  0  0  0  0  0  0
  184.7650  179.3790  143.9870 C   0  0  0  0  0  1  0  0  0  0  0  0
  188.1140  177.9590  137.4740 C   0  0  0  0  0  2  0  0  0  0  0  0
  184.6050  178.6090  139.7970 C   0  0  2  0  0  3  0  0  0  0  0  0
  185.7210  177.6990  137.8070 C   0  0  0  0  0  3  0  0  0  0  0  0
  188.7230  178.5530  141.5860 C   0  0  0  0  0  3  0  0  0  0  0  0
  183.4980  179.3780  141.8850 C   0  0  0  0  0  2  0  0  0  0  0  0
  183.2830  178.6690  140.5660 C   0  0  1  0  0  3  0  0  0  0  0  0
  186.3890  176.7600  143.9110 O   0  0  0  0  0  1  0  0  0  0  0  0
  185.7370  178.1760  142.0060 C   0  0  0  0  0  0  0  0  0  0  0  0
  184.4770  177.6330  138.6310 C   0  0  0  0  0  2  0  0  0  0  0  0
  181.4520  181.1810  138.3620 C   0  0  0  0  0  0  0  0  0  0  0  0
  180.1780  180.6070  138.3080 C   0  0  0  0  0  3  0  0  0  0  0  0
  182.2130  179.3580  139.7740 C   0  0  0  0  0  0  0  0  0  0  0  0
  179.9200  179.4120  138.9860 C   0  0  0  0  0  3  0  0  0  0  0  0
  182.4680  180.5580  139.0930 C   0  0  0  0  0  3  0  0  0  0  0  0
  180.9350  178.7890  139.7170 C   0  0  0  0  0  3  0  0  0  0  0  0
  181.7020  182.3390  137.7050 F   0  0  0  0  0  0  0  0  0  0  0  0
  189.0970  177.1840  143.6630 C   0  0  0  0  0  2  0  0  0  0  0  0
  191.6810  178.7700  143.5990 C   0  0  0  0  0  1  0  0  0  0  0  0
  189.4790  178.2150  144.7270 C   0  0  2  0  0  3  0  0  0  0  0  0
  191.0020  178.3350  144.8850 C   0  0  1  0  0  3  0  0  0  0  0  0
  190.7320  176.2840  146.3990 C   0  0  0  0  0  2  0  0  0  0  0  0
  189.7370  177.2100  147.0900 C   0  0  0  0  0  2  0  0  0  0  0  0
  188.8030  177.8770  146.0710 C   0  0  0  0  0  2  0  0  0  0  0  0
  191.6480  177.0560  145.4390 C   0  0  0  0  0  2  0  0  0  0  0  0
  2 14  2  0  0  0  0
  3 18  2  0  0  0  0
  4 10  1  1  0  0  0
  5  6  1  0  0  0  0
  6  2  1  0  0  0  0
  7 17  1  0  0  0  0
  8  1  1  6  0  0  0
  8  2  1  0  0  0  0
  8  3  1  0  0  0  0
  9  7  2  0  0  0  0
  9 27  1  0  0  0  0
 11  5  1  0  0  0  0
 11  1  1  0  0  0  0
 12 19  1  6  0  0  0
 12 16  1  0  0  0  0
 12  3  1  0  0  0  0
 13  1  2  0  0  0  0
 13 19  1  0  0  0  0
 14  9  1  0  0  0  0
 15  4  1  0  0  0  0
 16 22  1  6  0  0  0
 16 15  1  0  0  0  0
 18  4  1  0  0  0  0
 18  7  1  0  0  0  0
 20 24  1  0  0  0  0
 21 20  2  0  0  0  0
 21 23  1  0  0  0  0
 23 25  2  0  0  0  0
 24 22  2  0  0  0  0
 25 22  1  0  0  0  0
 26 20  1  0  0  0  0
 29 27  1  6  0  0  0
 29 30  1  0  0  0  0
 29 33  1  0  0  0  0
 30 28  1  6  0  0  0
 30 34  1  0  0  0  0
 31 32  1  0  0  0  0
 33 32  1  0  0  0  0
 34 31  1  0  0  0  0
M  END
>  <MODEL>
6

>  <REMARK>
 VINA RESULT:      -7.0      2.864      8.128
  Name = 
  3 active torsions:
  status: ('A' for Active; 'I' for Inactive)
    1  A    between atoms: C_3  and  C_13
    2  A    between atoms: C_3  and  C_17
    3  A    between atoms: C_12  and  C_28
                            x       y       z     vdW  Elec       q    Type
                         _______ _______ _______ _____ _____    ______ ____

>  <TORSDO>
F 3

$$$$
=
 OpenBabel11052414093D

 34 39  0  0  1  0  0  0  0  0999 V2000
  186.6910  177.4270  144.7790 C   0  0  0  0  0  0  0  0  0  0  0  0
  185.0860  179.1810  143.9590 C   0  0  0  0  0  0  0  0  0  0  0  0
  186.4340  177.9150  142.2780 C   0  0  0  0  0  0  0  0  0  0  0  0
  186.3940  178.2220  139.7860 C   0  0  1  0  0  3  0  0  0  0  0  0
  185.3500  178.8930  146.3610 C   0  0  0  0  0  2  0  0  0  0  0  0
  185.4150  179.9030  145.2240 C   0  0  0  0  0  2  0  0  0  0  0  0
  184.2300  178.2680  141.1510 C   0  0  0  0  0  0  0  0  0  0  0  0
  185.7630  177.8730  143.6430 C   0  0  1  0  0  3  0  0  0  0  0  0
  183.4920  178.9300  142.0660 C   0  0  0  0  0  0  0  0  0  0  0  0
  185.8670  179.3640  138.9320 C   0  0  0  0  0  1  0  0  0  0  0  0
  186.4470  177.8390  146.2110 C   0  0  0  0  0  2  0  0  0  0  0  0
  187.9230  177.6010  142.2240 C   0  0  2  0  0  3  0  0  0  0  0  0
  187.8170  176.7490  144.5250 C   0  0  0  0  0  3  0  0  0  0  0  0
  184.0390  179.6030  143.2570 C   0  0  0  0  0  3  0  0  0  0  0  0
  187.9050  178.3550  139.8560 C   0  0  0  0  0  2  0  0  0  0  0  0
  188.4530  177.3210  140.8160 C   0  0  1  0  0  3  0  0  0  0  0  0
  183.5710  177.6590  140.0830 O   0  0  0  0  0  1  0  0  0  0  0  0
  185.7220  178.1970  141.1530 C   0  0  0  0  0  0  0  0  0  0  0  0
  188.2040  176.4020  143.1250 C   0  0  0  0  0  2  0  0  0  0  0  0
  192.0490  177.1260  139.5700 C   0  0  0  0  0  0  0  0  0  0  0  0
  192.7530  177.3230  140.7610 C   0  0  0  0  0  3  0  0  0  0  0  0
  189.9520  177.3200  140.7780 C   0  0  0  0  0  0  0  0  0  0  0  0
  192.0600  177.5180  141.9590 C   0  0  0  0  0  3  0  0  0  0  0  0
  190.6510  177.1240  139.5770 C   0  0  0  0  0  3  0  0  0  0  0  0
  190.6620  177.5160  141.9680 C   0  0  0  0  0  3  0  0  0  0  0  0
  192.7200  176.9380  138.4080 F   0  0  0  0  0  0  0  0  0  0  0  0
  182.0100  179.0390  141.8820 C   0  0  0  0  0  2  0  0  0  0  0  0
  180.2840  176.8980  140.6060 C   0  0  0  0  0  1  0  0  0  0  0  0
  181.2720  177.9650  142.6830 C   0  0  2  0  0  3  0  0  0  0  0  0
  179.9940  177.4980  141.9700 C   0  0  1  0  0  3  0  0  0  0  0  0
  178.9580  179.5800  143.0490 C   0  0  0  0  0  2  0  0  0  0  0  0
  179.5100  178.9200  144.3090 C   0  0  0  0  0  2  0  0  0  0  0  0
  180.9640  178.4710  144.1060 C   0  0  0  0  0  2  0  0  0  0  0  0
  178.9310  178.6010  141.8670 C   0  0  0  0  0  2  0  0  0  0  0  0
  1 11  1  0  0  0  0
  2  6  1  0  0  0  0
  4 10  1  6  0  0  0
  4 15  1  0  0  0  0
  4 18  1  0  0  0  0
  6  5  1  0  0  0  0
  7 18  1  0  0  0  0
  7  9  2  0  0  0  0
  8  3  1  6  0  0  0
  8  2  1  0  0  0  0
  8  1  1  0  0  0  0
  9 14  1  0  0  0  0
 11  5  1  0  0  0  0
 12  3  1  0  0  0  0
 12 19  1  1  0  0  0
 13  1  2  0  0  0  0
 14  2  2  0  0  0  0
 15 16  1  0  0  0  0
 16 22  1  1  0  0  0
 16 12  1  0  0  0  0
 17  7  1  0  0  0  0
 18  3  2  0  0  0  0
 19 13  1  0  0  0  0
 20 24  2  0  0  0  0
 20 21  1  0  0  0  0
 21 23  2  0  0  0  0
 22 25  2  0  0  0  0
 23 25  1  0  0  0  0
 24 22  1  0  0  0  0
 26 20  1  0  0  0  0
 27  9  1  0  0  0  0
 29 27  1  6  0  0  0
 29 33  1  0  0  0  0
 30 28  1  6  0  0  0
 30 29  1  0  0  0  0
 31 32  1  0  0  0  0
 33 32  1  0  0  0  0
 34 30  1  0  0  0  0
 34 31  1  0  0  0  0
M  END
>  <MODEL>
7

>  <REMARK>
 VINA RESULT:      -7.0      2.648      5.066
  Name = 
  3 active torsions:
  status: ('A' for Active; 'I' for Inactive)
    1  A    between atoms: C_3  and  C_13
    2  A    between atoms: C_3  and  C_17
    3  A    between atoms: C_12  and  C_28
                            x       y       z     vdW  Elec       q    Type
                         _______ _______ _______ _____ _____    ______ ____

>  <TORSDO>
F 3

$$$$
=
 OpenBabel11052414093D

 34 39  0  0  1  0  0  0  0  0999 V2000
  187.2850  178.3520  143.7030 C   0  0  0  0  0  0  0  0  0  0  0  0
  188.5030  176.8780  142.0680 C   0  0  0  0  0  0  0  0  0  0  0  0
  186.6230  178.2950  141.2290 C   0  0  0  0  0  0  0  0  0  0  0  0
  185.7600  178.3980  138.8740 C   0  0  1  0  0  3  0  0  0  0  0  0
  189.1250  176.7540  144.4180 C   0  0  0  0  0  2  0  0  0  0  0  0
  188.6630  175.9400  143.2180 C   0  0  0  0  0  2  0  0  0  0  0  0
  188.2720  178.2950  139.3500 C   0  0  0  0  0  0  0  0  0  0  0  0
  187.7430  178.1660  142.2510 C   0  0  1  0  0  3  0  0  0  0  0  0
  189.2990  177.5510  139.8100 C   0  0  0  0  0  0  0  0  0  0  0  0
  185.9530  177.4530  137.7000 C   0  0  0  0  0  1  0  0  0  0  0  0
  188.0370  177.7330  144.8570 C   0  0  0  0  0  2  0  0  0  0  0  0
  185.2120  178.5010  141.7650 C   0  0  2  0  0  3  0  0  0  0  0  0
  186.1360  178.9760  143.9900 C   0  0  0  0  0  3  0  0  0  0  0  0
  189.2290  176.6550  140.9780 C   0  0  0  0  0  3  0  0  0  0  0  0
  184.3790  178.1440  139.4510 C   0  0  0  0  0  2  0  0  0  0  0  0
  184.2050  178.9640  140.7100 C   0  0  1  0  0  3  0  0  0  0  0  0
  188.4910  179.1150  138.2440 O   0  0  0  0  0  1  0  0  0  0  0  0
  186.8810  178.2530  139.8940 C   0  0  0  0  0  0  0  0  0  0  0  0
  185.2640  179.5150  142.9050 C   0  0  0  0  0  2  0  0  0  0  0  0
  181.1860  178.6700  143.0170 C   0  0  0  0  0  0  0  0  0  0  0  0
  180.1410  178.6650  142.0880 C   0  0  0  0  0  3  0  0  0  0  0  0
  182.7940  178.8600  141.2080 C   0  0  0  0  0  0  0  0  0  0  0  0
  180.4210  178.7570  140.7220 C   0  0  0  0  0  3  0  0  0  0  0  0
  182.5100  178.7670  142.5790 C   0  0  0  0  0  3  0  0  0  0  0  0
  181.7440  178.8540  140.2830 C   0  0  0  0  0  3  0  0  0  0  0  0
  180.9160  178.5820  144.3420 F   0  0  0  0  0  0  0  0  0  0  0  0
  190.6140  177.5840  139.0950 C   0  0  0  0  0  2  0  0  0  0  0  0
  193.5180  177.1280  139.8400 C   0  0  0  0  0  1  0  0  0  0  0  0
  191.2770  176.2050  139.0940 C   0  0  2  0  0  3  0  0  0  0  0  0
  192.7830  176.2960  138.8050 C   0  0  1  0  0  3  0  0  0  0  0  0
  192.0310  176.3760  136.3560 C   0  0  0  0  0  2  0  0  0  0  0  0
  191.3280  175.0870  136.7690 C   0  0  0  0  0  2  0  0  0  0  0  0
  190.5720  175.2690  138.0930 C   0  0  0  0  0  2  0  0  0  0  0  0
  193.0900  176.7940  137.3850 C   0  0  0  0  0  2  0  0  0  0  0  0
  1 13  2  0  0  0  0
  1 11  1  0  0  0  0
  2  8  1  0  0  0  0
  2  6  1  0  0  0  0
  3 12  1  0  0  0  0
  4 10  1  6  0  0  0
  4 15  1  0  0  0  0
  4 18  1  0  0  0  0
  5 11  1  0  0  0  0
  6  5  1  0  0  0  0
  7  9  2  0  0  0  0
  7 18  1  0  0  0  0
  8  3  1  6  0  0  0
  8  1  1  0  0  0  0
  9 14  1  0  0  0  0
 12 19  1  1  0  0  0
 14  2  2  0  0  0  0
 15 16  1  0  0  0  0
 16 22  1  1  0  0  0
 16 12  1  0  0  0  0
 17  7  1  0  0  0  0
 18  3  2  0  0  0  0
 19 13  1  0  0  0  0
 20 26  1  0  0  0  0
 21 20  2  0  0  0  0
 22 24  2  0  0  0  0
 23 21  1  0  0  0  0
 24 20  1  0  0  0  0
 25 23  2  0  0  0  0
 25 22  1  0  0  0  0
 27  9  1  0  0  0  0
 29 27  1  6  0  0  0
 30 29  1  0  0  0  0
 30 28  1  1  0  0  0
 31 32  1  0  0  0  0
 31 34  1  0  0  0  0
 32 33  1  0  0  0  0
 33 29  1  0  0  0  0
 34 30  1  0  0  0  0
M  END
>  <MODEL>
8

>  <REMARK>
 VINA RESULT:      -6.9      2.958      8.230
  Name = 
  3 active torsions:
  status: ('A' for Active; 'I' for Inactive)
    1  A    between atoms: C_3  and  C_13
    2  A    between atoms: C_3  and  C_17
    3  A    between atoms: C_12  and  C_28
                            x       y       z     vdW  Elec       q    Type
                         _______ _______ _______ _____ _____    ______ ____

>  <TORSDO>
F 3

$$$$
=
 OpenBabel11052414093D

 34 39  0  0  1  0  0  0  0  0999 V2000
  185.7290  178.6980  145.3920 C   0  0  0  0  0  0  0  0  0  0  0  0
  187.0920  177.0590  144.0560 C   0  0  0  0  0  0  0  0  0  0  0  0
  185.4370  178.4960  142.8550 C   0  0  0  0  0  0  0  0  0  0  0  0
  184.9380  178.4700  140.3950 C   0  0  1  0  0  3  0  0  0  0  0  0
  187.3540  177.0740  146.4760 C   0  0  0  0  0  2  0  0  0  0  0  0
  187.0290  176.1980  145.2740 C   0  0  0  0  0  2  0  0  0  0  0  0
  187.3420  178.2880  141.2500 C   0  0  0  0  0  0  0  0  0  0  0  0
  186.3850  178.3900  144.0400 C   0  0  1  0  0  3  0  0  0  0  0  0
  188.2480  177.5330  141.9060 C   0  0  0  0  0  0  0  0  0  0  0  0
  185.2490  177.4360  139.3260 C   0  0  0  0  0  1  0  0  0  0  0  0
  186.2680  178.1300  146.6830 C   0  0  0  0  0  2  0  0  0  0  0  0
  183.9760  178.8030  143.1580 C   0  0  2  0  0  3  0  0  0  0  0  0
  184.5870  179.3920  145.4630 C   0  0  0  0  0  3  0  0  0  0  0  0
  187.9570  176.7260  143.1040 C   0  0  0  0  0  3  0  0  0  0  0  0
  183.4740  178.3200  140.7730 C   0  0  0  0  0  2  0  0  0  0  0  0
  183.1620  179.2350  141.9360 C   0  0  1  0  0  3  0  0  0  0  0  0
  187.7670  179.0170  140.1400 O   0  0  0  0  0  1  0  0  0  0  0  0
  185.8870  178.3470  141.5790 C   0  0  0  0  0  0  0  0  0  0  0  0
  183.9150  179.8920  144.2260 C   0  0  0  0  0  2  0  0  0  0  0  0
  179.8050  178.7110  143.6600 C   0  0  0  0  0  0  0  0  0  0  0  0
  178.9310  179.2430  142.7070 C   0  0  0  0  0  3  0  0  0  0  0  0
  181.6900  179.2300  142.2220 C   0  0  0  0  0  0  0  0  0  0  0  0
  179.4340  179.7660  141.5130 C   0  0  0  0  0  3  0  0  0  0  0  0
  181.1810  178.7040  143.4190 C   0  0  0  0  0  3  0  0  0  0  0  0
  180.8110  179.7600  141.2700 C   0  0  0  0  0  3  0  0  0  0  0  0
  179.3180  178.2040  144.8180 F   0  0  0  0  0  0  0  0  0  0  0  0
  189.6540  177.4550  141.3960 C   0  0  0  0  0  2  0  0  0  0  0  0
  192.6490  177.6000  140.9470 C   0  0  0  0  0  1  0  0  0  0  0  0
  190.5800  178.3810  142.1870 C   0  0  2  0  0  3  0  0  0  0  0  0
  191.9990  177.8050  142.3030 C   0  0  1  0  0  3  0  0  0  0  0  0
  191.0050  176.4740  144.2560 C   0  0  0  0  0  2  0  0  0  0  0  0
  190.6250  177.8770  144.7180 C   0  0  0  0  0  2  0  0  0  0  0  0
  189.9840  178.6800  143.5760 C   0  0  0  0  0  2  0  0  0  0  0  0
  192.0540  176.5160  143.1360 C   0  0  0  0  0  2  0  0  0  0  0  0
  1 13  2  0  0  0  0
  1 11  1  0  0  0  0
  2  6  1  0  0  0  0
  3 12  1  0  0  0  0
  4 10  1  6  0  0  0
  4 15  1  0  0  0  0
  4 18  1  0  0  0  0
  5 11  1  0  0  0  0
  6  5  1  0  0  0  0
  7 18  1  0  0  0  0
  7  9  2  0  0  0  0
  8  3  1  6  0  0  0
  8  2  1  0  0  0  0
  8  1  1  0  0  0  0
  9 14  1  0  0  0  0
 12 19  1  1  0  0  0
 14  2  2  0  0  0  0
 15 16  1  0  0  0  0
 16 22  1  1  0  0  0
 16 12  1  0  0  0  0
 17  7  1  0  0  0  0
 18  3  2  0  0  0  0
 19 13  1  0  0  0  0
 20 26  1  0  0  0  0
 21 20  2  0  0  0  0
 22 24  2  0  0  0  0
 23 21  1  0  0  0  0
 24 20  1  0  0  0  0
 25 23  2  0  0  0  0
 25 22  1  0  0  0  0
 27  9  1  0  0  0  0
 29 27  1  1  0  0  0
 29 30  1  0  0  0  0
 29 33  1  0  0  0  0
 30 28  1  6  0  0  0
 30 34  1  0  0  0  0
 31 32  1  0  0  0  0
 33 32  1  0  0  0  0
 34 31  1  0  0  0  0
M  END
>  <MODEL>
9

>  <REMARK>
 VINA RESULT:      -6.6      3.335      8.847
  Name = 
  3 active torsions:
  status: ('A' for Active; 'I' for Inactive)
    1  A    between atoms: C_3  and  C_13
    2  A    between atoms: C_3  and  C_17
    3  A    between atoms: C_12  and  C_28
                            x       y       z     vdW  Elec       q    Type
                         _______ _______ _______ _____ _____    ______ ____

>  <TORSDO>
F 3

$$$$
