=
 OpenBabel11052414543D

 55 59  0  0  1  0  0  0  0  0999 V2000
  186.9180  177.2060  136.5680 C   0  0  0  0  0  3  0  0  0  0  0  0
  184.1200  176.6630  140.3120 C   0  0  0  0  0  2  0  0  0  0  0  0
  183.5590  179.2170  142.1160 C   0  0  0  0  0  1  0  0  0  0  0  0
  183.0090  176.1610  137.4840 C   0  0  0  0  0  2  0  0  0  0  0  0
  181.8530  174.2460  138.3930 O   0  0  0  0  0  0  0  0  0  0  0  0
  186.5550  178.6420  142.9390 O   0  0  0  0  0  1  0  0  0  0  0  0
  179.2370  177.7250  138.9070 C   0  0  0  0  0  2  0  0  0  0  0  0
  181.0980  179.4800  137.1030 C   0  0  2  0  0  3  0  0  0  0  0  0
  187.7780  177.6920  141.0790 C   0  0  2  0  0  3  0  0  0  0  0  0
  186.3610  179.6010  139.4490 C   0  0  0  0  0  2  0  0  0  0  0  0
  180.5110  176.0790  137.5120 C   0  0  1  0  0  3  0  0  0  0  0  0
  180.6750  174.9990  138.5820 C   0  0  0  0  0  2  0  0  0  0  0  0
  185.0140  175.1230  134.9370 S   0  0  0  0  0  0  0  0  0  0  0  0
  179.1730  176.7740  137.7230 C   0  0  0  0  0  2  0  0  0  0  0  0
  186.4150  178.2010  141.6210 C   0  0  2  0  0  3  0  0  0  0  0  0
  186.2370  174.1220  137.2490 C   0  0  2  0  0  3  0  0  0  0  0  0
  187.0030  178.5090  137.2890 C   0  0  2  0  0  3  0  0  0  0  0  0
  178.9310  179.1520  138.4750 C   0  0  0  0  0  2  0  0  0  0  0  0
  186.8470  172.9380  137.9860 C   0  0  0  0  0  1  0  0  0  0  0  0
  189.2350  177.7100  138.9730 C   0  0  2  0  0  3  0  0  0  0  0  0
  188.3550  179.1460  137.1320 C   0  0  0  0  0  3  0  0  0  0  0  0
  183.0400  175.6310  140.0130 C   0  0  0  0  0  2  0  0  0  0  0  0
  187.8050  177.5370  139.5350 C   0  0  2  0  0  3  0  0  0  0  0  0
  183.6730  178.0510  139.8720 C   0  0  0  0  0  2  0  0  0  0  0  0
  184.2130  179.1940  140.7420 C   0  0  2  0  0  3  0  0  0  0  0  0
  186.6690  175.7970  134.5940 C   0  0  0  0  0  2  0  0  0  0  0  0
  181.7400  177.0250  137.5270 C   0  0  2  0  0  3  0  0  0  0  0  0
  183.0000  175.0630  138.5690 C   0  0  2  0  0  0  0  0  0  0  0  0
  186.8060  177.1350  135.2430 C   0  0  0  0  0  3  0  0  0  0  0  0
  185.7450  179.3310  140.8150 C   0  0  2  0  0  3  0  0  0  0  0  0
  186.6870  178.2860  138.7690 C   0  0  1  0  0  3  0  0  0  0  0  0
  179.5610  179.5310  137.1320 C   0  0  0  0  0  2  0  0  0  0  0  0
  184.2170  174.1520  138.3630 C   0  0  0  0  0  2  0  0  0  0  0  0
  189.3720  178.7910  137.9250 C   0  0  0  0  0  3  0  0  0  0  0  0
  181.7590  178.2060  136.4840 C   0  0  1  0  0  0  0  0  0  0  0  0
  185.3850  174.8890  138.0800 O   0  0  0  0  0  0  0  0  0  0  0  0
  185.6270  173.7030  135.9060 C   0  0  0  0  0  2  0  0  0  0  0  0
  181.1130  177.7850  135.1730 C   0  0  0  0  0  0  0  0  0  0  0  0
  181.4130  176.5540  134.5940 O   0  0  0  0  0  0  0  0  0  0  0  0
  180.2290  178.5120  134.6410 O   0  0  0  0  0  1  0  0  0  0  0  0
  187.8050  176.2370  143.1970 C   0  0  0  0  0  1  0  0  0  0  0  0
  188.1580  176.3340  141.7220 C   0  0  2  0  0  3  0  0  0  0  0  0
  189.5310  176.1040  141.6020 O   0  0  0  0  0  1  0  0  0  0  0  0
  183.2220  178.6050  136.1730 C   0  0  0  0  0  2  0  0  0  0  0  0
  183.5050  178.8590  134.6960 C   0  0  0  0  0  1  0  0  0  0  0  0
  181.6600  179.8220  138.3460 O   0  0  0  0  0  0  0  0  0  0  0  0
  183.0530  181.5990  138.7440 O   0  0  0  0  0  1  0  0  0  0  0  0
  181.7680  181.2150  138.3520 C   0  0  0  0  0  2  0  0  0  0  0  0
  189.7170  176.3780  138.4120 C   0  0  0  0  0  2  0  0  0  0  0  0
  191.1050  176.5260  137.8150 C   0  0  0  0  0  2  0  0  0  0  0  0
  190.9760  174.1550  137.6480 O   0  0  0  0  0  0  0  0  0  0  0  0
  191.7100  175.1820  137.6280 C   0  0  0  0  0  0  0  0  0  0  0  0
  193.1180  175.0590  137.4290 N   0  0  0  0  0  2  0  0  0  0  0  0
  193.7520  173.7730  137.1980 C   0  0  0  0  0  2  0  0  0  0  0  0
  193.7170  173.4510  135.7180 C   0  0  0  0  0  1  0  0  0  0  0  0
  4 27  1  0  0  0  0
  4 28  1  0  0  0  0
  5 28  1  0  0  0  0
  5 12  1  0  0  0  0
  8 32  1  0  0  0  0
  8 46  1  1  0  0  0
  9 15  1  0  0  0  0
  9 42  1  1  0  0  0
 10 30  1  0  0  0  0
 11 27  1  0  0  0  0
 11 14  1  1  0  0  0
 11 12  1  0  0  0  0
 13 37  1  0  0  0  0
 14  7  1  0  0  0  0
 15  6  1  1  0  0  0
 16 19  1  1  0  0  0
 16 36  1  0  0  0  0
 17  1  1  6  0  0  0
 17 31  1  0  0  0  0
 18  7  1  0  0  0  0
 20 49  1  6  0  0  0
 20 23  1  0  0  0  0
 21 17  1  0  0  0  0
 21 34  2  0  0  0  0
 22  2  1  0  0  0  0
 23  9  1  0  0  0  0
 24  2  1  0  0  0  0
 24 25  1  0  0  0  0
 25 30  1  0  0  0  0
 25  3  1  0  0  0  0
 26 13  1  0  0  0  0
 26 29  1  0  0  0  0
 28 22  1  0  0  0  0
 29  1  2  0  0  0  0
 30 15  1  0  0  0  0
 31 10  1  0  0  0  0
 31 23  1  0  0  0  0
 32 18  1  0  0  0  0
 33 28  1  0  0  0  0
 34 20  1  0  0  0  0
 35  8  1  0  0  0  0
 35 27  1  0  0  0  0
 36 33  1  0  0  0  0
 37 16  1  0  0  0  0
 38 35  1  0  0  0  0
 39 38  2  0  0  0  0
 40 38  1  0  0  0  0
 42 41  1  0  0  0  0
 43 42  1  0  0  0  0
 44 35  1  0  0  0  0
 45 44  1  0  0  0  0
 46 48  1  0  0  0  0
 48 47  1  0  0  0  0
 50 49  1  0  0  0  0
 52 51  2  0  0  0  0
 52 50  1  0  0  0  0
 53 52  1  0  0  0  0
 54 53  1  0  0  0  0
 55 54  1  0  0  0  0
M  END
>  <MODEL>
1

>  <REMARK>
 VINA RESULT:       3.1      0.000      0.000
  Name = 
  9 active torsions:
  status: ('A' for Active; 'I' for Inactive)
    1  A    between atoms: C_1  and  C_53
    2  A    between atoms: C_6  and  C_53
    3  A    between atoms: O_12  and  C_14
    4  A    between atoms: O_12  and  C_38
    5  A    between atoms: C_13  and  C_33
    6  A    between atoms: C_13  and  C_48
    7  A    between atoms: C_16  and  C_17
    8  A    between atoms: C_18  and  N_39
    9  A    between atoms: C_32  and  C_48
                            x       y       z     vdW  Elec       q    Type
                         _______ _______ _______ _____ _____    ______ ____

>  <TORSDO>
F 9

$$$$
