=
 OpenBabel11052415303D

 37 45  0  0  1  0  0  0  0  0999 V2000
  185.6540  179.0250  145.2990 C   0  0  1  0  0  3  0  0  0  0  0  0
  190.3850  176.2270  147.4540 C   0  0  0  0  0  2  0  0  0  0  0  0
  190.0520  177.5480  143.1670 C   0  0  2  0  0  0  0  0  0  0  0  0
  187.3590  177.4960  140.8600 N   0  0  0  0  0  2  0  0  0  0  0  0
  190.9640  177.3890  145.2610 C   0  0  0  0  0  0  0  0  0  0  0  0
  188.8290  178.2950  142.7090 C   0  0  1  0  0  3  0  0  0  0  0  0
  186.0560  178.0830  147.4620 O   0  0  0  0  0  1  0  0  0  0  0  0
  189.8220  177.0130  144.5000 N   0  0  0  0  0  0  0  0  0  0  0  0
  188.5340  178.3140  141.2090 C   0  0  1  0  0  3  0  0  0  0  0  0
  191.8470  178.1120  144.4850 O   0  0  0  0  0  0  0  0  0  0  0  0
  188.3760  177.0590  144.7950 C   0  0  1  0  0  3  0  0  0  0  0  0
  188.6790  177.7270  147.2380 C   0  0  0  0  0  2  0  0  0  0  0  0
  191.9940  177.5060  141.1310 C   0  0  0  0  0  2  0  0  0  0  0  0
  186.4210  177.9670  146.1150 C   0  0  2  0  0  3  0  0  0  0  0  0
  191.3170  178.3260  143.1770 C   0  0  1  0  0  3  0  0  0  0  0  0
  187.9560  178.0410  145.9210 C   0  0  2  0  0  3  0  0  0  0  0  0
  186.1950  177.9990  141.6170 C   0  0  0  0  0  2  0  0  0  0  0  0
  191.2480  176.9940  142.3640 C   0  0  2  0  0  0  0  0  0  0  0  0
  187.8010  177.4610  143.4370 C   0  0  1  0  0  3  0  0  0  0  0  0
  191.2340  177.0690  146.5300 C   0  0  0  0  0  3  0  0  0  0  0  0
  189.7810  178.0200  140.3720 C   0  0  1  0  0  3  0  0  0  0  0  0
  188.9910  176.3600  147.3020 O   0  0  0  0  0  0  0  0  0  0  0  0
  186.3600  177.8440  143.1500 C   0  0  1  0  0  3  0  0  0  0  0  0
  186.0500  179.1720  143.8260 C   0  0  0  0  0  2  0  0  0  0  0  0
  190.6710  176.8900  140.9100 C   0  0  1  0  0  3  0  0  0  0  0  0
  189.0420  178.9960  138.1580 C   0  0  0  0  0  3  0  0  0  0  0  0
  189.5060  177.9010  138.9030 C   0  0  0  0  0  0  0  0  0  0  0  0
  189.7450  176.6800  138.2630 C   0  0  0  0  0  3  0  0  0  0  0  0
  189.7420  175.3640  136.2760 F   0  0  0  0  0  0  0  0  0  0  0  0
  189.0460  177.6400  136.1520 C   0  0  0  0  0  3  0  0  0  0  0  0
  189.5130  176.5490  136.8910 C   0  0  0  0  0  0  0  0  0  0  0  0
  188.8120  178.8640  136.7860 C   0  0  0  0  0  3  0  0  0  0  0  0
  184.1350  178.8990  145.4680 C   0  0  0  0  0  2  0  0  0  0  0  0
  183.3550  179.6310  144.3840 C   0  0  0  0  0  2  0  0  0  0  0  0
  182.2750  178.7280  143.8210 C   0  0  0  0  0  2  0  0  0  0  0  0
  182.3900  178.6740  142.3630 C   0  0  0  0  0  0  0  0  0  0  0  0
  182.4840  178.6320  141.1620 C   0  0  0  0  0  3  0  0  0  0  0  0
  1 33  1  6  0  0  0
  1 14  1  0  0  0  0
  3 15  1  0  0  0  0
  3  8  1  1  0  0  0
  4  9  1  0  0  0  0
  4 17  1  0  0  0  0
  5 20  2  0  0  0  0
  6  3  1  0  0  0  0
  6 19  1  0  0  0  0
  8 11  1  0  0  0  0
  8  5  1  0  0  0  0
  9  6  1  0  0  0  0
 10  5  1  0  0  0  0
 11 16  1  0  0  0  0
 12 22  1  0  0  0  0
 13 18  1  0  0  0  0
 14  7  1  0  0  0  0
 15 10  1  0  0  0  0
 16 14  1  0  0  0  0
 16 12  1  0  0  0  0
 17 23  1  0  0  0  0
 18  3  1  0  0  0  0
 18 15  1  0  0  0  0
 19 11  1  0  0  0  0
 20  2  1  0  0  0  0
 21 25  1  0  0  0  0
 21  9  1  0  0  0  0
 22  2  1  0  0  0  0
 23 19  1  0  0  0  0
 23 24  1  0  0  0  0
 24  1  1  0  0  0  0
 25 13  1  0  0  0  0
 25 18  1  0  0  0  0
 26 27  1  0  0  0  0
 27 21  1  0  0  0  0
 28 27  2  0  0  0  0
 29 31  1  0  0  0  0
 30 32  1  0  0  0  0
 30 31  2  0  0  0  0
 31 28  1  0  0  0  0
 32 26  2  0  0  0  0
 34 33  1  0  0  0  0
 35 34  1  0  0  0  0
 36 35  1  0  0  0  0
 37 36  3  0  0  0  0
M  END
>  <MODEL>
1

>  <REMARK>
 VINA RESULT:      -9.6      0.000      0.000
  Name = 
  5 active torsions:
  status: ('A' for Active; 'I' for Inactive)
    1  A    between atoms: C_1  and  C_5
    2  A    between atoms: C_5  and  C_17
    3  A    between atoms: C_6  and  C_31
    4  A    between atoms: C_11  and  C_26
    5  A    between atoms: C_17  and  C_26
                            x       y       z     vdW  Elec       q    Type
                         _______ _______ _______ _____ _____    ______ ____

>  <TORSDO>
F 5

$$$$
=
 OpenBabel11052415303D

 37 45  0  0  1  0  0  0  0  0999 V2000
  183.8080  178.0330  140.0300 C   0  0  1  0  0  3  0  0  0  0  0  0
  189.0610  178.6810  137.4160 C   0  0  0  0  0  2  0  0  0  0  0  0
  188.5930  177.6840  141.7780 C   0  0  2  0  0  0  0  0  0  0  0  0
  186.3400  178.8450  144.2590 N   0  0  0  0  0  2  0  0  0  0  0  0
  189.3160  177.4270  139.6210 C   0  0  0  0  0  0  0  0  0  0  0  0
  187.2170  177.4920  142.3560 C   0  0  1  0  0  3  0  0  0  0  0  0
  184.3670  178.6950  137.8000 O   0  0  0  0  0  1  0  0  0  0  0  0
  188.4820  178.2400  140.4390 N   0  0  0  0  0  0  0  0  0  0  0  0
  187.0650  177.6220  143.8720 C   0  0  1  0  0  3  0  0  0  0  0  0
  189.9040  176.4280  140.3700 O   0  0  0  0  0  0  0  0  0  0  0  0
  187.1160  178.7660  140.2460 C   0  0  1  0  0  3  0  0  0  0  0  0
  186.9270  177.9860  137.8250 C   0  0  0  0  0  2  0  0  0  0  0  0
  190.5570  176.9910  143.6710 C   0  0  0  0  0  2  0  0  0  0  0  0
  184.8590  178.6830  139.1120 C   0  0  2  0  0  3  0  0  0  0  0  0
  189.4430  176.4680  141.7200 C   0  0  1  0  0  3  0  0  0  0  0  0
  186.2500  178.0100  139.2030 C   0  0  2  0  0  3  0  0  0  0  0  0
  185.0140  178.8310  143.6090 C   0  0  0  0  0  2  0  0  0  0  0  0
  189.9720  177.7340  142.4670 C   0  0  2  0  0  0  0  0  0  0  0  0
  186.5440  178.6520  141.6580 C   0  0  1  0  0  3  0  0  0  0  0  0
  189.5840  177.5890  138.3220 C   0  0  0  0  0  3  0  0  0  0  0  0
  188.3910  177.4130  144.6050 C   0  0  1  0  0  3  0  0  0  0  0  0
  187.7450  179.1140  137.6710 O   0  0  0  0  0  0  0  0  0  0  0  0
  185.0990  178.8780  142.0640 C   0  0  1  0  0  3  0  0  0  0  0  0
  184.2350  177.7690  141.4780 C   0  0  0  0  0  2  0  0  0  0  0  0
  189.6070  178.0860  143.9500 C   0  0  1  0  0  3  0  0  0  0  0  0
  187.0710  177.7440  146.7370 C   0  0  0  0  0  3  0  0  0  0  0  0
  188.3090  177.6600  146.0810 C   0  0  0  0  0  0  0  0  0  0  0  0
  189.4920  177.7810  146.8190 C   0  0  0  0  0  3  0  0  0  0  0  0
  190.5900  178.1150  148.9080 F   0  0  0  0  0  0  0  0  0  0  0  0
  188.2070  178.0830  148.8490 C   0  0  0  0  0  3  0  0  0  0  0  0
  189.4420  177.9950  148.1990 C   0  0  0  0  0  0  0  0  0  0  0  0
  187.0220  177.9570  148.1180 C   0  0  0  0  0  3  0  0  0  0  0  0
  182.4530  178.7470  139.9600 C   0  0  0  0  0  2  0  0  0  0  0  0
  181.3260  177.9490  140.6020 C   0  0  0  0  0  2  0  0  0  0  0  0
  180.4680  178.8560  141.4600 C   0  0  0  0  0  2  0  0  0  0  0  0
  180.9430  178.8180  142.8440 C   0  0  0  0  0  0  0  0  0  0  0  0
  181.3350  178.7840  143.9830 C   0  0  0  0  0  3  0  0  0  0  0  0
  1 33  1  1  0  0  0
  1 24  1  0  0  0  0
  2 22  1  0  0  0  0
  2 20  1  0  0  0  0
  3  8  1  6  0  0  0
  3  6  1  0  0  0  0
  3 18  1  0  0  0  0
  5 10  1  0  0  0  0
  5  8  1  0  0  0  0
  6  9  1  0  0  0  0
  7 14  1  0  0  0  0
  9  4  1  0  0  0  0
  9 21  1  0  0  0  0
 10 15  1  0  0  0  0
 11  8  1  0  0  0  0
 11 19  1  0  0  0  0
 12 16  1  0  0  0  0
 13 25  1  0  0  0  0
 14 16  1  0  0  0  0
 14  1  1  0  0  0  0
 15  3  1  0  0  0  0
 15 18  1  0  0  0  0
 16 11  1  0  0  0  0
 17  4  1  0  0  0  0
 18 13  1  0  0  0  0
 18 25  1  0  0  0  0
 19 23  1  0  0  0  0
 19  6  1  0  0  0  0
 20  5  2  0  0  0  0
 21 27  1  0  0  0  0
 22 12  1  0  0  0  0
 23 17  1  0  0  0  0
 24 23  1  0  0  0  0
 25 21  1  0  0  0  0
 26 32  1  0  0  0  0
 27 26  2  0  0  0  0
 27 28  1  0  0  0  0
 28 31  2  0  0  0  0
 31 30  1  0  0  0  0
 31 29  1  0  0  0  0
 32 30  2  0  0  0  0
 33 34  1  0  0  0  0
 34 35  1  0  0  0  0
 35 36  1  0  0  0  0
 36 37  3  0  0  0  0
M  END
>  <MODEL>
2

>  <REMARK>
 VINA RESULT:      -9.0      3.423      6.756
  Name = 
  5 active torsions:
  status: ('A' for Active; 'I' for Inactive)
    1  A    between atoms: C_1  and  C_5
    2  A    between atoms: C_5  and  C_17
    3  A    between atoms: C_6  and  C_31
    4  A    between atoms: C_11  and  C_26
    5  A    between atoms: C_17  and  C_26
                            x       y       z     vdW  Elec       q    Type
                         _______ _______ _______ _____ _____    ______ ____

>  <TORSDO>
F 5

$$$$
=
 OpenBabel11052415303D

 37 45  0  0  1  0  0  0  0  0999 V2000
  188.1220  178.8190  140.7550 C   0  0  1  0  0  3  0  0  0  0  0  0
  183.0760  178.2990  143.7750 C   0  0  0  0  0  2  0  0  0  0  0  0
  187.1330  178.0270  145.7010 C   0  0  2  0  0  0  0  0  0  0  0  0
  190.1590  176.4890  144.6760 N   0  0  0  0  0  2  0  0  0  0  0  0
  185.0090  178.8100  145.3560 C   0  0  0  0  0  0  0  0  0  0  0  0
  188.3700  178.2160  144.8660 C   0  0  1  0  0  3  0  0  0  0  0  0
  185.8530  178.7710  140.0000 O   0  0  0  0  0  1  0  0  0  0  0  0
  185.9740  177.9070  144.8300 N   0  0  0  0  0  0  0  0  0  0  0  0
  189.6860  177.6690  145.4200 C   0  0  1  0  0  3  0  0  0  0  0  0
  185.5090  179.4620  146.4650 O   0  0  0  0  0  0  0  0  0  0  0  0
  186.4320  177.6380  143.4520 C   0  0  1  0  0  3  0  0  0  0  0  0
  184.6640  179.1100  142.3510 C   0  0  0  0  0  2  0  0  0  0  0  0
  187.8060  177.8800  148.4290 C   0  0  0  0  0  2  0  0  0  0  0  0
  186.6870  178.3360  141.0370 C   0  0  2  0  0  3  0  0  0  0  0  0
  186.8660  179.0890  146.7050 C   0  0  1  0  0  3  0  0  0  0  0  0
  186.1590  178.7710  142.4260 C   0  0  2  0  0  3  0  0  0  0  0  0
  190.3170  176.8610  143.2560 C   0  0  0  0  0  2  0  0  0  0  0  0
  186.9740  177.6030  147.1760 C   0  0  2  0  0  0  0  0  0  0  0  0
  187.9270  177.4070  143.6680 C   0  0  1  0  0  3  0  0  0  0  0  0
  183.7580  179.0020  144.9260 C   0  0  0  0  0  3  0  0  0  0  0  0
  189.6390  177.4840  146.9380 C   0  0  1  0  0  3  0  0  0  0  0  0
  183.8970  177.9810  142.6740 O   0  0  0  0  0  0  0  0  0  0  0  0
  188.9790  177.2580  142.5840 C   0  0  1  0  0  3  0  0  0  0  0  0
  189.1520  178.5910  141.8670 C   0  0  0  0  0  2  0  0  0  0  0  0
  188.3320  176.8820  147.4780 C   0  0  1  0  0  3  0  0  0  0  0  0
  191.2850  175.5680  147.0540 C   0  0  0  0  0  3  0  0  0  0  0  0
  190.8630  176.8280  147.5030 C   0  0  0  0  0  0  0  0  0  0  0  0
  191.6090  177.5020  148.4770 C   0  0  0  0  0  3  0  0  0  0  0  0
  193.4800  177.5720  149.9520 F   0  0  0  0  0  0  0  0  0  0  0  0
  193.1790  175.6600  148.5600 C   0  0  0  0  0  3  0  0  0  0  0  0
  192.7630  176.9180  149.0060 C   0  0  0  0  0  0  0  0  0  0  0  0
  192.4410  174.9860  147.5840 C   0  0  0  0  0  3  0  0  0  0  0  0
  188.6410  178.3350  139.3960 C   0  0  0  0  0  2  0  0  0  0  0  0
  189.0450  176.8660  139.4020 C   0  0  0  0  0  2  0  0  0  0  0  0
  190.3600  176.6840  138.6700 C   0  0  0  0  0  2  0  0  0  0  0  0
  191.4620  177.1320  139.5230 C   0  0  0  0  0  0  0  0  0  0  0  0
  192.3700  177.4990  140.2260 C   0  0  0  0  0  3  0  0  0  0  0  0
  1 33  1  6  0  0  0
  1 14  1  0  0  0  0
  1 24  1  0  0  0  0
  2 20  1  0  0  0  0
  3  8  1  6  0  0  0
  3 15  1  0  0  0  0
  3 18  1  0  0  0  0
  4  9  1  0  0  0  0
  5 10  1  0  0  0  0
  6  9  1  0  0  0  0
  6  3  1  0  0  0  0
  7 14  1  0  0  0  0
  8  5  1  0  0  0  0
  9 21  1  0  0  0  0
 10 15  1  0  0  0  0
 11 19  1  0  0  0  0
 11  8  1  0  0  0  0
 12 16  1  0  0  0  0
 12 22  1  0  0  0  0
 14 16  1  0  0  0  0
 15 18  1  0  0  0  0
 16 11  1  0  0  0  0
 17  4  1  0  0  0  0
 18 25  1  0  0  0  0
 18 13  1  0  0  0  0
 19  6  1  0  0  0  0
 20  5  2  0  0  0  0
 21 25  1  0  0  0  0
 21 27  1  0  0  0  0
 22  2  1  0  0  0  0
 23 17  1  0  0  0  0
 23 19  1  0  0  0  0
 24 23  1  0  0  0  0
 25 13  1  0  0  0  0
 26 27  2  0  0  0  0
 26 32  1  0  0  0  0
 27 28  1  0  0  0  0
 28 31  2  0  0  0  0
 30 31  1  0  0  0  0
 31 29  1  0  0  0  0
 32 30  2  0  0  0  0
 33 34  1  0  0  0  0
 35 34  1  0  0  0  0
 35 36  1  0  0  0  0
 36 37  3  0  0  0  0
M  END
>  <MODEL>
3

>  <REMARK>
 VINA RESULT:      -8.5      3.154      7.665
  Name = 
  5 active torsions:
  status: ('A' for Active; 'I' for Inactive)
    1  A    between atoms: C_1  and  C_5
    2  A    between atoms: C_5  and  C_17
    3  A    between atoms: C_6  and  C_31
    4  A    between atoms: C_11  and  C_26
    5  A    between atoms: C_17  and  C_26
                            x       y       z     vdW  Elec       q    Type
                         _______ _______ _______ _____ _____    ______ ____

>  <TORSDO>
F 5

$$$$
=
 OpenBabel11052415303D

 37 45  0  0  1  0  0  0  0  0999 V2000
  190.4610  176.1160  143.4190 C   0  0  1  0  0  3  0  0  0  0  0  0
  188.8050  178.5180  148.5510 C   0  0  0  0  0  2  0  0  0  0  0  0
  186.0820  178.2270  144.9820 C   0  0  2  0  0  0  0  0  0  0  0  0
  186.6410  178.7090  141.5130 N   0  0  0  0  0  2  0  0  0  0  0  0
  186.7610  177.9270  147.1480 C   0  0  0  0  0  0  0  0  0  0  0  0
  186.5680  177.5590  143.7250 C   0  0  1  0  0  3  0  0  0  0  0  0
  191.7090  176.5400  145.4160 O   0  0  0  0  0  1  0  0  0  0  0  0
  187.2010  178.4240  145.8890 N   0  0  0  0  0  0  0  0  0  0  0  0
  185.8320  177.8810  142.4240 C   0  0  1  0  0  3  0  0  0  0  0  0
  185.4720  177.4420  147.0530 O   0  0  0  0  0  0  0  0  0  0  0  0
  188.4640  178.2530  145.1430 C   0  0  1  0  0  3  0  0  0  0  0  0
  189.6680  177.0440  147.0390 C   0  0  0  0  0  2  0  0  0  0  0  0
  183.3400  178.8220  144.7760 C   0  0  0  0  0  2  0  0  0  0  0  0
  190.6000  176.9830  144.6840 C   0  0  2  0  0  3  0  0  0  0  0  0
  184.9980  177.5190  145.7090 C   0  0  1  0  0  3  0  0  0  0  0  0
  189.3140  177.0180  145.5460 C   0  0  2  0  0  3  0  0  0  0  0  0
  187.9020  177.9970  141.2240 C   0  0  0  0  0  2  0  0  0  0  0  0
  184.7780  179.0010  145.2660 C   0  0  2  0  0  0  0  0  0  0  0  0
  187.9570  178.1570  143.7050 C   0  0  1  0  0  3  0  0  0  0  0  0
  187.4250  177.9510  148.3070 C   0  0  0  0  0  3  0  0  0  0  0  0
  184.4200  178.4120  142.6770 C   0  0  1  0  0  3  0  0  0  0  0  0
  189.7270  178.3680  147.4970 O   0  0  0  0  0  0  0  0  0  0  0  0
  188.7820  177.7950  142.4830 C   0  0  1  0  0  3  0  0  0  0  0  0
  189.2000  176.3330  142.5760 C   0  0  0  0  0  2  0  0  0  0  0  0
  184.3040  179.4200  143.8310 C   0  0  1  0  0  3  0  0  0  0  0  0
  184.4250  179.3570  140.3320 C   0  0  0  0  0  3  0  0  0  0  0  0
  183.7130  178.8610  141.4340 C   0  0  0  0  0  0  0  0  0  0  0  0
  182.3190  178.7570  141.3680 C   0  0  0  0  0  3  0  0  0  0  0  0
  180.2890  179.0540  140.1540 F   0  0  0  0  0  0  0  0  0  0  0  0
  182.3510  179.6520  139.1180 C   0  0  0  0  0  3  0  0  0  0  0  0
  181.6390  179.1540  140.2130 C   0  0  0  0  0  0  0  0  0  0  0  0
  183.7430  179.7520  139.1770 C   0  0  0  0  0  3  0  0  0  0  0  0
  191.7290  176.1370  142.5570 C   0  0  0  0  0  2  0  0  0  0  0  0
  192.0590  177.5230  142.0200 C   0  0  0  0  0  2  0  0  0  0  0  0
  192.5180  177.4260  140.5790 C   0  0  0  0  0  2  0  0  0  0  0  0
  191.3910  177.0440  139.7280 C   0  0  0  0  0  0  0  0  0  0  0  0
  190.4630  176.7300  139.0250 C   0  0  0  0  0  3  0  0  0  0  0  0
  1 33  1  6  0  0  0
  1 14  1  0  0  0  0
  3 18  1  0  0  0  0
  3 15  1  0  0  0  0
  3  8  1  1  0  0  0
  4  9  1  0  0  0  0
  5 20  2  0  0  0  0
  6  3  1  0  0  0  0
  8  5  1  0  0  0  0
  9 21  1  0  0  0  0
  9  6  1  0  0  0  0
 10  5  1  0  0  0  0
 11 16  1  0  0  0  0
 11  8  1  0  0  0  0
 12 22  1  0  0  0  0
 13 18  1  0  0  0  0
 14  7  1  0  0  0  0
 14 16  1  0  0  0  0
 15 10  1  0  0  0  0
 16 12  1  0  0  0  0
 17  4  1  0  0  0  0
 17 23  1  0  0  0  0
 18 15  1  0  0  0  0
 19  6  1  0  0  0  0
 19 11  1  0  0  0  0
 20  2  1  0  0  0  0
 21 25  1  0  0  0  0
 22  2  1  0  0  0  0
 23 24  1  0  0  0  0
 23 19  1  0  0  0  0
 24  1  1  0  0  0  0
 25 13  1  0  0  0  0
 25 18  1  0  0  0  0
 26 27  1  0  0  0  0
 27 21  1  0  0  0  0
 28 27  2  0  0  0  0
 29 31  1  0  0  0  0
 30 32  1  0  0  0  0
 30 31  2  0  0  0  0
 31 28  1  0  0  0  0
 32 26  2  0  0  0  0
 34 33  1  0  0  0  0
 35 34  1  0  0  0  0
 36 35  1  0  0  0  0
 37 36  3  0  0  0  0
M  END
>  <MODEL>
4

>  <REMARK>
 VINA RESULT:      -8.3      2.395      6.202
  Name = 
  5 active torsions:
  status: ('A' for Active; 'I' for Inactive)
    1  A    between atoms: C_1  and  C_5
    2  A    between atoms: C_5  and  C_17
    3  A    between atoms: C_6  and  C_31
    4  A    between atoms: C_11  and  C_26
    5  A    between atoms: C_17  and  C_26
                            x       y       z     vdW  Elec       q    Type
                         _______ _______ _______ _____ _____    ______ ____

>  <TORSDO>
F 5

$$$$
=
 OpenBabel11052415303D

 37 45  0  0  1  0  0  0  0  0999 V2000
  187.6170  177.3230  143.3370 C   0  0  1  0  0  3  0  0  0  0  0  0
  184.2390  179.6540  139.0930 C   0  0  0  0  0  2  0  0  0  0  0  0
  187.9550  177.2640  138.2420 C   0  0  2  0  0  0  0  0  0  0  0  0
  191.1410  177.1770  139.7990 N   0  0  0  0  0  2  0  0  0  0  0  0
  185.7390  177.8300  138.1320 C   0  0  0  0  0  0  0  0  0  0  0  0
  188.7350  176.6670  139.3810 C   0  0  1  0  0  3  0  0  0  0  0  0
  185.6960  178.7420  143.4780 O   0  0  0  0  0  1  0  0  0  0  0  0
  186.9610  178.1870  138.7670 N   0  0  0  0  0  0  0  0  0  0  0  0
  190.1910  176.2820  139.1150 C   0  0  1  0  0  3  0  0  0  0  0  0
  185.9310  176.7620  137.2790 O   0  0  0  0  0  0  0  0  0  0  0  0
  187.2920  178.5060  140.1710 C   0  0  1  0  0  3  0  0  0  0  0  0
  184.8680  178.5100  140.9650 C   0  0  0  0  0  2  0  0  0  0  0  0
  188.9670  176.3550  135.7790 C   0  0  0  0  0  2  0  0  0  0  0  0
  186.7650  178.4000  142.6400 C   0  0  2  0  0  3  0  0  0  0  0  0
  187.2770  176.2930  137.3470 C   0  0  1  0  0  3  0  0  0  0  0  0
  186.2840  177.9810  141.2290 C   0  0  2  0  0  3  0  0  0  0  0  0
  190.8580  177.1420  141.2480 C   0  0  0  0  0  2  0  0  0  0  0  0
  188.2730  177.3290  136.7340 C   0  0  2  0  0  0  0  0  0  0  0  0
  188.6670  177.8540  140.3140 C   0  0  1  0  0  3  0  0  0  0  0  0
  184.5550  178.4380  138.2510 C   0  0  0  0  0  3  0  0  0  0  0  0
  190.4700  176.0820  137.6240 C   0  0  1  0  0  3  0  0  0  0  0  0
  184.9320  179.7530  140.3160 O   0  0  0  0  0  0  0  0  0  0  0  0
  189.4530  177.6890  141.6020 C   0  0  1  0  0  3  0  0  0  0  0  0
  188.7370  176.6910  142.5030 C   0  0  0  0  0  2  0  0  0  0  0  0
  189.8270  177.1260  136.6980 C   0  0  1  0  0  3  0  0  0  0  0  0
  192.6100  176.6380  136.3950 C   0  0  0  0  0  3  0  0  0  0  0  0
  191.9150  175.8320  137.3100 C   0  0  0  0  0  0  0  0  0  0  0  0
  192.5840  174.7920  137.9640 C   0  0  0  0  0  3  0  0  0  0  0  0
  194.5780  173.5400  138.3330 F   0  0  0  0  0  0  0  0  0  0  0  0
  194.6240  175.3520  136.7850 C   0  0  0  0  0  3  0  0  0  0  0  0
  193.9350  174.5500  137.7000 C   0  0  0  0  0  0  0  0  0  0  0  0
  193.9620  176.3960  136.1330 C   0  0  0  0  0  3  0  0  0  0  0  0
  188.1220  177.7790  144.7100 C   0  0  0  0  0  2  0  0  0  0  0  0
  189.4420  177.1310  145.1040 C   0  0  0  0  0  2  0  0  0  0  0  0
  189.7350  177.3930  146.5680 C   0  0  0  0  0  2  0  0  0  0  0  0
  190.9160  176.6310  146.9770 C   0  0  0  0  0  0  0  0  0  0  0  0
  191.8880  176.0020  147.3120 C   0  0  0  0  0  3  0  0  0  0  0  0
  1 33  1  1  0  0  0
  2 22  1  0  0  0  0
  3  8  1  1  0  0  0
  3  6  1  0  0  0  0
  4 17  1  0  0  0  0
  5 20  2  0  0  0  0
  5  8  1  0  0  0  0
  6 19  1  0  0  0  0
  8 11  1  0  0  0  0
  9  6  1  0  0  0  0
  9  4  1  0  0  0  0
 10 15  1  0  0  0  0
 10  5  1  0  0  0  0
 11 19  1  0  0  0  0
 11 16  1  0  0  0  0
 12 16  1  0  0  0  0
 13 25  1  0  0  0  0
 13 18  1  0  0  0  0
 14  1  1  0  0  0  0
 14  7  1  0  0  0  0
 15  3  1  0  0  0  0
 16 14  1  0  0  0  0
 17 23  1  0  0  0  0
 18 15  1  0  0  0  0
 18  3  1  0  0  0  0
 19 23  1  0  0  0  0
 20  2  1  0  0  0  0
 21  9  1  0  0  0  0
 22 12  1  0  0  0  0
 23 24  1  0  0  0  0
 24  1  1  0  0  0  0
 25 18  1  0  0  0  0
 25 21  1  0  0  0  0
 26 27  1  0  0  0  0
 27 21  1  0  0  0  0
 27 28  2  0  0  0  0
 30 31  2  0  0  0  0
 31 28  1  0  0  0  0
 31 29  1  0  0  0  0
 32 26  2  0  0  0  0
 32 30  1  0  0  0  0
 33 34  1  0  0  0  0
 34 35  1  0  0  0  0
 35 36  1  0  0  0  0
 36 37  3  0  0  0  0
M  END
>  <MODEL>
5

>  <REMARK>
 VINA RESULT:      -8.2      3.192      6.339
  Name = 
  5 active torsions:
  status: ('A' for Active; 'I' for Inactive)
    1  A    between atoms: C_1  and  C_5
    2  A    between atoms: C_5  and  C_17
    3  A    between atoms: C_6  and  C_31
    4  A    between atoms: C_11  and  C_26
    5  A    between atoms: C_17  and  C_26
                            x       y       z     vdW  Elec       q    Type
                         _______ _______ _______ _____ _____    ______ ____

>  <TORSDO>
F 5

$$$$
=
 OpenBabel11052415303D

 37 45  0  0  1  0  0  0  0  0999 V2000
  189.2370  177.4130  141.2410 C   0  0  1  0  0  3  0  0  0  0  0  0
  186.8920  178.3890  135.9120 C   0  0  0  0  0  2  0  0  0  0  0  0
  190.7630  176.1810  136.5270 C   0  0  2  0  0  0  0  0  0  0  0  0
  193.4950  176.7280  138.7210 N   0  0  0  0  0  2  0  0  0  0  0  0
  188.6210  176.5200  135.7920 C   0  0  0  0  0  0  0  0  0  0  0  0
  191.2690  175.9360  137.9220 C   0  0  1  0  0  3  0  0  0  0  0  0
  187.3010  178.6620  140.5960 O   0  0  0  0  0  1  0  0  0  0  0  0
  189.6510  177.1170  136.5720 N   0  0  0  0  0  0  0  0  0  0  0  0
  192.7560  175.6210  138.0890 C   0  0  1  0  0  3  0  0  0  0  0  0
  189.0350  175.3000  135.2960 O   0  0  0  0  0  0  0  0  0  0  0  0
  189.6340  177.7840  137.8900 C   0  0  1  0  0  3  0  0  0  0  0  0
  187.0930  177.7760  138.1010 C   0  0  0  0  0  2  0  0  0  0  0  0
  192.3480  174.8030  134.6540 C   0  0  0  0  0  2  0  0  0  0  0  0
  188.5450  178.2210  140.1270 C   0  0  2  0  0  3  0  0  0  0  0  0
  190.3390  174.9730  135.7740 C   0  0  1  0  0  3  0  0  0  0  0  0
  188.4200  177.4430  138.7950 C   0  0  2  0  0  3  0  0  0  0  0  0
  192.8820  177.0130  140.0340 C   0  0  0  0  0  2  0  0  0  0  0  0
  191.4250  175.9140  135.1590 C   0  0  2  0  0  0  0  0  0  0  0  0
  190.9530  177.3000  138.4910 C   0  0  1  0  0  3  0  0  0  0  0  0
  187.4270  177.0390  135.4910 C   0  0  0  0  0  3  0  0  0  0  0  0
  193.3830  175.0980  136.7950 C   0  0  1  0  0  3  0  0  0  0  0  0
  187.2740  178.8300  137.1940 O   0  0  0  0  0  0  0  0  0  0  0  0
  191.4190  177.5100  139.9210 C   0  0  1  0  0  3  0  0  0  0  0  0
  190.5370  176.6970  140.8600 C   0  0  0  0  0  2  0  0  0  0  0  0
  192.9480  175.8370  135.5190 C   0  0  1  0  0  3  0  0  0  0  0  0
  195.4340  174.0710  137.8590 C   0  0  0  0  0  3  0  0  0  0  0  0
  194.8660  174.9010  136.8800 C   0  0  0  0  0  0  0  0  0  0  0  0
  195.6930  175.5380  135.9480 C   0  0  0  0  0  3  0  0  0  0  0  0
  197.8750  175.9760  135.0950 F   0  0  0  0  0  0  0  0  0  0  0  0
  197.6410  174.5310  136.9770 C   0  0  0  0  0  3  0  0  0  0  0  0
  197.0780  175.3550  135.9970 C   0  0  0  0  0  0  0  0  0  0  0  0
  196.8190  173.8890  137.9060 C   0  0  0  0  0  3  0  0  0  0  0  0
  189.3930  178.2210  142.5340 C   0  0  0  0  0  2  0  0  0  0  0  0
  189.1810  177.3840  143.7880 C   0  0  0  0  0  2  0  0  0  0  0  0
  187.8250  176.7080  143.7390 C   0  0  0  0  0  2  0  0  0  0  0  0
  186.9250  177.3410  144.7050 C   0  0  0  0  0  0  0  0  0  0  0  0
  186.1850  177.8600  145.5010 C   0  0  0  0  0  3  0  0  0  0  0  0
  1 33  1  1  0  0  0
  2 22  1  0  0  0  0
  3  8  1  6  0  0  0
  3  6  1  0  0  0  0
  4 17  1  0  0  0  0
  5  8  1  0  0  0  0
  6  9  1  0  0  0  0
  6 19  1  0  0  0  0
  8 11  1  0  0  0  0
  9  4  1  0  0  0  0
 10 15  1  0  0  0  0
 10  5  1  0  0  0  0
 11 19  1  0  0  0  0
 11 16  1  0  0  0  0
 12 16  1  0  0  0  0
 13 18  1  0  0  0  0
 13 25  1  0  0  0  0
 14  7  1  0  0  0  0
 14  1  1  0  0  0  0
 15  3  1  0  0  0  0
 16 14  1  0  0  0  0
 18 25  1  0  0  0  0
 18 15  1  0  0  0  0
 18  3  1  0  0  0  0
 19 23  1  0  0  0  0
 20  5  2  0  0  0  0
 20  2  1  0  0  0  0
 21 27  1  0  0  0  0
 21  9  1  0  0  0  0
 22 12  1  0  0  0  0
 23 17  1  0  0  0  0
 23 24  1  0  0  0  0
 24  1  1  0  0  0  0
 25 21  1  0  0  0  0
 26 32  1  0  0  0  0
 27 26  2  0  0  0  0
 28 31  2  0  0  0  0
 28 27  1  0  0  0  0
 29 31  1  0  0  0  0
 30 32  2  0  0  0  0
 31 30  1  0  0  0  0
 33 34  1  0  0  0  0
 35 34  1  0  0  0  0
 35 36  1  0  0  0  0
 36 37  3  0  0  0  0
M  END
>  <MODEL>
6

>  <REMARK>
 VINA RESULT:      -8.2      4.403      7.604
  Name = 
  5 active torsions:
  status: ('A' for Active; 'I' for Inactive)
    1  A    between atoms: C_1  and  C_5
    2  A    between atoms: C_5  and  C_17
    3  A    between atoms: C_6  and  C_31
    4  A    between atoms: C_11  and  C_26
    5  A    between atoms: C_17  and  C_26
                            x       y       z     vdW  Elec       q    Type
                         _______ _______ _______ _____ _____    ______ ____

>  <TORSDO>
F 5

$$$$
=
 OpenBabel11052415303D

 37 45  0  0  1  0  0  0  0  0999 V2000
  189.8210  177.0380  139.4470 C   0  0  1  0  0  3  0  0  0  0  0  0
  191.8580  178.2840  144.8460 C   0  0  0  0  0  2  0  0  0  0  0  0
  187.4750  177.9350  143.8920 C   0  0  2  0  0  0  0  0  0  0  0  0
  185.5470  179.0120  141.1180 N   0  0  0  0  0  2  0  0  0  0  0  0
  189.4430  177.4800  144.9720 C   0  0  0  0  0  0  0  0  0  0  0  0
  187.0410  177.5700  142.4990 C   0  0  1  0  0  3  0  0  0  0  0  0
  192.0520  177.4280  140.2190 O   0  0  0  0  0  1  0  0  0  0  0  0
  188.8990  178.2330  143.8940 N   0  0  0  0  0  0  0  0  0  0  0  0
  185.6070  177.9100  142.0950 C   0  0  1  0  0  3  0  0  0  0  0  0
  188.4530  176.7530  145.6030 O   0  0  0  0  0  0  0  0  0  0  0  0
  189.3500  178.4390  142.5030 C   0  0  1  0  0  3  0  0  0  0  0  0
  191.5850  177.2540  142.8280 C   0  0  0  0  0  2  0  0  0  0  0  0
  185.2630  177.9610  145.6320 C   0  0  0  0  0  2  0  0  0  0  0  0
  190.7120  177.7270  140.4970 C   0  0  2  0  0  3  0  0  0  0  0  0
  187.2000  176.9180  144.9400 C   0  0  1  0  0  3  0  0  0  0  0  0
  190.3290  177.3670  141.9540 C   0  0  2  0  0  3  0  0  0  0  0  0
  186.3370  178.6300  139.9300 C   0  0  0  0  0  2  0  0  0  0  0  0
  186.6460  178.3680  145.1200 C   0  0  2  0  0  0  0  0  0  0  0  0
  188.0210  178.4440  141.7500 C   0  0  1  0  0  3  0  0  0  0  0  0
  190.7070  177.4790  145.4050 C   0  0  0  0  0  3  0  0  0  0  0  0
  184.6930  178.0900  143.3080 C   0  0  1  0  0  3  0  0  0  0  0  0
  191.8500  178.4830  143.4510 O   0  0  0  0  0  0  0  0  0  0  0  0
  187.8420  178.4410  140.2420 C   0  0  1  0  0  3  0  0  0  0  0  0
  188.3080  177.1030  139.6850 C   0  0  0  0  0  2  0  0  0  0  0  0
  185.3110  178.8770  144.4750 C   0  0  1  0  0  3  0  0  0  0  0  0
  182.4220  179.0030  143.9480 C   0  0  0  0  0  3  0  0  0  0  0  0
  183.3100  178.5520  142.9590 C   0  0  0  0  0  0  0  0  0  0  0  0
  182.9120  178.5580  141.6170 C   0  0  0  0  0  3  0  0  0  0  0  0
  181.2530  179.0020  139.9650 F   0  0  0  0  0  0  0  0  0  0  0  0
  180.7500  179.4450  142.2530 C   0  0  0  0  0  3  0  0  0  0  0  0
  181.6340  179.0010  141.2650 C   0  0  0  0  0  0  0  0  0  0  0  0
  181.1450  179.4460  143.5940 C   0  0  0  0  0  3  0  0  0  0  0  0
  190.1870  177.4490  138.0150 C   0  0  0  0  0  2  0  0  0  0  0  0
  189.7880  176.4070  136.9780 C   0  0  0  0  0  2  0  0  0  0  0  0
  189.2760  177.0900  135.7250 C   0  0  0  0  0  2  0  0  0  0  0  0
  188.1270  177.9320  136.0590 C   0  0  0  0  0  0  0  0  0  0  0  0
  187.1810  178.6260  136.3350 C   0  0  0  0  0  3  0  0  0  0  0  0
  1 33  1  6  0  0  0
  1 24  1  0  0  0  0
  1 14  1  0  0  0  0
  2 20  1  0  0  0  0
  3  8  1  1  0  0  0
  3 15  1  0  0  0  0
  3 18  1  0  0  0  0
  4  9  1  0  0  0  0
  5 20  2  0  0  0  0
  5 10  1  0  0  0  0
  6  3  1  0  0  0  0
  7 14  1  0  0  0  0
  8  5  1  0  0  0  0
  9  6  1  0  0  0  0
  9 21  1  0  0  0  0
 11  8  1  0  0  0  0
 12 22  1  0  0  0  0
 14 16  1  0  0  0  0
 15 18  1  0  0  0  0
 15 10  1  0  0  0  0
 16 11  1  0  0  0  0
 16 12  1  0  0  0  0
 17 23  1  0  0  0  0
 17  4  1  0  0  0  0
 18 13  1  0  0  0  0
 19  6  1  0  0  0  0
 19 11  1  0  0  0  0
 21 25  1  0  0  0  0
 22  2  1  0  0  0  0
 23 19  1  0  0  0  0
 24 23  1  0  0  0  0
 25 18  1  0  0  0  0
 25 13  1  0  0  0  0
 27 21  1  0  0  0  0
 27 26  2  0  0  0  0
 28 27  1  0  0  0  0
 29 31  1  0  0  0  0
 30 32  2  0  0  0  0
 31 28  2  0  0  0  0
 31 30  1  0  0  0  0
 32 26  1  0  0  0  0
 34 33  1  0  0  0  0
 35 36  1  0  0  0  0
 35 34  1  0  0  0  0
 36 37  3  0  0  0  0
M  END
>  <MODEL>
7

>  <REMARK>
 VINA RESULT:      -8.1      2.134      6.608
  Name = 
  5 active torsions:
  status: ('A' for Active; 'I' for Inactive)
    1  A    between atoms: C_1  and  C_5
    2  A    between atoms: C_5  and  C_17
    3  A    between atoms: C_6  and  C_31
    4  A    between atoms: C_11  and  C_26
    5  A    between atoms: C_17  and  C_26
                            x       y       z     vdW  Elec       q    Type
                         _______ _______ _______ _____ _____    ______ ____

>  <TORSDO>
F 5

$$$$
=
 OpenBabel11052415303D

 37 45  0  0  1  0  0  0  0  0999 V2000
  189.8070  177.0030  139.5310 C   0  0  1  0  0  3  0  0  0  0  0  0
  191.6900  178.2620  144.9820 C   0  0  0  0  0  2  0  0  0  0  0  0
  187.3350  177.9420  143.8990 C   0  0  2  0  0  0  0  0  0  0  0  0
  185.5000  179.0190  141.0620 N   0  0  0  0  0  2  0  0  0  0  0  0
  189.2660  177.4770  145.0400 C   0  0  0  0  0  0  0  0  0  0  0  0
  186.9410  177.5730  142.4950 C   0  0  1  0  0  3  0  0  0  0  0  0
  192.0160  177.3790  140.3670 O   0  0  0  0  0  1  0  0  0  0  0  0
  188.7610  178.2280  143.9420 N   0  0  0  0  0  0  0  0  0  0  0  0
  185.5220  177.9220  142.0460 C   0  0  1  0  0  3  0  0  0  0  0  0
  188.2520  176.7620  145.6440 O   0  0  0  0  0  0  0  0  0  0  0  0
  189.2550  178.4240  142.5640 C   0  0  1  0  0  3  0  0  0  0  0  0
  191.4700  177.2240  142.9620 C   0  0  0  0  0  2  0  0  0  0  0  0
  185.0720  177.9950  145.5710 C   0  0  0  0  0  2  0  0  0  0  0  0
  190.6710  177.6900  140.6040 C   0  0  2  0  0  3  0  0  0  0  0  0
  187.0210  176.9330  144.9430 C   0  0  1  0  0  3  0  0  0  0  0  0
  190.2420  177.3410  142.0500 C   0  0  2  0  0  3  0  0  0  0  0  0
  186.3230  178.6240  139.9000 C   0  0  0  0  0  2  0  0  0  0  0  0
  186.4730  178.3880  145.0980 C   0  0  2  0  0  0  0  0  0  0  0  0
  187.9490  178.4350  141.7710 C   0  0  1  0  0  3  0  0  0  0  0  0
  190.5160  177.4690  145.5100 C   0  0  0  0  0  3  0  0  0  0  0  0
  184.5730  178.1160  143.2300 C   0  0  1  0  0  3  0  0  0  0  0  0
  191.7250  178.4530  143.5870 O   0  0  0  0  0  0  0  0  0  0  0  0
  187.8160  178.4250  140.2590 C   0  0  1  0  0  3  0  0  0  0  0  0
  188.2880  177.0800  139.7230 C   0  0  0  0  0  2  0  0  0  0  0  0
  185.1630  178.9040  144.4110 C   0  0  1  0  0  3  0  0  0  0  0  0
  182.2800  179.0170  143.8000 C   0  0  0  0  0  3  0  0  0  0  0  0
  183.2060  178.5870  142.8370 C   0  0  0  0  0  0  0  0  0  0  0  0
  182.8600  178.6210  141.4810 C   0  0  0  0  0  3  0  0  0  0  0  0
  181.2660  179.1010  139.7750 F   0  0  0  0  0  0  0  0  0  0  0  0
  180.6750  179.4970  142.0510 C   0  0  0  0  0  3  0  0  0  0  0  0
  181.5970  179.0730  141.0890 C   0  0  0  0  0  0  0  0  0  0  0  0
  181.0170  179.4700  143.4060 C   0  0  0  0  0  3  0  0  0  0  0  0
  190.2190  177.4020  138.1090 C   0  0  0  0  0  2  0  0  0  0  0  0
  190.1240  176.2510  137.1170 C   0  0  0  0  0  2  0  0  0  0  0  0
  190.9070  175.0580  137.6280 C   0  0  0  0  0  2  0  0  0  0  0  0
  192.3400  175.3470  137.5650 C   0  0  0  0  0  0  0  0  0  0  0  0
  193.5200  175.5870  137.5140 C   0  0  0  0  0  3  0  0  0  0  0  0
  1 33  1  6  0  0  0
  1 24  1  0  0  0  0
  1 14  1  0  0  0  0
  2 20  1  0  0  0  0
  3  8  1  1  0  0  0
  3 15  1  0  0  0  0
  3 18  1  0  0  0  0
  4  9  1  0  0  0  0
  5 20  2  0  0  0  0
  5 10  1  0  0  0  0
  6  3  1  0  0  0  0
  7 14  1  0  0  0  0
  8  5  1  0  0  0  0
  9  6  1  0  0  0  0
  9 21  1  0  0  0  0
 11  8  1  0  0  0  0
 12 22  1  0  0  0  0
 14 16  1  0  0  0  0
 15 18  1  0  0  0  0
 15 10  1  0  0  0  0
 16 11  1  0  0  0  0
 16 12  1  0  0  0  0
 17 23  1  0  0  0  0
 17  4  1  0  0  0  0
 18 13  1  0  0  0  0
 19  6  1  0  0  0  0
 19 11  1  0  0  0  0
 21 25  1  0  0  0  0
 22  2  1  0  0  0  0
 23 19  1  0  0  0  0
 24 23  1  0  0  0  0
 25 18  1  0  0  0  0
 25 13  1  0  0  0  0
 27 21  1  0  0  0  0
 27 26  2  0  0  0  0
 28 27  1  0  0  0  0
 29 31  1  0  0  0  0
 30 32  2  0  0  0  0
 31 28  2  0  0  0  0
 31 30  1  0  0  0  0
 32 26  1  0  0  0  0
 34 35  1  0  0  0  0
 34 33  1  0  0  0  0
 36 35  1  0  0  0  0
 37 36  3  0  0  0  0
M  END
>  <MODEL>
8

>  <REMARK>
 VINA RESULT:      -7.9      2.286      6.942
  Name = 
  5 active torsions:
  status: ('A' for Active; 'I' for Inactive)
    1  A    between atoms: C_1  and  C_5
    2  A    between atoms: C_5  and  C_17
    3  A    between atoms: C_6  and  C_31
    4  A    between atoms: C_11  and  C_26
    5  A    between atoms: C_17  and  C_26
                            x       y       z     vdW  Elec       q    Type
                         _______ _______ _______ _____ _____    ______ ____

>  <TORSDO>
F 5

$$$$
=
 OpenBabel11052415303D

 37 45  0  0  1  0  0  0  0  0999 V2000
  187.3050  178.7000  140.2730 C   0  0  1  0  0  3  0  0  0  0  0  0
  182.5150  178.4730  143.7170 C   0  0  0  0  0  2  0  0  0  0  0  0
  186.7090  178.1510  145.3140 C   0  0  2  0  0  0  0  0  0  0  0  0
  189.5940  176.4730  144.1140 N   0  0  0  0  0  2  0  0  0  0  0  0
  184.5870  178.9870  145.1100 C   0  0  0  0  0  0  0  0  0  0  0  0
  187.8770  178.2640  144.3730 C   0  0  1  0  0  3  0  0  0  0  0  0
  184.9790  178.6950  139.7100 O   0  0  0  0  0  1  0  0  0  0  0  0
  185.4790  178.0320  144.5470 N   0  0  0  0  0  0  0  0  0  0  0  0
  189.2180  177.6990  144.8410 C   0  0  1  0  0  3  0  0  0  0  0  0
  185.1970  179.6690  146.1440 O   0  0  0  0  0  0  0  0  0  0  0  0
  185.8120  177.6900  143.1500 C   0  0  1  0  0  3  0  0  0  0  0  0
  184.0020  179.1710  142.1330 C   0  0  0  0  0  2  0  0  0  0  0  0
  187.6030  178.0980  147.9820 C   0  0  0  0  0  2  0  0  0  0  0  0
  185.8840  178.2770  140.6930 C   0  0  2  0  0  3  0  0  0  0  0  0
  186.5570  179.2620  146.2880 C   0  0  1  0  0  3  0  0  0  0  0  0
  185.4870  178.7870  142.1000 C   0  0  2  0  0  3  0  0  0  0  0  0
  189.6430  176.7800  142.6700 C   0  0  0  0  0  2  0  0  0  0  0  0
  186.6610  177.7950  146.8150 C   0  0  2  0  0  0  0  0  0  0  0  0
  187.3120  177.4200  143.2530 C   0  0  1  0  0  3  0  0  0  0  0  0
  183.3110  179.2010  144.7760 C   0  0  0  0  0  3  0  0  0  0  0  0
  189.2930  177.5800  146.3640 C   0  0  1  0  0  3  0  0  0  0  0  0
  183.2320  178.0820  142.5680 O   0  0  0  0  0  0  0  0  0  0  0  0
  188.2660  177.1920  142.0940 C   0  0  1  0  0  3  0  0  0  0  0  0
  188.4160  178.4860  141.3060 C   0  0  0  0  0  2  0  0  0  0  0  0
  188.0190  177.0440  147.0360 C   0  0  1  0  0  3  0  0  0  0  0  0
  191.1130  177.2530  148.0900 C   0  0  0  0  0  3  0  0  0  0  0  0
  190.5400  176.9090  146.8560 C   0  0  0  0  0  0  0  0  0  0  0  0
  191.1250  175.9030  146.0780 C   0  0  0  0  0  3  0  0  0  0  0  0
  192.8430  174.2810  145.7660 F   0  0  0  0  0  0  0  0  0  0  0  0
  192.8490  175.6000  147.7520 C   0  0  0  0  0  3  0  0  0  0  0  0
  192.2780  175.2520  146.5240 C   0  0  0  0  0  0  0  0  0  0  0  0
  192.2660  176.6000  148.5350 C   0  0  0  0  0  3  0  0  0  0  0  0
  187.6940  178.1430  138.8990 C   0  0  0  0  0  2  0  0  0  0  0  0
  189.0200  178.6920  138.3880 C   0  0  0  0  0  2  0  0  0  0  0  0
  188.9130  179.0240  136.9140 C   0  0  0  0  0  2  0  0  0  0  0  0
  187.6860  178.4430  136.3670 C   0  0  0  0  0  0  0  0  0  0  0  0
  186.6760  177.9660  135.9150 C   0  0  0  0  0  3  0  0  0  0  0  0
  1 33  1  6  0  0  0
  1 14  1  0  0  0  0
  1 24  1  0  0  0  0
  2 20  1  0  0  0  0
  3  8  1  6  0  0  0
  3 15  1  0  0  0  0
  3 18  1  0  0  0  0
  4  9  1  0  0  0  0
  5 10  1  0  0  0  0
  6  9  1  0  0  0  0
  6  3  1  0  0  0  0
  7 14  1  0  0  0  0
  8  5  1  0  0  0  0
  9 21  1  0  0  0  0
 10 15  1  0  0  0  0
 11 19  1  0  0  0  0
 11  8  1  0  0  0  0
 12 22  1  0  0  0  0
 14 16  1  0  0  0  0
 15 18  1  0  0  0  0
 16 12  1  0  0  0  0
 16 11  1  0  0  0  0
 17  4  1  0  0  0  0
 18 25  1  0  0  0  0
 18 13  1  0  0  0  0
 19  6  1  0  0  0  0
 20  5  2  0  0  0  0
 21 27  1  0  0  0  0
 21 25  1  0  0  0  0
 22  2  1  0  0  0  0
 23 17  1  0  0  0  0
 23 19  1  0  0  0  0
 24 23  1  0  0  0  0
 25 13  1  0  0  0  0
 26 32  1  0  0  0  0
 27 26  2  0  0  0  0
 28 31  2  0  0  0  0
 28 27  1  0  0  0  0
 29 31  1  0  0  0  0
 30 32  2  0  0  0  0
 31 30  1  0  0  0  0
 34 33  1  0  0  0  0
 35 34  1  0  0  0  0
 36 35  1  0  0  0  0
 37 36  3  0  0  0  0
M  END
>  <MODEL>
9

>  <REMARK>
 VINA RESULT:      -7.6      2.699      7.167
  Name = 
  5 active torsions:
  status: ('A' for Active; 'I' for Inactive)
    1  A    between atoms: C_1  and  C_5
    2  A    between atoms: C_5  and  C_17
    3  A    between atoms: C_6  and  C_31
    4  A    between atoms: C_11  and  C_26
    5  A    between atoms: C_17  and  C_26
                            x       y       z     vdW  Elec       q    Type
                         _______ _______ _______ _____ _____    ______ ____

>  <TORSDO>
F 5

$$$$
