=
 OpenBabel11052412493D

 25 28  0  0  1  0  0  0  0  0999 V2000
  186.8580  178.0050  145.2360 C   0  0  0  0  0  0  0  0  0  0  0  0
  186.0450  178.2910  144.1350 C   0  0  0  0  0  0  0  0  0  0  0  0
  185.0540  178.3570  146.8020 C   0  0  0  0  0  3  0  0  0  0  0  0
  188.2520  177.6360  145.3670 C   0  0  0  0  0  0  0  0  0  0  0  0
  186.0410  178.5660  140.2990 N   0  0  0  0  0  2  0  0  0  0  0  0
  190.8260  176.9110  146.2600 C   0  0  0  0  0  3  0  0  0  0  0  0
  184.2090  178.6510  145.7170 C   0  0  0  0  0  3  0  0  0  0  0  0
  188.4630  177.4810  146.7950 C   0  0  0  0  0  0  0  0  0  0  0  0
  189.7960  177.0970  147.3600 C   0  0  0  0  0  3  0  0  0  0  0  0
  183.8240  178.9250  143.2540 C   0  0  0  0  0  0  0  0  0  0  0  0
  182.6150  179.2240  143.4330 O   0  0  0  0  0  0  0  0  0  0  0  0
  186.5950  178.2500  142.7350 C   0  0  0  0  0  2  0  0  0  0  0  0
  190.5550  177.0740  144.9490 C   0  0  0  0  0  3  0  0  0  0  0  0
  186.3810  178.0350  146.5290 C   0  0  2  0  0  3  0  0  0  0  0  0
  187.3900  177.7070  147.4900 N   0  0  0  0  0  0  0  0  0  0  0  0
  184.3540  178.8840  141.9260 N   0  0  0  0  0  0  0  0  0  0  0  0
  189.2100  177.4550  144.4660 C   0  0  0  0  0  3  0  0  0  0  0  0
  185.5920  178.5850  141.6550 C   0  0  0  0  0  0  0  0  0  0  0  0
  184.6980  178.6200  144.3920 C   0  0  0  0  0  0  0  0  0  0  0  0
  185.1630  178.8720  139.1820 C   0  0  0  0  0  2  0  0  0  0  0  0
  185.6700  178.1740  137.9350 C   0  0  0  0  0  2  0  0  0  0  0  0
  186.7960  178.9080  137.3850 N   0  0  0  0  0  2  0  0  0  0  0  0
  187.9340  178.0030  137.3780 C   0  0  0  0  0  2  0  0  0  0  0  0
  189.5290  177.4350  139.5330 S   0  0  0  0  0  1  0  0  0  0  0  0
  189.0650  178.5860  138.2060 C   0  0  0  0  0  2  0  0  0  0  0  0
  1  4  2  0  0  0  0
  1 14  1  0  0  0  0
  2 19  2  0  0  0  0
  2  1  1  0  0  0  0
  4  8  1  0  0  0  0
  5 18  1  0  0  0  0
  6  9  2  0  0  0  0
  7  3  2  0  0  0  0
  8  9  1  0  0  0  0
  8 15  2  0  0  0  0
 10 11  2  0  0  0  0
 10 19  1  0  0  0  0
 12  2  1  0  0  0  0
 13  6  1  0  0  0  0
 14  3  1  1  0  0  0
 14 15  1  0  0  0  0
 16 10  1  0  0  0  0
 17 13  2  0  0  0  0
 17  4  1  0  0  0  0
 18 16  2  0  0  0  0
 18 12  1  0  0  0  0
 19  7  1  0  0  0  0
 20  5  1  0  0  0  0
 21 20  1  0  0  0  0
 22 21  1  0  0  0  0
 23 22  1  0  0  0  0
 23 25  1  0  0  0  0
 25 24  1  0  0  0  0
M  END
>  <MODEL>
1

>  <REMARK>
 VINA RESULT:      -9.2      0.000      0.000
  Name = 
  5 active torsions:
  status: ('A' for Active; 'I' for Inactive)
    1  A    between atoms: C_2  and  C_12
    2  A    between atoms: C_2  and  N_25
    3  A    between atoms: N_6  and  C_15
    4  A    between atoms: C_15  and  C_21
    5  A    between atoms: C_21  and  N_25
                            x       y       z     vdW  Elec       q    Type
                         _______ _______ _______ _____ _____    ______ ____

>  <TORSDO>
F 5

$$$$
=
 OpenBabel11052412493D

 25 28  0  0  1  0  0  0  0  0999 V2000
  187.1040  178.0780  145.4650 C   0  0  0  0  0  0  0  0  0  0  0  0
  188.4170  177.8170  145.0620 C   0  0  0  0  0  0  0  0  0  0  0  0
  187.6630  177.8680  147.8050 C   0  0  0  0  0  3  0  0  0  0  0  0
  185.8840  178.3650  144.7400 C   0  0  2  0  0  3  0  0  0  0  0  0
  190.6730  177.4610  141.9680 N   0  0  0  0  0  2  0  0  0  0  0  0
  183.2500  178.9540  143.9240 C   0  0  0  0  0  3  0  0  0  0  0  0
  188.9920  177.6010  147.4330 C   0  0  0  0  0  3  0  0  0  0  0  0
  184.8720  178.5380  145.7660 C   0  0  0  0  0  0  0  0  0  0  0  0
  183.4480  178.8530  145.4270 C   0  0  0  0  0  3  0  0  0  0  0  0
  190.7550  177.2980  145.6750 C   0  0  0  0  0  0  0  0  0  0  0  0
  191.6400  177.0770  146.5410 O   0  0  0  0  0  0  0  0  0  0  0  0
  188.7890  177.7950  143.6040 C   0  0  0  0  0  2  0  0  0  0  0  0
  184.2430  178.7800  143.0280 C   0  0  0  0  0  3  0  0  0  0  0  0
  186.7350  178.1050  146.7930 C   0  0  0  0  0  0  0  0  0  0  0  0
  185.3430  178.3910  146.9670 N   0  0  0  0  0  0  0  0  0  0  0  0
  191.1010  177.2790  144.2870 N   0  0  0  0  0  0  0  0  0  0  0  0
  185.6290  178.4700  143.4410 C   0  0  0  0  0  3  0  0  0  0  0  0
  190.2450  177.4990  143.3300 C   0  0  0  0  0  0  0  0  0  0  0  0
  189.3700  177.5750  146.0720 C   0  0  0  0  0  0  0  0  0  0  0  0
  192.0500  177.1850  141.5900 C   0  0  0  0  0  2  0  0  0  0  0  0
  192.1700  177.1900  140.0790 C   0  0  0  0  0  2  0  0  0  0  0  0
  190.9380  176.6990  139.4870 N   0  0  0  0  0  2  0  0  0  0  0  0
  191.1030  176.7580  138.0440 C   0  0  0  0  0  2  0  0  0  0  0  0
  189.0080  178.4370  138.5960 S   0  0  0  0  0  1  0  0  0  0  0  0
  189.8700  177.3680  137.4050 C   0  0  0  0  0  2  0  0  0  0  0  0
  1 14  1  0  0  0  0
  2  1  2  0  0  0  0
  2 19  1  0  0  0  0
  4 17  1  6  0  0  0
  4  1  1  0  0  0  0
  4  8  1  0  0  0  0
  5 18  1  0  0  0  0
  6  9  2  0  0  0  0
  7  3  1  0  0  0  0
  8 15  2  0  0  0  0
  9  8  1  0  0  0  0
 10 19  1  0  0  0  0
 10 11  2  0  0  0  0
 12  2  1  0  0  0  0
 13 17  2  0  0  0  0
 13  6  1  0  0  0  0
 14 15  1  0  0  0  0
 14  3  2  0  0  0  0
 16 10  1  0  0  0  0
 18 12  1  0  0  0  0
 18 16  2  0  0  0  0
 19  7  2  0  0  0  0
 20  5  1  0  0  0  0
 21 20  1  0  0  0  0
 22 21  1  0  0  0  0
 23 22  1  0  0  0  0
 25 23  1  0  0  0  0
 25 24  1  0  0  0  0
M  END
>  <MODEL>
2

>  <REMARK>
 VINA RESULT:      -9.1      3.068      5.215
  Name = 
  5 active torsions:
  status: ('A' for Active; 'I' for Inactive)
    1  A    between atoms: C_2  and  C_12
    2  A    between atoms: C_2  and  N_25
    3  A    between atoms: N_6  and  C_15
    4  A    between atoms: C_15  and  C_21
    5  A    between atoms: C_21  and  N_25
                            x       y       z     vdW  Elec       q    Type
                         _______ _______ _______ _____ _____    ______ ____

>  <TORSDO>
F 5

$$$$
=
 OpenBabel11052412493D

 25 28  0  0  1  0  0  0  0  0999 V2000
  187.0770  178.0860  145.4940 C   0  0  0  0  0  0  0  0  0  0  0  0
  188.3880  177.8150  145.0920 C   0  0  0  0  0  0  0  0  0  0  0  0
  187.6370  177.9030  147.8350 C   0  0  0  0  0  3  0  0  0  0  0  0
  185.8580  178.3680  144.7660 C   0  0  2  0  0  3  0  0  0  0  0  0
  190.6410  177.4130  142.0010 N   0  0  0  0  0  2  0  0  0  0  0  0
  183.2250  178.9570  143.9460 C   0  0  0  0  0  3  0  0  0  0  0  0
  188.9650  177.6270  147.4660 C   0  0  0  0  0  3  0  0  0  0  0  0
  184.8470  178.5580  145.7910 C   0  0  0  0  0  0  0  0  0  0  0  0
  183.4230  178.8740  145.4490 C   0  0  0  0  0  3  0  0  0  0  0  0
  190.7250  177.2960  145.7090 C   0  0  0  0  0  0  0  0  0  0  0  0
  191.6110  177.0820  146.5770 O   0  0  0  0  0  0  0  0  0  0  0  0
  188.7590  177.7740  143.6340 C   0  0  0  0  0  2  0  0  0  0  0  0
  184.2160  178.7680  143.0500 C   0  0  0  0  0  3  0  0  0  0  0  0
  186.7100  178.1300  146.8210 C   0  0  0  0  0  0  0  0  0  0  0  0
  185.3190  178.4240  146.9930 N   0  0  0  0  0  0  0  0  0  0  0  0
  191.0700  177.2580  144.3220 N   0  0  0  0  0  0  0  0  0  0  0  0
  185.6010  178.4580  143.4660 C   0  0  0  0  0  3  0  0  0  0  0  0
  190.2140  177.4690  143.3630 C   0  0  0  0  0  0  0  0  0  0  0  0
  189.3410  177.5820  146.1040 C   0  0  0  0  0  0  0  0  0  0  0  0
  192.0170  177.1270  141.6260 C   0  0  0  0  0  2  0  0  0  0  0  0
  192.1970  177.3780  140.1420 C   0  0  0  0  0  2  0  0  0  0  0  0
  191.1130  176.7550  139.4030 N   0  0  0  0  0  2  0  0  0  0  0  0
  191.5830  176.5530  138.0420 C   0  0  0  0  0  2  0  0  0  0  0  0
  193.4510  174.6120  137.5390 S   0  0  0  0  0  1  0  0  0  0  0  0
  193.0820  176.3190  138.0410 C   0  0  0  0  0  2  0  0  0  0  0  0
  1 14  1  0  0  0  0
  2  1  2  0  0  0  0
  2 19  1  0  0  0  0
  4 17  1  6  0  0  0
  4  1  1  0  0  0  0
  4  8  1  0  0  0  0
  5 18  1  0  0  0  0
  6  9  2  0  0  0  0
  7  3  1  0  0  0  0
  8 15  2  0  0  0  0
  9  8  1  0  0  0  0
 10 19  1  0  0  0  0
 10 11  2  0  0  0  0
 12  2  1  0  0  0  0
 13 17  2  0  0  0  0
 13  6  1  0  0  0  0
 14 15  1  0  0  0  0
 14  3  2  0  0  0  0
 16 10  1  0  0  0  0
 18 12  1  0  0  0  0
 18 16  2  0  0  0  0
 19  7  2  0  0  0  0
 20  5  1  0  0  0  0
 21 20  1  0  0  0  0
 22 21  1  0  0  0  0
 23 22  1  0  0  0  0
 24 25  1  0  0  0  0
 25 23  1  0  0  0  0
M  END
>  <MODEL>
3

>  <REMARK>
 VINA RESULT:      -9.1      3.412      5.397
  Name = 
  5 active torsions:
  status: ('A' for Active; 'I' for Inactive)
    1  A    between atoms: C_2  and  C_12
    2  A    between atoms: C_2  and  N_25
    3  A    between atoms: N_6  and  C_15
    4  A    between atoms: C_15  and  C_21
    5  A    between atoms: C_21  and  N_25
                            x       y       z     vdW  Elec       q    Type
                         _______ _______ _______ _____ _____    ______ ____

>  <TORSDO>
F 5

$$$$
=
 OpenBabel11052412493D

 25 28  0  0  1  0  0  0  0  0999 V2000
  187.9050  177.6350  145.4370 C   0  0  0  0  0  0  0  0  0  0  0  0
  186.7050  177.9740  144.8070 C   0  0  0  0  0  0  0  0  0  0  0  0
  187.0420  178.1840  147.6240 C   0  0  0  0  0  3  0  0  0  0  0  0
  189.1760  177.1410  144.9480 C   0  0  2  0  0  3  0  0  0  0  0  0
  184.9790  178.1720  141.3760 N   0  0  0  0  0  2  0  0  0  0  0  0
  191.8130  176.1970  144.6260 C   0  0  0  0  0  3  0  0  0  0  0  0
  185.8210  178.5350  147.0210 C   0  0  0  0  0  3  0  0  0  0  0  0
  190.0000  176.9950  146.1340 C   0  0  0  0  0  0  0  0  0  0  0  0
  191.4120  176.5000  146.0590 C   0  0  0  0  0  3  0  0  0  0  0  0
  184.3800  178.7950  144.9850 C   0  0  0  0  0  0  0  0  0  0  0  0
  183.4100  179.2080  145.6720 O   0  0  0  0  0  0  0  0  0  0  0  0
  186.5540  177.8540  143.3140 C   0  0  0  0  0  2  0  0  0  0  0  0
  190.9890  176.3580  143.5700 C   0  0  0  0  0  3  0  0  0  0  0  0
  188.0720  177.7350  146.8020 C   0  0  0  0  0  0  0  0  0  0  0  0
  189.3800  177.3340  147.2230 N   0  0  0  0  0  0  0  0  0  0  0  0
  184.2430  178.6780  143.5660 N   0  0  0  0  0  0  0  0  0  0  0  0
  189.6030  176.8530  143.7240 C   0  0  0  0  0  3  0  0  0  0  0  0
  185.1980  178.2590  142.7850 C   0  0  0  0  0  0  0  0  0  0  0  0
  185.6510  178.4320  145.6220 C   0  0  0  0  0  0  0  0  0  0  0  0
  183.7140  178.5360  140.7580 C   0  0  0  0  0  2  0  0  0  0  0  0
  183.9740  179.1450  139.3950 C   0  0  0  0  0  2  0  0  0  0  0  0
  185.3820  179.0170  139.0600 N   0  0  0  0  0  2  0  0  0  0  0  0
  185.4730  178.1030  137.9340 C   0  0  0  0  0  2  0  0  0  0  0  0
  187.0800  176.0800  137.0190 S   0  0  0  0  0  1  0  0  0  0  0  0
  186.9270  177.7790  137.6450 C   0  0  0  0  0  2  0  0  0  0  0  0
  1 14  1  0  0  0  0
  2  1  2  0  0  0  0
  2 19  1  0  0  0  0
  4 17  1  6  0  0  0
  4  1  1  0  0  0  0
  4  8  1  0  0  0  0
  5 18  1  0  0  0  0
  6  9  2  0  0  0  0
  7  3  1  0  0  0  0
  8 15  2  0  0  0  0
  9  8  1  0  0  0  0
 10 19  1  0  0  0  0
 10 11  2  0  0  0  0
 12  2  1  0  0  0  0
 13 17  2  0  0  0  0
 13  6  1  0  0  0  0
 14 15  1  0  0  0  0
 14  3  2  0  0  0  0
 16 10  1  0  0  0  0
 18 12  1  0  0  0  0
 18 16  2  0  0  0  0
 19  7  2  0  0  0  0
 20  5  1  0  0  0  0
 21 20  1  0  0  0  0
 22 21  1  0  0  0  0
 23 22  1  0  0  0  0
 24 25  1  0  0  0  0
 25 23  1  0  0  0  0
M  END
>  <MODEL>
4

>  <REMARK>
 VINA RESULT:      -9.0      1.459      1.953
  Name = 
  5 active torsions:
  status: ('A' for Active; 'I' for Inactive)
    1  A    between atoms: C_2  and  C_12
    2  A    between atoms: C_2  and  N_25
    3  A    between atoms: N_6  and  C_15
    4  A    between atoms: C_15  and  C_21
    5  A    between atoms: C_21  and  N_25
                            x       y       z     vdW  Elec       q    Type
                         _______ _______ _______ _____ _____    ______ ____

>  <TORSDO>
F 5

$$$$
=
 OpenBabel11052412493D

 25 28  0  0  0  0  0  0  0  0999 V2000
  185.6380  178.2850  144.8130 C   0  0  0  0  0  0  0  0  0  0  0  0
  186.9900  177.9330  144.8020 C   0  0  0  0  0  0  0  0  0  0  0  0
  185.6180  178.5780  147.2100 C   0  0  0  0  0  3  0  0  0  0  0  0
  184.6420  178.4200  143.7710 C   0  0  0  0  0  0  0  0  0  0  0  0
  189.8840  176.9020  142.4880 N   0  0  0  0  0  2  0  0  0  0  0  0
  182.3120  178.8420  142.2400 C   0  0  0  0  0  3  0  0  0  0  0  0
  186.9790  178.2270  147.2340 C   0  0  0  0  0  3  0  0  0  0  0  0
  183.4290  178.8180  144.4640 C   0  0  0  0  0  0  0  0  0  0  0  0
  182.1450  179.0640  143.7330 C   0  0  0  0  0  2  0  0  0  0  0  0
  189.0840  177.5380  146.0560 C   0  0  0  0  0  0  0  0  0  0  0  0
  189.7270  177.5000  147.1370 O   0  0  0  0  0  0  0  0  0  0  0  0
  187.6920  177.5950  143.5140 C   0  0  0  0  0  2  0  0  0  0  0  0
  183.4750  178.4710  141.6660 C   0  0  0  0  0  3  0  0  0  0  0  0
  184.9700  178.5990  145.9780 C   0  0  0  0  0  0  0  0  0  0  0  0
  183.5960  178.9280  145.7470 N   0  0  0  0  0  0  0  0  0  0  0  0
  189.7440  177.2190  144.8280 N   0  0  0  0  0  0  0  0  0  0  0  0
  184.7040  178.2460  142.4560 C   0  0  0  0  0  3  0  0  0  0  0  0
  189.1510  177.2350  143.6680 C   0  0  0  0  0  0  0  0  0  0  0  0
  187.6640  177.9050  146.0400 C   0  0  0  0  0  0  0  0  0  0  0  0
  191.2920  176.5400  142.5200 C   0  0  0  0  0  2  0  0  0  0  0  0
  192.0050  177.1790  141.3450 C   0  0  0  0  0  2  0  0  0  0  0  0
  191.0380  177.5460  140.3240 N   0  0  0  0  0  2  0  0  0  0  0  0
  191.3740  176.7930  139.1270 C   0  0  0  0  0  2  0  0  0  0  0  0
  189.1760  178.3040  138.4980 S   0  0  0  0  0  1  0  0  0  0  0  0
  190.2370  176.8770  138.1250 C   0  0  0  0  0  2  0  0  0  0  0  0
  1 14  1  0  0  0  0
  2  1  2  0  0  0  0
  2 19  1  0  0  0  0
  3  7  1  0  0  0  0
  4  8  1  0  0  0  0
  4  1  1  0  0  0  0
  5 20  1  0  0  0  0
  5 18  1  0  0  0  0
  6  9  1  0  0  0  0
  8 15  2  0  0  0  0
  9  8  1  0  0  0  0
 10 11  2  0  0  0  0
 12 18  1  0  0  0  0
 12  2  1  0  0  0  0
 13  6  2  0  0  0  0
 13 17  1  0  0  0  0
 14  3  2  0  0  0  0
 15 14  1  0  0  0  0
 16 10  1  0  0  0  0
 17  4  2  0  0  0  0
 18 16  2  0  0  0  0
 19 10  1  0  0  0  0
 19  7  2  0  0  0  0
 21 20  1  0  0  0  0
 22 21  1  0  0  0  0
 23 22  1  0  0  0  0
 25 24  1  0  0  0  0
 25 23  1  0  0  0  0
M  END
>  <MODEL>
5

>  <REMARK>
 VINA RESULT:      -8.9      2.883      5.284
  Name = 
  5 active torsions:
  status: ('A' for Active; 'I' for Inactive)
    1  A    between atoms: C_2  and  C_12
    2  A    between atoms: C_2  and  N_25
    3  A    between atoms: N_6  and  C_15
    4  A    between atoms: C_15  and  C_21
    5  A    between atoms: C_21  and  N_25
                            x       y       z     vdW  Elec       q    Type
                         _______ _______ _______ _____ _____    ______ ____

>  <TORSDO>
F 5

$$$$
=
 OpenBabel11052412493D

 25 28  0  0  1  0  0  0  0  0999 V2000
  187.7230  177.7990  144.3960 C   0  0  0  0  0  0  0  0  0  0  0  0
  188.5330  177.6960  143.2620 C   0  0  0  0  0  0  0  0  0  0  0  0
  189.5280  177.1880  145.8800 C   0  0  0  0  0  3  0  0  0  0  0  0
  186.3300  178.1440  144.5890 C   0  0  0  0  0  0  0  0  0  0  0  0
  188.5320  178.0590  139.4340 N   0  0  0  0  0  2  0  0  0  0  0  0
  183.7590  178.7180  145.5940 C   0  0  0  0  0  3  0  0  0  0  0  0
  190.3700  177.0750  144.7600 C   0  0  0  0  0  3  0  0  0  0  0  0
  186.1210  178.0620  146.0240 C   0  0  0  0  0  0  0  0  0  0  0  0
  184.7900  178.3500  146.6470 C   0  0  0  0  0  3  0  0  0  0  0  0
  190.7510  177.2100  142.2840 C   0  0  0  0  0  0  0  0  0  0  0  0
  191.9600  176.8830  142.4100 O   0  0  0  0  0  0  0  0  0  0  0  0
  187.9820  177.9690  141.8890 C   0  0  0  0  0  2  0  0  0  0  0  0
  184.0270  178.7740  144.2730 C   0  0  0  0  0  3  0  0  0  0  0  0
  188.2010  177.5540  145.6660 C   0  0  2  0  0  3  0  0  0  0  0  0
  187.1940  177.7210  146.6700 N   0  0  0  0  0  0  0  0  0  0  0  0
  190.2210  177.4720  140.9820 N   0  0  0  0  0  0  0  0  0  0  0  0
  185.3710  178.4750  143.7320 C   0  0  0  0  0  3  0  0  0  0  0  0
  188.9820  177.8150  140.7670 C   0  0  0  0  0  0  0  0  0  0  0  0
  189.8790  177.3260  143.4590 C   0  0  0  0  0  0  0  0  0  0  0  0
  189.4080  177.9390  138.2790 C   0  0  0  0  0  2  0  0  0  0  0  0
  189.0680  179.0210  137.2730 C   0  0  0  0  0  2  0  0  0  0  0  0
  187.6420  179.0050  136.9980 N   0  0  0  0  0  2  0  0  0  0  0  0
  187.4250  178.0530  135.9210 C   0  0  0  0  0  2  0  0  0  0  0  0
  185.3670  177.7790  137.7100 S   0  0  0  0  0  1  0  0  0  0  0  0
  186.0690  177.3900  136.0800 C   0  0  0  0  0  2  0  0  0  0  0  0
  1  4  2  0  0  0  0
  1 14  1  0  0  0  0
  2 19  2  0  0  0  0
  2  1  1  0  0  0  0
  4  8  1  0  0  0  0
  5 18  1  0  0  0  0
  6  9  2  0  0  0  0
  7  3  2  0  0  0  0
  8  9  1  0  0  0  0
  8 15  2  0  0  0  0
 10 11  2  0  0  0  0
 10 19  1  0  0  0  0
 12  2  1  0  0  0  0
 13  6  1  0  0  0  0
 14  3  1  6  0  0  0
 14 15  1  0  0  0  0
 16 10  1  0  0  0  0
 17 13  2  0  0  0  0
 17  4  1  0  0  0  0
 18 16  2  0  0  0  0
 18 12  1  0  0  0  0
 19  7  1  0  0  0  0
 20  5  1  0  0  0  0
 21 20  1  0  0  0  0
 22 21  1  0  0  0  0
 23 25  1  0  0  0  0
 23 22  1  0  0  0  0
 25 24  1  0  0  0  0
M  END
>  <MODEL>
6

>  <REMARK>
 VINA RESULT:      -8.8      2.719      4.639
  Name = 
  5 active torsions:
  status: ('A' for Active; 'I' for Inactive)
    1  A    between atoms: C_2  and  C_12
    2  A    between atoms: C_2  and  N_25
    3  A    between atoms: N_6  and  C_15
    4  A    between atoms: C_15  and  C_21
    5  A    between atoms: C_21  and  N_25
                            x       y       z     vdW  Elec       q    Type
                         _______ _______ _______ _____ _____    ______ ____

>  <TORSDO>
F 5

$$$$
=
 OpenBabel11052412493D

 25 28  0  0  1  0  0  0  0  0999 V2000
  187.7610  177.7110  145.3820 C   0  0  0  0  0  0  0  0  0  0  0  0
  186.5670  178.0360  144.7320 C   0  0  0  0  0  0  0  0  0  0  0  0
  186.8540  178.2440  147.5560 C   0  0  0  0  0  3  0  0  0  0  0  0
  189.0450  177.2350  144.9130 C   0  0  2  0  0  3  0  0  0  0  0  0
  184.8960  178.2200  141.2740 N   0  0  0  0  0  2  0  0  0  0  0  0
  191.7000  176.3270  144.6320 C   0  0  0  0  0  3  0  0  0  0  0  0
  185.6390  178.5800  146.9330 C   0  0  0  0  0  3  0  0  0  0  0  0
  189.8520  177.0970  146.1120 C   0  0  0  0  0  0  0  0  0  0  0  0
  191.2720  176.6210  146.0590 C   0  0  0  0  0  3  0  0  0  0  0  0
  184.2290  178.8260  144.8730 C   0  0  0  0  0  0  0  0  0  0  0  0
  183.2420  179.2250  145.5450 O   0  0  0  0  0  0  0  0  0  0  0  0
  186.4420  177.9180  143.2370 C   0  0  0  0  0  2  0  0  0  0  0  0
  190.8910  176.4800  143.5630 C   0  0  0  0  0  3  0  0  0  0  0  0
  187.9030  177.8100  146.7500 C   0  0  0  0  0  0  0  0  0  0  0  0
  189.2100  177.4250  147.1910 N   0  0  0  0  0  0  0  0  0  0  0  0
  184.1170  178.7110  143.4520 N   0  0  0  0  0  0  0  0  0  0  0  0
  189.4970  176.9560  143.6960 C   0  0  0  0  0  3  0  0  0  0  0  0
  185.0900  178.3070  142.6860 C   0  0  0  0  0  0  0  0  0  0  0  0
  185.4930  178.4780  145.5310 C   0  0  0  0  0  0  0  0  0  0  0  0
  183.6360  178.5700  140.6360 C   0  0  0  0  0  2  0  0  0  0  0  0
  183.9040  179.4820  139.4550 C   0  0  0  0  0  2  0  0  0  0  0  0
  182.6610  179.7540  138.7530 N   0  0  0  0  0  2  0  0  0  0  0  0
  181.5770  179.3260  139.6220 C   0  0  0  0  0  2  0  0  0  0  0  0
  180.7390  181.6480  138.4300 S   0  0  0  0  0  1  0  0  0  0  0  0
  180.5690  180.4490  139.7850 C   0  0  0  0  0  2  0  0  0  0  0  0
  1 14  1  0  0  0  0
  2  1  2  0  0  0  0
  2 19  1  0  0  0  0
  4 17  1  6  0  0  0
  4  1  1  0  0  0  0
  4  8  1  0  0  0  0
  5 18  1  0  0  0  0
  6  9  2  0  0  0  0
  7  3  1  0  0  0  0
  8 15  2  0  0  0  0
  9  8  1  0  0  0  0
 10 19  1  0  0  0  0
 10 11  2  0  0  0  0
 12  2  1  0  0  0  0
 13 17  2  0  0  0  0
 13  6  1  0  0  0  0
 14 15  1  0  0  0  0
 14  3  2  0  0  0  0
 16 10  1  0  0  0  0
 18 12  1  0  0  0  0
 18 16  2  0  0  0  0
 19  7  2  0  0  0  0
 20  5  1  0  0  0  0
 21 20  1  0  0  0  0
 22 21  1  0  0  0  0
 22 23  1  0  0  0  0
 23 25  1  0  0  0  0
 24 25  1  0  0  0  0
M  END
>  <MODEL>
7

>  <REMARK>
 VINA RESULT:      -8.7      2.833      3.457
  Name = 
  5 active torsions:
  status: ('A' for Active; 'I' for Inactive)
    1  A    between atoms: C_2  and  C_12
    2  A    between atoms: C_2  and  N_25
    3  A    between atoms: N_6  and  C_15
    4  A    between atoms: C_15  and  C_21
    5  A    between atoms: C_21  and  N_25
                            x       y       z     vdW  Elec       q    Type
                         _______ _______ _______ _____ _____    ______ ____

>  <TORSDO>
F 5

$$$$
=
 OpenBabel11052412493D

 25 28  0  0  1  0  0  0  0  0999 V2000
  187.1950  177.7980  144.5500 C   0  0  0  0  0  0  0  0  0  0  0  0
  188.3260  177.4410  143.8110 C   0  0  0  0  0  0  0  0  0  0  0  0
  188.3390  177.5020  146.6560 C   0  0  0  0  0  3  0  0  0  0  0  0
  185.8530  178.1950  144.1770 C   0  0  0  0  0  0  0  0  0  0  0  0
  189.6370  176.9630  140.2270 N   0  0  0  0  0  2  0  0  0  0  0  0
  183.1540  179.0070  144.0950 C   0  0  0  0  0  3  0  0  0  0  0  0
  189.4940  177.1370  145.9420 C   0  0  0  0  0  3  0  0  0  0  0  0
  185.1700  178.4290  145.4360 C   0  0  0  0  0  0  0  0  0  0  0  0
  183.7370  178.8630  145.4900 C   0  0  0  0  0  3  0  0  0  0  0  0
  190.6920  176.7270  143.7770 C   0  0  0  0  0  0  0  0  0  0  0  0
  191.7560  176.4190  144.3750 O   0  0  0  0  0  0  0  0  0  0  0  0
  188.2920  177.4170  142.3060 C   0  0  0  0  0  2  0  0  0  0  0  0
  183.8530  178.7710  142.9650 C   0  0  0  0  0  3  0  0  0  0  0  0
  187.1970  177.8300  145.9280 C   0  0  2  0  0  3  0  0  0  0  0  0
  185.9310  178.2230  146.4670 N   0  0  0  0  0  0  0  0  0  0  0  0
  190.6520  176.7050  142.3480 N   0  0  0  0  0  0  0  0  0  0  0  0
  185.2690  178.3440  142.9930 C   0  0  0  0  0  3  0  0  0  0  0  0
  189.5920  177.0100  141.6540 C   0  0  0  0  0  0  0  0  0  0  0  0
  189.4910  177.1050  144.5290 C   0  0  0  0  0  0  0  0  0  0  0  0
  190.8350  176.5850  139.4950 C   0  0  0  0  0  2  0  0  0  0  0  0
  190.4460  175.7770  138.2730 C   0  0  0  0  0  2  0  0  0  0  0  0
  191.5260  174.8710  137.9190 N   0  0  0  0  0  2  0  0  0  0  0  0
  191.8740  175.1410  136.5340 C   0  0  0  0  0  2  0  0  0  0  0  0
  194.2540  174.8110  137.8520 S   0  0  0  0  0  1  0  0  0  0  0  0
  193.3490  175.4820  136.4270 C   0  0  0  0  0  2  0  0  0  0  0  0
  1 14  1  0  0  0  0
  2 19  2  0  0  0  0
  2  1  1  0  0  0  0
  4  1  2  0  0  0  0
  4  8  1  0  0  0  0
  5 18  1  0  0  0  0
  6  9  2  0  0  0  0
  7  3  2  0  0  0  0
  8  9  1  0  0  0  0
  8 15  2  0  0  0  0
 10 11  2  0  0  0  0
 10 19  1  0  0  0  0
 12  2  1  0  0  0  0
 13 17  2  0  0  0  0
 13  6  1  0  0  0  0
 14 15  1  0  0  0  0
 14  3  1  1  0  0  0
 16 10  1  0  0  0  0
 17  4  1  0  0  0  0
 18 12  1  0  0  0  0
 18 16  2  0  0  0  0
 19  7  1  0  0  0  0
 20  5  1  0  0  0  0
 21 20  1  0  0  0  0
 22 21  1  0  0  0  0
 23 22  1  0  0  0  0
 25 23  1  0  0  0  0
 25 24  1  0  0  0  0
M  END
>  <MODEL>
8

>  <REMARK>
 VINA RESULT:      -8.7      3.499      5.293
  Name = 
  5 active torsions:
  status: ('A' for Active; 'I' for Inactive)
    1  A    between atoms: C_2  and  C_12
    2  A    between atoms: C_2  and  N_25
    3  A    between atoms: N_6  and  C_15
    4  A    between atoms: C_15  and  C_21
    5  A    between atoms: C_21  and  N_25
                            x       y       z     vdW  Elec       q    Type
                         _______ _______ _______ _____ _____    ______ ____

>  <TORSDO>
F 5

$$$$
=
 OpenBabel11052412493D

 25 28  0  0  1  0  0  0  0  0999 V2000
  187.7500  177.8110  144.3140 C   0  0  0  0  0  0  0  0  0  0  0  0
  187.5400  178.0760  142.9580 C   0  0  0  0  0  0  0  0  0  0  0  0
  185.4490  178.2780  144.8780 C   0  0  0  0  0  3  0  0  0  0  0  0
  188.9150  177.4080  145.0740 C   0  0  0  0  0  0  0  0  0  0  0  0
  189.2910  178.1960  139.5360 N   0  0  0  0  0  2  0  0  0  0  0  0
  190.7680  176.6450  147.0580 C   0  0  0  0  0  3  0  0  0  0  0  0
  185.2030  178.5530  143.5210 C   0  0  0  0  0  3  0  0  0  0  0  0
  188.4470  177.3040  146.4450 C   0  0  0  0  0  0  0  0  0  0  0  0
  189.3590  176.9050  147.5640 C   0  0  0  0  0  3  0  0  0  0  0  0
  185.9920  178.7380  141.1470 C   0  0  0  0  0  0  0  0  0  0  0  0
  184.8480  179.0790  140.7490 O   0  0  0  0  0  0  0  0  0  0  0  0
  188.6630  177.9630  141.9630 C   0  0  0  0  0  2  0  0  0  0  0  0
  191.1300  176.7630  145.7640 C   0  0  0  0  0  3  0  0  0  0  0  0
  186.7400  177.9070  145.2470 C   0  0  2  0  0  3  0  0  0  0  0  0
  187.1870  177.5890  146.5690 N   0  0  0  0  0  0  0  0  0  0  0  0
  187.0640  178.6280  140.2080 N   0  0  0  0  0  0  0  0  0  0  0  0
  190.1680  177.1620  144.7130 C   0  0  0  0  0  3  0  0  0  0  0  0
  188.2760  178.2820  140.5380 C   0  0  0  0  0  0  0  0  0  0  0  0
  186.2390  178.4540  142.5650 C   0  0  0  0  0  0  0  0  0  0  0  0
  189.0300  178.4820  138.1340 C   0  0  0  0  0  2  0  0  0  0  0  0
  189.4540  177.2960  137.2900 C   0  0  0  0  0  2  0  0  0  0  0  0
  188.7820  177.3450  136.0030 N   0  0  0  0  0  2  0  0  0  0  0  0
  187.8000  176.2740  135.9920 C   0  0  0  0  0  2  0  0  0  0  0  0
  185.5150  177.2700  137.1300 S   0  0  0  0  0  1  0  0  0  0  0  0
  186.4340  176.8260  135.6280 C   0  0  0  0  0  2  0  0  0  0  0  0
  1  4  2  0  0  0  0
  1 14  1  0  0  0  0
  2  1  1  0  0  0  0
  4  8  1  0  0  0  0
  5 18  1  0  0  0  0
  6  9  2  0  0  0  0
  7  3  2  0  0  0  0
  8 15  2  0  0  0  0
  8  9  1  0  0  0  0
 10 19  1  0  0  0  0
 11 10  2  0  0  0  0
 12  2  1  0  0  0  0
 13  6  1  0  0  0  0
 14  3  1  1  0  0  0
 14 15  1  0  0  0  0
 16 18  2  0  0  0  0
 16 10  1  0  0  0  0
 17  4  1  0  0  0  0
 17 13  2  0  0  0  0
 18 12  1  0  0  0  0
 19  2  2  0  0  0  0
 19  7  1  0  0  0  0
 20  5  1  0  0  0  0
 21 20  1  0  0  0  0
 22 21  1  0  0  0  0
 23 22  1  0  0  0  0
 25 23  1  0  0  0  0
 25 24  1  0  0  0  0
M  END
>  <MODEL>
9

>  <REMARK>
 VINA RESULT:      -8.4      1.878      2.588
  Name = 
  5 active torsions:
  status: ('A' for Active; 'I' for Inactive)
    1  A    between atoms: C_2  and  C_12
    2  A    between atoms: C_2  and  N_25
    3  A    between atoms: N_6  and  C_15
    4  A    between atoms: C_15  and  C_21
    5  A    between atoms: C_21  and  N_25
                            x       y       z     vdW  Elec       q    Type
                         _______ _______ _______ _____ _____    ______ ____

>  <TORSDO>
F 5

$$$$
