=
 OpenBabel11052415193D

 37 42  0  0  1  0  0  0  0  0999 V2000
  187.4570  178.3860  139.8310 C   0  0  1  0  0  3  0  0  0  0  0  0
  188.8640  176.5460  139.1000 O   0  0  0  0  0  0  0  0  0  0  0  0
  187.7850  177.7930  141.1940 C   0  0  2  0  0  3  0  0  0  0  0  0
  188.2580  177.7570  138.6970 C   0  0  1  0  0  3  0  0  0  0  0  0
  187.3040  178.6520  142.1920 O   0  0  0  0  0  0  0  0  0  0  0  0
  187.2340  177.5010  137.6120 C   0  0  0  0  0  2  0  0  0  0  0  0
  189.8490  176.8220  140.0880 C   0  0  2  0  0  3  0  0  0  0  0  0
  185.3470  179.3440  140.0800 C   0  0  0  0  0  2  0  0  0  0  0  0
  185.9710  178.1810  138.1050 C   0  0  0  0  0  2  0  0  0  0  0  0
  186.0470  178.1780  139.5550 N   0  0  1  0  0  0  0  0  0  0  0  0
  189.2870  177.5590  141.3280 C   0  0  2  0  0  3  0  0  0  0  0  0
  185.9630  178.2810  142.3760 C   0  0  2  0  0  3  0  0  0  0  0  0
  184.9930  179.1690  141.5710 C   0  0  0  0  0  2  0  0  0  0  0  0
  184.3710  178.7770  144.2360 C   0  0  0  0  0  3  0  0  0  0  0  0
  185.6170  178.2870  143.8300 C   0  0  0  0  0  0  0  0  0  0  0  0
  186.5140  177.7900  144.7870 C   0  0  0  0  0  3  0  0  0  0  0  0
  187.0370  177.3150  147.0640 F   0  0  0  0  0  0  0  0  0  0  0  0
  184.9220  178.2860  146.5440 C   0  0  0  0  0  3  0  0  0  0  0  0
  186.1670  177.7940  146.1420 C   0  0  0  0  0  0  0  0  0  0  0  0
  184.0240  178.7770  145.5910 C   0  0  0  0  0  3  0  0  0  0  0  0
  192.1820  176.5450  139.2840 C   0  0  2  0  0  3  0  0  0  0  0  0
  191.0600  177.5450  139.5040 C   0  0  2  0  0  3  0  0  0  0  0  0
  192.2220  177.4810  140.4750 C   0  0  0  0  0  2  0  0  0  0  0  0
  193.0290  177.0250  138.2860 O   0  0  0  0  0  0  0  0  0  0  0  0
  193.4580  175.8820  137.6080 C   0  0  0  0  0  1  0  0  0  0  0  0
  190.4600  175.4450  142.3820 O   0  0  0  0  0  0  0  0  0  0  0  0
  189.6110  176.6220  142.8450 S   0  0  1  0  0  0  0  0  0  0  0  0
  190.7440  177.6540  143.8090 C   0  0  2  0  0  3  0  0  0  0  0  0
  190.0240  176.1450  145.5910 O   0  0  0  0  0  0  0  0  0  0  0  0
  190.5580  177.4210  145.3060 C   0  0  1  0  0  0  0  0  0  0  0  0
  191.3460  176.3910  146.0160 C   0  0  2  0  0  0  0  0  0  0  0  0
  189.9520  178.4150  146.0810 O   0  0  0  0  0  1  0  0  0  0  0  0
  192.2710  175.6560  145.2700 O   0  0  0  0  0  1  0  0  0  0  0  0
  192.4960  175.7990  148.1090 C   0  0  0  0  0  2  0  0  0  0  0  0
  191.4790  176.4110  147.5060 C   0  0  0  0  0  3  0  0  0  0  0  0
  191.6020  179.8820  143.9300 O   0  0  0  0  0  1  0  0  0  0  0  0
  190.5160  179.1230  143.4910 C   0  0  0  0  0  2  0  0  0  0  0  0
  1  3  1  0  0  0  0
  2  7  1  0  0  0  0
  3 11  1  0  0  0  0
  3  5  1  0  0  0  0
  4  2  1  0  0  0  0
  4  1  1  0  0  0  0
  5 12  1  0  0  0  0
  6  9  1  0  0  0  0
  6  4  1  0  0  0  0
  7 11  1  0  0  0  0
  8 13  1  0  0  0  0
  9 10  1  0  0  0  0
 10  1  1  0  0  0  0
 10  8  1  0  0  0  0
 11 27  1  0  0  0  0
 12 15  1  0  0  0  0
 13 12  1  0  0  0  0
 14 20  1  0  0  0  0
 15 14  2  0  0  0  0
 15 16  1  0  0  0  0
 16 19  2  0  0  0  0
 19 18  1  0  0  0  0
 19 17  1  0  0  0  0
 20 18  2  0  0  0  0
 21 22  1  0  0  0  0
 21 23  1  0  0  0  0
 22  7  1  0  0  0  0
 22 23  1  0  0  0  0
 24 21  1  0  0  0  0
 25 24  1  0  0  0  0
 26 27  2  0  0  0  0
 27 28  1  0  0  0  0
 28 30  1  0  0  0  0
 29 31  1  0  0  0  0
 30 29  1  0  0  0  0
 30 31  1  0  0  0  0
 30 32  1  0  0  0  0
 31 35  1  0  0  0  0
 33 31  1  0  0  0  0
 35 34  2  0  0  0  0
 37 28  1  0  0  0  0
 37 36  1  0  0  0  0
M  END
>  <MODEL>
1

>  <REMARK>
 VINA RESULT:      -8.2      0.000      0.000
  Name = 
  8 active torsions:
  status: ('A' for Active; 'I' for Inactive)
    1  A    between atoms: O_3  and  C_21
    2  A    between atoms: C_6  and  C_31
    3  A    between atoms: C_11  and  C_33
    4  A    between atoms: C_17  and  C_23
    5  A    between atoms: C_20  and  C_25
    6  A    between atoms: C_27  and  C_33
    7  A    between atoms: C_29  and  S_36
    8  A    between atoms: C_33  and  S_36
                            x       y       z     vdW  Elec       q    Type
                         _______ _______ _______ _____ _____    ______ ____

>  <TORSDO>
F 8

$$$$
=
 OpenBabel11052415193D

 37 42  0  0  1  0  0  0  0  0999 V2000
  189.7330  176.8280  142.5240 C   0  0  1  0  0  3  0  0  0  0  0  0
  191.1440  177.9330  140.8860 O   0  0  0  0  0  0  0  0  0  0  0  0
  188.6470  177.5400  141.7310 C   0  0  2  0  0  3  0  0  0  0  0  0
  191.1100  176.9280  141.8770 C   0  0  1  0  0  3  0  0  0  0  0  0
  187.3940  177.0960  142.1750 O   0  0  0  0  0  0  0  0  0  0  0  0
  192.0360  177.2810  143.0210 C   0  0  0  0  0  2  0  0  0  0  0  0
  190.2970  177.5560  139.8070 C   0  0  2  0  0  3  0  0  0  0  0  0
  188.8930  176.6690  144.6930 C   0  0  0  0  0  2  0  0  0  0  0  0
  191.1800  177.1550  144.2660 C   0  0  0  0  0  2  0  0  0  0  0  0
  189.8150  177.4200  143.8480 N   0  0  1  0  0  0  0  0  0  0  0  0
  188.8320  177.3000  140.2350 C   0  0  2  0  0  3  0  0  0  0  0  0
  187.0910  177.9090  143.2800 C   0  0  2  0  0  3  0  0  0  0  0  0
  187.4630  177.2390  144.6190 C   0  0  0  0  0  2  0  0  0  0  0  0
  185.0280  178.6990  144.4450 C   0  0  0  0  0  3  0  0  0  0  0  0
  185.6500  178.3010  143.2560 C   0  0  0  0  0  0  0  0  0  0  0  0
  184.9200  178.2960  142.0580 C   0  0  0  0  0  3  0  0  0  0  0  0
  182.8720  178.6700  140.8960 F   0  0  0  0  0  0  0  0  0  0  0  0
  182.9560  179.0740  143.2450 C   0  0  0  0  0  3  0  0  0  0  0  0
  183.5740  178.6780  142.0540 C   0  0  0  0  0  0  0  0  0  0  0  0
  183.6840  179.0850  144.4390 C   0  0  0  0  0  3  0  0  0  0  0  0
  192.2170  176.7720  138.4410 C   0  0  2  0  0  3  0  0  0  0  0  0
  190.8670  176.3810  139.0160 C   0  0  2  0  0  3  0  0  0  0  0  0
  190.9910  176.7530  137.5510 C   0  0  0  0  0  2  0  0  0  0  0  0
  192.9700  175.6180  138.2240 O   0  0  0  0  0  0  0  0  0  0  0  0
  193.6560  175.8650  137.0330 C   0  0  0  0  0  1  0  0  0  0  0  0
  188.5470  178.9640  138.2100 O   0  0  0  0  0  0  0  0  0  0  0  0
  187.6890  178.3620  139.3150 S   0  0  1  0  0  0  0  0  0  0  0  0
  186.5680  177.2260  138.4590 C   0  0  2  0  0  3  0  0  0  0  0  0
  188.0380  175.5770  137.4140 O   0  0  0  0  0  0  0  0  0  0  0  0
  187.2030  176.6910  137.1780 C   0  0  1  0  0  0  0  0  0  0  0  0
  186.8620  175.3440  136.6710 C   0  0  2  0  0  0  0  0  0  0  0  0
  187.7880  177.5890  136.2800 O   0  0  0  0  0  1  0  0  0  0  0  0
  185.9340  174.5950  137.3970 O   0  0  0  0  0  1  0  0  0  0  0  0
  187.9340  173.9260  134.9700 C   0  0  0  0  0  2  0  0  0  0  0  0
  187.1450  174.9600  135.2520 C   0  0  0  0  0  3  0  0  0  0  0  0
  185.2570  179.2140  138.6720 O   0  0  0  0  0  1  0  0  0  0  0  0
  185.2640  177.9310  138.1230 C   0  0  0  0  0  2  0  0  0  0  0  0
  1 10  1  0  0  0  0
  2  4  1  0  0  0  0
  3  5  1  0  0  0  0
  3  1  1  0  0  0  0
  4  1  1  0  0  0  0
  4  6  1  0  0  0  0
  5 12  1  0  0  0  0
  6  9  1  0  0  0  0
  7 11  1  0  0  0  0
  7  2  1  0  0  0  0
 10  9  1  0  0  0  0
 10  8  1  0  0  0  0
 11  3  1  0  0  0  0
 12 13  1  0  0  0  0
 13  8  1  0  0  0  0
 15 12  1  0  0  0  0
 15 14  2  0  0  0  0
 16 15  1  0  0  0  0
 17 19  1  0  0  0  0
 18 20  2  0  0  0  0
 19 16  2  0  0  0  0
 19 18  1  0  0  0  0
 20 14  1  0  0  0  0
 21 22  1  0  0  0  0
 22  7  1  0  0  0  0
 23 21  1  0  0  0  0
 23 22  1  0  0  0  0
 24 21  1  0  0  0  0
 25 24  1  0  0  0  0
 26 27  2  0  0  0  0
 27 11  1  0  0  0  0
 28 27  1  0  0  0  0
 30 29  1  0  0  0  0
 30 28  1  0  0  0  0
 31 30  1  0  0  0  0
 31 33  1  0  0  0  0
 31 29  1  0  0  0  0
 32 30  1  0  0  0  0
 34 35  2  0  0  0  0
 35 31  1  0  0  0  0
 37 28  1  0  0  0  0
 37 36  1  0  0  0  0
M  END
>  <MODEL>
2

>  <REMARK>
 VINA RESULT:      -6.8      2.773      6.247
  Name = 
  8 active torsions:
  status: ('A' for Active; 'I' for Inactive)
    1  A    between atoms: O_3  and  C_21
    2  A    between atoms: C_6  and  C_31
    3  A    between atoms: C_11  and  C_33
    4  A    between atoms: C_17  and  C_23
    5  A    between atoms: C_20  and  C_25
    6  A    between atoms: C_27  and  C_33
    7  A    between atoms: C_29  and  S_36
    8  A    between atoms: C_33  and  S_36
                            x       y       z     vdW  Elec       q    Type
                         _______ _______ _______ _____ _____    ______ ____

>  <TORSDO>
F 8

$$$$
=
 OpenBabel11052415193D

 37 42  0  0  1  0  0  0  0  0999 V2000
  189.8430  176.8760  142.5090 C   0  0  1  0  0  3  0  0  0  0  0  0
  191.4000  177.9450  140.9830 O   0  0  0  0  0  0  0  0  0  0  0  0
  188.8350  177.5080  141.5610 C   0  0  2  0  0  3  0  0  0  0  0  0
  191.2810  176.9900  142.0180 C   0  0  1  0  0  3  0  0  0  0  0  0
  187.5520  177.0440  141.8840 O   0  0  0  0  0  0  0  0  0  0  0  0
  192.0600  177.4330  143.2380 C   0  0  0  0  0  2  0  0  0  0  0  0
  190.6940  177.4840  139.8380 C   0  0  2  0  0  3  0  0  0  0  0  0
  188.7640  176.7980  144.5750 C   0  0  0  0  0  2  0  0  0  0  0  0
  191.0700  177.3410  144.3830 C   0  0  0  0  0  2  0  0  0  0  0  0
  189.7550  177.5360  143.7990 N   0  0  1  0  0  0  0  0  0  0  0  0
  189.1970  177.1990  140.1110 C   0  0  2  0  0  3  0  0  0  0  0  0
  187.1010  177.9010  142.9010 C   0  0  2  0  0  3  0  0  0  0  0  0
  187.3360  177.3140  144.3080 C   0  0  0  0  0  2  0  0  0  0  0  0
  185.1650  178.3520  141.3890 C   0  0  0  0  0  3  0  0  0  0  0  0
  185.6620  178.2410  142.6930 C   0  0  0  0  0  0  0  0  0  0  0  0
  184.8000  178.4290  143.7830 C   0  0  0  0  0  3  0  0  0  0  0  0
  182.6230  178.9200  144.6230 F   0  0  0  0  0  0  0  0  0  0  0  0
  182.9600  178.8480  142.2630 C   0  0  0  0  0  3  0  0  0  0  0  0
  183.4520  178.7370  143.5680 C   0  0  0  0  0  0  0  0  0  0  0  0
  183.8170  178.6550  141.1750 C   0  0  0  0  0  3  0  0  0  0  0  0
  192.6840  176.7530  138.5450 C   0  0  2  0  0  3  0  0  0  0  0  0
  191.3840  176.2910  139.1810 C   0  0  2  0  0  3  0  0  0  0  0  0
  191.4640  176.4980  137.6820 C   0  0  0  0  0  2  0  0  0  0  0  0
  193.5550  175.6680  138.4530 O   0  0  0  0  0  0  0  0  0  0  0  0
  193.9200  175.6230  137.1060 C   0  0  0  0  0  1  0  0  0  0  0  0
  189.0430  179.2930  138.5150 O   0  0  0  0  0  0  0  0  0  0  0  0
  188.1380  178.1730  139.0110 S   0  0  1  0  0  0  0  0  0  0  0  0
  187.8670  177.1240  137.5590 C   0  0  2  0  0  3  0  0  0  0  0  0
  186.6860  178.5350  135.9500 O   0  0  0  0  0  0  0  0  0  0  0  0
  186.5500  177.4720  136.8700 C   0  0  1  0  0  0  0  0  0  0  0  0
  186.3800  177.2660  135.4160 C   0  0  2  0  0  0  0  0  0  0  0  0
  185.3920  177.6070  137.6410 O   0  0  0  0  0  1  0  0  0  0  0  0
  187.4580  176.7310  134.7080 O   0  0  0  0  0  1  0  0  0  0  0  0
  184.4050  176.0500  134.5940 C   0  0  0  0  0  2  0  0  0  0  0  0
  185.0170  177.2150  134.7980 C   0  0  0  0  0  3  0  0  0  0  0  0
  188.5930  174.9040  137.0500 O   0  0  0  0  0  1  0  0  0  0  0  0
  187.8570  175.6590  137.9640 C   0  0  0  0  0  2  0  0  0  0  0  0
  1 10  1  0  0  0  0
  2  4  1  0  0  0  0
  3  5  1  0  0  0  0
  3  1  1  0  0  0  0
  4  1  1  0  0  0  0
  4  6  1  0  0  0  0
  5 12  1  0  0  0  0
  6  9  1  0  0  0  0
  7 11  1  0  0  0  0
  7  2  1  0  0  0  0
 10  9  1  0  0  0  0
 10  8  1  0  0  0  0
 11  3  1  0  0  0  0
 12 13  1  0  0  0  0
 13  8  1  0  0  0  0
 14 15  1  0  0  0  0
 15 12  1  0  0  0  0
 15 16  2  0  0  0  0
 18 19  2  0  0  0  0
 19 16  1  0  0  0  0
 19 17  1  0  0  0  0
 20 14  2  0  0  0  0
 20 18  1  0  0  0  0
 21 22  1  0  0  0  0
 22  7  1  0  0  0  0
 23 21  1  0  0  0  0
 23 22  1  0  0  0  0
 24 21  1  0  0  0  0
 25 24  1  0  0  0  0
 26 27  2  0  0  0  0
 27 11  1  0  0  0  0
 28 37  1  0  0  0  0
 28 27  1  0  0  0  0
 29 30  1  0  0  0  0
 30 28  1  0  0  0  0
 30 32  1  0  0  0  0
 31 29  1  0  0  0  0
 31 30  1  0  0  0  0
 33 31  1  0  0  0  0
 34 35  2  0  0  0  0
 35 31  1  0  0  0  0
 36 37  1  0  0  0  0
M  END
>  <MODEL>
3

>  <REMARK>
 VINA RESULT:      -6.8      2.651      6.624
  Name = 
  8 active torsions:
  status: ('A' for Active; 'I' for Inactive)
    1  A    between atoms: O_3  and  C_21
    2  A    between atoms: C_6  and  C_31
    3  A    between atoms: C_11  and  C_33
    4  A    between atoms: C_17  and  C_23
    5  A    between atoms: C_20  and  C_25
    6  A    between atoms: C_27  and  C_33
    7  A    between atoms: C_29  and  S_36
    8  A    between atoms: C_33  and  S_36
                            x       y       z     vdW  Elec       q    Type
                         _______ _______ _______ _____ _____    ______ ____

>  <TORSDO>
F 8

$$$$
=
 OpenBabel11052415193D

 37 42  0  0  1  0  0  0  0  0999 V2000
  189.1580  177.0590  141.2200 C   0  0  1  0  0  3  0  0  0  0  0  0
  188.8990  178.5870  139.3500 O   0  0  0  0  0  0  0  0  0  0  0  0
  187.9190  177.8010  141.7010 C   0  0  2  0  0  3  0  0  0  0  0  0
  189.5490  177.4120  139.7890 C   0  0  1  0  0  3  0  0  0  0  0  0
  187.4210  177.1620  142.8450 O   0  0  0  0  0  0  0  0  0  0  0  0
  191.0460  177.6280  139.8530 C   0  0  0  0  0  2  0  0  0  0  0  0
  187.5010  178.3420  139.2600 C   0  0  2  0  0  3  0  0  0  0  0  0
  190.2680  176.4090  143.1640 C   0  0  0  0  0  2  0  0  0  0  0  0
  191.4410  177.1860  141.2490 C   0  0  0  0  0  2  0  0  0  0  0  0
  190.2730  177.3920  142.0870 N   0  0  1  0  0  0  0  0  0  0  0  0
  186.8720  177.8690  140.5930 C   0  0  2  0  0  3  0  0  0  0  0  0
  188.1430  177.7160  143.9140 C   0  0  2  0  0  3  0  0  0  0  0  0
  189.3480  176.8420  144.3230 C   0  0  0  0  0  2  0  0  0  0  0  0
  187.7640  177.9220  146.3740 C   0  0  0  0  0  3  0  0  0  0  0  0
  187.2400  177.9650  145.0770 C   0  0  0  0  0  0  0  0  0  0  0  0
  185.8830  178.2620  144.8860 C   0  0  0  0  0  3  0  0  0  0  0  0
  183.7430  178.7870  145.8000 F   0  0  0  0  0  0  0  0  0  0  0  0
  185.5820  178.4570  147.2820 C   0  0  0  0  0  3  0  0  0  0  0  0
  185.0550  178.5030  145.9880 C   0  0  0  0  0  0  0  0  0  0  0  0
  186.9370  178.1680  147.4750 C   0  0  0  0  0  3  0  0  0  0  0  0
  187.7600  177.9400  136.8240 C   0  0  2  0  0  3  0  0  0  0  0  0
  187.1570  177.4010  138.1090 C   0  0  2  0  0  3  0  0  0  0  0  0
  186.2800  178.1130  137.0990 C   0  0  0  0  0  2  0  0  0  0  0  0
  187.9480  176.8840  135.9320 O   0  0  0  0  0  0  0  0  0  0  0  0
  189.0020  177.2970  135.1150 C   0  0  0  0  0  1  0  0  0  0  0  0
  185.2900  179.8600  139.8940 O   0  0  0  0  0  0  0  0  0  0  0  0
  185.5310  178.9720  141.1080 S   0  0  1  0  0  0  0  0  0  0  0  0
  184.0590  177.9200  141.2060 C   0  0  2  0  0  3  0  0  0  0  0  0
  183.6480  177.6140  138.8160 O   0  0  0  0  0  0  0  0  0  0  0  0
  183.1350  178.1590  140.0150 C   0  0  1  0  0  0  0  0  0  0  0  0
  182.4740  177.0250  139.3310 C   0  0  2  0  0  0  0  0  0  0  0  0
  182.6010  179.4340  139.8110 O   0  0  0  0  0  1  0  0  0  0  0  0
  182.7170  175.7420  139.8250 O   0  0  0  0  0  1  0  0  0  0  0  0
  180.3440  176.3100  138.3290 C   0  0  0  0  0  2  0  0  0  0  0  0
  181.2850  177.2440  138.4490 C   0  0  0  0  0  3  0  0  0  0  0  0
  183.5020  179.5150  142.8980 O   0  0  0  0  0  1  0  0  0  0  0  0
  183.3050  178.1920  142.4970 C   0  0  0  0  0  2  0  0  0  0  0  0
  1  3  1  0  0  0  0
  1 10  1  0  0  0  0
  2  4  1  0  0  0  0
  3  5  1  0  0  0  0
  4  6  1  0  0  0  0
  4  1  1  0  0  0  0
  5 12  1  0  0  0  0
  6  9  1  0  0  0  0
  7  2  1  0  0  0  0
  7 11  1  0  0  0  0
  8 13  1  0  0  0  0
  9 10  1  0  0  0  0
 10  8  1  0  0  0  0
 11 27  1  0  0  0  0
 11  3  1  0  0  0  0
 12 13  1  0  0  0  0
 12 15  1  0  0  0  0
 14 20  1  0  0  0  0
 15 14  2  0  0  0  0
 16 15  1  0  0  0  0
 16 19  2  0  0  0  0
 17 19  1  0  0  0  0
 18 20  2  0  0  0  0
 19 18  1  0  0  0  0
 21 23  1  0  0  0  0
 21 22  1  0  0  0  0
 22  7  1  0  0  0  0
 23 22  1  0  0  0  0
 24 21  1  0  0  0  0
 25 24  1  0  0  0  0
 26 27  2  0  0  0  0
 27 28  1  0  0  0  0
 28 37  1  0  0  0  0
 29 31  1  0  0  0  0
 29 30  1  0  0  0  0
 30 28  1  0  0  0  0
 31 33  1  0  0  0  0
 31 30  1  0  0  0  0
 32 30  1  0  0  0  0
 34 35  2  0  0  0  0
 35 31  1  0  0  0  0
 37 36  1  0  0  0  0
M  END
>  <MODEL>
4

>  <REMARK>
 VINA RESULT:      -6.7      2.924      6.562
  Name = 
  8 active torsions:
  status: ('A' for Active; 'I' for Inactive)
    1  A    between atoms: O_3  and  C_21
    2  A    between atoms: C_6  and  C_31
    3  A    between atoms: C_11  and  C_33
    4  A    between atoms: C_17  and  C_23
    5  A    between atoms: C_20  and  C_25
    6  A    between atoms: C_27  and  C_33
    7  A    between atoms: C_29  and  S_36
    8  A    between atoms: C_33  and  S_36
                            x       y       z     vdW  Elec       q    Type
                         _______ _______ _______ _____ _____    ______ ____

>  <TORSDO>
F 8

$$$$
=
 OpenBabel11052415193D

 37 42  0  0  1  0  0  0  0  0999 V2000
  186.7360  177.7650  145.4910 C   0  0  1  0  0  3  0  0  0  0  0  0
  188.7750  178.6760  146.4430 O   0  0  0  0  0  0  0  0  0  0  0  0
  187.4680  178.0870  144.1960 C   0  0  2  0  0  3  0  0  0  0  0  0
  187.6070  177.9350  146.7300 C   0  0  1  0  0  3  0  0  0  0  0  0
  186.7430  177.5590  143.1190 O   0  0  0  0  0  0  0  0  0  0  0  0
  186.7280  178.6900  147.7040 C   0  0  0  0  0  2  0  0  0  0  0  0
  189.5990  177.9270  145.5600 C   0  0  2  0  0  3  0  0  0  0  0  0
  184.4720  177.9770  144.9740 C   0  0  0  0  0  2  0  0  0  0  0  0
  185.3600  178.7170  147.0500 C   0  0  0  0  0  2  0  0  0  0  0  0
  185.5930  178.6520  145.6180 N   0  0  1  0  0  0  0  0  0  0  0  0
  188.8920  177.5410  144.2380 C   0  0  2  0  0  3  0  0  0  0  0  0
  185.7940  178.5450  142.8030 C   0  0  2  0  0  3  0  0  0  0  0  0
  184.4250  178.2730  143.4620 C   0  0  0  0  0  2  0  0  0  0  0  0
  184.4420  179.1070  140.7790 C   0  0  0  0  0  3  0  0  0  0  0  0
  185.6600  178.6800  141.3210 C   0  0  0  0  0  0  0  0  0  0  0  0
  186.7410  178.4070  140.4710 C   0  0  0  0  0  3  0  0  0  0  0  0
  187.6460  178.2850  138.2680 F   0  0  0  0  0  0  0  0  0  0  0  0
  185.3810  178.9760  138.5490 C   0  0  0  0  0  3  0  0  0  0  0  0
  186.6000  178.5510  139.0870 C   0  0  0  0  0  0  0  0  0  0  0  0
  184.3030  179.2550  139.3950 C   0  0  0  0  0  3  0  0  0  0  0  0
  191.3730  177.1610  147.1190 C   0  0  2  0  0  3  0  0  0  0  0  0
  190.2160  176.7100  146.2450 C   0  0  2  0  0  3  0  0  0  0  0  0
  191.6440  176.5170  145.7740 C   0  0  0  0  0  2  0  0  0  0  0  0
  191.5690  176.2240  148.1330 O   0  0  0  0  0  0  0  0  0  0  0  0
  192.8270  175.6770  147.8700 C   0  0  0  0  0  1  0  0  0  0  0  0
  190.9830  178.9200  143.4100 O   0  0  0  0  0  0  0  0  0  0  0  0
  189.8100  178.1600  142.8040 S   0  0  1  0  0  0  0  0  0  0  0  0
  190.5560  176.6940  142.0460 C   0  0  2  0  0  3  0  0  0  0  0  0
  190.5460  178.0210  139.9930 O   0  0  0  0  0  0  0  0  0  0  0  0
  190.3980  176.7220  140.5280 C   0  0  1  0  0  0  0  0  0  0  0  0
  191.5380  177.0770  139.6550 C   0  0  2  0  0  0  0  0  0  0  0  0
  189.3240  176.0460  139.9420 O   0  0  0  0  0  1  0  0  0  0  0  0
  192.7570  177.3680  140.2700 O   0  0  0  0  0  1  0  0  0  0  0  0
  192.6040  176.1960  137.6200 C   0  0  0  0  0  2  0  0  0  0  0  0
  191.5310  176.7310  138.1990 C   0  0  0  0  0  3  0  0  0  0  0  0
  190.8750  174.6500  143.2430 O   0  0  0  0  0  1  0  0  0  0  0  0
  189.9150  175.4330  142.6000 C   0  0  0  0  0  2  0  0  0  0  0  0
  1 10  1  0  0  0  0
  1  4  1  0  0  0  0
  2  4  1  0  0  0  0
  3 11  1  0  0  0  0
  3  1  1  0  0  0  0
  4  6  1  0  0  0  0
  5  3  1  0  0  0  0
  7 22  1  0  0  0  0
  7  2  1  0  0  0  0
  8 10  1  0  0  0  0
  9  6  1  0  0  0  0
 10  9  1  0  0  0  0
 11  7  1  0  0  0  0
 12  5  1  0  0  0  0
 12 13  1  0  0  0  0
 13  8  1  0  0  0  0
 14 15  1  0  0  0  0
 15 12  1  0  0  0  0
 16 15  2  0  0  0  0
 17 19  1  0  0  0  0
 18 19  2  0  0  0  0
 18 20  1  0  0  0  0
 19 16  1  0  0  0  0
 20 14  2  0  0  0  0
 21 24  1  0  0  0  0
 22 21  1  0  0  0  0
 23 22  1  0  0  0  0
 23 21  1  0  0  0  0
 25 24  1  0  0  0  0
 27 26  2  0  0  0  0
 27 11  1  0  0  0  0
 28 37  1  0  0  0  0
 28 27  1  0  0  0  0
 29 30  1  0  0  0  0
 30 28  1  0  0  0  0
 31 29  1  0  0  0  0
 31 33  1  0  0  0  0
 31 30  1  0  0  0  0
 32 30  1  0  0  0  0
 34 35  2  0  0  0  0
 35 31  1  0  0  0  0
 37 36  1  0  0  0  0
M  END
>  <MODEL>
5

>  <REMARK>
 VINA RESULT:      -6.7      2.225      6.380
  Name = 
  8 active torsions:
  status: ('A' for Active; 'I' for Inactive)
    1  A    between atoms: O_3  and  C_21
    2  A    between atoms: C_6  and  C_31
    3  A    between atoms: C_11  and  C_33
    4  A    between atoms: C_17  and  C_23
    5  A    between atoms: C_20  and  C_25
    6  A    between atoms: C_27  and  C_33
    7  A    between atoms: C_29  and  S_36
    8  A    between atoms: C_33  and  S_36
                            x       y       z     vdW  Elec       q    Type
                         _______ _______ _______ _____ _____    ______ ____

>  <TORSDO>
F 8

$$$$
=
 OpenBabel11052415193D

 37 42  0  0  1  0  0  0  0  0999 V2000
  189.9200  176.8070  141.7730 C   0  0  1  0  0  3  0  0  0  0  0  0
  191.0530  177.8860  139.9160 O   0  0  0  0  0  0  0  0  0  0  0  0
  188.7240  177.5200  141.1600 C   0  0  2  0  0  3  0  0  0  0  0  0
  191.1740  176.8900  140.9100 C   0  0  1  0  0  3  0  0  0  0  0  0
  187.5570  177.0900  141.8060 O   0  0  0  0  0  0  0  0  0  0  0  0
  192.2760  177.2450  141.8840 C   0  0  0  0  0  2  0  0  0  0  0  0
  190.0400  177.5060  138.9940 C   0  0  2  0  0  3  0  0  0  0  0  0
  189.4430  176.6730  144.0510 C   0  0  0  0  0  2  0  0  0  0  0  0
  191.6330  177.1380  143.2530 C   0  0  0  0  0  2  0  0  0  0  0  0
  190.2190  177.4090  143.0600 N   0  0  1  0  0  0  0  0  0  0  0  0
  188.6620  177.2650  139.6570 C   0  0  2  0  0  3  0  0  0  0  0  0
  187.4430  177.9150  142.9370 C   0  0  2  0  0  3  0  0  0  0  0  0
  188.0230  177.2540  144.2050 C   0  0  0  0  0  2  0  0  0  0  0  0
  185.2300  178.6390  142.0330 C   0  0  0  0  0  3  0  0  0  0  0  0
  186.0200  178.3190  143.1440 C   0  0  0  0  0  0  0  0  0  0  0  0
  185.4600  178.3600  144.4290 C   0  0  0  0  0  3  0  0  0  0  0  0
  183.5860  178.7710  145.8450 F   0  0  0  0  0  0  0  0  0  0  0  0
  183.3370  179.0500  143.4890 C   0  0  0  0  0  3  0  0  0  0  0  0
  184.1220  178.7300  144.6010 C   0  0  0  0  0  0  0  0  0  0  0  0
  183.8910  179.0040  142.2060 C   0  0  0  0  0  3  0  0  0  0  0  0
  191.8520  176.5820  137.5690 C   0  0  2  0  0  3  0  0  0  0  0  0
  190.4660  176.3200  138.1320 C   0  0  2  0  0  3  0  0  0  0  0  0
  190.6300  176.7580  136.6900 C   0  0  0  0  0  2  0  0  0  0  0  0
  192.4630  175.3620  137.2800 O   0  0  0  0  0  0  0  0  0  0  0  0
  193.8320  175.6290  137.3480 C   0  0  0  0  0  1  0  0  0  0  0  0
  188.0110  178.8020  137.6150 O   0  0  0  0  0  0  0  0  0  0  0  0
  187.3920  178.3280  138.9240 S   0  0  1  0  0  0  0  0  0  0  0  0
  186.0620  177.2060  138.4220 C   0  0  2  0  0  3  0  0  0  0  0  0
  187.2330  175.8080  136.7950 O   0  0  0  0  0  0  0  0  0  0  0  0
  186.2230  176.7810  136.9650 C   0  0  1  0  0  0  0  0  0  0  0  0
  185.9070  175.4000  136.5400 C   0  0  2  0  0  0  0  0  0  0  0  0
  186.2840  177.7620  135.9720 O   0  0  0  0  0  1  0  0  0  0  0  0
  185.4460  174.5130  137.5150 O   0  0  0  0  0  1  0  0  0  0  0  0
  186.0630  173.9030  134.5940 C   0  0  0  0  0  2  0  0  0  0  0  0
  185.6730  175.0710  135.0990 C   0  0  0  0  0  3  0  0  0  0  0  0
  184.8690  179.2610  138.6850 O   0  0  0  0  0  1  0  0  0  0  0  0
  184.7110  177.8760  138.6090 C   0  0  0  0  0  2  0  0  0  0  0  0
  1 10  1  0  0  0  0
  2  4  1  0  0  0  0
  3  1  1  0  0  0  0
  3  5  1  0  0  0  0
  4  1  1  0  0  0  0
  4  6  1  0  0  0  0
  5 12  1  0  0  0  0
  6  9  1  0  0  0  0
  7 11  1  0  0  0  0
  7  2  1  0  0  0  0
  8 13  1  0  0  0  0
 10  9  1  0  0  0  0
 10  8  1  0  0  0  0
 11  3  1  0  0  0  0
 12 15  1  0  0  0  0
 12 13  1  0  0  0  0
 14 20  2  0  0  0  0
 14 15  1  0  0  0  0
 15 16  2  0  0  0  0
 16 19  1  0  0  0  0
 18 19  2  0  0  0  0
 19 17  1  0  0  0  0
 20 18  1  0  0  0  0
 21 22  1  0  0  0  0
 22  7  1  0  0  0  0
 23 21  1  0  0  0  0
 23 22  1  0  0  0  0
 24 25  1  0  0  0  0
 24 21  1  0  0  0  0
 26 27  2  0  0  0  0
 27 11  1  0  0  0  0
 28 37  1  0  0  0  0
 28 27  1  0  0  0  0
 29 30  1  0  0  0  0
 30 28  1  0  0  0  0
 31 29  1  0  0  0  0
 31 30  1  0  0  0  0
 31 33  1  0  0  0  0
 32 30  1  0  0  0  0
 34 35  2  0  0  0  0
 35 31  1  0  0  0  0
 37 36  1  0  0  0  0
M  END
>  <MODEL>
6

>  <REMARK>
 VINA RESULT:      -6.1      2.801      6.375
  Name = 
  8 active torsions:
  status: ('A' for Active; 'I' for Inactive)
    1  A    between atoms: O_3  and  C_21
    2  A    between atoms: C_6  and  C_31
    3  A    between atoms: C_11  and  C_33
    4  A    between atoms: C_17  and  C_23
    5  A    between atoms: C_20  and  C_25
    6  A    between atoms: C_27  and  C_33
    7  A    between atoms: C_29  and  S_36
    8  A    between atoms: C_33  and  S_36
                            x       y       z     vdW  Elec       q    Type
                         _______ _______ _______ _____ _____    ______ ____

>  <TORSDO>
F 8

$$$$
=
 OpenBabel11052415193D

 37 42  0  0  1  0  0  0  0  0999 V2000
  186.4640  177.8790  139.4910 C   0  0  1  0  0  3  0  0  0  0  0  0
  185.9950  179.4850  141.2510 O   0  0  0  0  0  0  0  0  0  0  0  0
  187.8380  177.9110  140.1440 C   0  0  2  0  0  3  0  0  0  0  0  0
  185.4070  178.6390  140.2840 C   0  0  1  0  0  3  0  0  0  0  0  0
  188.6370  176.9100  139.5740 O   0  0  0  0  0  0  0  0  0  0  0  0
  184.6730  179.4560  139.2430 C   0  0  0  0  0  2  0  0  0  0  0  0
  186.6410  178.6910  142.2370 C   0  0  2  0  0  3  0  0  0  0  0  0
  186.8700  177.3970  137.2470 C   0  0  0  0  0  2  0  0  0  0  0  0
  185.2090  178.9590  137.9140 C   0  0  0  0  0  2  0  0  0  0  0  0
  186.5550  178.4790  138.1720 N   0  0  1  0  0  0  0  0  0  0  0  0
  187.7170  177.7430  141.6550 C   0  0  2  0  0  3  0  0  0  0  0  0
  189.1910  177.4970  138.4250 C   0  0  2  0  0  3  0  0  0  0  0  0
  188.3910  177.1590  137.1500 C   0  0  0  0  0  2  0  0  0  0  0  0
  191.0640  176.5450  137.0740 C   0  0  0  0  0  3  0  0  0  0  0  0
  190.6250  177.1030  138.2800 C   0  0  0  0  0  0  0  0  0  0  0  0
  191.5370  177.3030  139.3260 C   0  0  0  0  0  3  0  0  0  0  0  0
  193.7570  177.1310  140.1810 F   0  0  0  0  0  0  0  0  0  0  0  0
  193.3130  176.3790  137.9620 C   0  0  0  0  0  3  0  0  0  0  0  0
  192.8780  176.9370  139.1680 C   0  0  0  0  0  0  0  0  0  0  0  0
  192.4060  176.1840  136.9150 C   0  0  0  0  0  3  0  0  0  0  0  0
  184.9380  178.9250  144.0290 C   0  0  2  0  0  3  0  0  0  0  0  0
  185.6410  177.9390  143.1130 C   0  0  2  0  0  3  0  0  0  0  0  0
  186.0450  178.0440  144.5700 C   0  0  0  0  0  2  0  0  0  0  0  0
  183.7000  178.3980  144.3980 O   0  0  0  0  0  0  0  0  0  0  0  0
  182.7770  179.3820  144.0390 C   0  0  0  0  0  1  0  0  0  0  0  0
  189.1720  179.3890  143.1150 O   0  0  0  0  0  0  0  0  0  0  0  0
  189.3320  178.0430  142.4200 S   0  0  1  0  0  0  0  0  0  0  0  0
  189.4510  176.8410  143.7700 C   0  0  2  0  0  3  0  0  0  0  0  0
  189.9650  178.2940  145.6660 O   0  0  0  0  0  0  0  0  0  0  0  0
  190.4710  177.2890  144.8130 C   0  0  1  0  0  0  0  0  0  0  0  0
  190.2380  177.0410  146.2530 C   0  0  2  0  0  0  0  0  0  0  0  0
  191.7800  177.5690  144.4120 O   0  0  0  0  0  1  0  0  0  0  0  0
  189.0650  176.3750  146.6140 O   0  0  0  0  0  1  0  0  0  0  0  0
  192.0160  175.9950  147.5940 C   0  0  0  0  0  2  0  0  0  0  0  0
  191.3650  177.1000  147.2370 C   0  0  0  0  0  3  0  0  0  0  0  0
  190.5550  175.6260  142.0320 O   0  0  0  0  0  1  0  0  0  0  0  0
  189.8460  175.4780  143.2250 C   0  0  0  0  0  2  0  0  0  0  0  0
  1  3  1  0  0  0  0
  1  4  1  0  0  0  0
  2  7  1  0  0  0  0
  3 11  1  0  0  0  0
  4  2  1  0  0  0  0
  5  3  1  0  0  0  0
  6  4  1  0  0  0  0
  7 22  1  0  0  0  0
  8 10  1  0  0  0  0
  9 10  1  0  0  0  0
  9  6  1  0  0  0  0
 10  1  1  0  0  0  0
 11  7  1  0  0  0  0
 11 27  1  0  0  0  0
 12  5  1  0  0  0  0
 13  8  1  0  0  0  0
 13 12  1  0  0  0  0
 14 15  1  0  0  0  0
 15 12  1  0  0  0  0
 15 16  2  0  0  0  0
 18 19  2  0  0  0  0
 19 16  1  0  0  0  0
 19 17  1  0  0  0  0
 20 14  2  0  0  0  0
 20 18  1  0  0  0  0
 21 24  1  0  0  0  0
 21 23  1  0  0  0  0
 22 21  1  0  0  0  0
 22 23  1  0  0  0  0
 25 24  1  0  0  0  0
 27 26  2  0  0  0  0
 27 28  1  0  0  0  0
 28 30  1  0  0  0  0
 29 31  1  0  0  0  0
 30 29  1  0  0  0  0
 30 31  1  0  0  0  0
 31 33  1  0  0  0  0
 31 35  1  0  0  0  0
 32 30  1  0  0  0  0
 35 34  2  0  0  0  0
 36 37  1  0  0  0  0
 37 28  1  0  0  0  0
M  END
>  <MODEL>
7

>  <REMARK>
 VINA RESULT:      -6.0      2.156      6.194
  Name = 
  8 active torsions:
  status: ('A' for Active; 'I' for Inactive)
    1  A    between atoms: O_3  and  C_21
    2  A    between atoms: C_6  and  C_31
    3  A    between atoms: C_11  and  C_33
    4  A    between atoms: C_17  and  C_23
    5  A    between atoms: C_20  and  C_25
    6  A    between atoms: C_27  and  C_33
    7  A    between atoms: C_29  and  S_36
    8  A    between atoms: C_33  and  S_36
                            x       y       z     vdW  Elec       q    Type
                         _______ _______ _______ _____ _____    ______ ____

>  <TORSDO>
F 8

$$$$
=
 OpenBabel11052415193D

 37 42  0  0  1  0  0  0  0  0999 V2000
  187.1480  178.6050  139.6830 C   0  0  1  0  0  3  0  0  0  0  0  0
  188.7040  176.7710  140.0170 O   0  0  0  0  0  0  0  0  0  0  0  0
  186.6180  178.0950  141.0150 C   0  0  2  0  0  3  0  0  0  0  0  0
  188.4550  177.9410  139.2650 C   0  0  1  0  0  3  0  0  0  0  0  0
  185.6530  178.9920  141.4950 O   0  0  0  0  0  0  0  0  0  0  0  0
  188.2500  177.5980  137.8050 C   0  0  0  0  0  2  0  0  0  0  0  0
  188.9320  177.1270  141.3740 C   0  0  2  0  0  3  0  0  0  0  0  0
  185.2930  179.5140  138.6020 C   0  0  0  0  0  2  0  0  0  0  0  0
  186.9410  178.2660  137.4300 C   0  0  0  0  0  2  0  0  0  0  0  0
  186.1600  178.3420  138.6520 N   0  0  1  0  0  0  0  0  0  0  0  0
  187.7600  177.9110  142.0110 C   0  0  2  0  0  3  0  0  0  0  0  0
  184.4510  178.5920  140.8870 C   0  0  2  0  0  3  0  0  0  0  0  0
  184.1370  179.4080  139.6170 C   0  0  0  0  0  2  0  0  0  0  0  0
  182.0080  178.5670  141.4040 C   0  0  0  0  0  3  0  0  0  0  0  0
  183.3250  178.6650  141.8660 C   0  0  0  0  0  0  0  0  0  0  0  0
  183.5710  178.8070  143.2400 C   0  0  0  0  0  3  0  0  0  0  0  0
  182.7440  179.0030  145.4680 F   0  0  0  0  0  0  0  0  0  0  0  0
  181.1880  178.7670  143.6760 C   0  0  0  0  0  3  0  0  0  0  0  0
  182.5030  178.8630  144.1420 C   0  0  0  0  0  0  0  0  0  0  0  0
  180.9410  178.6180  142.3070 C   0  0  0  0  0  3  0  0  0  0  0  0
  191.3740  177.0290  140.9320 C   0  0  2  0  0  3  0  0  0  0  0  0
  190.2630  177.8520  141.5600 C   0  0  2  0  0  3  0  0  0  0  0  0
  191.1860  177.0280  142.4350 C   0  0  0  0  0  2  0  0  0  0  0  0
  192.4300  177.8750  140.5950 O   0  0  0  0  0  0  0  0  0  0  0  0
  193.1930  177.1410  139.6840 C   0  0  0  0  0  1  0  0  0  0  0  0
  187.9970  175.8140  143.5930 O   0  0  0  0  0  0  0  0  0  0  0  0
  187.1350  177.0660  143.4860 S   0  0  1  0  0  0  0  0  0  0  0  0
  187.6500  178.0990  144.8810 C   0  0  2  0  0  3  0  0  0  0  0  0
  189.5010  176.5320  145.1860 O   0  0  0  0  0  0  0  0  0  0  0  0
  188.5290  177.3120  145.8500 C   0  0  1  0  0  0  0  0  0  0  0  0
  189.9740  177.6050  145.9700 C   0  0  2  0  0  0  0  0  0  0  0  0
  187.9280  176.6020  146.8930 O   0  0  0  0  0  1  0  0  0  0  0  0
  190.4930  178.6310  145.1780 O   0  0  0  0  0  1  0  0  0  0  0  0
  191.7360  176.2540  147.0290 C   0  0  0  0  0  2  0  0  0  0  0  0
  190.7580  177.1470  147.1600 C   0  0  0  0  0  3  0  0  0  0  0  0
  186.7890  179.0340  146.9060 O   0  0  0  0  0  1  0  0  0  0  0  0
  186.4320  178.6310  145.6180 C   0  0  0  0  0  2  0  0  0  0  0  0
  1  3  1  0  0  0  0
  2  7  1  0  0  0  0
  3  5  1  0  0  0  0
  3 11  1  0  0  0  0
  4  1  1  0  0  0  0
  4  2  1  0  0  0  0
  6  4  1  0  0  0  0
  7 22  1  0  0  0  0
  7 11  1  0  0  0  0
  8 10  1  0  0  0  0
  8 13  1  0  0  0  0
  9  6  1  0  0  0  0
  9 10  1  0  0  0  0
 10  1  1  0  0  0  0
 11 27  1  0  0  0  0
 12  5  1  0  0  0  0
 12 15  1  0  0  0  0
 13 12  1  0  0  0  0
 14 15  2  0  0  0  0
 14 20  1  0  0  0  0
 15 16  1  0  0  0  0
 16 19  2  0  0  0  0
 18 19  1  0  0  0  0
 19 17  1  0  0  0  0
 20 18  2  0  0  0  0
 21 22  1  0  0  0  0
 21 23  1  0  0  0  0
 22 23  1  0  0  0  0
 24 21  1  0  0  0  0
 25 24  1  0  0  0  0
 27 26  2  0  0  0  0
 27 28  1  0  0  0  0
 28 37  1  0  0  0  0
 28 30  1  0  0  0  0
 29 30  1  0  0  0  0
 29 31  1  0  0  0  0
 30 31  1  0  0  0  0
 30 32  1  0  0  0  0
 31 35  1  0  0  0  0
 33 31  1  0  0  0  0
 34 35  2  0  0  0  0
 37 36  1  0  0  0  0
M  END
>  <MODEL>
8

>  <REMARK>
 VINA RESULT:      -5.7      1.927      2.770
  Name = 
  8 active torsions:
  status: ('A' for Active; 'I' for Inactive)
    1  A    between atoms: O_3  and  C_21
    2  A    between atoms: C_6  and  C_31
    3  A    between atoms: C_11  and  C_33
    4  A    between atoms: C_17  and  C_23
    5  A    between atoms: C_20  and  C_25
    6  A    between atoms: C_27  and  C_33
    7  A    between atoms: C_29  and  S_36
    8  A    between atoms: C_33  and  S_36
                            x       y       z     vdW  Elec       q    Type
                         _______ _______ _______ _____ _____    ______ ____

>  <TORSDO>
F 8

$$$$
=
 OpenBabel11052415193D

 37 42  0  0  1  0  0  0  0  0999 V2000
  181.7140  178.9440  142.4880 C   0  0  1  0  0  3  0  0  0  0  0  0
  180.3580  177.5360  141.0470 O   0  0  0  0  0  0  0  0  0  0  0  0
  182.8320  178.2890  141.6910 C   0  0  2  0  0  3  0  0  0  0  0  0
  180.3260  178.6280  141.9430 C   0  0  1  0  0  3  0  0  0  0  0  0
  184.0460  178.9130  142.0120 O   0  0  0  0  0  0  0  0  0  0  0  0
  179.5110  178.2810  143.1710 C   0  0  0  0  0  2  0  0  0  0  0  0
  181.0930  177.9050  139.8870 C   0  0  2  0  0  3  0  0  0  0  0  0
  182.6460  179.4010  144.5760 C   0  0  0  0  0  2  0  0  0  0  0  0
  180.4140  178.6200  144.3420 C   0  0  0  0  0  2  0  0  0  0  0  0
  181.7760  178.4740  143.8610 N   0  0  1  0  0  0  0  0  0  0  0  0
  182.5380  178.3650  140.1950 C   0  0  2  0  0  3  0  0  0  0  0  0
  184.5030  178.2470  143.1610 C   0  0  2  0  0  3  0  0  0  0  0  0
  184.1280  178.9930  144.4590 C   0  0  0  0  0  2  0  0  0  0  0  0
  186.6370  177.4010  144.1450 C   0  0  0  0  0  3  0  0  0  0  0  0
  185.9770  178.0210  143.0780 C   0  0  0  0  0  0  0  0  0  0  0  0
  186.7030  178.4010  141.9390 C   0  0  0  0  0  3  0  0  0  0  0  0
  188.7790  178.5410  140.7750 F   0  0  0  0  0  0  0  0  0  0  0  0
  188.7370  177.5520  142.9450 C   0  0  0  0  0  3  0  0  0  0  0  0
  188.0810  178.1700  141.8760 C   0  0  0  0  0  0  0  0  0  0  0  0
  188.0140  177.1660  144.0780 C   0  0  0  0  0  3  0  0  0  0  0  0
  180.0380  178.3200  137.6780 C   0  0  2  0  0  3  0  0  0  0  0  0
  180.3450  178.9270  139.0350 C   0  0  2  0  0  3  0  0  0  0  0  0
  181.1780  179.3060  137.8270 C   0  0  0  0  0  2  0  0  0  0  0  0
  178.9310  178.9660  137.1310 O   0  0  0  0  0  0  0  0  0  0  0  0
  179.2010  179.0320  135.7630 C   0  0  0  0  0  1  0  0  0  0  0  0
  182.9070  176.5410  138.3260 O   0  0  0  0  0  0  0  0  0  0  0  0
  183.7480  177.3580  139.2980 S   0  0  1  0  0  0  0  0  0  0  0  0
  184.6560  178.5240  138.2520 C   0  0  2  0  0  3  0  0  0  0  0  0
  185.8150  176.4870  137.5590 O   0  0  0  0  0  0  0  0  0  0  0  0
  185.9290  177.8880  137.7000 C   0  0  1  0  0  0  0  0  0  0  0  0
  185.9350  177.2390  136.3710 C   0  0  2  0  0  0  0  0  0  0  0  0
  187.1640  178.2500  138.2450 O   0  0  0  0  0  1  0  0  0  0  0  0
  184.7440  177.2440  135.6430 O   0  0  0  0  0  1  0  0  0  0  0  0
  187.3350  175.9320  134.8260 C   0  0  0  0  0  2  0  0  0  0  0  0
  187.2190  176.9730  135.6480 C   0  0  0  0  0  3  0  0  0  0  0  0
  184.1340  180.8080  138.7280 O   0  0  0  0  0  1  0  0  0  0  0  0
  185.0140  179.7720  139.0430 C   0  0  0  0  0  2  0  0  0  0  0  0
  1 10  1  0  0  0  0
  2  4  1  0  0  0  0
  3  5  1  0  0  0  0
  3  1  1  0  0  0  0
  4  1  1  0  0  0  0
  4  6  1  0  0  0  0
  5 12  1  0  0  0  0
  6  9  1  0  0  0  0
  7 11  1  0  0  0  0
  7  2  1  0  0  0  0
 10  9  1  0  0  0  0
 10  8  1  0  0  0  0
 11  3  1  0  0  0  0
 12 13  1  0  0  0  0
 13  8  1  0  0  0  0
 15 12  1  0  0  0  0
 15 14  2  0  0  0  0
 16 15  1  0  0  0  0
 17 19  1  0  0  0  0
 18 20  2  0  0  0  0
 19 16  2  0  0  0  0
 19 18  1  0  0  0  0
 20 14  1  0  0  0  0
 21 23  1  0  0  0  0
 21 22  1  0  0  0  0
 22  7  1  0  0  0  0
 23 22  1  0  0  0  0
 24 21  1  0  0  0  0
 25 24  1  0  0  0  0
 26 27  2  0  0  0  0
 27 11  1  0  0  0  0
 28 37  1  0  0  0  0
 28 27  1  0  0  0  0
 29 30  1  0  0  0  0
 30 32  1  0  0  0  0
 30 28  1  0  0  0  0
 31 29  1  0  0  0  0
 31 30  1  0  0  0  0
 33 31  1  0  0  0  0
 34 35  2  0  0  0  0
 35 31  1  0  0  0  0
 36 37  1  0  0  0  0
M  END
>  <MODEL>
9

>  <REMARK>
 VINA RESULT:      -5.7      4.363      8.602
  Name = 
  8 active torsions:
  status: ('A' for Active; 'I' for Inactive)
    1  A    between atoms: O_3  and  C_21
    2  A    between atoms: C_6  and  C_31
    3  A    between atoms: C_11  and  C_33
    4  A    between atoms: C_17  and  C_23
    5  A    between atoms: C_20  and  C_25
    6  A    between atoms: C_27  and  C_33
    7  A    between atoms: C_29  and  S_36
    8  A    between atoms: C_33  and  S_36
                            x       y       z     vdW  Elec       q    Type
                         _______ _______ _______ _____ _____    ______ ____

>  <TORSDO>
F 8

$$$$
