=
 OpenBabel11052415423D

 34 39  0  0  1  0  0  0  0  0999 V2000
  189.4350  177.9090  142.9410 N   0  0  0  0  0  0  0  0  0  0  0  0
  185.6740  177.6310  143.6170 C   0  0  0  0  0  3  0  0  0  0  0  0
  184.1980  179.0850  140.4950 C   0  0  0  0  0  0  0  0  0  0  0  0
  187.6730  177.5330  145.0880 C   0  0  0  0  0  3  0  0  0  0  0  0
  191.1230  176.8320  144.3930 C   0  0  0  0  0  2  0  0  0  0  0  0
  190.5830  176.3830  146.7990 C   0  0  0  0  0  2  0  0  0  0  0  0
  184.5150  179.8020  139.3470 O   0  0  0  0  0  0  0  0  0  0  0  0
  191.6840  176.7730  145.8130 C   0  0  0  0  0  2  0  0  0  0  0  0
  188.9730  177.5860  145.3600 C   0  0  0  0  0  0  0  0  0  0  0  0
  190.0020  177.8720  144.2980 C   0  0  2  0  0  3  0  0  0  0  0  0
  189.4430  177.4000  146.7670 C   0  0  0  0  0  2  0  0  0  0  0  0
  184.8500  178.0490  142.6450 C   0  0  0  0  0  3  0  0  0  0  0  0
  183.0010  178.7450  140.6960 O   0  0  0  0  0  1  0  0  0  0  0  0
  185.2220  178.7370  141.4390 N   0  0  0  0  0  0  0  0  0  0  0  0
  186.5870  179.1560  141.1630 C   0  0  0  0  0  2  0  0  0  0  0  0
  187.1500  177.7080  143.7280 C   0  0  0  0  0  0  0  0  0  0  0  0
  187.5100  177.9690  141.2890 C   0  0  0  0  0  2  0  0  0  0  0  0
  188.0070  177.8690  142.6970 C   0  0  0  0  0  0  0  0  0  0  0  0
  190.3570  178.2230  141.8510 C   0  0  0  0  0  2  0  0  0  0  0  0
  189.8900  175.4510  138.1020 C   0  0  0  0  0  3  0  0  0  0  0  0
  190.3720  178.2200  138.9650 C   0  0  0  0  0  2  0  0  0  0  0  0
  186.9960  177.2380  136.4640 C   0  0  0  0  0  0  0  0  0  0  0  0
  190.8900  176.9390  141.2280 C   0  0  2  0  0  3  0  0  0  0  0  0
  187.8860  176.2310  136.8640 C   0  0  0  0  0  3  0  0  0  0  0  0
  188.9730  176.5300  137.6900 C   0  0  0  0  0  0  0  0  0  0  0  0
  192.1870  177.2280  140.4790 C   0  0  0  0  0  2  0  0  0  0  0  0
  188.3000  178.8630  137.7200 C   0  0  0  0  0  3  0  0  0  0  0  0
  189.1770  177.8570  138.1290 C   0  0  0  0  0  0  0  0  0  0  0  0
  187.2130  178.5550  136.8970 C   0  0  0  0  0  3  0  0  0  0  0  0
  190.9150  176.9920  139.7050 C   0  0  2  0  0  0  0  0  0  0  0  0
  190.8260  175.6590  139.0310 C   0  0  0  0  0  3  0  0  0  0  0  0
  185.8780  176.9140  135.6220 N   0  0  0  0  0  0  0  0  0  0  0  0
  185.0850  175.7140  135.8410 C   0  0  0  0  0  1  0  0  0  0  0  0
  185.5440  177.7280  134.5940 O   0  0  0  0  0  1  0  0  0  0  0  0
  1 10  1  0  0  0  0
  2 16  1  0  0  0  0
  3 13  1  0  0  0  0
  3 14  1  0  0  0  0
  4  9  2  0  0  0  0
  5  8  1  0  0  0  0
  7  3  2  0  0  0  0
  8  6  1  0  0  0  0
  9 11  1  0  0  0  0
 10  5  1  6  0  0  0
 10  9  1  0  0  0  0
 11  6  1  0  0  0  0
 12  2  2  0  0  0  0
 14 12  1  0  0  0  0
 15 17  1  0  0  0  0
 15 14  1  0  0  0  0
 16  4  1  0  0  0  0
 17 18  1  0  0  0  0
 18  1  1  0  0  0  0
 18 16  2  0  0  0  0
 19  1  1  0  0  0  0
 20 31  2  0  0  0  0
 22 24  2  0  0  0  0
 22 29  1  0  0  0  0
 23 19  1  1  0  0  0
 24 25  1  0  0  0  0
 25 20  1  0  0  0  0
 25 28  2  0  0  0  0
 26 23  1  0  0  0  0
 27 28  1  0  0  0  0
 28 21  1  0  0  0  0
 29 27  2  0  0  0  0
 30 21  1  6  0  0  0
 30 26  1  0  0  0  0
 30 23  1  0  0  0  0
 31 30  1  0  0  0  0
 32 33  1  0  0  0  0
 32 22  1  0  0  0  0
 34 32  1  0  0  0  0
M  END
>  <MODEL>
1

>  <REMARK>
 VINA RESULT:      -8.7      0.000      0.000
  Name = 
  3 active torsions:
  status: ('A' for Active; 'I' for Inactive)
    1  A    between atoms: N_1  and  C_9
    2  A    between atoms: C_7  and  N_11
    3  A    between atoms: C_8  and  C_9
                            x       y       z     vdW  Elec       q    Type
                         _______ _______ _______ _____ _____    ______ ____

>  <TORSDO>
F 3

$$$$
=
 OpenBabel11052415423D

 34 39  0  0  1  0  0  0  0  0999 V2000
  189.7440  176.5110  144.0890 N   0  0  0  0  0  0  0  0  0  0  0  0
  186.6030  177.8700  145.8130 C   0  0  0  0  0  3  0  0  0  0  0  0
  184.4490  178.8220  142.8990 C   0  0  0  0  0  0  0  0  0  0  0  0
  188.9220  177.4490  146.5990 C   0  0  0  0  0  3  0  0  0  0  0  0
  191.5320  175.3390  145.3320 C   0  0  0  0  0  2  0  0  0  0  0  0
  191.8750  175.8280  147.7660 C   0  0  0  0  0  2  0  0  0  0  0  0
  184.4650  179.0100  141.5220 O   0  0  0  0  0  0  0  0  0  0  0  0
  192.5670  175.4780  146.4480 C   0  0  0  0  0  2  0  0  0  0  0  0
  190.1930  177.0860  146.4640 C   0  0  0  0  0  0  0  0  0  0  0  0
  190.7640  176.6510  145.1400 C   0  0  2  0  0  3  0  0  0  0  0  0
  191.1090  177.1440  147.6430 C   0  0  0  0  0  2  0  0  0  0  0  0
  185.6000  178.2720  145.0180 C   0  0  0  0  0  3  0  0  0  0  0  0
  183.3800  179.0280  143.5350 O   0  0  0  0  0  1  0  0  0  0  0  0
  185.6350  178.3980  143.5870 N   0  0  0  0  0  0  0  0  0  0  0  0
  186.8440  178.1770  142.8080 C   0  0  0  0  0  2  0  0  0  0  0  0
  187.9730  177.4150  145.4790 C   0  0  0  0  0  0  0  0  0  0  0  0
  187.4110  176.8190  143.1390 C   0  0  0  0  0  2  0  0  0  0  0  0
  188.3740  176.9430  144.2780 C   0  0  0  0  0  0  0  0  0  0  0  0
  190.2170  176.1340  142.7590 C   0  0  0  0  0  2  0  0  0  0  0  0
  193.2120  177.0330  139.2690 C   0  0  0  0  0  3  0  0  0  0  0  0
  190.3960  177.2240  140.0930 C   0  0  0  0  0  2  0  0  0  0  0  0
  191.5250  175.0020  136.5700 C   0  0  0  0  0  0  0  0  0  0  0  0
  191.5370  176.8300  142.4530 C   0  0  2  0  0  3  0  0  0  0  0  0
  192.5070  175.6540  137.3300 C   0  0  0  0  0  3  0  0  0  0  0  0
  192.1600  176.3620  138.4840 C   0  0  0  0  0  0  0  0  0  0  0  0
  191.2960  178.3190  142.2280 C   0  0  0  0  0  2  0  0  0  0  0  0
  189.8290  175.7820  138.1290 C   0  0  0  0  0  3  0  0  0  0  0  0
  190.8090  176.4190  138.8920 C   0  0  0  0  0  0  0  0  0  0  0  0
  190.1840  175.0730  136.9780 C   0  0  0  0  0  3  0  0  0  0  0  0
  191.5770  177.4220  141.0500 C   0  0  2  0  0  0  0  0  0  0  0  0
  192.9490  177.5590  140.4670 C   0  0  0  0  0  3  0  0  0  0  0  0
  191.8990  174.2710  135.3910 N   0  0  0  0  0  0  0  0  0  0  0  0
  193.2490  174.3390  134.8530 C   0  0  0  0  0  1  0  0  0  0  0  0
  190.9880  173.5020  134.7510 O   0  0  0  0  0  1  0  0  0  0  0  0
  1 18  1  0  0  0  0
  1 10  1  0  0  0  0
  3 13  1  0  0  0  0
  3 14  1  0  0  0  0
  5  8  1  0  0  0  0
  7  3  2  0  0  0  0
  8  6  1  0  0  0  0
  9  4  2  0  0  0  0
  9 11  1  0  0  0  0
 10  5  1  1  0  0  0
 10  9  1  0  0  0  0
 11  6  1  0  0  0  0
 12  2  2  0  0  0  0
 14 12  1  0  0  0  0
 15 17  1  0  0  0  0
 15 14  1  0  0  0  0
 16  2  1  0  0  0  0
 16  4  1  0  0  0  0
 17 18  1  0  0  0  0
 18 16  2  0  0  0  0
 19  1  1  0  0  0  0
 20 31  2  0  0  0  0
 22 29  2  0  0  0  0
 22 24  1  0  0  0  0
 23 19  1  6  0  0  0
 24 25  2  0  0  0  0
 25 28  1  0  0  0  0
 25 20  1  0  0  0  0
 26 23  1  0  0  0  0
 27 28  2  0  0  0  0
 28 21  1  0  0  0  0
 29 27  1  0  0  0  0
 30 21  1  6  0  0  0
 30 26  1  0  0  0  0
 30 23  1  0  0  0  0
 31 30  1  0  0  0  0
 32 22  1  0  0  0  0
 33 32  1  0  0  0  0
 34 32  1  0  0  0  0
M  END
>  <MODEL>
2

>  <REMARK>
 VINA RESULT:      -8.6      2.538      3.328
  Name = 
  3 active torsions:
  status: ('A' for Active; 'I' for Inactive)
    1  A    between atoms: N_1  and  C_9
    2  A    between atoms: C_7  and  N_11
    3  A    between atoms: C_8  and  C_9
                            x       y       z     vdW  Elec       q    Type
                         _______ _______ _______ _____ _____    ______ ____

>  <TORSDO>
F 3

$$$$
=
 OpenBabel11052415423D

 34 39  0  0  1  0  0  0  0  0999 V2000
  185.8990  178.5750  142.3820 N   0  0  0  0  0  0  0  0  0  0  0  0
  189.5740  177.5110  142.5840 C   0  0  0  0  0  3  0  0  0  0  0  0
  190.4850  177.1170  138.9720 C   0  0  0  0  0  0  0  0  0  0  0  0
  187.7240  177.5430  144.2420 C   0  0  0  0  0  3  0  0  0  0  0  0
  184.6450  179.3820  144.3560 C   0  0  0  0  0  2  0  0  0  0  0  0
  185.3330  178.6410  146.6490 C   0  0  0  0  0  2  0  0  0  0  0  0
  189.9450  177.0480  137.6920 O   0  0  0  0  0  0  0  0  0  0  0  0
  184.1500  179.0070  145.7520 C   0  0  0  0  0  2  0  0  0  0  0  0
  186.4750  177.7410  144.6500 C   0  0  0  0  0  0  0  0  0  0  0  0
  185.3910  178.2080  143.7130 C   0  0  2  0  0  3  0  0  0  0  0  0
  186.1060  177.4570  146.0700 C   0  0  0  0  0  2  0  0  0  0  0  0
  190.2150  177.3190  141.4220 C   0  0  0  0  0  3  0  0  0  0  0  0
  191.7310  177.0030  139.1200 O   0  0  0  0  0  1  0  0  0  0  0  0
  189.6320  177.3150  140.1080 N   0  0  0  0  0  0  0  0  0  0  0  0
  188.1990  177.4360  139.8850 C   0  0  0  0  0  2  0  0  0  0  0  0
  188.1470  177.8030  142.8610 C   0  0  0  0  0  0  0  0  0  0  0  0
  187.6860  178.6710  140.5850 C   0  0  0  0  0  2  0  0  0  0  0  0
  187.2660  178.3190  141.9770 C   0  0  0  0  0  0  0  0  0  0  0  0
  184.9080  179.0000  141.3950 C   0  0  0  0  0  2  0  0  0  0  0  0
  180.3470  179.1370  140.3310 C   0  0  0  0  0  3  0  0  0  0  0  0
  183.0560  179.1860  139.1890 C   0  0  0  0  0  2  0  0  0  0  0  0
  180.3120  182.4480  138.5190 C   0  0  0  0  0  0  0  0  0  0  0  0
  183.5970  178.2550  141.6120 C   0  0  2  0  0  3  0  0  0  0  0  0
  179.9100  181.3410  139.2790 C   0  0  0  0  0  3  0  0  0  0  0  0
  180.7930  180.2860  139.5220 C   0  0  0  0  0  0  0  0  0  0  0  0
  183.4870  177.1030  140.6180 C   0  0  0  0  0  2  0  0  0  0  0  0
  182.5010  181.4290  138.2300 C   0  0  0  0  0  3  0  0  0  0  0  0
  182.1040  180.3340  138.9990 C   0  0  0  0  0  0  0  0  0  0  0  0
  181.6140  182.4820  137.9950 C   0  0  0  0  0  3  0  0  0  0  0  0
  182.6630  178.3480  140.4120 C   0  0  2  0  0  0  0  0  0  0  0  0
  181.2100  178.2030  140.7360 C   0  0  0  0  0  3  0  0  0  0  0  0
  179.3950  183.5300  138.2850 N   0  0  0  0  0  0  0  0  0  0  0  0
  178.9310  184.3790  139.3710 C   0  0  0  0  0  1  0  0  0  0  0  0
  178.9400  183.7760  137.0350 O   0  0  0  0  0  1  0  0  0  0  0  0
  1 10  1  0  0  0  0
  2 16  1  0  0  0  0
  3 13  1  0  0  0  0
  3 14  1  0  0  0  0
  4  9  2  0  0  0  0
  5  8  1  0  0  0  0
  7  3  2  0  0  0  0
  8  6  1  0  0  0  0
  9 11  1  0  0  0  0
 10  5  1  1  0  0  0
 10  9  1  0  0  0  0
 11  6  1  0  0  0  0
 12  2  2  0  0  0  0
 14 12  1  0  0  0  0
 15 14  1  0  0  0  0
 15 17  1  0  0  0  0
 16  4  1  0  0  0  0
 17 18  1  0  0  0  0
 18  1  1  0  0  0  0
 18 16  2  0  0  0  0
 19  1  1  0  0  0  0
 20 31  2  0  0  0  0
 22 24  1  0  0  0  0
 23 19  1  6  0  0  0
 24 25  2  0  0  0  0
 25 20  1  0  0  0  0
 26 23  1  0  0  0  0
 27 28  2  0  0  0  0
 28 21  1  0  0  0  0
 28 25  1  0  0  0  0
 29 27  1  0  0  0  0
 29 22  2  0  0  0  0
 30 21  1  6  0  0  0
 30 26  1  0  0  0  0
 30 31  1  0  0  0  0
 30 23  1  0  0  0  0
 32 22  1  0  0  0  0
 32 33  1  0  0  0  0
 34 32  1  0  0  0  0
M  END
>  <MODEL>
3

>  <REMARK>
 VINA RESULT:      -8.3      3.696      6.965
  Name = 
  3 active torsions:
  status: ('A' for Active; 'I' for Inactive)
    1  A    between atoms: N_1  and  C_9
    2  A    between atoms: C_7  and  N_11
    3  A    between atoms: C_8  and  C_9
                            x       y       z     vdW  Elec       q    Type
                         _______ _______ _______ _____ _____    ______ ____

>  <TORSDO>
F 3

$$$$
=
 OpenBabel11052415423D

 34 39  0  0  1  0  0  0  0  0999 V2000
  187.1870  177.7080  143.5020 N   0  0  0  0  0  0  0  0  0  0  0  0
  191.0100  177.9610  143.4970 C   0  0  0  0  0  3  0  0  0  0  0  0
  191.8550  177.1280  139.9440 C   0  0  0  0  0  0  0  0  0  0  0  0
  189.3270  177.7420  145.3120 C   0  0  0  0  0  3  0  0  0  0  0  0
  185.8140  178.4630  145.4160 C   0  0  0  0  0  2  0  0  0  0  0  0
  186.8050  178.4890  147.7180 C   0  0  0  0  0  2  0  0  0  0  0  0
  191.3200  176.6180  138.7660 O   0  0  0  0  0  0  0  0  0  0  0  0
  185.5330  178.2530  146.9030 C   0  0  0  0  0  2  0  0  0  0  0  0
  188.1030  177.6060  145.8090 C   0  0  0  0  0  0  0  0  0  0  0  0
  186.8890  177.4870  144.9260 C   0  0  2  0  0  3  0  0  0  0  0  0
  187.9100  177.5250  147.2890 C   0  0  0  0  0  2  0  0  0  0  0  0
  191.6320  177.7460  142.3290 C   0  0  0  0  0  3  0  0  0  0  0  0
  193.0710  177.4580  139.9740 O   0  0  0  0  0  1  0  0  0  0  0  0
  191.0320  177.2740  141.1100 N   0  0  0  0  0  0  0  0  0  0  0  0
  189.6360  176.8750  141.0250 C   0  0  0  0  0  2  0  0  0  0  0  0
  189.5820  177.8260  143.8680 C   0  0  0  0  0  0  0  0  0  0  0  0
  188.7630  177.9950  141.5340 C   0  0  0  0  0  2  0  0  0  0  0  0
  188.5430  177.8290  143.0050 C   0  0  0  0  0  0  0  0  0  0  0  0
  186.0730  177.5690  142.5670 C   0  0  0  0  0  2  0  0  0  0  0  0
  184.0530  179.2270  138.6770 C   0  0  0  0  0  3  0  0  0  0  0  0
  183.5400  177.8150  141.2050 C   0  0  0  0  0  2  0  0  0  0  0  0
  182.5710  175.9920  137.4150 C   0  0  0  0  0  0  0  0  0  0  0  0
  185.9330  178.8320  141.7260 C   0  0  2  0  0  3  0  0  0  0  0  0
  183.1260  177.2790  137.4510 C   0  0  0  0  0  3  0  0  0  0  0  0
  183.4640  177.8760  138.6680 C   0  0  0  0  0  0  0  0  0  0  0  0
  184.8430  179.7240  142.3110 C   0  0  0  0  0  2  0  0  0  0  0  0
  182.6810  175.9000  139.8430 C   0  0  0  0  0  3  0  0  0  0  0  0
  183.2470  177.1760  139.8760 C   0  0  0  0  0  0  0  0  0  0  0  0
  182.3500  175.3090  138.6210 C   0  0  0  0  0  3  0  0  0  0  0  0
  184.5700  178.9410  141.0530 C   0  0  2  0  0  0  0  0  0  0  0  0
  184.5550  179.7530  139.7960 C   0  0  0  0  0  3  0  0  0  0  0  0
  182.2370  175.3890  136.1550 N   0  0  0  0  0  0  0  0  0  0  0  0
  181.3660  174.2260  136.0770 C   0  0  0  0  0  1  0  0  0  0  0  0
  182.7370  175.8980  135.0050 O   0  0  0  0  0  1  0  0  0  0  0  0
  1 10  1  0  0  0  0
  2 16  1  0  0  0  0
  3 13  1  0  0  0  0
  3 14  1  0  0  0  0
  4  9  2  0  0  0  0
  5  8  1  0  0  0  0
  7  3  2  0  0  0  0
  8  6  1  0  0  0  0
  9 11  1  0  0  0  0
 10  5  1  1  0  0  0
 10  9  1  0  0  0  0
 11  6  1  0  0  0  0
 12  2  2  0  0  0  0
 14 12  1  0  0  0  0
 15 14  1  0  0  0  0
 15 17  1  0  0  0  0
 16  4  1  0  0  0  0
 17 18  1  0  0  0  0
 18  1  1  0  0  0  0
 18 16  2  0  0  0  0
 19  1  1  0  0  0  0
 20 31  2  0  0  0  0
 22 24  2  0  0  0  0
 22 29  1  0  0  0  0
 23 26  1  0  0  0  0
 23 19  1  1  0  0  0
 24 25  1  0  0  0  0
 25 20  1  0  0  0  0
 25 28  2  0  0  0  0
 27 28  1  0  0  0  0
 28 21  1  0  0  0  0
 29 27  2  0  0  0  0
 30 31  1  6  0  0  0
 30 21  1  0  0  0  0
 30 23  1  0  0  0  0
 30 26  1  0  0  0  0
 32 22  1  0  0  0  0
 33 32  1  0  0  0  0
 34 32  1  0  0  0  0
M  END
>  <MODEL>
4

>  <REMARK>
 VINA RESULT:      -8.1      2.911      5.501
  Name = 
  3 active torsions:
  status: ('A' for Active; 'I' for Inactive)
    1  A    between atoms: N_1  and  C_9
    2  A    between atoms: C_7  and  N_11
    3  A    between atoms: C_8  and  C_9
                            x       y       z     vdW  Elec       q    Type
                         _______ _______ _______ _____ _____    ______ ____

>  <TORSDO>
F 3

$$$$
=
 OpenBabel11052415423D

 34 39  0  0  1  0  0  0  0  0999 V2000
  187.1990  177.5410  144.5510 N   0  0  0  0  0  0  0  0  0  0  0  0
  183.6980  179.0000  145.0920 C   0  0  0  0  0  3  0  0  0  0  0  0
  182.3800  179.2200  141.5920 C   0  0  0  0  0  0  0  0  0  0  0  0
  185.7310  178.8950  146.5170 C   0  0  0  0  0  3  0  0  0  0  0  0
  188.6090  176.7540  146.4250 C   0  0  0  0  0  2  0  0  0  0  0  0
  188.2890  177.7310  148.7110 C   0  0  0  0  0  2  0  0  0  0  0  0
  182.7580  179.1370  140.2570 O   0  0  0  0  0  0  0  0  0  0  0  0
  189.3090  177.1780  147.7160 C   0  0  0  0  0  2  0  0  0  0  0  0
  186.9960  178.5970  146.7900 C   0  0  0  0  0  0  0  0  0  0  0  0
  187.9030  177.9500  145.7760 C   0  0  2  0  0  3  0  0  0  0  0  0
  187.5670  178.9440  148.1270 C   0  0  0  0  0  2  0  0  0  0  0  0
  182.9360  179.1720  144.0020 C   0  0  0  0  0  3  0  0  0  0  0  0
  181.1790  179.4760  141.8760 O   0  0  0  0  0  1  0  0  0  0  0  0
  183.3470  179.0180  142.6330 N   0  0  0  0  0  0  0  0  0  0  0  0
  184.7220  178.7300  142.2540 C   0  0  0  0  0  2  0  0  0  0  0  0
  185.1130  178.5800  145.2230 C   0  0  0  0  0  0  0  0  0  0  0  0
  185.1980  177.5030  142.9920 C   0  0  0  0  0  2  0  0  0  0  0  0
  185.8230  177.9100  144.2890 C   0  0  0  0  0  0  0  0  0  0  0  0
  188.0120  176.9430  143.4940 C   0  0  0  0  0  2  0  0  0  0  0  0
  192.0130  177.4480  141.1070 C   0  0  0  0  0  3  0  0  0  0  0  0
  189.1690  178.1940  141.1650 C   0  0  0  0  0  2  0  0  0  0  0  0
  190.8370  176.0930  137.7850 C   0  0  0  0  0  0  0  0  0  0  0  0
  189.4710  177.3490  143.6590 C   0  0  2  0  0  3  0  0  0  0  0  0
  191.6580  176.4390  138.8680 C   0  0  0  0  0  3  0  0  0  0  0  0
  191.1290  177.1020  139.9790 C   0  0  0  0  0  0  0  0  0  0  0  0
  189.5950  178.8680  143.6010 C   0  0  0  0  0  2  0  0  0  0  0  0
  188.9390  177.0940  138.9300 C   0  0  0  0  0  3  0  0  0  0  0  0
  189.7550  177.4250  140.0130 C   0  0  0  0  0  0  0  0  0  0  0  0
  189.4750  176.4270  137.8250 C   0  0  0  0  0  3  0  0  0  0  0  0
  190.0330  178.0370  142.4220 C   0  0  2  0  0  0  0  0  0  0  0  0
  191.5150  177.9130  142.2550 C   0  0  0  0  0  3  0  0  0  0  0  0
  191.3940  175.4030  136.6550 N   0  0  0  0  0  0  0  0  0  0  0  0
  191.9370  174.0590  136.7780 C   0  0  0  0  0  1  0  0  0  0  0  0
  191.4260  176.0020  135.4420 O   0  0  0  0  0  1  0  0  0  0  0  0
  1 10  1  0  0  0  0
  2 16  1  0  0  0  0
  3 13  1  0  0  0  0
  3 14  1  0  0  0  0
  4  9  2  0  0  0  0
  5  8  1  0  0  0  0
  7  3  2  0  0  0  0
  8  6  1  0  0  0  0
  9 11  1  0  0  0  0
 10  5  1  1  0  0  0
 10  9  1  0  0  0  0
 11  6  1  0  0  0  0
 12  2  2  0  0  0  0
 14 12  1  0  0  0  0
 15 14  1  0  0  0  0
 15 17  1  0  0  0  0
 16  4  1  0  0  0  0
 17 18  1  0  0  0  0
 18  1  1  0  0  0  0
 18 16  2  0  0  0  0
 19  1  1  0  0  0  0
 20 31  2  0  0  0  0
 22 29  2  0  0  0  0
 22 24  1  0  0  0  0
 23 19  1  6  0  0  0
 24 25  2  0  0  0  0
 25 28  1  0  0  0  0
 25 20  1  0  0  0  0
 26 23  1  0  0  0  0
 27 28  2  0  0  0  0
 28 21  1  0  0  0  0
 29 27  1  0  0  0  0
 30 21  1  6  0  0  0
 30 26  1  0  0  0  0
 30 23  1  0  0  0  0
 31 30  1  0  0  0  0
 32 33  1  0  0  0  0
 32 22  1  0  0  0  0
 34 32  1  0  0  0  0
M  END
>  <MODEL>
5

>  <REMARK>
 VINA RESULT:      -8.1      2.325      3.445
  Name = 
  3 active torsions:
  status: ('A' for Active; 'I' for Inactive)
    1  A    between atoms: N_1  and  C_9
    2  A    between atoms: C_7  and  N_11
    3  A    between atoms: C_8  and  C_9
                            x       y       z     vdW  Elec       q    Type
                         _______ _______ _______ _____ _____    ______ ____

>  <TORSDO>
F 3

$$$$
=
 OpenBabel11052415423D

 34 39  0  0  1  0  0  0  0  0999 V2000
  187.1990  178.2420  139.7490 N   0  0  0  0  0  0  0  0  0  0  0  0
  190.5450  177.6700  141.5270 C   0  0  0  0  0  3  0  0  0  0  0  0
  192.8070  176.7540  138.6850 C   0  0  0  0  0  0  0  0  0  0  0  0
  188.1950  177.7770  142.3270 C   0  0  0  0  0  3  0  0  0  0  0  0
  185.2440  179.2320  140.8960 C   0  0  0  0  0  2  0  0  0  0  0  0
  185.0130  178.9940  143.3810 C   0  0  0  0  0  2  0  0  0  0  0  0
  192.8120  176.3970  137.3420 O   0  0  0  0  0  0  0  0  0  0  0  0
  184.2600  179.0540  142.0520 C   0  0  0  0  0  2  0  0  0  0  0  0
  186.8790  177.8950  142.1880 C   0  0  0  0  0  0  0  0  0  0  0  0
  186.2290  178.0590  140.8390 C   0  0  2  0  0  3  0  0  0  0  0  0
  185.9980  177.8260  143.3930 C   0  0  0  0  0  2  0  0  0  0  0  0
  191.5950  177.3530  140.7570 C   0  0  0  0  0  3  0  0  0  0  0  0
  193.9000  176.8150  139.3090 O   0  0  0  0  0  1  0  0  0  0  0  0
  191.5710  177.0470  139.3520 N   0  0  0  0  0  0  0  0  0  0  0  0
  190.3350  176.9580  138.5900 C   0  0  0  0  0  2  0  0  0  0  0  0
  189.1130  177.8370  141.1830 C   0  0  0  0  0  0  0  0  0  0  0  0
  189.5410  178.2280  138.7730 C   0  0  0  0  0  2  0  0  0  0  0  0
  188.6260  178.0800  139.9470 C   0  0  0  0  0  0  0  0  0  0  0  0
  186.6560  178.3660  138.3980 C   0  0  0  0  0  2  0  0  0  0  0  0
  183.3760  175.0490  137.9550 C   0  0  0  0  0  3  0  0  0  0  0  0
  183.9380  177.9060  137.5440 C   0  0  0  0  0  2  0  0  0  0  0  0
  180.7100  176.6320  140.1080 C   0  0  0  0  0  0  0  0  0  0  0  0
  186.4110  176.9850  137.8020 C   0  0  2  0  0  3  0  0  0  0  0  0
  181.4980  175.6780  139.4490 C   0  0  0  0  0  3  0  0  0  0  0  0
  182.5590  176.0730  138.6310 C   0  0  0  0  0  0  0  0  0  0  0  0
  186.0500  177.1160  136.3260 C   0  0  0  0  0  2  0  0  0  0  0  0
  182.0520  178.3990  139.1110 C   0  0  0  0  0  3  0  0  0  0  0  0
  182.8440  177.4470  138.4670 C   0  0  0  0  0  0  0  0  0  0  0  0
  180.9950  177.9950  139.9310 C   0  0  0  0  0  3  0  0  0  0  0  0
  184.9740  176.7950  137.3310 C   0  0  2  0  0  0  0  0  0  0  0  0
  184.5020  175.3760  137.3170 C   0  0  0  0  0  3  0  0  0  0  0  0
  179.6270  176.2100  140.9530 N   0  0  0  0  0  0  0  0  0  0  0  0
  179.1350  174.8410  140.9280 C   0  0  0  0  0  1  0  0  0  0  0  0
  179.0380  177.0910  141.7940 O   0  0  0  0  0  1  0  0  0  0  0  0
  1 18  1  0  0  0  0
  1 10  1  0  0  0  0
  3 13  1  0  0  0  0
  3 14  1  0  0  0  0
  5  8  1  0  0  0  0
  6 11  1  0  0  0  0
  7  3  2  0  0  0  0
  8  6  1  0  0  0  0
  9  4  2  0  0  0  0
  9 11  1  0  0  0  0
 10  5  1  1  0  0  0
 10  9  1  0  0  0  0
 12  2  2  0  0  0  0
 14 12  1  0  0  0  0
 15 17  1  0  0  0  0
 15 14  1  0  0  0  0
 16  2  1  0  0  0  0
 16  4  1  0  0  0  0
 17 18  1  0  0  0  0
 18 16  2  0  0  0  0
 19  1  1  0  0  0  0
 20 25  1  0  0  0  0
 21 28  1  0  0  0  0
 22 32  1  0  0  0  0
 23 19  1  1  0  0  0
 24 22  2  0  0  0  0
 25 24  1  0  0  0  0
 26 23  1  0  0  0  0
 27 29  2  0  0  0  0
 28 25  2  0  0  0  0
 28 27  1  0  0  0  0
 29 22  1  0  0  0  0
 30 26  1  6  0  0  0
 30 21  1  0  0  0  0
 30 23  1  0  0  0  0
 31 30  1  0  0  0  0
 31 20  2  0  0  0  0
 32 34  1  0  0  0  0
 33 32  1  0  0  0  0
M  END
>  <MODEL>
6

>  <REMARK>
 VINA RESULT:      -8.0      3.472      6.676
  Name = 
  3 active torsions:
  status: ('A' for Active; 'I' for Inactive)
    1  A    between atoms: N_1  and  C_9
    2  A    between atoms: C_7  and  N_11
    3  A    between atoms: C_8  and  C_9
                            x       y       z     vdW  Elec       q    Type
                         _______ _______ _______ _____ _____    ______ ____

>  <TORSDO>
F 3

$$$$
=
 OpenBabel11052415423D

 34 39  0  0  1  0  0  0  0  0999 V2000
  188.1270  178.1590  141.8930 N   0  0  0  0  0  0  0  0  0  0  0  0
  185.7730  177.7240  144.8840 C   0  0  0  0  0  3  0  0  0  0  0  0
  182.5320  179.0380  143.5410 C   0  0  0  0  0  0  0  0  0  0  0  0
  188.2470  177.7500  144.6630 C   0  0  0  0  0  3  0  0  0  0  0  0
  190.4040  177.1920  141.8500 C   0  0  0  0  0  2  0  0  0  0  0  0
  191.6130  176.7740  144.0050 C   0  0  0  0  0  2  0  0  0  0  0  0
  181.9750  179.7430  142.4800 O   0  0  0  0  0  0  0  0  0  0  0  0
  191.7660  177.1910  142.5420 C   0  0  0  0  0  2  0  0  0  0  0  0
  189.3970  177.8690  144.0080 C   0  0  0  0  0  0  0  0  0  0  0  0
  189.4500  178.1780  142.5350 C   0  0  2  0  0  3  0  0  0  0  0  0
  190.6880  177.7370  144.7490 C   0  0  0  0  0  2  0  0  0  0  0  0
  184.4930  178.0810  144.7070 C   0  0  0  0  0  3  0  0  0  0  0  0
  181.7860  178.6480  144.4790 O   0  0  0  0  0  1  0  0  0  0  0  0
  183.9390  178.7590  143.5660 N   0  0  0  0  0  0  0  0  0  0  0  0
  184.7580  179.2340  142.4620 C   0  0  0  0  0  2  0  0  0  0  0  0
  186.9470  177.8700  143.9920 C   0  0  0  0  0  0  0  0  0  0  0  0
  185.5910  178.0930  141.9290 C   0  0  0  0  0  2  0  0  0  0  0  0
  186.8990  178.0480  142.6540 C   0  0  0  0  0  0  0  0  0  0  0  0
  188.0800  178.4900  140.4700 C   0  0  0  0  0  2  0  0  0  0  0  0
  187.2950  175.2600  137.1670 C   0  0  0  0  0  3  0  0  0  0  0  0
  186.9910  178.1100  137.8250 C   0  0  0  0  0  2  0  0  0  0  0  0
  183.5550  175.6780  136.8790 C   0  0  0  0  0  0  0  0  0  0  0  0
  188.7750  177.4060  139.6550 C   0  0  2  0  0  3  0  0  0  0  0  0
  184.8370  175.1120  136.8630 C   0  0  0  0  0  3  0  0  0  0  0  0
  185.9590  175.8810  137.1850 C   0  0  0  0  0  0  0  0  0  0  0  0
  189.4740  178.0310  138.4530 C   0  0  0  0  0  2  0  0  0  0  0  0
  184.5240  177.8090  137.5380 C   0  0  0  0  0  3  0  0  0  0  0  0
  185.7990  177.2410  137.5340 C   0  0  0  0  0  0  0  0  0  0  0  0
  183.4080  177.0320  137.2180 C   0  0  0  0  0  3  0  0  0  0  0  0
  188.1940  177.2610  138.2540 C   0  0  2  0  0  0  0  0  0  0  0  0
  188.3620  175.9060  137.6430 C   0  0  0  0  0  3  0  0  0  0  0  0
  182.4110  174.8710  136.5530 N   0  0  0  0  0  0  0  0  0  0  0  0
  181.3980  174.5530  137.5480 C   0  0  0  0  0  1  0  0  0  0  0  0
  182.2570  174.3850  135.3000 O   0  0  0  0  0  1  0  0  0  0  0  0
  1 10  1  0  0  0  0
  1 18  1  0  0  0  0
  3 14  1  0  0  0  0
  3 13  1  0  0  0  0
  5  8  1  0  0  0  0
  6 11  1  0  0  0  0
  7  3  2  0  0  0  0
  8  6  1  0  0  0  0
  9  4  2  0  0  0  0
  9 11  1  0  0  0  0
 10  5  1  6  0  0  0
 10  9  1  0  0  0  0
 12  2  2  0  0  0  0
 14 12  1  0  0  0  0
 15 14  1  0  0  0  0
 16  4  1  0  0  0  0
 16  2  1  0  0  0  0
 17 15  1  0  0  0  0
 17 18  1  0  0  0  0
 18 16  2  0  0  0  0
 19  1  1  0  0  0  0
 20 25  1  0  0  0  0
 20 31  2  0  0  0  0
 21 30  1  0  0  0  0
 22 29  1  0  0  0  0
 23 19  1  1  0  0  0
 24 22  2  0  0  0  0
 24 25  1  0  0  0  0
 25 28  2  0  0  0  0
 26 23  1  0  0  0  0
 28 27  1  0  0  0  0
 28 21  1  0  0  0  0
 29 27  2  0  0  0  0
 30 31  1  6  0  0  0
 30 26  1  0  0  0  0
 30 23  1  0  0  0  0
 32 22  1  0  0  0  0
 32 33  1  0  0  0  0
 34 32  1  0  0  0  0
M  END
>  <MODEL>
7

>  <REMARK>
 VINA RESULT:      -7.9      2.047      3.018
  Name = 
  3 active torsions:
  status: ('A' for Active; 'I' for Inactive)
    1  A    between atoms: N_1  and  C_9
    2  A    between atoms: C_7  and  N_11
    3  A    between atoms: C_8  and  C_9
                            x       y       z     vdW  Elec       q    Type
                         _______ _______ _______ _____ _____    ______ ____

>  <TORSDO>
F 3

$$$$
=
 OpenBabel11052415423D

 34 39  0  0  1  0  0  0  0  0999 V2000
  187.6160  177.3820  143.8660 N   0  0  0  0  0  0  0  0  0  0  0  0
  188.8100  178.0540  147.4440 C   0  0  0  0  0  3  0  0  0  0  0  0
  192.0530  176.1830  147.5630 C   0  0  0  0  0  0  0  0  0  0  0  0
  186.6020  178.2640  146.3260 C   0  0  0  0  0  3  0  0  0  0  0  0
  185.6910  178.5730  142.8690 C   0  0  0  0  0  2  0  0  0  0  0  0
  183.8890  179.4800  144.3560 C   0  0  0  0  0  2  0  0  0  0  0  0
  192.8230  175.2510  146.8750 O   0  0  0  0  0  0  0  0  0  0  0  0
  184.1920  178.8410  143.0010 C   0  0  0  0  0  2  0  0  0  0  0  0
  185.7510  178.1630  145.3100 C   0  0  0  0  0  0  0  0  0  0  0  0
  186.1680  177.6180  143.9690 C   0  0  2  0  0  3  0  0  0  0  0  0
  184.3230  178.5610  145.4970 C   0  0  0  0  0  2  0  0  0  0  0  0
  189.9940  177.5330  147.7970 C   0  0  0  0  0  3  0  0  0  0  0  0
  192.4770  176.6410  148.6580 O   0  0  0  0  0  1  0  0  0  0  0  0
  190.7930  176.6160  147.0310 N   0  0  0  0  0  0  0  0  0  0  0  0
  190.3460  176.0540  145.7660 C   0  0  0  0  0  2  0  0  0  0  0  0
  188.0160  177.8890  146.2040 C   0  0  0  0  0  0  0  0  0  0  0  0
  189.9530  177.1730  144.8320 C   0  0  0  0  0  2  0  0  0  0  0  0
  188.5000  177.4840  145.0100 C   0  0  0  0  0  0  0  0  0  0  0  0
  188.1030  176.8120  142.6120 C   0  0  0  0  0  2  0  0  0  0  0  0
  191.4320  176.8980  139.3150 C   0  0  0  0  0  3  0  0  0  0  0  0
  188.6510  177.6470  139.9040 C   0  0  0  0  0  2  0  0  0  0  0  0
  189.5830  174.9980  136.6280 C   0  0  0  0  0  0  0  0  0  0  0  0
  189.5450  177.2380  142.3660 C   0  0  2  0  0  3  0  0  0  0  0  0
  190.6150  175.5220  137.4190 C   0  0  0  0  0  3  0  0  0  0  0  0
  190.3290  176.3660  138.4950 C   0  0  0  0  0  0  0  0  0  0  0  0
  189.5940  178.7250  142.0290 C   0  0  0  0  0  2  0  0  0  0  0  0
  187.9590  176.1830  137.9970 C   0  0  0  0  0  3  0  0  0  0  0  0
  188.9870  176.6920  138.7920 C   0  0  0  0  0  0  0  0  0  0  0  0
  188.2540  175.3360  136.9250 C   0  0  0  0  0  3  0  0  0  0  0  0
  189.7840  177.7050  140.9350 C   0  0  2  0  0  0  0  0  0  0  0  0
  191.1920  177.5520  140.4530 C   0  0  0  0  0  3  0  0  0  0  0  0
  189.8930  174.1250  135.5290 N   0  0  0  0  0  0  0  0  0  0  0  0
  191.2410  174.0330  134.9900 C   0  0  0  0  0  1  0  0  0  0  0  0
  188.9220  173.3680  134.9680 O   0  0  0  0  0  1  0  0  0  0  0  0
  1 10  1  0  0  0  0
  1 18  1  0  0  0  0
  2 12  2  0  0  0  0
  3 13  1  0  0  0  0
  5  8  1  0  0  0  0
  6 11  1  0  0  0  0
  7  3  2  0  0  0  0
  8  6  1  0  0  0  0
  9 11  1  0  0  0  0
  9  4  2  0  0  0  0
 10  5  1  6  0  0  0
 10  9  1  0  0  0  0
 14  3  1  0  0  0  0
 14 12  1  0  0  0  0
 15 14  1  0  0  0  0
 16  4  1  0  0  0  0
 16  2  1  0  0  0  0
 17 18  1  0  0  0  0
 17 15  1  0  0  0  0
 18 16  2  0  0  0  0
 19  1  1  0  0  0  0
 20 31  2  0  0  0  0
 22 29  2  0  0  0  0
 22 24  1  0  0  0  0
 23 19  1  6  0  0  0
 24 25  2  0  0  0  0
 25 28  1  0  0  0  0
 25 20  1  0  0  0  0
 26 23  1  0  0  0  0
 27 28  2  0  0  0  0
 28 21  1  0  0  0  0
 29 27  1  0  0  0  0
 30 21  1  6  0  0  0
 30 26  1  0  0  0  0
 30 23  1  0  0  0  0
 31 30  1  0  0  0  0
 32 22  1  0  0  0  0
 33 32  1  0  0  0  0
 34 32  1  0  0  0  0
M  END
>  <MODEL>
8

>  <REMARK>
 VINA RESULT:      -7.8      3.618      5.562
  Name = 
  3 active torsions:
  status: ('A' for Active; 'I' for Inactive)
    1  A    between atoms: N_1  and  C_9
    2  A    between atoms: C_7  and  N_11
    3  A    between atoms: C_8  and  C_9
                            x       y       z     vdW  Elec       q    Type
                         _______ _______ _______ _____ _____    ______ ____

>  <TORSDO>
F 3

$$$$
=
 OpenBabel11052415423D

 34 39  0  0  1  0  0  0  0  0999 V2000
  185.7090  178.1070  143.0290 N   0  0  0  0  0  0  0  0  0  0  0  0
  182.0590  178.8100  143.9580 C   0  0  0  0  0  3  0  0  0  0  0  0
  180.4930  179.4230  140.6110 C   0  0  0  0  0  0  0  0  0  0  0  0
  184.1720  178.8070  145.2660 C   0  0  0  0  0  3  0  0  0  0  0  0
  187.3510  177.2540  144.6710 C   0  0  0  0  0  2  0  0  0  0  0  0
  187.0290  177.7320  147.1100 C   0  0  0  0  0  2  0  0  0  0  0  0
  180.7890  179.6490  139.2720 O   0  0  0  0  0  0  0  0  0  0  0  0
  188.0570  177.5530  145.9930 C   0  0  0  0  0  2  0  0  0  0  0  0
  185.4850  178.6910  145.4330 C   0  0  0  0  0  0  0  0  0  0  0  0
  186.4160  178.4050  144.2840 C   0  0  2  0  0  3  0  0  0  0  0  0
  186.0780  178.8860  146.7910 C   0  0  0  0  0  2  0  0  0  0  0  0
  181.2090  179.0410  142.9480 C   0  0  0  0  0  3  0  0  0  0  0  0
  179.2880  179.4100  140.9800 O   0  0  0  0  0  1  0  0  0  0  0  0
  181.5470  179.2090  141.5610 N   0  0  0  0  0  0  0  0  0  0  0  0
  182.9220  179.2380  141.0860 C   0  0  0  0  0  2  0  0  0  0  0  0
  183.5300  178.6270  143.9580 C   0  0  0  0  0  0  0  0  0  0  0  0
  183.6420  178.0000  141.5620 C   0  0  0  0  0  2  0  0  0  0  0  0
  184.2760  178.2710  142.8900 C   0  0  0  0  0  0  0  0  0  0  0  0
  186.5370  177.8590  141.8500 C   0  0  0  0  0  2  0  0  0  0  0  0
  190.7940  176.7520  140.2350 C   0  0  0  0  0  3  0  0  0  0  0  0
  188.3360  178.2460  139.6270 C   0  0  0  0  0  2  0  0  0  0  0  0
  189.7390  175.1270  136.9950 C   0  0  0  0  0  0  0  0  0  0  0  0
  188.0120  177.8740  142.2320 C   0  0  2  0  0  3  0  0  0  0  0  0
  190.4660  175.4470  138.1510 C   0  0  0  0  0  3  0  0  0  0  0  0
  190.0150  176.4400  139.0240 C   0  0  0  0  0  0  0  0  0  0  0  0
  188.6000  179.2560  141.9670 C   0  0  0  0  0  2  0  0  0  0  0  0
  188.0970  176.8220  137.5840 C   0  0  0  0  0  3  0  0  0  0  0  0
  188.8140  177.1290  138.7410 C   0  0  0  0  0  0  0  0  0  0  0  0
  188.5520  175.8240  136.7190 C   0  0  0  0  0  3  0  0  0  0  0  0
  188.9250  178.1160  141.0360 C   0  0  2  0  0  0  0  0  0  0  0  0
  190.3060  177.5580  141.1800 C   0  0  0  0  0  3  0  0  0  0  0  0
  190.2120  174.0970  136.1120 N   0  0  0  0  0  0  0  0  0  0  0  0
  189.4880  173.7460  134.9000 C   0  0  0  0  0  1  0  0  0  0  0  0
  191.3500  173.4240  136.4010 O   0  0  0  0  0  1  0  0  0  0  0  0
  1 10  1  0  0  0  0
  3 13  1  0  0  0  0
  3 14  1  0  0  0  0
  4  9  2  0  0  0  0
  5  8  1  0  0  0  0
  7  3  2  0  0  0  0
  8  6  1  0  0  0  0
  9 11  1  0  0  0  0
 10  5  1  1  0  0  0
 10  9  1  0  0  0  0
 11  6  1  0  0  0  0
 12  2  2  0  0  0  0
 14 12  1  0  0  0  0
 15 14  1  0  0  0  0
 15 17  1  0  0  0  0
 16  2  1  0  0  0  0
 16  4  1  0  0  0  0
 17 18  1  0  0  0  0
 18  1  1  0  0  0  0
 18 16  2  0  0  0  0
 19  1  1  0  0  0  0
 20 31  2  0  0  0  0
 22 24  1  0  0  0  0
 23 19  1  6  0  0  0
 24 25  2  0  0  0  0
 25 20  1  0  0  0  0
 26 23  1  0  0  0  0
 27 28  2  0  0  0  0
 28 25  1  0  0  0  0
 28 21  1  0  0  0  0
 29 22  2  0  0  0  0
 29 27  1  0  0  0  0
 30 21  1  6  0  0  0
 30 31  1  0  0  0  0
 30 26  1  0  0  0  0
 30 23  1  0  0  0  0
 32 34  1  0  0  0  0
 32 22  1  0  0  0  0
 33 32  1  0  0  0  0
M  END
>  <MODEL>
9

>  <REMARK>
 VINA RESULT:      -7.5      2.558      3.712
  Name = 
  3 active torsions:
  status: ('A' for Active; 'I' for Inactive)
    1  A    between atoms: N_1  and  C_9
    2  A    between atoms: C_7  and  N_11
    3  A    between atoms: C_8  and  C_9
                            x       y       z     vdW  Elec       q    Type
                         _______ _______ _______ _____ _____    ______ ____

>  <TORSDO>
F 3

$$$$
