=
 OpenBabel11052414353D

 32 37  0  0  1  0  0  0  0  0999 V2000
  184.9840  177.8730  143.1870 C   0  0  2  0  0  3  0  0  0  0  0  0
  186.7620  177.3580  144.8520 C   0  0  2  0  0  3  0  0  0  0  0  0
  183.6650  178.6150  142.9920 C   0  0  0  0  0  2  0  0  0  0  0  0
  185.7280  178.3810  144.4190 C   0  0  2  0  0  3  0  0  0  0  0  0
  187.6160  178.0160  145.9020 C   0  0  0  0  0  0  0  0  0  0  0  0
  191.1010  175.2700  143.3080 C   0  0  0  0  0  2  0  0  0  0  0  0
  187.4940  176.6750  143.6650 C   0  0  1  0  0  3  0  0  0  0  0  0
  191.1000  177.1040  145.0040 C   0  0  0  0  0  2  0  0  0  0  0  0
  189.6770  177.4850  144.6110 C   0  0  2  0  0  3  0  0  0  0  0  0
  184.8650  178.7180  145.6070 C   0  0  0  0  0  0  0  0  0  0  0  0
  188.9530  178.0410  145.8000 C   0  0  0  0  0  3  0  0  0  0  0  0
  185.5440  179.1370  146.8890 C   0  0  0  0  0  2  0  0  0  0  0  0
  183.5330  178.8230  145.4940 C   0  0  0  0  0  3  0  0  0  0  0  0
  187.4040  177.5050  142.3710 C   0  0  0  0  0  2  0  0  0  0  0  0
  185.9490  177.8310  141.9670 C   0  0  2  0  0  3  0  0  0  0  0  0
  188.9240  176.2750  144.0440 C   0  0  2  0  0  3  0  0  0  0  0  0
  186.9380  178.6670  147.0010 N   0  0  0  0  0  0  0  0  0  0  0  0
  182.7990  178.4290  144.2360 C   0  0  0  0  0  2  0  0  0  0  0  0
  191.8350  176.5080  143.8070 C   0  0  0  0  0  2  0  0  0  0  0  0
  189.6820  175.6350  142.8790 C   0  0  0  0  0  2  0  0  0  0  0  0
  187.6500  179.0070  148.2280 C   0  0  0  0  0  2  0  0  0  0  0  0
  188.0690  177.7420  148.9560 C   0  0  0  0  0  1  0  0  0  0  0  0
  185.9890  179.0770  141.0650 C   0  0  2  0  0  3  0  0  0  0  0  0
  185.5810  180.2430  141.7190 O   0  0  0  0  0  1  0  0  0  0  0  0
  185.3100  178.9240  139.6940 C   0  0  2  0  0  3  0  0  0  0  0  0
  184.0800  178.0310  139.7100 C   0  0  0  0  0  1  0  0  0  0  0  0
  186.2610  178.5750  138.5370 C   0  0  2  0  0  3  0  0  0  0  0  0
  185.5590  177.8620  137.3940 C   0  0  0  0  0  1  0  0  0  0  0  0
  187.4490  177.7480  139.0060 C   0  0  0  0  0  2  0  0  0  0  0  0
  189.8520  177.8550  139.5470 C   0  0  0  0  0  2  0  0  0  0  0  0
  188.7530  178.4580  138.6980 C   0  0  0  0  0  3  0  0  0  0  0  0
  189.7180  177.4620  138.0910 C   0  0  0  0  0  2  0  0  0  0  0  0
  1  3  1  6  0  0  0
  1  4  1  0  0  0  0
  2  5  1  1  0  0  0
  3 18  1  0  0  0  0
  4  2  1  0  0  0  0
  4 10  1  1  0  0  0
  5 17  1  0  0  0  0
  6 19  1  0  0  0  0
  7 14  1  6  0  0  0
  7 16  1  0  0  0  0
  7  2  1  0  0  0  0
  9  8  1  1  0  0  0
  9 11  1  0  0  0  0
 10 12  1  0  0  0  0
 11  5  2  0  0  0  0
 12 17  1  0  0  0  0
 13 10  2  0  0  0  0
 15 23  1  1  0  0  0
 15 14  1  0  0  0  0
 15  1  1  0  0  0  0
 16 20  1  6  0  0  0
 16  9  1  0  0  0  0
 17 21  1  0  0  0  0
 18 13  1  0  0  0  0
 19  8  1  0  0  0  0
 20  6  1  0  0  0  0
 21 22  1  0  0  0  0
 23 24  1  1  0  0  0
 25 26  1  1  0  0  0
 25 23  1  0  0  0  0
 27 28  1  6  0  0  0
 27 29  1  0  0  0  0
 27 25  1  0  0  0  0
 31 29  1  0  0  0  0
 31 30  1  0  0  0  0
 32 31  1  0  0  0  0
 32 30  1  0  0  0  0
M  END
>  <MODEL>
1

>  <REMARK>
 VINA RESULT:      -7.9      0.000      0.000
  Name = 
  6 active torsions:
  status: ('A' for Active; 'I' for Inactive)
    1  A    between atoms: C_3  and  C_15
    2  A    between atoms: C_3  and  C_22
    3  A    between atoms: C_13  and  N_29
    4  A    between atoms: C_15  and  C_19
    5  A    between atoms: C_16  and  C_22
    6  A    between atoms: C_16  and  C_27
                            x       y       z     vdW  Elec       q    Type
                         _______ _______ _______ _____ _____    ______ ____

>  <TORSDO>
F 6

$$$$
=
 OpenBabel11052414353D

 32 37  0  0  1  0  0  0  0  0999 V2000
  185.6610  178.9320  142.4980 C   0  0  2  0  0  3  0  0  0  0  0  0
  184.4920  178.7430  140.3070 C   0  0  2  0  0  3  0  0  0  0  0  0
  185.4470  178.8920  144.0090 C   0  0  0  0  0  2  0  0  0  0  0  0
  184.4890  178.2920  141.7570 C   0  0  2  0  0  3  0  0  0  0  0  0
  183.4790  177.8980  139.5840 C   0  0  0  0  0  0  0  0  0  0  0  0
  187.2010  178.2890  136.0620 C   0  0  0  0  0  2  0  0  0  0  0  0
  185.9130  178.8360  139.6890 C   0  0  1  0  0  3  0  0  0  0  0  0
  185.1480  176.9110  136.4190 C   0  0  0  0  0  2  0  0  0  0  0  0
  185.1920  177.2100  137.9130 C   0  0  2  0  0  3  0  0  0  0  0  0
  183.1260  178.5630  142.3370 C   0  0  0  0  0  0  0  0  0  0  0  0
  183.7990  177.2240  138.4690 C   0  0  0  0  0  3  0  0  0  0  0  0
  181.9170  178.0380  141.6010 C   0  0  0  0  0  2  0  0  0  0  0  0
  182.9820  179.0930  143.5610 C   0  0  0  0  0  3  0  0  0  0  0  0
  186.9420  177.9920  140.4650 C   0  0  0  0  0  2  0  0  0  0  0  0
  187.0020  178.3520  141.9660 C   0  0  2  0  0  3  0  0  0  0  0  0
  185.8890  178.5490  138.1840 C   0  0  2  0  0  3  0  0  0  0  0  0
  182.1580  177.7950  140.1650 N   0  0  0  0  0  0  0  0  0  0  0  0
  184.1520  179.6260  144.3490 C   0  0  0  0  0  2  0  0  0  0  0  0
  186.5590  176.9250  135.8380 C   0  0  0  0  0  2  0  0  0  0  0  0
  187.2830  178.5940  137.5560 C   0  0  0  0  0  2  0  0  0  0  0  0
  181.0270  177.3170  139.3800 C   0  0  0  0  0  2  0  0  0  0  0  0
  180.6210  175.9270  139.8390 C   0  0  0  0  0  1  0  0  0  0  0  0
  187.5810  177.1350  142.7090 C   0  0  2  0  0  3  0  0  0  0  0  0
  186.8290  176.7660  143.8280 O   0  0  0  0  0  1  0  0  0  0  0  0
  189.0830  177.2050  143.0280 C   0  0  2  0  0  3  0  0  0  0  0  0
  189.7560  175.8470  143.1370 C   0  0  0  0  0  1  0  0  0  0  0  0
  189.4510  178.1270  144.2020 C   0  0  2  0  0  3  0  0  0  0  0  0
  190.7070  178.9410  143.9400 C   0  0  0  0  0  1  0  0  0  0  0  0
  189.6020  177.3570  145.5060 C   0  0  0  0  0  2  0  0  0  0  0  0
  188.3640  176.7690  147.5560 C   0  0  0  0  0  2  0  0  0  0  0  0
  188.6250  177.8690  146.5480 C   0  0  0  0  0  3  0  0  0  0  0  0
  189.3180  177.8950  147.8930 C   0  0  0  0  0  2  0  0  0  0  0  0
  1  3  1  1  0  0  0
  2  5  1  6  0  0  0
  2  4  1  0  0  0  0
  3 18  1  0  0  0  0
  4 10  1  1  0  0  0
  4  1  1  0  0  0  0
  5 17  1  0  0  0  0
  6 20  1  0  0  0  0
  7  2  1  0  0  0  0
  7 14  1  1  0  0  0
  9  8  1  6  0  0  0
  9 16  1  0  0  0  0
  9 11  1  0  0  0  0
 10 13  2  0  0  0  0
 11  5  2  0  0  0  0
 12 10  1  0  0  0  0
 13 18  1  0  0  0  0
 14 15  1  0  0  0  0
 15  1  1  0  0  0  0
 15 23  1  1  0  0  0
 16 20  1  1  0  0  0
 16  7  1  0  0  0  0
 17 12  1  0  0  0  0
 19  6  1  0  0  0  0
 19  8  1  0  0  0  0
 21 22  1  0  0  0  0
 21 17  1  0  0  0  0
 23 25  1  0  0  0  0
 23 24  1  1  0  0  0
 25 26  1  1  0  0  0
 25 27  1  0  0  0  0
 27 28  1  6  0  0  0
 27 29  1  0  0  0  0
 29 31  1  0  0  0  0
 30 32  1  0  0  0  0
 31 30  1  0  0  0  0
 31 32  1  0  0  0  0
M  END
>  <MODEL>
2

>  <REMARK>
 VINA RESULT:      -7.7      2.263      6.924
  Name = 
  6 active torsions:
  status: ('A' for Active; 'I' for Inactive)
    1  A    between atoms: C_3  and  C_15
    2  A    between atoms: C_3  and  C_22
    3  A    between atoms: C_13  and  N_29
    4  A    between atoms: C_15  and  C_19
    5  A    between atoms: C_16  and  C_22
    6  A    between atoms: C_16  and  C_27
                            x       y       z     vdW  Elec       q    Type
                         _______ _______ _______ _____ _____    ______ ____

>  <TORSDO>
F 6

$$$$
=
 OpenBabel11052414353D

 32 37  0  0  1  0  0  0  0  0999 V2000
  185.7550  178.6470  138.8570 C   0  0  2  0  0  3  0  0  0  0  0  0
  187.1000  178.6190  140.9520 C   0  0  2  0  0  3  0  0  0  0  0  0
  185.7990  178.3180  137.3670 C   0  0  0  0  0  2  0  0  0  0  0  0
  186.8770  177.9400  139.6130 C   0  0  2  0  0  3  0  0  0  0  0  0
  188.0310  177.7380  141.7400 C   0  0  0  0  0  0  0  0  0  0  0  0
  184.8120  179.3720  145.3980 C   0  0  0  0  0  2  0  0  0  0  0  0
  185.7860  179.0670  141.6470 C   0  0  1  0  0  3  0  0  0  0  0  0
  186.5640  177.6080  145.1470 C   0  0  0  0  0  2  0  0  0  0  0  0
  186.4130  177.6570  143.6310 C   0  0  2  0  0  3  0  0  0  0  0  0
  188.1970  177.8610  138.8930 C   0  0  0  0  0  0  0  0  0  0  0  0
  187.7230  177.3280  142.9800 C   0  0  0  0  0  3  0  0  0  0  0  0
  189.3750  177.2580  139.6210 C   0  0  0  0  0  2  0  0  0  0  0  0
  188.2980  178.1450  137.5870 C   0  0  0  0  0  3  0  0  0  0  0  0
  184.5570  178.3040  141.1160 C   0  0  0  0  0  2  0  0  0  0  0  0
  184.4000  178.4140  139.5830 C   0  0  2  0  0  3  0  0  0  0  0  0
  185.9200  179.0350  143.1740 C   0  0  2  0  0  3  0  0  0  0  0  0
  189.2480  177.3040  141.0910 N   0  0  0  0  0  0  0  0  0  0  0  0
  187.1540  178.7400  136.8030 C   0  0  0  0  0  2  0  0  0  0  0  0
  185.2430  177.9720  145.8180 C   0  0  0  0  0  2  0  0  0  0  0  0
  184.6250  179.4340  143.8840 C   0  0  0  0  0  2  0  0  0  0  0  0
  190.3630  176.7690  141.8640 C   0  0  0  0  0  2  0  0  0  0  0  0
  191.6650  177.4130  141.4210 C   0  0  0  0  0  1  0  0  0  0  0  0
  183.5550  177.2140  139.1200 C   0  0  2  0  0  3  0  0  0  0  0  0
  184.0950  176.5580  138.0100 O   0  0  0  0  0  1  0  0  0  0  0  0
  182.0520  177.4880  138.9460 C   0  0  2  0  0  3  0  0  0  0  0  0
  181.7400  178.8370  138.3180 C   0  0  0  0  0  1  0  0  0  0  0  0
  181.1980  177.2220  140.1960 C   0  0  2  0  0  3  0  0  0  0  0  0
  180.0680  176.2400  139.9380 C   0  0  0  0  0  1  0  0  0  0  0  0
  180.6360  178.5070  140.7860 C   0  0  0  0  0  2  0  0  0  0  0  0
  180.3730  179.8350  142.8480 C   0  0  0  0  0  2  0  0  0  0  0  0
  181.1810  178.7400  142.1830 C   0  0  0  0  0  3  0  0  0  0  0  0
  180.1080  178.3840  143.1900 C   0  0  0  0  0  2  0  0  0  0  0  0
  1  3  1  6  0  0  0
  1 15  1  0  0  0  0
  1  4  1  0  0  0  0
  2  7  1  0  0  0  0
  2  5  1  1  0  0  0
  4 10  1  6  0  0  0
  4  2  1  0  0  0  0
  5 11  2  0  0  0  0
  6 19  1  0  0  0  0
  7 14  1  1  0  0  0
  7 16  1  0  0  0  0
  8 19  1  0  0  0  0
  9 11  1  6  0  0  0
  9  8  1  0  0  0  0
 10 12  1  0  0  0  0
 12 17  1  0  0  0  0
 13 10  2  0  0  0  0
 15 23  1  6  0  0  0
 15 14  1  0  0  0  0
 16  9  1  0  0  0  0
 16 20  1  1  0  0  0
 17  5  1  0  0  0  0
 17 21  1  0  0  0  0
 18  3  1  0  0  0  0
 18 13  1  0  0  0  0
 20  6  1  0  0  0  0
 22 21  1  0  0  0  0
 23 24  1  6  0  0  0
 25 26  1  1  0  0  0
 25 23  1  0  0  0  0
 25 27  1  0  0  0  0
 27 28  1  6  0  0  0
 27 29  1  0  0  0  0
 29 31  1  0  0  0  0
 30 32  1  0  0  0  0
 31 30  1  0  0  0  0
 31 32  1  0  0  0  0
M  END
>  <MODEL>
3

>  <REMARK>
 VINA RESULT:      -7.7      2.391      6.344
  Name = 
  6 active torsions:
  status: ('A' for Active; 'I' for Inactive)
    1  A    between atoms: C_3  and  C_15
    2  A    between atoms: C_3  and  C_22
    3  A    between atoms: C_13  and  N_29
    4  A    between atoms: C_15  and  C_19
    5  A    between atoms: C_16  and  C_22
    6  A    between atoms: C_16  and  C_27
                            x       y       z     vdW  Elec       q    Type
                         _______ _______ _______ _____ _____    ______ ____

>  <TORSDO>
F 6

$$$$
=
 OpenBabel11052414353D

 32 37  0  0  1  0  0  0  0  0999 V2000
  184.8940  177.8970  142.9840 C   0  0  2  0  0  3  0  0  0  0  0  0
  186.6400  177.3660  144.6770 C   0  0  2  0  0  3  0  0  0  0  0  0
  183.5690  178.6260  142.7760 C   0  0  0  0  0  2  0  0  0  0  0  0
  185.6010  178.3850  144.2450 C   0  0  2  0  0  3  0  0  0  0  0  0
  187.4600  178.0080  145.7630 C   0  0  0  0  0  0  0  0  0  0  0  0
  191.0410  175.3730  143.1860 C   0  0  0  0  0  2  0  0  0  0  0  0
  187.4080  176.7210  143.4920 C   0  0  1  0  0  3  0  0  0  0  0  0
  190.9760  177.1660  144.9250 C   0  0  0  0  0  2  0  0  0  0  0  0
  189.5570  177.5370  144.5070 C   0  0  2  0  0  3  0  0  0  0  0  0
  184.7070  178.6820  145.4200 C   0  0  0  0  0  0  0  0  0  0  0  0
  188.7990  178.0540  145.6930 C   0  0  0  0  0  3  0  0  0  0  0  0
  185.3500  179.0780  146.7280 C   0  0  0  0  0  2  0  0  0  0  0  0
  183.3770  178.7720  145.2780 C   0  0  0  0  0  3  0  0  0  0  0  0
  187.3360  177.5810  142.2160 C   0  0  0  0  0  2  0  0  0  0  0  0
  185.8860  177.8980  141.7870 C   0  0  2  0  0  3  0  0  0  0  0  0
  188.8340  176.3310  143.8940 C   0  0  2  0  0  3  0  0  0  0  0  0
  186.7480  178.6240  146.8610 N   0  0  0  0  0  0  0  0  0  0  0  0
  182.6770  178.3990  143.9950 C   0  0  0  0  0  2  0  0  0  0  0  0
  191.7460  176.6090  143.7310 C   0  0  0  0  0  2  0  0  0  0  0  0
  189.6270  175.7310  142.7320 C   0  0  0  0  0  2  0  0  0  0  0  0
  187.4260  178.9430  148.1120 C   0  0  0  0  0  2  0  0  0  0  0  0
  187.9500  177.6740  148.7610 C   0  0  0  0  0  1  0  0  0  0  0  0
  185.9300  179.1660  140.9150 C   0  0  2  0  0  3  0  0  0  0  0  0
  185.6110  180.3290  141.6220 O   0  0  0  0  0  1  0  0  0  0  0  0
  185.1690  179.0800  139.5820 C   0  0  2  0  0  3  0  0  0  0  0  0
  183.8820  179.8880  139.5540 C   0  0  0  0  0  1  0  0  0  0  0  0
  184.9690  177.6540  139.0440 C   0  0  2  0  0  3  0  0  0  0  0  0
  185.8430  177.3530  137.8380 C   0  0  0  0  0  1  0  0  0  0  0  0
  183.5120  177.3730  138.7040 C   0  0  0  0  0  2  0  0  0  0  0  0
  181.4790  177.0040  140.0500 C   0  0  0  0  0  2  0  0  0  0  0  0
  182.8750  176.4920  139.7610 C   0  0  0  0  0  3  0  0  0  0  0  0
  181.6730  175.7980  139.1560 C   0  0  0  0  0  2  0  0  0  0  0  0
  1  3  1  6  0  0  0
  1  4  1  0  0  0  0
  2  5  1  1  0  0  0
  3 18  1  0  0  0  0
  4  2  1  0  0  0  0
  4 10  1  1  0  0  0
  5 17  1  0  0  0  0
  6 19  1  0  0  0  0
  7 14  1  6  0  0  0
  7 16  1  0  0  0  0
  7  2  1  0  0  0  0
  9  8  1  1  0  0  0
  9 11  1  0  0  0  0
 10 12  1  0  0  0  0
 11  5  2  0  0  0  0
 12 17  1  0  0  0  0
 13 10  2  0  0  0  0
 15 23  1  1  0  0  0
 15 14  1  0  0  0  0
 15  1  1  0  0  0  0
 16 20  1  6  0  0  0
 16  9  1  0  0  0  0
 17 21  1  0  0  0  0
 18 13  1  0  0  0  0
 19  8  1  0  0  0  0
 20  6  1  0  0  0  0
 21 22  1  0  0  0  0
 23 24  1  1  0  0  0
 25 26  1  1  0  0  0
 25 23  1  0  0  0  0
 27 28  1  6  0  0  0
 27 25  1  0  0  0  0
 29 27  1  0  0  0  0
 29 31  1  0  0  0  0
 31 30  1  0  0  0  0
 32 31  1  0  0  0  0
 32 30  1  0  0  0  0
M  END
>  <MODEL>
4

>  <REMARK>
 VINA RESULT:      -7.6      1.229      2.518
  Name = 
  6 active torsions:
  status: ('A' for Active; 'I' for Inactive)
    1  A    between atoms: C_3  and  C_15
    2  A    between atoms: C_3  and  C_22
    3  A    between atoms: C_13  and  N_29
    4  A    between atoms: C_15  and  C_19
    5  A    between atoms: C_16  and  C_22
    6  A    between atoms: C_16  and  C_27
                            x       y       z     vdW  Elec       q    Type
                         _______ _______ _______ _____ _____    ______ ____

>  <TORSDO>
F 6

$$$$
=
 OpenBabel11052414353D

 32 37  0  0  1  0  0  0  0  0999 V2000
  187.9760  177.8540  138.7070 C   0  0  2  0  0  3  0  0  0  0  0  0
  189.1500  176.3510  137.1060 C   0  0  2  0  0  3  0  0  0  0  0  0
  186.5960  178.2800  139.2010 C   0  0  0  0  0  2  0  0  0  0  0  0
  187.9090  176.5220  137.9640 C   0  0  2  0  0  3  0  0  0  0  0  0
  189.1420  174.9330  136.6020 C   0  0  0  0  0  0  0  0  0  0  0  0
  194.1440  175.6740  137.5220 C   0  0  0  0  0  2  0  0  0  0  0  0
  190.4500  176.8560  137.7880 C   0  0  1  0  0  3  0  0  0  0  0  0
  192.6300  173.7440  137.0490 C   0  0  0  0  0  2  0  0  0  0  0  0
  191.4270  174.5560  137.5160 C   0  0  2  0  0  3  0  0  0  0  0  0
  186.6970  176.3220  137.0930 C   0  0  0  0  0  0  0  0  0  0  0  0
  190.2030  174.1270  136.7650 C   0  0  0  0  0  3  0  0  0  0  0  0
  186.6140  175.0660  136.2580 C   0  0  0  0  0  2  0  0  0  0  0  0
  185.6340  177.1340  137.1810 C   0  0  0  0  0  3  0  0  0  0  0  0
  190.3090  176.9400  139.3200 C   0  0  0  0  0  2  0  0  0  0  0  0
  189.1140  177.8130  139.7650 C   0  0  2  0  0  3  0  0  0  0  0  0
  191.6740  176.0580  137.3240 C   0  0  2  0  0  3  0  0  0  0  0  0
  187.9280  174.4520  135.9810 N   0  0  0  0  0  0  0  0  0  0  0  0
  185.6520  178.3960  138.0060 C   0  0  0  0  0  2  0  0  0  0  0  0
  193.8870  174.1950  137.7860 C   0  0  0  0  0  2  0  0  0  0  0  0
  192.9630  176.5090  138.0110 C   0  0  0  0  0  2  0  0  0  0  0  0
  187.9310  173.2530  135.1520 C   0  0  0  0  0  2  0  0  0  0  0  0
  187.1700  172.1360  135.8450 C   0  0  0  0  0  1  0  0  0  0  0  0
  188.7300  177.3750  141.1890 C   0  0  2  0  0  3  0  0  0  0  0  0
  187.6430  178.0840  141.7070 O   0  0  0  0  0  1  0  0  0  0  0  0
  189.8910  177.2950  142.1940 C   0  0  2  0  0  3  0  0  0  0  0  0
  190.3000  175.8760  142.5540 C   0  0  0  0  0  1  0  0  0  0  0  0
  189.7280  178.1820  143.4400 C   0  0  2  0  0  3  0  0  0  0  0  0
  191.0280  178.8450  143.8630 C   0  0  0  0  0  1  0  0  0  0  0  0
  189.1390  177.4140  144.6130 C   0  0  0  0  0  2  0  0  0  0  0  0
  188.7270  177.4920  147.0440 C   0  0  0  0  0  2  0  0  0  0  0  0
  189.6240  177.9910  145.9300 C   0  0  0  0  0  3  0  0  0  0  0  0
  190.0830  176.8560  146.8200 C   0  0  0  0  0  2  0  0  0  0  0  0
  1  3  1  1  0  0  0
  1 15  1  0  0  0  0
  2  5  1  1  0  0  0
  2  7  1  0  0  0  0
  2  4  1  0  0  0  0
  4 10  1  6  0  0  0
  4  1  1  0  0  0  0
  5 11  2  0  0  0  0
  6 19  1  0  0  0  0
  6 20  1  0  0  0  0
  7 14  1  1  0  0  0
  8  9  1  0  0  0  0
  8 19  1  0  0  0  0
  9 11  1  6  0  0  0
 10 13  2  0  0  0  0
 12 10  1  0  0  0  0
 13 18  1  0  0  0  0
 14 15  1  0  0  0  0
 15 23  1  1  0  0  0
 16  9  1  0  0  0  0
 16  7  1  0  0  0  0
 16 20  1  1  0  0  0
 17 12  1  0  0  0  0
 17  5  1  0  0  0  0
 18  3  1  0  0  0  0
 21 22  1  0  0  0  0
 21 17  1  0  0  0  0
 23 24  1  1  0  0  0
 23 25  1  0  0  0  0
 25 26  1  1  0  0  0
 25 27  1  0  0  0  0
 27 28  1  1  0  0  0
 27 29  1  0  0  0  0
 29 31  1  0  0  0  0
 31 32  1  0  0  0  0
 31 30  1  0  0  0  0
 32 30  1  0  0  0  0
M  END
>  <MODEL>
5

>  <REMARK>
 VINA RESULT:      -7.6      3.475      8.049
  Name = 
  6 active torsions:
  status: ('A' for Active; 'I' for Inactive)
    1  A    between atoms: C_3  and  C_15
    2  A    between atoms: C_3  and  C_22
    3  A    between atoms: C_13  and  N_29
    4  A    between atoms: C_15  and  C_19
    5  A    between atoms: C_16  and  C_22
    6  A    between atoms: C_16  and  C_27
                            x       y       z     vdW  Elec       q    Type
                         _______ _______ _______ _____ _____    ______ ____

>  <TORSDO>
F 6

$$$$
=
 OpenBabel11052414353D

 32 37  0  0  1  0  0  0  0  0999 V2000
  185.9220  178.7020  138.8550 C   0  0  2  0  0  3  0  0  0  0  0  0
  187.2420  178.5710  140.9620 C   0  0  2  0  0  3  0  0  0  0  0  0
  185.9690  178.4040  137.3590 C   0  0  0  0  0  2  0  0  0  0  0  0
  187.0060  177.9320  139.6050 C   0  0  2  0  0  3  0  0  0  0  0  0
  188.1280  177.6350  141.7390 C   0  0  0  0  0  0  0  0  0  0  0  0
  184.9400  179.3220  145.4010 C   0  0  0  0  0  2  0  0  0  0  0  0
  185.9410  179.0580  141.6540 C   0  0  1  0  0  3  0  0  0  0  0  0
  186.6200  177.4920  145.1280 C   0  0  0  0  0  2  0  0  0  0  0  0
  186.4870  177.5800  143.6110 C   0  0  2  0  0  3  0  0  0  0  0  0
  188.3300  177.8140  138.8980 C   0  0  0  0  0  0  0  0  0  0  0  0
  187.7900  177.2110  142.9660 C   0  0  0  0  0  3  0  0  0  0  0  0
  189.4730  177.1460  139.6230 C   0  0  0  0  0  2  0  0  0  0  0  0
  188.4560  178.1220  137.5990 C   0  0  0  0  0  3  0  0  0  0  0  0
  184.6870  178.3600  141.0940 C   0  0  0  0  0  2  0  0  0  0  0  0
  184.5510  178.5090  139.5620 C   0  0  2  0  0  3  0  0  0  0  0  0
  186.0570  178.9870  143.1800 C   0  0  2  0  0  3  0  0  0  0  0  0
  189.3330  177.1660  141.0930 N   0  0  0  0  0  0  0  0  0  0  0  0
  187.3470  178.7810  136.8170 C   0  0  0  0  0  2  0  0  0  0  0  0
  185.3080  177.8960  145.7940 C   0  0  0  0  0  2  0  0  0  0  0  0
  184.7720  179.4240  143.8870 C   0  0  0  0  0  2  0  0  0  0  0  0
  190.4160  176.5670  141.8640 C   0  0  0  0  0  2  0  0  0  0  0  0
  191.4170  177.6330  142.2750 C   0  0  0  0  0  1  0  0  0  0  0  0
  183.6620  177.3560  139.0640 C   0  0  2  0  0  3  0  0  0  0  0  0
  184.3200  176.5010  138.1750 O   0  0  0  0  0  1  0  0  0  0  0  0
  182.2750  177.7650  138.5420 C   0  0  2  0  0  3  0  0  0  0  0  0
  182.1690  179.2320  138.1550 C   0  0  0  0  0  1  0  0  0  0  0  0
  181.0960  177.3130  139.4190 C   0  0  2  0  0  3  0  0  0  0  0  0
  181.0650  178.0140  140.7680 C   0  0  0  0  0  1  0  0  0  0  0  0
  181.0840  175.8060  139.6240 C   0  0  0  0  0  2  0  0  0  0  0  0
  179.6340  173.8340  139.3230 C   0  0  0  0  0  2  0  0  0  0  0  0
  179.6610  175.2910  139.7350 C   0  0  0  0  0  3  0  0  0  0  0  0
  179.6160  174.2070  140.7900 C   0  0  0  0  0  2  0  0  0  0  0  0
  1  3  1  6  0  0  0
  1 15  1  0  0  0  0
  1  4  1  0  0  0  0
  2  7  1  0  0  0  0
  2  5  1  1  0  0  0
  4 10  1  6  0  0  0
  4  2  1  0  0  0  0
  5 11  2  0  0  0  0
  6 19  1  0  0  0  0
  7 14  1  6  0  0  0
  7 16  1  0  0  0  0
  8 19  1  0  0  0  0
  9 11  1  6  0  0  0
  9  8  1  0  0  0  0
 10 12  1  0  0  0  0
 12 17  1  0  0  0  0
 13 10  2  0  0  0  0
 15 23  1  6  0  0  0
 15 14  1  0  0  0  0
 16  9  1  0  0  0  0
 16 20  1  1  0  0  0
 17  5  1  0  0  0  0
 17 21  1  0  0  0  0
 18  3  1  0  0  0  0
 18 13  1  0  0  0  0
 20  6  1  0  0  0  0
 21 22  1  0  0  0  0
 23 24  1  6  0  0  0
 25 26  1  1  0  0  0
 25 23  1  0  0  0  0
 25 27  1  0  0  0  0
 27 29  1  0  0  0  0
 27 28  1  1  0  0  0
 29 31  1  0  0  0  0
 30 31  1  0  0  0  0
 30 32  1  0  0  0  0
 31 32  1  0  0  0  0
M  END
>  <MODEL>
6

>  <REMARK>
 VINA RESULT:      -7.3      2.775      6.366
  Name = 
  6 active torsions:
  status: ('A' for Active; 'I' for Inactive)
    1  A    between atoms: C_3  and  C_15
    2  A    between atoms: C_3  and  C_22
    3  A    between atoms: C_13  and  N_29
    4  A    between atoms: C_15  and  C_19
    5  A    between atoms: C_16  and  C_22
    6  A    between atoms: C_16  and  C_27
                            x       y       z     vdW  Elec       q    Type
                         _______ _______ _______ _____ _____    ______ ____

>  <TORSDO>
F 6

$$$$
=
 OpenBabel11052414353D

 32 37  0  0  1  0  0  0  0  0999 V2000
  188.6930  178.0700  139.9890 C   0  0  2  0  0  3  0  0  0  0  0  0
  189.4570  176.8620  137.9510 C   0  0  2  0  0  3  0  0  0  0  0  0
  187.4520  178.5170  140.7570 C   0  0  0  0  0  2  0  0  0  0  0  0
  188.3590  176.9620  138.9940 C   0  0  2  0  0  3  0  0  0  0  0  0
  189.1960  175.6090  137.1590 C   0  0  0  0  0  0  0  0  0  0  0  0
  194.3250  175.5740  137.4880 C   0  0  0  0  0  2  0  0  0  0  0  0
  190.8840  177.0530  138.5310 C   0  0  1  0  0  3  0  0  0  0  0  0
  192.5160  173.9800  136.8320 C   0  0  0  0  0  2  0  0  0  0  0  0
  191.4980  174.7870  137.6320 C   0  0  2  0  0  3  0  0  0  0  0  0
  187.0380  177.1010  138.2840 C   0  0  0  0  0  0  0  0  0  0  0  0
  190.1470  174.6780  136.9910 C   0  0  0  0  0  3  0  0  0  0  0  0
  186.6880  176.0890  137.2190 C   0  0  0  0  0  2  0  0  0  0  0  0
  186.1140  177.9800  138.6970 C   0  0  0  0  0  3  0  0  0  0  0  0
  190.9350  176.7940  140.0490 C   0  0  0  0  0  2  0  0  0  0  0  0
  189.9310  177.6630  140.8390 C   0  0  2  0  0  3  0  0  0  0  0  0
  191.9240  176.2570  137.7340 C   0  0  2  0  0  3  0  0  0  0  0  0
  187.8630  175.4190  136.6310 N   0  0  0  0  0  0  0  0  0  0  0  0
  186.4010  179.0070  139.7630 C   0  0  0  0  0  2  0  0  0  0  0  0
  193.9000  174.1110  137.4610 C   0  0  0  0  0  2  0  0  0  0  0  0
  193.3350  176.3950  138.3100 C   0  0  0  0  0  2  0  0  0  0  0  0
  187.6060  174.4500  135.5710 C   0  0  0  0  0  2  0  0  0  0  0  0
  186.8550  173.2530  136.1280 C   0  0  0  0  0  1  0  0  0  0  0  0
  189.6570  176.9510  142.1750 C   0  0  2  0  0  3  0  0  0  0  0  0
  188.7070  175.9310  142.0700 O   0  0  0  0  0  1  0  0  0  0  0  0
  189.3750  177.8730  143.3720 C   0  0  2  0  0  3  0  0  0  0  0  0
  190.6080  178.5760  143.9150 C   0  0  0  0  0  1  0  0  0  0  0  0
  188.5330  177.2390  144.4910 C   0  0  2  0  0  3  0  0  0  0  0  0
  187.1360  177.8310  144.5830 C   0  0  0  0  0  1  0  0  0  0  0  0
  189.2200  177.3340  145.8450 C   0  0  0  0  0  2  0  0  0  0  0  0
  188.3040  176.9380  148.1010 C   0  0  0  0  0  2  0  0  0  0  0  0
  188.2610  177.8580  146.8980 C   0  0  0  0  0  3  0  0  0  0  0  0
  189.0540  178.2530  148.1250 C   0  0  0  0  0  2  0  0  0  0  0  0
  1  3  1  1  0  0  0
  1 15  1  0  0  0  0
  2  5  1  1  0  0  0
  2  7  1  0  0  0  0
  2  4  1  0  0  0  0
  4 10  1  6  0  0  0
  4  1  1  0  0  0  0
  6 20  1  0  0  0  0
  7 14  1  1  0  0  0
  8 19  1  0  0  0  0
  9  8  1  6  0  0  0
  9 16  1  0  0  0  0
 10 13  2  0  0  0  0
 11  5  2  0  0  0  0
 11  9  1  0  0  0  0
 12 10  1  0  0  0  0
 13 18  1  0  0  0  0
 14 15  1  0  0  0  0
 15 23  1  1  0  0  0
 16 20  1  1  0  0  0
 16  7  1  0  0  0  0
 17  5  1  0  0  0  0
 17 12  1  0  0  0  0
 18  3  1  0  0  0  0
 19  6  1  0  0  0  0
 21 22  1  0  0  0  0
 21 17  1  0  0  0  0
 23 24  1  6  0  0  0
 23 25  1  0  0  0  0
 25 26  1  1  0  0  0
 25 27  1  0  0  0  0
 27 28  1  1  0  0  0
 27 29  1  0  0  0  0
 29 31  1  0  0  0  0
 30 32  1  0  0  0  0
 31 30  1  0  0  0  0
 31 32  1  0  0  0  0
M  END
>  <MODEL>
7

>  <REMARK>
 VINA RESULT:      -7.2      3.282      7.850
  Name = 
  6 active torsions:
  status: ('A' for Active; 'I' for Inactive)
    1  A    between atoms: C_3  and  C_15
    2  A    between atoms: C_3  and  C_22
    3  A    between atoms: C_13  and  N_29
    4  A    between atoms: C_15  and  C_19
    5  A    between atoms: C_16  and  C_22
    6  A    between atoms: C_16  and  C_27
                            x       y       z     vdW  Elec       q    Type
                         _______ _______ _______ _____ _____    ______ ____

>  <TORSDO>
F 6

$$$$
=
 OpenBabel11052414353D

 32 37  0  0  1  0  0  0  0  0999 V2000
  190.4270  177.7420  139.6280 C   0  0  2  0  0  3  0  0  0  0  0  0
  189.4100  178.1750  141.8590 C   0  0  2  0  0  3  0  0  0  0  0  0
  191.6680  177.1890  138.9330 C   0  0  0  0  0  2  0  0  0  0  0  0
  190.3520  177.2750  141.0790 C   0  0  2  0  0  3  0  0  0  0  0  0
  189.1910  177.5240  143.1980 C   0  0  0  0  0  0  0  0  0  0  0  0
  184.5130  179.3910  142.1790 C   0  0  0  0  0  2  0  0  0  0  0  0
  188.1490  178.5960  141.0580 C   0  0  1  0  0  3  0  0  0  0  0  0
  185.5380  177.7890  143.7990 C   0  0  0  0  0  2  0  0  0  0  0  0
  186.7250  177.5830  142.8640 C   0  0  2  0  0  3  0  0  0  0  0  0
  191.6670  177.2140  141.8120 C   0  0  0  0  0  0  0  0  0  0  0  0
  187.9570  177.2860  143.6660 C   0  0  0  0  0  3  0  0  0  0  0  0
  191.6540  176.8510  143.2770 C   0  0  0  0  0  2  0  0  0  0  0  0
  192.8340  177.2980  141.1570 C   0  0  0  0  0  3  0  0  0  0  0  0
  187.8610  177.6430  139.8820 C   0  0  0  0  0  2  0  0  0  0  0  0
  189.0630  177.4950  138.9230 C   0  0  2  0  0  3  0  0  0  0  0  0
  186.9460  178.8180  141.9820 C   0  0  2  0  0  3  0  0  0  0  0  0
  190.3630  177.1150  143.9410 N   0  0  0  0  0  0  0  0  0  0  0  0
  192.9110  177.6470  139.6920 C   0  0  0  0  0  2  0  0  0  0  0  0
  184.2860  178.1230  142.9930 C   0  0  0  0  0  2  0  0  0  0  0  0
  185.6790  179.1950  141.2130 C   0  0  0  0  0  2  0  0  0  0  0  0
  190.2840  176.8190  145.3670 C   0  0  0  0  0  2  0  0  0  0  0  0
  191.6720  176.5610  145.9260 C   0  0  0  0  0  1  0  0  0  0  0  0
  188.8940  176.1600  138.1760 C   0  0  2  0  0  3  0  0  0  0  0  0
  189.8630  175.2130  138.5170 O   0  0  0  0  0  1  0  0  0  0  0  0
  188.7150  176.2710  136.6530 C   0  0  2  0  0  3  0  0  0  0  0  0
  188.9480  177.6690  136.1040 C   0  0  0  0  0  1  0  0  0  0  0  0
  187.4200  175.6460  136.1080 C   0  0  2  0  0  3  0  0  0  0  0  0
  187.0320  176.1930  134.7440 C   0  0  0  0  0  1  0  0  0  0  0  0
  186.2570  175.8080  137.0760 C   0  0  0  0  0  2  0  0  0  0  0  0
  184.0120  176.7840  137.3740 C   0  0  0  0  0  2  0  0  0  0  0  0
  185.3070  176.8890  136.5960 C   0  0  0  0  0  3  0  0  0  0  0  0
  185.0330  177.8400  137.7410 C   0  0  0  0  0  2  0  0  0  0  0  0
  1  3  1  6  0  0  0
  1  4  1  0  0  0  0
  2  5  1  1  0  0  0
  3 18  1  0  0  0  0
  4 10  1  1  0  0  0
  4  2  1  0  0  0  0
  5 11  2  0  0  0  0
  5 17  1  0  0  0  0
  6 19  1  0  0  0  0
  7 14  1  6  0  0  0
  7  2  1  0  0  0  0
  7 16  1  0  0  0  0
  9 11  1  1  0  0  0
  9  8  1  0  0  0  0
 10 12  1  0  0  0  0
 12 17  1  0  0  0  0
 13 10  2  0  0  0  0
 15 23  1  1  0  0  0
 15  1  1  0  0  0  0
 15 14  1  0  0  0  0
 16 20  1  6  0  0  0
 16  9  1  0  0  0  0
 17 21  1  0  0  0  0
 18 13  1  0  0  0  0
 19  8  1  0  0  0  0
 20  6  1  0  0  0  0
 21 22  1  0  0  0  0
 23 24  1  6  0  0  0
 25 26  1  1  0  0  0
 25 23  1  0  0  0  0
 27 28  1  6  0  0  0
 27 25  1  0  0  0  0
 27 29  1  0  0  0  0
 30 32  1  0  0  0  0
 31 29  1  0  0  0  0
 31 30  1  0  0  0  0
 31 32  1  0  0  0  0
M  END
>  <MODEL>
8

>  <REMARK>
 VINA RESULT:      -7.0      2.406      5.913
  Name = 
  6 active torsions:
  status: ('A' for Active; 'I' for Inactive)
    1  A    between atoms: C_3  and  C_15
    2  A    between atoms: C_3  and  C_22
    3  A    between atoms: C_13  and  N_29
    4  A    between atoms: C_15  and  C_19
    5  A    between atoms: C_16  and  C_22
    6  A    between atoms: C_16  and  C_27
                            x       y       z     vdW  Elec       q    Type
                         _______ _______ _______ _____ _____    ______ ____

>  <TORSDO>
F 6

$$$$
=
 OpenBabel11052414353D

 32 37  0  0  1  0  0  0  0  0999 V2000
  185.1030  178.9480  141.9820 C   0  0  2  0  0  3  0  0  0  0  0  0
  184.8010  178.5490  139.5430 C   0  0  2  0  0  3  0  0  0  0  0  0
  184.3980  178.8730  143.3330 C   0  0  0  0  0  2  0  0  0  0  0  0
  184.3800  178.1070  140.9330 C   0  0  2  0  0  3  0  0  0  0  0  0
  184.2530  177.5340  138.5760 C   0  0  0  0  0  0  0  0  0  0  0  0
  188.8320  178.5820  136.4890 C   0  0  0  0  0  2  0  0  0  0  0  0
  186.3110  178.8940  139.4320 C   0  0  1  0  0  3  0  0  0  0  0  0
  187.0420  176.8580  136.2220 C   0  0  0  0  0  2  0  0  0  0  0  0
  186.5230  177.1620  137.6230 C   0  0  2  0  0  3  0  0  0  0  0  0
  182.8760  178.1300  141.0040 C   0  0  0  0  0  0  0  0  0  0  0  0
  185.0430  176.9270  137.6770 C   0  0  0  0  0  3  0  0  0  0  0  0
  182.0970  177.3950  139.9390 C   0  0  0  0  0  2  0  0  0  0  0  0
  182.2360  178.6280  142.0720 C   0  0  0  0  0  3  0  0  0  0  0  0
  187.1400  178.2500  140.5590 C   0  0  0  0  0  2  0  0  0  0  0  0
  186.6230  178.6180  141.9680 C   0  0  2  0  0  3  0  0  0  0  0  0
  186.8500  178.6050  138.0270 C   0  0  2  0  0  3  0  0  0  0  0  0
  182.8510  177.1970  138.6860 N   0  0  0  0  0  0  0  0  0  0  0  0
  182.9600  179.3630  143.1730 C   0  0  0  0  0  2  0  0  0  0  0  0
  188.5430  177.1240  136.1490 C   0  0  0  0  0  2  0  0  0  0  0  0
  188.3470  178.8990  137.9020 C   0  0  0  0  0  2  0  0  0  0  0  0
  182.1530  176.5220  137.5980 C   0  0  0  0  0  2  0  0  0  0  0  0
  181.4890  177.5420  136.6900 C   0  0  0  0  0  1  0  0  0  0  0  0
  187.1100  177.5250  142.9370 C   0  0  2  0  0  3  0  0  0  0  0  0
  186.5100  177.6020  144.1970 O   0  0  0  0  0  1  0  0  0  0  0  0
  188.6350  177.3620  143.0390 C   0  0  2  0  0  3  0  0  0  0  0  0
  189.1130  175.9250  142.9020 C   0  0  0  0  0  1  0  0  0  0  0  0
  189.2810  178.0730  144.2400 C   0  0  2  0  0  3  0  0  0  0  0  0
  190.5520  178.8170  143.8680 C   0  0  0  0  0  1  0  0  0  0  0  0
  189.5660  177.1120  145.3850 C   0  0  0  0  0  2  0  0  0  0  0  0
  191.1070  176.5690  147.2320 C   0  0  0  0  0  2  0  0  0  0  0  0
  190.9670  177.3240  145.9270 C   0  0  0  0  0  3  0  0  0  0  0  0
  191.6840  175.9920  145.9570 C   0  0  0  0  0  2  0  0  0  0  0  0
  1  3  1  1  0  0  0
  2  5  1  6  0  0  0
  2  4  1  0  0  0  0
  4 10  1  6  0  0  0
  4  1  1  0  0  0  0
  5 17  1  0  0  0  0
  6 20  1  0  0  0  0
  7  2  1  0  0  0  0
  7 14  1  1  0  0  0
  9  8  1  6  0  0  0
  9 11  1  0  0  0  0
  9 16  1  0  0  0  0
 10 13  2  0  0  0  0
 11  5  2  0  0  0  0
 12 10  1  0  0  0  0
 13 18  1  0  0  0  0
 14 15  1  0  0  0  0
 15  1  1  0  0  0  0
 15 23  1  1  0  0  0
 16 20  1  1  0  0  0
 16  7  1  0  0  0  0
 17 12  1  0  0  0  0
 18  3  1  0  0  0  0
 19  8  1  0  0  0  0
 19  6  1  0  0  0  0
 21 17  1  0  0  0  0
 22 21  1  0  0  0  0
 23 25  1  0  0  0  0
 23 24  1  1  0  0  0
 25 26  1  1  0  0  0
 25 27  1  0  0  0  0
 27 28  1  6  0  0  0
 27 29  1  0  0  0  0
 29 31  1  0  0  0  0
 31 32  1  0  0  0  0
 31 30  1  0  0  0  0
 32 30  1  0  0  0  0
M  END
>  <MODEL>
9

>  <REMARK>
 VINA RESULT:      -7.0      2.541      6.984
  Name = 
  6 active torsions:
  status: ('A' for Active; 'I' for Inactive)
    1  A    between atoms: C_3  and  C_15
    2  A    between atoms: C_3  and  C_22
    3  A    between atoms: C_13  and  N_29
    4  A    between atoms: C_15  and  C_19
    5  A    between atoms: C_16  and  C_22
    6  A    between atoms: C_16  and  C_27
                            x       y       z     vdW  Elec       q    Type
                         _______ _______ _______ _____ _____    ______ ____

>  <TORSDO>
F 6

$$$$
