=
 OpenBabel11052414353D

 32 37  0  0  1  0  0  0  0  0999 V2000
  184.9240  178.8830  143.0880 C   0  0  0  0  0  0  0  0  0  0  0  0
  187.0970  177.8740  143.5620 C   0  0  0  0  0  0  0  0  0  0  0  0
  183.6700  179.3100  143.5490 C   0  0  0  0  0  3  0  0  0  0  0  0
  185.8530  178.3530  144.0040 C   0  0  0  0  0  0  0  0  0  0  0  0
  188.0180  177.3770  144.5050 C   0  0  0  0  0  0  0  0  0  0  0  0
  190.7240  177.1660  140.1910 C   0  0  0  0  0  2  0  0  0  0  0  0
  187.4030  177.8100  142.0740 C   0  0  1  0  0  3  0  0  0  0  0  0
  191.0880  176.6460  142.3780 C   0  0  0  0  0  2  0  0  0  0  0  0
  189.5750  176.7140  142.6510 C   0  0  1  0  0  3  0  0  0  0  0  0
  185.5400  178.3000  145.3770 C   0  0  0  0  0  0  0  0  0  0  0  0
  189.3030  176.9090  144.0690 N   0  0  0  0  0  2  0  0  0  0  0  0
  186.4530  177.8220  146.2630 N   0  0  0  0  0  0  0  0  0  0  0  0
  184.2890  178.7350  145.8230 C   0  0  0  0  0  3  0  0  0  0  0  0
  186.7130  178.9640  141.3430 C   0  0  0  0  0  2  0  0  0  0  0  0
  185.2920  179.0070  141.7020 N   0  0  0  0  0  0  0  0  0  0  0  0
  188.9140  177.8220  141.8260 C   0  0  1  0  0  3  0  0  0  0  0  0
  187.6780  177.3810  145.8680 C   0  0  0  0  0  0  0  0  0  0  0  0
  183.3550  179.2330  144.9100 C   0  0  0  0  0  3  0  0  0  0  0  0
  191.4870  177.5030  141.3250 O   0  0  0  0  0  0  0  0  0  0  0  0
  189.2740  177.6520  140.3460 C   0  0  0  0  0  2  0  0  0  0  0  0
  183.4350  177.2140  139.4880 N   0  0  0  0  0  0  0  0  0  0  0  0
  183.0560  175.8270  139.2720 C   0  0  0  0  0  1  0  0  0  0  0  0
  184.3990  177.9290  138.7290 C   0  0  0  0  0  0  0  0  0  0  0  0
  184.2660  179.0710  140.6620 C   0  0  1  0  0  3  0  0  0  0  0  0
  184.8740  178.9580  139.3390 N   0  0  0  0  0  0  0  0  0  0  0  0
  183.3140  177.8740  140.7740 C   0  0  1  0  0  3  0  0  0  0  0  0
  181.8950  178.3730  140.9690 C   0  0  0  0  0  1  0  0  0  0  0  0
  183.9030  177.5030  136.3410 O   0  0  0  0  0  0  0  0  0  0  0  0
  184.8330  177.5630  137.3710 C   0  0  0  0  0  0  0  0  0  0  0  0
  186.0390  177.2930  137.1330 O   0  0  0  0  0  1  0  0  0  0  0  0
  188.6270  176.8590  146.8950 C   0  0  0  0  0  2  0  0  0  0  0  0
  188.6720  177.7980  148.0850 C   0  0  0  0  0  1  0  0  0  0  0  0
  1  3  2  0  0  0  0
  1  4  1  0  0  0  0
  2  4  2  0  0  0  0
  2  5  1  0  0  0  0
  3 18  1  0  0  0  0
  4 10  1  0  0  0  0
  5 17  2  0  0  0  0
  6 20  1  0  0  0  0
  6 19  1  0  0  0  0
  7 14  1  6  0  0  0
  7  2  1  0  0  0  0
  9  8  1  1  0  0  0
  9 11  1  0  0  0  0
 10 13  1  0  0  0  0
 10 12  2  0  0  0  0
 11  5  1  0  0  0  0
 14 15  1  0  0  0  0
 15  1  1  0  0  0  0
 16 20  1  6  0  0  0
 16  7  1  0  0  0  0
 16  9  1  0  0  0  0
 17 12  1  0  0  0  0
 17 31  1  0  0  0  0
 18 13  2  0  0  0  0
 19  8  1  0  0  0  0
 21 26  1  0  0  0  0
 22 21  1  0  0  0  0
 23 25  2  0  0  0  0
 23 21  1  0  0  0  0
 24 26  1  0  0  0  0
 24 15  1  1  0  0  0
 25 24  1  0  0  0  0
 26 27  1  6  0  0  0
 28 29  2  0  0  0  0
 29 23  1  0  0  0  0
 30 29  1  0  0  0  0
 31 32  1  0  0  0  0
M  END
>  <MODEL>
1

>  <REMARK>
 VINA RESULT:     -10.2      0.000      0.000
  Name = 
  3 active torsions:
  status: ('A' for Active; 'I' for Inactive)
    1  A    between atoms: C_13  and  C_29
    2  A    between atoms: C_15  and  C_19
    3  A    between atoms: C_16  and  N_27
                            x       y       z     vdW  Elec       q    Type
                         _______ _______ _______ _____ _____    ______ ____

>  <TORSDO>
F 3

$$$$
=
 OpenBabel11052414353D

 32 37  0  0  1  0  0  0  0  0999 V2000
  184.5630  178.5360  143.2070 C   0  0  0  0  0  0  0  0  0  0  0  0
  186.9250  177.9280  143.1050 C   0  0  0  0  0  0  0  0  0  0  0  0
  183.4230  178.8110  143.9790 C   0  0  0  0  0  3  0  0  0  0  0  0
  185.7810  178.2540  143.8530 C   0  0  0  0  0  0  0  0  0  0  0  0
  188.1390  177.6800  143.7760 C   0  0  0  0  0  0  0  0  0  0  0  0
  189.5770  177.4380  138.8920 C   0  0  0  0  0  2  0  0  0  0  0  0
  186.8260  177.7570  141.5980 C   0  0  1  0  0  3  0  0  0  0  0  0
  190.6020  177.2120  140.9140 C   0  0  0  0  0  2  0  0  0  0  0  0
  189.2310  177.0740  141.5990 C   0  0  1  0  0  3  0  0  0  0  0  0
  185.8640  178.2970  145.2580 C   0  0  0  0  0  0  0  0  0  0  0  0
  189.3210  177.3720  143.0220 N   0  0  0  0  0  2  0  0  0  0  0  0
  187.0510  178.0600  145.8760 N   0  0  0  0  0  0  0  0  0  0  0  0
  184.7230  178.5780  146.0140 C   0  0  0  0  0  3  0  0  0  0  0  0
  185.7720  178.7080  141.0270 C   0  0  0  0  0  2  0  0  0  0  0  0
  184.5160  178.5690  141.7700 N   0  0  0  0  0  0  0  0  0  0  0  0
  188.1880  177.9750  140.9330 C   0  0  1  0  0  3  0  0  0  0  0  0
  188.1830  177.7730  145.1780 C   0  0  0  0  0  0  0  0  0  0  0  0
  183.5040  178.8280  145.3760 C   0  0  0  0  0  3  0  0  0  0  0  0
  190.5460  178.0050  139.7440 O   0  0  0  0  0  0  0  0  0  0  0  0
  188.1610  177.7090  139.4230 C   0  0  0  0  0  2  0  0  0  0  0  0
  183.0270  178.3230  138.7230 N   0  0  0  0  0  0  0  0  0  0  0  0
  183.4240  178.0920  137.3430 C   0  0  0  0  0  1  0  0  0  0  0  0
  182.6400  179.5760  139.2670 C   0  0  0  0  0  0  0  0  0  0  0  0
  183.2540  178.3660  141.0600 C   0  0  1  0  0  3  0  0  0  0  0  0
  182.7460  179.6350  140.5480 N   0  0  0  0  0  0  0  0  0  0  0  0
  183.4710  177.4880  139.8220 C   0  0  1  0  0  3  0  0  0  0  0  0
  182.5980  176.2510  139.9190 C   0  0  0  0  0  1  0  0  0  0  0  0
  181.1190  180.5360  137.5640 O   0  0  0  0  0  0  0  0  0  0  0  0
  182.1530  180.7170  138.4740 C   0  0  0  0  0  0  0  0  0  0  0  0
  182.6710  181.8570  138.6040 O   0  0  0  0  0  1  0  0  0  0  0  0
  189.4500  177.5140  145.9220 C   0  0  0  0  0  2  0  0  0  0  0  0
  189.1820  177.5040  147.4150 C   0  0  0  0  0  1  0  0  0  0  0  0
  1  4  2  0  0  0  0
  1  3  1  0  0  0  0
  2  5  2  0  0  0  0
  2  4  1  0  0  0  0
  3 18  2  0  0  0  0
  4 10  1  0  0  0  0
  5 17  1  0  0  0  0
  6 20  1  0  0  0  0
  6 19  1  0  0  0  0
  7 14  1  6  0  0  0
  7  2  1  0  0  0  0
  9  8  1  6  0  0  0
  9 11  1  0  0  0  0
 10 12  1  0  0  0  0
 10 13  2  0  0  0  0
 11  5  1  0  0  0  0
 14 15  1  0  0  0  0
 15  1  1  0  0  0  0
 16 20  1  6  0  0  0
 16  7  1  0  0  0  0
 16  9  1  0  0  0  0
 17 12  2  0  0  0  0
 17 31  1  0  0  0  0
 18 13  1  0  0  0  0
 19  8  1  0  0  0  0
 21 23  1  0  0  0  0
 21 26  1  0  0  0  0
 22 21  1  0  0  0  0
 23 25  2  0  0  0  0
 24 15  1  6  0  0  0
 25 24  1  0  0  0  0
 26 27  1  1  0  0  0
 26 24  1  0  0  0  0
 28 29  2  0  0  0  0
 29 30  1  0  0  0  0
 29 23  1  0  0  0  0
 31 32  1  0  0  0  0
M  END
>  <MODEL>
2

>  <REMARK>
 VINA RESULT:      -9.5      1.717      2.001
  Name = 
  3 active torsions:
  status: ('A' for Active; 'I' for Inactive)
    1  A    between atoms: C_13  and  C_29
    2  A    between atoms: C_15  and  C_19
    3  A    between atoms: C_16  and  N_27
                            x       y       z     vdW  Elec       q    Type
                         _______ _______ _______ _____ _____    ______ ____

>  <TORSDO>
F 3

$$$$
=
 OpenBabel11052414353D

 32 37  0  0  1  0  0  0  0  0999 V2000
  189.8740  177.1030  142.5970 C   0  0  0  0  0  0  0  0  0  0  0  0
  187.9010  177.7820  143.8650 C   0  0  0  0  0  0  0  0  0  0  0  0
  191.2130  176.6830  142.5890 C   0  0  0  0  0  3  0  0  0  0  0  0
  189.2250  177.3160  143.8280 C   0  0  0  0  0  0  0  0  0  0  0  0
  187.2670  177.9580  145.1110 C   0  0  0  0  0  0  0  0  0  0  0  0
  183.4780  178.9800  141.8580 C   0  0  0  0  0  2  0  0  0  0  0  0
  187.1980  178.1790  142.5770 C   0  0  1  0  0  3  0  0  0  0  0  0
  183.7210  178.9230  144.1220 C   0  0  0  0  0  2  0  0  0  0  0  0
  185.2510  178.9170  143.9620 C   0  0  1  0  0  3  0  0  0  0  0  0
  189.9020  177.0610  145.0380 C   0  0  0  0  0  0  0  0  0  0  0  0
  185.9050  178.4080  145.1610 N   0  0  0  0  0  2  0  0  0  0  0  0
  189.2600  177.2320  146.2240 N   0  0  0  0  0  0  0  0  0  0  0  0
  191.2330  176.6370  145.0140 C   0  0  0  0  0  3  0  0  0  0  0  0
  187.6770  177.2980  141.4210 C   0  0  0  0  0  2  0  0  0  0  0  0
  189.1420  177.2880  141.3730 N   0  0  0  0  0  0  0  0  0  0  0  0
  185.6770  178.1010  142.7390 C   0  0  1  0  0  3  0  0  0  0  0  0
  187.9670  177.6520  146.2900 C   0  0  0  0  0  0  0  0  0  0  0  0
  191.8880  176.4550  143.7930 C   0  0  0  0  0  3  0  0  0  0  0  0
  183.0610  178.3160  143.0280 O   0  0  0  0  0  0  0  0  0  0  0  0
  184.9220  178.5940  141.4990 C   0  0  0  0  0  2  0  0  0  0  0  0
  189.2080  176.7260  138.0200 N   0  0  0  0  0  0  0  0  0  0  0  0
  188.3030  176.2450  136.9880 C   0  0  0  0  0  1  0  0  0  0  0  0
  190.2820  175.9840  138.5800 C   0  0  0  0  0  0  0  0  0  0  0  0
  189.8440  177.5640  140.1190 C   0  0  1  0  0  3  0  0  0  0  0  0
  190.6610  176.4190  139.7300 N   0  0  0  0  0  0  0  0  0  0  0  0
  188.8410  177.7540  138.9750 C   0  0  1  0  0  3  0  0  0  0  0  0
  189.0310  179.1260  138.3580 C   0  0  0  0  0  1  0  0  0  0  0  0
  190.1680  173.7250  137.5730 O   0  0  0  0  0  0  0  0  0  0  0  0
  190.9270  174.8310  137.9330 C   0  0  0  0  0  0  0  0  0  0  0  0
  192.1660  174.8290  137.7100 O   0  0  0  0  0  1  0  0  0  0  0  0
  187.3290  177.8290  147.6270 C   0  0  0  0  0  2  0  0  0  0  0  0
  188.3910  178.0890  148.6790 C   0  0  0  0  0  1  0  0  0  0  0  0
  1  4  1  0  0  0  0
  2  5  1  0  0  0  0
  3  1  2  0  0  0  0
  3 18  1  0  0  0  0
  4  2  2  0  0  0  0
  4 10  1  0  0  0  0
  5 11  1  0  0  0  0
  5 17  2  0  0  0  0
  6 19  1  0  0  0  0
  7 14  1  6  0  0  0
  7 16  1  0  0  0  0
  7  2  1  0  0  0  0
  9  8  1  1  0  0  0
  9 11  1  0  0  0  0
 10 12  2  0  0  0  0
 12 17  1  0  0  0  0
 13 10  1  0  0  0  0
 15 14  1  0  0  0  0
 15  1  1  0  0  0  0
 16 20  1  6  0  0  0
 16  9  1  0  0  0  0
 17 31  1  0  0  0  0
 18 13  2  0  0  0  0
 19  8  1  0  0  0  0
 20  6  1  0  0  0  0
 21 23  1  0  0  0  0
 21 26  1  0  0  0  0
 22 21  1  0  0  0  0
 23 25  2  0  0  0  0
 24 15  1  1  0  0  0
 25 24  1  0  0  0  0
 26 27  1  6  0  0  0
 26 24  1  0  0  0  0
 28 29  2  0  0  0  0
 29 23  1  0  0  0  0
 30 29  1  0  0  0  0
 31 32  1  0  0  0  0
M  END
>  <MODEL>
3

>  <REMARK>
 VINA RESULT:      -9.4      2.746      5.541
  Name = 
  3 active torsions:
  status: ('A' for Active; 'I' for Inactive)
    1  A    between atoms: C_13  and  C_29
    2  A    between atoms: C_15  and  C_19
    3  A    between atoms: C_16  and  N_27
                            x       y       z     vdW  Elec       q    Type
                         _______ _______ _______ _____ _____    ______ ____

>  <TORSDO>
F 3

$$$$
=
 OpenBabel11052414353D

 32 37  0  0  1  0  0  0  0  0999 V2000
  184.9470  178.3430  143.2290 C   0  0  0  0  0  0  0  0  0  0  0  0
  187.2770  177.8420  143.7590 C   0  0  0  0  0  0  0  0  0  0  0  0
  183.6460  178.6270  143.6730 C   0  0  0  0  0  3  0  0  0  0  0  0
  185.9770  178.1750  144.1740 C   0  0  0  0  0  0  0  0  0  0  0  0
  188.2950  177.7090  144.7240 C   0  0  0  0  0  0  0  0  0  0  0  0
  190.8940  177.1280  140.3790 C   0  0  0  0  0  2  0  0  0  0  0  0
  187.5550  177.5410  142.2960 C   0  0  1  0  0  3  0  0  0  0  0  0
  191.3970  177.1210  142.6000 C   0  0  0  0  0  2  0  0  0  0  0  0
  189.9030  176.9760  142.9420 C   0  0  1  0  0  3  0  0  0  0  0  0
  185.7100  178.3390  145.5480 C   0  0  0  0  0  0  0  0  0  0  0  0
  189.6330  177.3970  144.3110 N   0  0  0  0  0  2  0  0  0  0  0  0
  186.7150  178.2120  146.4540 N   0  0  0  0  0  0  0  0  0  0  0  0
  184.4120  178.6280  145.9750 C   0  0  0  0  0  3  0  0  0  0  0  0
  186.6490  178.3890  141.4010 C   0  0  0  0  0  2  0  0  0  0  0  0
  185.2540  178.2540  141.8270 N   0  0  0  0  0  0  0  0  0  0  0  0
  189.0320  177.7670  141.9620 C   0  0  1  0  0  3  0  0  0  0  0  0
  187.9920  177.9230  146.0800 C   0  0  0  0  0  0  0  0  0  0  0  0
  183.3810  178.7650  145.0400 C   0  0  0  0  0  3  0  0  0  0  0  0
  191.6090  177.8100  141.3820 O   0  0  0  0  0  0  0  0  0  0  0  0
  189.3830  177.3740  140.5230 C   0  0  0  0  0  2  0  0  0  0  0  0
  182.9580  179.5210  139.6610 N   0  0  0  0  0  0  0  0  0  0  0  0
  182.6840  180.7840  138.9960 C   0  0  0  0  0  1  0  0  0  0  0  0
  182.2340  179.0010  140.7670 C   0  0  0  0  0  0  0  0  0  0  0  0
  184.2100  177.9310  140.8540 C   0  0  1  0  0  3  0  0  0  0  0  0
  182.8880  178.1220  141.4430 N   0  0  0  0  0  0  0  0  0  0  0  0
  184.2680  178.8980  139.6660 C   0  0  1  0  0  3  0  0  0  0  0  0
  184.4740  178.1140  138.3840 C   0  0  0  0  0  1  0  0  0  0  0  0
  180.6430  180.1280  142.2950 O   0  0  0  0  0  1  0  0  0  0  0  0
  180.8650  179.4010  141.1320 C   0  0  0  0  0  0  0  0  0  0  0  0
  179.8880  179.0820  140.4050 O   0  0  0  0  0  0  0  0  0  0  0  0
  189.0430  177.7870  147.1300 C   0  0  0  0  0  2  0  0  0  0  0  0
  188.5030  178.2530  148.4690 C   0  0  0  0  0  1  0  0  0  0  0  0
  1  3  2  0  0  0  0
  1  4  1  0  0  0  0
  2  4  2  0  0  0  0
  2  5  1  0  0  0  0
  3 18  1  0  0  0  0
  4 10  1  0  0  0  0
  5 17  2  0  0  0  0
  6 20  1  0  0  0  0
  6 19  1  0  0  0  0
  7 14  1  6  0  0  0
  7  2  1  0  0  0  0
  9  8  1  6  0  0  0
  9 11  1  0  0  0  0
 10 13  1  0  0  0  0
 10 12  2  0  0  0  0
 11  5  1  0  0  0  0
 14 15  1  0  0  0  0
 15  1  1  0  0  0  0
 16 20  1  6  0  0  0
 16  7  1  0  0  0  0
 16  9  1  0  0  0  0
 17 12  1  0  0  0  0
 17 31  1  0  0  0  0
 18 13  2  0  0  0  0
 19  8  1  0  0  0  0
 21 26  1  0  0  0  0
 21 23  1  0  0  0  0
 22 21  1  0  0  0  0
 23 29  1  0  0  0  0
 23 25  2  0  0  0  0
 24 25  1  0  0  0  0
 24 15  1  1  0  0  0
 26 27  1  6  0  0  0
 26 24  1  0  0  0  0
 29 28  1  0  0  0  0
 30 29  2  0  0  0  0
 31 32  1  0  0  0  0
M  END
>  <MODEL>
4

>  <REMARK>
 VINA RESULT:      -9.2      1.905      2.571
  Name = 
  3 active torsions:
  status: ('A' for Active; 'I' for Inactive)
    1  A    between atoms: C_13  and  C_29
    2  A    between atoms: C_15  and  C_19
    3  A    between atoms: C_16  and  N_27
                            x       y       z     vdW  Elec       q    Type
                         _______ _______ _______ _____ _____    ______ ____

>  <TORSDO>
F 3

$$$$
=
 OpenBabel11052414353D

 32 37  0  0  1  0  0  0  0  0999 V2000
  187.2760  178.1300  144.8360 C   0  0  0  0  0  0  0  0  0  0  0  0
  185.7420  178.5090  142.9740 C   0  0  0  0  0  0  0  0  0  0  0  0
  187.4940  178.0550  146.2200 C   0  0  0  0  0  3  0  0  0  0  0  0
  185.9780  178.3820  144.3530 C   0  0  0  0  0  0  0  0  0  0  0  0
  184.4280  178.7320  142.5190 C   0  0  0  0  0  0  0  0  0  0  0  0
  186.9820  178.2290  138.1370 C   0  0  0  0  0  2  0  0  0  0  0  0
  186.9070  178.4970  141.9990 C   0  0  1  0  0  3  0  0  0  0  0  0
  184.8190  178.6170  138.7350 C   0  0  0  0  0  2  0  0  0  0  0  0
  185.2720  178.9600  140.1650 C   0  0  1  0  0  3  0  0  0  0  0  0
  184.9020  178.5100  145.2530 C   0  0  0  0  0  0  0  0  0  0  0  0
  184.1690  178.8370  141.1110 N   0  0  0  0  0  2  0  0  0  0  0  0
  183.6440  178.7160  144.7820 N   0  0  0  0  0  0  0  0  0  0  0  0
  185.1310  178.4270  146.6290 C   0  0  0  0  0  3  0  0  0  0  0  0
  188.0170  177.5780  142.5140 C   0  0  0  0  0  2  0  0  0  0  0  0
  188.3480  177.9200  143.9000 N   0  0  0  0  0  0  0  0  0  0  0  0
  186.4450  178.0780  140.6000 C   0  0  1  0  0  3  0  0  0  0  0  0
  183.3790  178.8120  143.4500 C   0  0  0  0  0  0  0  0  0  0  0  0
  186.4250  178.2070  147.1110 C   0  0  0  0  0  3  0  0  0  0  0  0
  185.6810  177.6900  138.1020 O   0  0  0  0  0  0  0  0  0  0  0  0
  187.5650  178.1530  139.5570 C   0  0  0  0  0  2  0  0  0  0  0  0
  191.3360  176.4450  144.5810 N   0  0  0  0  0  0  0  0  0  0  0  0
  191.9860  175.1650  144.3480 C   0  0  0  0  0  1  0  0  0  0  0  0
  190.8020  176.8800  145.8230 C   0  0  0  0  0  0  0  0  0  0  0  0
  189.7390  178.1430  144.2960 C   0  0  1  0  0  3  0  0  0  0  0  0
  189.9260  177.8150  145.7060 N   0  0  0  0  0  0  0  0  0  0  0  0
  190.6710  177.1960  143.5330 C   0  0  1  0  0  3  0  0  0  0  0  0
  191.6890  178.0060  142.7530 C   0  0  0  0  0  1  0  0  0  0  0  0
  192.0940  177.0410  147.9300 O   0  0  0  0  0  1  0  0  0  0  0  0
  191.1940  176.3420  147.1360 C   0  0  0  0  0  0  0  0  0  0  0  0
  190.7290  175.2460  147.5450 O   0  0  0  0  0  0  0  0  0  0  0  0
  181.9750  179.0500  143.0040 C   0  0  0  0  0  2  0  0  0  0  0  0
  181.0050  178.6010  144.0810 C   0  0  0  0  0  1  0  0  0  0  0  0
  1  3  1  0  0  0  0
  2  4  1  0  0  0  0
  3 18  2  0  0  0  0
  4  1  2  0  0  0  0
  4 10  1  0  0  0  0
  5  2  2  0  0  0  0
  5 17  1  0  0  0  0
  6 20  1  0  0  0  0
  7 14  1  1  0  0  0
  7  2  1  0  0  0  0
  9  8  1  6  0  0  0
  9 16  1  0  0  0  0
  9 11  1  0  0  0  0
 10 13  2  0  0  0  0
 11  5  1  0  0  0  0
 12 10  1  0  0  0  0
 13 18  1  0  0  0  0
 14 15  1  0  0  0  0
 15  1  1  0  0  0  0
 16 20  1  6  0  0  0
 16  7  1  0  0  0  0
 17 12  2  0  0  0  0
 19  6  1  0  0  0  0
 19  8  1  0  0  0  0
 21 23  1  0  0  0  0
 22 21  1  0  0  0  0
 23 29  1  0  0  0  0
 24 15  1  6  0  0  0
 24 25  1  0  0  0  0
 25 23  2  0  0  0  0
 26 27  1  1  0  0  0
 26 24  1  0  0  0  0
 26 21  1  0  0  0  0
 29 30  2  0  0  0  0
 29 28  1  0  0  0  0
 31 17  1  0  0  0  0
 31 32  1  0  0  0  0
M  END
>  <MODEL>
5

>  <REMARK>
 VINA RESULT:      -9.2      2.329      6.853
  Name = 
  3 active torsions:
  status: ('A' for Active; 'I' for Inactive)
    1  A    between atoms: C_13  and  C_29
    2  A    between atoms: C_15  and  C_19
    3  A    between atoms: C_16  and  N_27
                            x       y       z     vdW  Elec       q    Type
                         _______ _______ _______ _____ _____    ______ ____

>  <TORSDO>
F 3

$$$$
=
 OpenBabel11052414353D

 32 37  0  0  1  0  0  0  0  0999 V2000
  184.1350  178.6110  143.0460 C   0  0  0  0  0  0  0  0  0  0  0  0
  186.4720  178.1340  142.5250 C   0  0  0  0  0  0  0  0  0  0  0  0
  183.1250  178.7740  144.0070 C   0  0  0  0  0  3  0  0  0  0  0  0
  185.4520  178.3480  143.4670 C   0  0  0  0  0  0  0  0  0  0  0  0
  187.7870  177.9030  142.9750 C   0  0  0  0  0  0  0  0  0  0  0  0
  188.4260  178.0710  137.9210 C   0  0  0  0  0  2  0  0  0  0  0  0
  186.1370  178.0620  141.0440 C   0  0  1  0  0  3  0  0  0  0  0  0
  189.7720  177.7600  139.7320 C   0  0  0  0  0  2  0  0  0  0  0  0
  188.5370  177.5060  140.6120 C   0  0  1  0  0  3  0  0  0  0  0  0
  185.7590  178.2990  144.8410 C   0  0  0  0  0  0  0  0  0  0  0  0
  188.8430  177.7090  142.0220 N   0  0  0  0  0  2  0  0  0  0  0  0
  187.0390  178.0830  145.2430 N   0  0  0  0  0  0  0  0  0  0  0  0
  184.7450  178.4690  145.7870 C   0  0  0  0  0  3  0  0  0  0  0  0
  184.9680  178.9940  140.7210 C   0  0  0  0  0  2  0  0  0  0  0  0
  183.8550  178.7400  141.6410 N   0  0  0  0  0  0  0  0  0  0  0  0
  187.3640  178.3950  140.1900 C   0  0  1  0  0  3  0  0  0  0  0  0
  188.0540  177.9030  144.3550 C   0  0  0  0  0  0  0  0  0  0  0  0
  183.4300  178.6990  145.3700 C   0  0  0  0  0  3  0  0  0  0  0  0
  189.4960  178.6280  138.6490 O   0  0  0  0  0  0  0  0  0  0  0  0
  187.1040  178.2320  138.6880 C   0  0  0  0  0  2  0  0  0  0  0  0
  181.8830  178.7300  138.8710 N   0  0  0  0  0  0  0  0  0  0  0  0
  182.0500  178.6910  137.4270 C   0  0  0  0  0  1  0  0  0  0  0  0
  181.5220  179.8780  139.6260 C   0  0  0  0  0  0  0  0  0  0  0  0
  182.5040  178.5220  141.1260 C   0  0  1  0  0  3  0  0  0  0  0  0
  181.8430  179.7970  140.8690 N   0  0  0  0  0  0  0  0  0  0  0  0
  182.5570  177.8110  139.7690 C   0  0  1  0  0  3  0  0  0  0  0  0
  181.7870  176.5070  139.8490 C   0  0  0  0  0  1  0  0  0  0  0  0
  181.5620  181.9960  138.3430 O   0  0  0  0  0  0  0  0  0  0  0  0
  180.8410  181.0600  139.0740 C   0  0  0  0  0  0  0  0  0  0  0  0
  179.6100  181.2400  139.2650 O   0  0  0  0  0  1  0  0  0  0  0  0
  189.4340  177.6590  144.8670 C   0  0  0  0  0  2  0  0  0  0  0  0
  189.4040  177.4850  146.3740 C   0  0  0  0  0  1  0  0  0  0  0  0
  1  4  2  0  0  0  0
  1  3  1  0  0  0  0
  2  5  2  0  0  0  0
  2  4  1  0  0  0  0
  3 18  2  0  0  0  0
  4 10  1  0  0  0  0
  5 17  1  0  0  0  0
  6 19  1  0  0  0  0
  6 20  1  0  0  0  0
  7 14  1  1  0  0  0
  7  2  1  0  0  0  0
  9  8  1  6  0  0  0
  9 11  1  0  0  0  0
 10 12  1  0  0  0  0
 10 13  2  0  0  0  0
 11  5  1  0  0  0  0
 14 15  1  0  0  0  0
 15  1  1  0  0  0  0
 16 20  1  6  0  0  0
 16  9  1  0  0  0  0
 16  7  1  0  0  0  0
 17 31  1  0  0  0  0
 17 12  2  0  0  0  0
 18 13  1  0  0  0  0
 19  8  1  0  0  0  0
 21 23  1  0  0  0  0
 21 26  1  0  0  0  0
 22 21  1  0  0  0  0
 23 25  2  0  0  0  0
 24 15  1  6  0  0  0
 25 24  1  0  0  0  0
 26 27  1  1  0  0  0
 26 24  1  0  0  0  0
 28 29  2  0  0  0  0
 29 30  1  0  0  0  0
 29 23  1  0  0  0  0
 31 32  1  0  0  0  0
M  END
>  <MODEL>
6

>  <REMARK>
 VINA RESULT:      -8.9      2.266      2.858
  Name = 
  3 active torsions:
  status: ('A' for Active; 'I' for Inactive)
    1  A    between atoms: C_13  and  C_29
    2  A    between atoms: C_15  and  C_19
    3  A    between atoms: C_16  and  N_27
                            x       y       z     vdW  Elec       q    Type
                         _______ _______ _______ _____ _____    ______ ____

>  <TORSDO>
F 3

$$$$
=
 OpenBabel11052414353D

 32 37  0  0  1  0  0  0  0  0999 V2000
  185.6940  178.5650  140.5790 C   0  0  0  0  0  0  0  0  0  0  0  0
  187.0290  177.9070  142.5150 C   0  0  0  0  0  0  0  0  0  0  0  0
  184.4460  178.9120  140.0400 C   0  0  0  0  0  3  0  0  0  0  0  0
  185.8020  178.3030  141.9580 C   0  0  0  0  0  0  0  0  0  0  0  0
  187.1140  177.6810  143.9020 C   0  0  0  0  0  0  0  0  0  0  0  0
  191.9640  177.0920  142.4480 C   0  0  0  0  0  2  0  0  0  0  0  0
  188.2230  177.6400  141.6120 C   0  0  1  0  0  3  0  0  0  0  0  0
  190.8190  176.9800  144.4140 C   0  0  0  0  0  2  0  0  0  0  0  0
  189.4900  176.9130  143.6420 C   0  0  1  0  0  3  0  0  0  0  0  0
  184.6750  178.4360  142.7930 C   0  0  0  0  0  0  0  0  0  0  0  0
  188.3690  177.3020  144.4870 N   0  0  0  0  0  2  0  0  0  0  0  0
  184.7910  178.2190  144.1290 N   0  0  0  0  0  0  0  0  0  0  0  0
  183.4390  178.7880  142.2440 C   0  0  0  0  0  3  0  0  0  0  0  0
  188.1870  178.5710  140.3990 C   0  0  0  0  0  2  0  0  0  0  0  0
  186.8720  178.5050  139.7550 N   0  0  0  0  0  0  0  0  0  0  0  0
  189.5360  177.7880  142.3860 C   0  0  1  0  0  3  0  0  0  0  0  0
  185.9740  177.8650  144.7020 C   0  0  0  0  0  0  0  0  0  0  0  0
  183.3240  179.0190  140.8690 C   0  0  0  0  0  3  0  0  0  0  0  0
  191.8180  177.6950  143.7120 O   0  0  0  0  0  0  0  0  0  0  0  0
  190.7650  177.4240  141.5450 C   0  0  0  0  0  2  0  0  0  0  0  0
  187.4080  176.3040  137.2180 N   0  0  0  0  0  0  0  0  0  0  0  0
  187.6490  174.8790  137.0580 C   0  0  0  0  0  1  0  0  0  0  0  0
  188.3890  177.3230  137.0900 C   0  0  0  0  0  0  0  0  0  0  0  0
  186.7630  178.2790  138.3140 C   0  0  1  0  0  3  0  0  0  0  0  0
  188.0670  178.4230  137.6750 N   0  0  0  0  0  0  0  0  0  0  0  0
  186.3290  176.8360  138.0290 C   0  0  1  0  0  3  0  0  0  0  0  0
  185.0380  176.8430  137.2340 C   0  0  0  0  0  1  0  0  0  0  0  0
  190.8400  176.9690  137.0650 O   0  0  0  0  0  1  0  0  0  0  0  0
  189.6590  177.1720  136.3620 C   0  0  0  0  0  0  0  0  0  0  0  0
  189.6910  177.2360  135.1050 O   0  0  0  0  0  0  0  0  0  0  0  0
  186.0260  177.6310  146.1750 C   0  0  0  0  0  2  0  0  0  0  0  0
  185.9180  178.9510  146.9150 C   0  0  0  0  0  1  0  0  0  0  0  0
  1  4  1  0  0  0  0
  2  5  1  0  0  0  0
  3  1  2  0  0  0  0
  3 18  1  0  0  0  0
  4  2  2  0  0  0  0
  4 10  1  0  0  0  0
  5 11  1  0  0  0  0
  5 17  2  0  0  0  0
  6 19  1  0  0  0  0
  7 14  1  6  0  0  0
  7 16  1  0  0  0  0
  7  2  1  0  0  0  0
  9  8  1  1  0  0  0
  9 11  1  0  0  0  0
 10 12  2  0  0  0  0
 12 17  1  0  0  0  0
 13 10  1  0  0  0  0
 15 14  1  0  0  0  0
 15  1  1  0  0  0  0
 16 20  1  6  0  0  0
 16  9  1  0  0  0  0
 17 31  1  0  0  0  0
 18 13  2  0  0  0  0
 19  8  1  0  0  0  0
 20  6  1  0  0  0  0
 21 26  1  0  0  0  0
 22 21  1  0  0  0  0
 23 21  1  0  0  0  0
 23 25  2  0  0  0  0
 24 15  1  1  0  0  0
 25 24  1  0  0  0  0
 26 27  1  6  0  0  0
 26 24  1  0  0  0  0
 29 28  1  0  0  0  0
 29 23  1  0  0  0  0
 30 29  2  0  0  0  0
 31 32  1  0  0  0  0
M  END
>  <MODEL>
7

>  <REMARK>
 VINA RESULT:      -8.9      2.242      3.336
  Name = 
  3 active torsions:
  status: ('A' for Active; 'I' for Inactive)
    1  A    between atoms: C_13  and  C_29
    2  A    between atoms: C_15  and  C_19
    3  A    between atoms: C_16  and  N_27
                            x       y       z     vdW  Elec       q    Type
                         _______ _______ _______ _____ _____    ______ ____

>  <TORSDO>
F 3

$$$$
=
 OpenBabel11052414353D

 32 37  0  0  1  0  0  0  0  0999 V2000
  184.2340  178.9350  142.7530 C   0  0  0  0  0  0  0  0  0  0  0  0
  186.5240  178.1070  142.5820 C   0  0  0  0  0  0  0  0  0  0  0  0
  183.1190  179.2350  143.5510 C   0  0  0  0  0  3  0  0  0  0  0  0
  185.4110  178.4600  143.3620 C   0  0  0  0  0  0  0  0  0  0  0  0
  187.6990  177.6630  143.2200 C   0  0  0  0  0  0  0  0  0  0  0  0
  189.1610  177.8310  138.3400 C   0  0  0  0  0  2  0  0  0  0  0  0
  186.4250  178.1180  141.0650 C   0  0  1  0  0  3  0  0  0  0  0  0
  190.1350  177.2750  140.3220 C   0  0  0  0  0  2  0  0  0  0  0  0
  188.7500  177.2000  140.9870 C   0  0  1  0  0  3  0  0  0  0  0  0
  185.4810  178.3350  144.7630 C   0  0  0  0  0  0  0  0  0  0  0  0
  188.8530  177.3250  142.4360 N   0  0  0  0  0  2  0  0  0  0  0  0
  186.6320  177.9120  145.3500 N   0  0  0  0  0  0  0  0  0  0  0  0
  184.3660  178.6430  145.5460 C   0  0  0  0  0  3  0  0  0  0  0  0
  185.4780  179.2290  140.6060 C   0  0  0  0  0  2  0  0  0  0  0  0
  184.2070  179.1350  141.3290 N   0  0  0  0  0  0  0  0  0  0  0  0
  187.8090  178.2710  140.4280 C   0  0  1  0  0  3  0  0  0  0  0  0
  187.7380  177.5930  144.6230 C   0  0  0  0  0  0  0  0  0  0  0  0
  183.1860  179.0850  144.9410 C   0  0  0  0  0  3  0  0  0  0  0  0
  190.1720  178.1970  139.2490 O   0  0  0  0  0  0  0  0  0  0  0  0
  187.7720  178.1810  138.8980 C   0  0  0  0  0  2  0  0  0  0  0  0
  181.9630  177.2550  139.5980 N   0  0  0  0  0  0  0  0  0  0  0  0
  181.6430  175.8480  139.4210 C   0  0  0  0  0  1  0  0  0  0  0  0
  182.6330  178.0700  138.6470 C   0  0  0  0  0  0  0  0  0  0  0  0
  182.9380  179.1410  140.6010 C   0  0  1  0  0  3  0  0  0  0  0  0
  183.1770  179.1170  139.1610 N   0  0  0  0  0  0  0  0  0  0  0  0
  182.1420  177.8660  140.9010 C   0  0  1  0  0  3  0  0  0  0  0  0
  180.7940  178.2370  141.4880 C   0  0  0  0  0  1  0  0  0  0  0  0
  181.6150  178.0190  136.3900 O   0  0  0  0  0  0  0  0  0  0  0  0
  182.7140  177.7800  137.2060 C   0  0  0  0  0  0  0  0  0  0  0  0
  183.7670  177.3070  136.7040 O   0  0  0  0  0  1  0  0  0  0  0  0
  188.9640  177.1250  145.3330 C   0  0  0  0  0  2  0  0  0  0  0  0
  188.7720  177.2420  146.8330 C   0  0  0  0  0  1  0  0  0  0  0  0
  1  4  2  0  0  0  0
  1  3  1  0  0  0  0
  2  5  2  0  0  0  0
  2  4  1  0  0  0  0
  3 18  2  0  0  0  0
  4 10  1  0  0  0  0
  5 17  1  0  0  0  0
  6 20  1  0  0  0  0
  6 19  1  0  0  0  0
  7 14  1  1  0  0  0
  7  2  1  0  0  0  0
  9  8  1  6  0  0  0
  9 11  1  0  0  0  0
 10 12  1  0  0  0  0
 10 13  2  0  0  0  0
 11  5  1  0  0  0  0
 14 15  1  0  0  0  0
 15  1  1  0  0  0  0
 16 20  1  6  0  0  0
 16  9  1  0  0  0  0
 16  7  1  0  0  0  0
 17 31  1  0  0  0  0
 17 12  2  0  0  0  0
 18 13  1  0  0  0  0
 19  8  1  0  0  0  0
 21 26  1  0  0  0  0
 22 21  1  0  0  0  0
 23 25  2  0  0  0  0
 23 21  1  0  0  0  0
 24 26  1  0  0  0  0
 24 15  1  1  0  0  0
 25 24  1  0  0  0  0
 26 27  1  6  0  0  0
 28 29  2  0  0  0  0
 29 23  1  0  0  0  0
 30 29  1  0  0  0  0
 31 32  1  0  0  0  0
M  END
>  <MODEL>
8

>  <REMARK>
 VINA RESULT:      -8.7      1.326      1.593
  Name = 
  3 active torsions:
  status: ('A' for Active; 'I' for Inactive)
    1  A    between atoms: C_13  and  C_29
    2  A    between atoms: C_15  and  C_19
    3  A    between atoms: C_16  and  N_27
                            x       y       z     vdW  Elec       q    Type
                         _______ _______ _______ _____ _____    ______ ____

>  <TORSDO>
F 3

$$$$
=
 OpenBabel11052414353D

 32 37  0  0  1  0  0  0  0  0999 V2000
  185.7960  178.7170  143.2800 C   0  0  0  0  0  0  0  0  0  0  0  0
  187.9640  177.6900  142.8230 C   0  0  0  0  0  0  0  0  0  0  0  0
  184.8040  179.0730  144.2060 C   0  0  0  0  0  3  0  0  0  0  0  0
  186.9760  178.1000  143.7350 C   0  0  0  0  0  0  0  0  0  0  0  0
  189.1480  177.1030  143.3090 C   0  0  0  0  0  0  0  0  0  0  0  0
  190.1100  177.4130  138.3140 C   0  0  0  0  0  2  0  0  0  0  0  0
  187.7110  177.7980  141.3290 C   0  0  1  0  0  3  0  0  0  0  0  0
  191.2230  176.6560  140.1510 C   0  0  0  0  0  2  0  0  0  0  0  0
  189.9130  176.6730  140.9570 C   0  0  1  0  0  3  0  0  0  0  0  0
  187.1780  177.8900  145.1130 C   0  0  0  0  0  0  0  0  0  0  0  0
  190.1760  176.7050  142.3910 N   0  0  0  0  0  2  0  0  0  0  0  0
  188.3360  177.3280  145.5520 N   0  0  0  0  0  0  0  0  0  0  0  0
  186.1850  178.2550  146.0260 C   0  0  0  0  0  3  0  0  0  0  0  0
  186.8360  179.0160  141.0270 C   0  0  0  0  0  2  0  0  0  0  0  0
  185.6420  179.0000  141.8780 N   0  0  0  0  0  0  0  0  0  0  0  0
  189.0300  177.8570  140.5540 C   0  0  1  0  0  3  0  0  0  0  0  0
  189.3240  176.9500  144.6950 C   0  0  0  0  0  0  0  0  0  0  0  0
  184.9990  178.8390  145.5720 C   0  0  0  0  0  3  0  0  0  0  0  0
  191.2400  177.6310  139.1250 O   0  0  0  0  0  0  0  0  0  0  0  0
  188.8280  177.8590  139.0350 C   0  0  0  0  0  2  0  0  0  0  0  0
  183.1140  177.4710  140.1940 N   0  0  0  0  0  0  0  0  0  0  0  0
  182.6800  176.1150  139.8970 C   0  0  0  0  0  1  0  0  0  0  0  0
  183.7440  178.3510  139.2740 C   0  0  0  0  0  0  0  0  0  0  0  0
  184.3130  179.1660  141.2920 C   0  0  1  0  0  3  0  0  0  0  0  0
  184.4080  179.2970  139.8410 N   0  0  0  0  0  0  0  0  0  0  0  0
  183.4620  177.9140  141.5310 C   0  0  1  0  0  3  0  0  0  0  0  0
  182.2060  178.2920  142.2940 C   0  0  0  0  0  1  0  0  0  0  0  0
  182.5090  178.6210  137.1450 O   0  0  0  0  0  0  0  0  0  0  0  0
  183.6630  178.2270  137.8100 C   0  0  0  0  0  0  0  0  0  0  0  0
  184.6280  177.7580  137.1510 O   0  0  0  0  0  1  0  0  0  0  0  0
  190.5640  176.3290  145.2460 C   0  0  0  0  0  2  0  0  0  0  0  0
  190.8300  176.8550  146.6440 C   0  0  0  0  0  1  0  0  0  0  0  0
  1  4  2  0  0  0  0
  1  3  1  0  0  0  0
  2  5  2  0  0  0  0
  2  4  1  0  0  0  0
  3 18  2  0  0  0  0
  4 10  1  0  0  0  0
  5 17  1  0  0  0  0
  6 20  1  0  0  0  0
  6 19  1  0  0  0  0
  7 14  1  1  0  0  0
  7  2  1  0  0  0  0
  9  8  1  6  0  0  0
  9 11  1  0  0  0  0
 10 12  1  0  0  0  0
 10 13  2  0  0  0  0
 11  5  1  0  0  0  0
 14 15  1  0  0  0  0
 15  1  1  0  0  0  0
 16 20  1  6  0  0  0
 16  9  1  0  0  0  0
 16  7  1  0  0  0  0
 17 31  1  0  0  0  0
 17 12  2  0  0  0  0
 18 13  1  0  0  0  0
 19  8  1  0  0  0  0
 21 26  1  0  0  0  0
 22 21  1  0  0  0  0
 23 25  2  0  0  0  0
 23 21  1  0  0  0  0
 24 26  1  0  0  0  0
 24 15  1  1  0  0  0
 25 24  1  0  0  0  0
 26 27  1  1  0  0  0
 28 29  2  0  0  0  0
 29 23  1  0  0  0  0
 30 29  1  0  0  0  0
 31 32  1  0  0  0  0
M  END
>  <MODEL>
9

>  <REMARK>
 VINA RESULT:      -8.2      1.288      1.579
  Name = 
  3 active torsions:
  status: ('A' for Active; 'I' for Inactive)
    1  A    between atoms: C_13  and  C_29
    2  A    between atoms: C_15  and  C_19
    3  A    between atoms: C_16  and  N_27
                            x       y       z     vdW  Elec       q    Type
                         _______ _______ _______ _____ _____    ______ ____

>  <TORSDO>
F 3

$$$$
