=
 OpenBabel11052412523D

 25 29  0  0  1  0  0  0  0  0999 V2000
  188.2180  177.5430  143.7740 C   0  0  1  0  0  0  0  0  0  0  0  0
  186.8600  178.1520  143.5260 C   0  0  0  0  0  0  0  0  0  0  0  0
  187.7010  177.3590  146.2370 C   0  0  0  0  0  2  0  0  0  0  0  0
  189.3670  178.0750  142.9220 C   0  0  0  0  0  2  0  0  0  0  0  0
  191.9160  177.8250  143.4150 C   0  0  0  0  0  2  0  0  0  0  0  0
  186.3490  177.8370  145.9310 N   0  0  0  0  0  2  0  0  0  0  0  0
  190.5470  177.9690  143.8770 C   0  0  1  0  0  0  0  0  0  0  0  0
  191.4070  179.1540  143.8030 N   0  0  0  0  0  2  0  0  0  0  0  0
  184.6370  178.6950  144.3670 C   0  0  0  0  0  0  0  0  0  0  0  0
  183.6430  178.7950  145.4740 C   0  0  0  0  0  1  0  0  0  0  0  0
  186.4580  178.5380  142.2400 C   0  0  0  0  0  3  0  0  0  0  0  0
  188.6450  177.9250  145.1890 C   0  0  1  0  0  3  0  0  0  0  0  0
  190.1300  177.6660  145.3020 C   0  0  0  0  0  2  0  0  0  0  0  0
  184.2600  179.0930  143.0830 C   0  0  0  0  0  3  0  0  0  0  0  0
  185.1670  179.0180  142.0130 C   0  0  0  0  0  0  0  0  0  0  0  0
  185.9350  178.2150  144.5990 C   0  0  0  0  0  0  0  0  0  0  0  0
  184.7980  179.4110  140.6860 N   0  0  0  0  0  0  0  0  0  0  0  0
  183.6900  179.0500  140.1240 C   0  0  0  0  0  3  0  0  0  0  0  0
  182.0170  180.0960  138.5610 C   0  0  2  0  0  3  0  0  0  0  0  0
  183.3750  179.4960  138.7330 C   0  0  1  0  0  3  0  0  0  0  0  0
  183.1710  180.8880  138.7250 O   0  0  0  0  0  0  0  0  0  0  0  0
  180.2530  181.0370  139.5030 C   0  0  0  0  0  1  0  0  0  0  0  0
  181.2700  180.1140  139.7440 O   0  0  0  0  0  0  0  0  0  0  0  0
  188.1340  176.0170  143.6080 C   0  0  0  0  0  2  0  0  0  0  0  0
  189.1750  175.5450  142.8270 F   0  0  0  0  0  0  0  0  0  0  0  0
  1 24  1  6  0  0  0
  1 12  1  0  0  0  0
  2  1  1  0  0  0  0
  2 16  1  0  0  0  0
  4  1  1  0  0  0  0
  5  8  1  0  0  0  0
  5  7  1  0  0  0  0
  6  3  1  0  0  0  0
  7  4  1  6  0  0  0
  7 13  1  0  0  0  0
  8  7  1  0  0  0  0
  9 16  2  0  0  0  0
  9 10  1  0  0  0  0
 11  2  2  0  0  0  0
 12 13  1  1  0  0  0
 12  3  1  0  0  0  0
 14  9  1  0  0  0  0
 15 11  1  0  0  0  0
 15 14  2  0  0  0  0
 16  6  1  0  0  0  0
 17 15  1  0  0  0  0
 18 17  2  0  0  0  0
 19 21  1  0  0  0  0
 19 20  1  0  0  0  0
 19 23  1  1  0  0  0
 20 18  1  1  0  0  0
 21 20  1  0  0  0  0
 22 23  1  0  0  0  0
 25 24  1  0  0  0  0
M  END
>  <MODEL>
1

>  <REMARK>
 VINA RESULT:      -8.4      0.000      0.000
  Name = 
  4 active torsions:
  status: ('A' for Active; 'I' for Inactive)
    1  A    between atoms: C_1  and  C_17
    2  A    between atoms: C_2  and  O_12
    3  A    between atoms: N_6  and  C_23
    4  A    between atoms: C_15  and  C_21
                            x       y       z     vdW  Elec       q    Type
                         _______ _______ _______ _____ _____    ______ ____

>  <TORSDO>
F 4

$$$$
=
 OpenBabel11052412523D

 25 29  0  0  1  0  0  0  0  0999 V2000
  188.0940  177.5920  143.6320 C   0  0  1  0  0  0  0  0  0  0  0  0
  186.8000  178.1090  143.0530 C   0  0  0  0  0  0  0  0  0  0  0  0
  187.0890  177.6280  145.9470 C   0  0  0  0  0  2  0  0  0  0  0  0
  189.3790  178.0900  142.9770 C   0  0  0  0  0  2  0  0  0  0  0  0
  191.7790  178.0090  143.9950 C   0  0  0  0  0  2  0  0  0  0  0  0
  185.8150  178.0100  145.3260 N   0  0  0  0  0  2  0  0  0  0  0  0
  190.3410  178.1340  144.1560 C   0  0  1  0  0  0  0  0  0  0  0  0
  191.1670  179.3450  144.1310 N   0  0  0  0  0  2  0  0  0  0  0  0
  184.4390  178.6290  143.3680 C   0  0  0  0  0  0  0  0  0  0  0  0
  183.2380  178.7910  144.2360 C   0  0  0  0  0  1  0  0  0  0  0  0
  186.6600  178.3470  141.6790 C   0  0  0  0  0  3  0  0  0  0  0  0
  188.2130  178.1310  145.0560 C   0  0  1  0  0  3  0  0  0  0  0  0
  189.6490  177.9540  145.4910 C   0  0  0  0  0  2  0  0  0  0  0  0
  184.3220  178.8800  141.9990 C   0  0  0  0  0  3  0  0  0  0  0  0
  185.4310  178.7420  141.1480 C   0  0  0  0  0  0  0  0  0  0  0  0
  185.6740  178.2350  143.9060 C   0  0  0  0  0  0  0  0  0  0  0  0
  185.3320  178.9840  139.7390 N   0  0  0  0  0  0  0  0  0  0  0  0
  185.8510  178.2010  138.8490 C   0  0  0  0  0  3  0  0  0  0  0  0
  186.9650  178.3740  136.5990 C   0  0  2  0  0  3  0  0  0  0  0  0
  185.7100  178.5210  137.3970 C   0  0  1  0  0  3  0  0  0  0  0  0
  185.9790  177.3680  136.6370 O   0  0  0  0  0  0  0  0  0  0  0  0
  189.0640  178.8960  137.0550 C   0  0  0  0  0  1  0  0  0  0  0  0
  188.0630  177.9770  137.3700 O   0  0  0  0  0  0  0  0  0  0  0  0
  188.0840  176.0550  143.6160 C   0  0  0  0  0  2  0  0  0  0  0  0
  189.1340  175.5610  142.8600 F   0  0  0  0  0  0  0  0  0  0  0  0
  1 24  1  1  0  0  0
  1 12  1  0  0  0  0
  2  1  1  0  0  0  0
  2 16  1  0  0  0  0
  4  1  1  0  0  0  0
  5  8  1  0  0  0  0
  5  7  1  0  0  0  0
  6  3  1  0  0  0  0
  7  4  1  6  0  0  0
  7 13  1  0  0  0  0
  8  7  1  0  0  0  0
  9 16  2  0  0  0  0
  9 10  1  0  0  0  0
 11  2  2  0  0  0  0
 12 13  1  1  0  0  0
 12  3  1  0  0  0  0
 14  9  1  0  0  0  0
 15 11  1  0  0  0  0
 15 14  2  0  0  0  0
 16  6  1  0  0  0  0
 17 15  1  0  0  0  0
 18 17  2  0  0  0  0
 19 21  1  0  0  0  0
 19 23  1  1  0  0  0
 19 20  1  0  0  0  0
 20 18  1  1  0  0  0
 21 20  1  0  0  0  0
 22 23  1  0  0  0  0
 25 24  1  0  0  0  0
M  END
>  <MODEL>
2

>  <REMARK>
 VINA RESULT:      -8.2      2.327      3.005
  Name = 
  4 active torsions:
  status: ('A' for Active; 'I' for Inactive)
    1  A    between atoms: C_1  and  C_17
    2  A    between atoms: C_2  and  O_12
    3  A    between atoms: N_6  and  C_23
    4  A    between atoms: C_15  and  C_21
                            x       y       z     vdW  Elec       q    Type
                         _______ _______ _______ _____ _____    ______ ____

>  <TORSDO>
F 4

$$$$
=
 OpenBabel11052412523D

 25 29  0  0  1  0  0  0  0  0999 V2000
  188.1640  177.5370  143.7270 C   0  0  1  0  0  0  0  0  0  0  0  0
  186.8070  178.1320  143.4410 C   0  0  0  0  0  0  0  0  0  0  0  0
  187.6020  177.4020  146.1840 C   0  0  0  0  0  2  0  0  0  0  0  0
  189.3250  178.0580  142.8850 C   0  0  0  0  0  2  0  0  0  0  0  0
  191.8660  177.8340  143.4300 C   0  0  0  0  0  2  0  0  0  0  0  0
  186.2530  177.8650  145.8430 N   0  0  0  0  0  2  0  0  0  0  0  0
  190.4880  177.9790  143.8650 C   0  0  1  0  0  0  0  0  0  0  0  0
  191.3430  179.1680  143.7820 N   0  0  0  0  0  2  0  0  0  0  0  0
  184.5660  178.6800  144.2290 C   0  0  0  0  0  0  0  0  0  0  0  0
  183.5510  178.7970  145.3150 C   0  0  0  0  0  1  0  0  0  0  0  0
  186.4270  178.4890  142.1400 C   0  0  0  0  0  3  0  0  0  0  0  0
  188.5630  177.9510  145.1420 C   0  0  1  0  0  3  0  0  0  0  0  0
  190.0460  177.7040  145.2870 C   0  0  0  0  0  2  0  0  0  0  0  0
  184.2100  179.0480  142.9300 C   0  0  0  0  0  3  0  0  0  0  0  0
  185.1380  178.9560  141.8790 C   0  0  0  0  0  0  0  0  0  0  0  0
  185.8620  178.2120  144.4950 C   0  0  0  0  0  0  0  0  0  0  0  0
  184.7920  179.3190  140.5370 N   0  0  0  0  0  0  0  0  0  0  0  0
  183.6160  179.1220  140.0320 C   0  0  0  0  0  3  0  0  0  0  0  0
  182.5370  178.5280  137.8370 C   0  0  2  0  0  3  0  0  0  0  0  0
  183.3300  179.5230  138.6220 C   0  0  1  0  0  3  0  0  0  0  0  0
  181.9400  179.6500  138.4470 O   0  0  0  0  0  0  0  0  0  0  0  0
  181.9260  176.4170  137.6020 C   0  0  0  0  0  1  0  0  0  0  0  0
  182.2190  177.3790  138.5690 O   0  0  0  0  0  0  0  0  0  0  0  0
  188.0920  176.0080  143.5920 C   0  0  0  0  0  2  0  0  0  0  0  0
  189.1300  175.5290  142.8120 F   0  0  0  0  0  0  0  0  0  0  0  0
  1 24  1  6  0  0  0
  1 12  1  0  0  0  0
  2  1  1  0  0  0  0
  2 16  1  0  0  0  0
  4  1  1  0  0  0  0
  5  8  1  0  0  0  0
  5  7  1  0  0  0  0
  6  3  1  0  0  0  0
  7  4  1  6  0  0  0
  7 13  1  0  0  0  0
  8  7  1  0  0  0  0
  9 16  2  0  0  0  0
  9 10  1  0  0  0  0
 11  2  2  0  0  0  0
 12 13  1  1  0  0  0
 12  3  1  0  0  0  0
 14  9  1  0  0  0  0
 15 11  1  0  0  0  0
 15 14  2  0  0  0  0
 16  6  1  0  0  0  0
 17 15  1  0  0  0  0
 18 17  2  0  0  0  0
 19 21  1  0  0  0  0
 19 23  1  1  0  0  0
 19 20  1  0  0  0  0
 20 18  1  1  0  0  0
 21 20  1  0  0  0  0
 22 23  1  0  0  0  0
 25 24  1  0  0  0  0
M  END
>  <MODEL>
3

>  <REMARK>
 VINA RESULT:      -8.1      1.053      1.329
  Name = 
  4 active torsions:
  status: ('A' for Active; 'I' for Inactive)
    1  A    between atoms: C_1  and  C_17
    2  A    between atoms: C_2  and  O_12
    3  A    between atoms: N_6  and  C_23
    4  A    between atoms: C_15  and  C_21
                            x       y       z     vdW  Elec       q    Type
                         _______ _______ _______ _____ _____    ______ ____

>  <TORSDO>
F 4

$$$$
=
 OpenBabel11052412523D

 25 29  0  0  1  0  0  0  0  0999 V2000
  189.7520  178.0470  144.4000 C   0  0  1  0  0  0  0  0  0  0  0  0
  189.2290  177.8940  142.9930 C   0  0  0  0  0  0  0  0  0  0  0  0
  191.7660  176.6420  143.8190 C   0  0  0  0  0  2  0  0  0  0  0  0
  188.7090  178.0780  145.5130 C   0  0  0  0  0  2  0  0  0  0  0  0
  189.1320  177.6750  148.0550 C   0  0  0  0  0  2  0  0  0  0  0  0
  191.2840  176.6240  142.4340 N   0  0  0  0  0  2  0  0  0  0  0  0
  189.4510  177.4120  146.6630 C   0  0  1  0  0  0  0  0  0  0  0  0
  188.5880  176.4760  147.3900 N   0  0  0  0  0  2  0  0  0  0  0  0
  189.6150  177.1750  140.6950 C   0  0  0  0  0  0  0  0  0  0  0  0
  190.4350  176.4860  139.6580 C   0  0  0  0  0  1  0  0  0  0  0  0
  188.0190  178.4810  142.5970 C   0  0  0  0  0  3  0  0  0  0  0  0
  190.5610  176.7950  144.7320 C   0  0  1  0  0  3  0  0  0  0  0  0
  190.7490  176.7600  146.2320 C   0  0  0  0  0  2  0  0  0  0  0  0
  188.3970  177.7490  140.3220 C   0  0  0  0  0  3  0  0  0  0  0  0
  187.5930  178.4030  141.2700 C   0  0  0  0  0  0  0  0  0  0  0  0
  190.0450  177.2480  142.0300 C   0  0  0  0  0  0  0  0  0  0  0  0
  186.3460  179.0080  140.9080 N   0  0  0  0  0  0  0  0  0  0  0  0
  185.6200  178.5950  139.9190 C   0  0  0  0  0  3  0  0  0  0  0  0
  183.1490  178.3710  139.4970 C   0  0  2  0  0  3  0  0  0  0  0  0
  184.3320  179.2800  139.5980 C   0  0  1  0  0  3  0  0  0  0  0  0
  183.4330  179.1050  140.6660 O   0  0  0  0  0  0  0  0  0  0  0  0
  182.2550  176.3520  139.5920 C   0  0  0  0  0  1  0  0  0  0  0  0
  183.4710  177.0250  139.7060 O   0  0  0  0  0  0  0  0  0  0  0  0
  190.6190  179.3130  144.4890 C   0  0  0  0  0  2  0  0  0  0  0  0
  190.9460  179.7800  143.2280 F   0  0  0  0  0  0  0  0  0  0  0  0
  1 24  1  1  0  0  0
  1 12  1  0  0  0  0
  1  4  1  0  0  0  0
  2  1  1  0  0  0  0
  6  3  1  0  0  0  0
  7  4  1  6  0  0  0
  7  8  1  0  0  0  0
  7  5  1  0  0  0  0
  8  5  1  0  0  0  0
  9 16  1  0  0  0  0
 10  9  1  0  0  0  0
 11  2  1  0  0  0  0
 12  3  1  6  0  0  0
 12 13  1  0  0  0  0
 13  7  1  0  0  0  0
 14  9  2  0  0  0  0
 14 15  1  0  0  0  0
 15 11  2  0  0  0  0
 16  6  1  0  0  0  0
 16  2  2  0  0  0  0
 17 15  1  0  0  0  0
 18 17  2  0  0  0  0
 19 20  1  0  0  0  0
 19 23  1  1  0  0  0
 19 21  1  0  0  0  0
 20 18  1  1  0  0  0
 20 21  1  0  0  0  0
 22 23  1  0  0  0  0
 25 24  1  0  0  0  0
M  END
>  <MODEL>
4

>  <REMARK>
 VINA RESULT:      -7.0      2.539      4.180
  Name = 
  4 active torsions:
  status: ('A' for Active; 'I' for Inactive)
    1  A    between atoms: C_1  and  C_17
    2  A    between atoms: C_2  and  O_12
    3  A    between atoms: N_6  and  C_23
    4  A    between atoms: C_15  and  C_21
                            x       y       z     vdW  Elec       q    Type
                         _______ _______ _______ _____ _____    ______ ____

>  <TORSDO>
F 4

$$$$
=
 OpenBabel11052412523D

 25 29  0  0  1  0  0  0  0  0999 V2000
  188.5620  177.3600  137.7320 C   0  0  1  0  0  0  0  0  0  0  0  0
  188.3990  177.6070  139.2120 C   0  0  0  0  0  0  0  0  0  0  0  0
  186.1830  178.1030  137.3320 C   0  0  0  0  0  2  0  0  0  0  0  0
  189.4300  176.1700  137.3340 C   0  0  0  0  0  2  0  0  0  0  0  0
  189.4730  174.9820  135.0120 C   0  0  0  0  0  2  0  0  0  0  0  0
  186.1110  178.4470  138.7570 N   0  0  0  0  0  2  0  0  0  0  0  0
  188.7570  175.7010  136.0520 C   0  0  1  0  0  0  0  0  0  0  0  0
  188.6650  174.2380  135.9960 N   0  0  0  0  0  2  0  0  0  0  0  0
  187.0700  178.5330  141.0340 C   0  0  0  0  0  0  0  0  0  0  0  0
  185.8200  179.1520  141.5610 C   0  0  0  0  0  1  0  0  0  0  0  0
  189.4470  177.3660  140.1110 C   0  0  0  0  0  3  0  0  0  0  0  0
  187.1920  176.9780  137.1730 C   0  0  1  0  0  3  0  0  0  0  0  0
  187.4130  176.3580  135.8130 C   0  0  0  0  0  2  0  0  0  0  0  0
  188.1170  178.2680  141.9190 C   0  0  0  0  0  3  0  0  0  0  0  0
  189.3100  177.6820  141.4630 C   0  0  0  0  0  0  0  0  0  0  0  0
  187.2030  178.2130  139.6740 C   0  0  0  0  0  0  0  0  0  0  0  0
  190.4010  177.4110  142.3510 N   0  0  0  0  0  0  0  0  0  0  0  0
  190.4780  177.9010  143.5470 C   0  0  0  0  0  3  0  0  0  0  0  0
  191.2990  177.0910  145.7840 C   0  0  2  0  0  3  0  0  0  0  0  0
  191.6500  177.5760  144.4150 C   0  0  1  0  0  3  0  0  0  0  0  0
  191.6270  176.2070  144.7370 O   0  0  0  0  0  0  0  0  0  0  0  0
  189.7990  176.9090  147.3970 C   0  0  0  0  0  1  0  0  0  0  0  0
  189.9190  177.0460  146.0140 O   0  0  0  0  0  0  0  0  0  0  0  0
  189.1070  178.6280  137.0570 C   0  0  0  0  0  2  0  0  0  0  0  0
  189.2160  179.6660  137.9670 F   0  0  0  0  0  0  0  0  0  0  0  0
  1 24  1  6  0  0  0
  1  2  1  0  0  0  0
  2 16  2  0  0  0  0
  2 11  1  0  0  0  0
  3  6  1  0  0  0  0
  4  1  1  0  0  0  0
  5  8  1  0  0  0  0
  6 16  1  0  0  0  0
  7  5  1  6  0  0  0
  7  4  1  0  0  0  0
  8  7  1  0  0  0  0
  9 10  1  0  0  0  0
  9 14  2  0  0  0  0
 11 15  2  0  0  0  0
 12 13  1  6  0  0  0
 12  3  1  0  0  0  0
 12  1  1  0  0  0  0
 13  7  1  0  0  0  0
 15 14  1  0  0  0  0
 15 17  1  0  0  0  0
 16  9  1  0  0  0  0
 17 18  2  0  0  0  0
 19 23  1  6  0  0  0
 20 18  1  6  0  0  0
 20 21  1  0  0  0  0
 20 19  1  0  0  0  0
 21 19  1  0  0  0  0
 23 22  1  0  0  0  0
 24 25  1  0  0  0  0
M  END
>  <MODEL>
5

>  <REMARK>
 VINA RESULT:      -6.9      5.259      8.045
  Name = 
  4 active torsions:
  status: ('A' for Active; 'I' for Inactive)
    1  A    between atoms: C_1  and  C_17
    2  A    between atoms: C_2  and  O_12
    3  A    between atoms: N_6  and  C_23
    4  A    between atoms: C_15  and  C_21
                            x       y       z     vdW  Elec       q    Type
                         _______ _______ _______ _____ _____    ______ ____

>  <TORSDO>
F 4

$$$$
=
 OpenBabel11052412523D

 25 29  0  0  1  0  0  0  0  0999 V2000
  188.3550  177.2320  143.5510 C   0  0  1  0  0  0  0  0  0  0  0  0
  187.4290  177.8180  142.5140 C   0  0  0  0  0  0  0  0  0  0  0  0
  186.5750  177.5130  145.3180 C   0  0  0  0  0  2  0  0  0  0  0  0
  189.8360  177.5710  143.4100 C   0  0  0  0  0  2  0  0  0  0  0  0
  191.6660  177.3530  145.2560 C   0  0  0  0  0  2  0  0  0  0  0  0
  185.6690  177.9600  144.2540 N   0  0  0  0  0  2  0  0  0  0  0  0
  190.2920  177.6130  144.8610 C   0  0  1  0  0  0  0  0  0  0  0  0
  191.1930  178.7430  145.1100 N   0  0  0  0  0  2  0  0  0  0  0  0
  185.1880  178.5600  141.9040 C   0  0  0  0  0  0  0  0  0  0  0  0
  183.7750  178.8840  142.2530 C   0  0  0  0  0  1  0  0  0  0  0  0
  187.8340  177.9720  141.1800 C   0  0  0  0  0  3  0  0  0  0  0  0
  187.9950  177.8550  144.8980 C   0  0  1  0  0  3  0  0  0  0  0  0
  189.1410  177.5850  145.8450 C   0  0  0  0  0  2  0  0  0  0  0  0
  185.6130  178.7260  140.5840 C   0  0  0  0  0  3  0  0  0  0  0  0
  186.9370  178.4350  140.2150 C   0  0  0  0  0  0  0  0  0  0  0  0
  186.0880  178.0980  142.8780 C   0  0  0  0  0  0  0  0  0  0  0  0
  187.3920  178.5870  138.8650 N   0  0  0  0  0  0  0  0  0  0  0  0
  188.1790  177.7390  138.2840 C   0  0  0  0  0  3  0  0  0  0  0  0
  188.7150  176.7290  136.0420 C   0  0  2  0  0  3  0  0  0  0  0  0
  188.6140  177.9670  136.8730 C   0  0  1  0  0  3  0  0  0  0  0  0
  187.5860  177.5720  135.9980 O   0  0  0  0  0  0  0  0  0  0  0  0
  187.5610  174.8500  135.8920 C   0  0  0  0  0  1  0  0  0  0  0  0
  188.3970  175.5650  136.7500 O   0  0  0  0  0  0  0  0  0  0  0  0
  188.1900  175.7040  143.5810 C   0  0  0  0  0  2  0  0  0  0  0  0
  189.2720  175.0770  142.9870 F   0  0  0  0  0  0  0  0  0  0  0  0
  1 24  1  1  0  0  0
  1 12  1  0  0  0  0
  2 16  1  0  0  0  0
  2  1  1  0  0  0  0
  4  1  1  0  0  0  0
  6  3  1  0  0  0  0
  7  4  1  6  0  0  0
  7  8  1  0  0  0  0
  7  5  1  0  0  0  0
  7 13  1  0  0  0  0
  8  5  1  0  0  0  0
  9 10  1  0  0  0  0
  9 16  2  0  0  0  0
 11  2  2  0  0  0  0
 12  3  1  1  0  0  0
 12 13  1  0  0  0  0
 14  9  1  0  0  0  0
 15 14  2  0  0  0  0
 15 11  1  0  0  0  0
 16  6  1  0  0  0  0
 17 15  1  0  0  0  0
 18 17  2  0  0  0  0
 19 23  1  1  0  0  0
 19 20  1  0  0  0  0
 20 18  1  1  0  0  0
 21 19  1  0  0  0  0
 21 20  1  0  0  0  0
 22 23  1  0  0  0  0
 25 24  1  0  0  0  0
M  END
>  <MODEL>
6

>  <REMARK>
 VINA RESULT:      -6.7      3.326      4.048
  Name = 
  4 active torsions:
  status: ('A' for Active; 'I' for Inactive)
    1  A    between atoms: C_1  and  C_17
    2  A    between atoms: C_2  and  O_12
    3  A    between atoms: N_6  and  C_23
    4  A    between atoms: C_15  and  C_21
                            x       y       z     vdW  Elec       q    Type
                         _______ _______ _______ _____ _____    ______ ____

>  <TORSDO>
F 4

$$$$
=
 OpenBabel11052412523D

 25 29  0  0  1  0  0  0  0  0999 V2000
  181.1020  178.6180  140.8300 C   0  0  1  0  0  0  0  0  0  0  0  0
  182.4260  178.6690  141.5510 C   0  0  0  0  0  0  0  0  0  0  0  0
  179.8840  178.6070  143.0400 C   0  0  0  0  0  2  0  0  0  0  0  0
  181.0610  177.8030  139.5410 C   0  0  0  0  0  2  0  0  0  0  0  0
  178.9310  176.9010  138.3360 C   0  0  0  0  0  2  0  0  0  0  0  0
  181.1850  178.7830  143.6940 N   0  0  0  0  0  2  0  0  0  0  0  0
  179.6380  177.2620  139.5520 C   0  0  1  0  0  0  0  0  0  0  0  0
  179.5940  175.8560  139.1380 N   0  0  0  0  0  2  0  0  0  0  0  0
  183.6510  178.9630  143.6390 C   0  0  0  0  0  0  0  0  0  0  0  0
  183.6950  179.1070  145.1220 C   0  0  0  0  0  1  0  0  0  0  0  0
  183.6390  178.6910  140.8470 C   0  0  0  0  0  3  0  0  0  0  0  0
  180.1140  177.8770  141.7280 C   0  0  1  0  0  3  0  0  0  0  0  0
  178.9320  177.4810  140.8740 C   0  0  0  0  0  2  0  0  0  0  0  0
  184.8500  178.9640  142.9240 C   0  0  0  0  0  3  0  0  0  0  0  0
  184.8510  178.8270  141.5260 C   0  0  0  0  0  0  0  0  0  0  0  0
  182.4290  178.8240  142.9600 C   0  0  0  0  0  0  0  0  0  0  0  0
  186.0690  178.8350  140.7710 N   0  0  0  0  0  0  0  0  0  0  0  0
  187.2130  178.4950  141.2710 C   0  0  0  0  0  3  0  0  0  0  0  0
  189.4850  177.5260  140.7860 C   0  0  2  0  0  3  0  0  0  0  0  0
  188.4420  178.5320  140.4220 C   0  0  1  0  0  3  0  0  0  0  0  0
  188.5720  177.3120  139.7350 O   0  0  0  0  0  0  0  0  0  0  0  0
  190.3330  176.2270  142.3610 C   0  0  0  0  0  1  0  0  0  0  0  0
  189.1250  176.7330  141.8820 O   0  0  0  0  0  0  0  0  0  0  0  0
  180.6230  180.0490  140.5350 C   0  0  0  0  0  2  0  0  0  0  0  0
  180.9680  180.4320  139.2510 F   0  0  0  0  0  0  0  0  0  0  0  0
  1 24  1  6  0  0  0
  1  2  1  0  0  0  0
  1 12  1  0  0  0  0
  2 16  1  0  0  0  0
  3  6  1  0  0  0  0
  4  7  1  0  0  0  0
  4  1  1  0  0  0  0
  5  8  1  0  0  0  0
  7  5  1  6  0  0  0
  7 13  1  0  0  0  0
  8  7  1  0  0  0  0
  9 10  1  0  0  0  0
 11 15  1  0  0  0  0
 11  2  2  0  0  0  0
 12 13  1  6  0  0  0
 12  3  1  0  0  0  0
 14  9  1  0  0  0  0
 15 14  2  0  0  0  0
 16  9  2  0  0  0  0
 16  6  1  0  0  0  0
 17 18  2  0  0  0  0
 17 15  1  0  0  0  0
 19 23  1  1  0  0  0
 20 19  1  0  0  0  0
 20 18  1  1  0  0  0
 21 20  1  0  0  0  0
 21 19  1  0  0  0  0
 23 22  1  0  0  0  0
 25 24  1  0  0  0  0
M  END
>  <MODEL>
7

>  <REMARK>
 VINA RESULT:      -6.7      4.025      7.965
  Name = 
  4 active torsions:
  status: ('A' for Active; 'I' for Inactive)
    1  A    between atoms: C_1  and  C_17
    2  A    between atoms: C_2  and  O_12
    3  A    between atoms: N_6  and  C_23
    4  A    between atoms: C_15  and  C_21
                            x       y       z     vdW  Elec       q    Type
                         _______ _______ _______ _____ _____    ______ ____

>  <TORSDO>
F 4

$$$$
=
 OpenBabel11052412523D

 25 29  0  0  1  0  0  0  0  0999 V2000
  189.9940  177.2390  141.6900 C   0  0  1  0  0  0  0  0  0  0  0  0
  190.0750  177.3010  140.1850 C   0  0  0  0  0  0  0  0  0  0  0  0
  187.8530  178.5750  141.6440 C   0  0  0  0  0  2  0  0  0  0  0  0
  191.3180  177.2990  142.4450 C   0  0  0  0  0  2  0  0  0  0  0  0
  191.6480  177.8710  144.9690 C   0  0  0  0  0  2  0  0  0  0  0  0
  187.9060  178.5030  140.1800 N   0  0  0  0  0  2  0  0  0  0  0  0
  190.9250  178.0330  143.7190 C   0  0  1  0  0  0  0  0  0  0  0  0
  191.9330  179.0280  144.1000 N   0  0  0  0  0  2  0  0  0  0  0  0
  189.0080  177.8550  138.0640 C   0  0  0  0  0  0  0  0  0  0  0  0
  187.8970  178.4590  137.2740 C   0  0  0  0  0  1  0  0  0  0  0  0
  191.1340  176.7040  139.4870 C   0  0  0  0  0  3  0  0  0  0  0  0
  189.2780  178.5000  142.1680 C   0  0  1  0  0  3  0  0  0  0  0  0
  189.5380  178.6370  143.6510 C   0  0  0  0  0  2  0  0  0  0  0  0
  190.0800  177.2720  137.3840 C   0  0  0  0  0  3  0  0  0  0  0  0
  191.1480  176.6950  138.0910 C   0  0  0  0  0  0  0  0  0  0  0  0
  188.9910  177.8680  139.4670 C   0  0  0  0  0  0  0  0  0  0  0  0
  192.2530  176.0820  137.4150 N   0  0  0  0  0  0  0  0  0  0  0  0
  193.2640  175.5650  138.0360 C   0  0  0  0  0  3  0  0  0  0  0  0
  195.5930  174.6130  138.0730 C   0  0  2  0  0  3  0  0  0  0  0  0
  194.3820  174.9460  137.2630 C   0  0  1  0  0  3  0  0  0  0  0  0
  194.6200  173.6470  137.7470 O   0  0  0  0  0  0  0  0  0  0  0  0
  196.7580  174.8530  139.9360 C   0  0  0  0  0  1  0  0  0  0  0  0
  195.4660  174.9640  139.4210 O   0  0  0  0  0  0  0  0  0  0  0  0
  189.2330  175.9710  142.1110 C   0  0  0  0  0  2  0  0  0  0  0  0
  190.0390  175.1360  142.8640 F   0  0  0  0  0  0  0  0  0  0  0  0
  1 24  1  1  0  0  0
  1 12  1  0  0  0  0
  1  4  1  0  0  0  0
  2  1  1  0  0  0  0
  6  3  1  0  0  0  0
  7  4  1  6  0  0  0
  7  8  1  0  0  0  0
  7  5  1  0  0  0  0
  8  5  1  0  0  0  0
  9 16  1  0  0  0  0
 10  9  1  0  0  0  0
 11  2  1  0  0  0  0
 12  3  1  1  0  0  0
 12 13  1  0  0  0  0
 13  7  1  0  0  0  0
 14  9  2  0  0  0  0
 14 15  1  0  0  0  0
 15 11  2  0  0  0  0
 16  6  1  0  0  0  0
 16  2  2  0  0  0  0
 17 18  2  0  0  0  0
 17 15  1  0  0  0  0
 19 23  1  1  0  0  0
 20 21  1  0  0  0  0
 20 18  1  1  0  0  0
 20 19  1  0  0  0  0
 21 19  1  0  0  0  0
 23 22  1  0  0  0  0
 24 25  1  0  0  0  0
M  END
>  <MODEL>
8

>  <REMARK>
 VINA RESULT:      -6.5      5.580      8.299
  Name = 
  4 active torsions:
  status: ('A' for Active; 'I' for Inactive)
    1  A    between atoms: C_1  and  C_17
    2  A    between atoms: C_2  and  O_12
    3  A    between atoms: N_6  and  C_23
    4  A    between atoms: C_15  and  C_21
                            x       y       z     vdW  Elec       q    Type
                         _______ _______ _______ _____ _____    ______ ____

>  <TORSDO>
F 4

$$$$
=
 OpenBabel11052412523D

 25 29  0  0  1  0  0  0  0  0999 V2000
  182.9880  178.3530  140.1120 C   0  0  1  0  0  0  0  0  0  0  0  0
  183.8490  178.3700  141.3500 C   0  0  0  0  0  0  0  0  0  0  0  0
  180.9170  178.6050  141.5330 C   0  0  0  0  0  2  0  0  0  0  0  0
  183.4460  177.4420  138.9780 C   0  0  0  0  0  2  0  0  0  0  0  0
  181.9990  176.5960  136.9790 C   0  0  0  0  0  2  0  0  0  0  0  0
  181.8000  178.7420  142.6960 N   0  0  0  0  0  2  0  0  0  0  0  0
  182.1220  177.0040  138.3670 C   0  0  1  0  0  0  0  0  0  0  0  0
  182.1290  175.5750  138.0360 N   0  0  0  0  0  2  0  0  0  0  0  0
  184.0360  178.7450  143.7520 C   0  0  0  0  0  0  0  0  0  0  0  0
  183.4280  179.0040  145.0890 C   0  0  0  0  0  1  0  0  0  0  0  0
  185.2440  178.2500  141.2700 C   0  0  0  0  0  3  0  0  0  0  0  0
  181.6350  177.7570  140.4970 C   0  0  1  0  0  3  0  0  0  0  0  0
  180.9250  177.3770  139.2180 C   0  0  0  0  0  2  0  0  0  0  0  0
  185.4220  178.6040  143.6560 C   0  0  0  0  0  3  0  0  0  0  0  0
  186.0330  178.3550  142.4160 C   0  0  0  0  0  0  0  0  0  0  0  0
  183.2380  178.6370  142.6020 C   0  0  0  0  0  0  0  0  0  0  0  0
  187.4540  178.2180  142.2930 N   0  0  0  0  0  0  0  0  0  0  0  0
  188.0880  177.1300  142.5910 C   0  0  0  0  0  3  0  0  0  0  0  0
  190.3220  176.8550  143.7160 C   0  0  2  0  0  3  0  0  0  0  0  0
  189.5720  177.0620  142.4400 C   0  0  1  0  0  3  0  0  0  0  0  0
  190.0250  175.7920  142.8400 O   0  0  0  0  0  0  0  0  0  0  0  0
  190.3070  177.1380  145.9080 C   0  0  0  0  0  1  0  0  0  0  0  0
  189.4890  176.7800  144.8370 O   0  0  0  0  0  0  0  0  0  0  0  0
  182.8340  179.7850  139.5750 C   0  0  0  0  0  2  0  0  0  0  0  0
  183.9150  180.1370  138.7860 F   0  0  0  0  0  0  0  0  0  0  0  0
  1 24  1  6  0  0  0
  1 12  1  0  0  0  0
  1  2  1  0  0  0  0
  2 16  1  0  0  0  0
  3  6  1  0  0  0  0
  4  1  1  0  0  0  0
  5  8  1  0  0  0  0
  7  5  1  6  0  0  0
  7  4  1  0  0  0  0
  7 13  1  0  0  0  0
  8  7  1  0  0  0  0
  9 10  1  0  0  0  0
 11  2  2  0  0  0  0
 11 15  1  0  0  0  0
 12 13  1  6  0  0  0
 12  3  1  0  0  0  0
 14  9  1  0  0  0  0
 15 14  2  0  0  0  0
 16  6  1  0  0  0  0
 16  9  2  0  0  0  0
 17 15  1  0  0  0  0
 17 18  2  0  0  0  0
 19 23  1  1  0  0  0
 20 18  1  1  0  0  0
 20 21  1  0  0  0  0
 20 19  1  0  0  0  0
 21 19  1  0  0  0  0
 23 22  1  0  0  0  0
 25 24  1  0  0  0  0
M  END
>  <MODEL>
9

>  <REMARK>
 VINA RESULT:      -6.5      3.829      7.680
  Name = 
  4 active torsions:
  status: ('A' for Active; 'I' for Inactive)
    1  A    between atoms: C_1  and  C_17
    2  A    between atoms: C_2  and  O_12
    3  A    between atoms: N_6  and  C_23
    4  A    between atoms: C_15  and  C_21
                            x       y       z     vdW  Elec       q    Type
                         _______ _______ _______ _____ _____    ______ ____

>  <TORSDO>
F 4

$$$$
