=
 OpenBabel11052412463D

 25 28  0  0  0  0  0  0  0  0999 V2000
  187.1250  177.9000  145.6020 C   0  0  0  0  0  0  0  0  0  0  0  0
  188.4040  177.4780  145.2360 C   0  0  0  0  0  0  0  0  0  0  0  0
  187.7110  177.8910  147.9360 C   0  0  0  0  0  3  0  0  0  0  0  0
  185.9890  178.1960  144.8830 C   0  0  0  0  0  0  0  0  0  0  0  0
  183.4450  178.9210  144.0710 C   0  0  0  0  0  3  0  0  0  0  0  0
  188.9660  177.4780  147.5890 N   0  0  0  0  0  0  0  0  0  0  0  0
  185.0420  178.5580  145.8190 C   0  0  0  0  0  0  0  0  0  0  0  0
  183.7520  178.9270  145.4440 C   0  0  0  0  0  3  0  0  0  0  0  0
  190.6390  176.8410  145.9680 C   0  0  0  0  0  0  0  0  0  0  0  0
  191.6570  176.6050  147.0320 C   0  0  0  0  0  1  0  0  0  0  0  0
  188.7760  177.2650  143.9060 C   0  0  0  0  0  3  0  0  0  0  0  0
  184.4180  178.5500  143.1150 C   0  0  0  0  0  3  0  0  0  0  0  0
  186.7840  178.1020  146.9200 C   0  0  0  0  0  0  0  0  0  0  0  0
  185.5330  178.4970  147.0420 O   0  0  0  0  0  0  0  0  0  0  0  0
  190.9980  176.6320  144.6320 C   0  0  0  0  0  3  0  0  0  0  0  0
  185.7150  178.1800  143.5180 C   0  0  0  0  0  3  0  0  0  0  0  0
  190.0760  176.8410  143.6010 C   0  0  0  0  0  0  0  0  0  0  0  0
  189.3390  177.2660  146.2850 C   0  0  0  0  0  0  0  0  0  0  0  0
  190.4930  176.6080  142.2160 C   0  0  0  0  0  3  0  0  0  0  0  0
  190.1450  177.4080  141.2610 N   0  0  0  0  0  0  0  0  0  0  0  0
  190.5600  177.1600  139.8890 C   0  0  0  0  0  2  0  0  0  0  0  0
  189.3520  177.0270  138.9710 C   0  0  0  0  0  2  0  0  0  0  0  0
  188.5900  178.3060  138.8900 C   0  0  0  0  0  0  0  0  0  0  0  0
  187.2980  178.4030  139.4760 N   0  0  0  0  0  1  0  0  0  0  0  0
  189.0830  179.2980  138.2910 O   0  0  0  0  0  0  0  0  0  0  0  0
  1 13  1  0  0  0  0
  2  1  2  0  0  0  0
  2 18  1  0  0  0  0
  4  1  1  0  0  0  0
  4  7  1  0  0  0  0
  5  8  1  0  0  0  0
  6  3  1  0  0  0  0
  7 14  1  0  0  0  0
  8  7  2  0  0  0  0
  9 18  1  0  0  0  0
  9 10  1  0  0  0  0
 11  2  1  0  0  0  0
 12 16  1  0  0  0  0
 12  5  2  0  0  0  0
 13 14  1  0  0  0  0
 13  3  2  0  0  0  0
 15  9  2  0  0  0  0
 16  4  2  0  0  0  0
 17 11  2  0  0  0  0
 17 15  1  0  0  0  0
 18  6  2  0  0  0  0
 19 17  1  0  0  0  0
 20 19  2  0  0  0  0
 21 20  1  0  0  0  0
 22 21  1  0  0  0  0
 23 22  1  0  0  0  0
 23 24  1  0  0  0  0
 25 23  2  0  0  0  0
M  END
>  <MODEL>
1

>  <REMARK>
 VINA RESULT:     -10.6      0.000      0.000
  Name = 
  4 active torsions:
  status: ('A' for Active; 'I' for Inactive)
    1  A    between atoms: C_2  and  C_25
    2  A    between atoms: C_6  and  C_23
    3  A    between atoms: N_15  and  C_21
    4  A    between atoms: C_21  and  C_25
                            x       y       z     vdW  Elec       q    Type
                         _______ _______ _______ _____ _____    ______ ____

>  <TORSDO>
F 4

$$$$
=
 OpenBabel11052412463D

 25 28  0  0  0  0  0  0  0  0999 V2000
  185.5910  178.2440  144.7540 C   0  0  0  0  0  0  0  0  0  0  0  0
  186.9230  177.8310  144.7180 C   0  0  0  0  0  0  0  0  0  0  0  0
  185.6730  178.5400  147.1410 C   0  0  0  0  0  3  0  0  0  0  0  0
  184.6280  178.4070  143.7850 C   0  0  0  0  0  0  0  0  0  0  0  0
  182.3030  178.9300  142.3780 C   0  0  0  0  0  3  0  0  0  0  0  0
  186.9780  178.1370  147.1170 N   0  0  0  0  0  0  0  0  0  0  0  0
  183.5010  178.8430  144.4510 C   0  0  0  0  0  0  0  0  0  0  0  0
  182.3150  179.1140  143.7730 C   0  0  0  0  0  3  0  0  0  0  0  0
  188.9630  177.3740  145.9720 C   0  0  0  0  0  0  0  0  0  0  0  0
  189.7370  177.3080  147.2440 C   0  0  0  0  0  1  0  0  0  0  0  0
  187.5690  177.4730  143.5320 C   0  0  0  0  0  3  0  0  0  0  0  0
  183.4600  178.4840  141.6990 C   0  0  0  0  0  3  0  0  0  0  0  0
  184.9780  178.5910  145.9370 C   0  0  0  0  0  0  0  0  0  0  0  0
  183.7240  178.9490  145.7460 O   0  0  0  0  0  0  0  0  0  0  0  0
  189.5970  177.0190  144.7760 C   0  0  0  0  0  3  0  0  0  0  0  0
  184.6470  178.2160  142.4050 C   0  0  0  0  0  3  0  0  0  0  0  0
  188.9090  177.0660  143.5580 C   0  0  0  0  0  0  0  0  0  0  0  0
  187.6200  177.7830  145.9550 C   0  0  0  0  0  0  0  0  0  0  0  0
  189.6110  176.6830  142.3300 C   0  0  0  0  0  3  0  0  0  0  0  0
  189.4520  177.3400  141.2270 N   0  0  0  0  0  0  0  0  0  0  0  0
  190.1500  176.9450  140.0140 C   0  0  0  0  0  2  0  0  0  0  0  0
  189.2060  176.9480  138.8180 C   0  0  0  0  0  2  0  0  0  0  0  0
  188.4690  178.2400  138.7140 C   0  0  0  0  0  0  0  0  0  0  0  0
  187.0640  178.2770  138.9290 N   0  0  0  0  0  1  0  0  0  0  0  0
  189.0870  179.2970  138.4220 O   0  0  0  0  0  0  0  0  0  0  0  0
  1 13  1  0  0  0  0
  2  1  2  0  0  0  0
  2 18  1  0  0  0  0
  4  7  1  0  0  0  0
  4  1  1  0  0  0  0
  5  8  1  0  0  0  0
  6  3  1  0  0  0  0
  7 14  1  0  0  0  0
  8  7  2  0  0  0  0
  9 10  1  0  0  0  0
 11 17  2  0  0  0  0
 11  2  1  0  0  0  0
 12  5  2  0  0  0  0
 12 16  1  0  0  0  0
 13  3  2  0  0  0  0
 14 13  1  0  0  0  0
 15  9  2  0  0  0  0
 16  4  2  0  0  0  0
 17 15  1  0  0  0  0
 18  9  1  0  0  0  0
 18  6  2  0  0  0  0
 19 17  1  0  0  0  0
 20 19  2  0  0  0  0
 21 20  1  0  0  0  0
 22 21  1  0  0  0  0
 23 22  1  0  0  0  0
 23 24  1  0  0  0  0
 25 23  2  0  0  0  0
M  END
>  <MODEL>
2

>  <REMARK>
 VINA RESULT:     -10.3      1.138      1.611
  Name = 
  4 active torsions:
  status: ('A' for Active; 'I' for Inactive)
    1  A    between atoms: C_2  and  C_25
    2  A    between atoms: C_6  and  C_23
    3  A    between atoms: N_15  and  C_21
    4  A    between atoms: C_21  and  C_25
                            x       y       z     vdW  Elec       q    Type
                         _______ _______ _______ _____ _____    ______ ____

>  <TORSDO>
F 4

$$$$
=
 OpenBabel11052412463D

 25 28  0  0  0  0  0  0  0  0999 V2000
  187.0560  177.9690  145.7420 C   0  0  0  0  0  0  0  0  0  0  0  0
  188.3570  177.5420  145.4780 C   0  0  0  0  0  0  0  0  0  0  0  0
  187.4860  178.0470  148.1090 C   0  0  0  0  0  3  0  0  0  0  0  0
  185.9690  178.2340  144.9410 C   0  0  0  0  0  0  0  0  0  0  0  0
  183.4820  178.9160  143.9370 C   0  0  0  0  0  3  0  0  0  0  0  0
  188.7630  177.6280  147.8610 N   0  0  0  0  0  0  0  0  0  0  0  0
  184.9610  178.6240  145.7990 C   0  0  0  0  0  0  0  0  0  0  0  0
  183.6980  178.9730  145.3270 C   0  0  0  0  0  3  0  0  0  0  0  0
  190.5410  176.9430  146.3770 C   0  0  0  0  0  0  0  0  0  0  0  0
  191.4870  176.7500  147.5130 C   0  0  0  0  0  1  0  0  0  0  0  0
  188.8160  177.2830  144.1830 C   0  0  0  0  0  3  0  0  0  0  0  0
  184.5170  178.5170  143.0620 C   0  0  0  0  0  3  0  0  0  0  0  0
  186.6280  178.2170  147.0280 C   0  0  0  0  0  0  0  0  0  0  0  0
  185.3700  178.6090  147.0520 O   0  0  0  0  0  0  0  0  0  0  0  0
  190.9880  176.6880  145.0760 C   0  0  0  0  0  3  0  0  0  0  0  0
  185.7850  178.1680  143.5620 C   0  0  0  0  0  3  0  0  0  0  0  0
  190.1340  176.8560  143.9800 C   0  0  0  0  0  0  0  0  0  0  0  0
  189.2210  177.3720  146.5920 C   0  0  0  0  0  0  0  0  0  0  0  0
  190.6430  176.5750  142.6340 C   0  0  0  0  0  3  0  0  0  0  0  0
  190.9460  177.5280  141.8130 N   0  0  0  0  0  0  0  0  0  0  0  0
  191.4420  177.2350  140.4790 C   0  0  0  0  0  2  0  0  0  0  0  0
  190.3440  177.4130  139.4380 C   0  0  0  0  0  2  0  0  0  0  0  0
  190.5060  176.4510  138.3100 C   0  0  0  0  0  0  0  0  0  0  0  0
  190.2700  176.8740  136.9740 N   0  0  0  0  0  1  0  0  0  0  0  0
  190.8380  175.2590  138.5410 O   0  0  0  0  0  0  0  0  0  0  0  0
  1 13  1  0  0  0  0
  2  1  2  0  0  0  0
  2 18  1  0  0  0  0
  4  1  1  0  0  0  0
  4  7  1  0  0  0  0
  5  8  1  0  0  0  0
  6  3  1  0  0  0  0
  7 14  1  0  0  0  0
  8  7  2  0  0  0  0
  9 18  1  0  0  0  0
  9 10  1  0  0  0  0
 11  2  1  0  0  0  0
 12 16  1  0  0  0  0
 12  5  2  0  0  0  0
 13 14  1  0  0  0  0
 13  3  2  0  0  0  0
 15  9  2  0  0  0  0
 16  4  2  0  0  0  0
 17 11  2  0  0  0  0
 17 15  1  0  0  0  0
 18  6  2  0  0  0  0
 19 17  1  0  0  0  0
 20 19  2  0  0  0  0
 21 20  1  0  0  0  0
 22 21  1  0  0  0  0
 23 25  2  0  0  0  0
 23 22  1  0  0  0  0
 24 23  1  0  0  0  0
M  END
>  <MODEL>
3

>  <REMARK>
 VINA RESULT:     -10.2      1.348      1.407
  Name = 
  4 active torsions:
  status: ('A' for Active; 'I' for Inactive)
    1  A    between atoms: C_2  and  C_25
    2  A    between atoms: C_6  and  C_23
    3  A    between atoms: N_15  and  C_21
    4  A    between atoms: C_21  and  C_25
                            x       y       z     vdW  Elec       q    Type
                         _______ _______ _______ _____ _____    ______ ____

>  <TORSDO>
F 4

$$$$
=
 OpenBabel11052412463D

 25 28  0  0  0  0  0  0  0  0999 V2000
  187.9220  177.6390  145.6100 C   0  0  0  0  0  0  0  0  0  0  0  0
  187.0390  177.9880  144.5880 C   0  0  0  0  0  0  0  0  0  0  0  0
  186.2480  178.0440  147.2910 C   0  0  0  0  0  3  0  0  0  0  0  0
  189.2350  177.2280  145.6220 C   0  0  0  0  0  0  0  0  0  0  0  0
  191.7730  176.3840  146.3340 C   0  0  0  0  0  3  0  0  0  0  0  0
  185.3760  178.3870  146.2980 N   0  0  0  0  0  0  0  0  0  0  0  0
  189.5520  177.0340  146.9510 C   0  0  0  0  0  0  0  0  0  0  0  0
  190.8190  176.6110  147.3440 C   0  0  0  0  0  3  0  0  0  0  0  0
  184.8000  178.7330  143.9780 C   0  0  0  0  0  0  0  0  0  0  0  0
  183.4100  179.1430  144.3280 C   0  0  0  0  0  1  0  0  0  0  0  0
  187.4030  177.9700  143.2390 C   0  0  0  0  0  3  0  0  0  0  0  0
  191.4450  176.5830  144.9740 C   0  0  0  0  0  3  0  0  0  0  0  0
  187.5370  177.6660  146.9320 C   0  0  0  0  0  0  0  0  0  0  0  0
  188.5210  177.3010  147.7300 O   0  0  0  0  0  0  0  0  0  0  0  0
  185.1780  178.7100  142.6310 C   0  0  0  0  0  3  0  0  0  0  0  0
  190.1580  177.0120  144.6010 C   0  0  0  0  0  3  0  0  0  0  0  0
  186.4730  178.3310  142.2560 C   0  0  0  0  0  0  0  0  0  0  0  0
  185.7260  178.3720  144.9700 C   0  0  0  0  0  0  0  0  0  0  0  0
  186.8270  178.3240  140.8340 C   0  0  0  0  0  3  0  0  0  0  0  0
  188.0440  178.1250  140.4420 N   0  0  0  0  0  0  0  0  0  0  0  0
  188.3840  178.1270  139.0280 C   0  0  0  0  0  2  0  0  0  0  0  0
  189.8800  177.9220  138.8280 C   0  0  0  0  0  2  0  0  0  0  0  0
  190.2980  176.5500  139.2380 C   0  0  0  0  0  0  0  0  0  0  0  0
  190.3820  175.5130  138.2700 N   0  0  0  0  0  1  0  0  0  0  0  0
  190.5630  176.3060  140.4440 O   0  0  0  0  0  0  0  0  0  0  0  0
  1  4  1  0  0  0  0
  1 13  2  0  0  0  0
  2 18  1  0  0  0  0
  2  1  1  0  0  0  0
  4  7  1  0  0  0  0
  5  8  1  0  0  0  0
  6  3  2  0  0  0  0
  7  8  2  0  0  0  0
  7 14  1  0  0  0  0
  9 10  1  0  0  0  0
  9 18  2  0  0  0  0
 11  2  2  0  0  0  0
 12  5  2  0  0  0  0
 13  3  1  0  0  0  0
 13 14  1  0  0  0  0
 15  9  1  0  0  0  0
 16 12  1  0  0  0  0
 16  4  2  0  0  0  0
 17 15  2  0  0  0  0
 17 11  1  0  0  0  0
 18  6  1  0  0  0  0
 19 17  1  0  0  0  0
 20 19  2  0  0  0  0
 21 20  1  0  0  0  0
 22 21  1  0  0  0  0
 22 23  1  0  0  0  0
 23 25  2  0  0  0  0
 24 23  1  0  0  0  0
M  END
>  <MODEL>
4

>  <REMARK>
 VINA RESULT:      -9.5      1.769      4.740
  Name = 
  4 active torsions:
  status: ('A' for Active; 'I' for Inactive)
    1  A    between atoms: C_2  and  C_25
    2  A    between atoms: C_6  and  C_23
    3  A    between atoms: N_15  and  C_21
    4  A    between atoms: C_21  and  C_25
                            x       y       z     vdW  Elec       q    Type
                         _______ _______ _______ _____ _____    ______ ____

>  <TORSDO>
F 4

$$$$
=
 OpenBabel11052412463D

 25 28  0  0  0  0  0  0  0  0999 V2000
  188.0040  177.5670  145.5990 C   0  0  0  0  0  0  0  0  0  0  0  0
  187.1650  177.9190  144.5410 C   0  0  0  0  0  0  0  0  0  0  0  0
  186.2500  177.9340  147.2050 C   0  0  0  0  0  3  0  0  0  0  0  0
  189.3190  177.1700  145.6670 C   0  0  0  0  0  0  0  0  0  0  0  0
  191.8300  176.3440  146.4860 C   0  0  0  0  0  3  0  0  0  0  0  0
  185.4200  178.2810  146.1770 N   0  0  0  0  0  0  0  0  0  0  0  0
  189.5760  176.9630  147.0080 C   0  0  0  0  0  0  0  0  0  0  0  0
  190.8290  176.5490  147.4530 C   0  0  0  0  0  3  0  0  0  0  0  0
  184.9490  178.6480  143.8360 C   0  0  0  0  0  0  0  0  0  0  0  0
  183.5400  179.0400  144.1260 C   0  0  0  0  0  1  0  0  0  0  0  0
  187.5920  177.9210  143.2100 C   0  0  0  0  0  3  0  0  0  0  0  0
  191.5630  176.5550  145.1150 C   0  0  0  0  0  3  0  0  0  0  0  0
  187.5580  177.5740  146.9020 C   0  0  0  0  0  0  0  0  0  0  0  0
  188.5080  177.2100  147.7400 O   0  0  0  0  0  0  0  0  0  0  0  0
  185.3890  178.6450  142.5080 C   0  0  0  0  0  3  0  0  0  0  0  0
  190.2900  176.9750  144.6880 C   0  0  0  0  0  3  0  0  0  0  0  0
  186.7040  178.2840  142.1900 C   0  0  0  0  0  0  0  0  0  0  0  0
  185.8320  178.2850  144.8660 C   0  0  0  0  0  0  0  0  0  0  0  0
  187.1240  178.2970  140.7860 C   0  0  0  0  0  3  0  0  0  0  0  0
  188.3740  178.3450  140.4550 N   0  0  0  0  0  0  0  0  0  0  0  0
  188.7760  178.3640  139.0580 C   0  0  0  0  0  2  0  0  0  0  0  0
  187.9080  177.4280  138.2280 C   0  0  0  0  0  2  0  0  0  0  0  0
  187.0680  178.1870  137.2570 C   0  0  0  0  0  0  0  0  0  0  0  0
  187.5000  179.4570  136.7850 N   0  0  0  0  0  1  0  0  0  0  0  0
  185.9710  177.7110  136.8630 O   0  0  0  0  0  0  0  0  0  0  0  0
  1  4  1  0  0  0  0
  1 13  2  0  0  0  0
  2 18  1  0  0  0  0
  2  1  1  0  0  0  0
  4  7  1  0  0  0  0
  5  8  1  0  0  0  0
  6  3  2  0  0  0  0
  7  8  2  0  0  0  0
  7 14  1  0  0  0  0
  9 10  1  0  0  0  0
  9 18  2  0  0  0  0
 11  2  2  0  0  0  0
 12  5  2  0  0  0  0
 13  3  1  0  0  0  0
 13 14  1  0  0  0  0
 15  9  1  0  0  0  0
 16 12  1  0  0  0  0
 16  4  2  0  0  0  0
 17 15  2  0  0  0  0
 17 11  1  0  0  0  0
 18  6  1  0  0  0  0
 19 17  1  0  0  0  0
 20 19  2  0  0  0  0
 21 20  1  0  0  0  0
 22 21  1  0  0  0  0
 23 22  1  0  0  0  0
 24 23  1  0  0  0  0
 25 23  2  0  0  0  0
M  END
>  <MODEL>
5

>  <REMARK>
 VINA RESULT:      -9.4      1.754      4.672
  Name = 
  4 active torsions:
  status: ('A' for Active; 'I' for Inactive)
    1  A    between atoms: C_2  and  C_25
    2  A    between atoms: C_6  and  C_23
    3  A    between atoms: N_15  and  C_21
    4  A    between atoms: C_21  and  C_25
                            x       y       z     vdW  Elec       q    Type
                         _______ _______ _______ _____ _____    ______ ____

>  <TORSDO>
F 4

$$$$
=
 OpenBabel11052412463D

 25 28  0  0  0  0  0  0  0  0999 V2000
  186.9260  178.2750  141.5800 C   0  0  0  0  0  0  0  0  0  0  0  0
  186.4310  178.2610  142.8850 C   0  0  0  0  0  0  0  0  0  0  0  0
  184.8070  179.0080  140.7080 C   0  0  0  0  0  3  0  0  0  0  0  0
  188.1540  177.9780  141.0350 C   0  0  0  0  0  0  0  0  0  0  0  0
  190.3030  177.5510  139.3450 C   0  0  0  0  0  3  0  0  0  0  0  0
  184.3120  178.9980  141.9810 N   0  0  0  0  0  0  0  0  0  0  0  0
  188.0180  178.1860  139.6770 C   0  0  0  0  0  0  0  0  0  0  0  0
  189.0790  177.9800  138.7990 C   0  0  0  0  0  3  0  0  0  0  0  0
  184.5280  178.6400  144.3590 C   0  0  0  0  0  0  0  0  0  0  0  0
  183.1090  179.0280  144.6020 C   0  0  0  0  0  1  0  0  0  0  0  0
  187.2130  177.8930  143.9830 C   0  0  0  0  0  3  0  0  0  0  0  0
  190.4390  177.3400  140.7350 C   0  0  0  0  0  3  0  0  0  0  0  0
  186.1340  178.6400  140.5150 C   0  0  0  0  0  0  0  0  0  0  0  0
  186.7970  178.5840  139.3770 O   0  0  0  0  0  0  0  0  0  0  0  0
  185.3230  178.2700  145.4510 C   0  0  0  0  0  3  0  0  0  0  0  0
  189.3530  177.5540  141.6030 C   0  0  0  0  0  3  0  0  0  0  0  0
  186.6600  177.8980  145.2700 C   0  0  0  0  0  0  0  0  0  0  0  0
  185.0730  178.6380  143.0660 C   0  0  0  0  0  0  0  0  0  0  0  0
  187.4550  177.5160  146.4400 C   0  0  0  0  0  3  0  0  0  0  0  0
  188.6720  177.9280  146.5940 N   0  0  0  0  0  0  0  0  0  0  0  0
  189.4520  177.5360  147.7570 C   0  0  0  0  0  2  0  0  0  0  0  0
  190.1960  176.2320  147.4980 C   0  0  0  0  0  2  0  0  0  0  0  0
  191.6240  176.4830  147.1490 C   0  0  0  0  0  0  0  0  0  0  0  0
  192.6560  176.0680  148.0350 N   0  0  0  0  0  1  0  0  0  0  0  0
  191.9170  177.0750  146.0780 O   0  0  0  0  0  0  0  0  0  0  0  0
  1  2  2  0  0  0  0
  2 18  1  0  0  0  0
  2 11  1  0  0  0  0
  3  6  1  0  0  0  0
  4  1  1  0  0  0  0
  4 16  1  0  0  0  0
  5 12  1  0  0  0  0
  6 18  2  0  0  0  0
  7  4  2  0  0  0  0
  8  5  2  0  0  0  0
  8  7  1  0  0  0  0
  9 10  1  0  0  0  0
  9 15  2  0  0  0  0
 11 17  2  0  0  0  0
 12 16  2  0  0  0  0
 13  3  2  0  0  0  0
 13  1  1  0  0  0  0
 14  7  1  0  0  0  0
 14 13  1  0  0  0  0
 17 15  1  0  0  0  0
 17 19  1  0  0  0  0
 18  9  1  0  0  0  0
 19 20  2  0  0  0  0
 20 21  1  0  0  0  0
 22 21  1  0  0  0  0
 23 22  1  0  0  0  0
 23 24  1  0  0  0  0
 25 23  2  0  0  0  0
M  END
>  <MODEL>
6

>  <REMARK>
 VINA RESULT:      -9.3      2.299      6.893
  Name = 
  4 active torsions:
  status: ('A' for Active; 'I' for Inactive)
    1  A    between atoms: C_2  and  C_25
    2  A    between atoms: C_6  and  C_23
    3  A    between atoms: N_15  and  C_21
    4  A    between atoms: C_21  and  C_25
                            x       y       z     vdW  Elec       q    Type
                         _______ _______ _______ _____ _____    ______ ____

>  <TORSDO>
F 4

$$$$
=
 OpenBabel11052412463D

 25 28  0  0  0  0  0  0  0  0999 V2000
  189.5250  177.4480  143.3820 C   0  0  0  0  0  0  0  0  0  0  0  0
  188.4620  177.5970  144.2740 C   0  0  0  0  0  0  0  0  0  0  0  0
  191.0840  177.1160  145.1840 C   0  0  0  0  0  3  0  0  0  0  0  0
  189.6150  177.4830  142.0100 C   0  0  0  0  0  0  0  0  0  0  0  0
  190.4700  177.4320  139.3780 C   0  0  0  0  0  3  0  0  0  0  0  0
  190.0510  177.2610  146.0660 N   0  0  0  0  0  0  0  0  0  0  0  0
  190.9470  177.2650  141.7200 C   0  0  0  0  0  0  0  0  0  0  0  0
  191.4100  177.2340  140.4070 C   0  0  0  0  0  3  0  0  0  0  0  0
  187.7260  177.6400  146.5970 C   0  0  0  0  0  0  0  0  0  0  0  0
  187.9880  177.5430  148.0610 C   0  0  0  0  0  1  0  0  0  0  0  0
  187.1520  177.8380  143.8510 C   0  0  0  0  0  3  0  0  0  0  0  0
  189.1070  177.6540  139.6790 C   0  0  0  0  0  3  0  0  0  0  0  0
  190.8070  177.2120  143.8250 C   0  0  0  0  0  0  0  0  0  0  0  0
  191.6540  177.1040  142.8210 O   0  0  0  0  0  0  0  0  0  0  0  0
  186.4180  177.8800  146.1600 C   0  0  0  0  0  3  0  0  0  0  0  0
  188.6620  177.6820  141.0130 C   0  0  0  0  0  3  0  0  0  0  0  0
  186.1260  177.9790  144.7940 C   0  0  0  0  0  0  0  0  0  0  0  0
  188.7610  177.4970  145.6590 C   0  0  0  0  0  0  0  0  0  0  0  0
  184.7430  178.2330  144.3800 C   0  0  0  0  0  3  0  0  0  0  0  0
  184.4270  178.3810  143.1340 N   0  0  0  0  0  0  0  0  0  0  0  0
  183.0520  178.6400  142.7380 C   0  0  0  0  0  2  0  0  0  0  0  0
  182.1960  178.9970  143.9460 C   0  0  0  0  0  2  0  0  0  0  0  0
  180.7460  179.0090  143.5970 C   0  0  0  0  0  0  0  0  0  0  0  0
  179.9150  177.9180  143.9710 N   0  0  0  0  0  1  0  0  0  0  0  0
  180.2580  179.9780  142.9580 O   0  0  0  0  0  0  0  0  0  0  0  0
  1 13  1  0  0  0  0
  1  2  2  0  0  0  0
  2 18  1  0  0  0  0
  3  6  1  0  0  0  0
  4  1  1  0  0  0  0
  5 12  2  0  0  0  0
  5  8  1  0  0  0  0
  7  4  1  0  0  0  0
  7 14  1  0  0  0  0
  8  7  2  0  0  0  0
  9 10  1  0  0  0  0
 11  2  1  0  0  0  0
 11 17  2  0  0  0  0
 12 16  1  0  0  0  0
 13  3  2  0  0  0  0
 14 13  1  0  0  0  0
 15  9  2  0  0  0  0
 16  4  2  0  0  0  0
 17 15  1  0  0  0  0
 18  6  2  0  0  0  0
 18  9  1  0  0  0  0
 19 17  1  0  0  0  0
 20 19  2  0  0  0  0
 21 20  1  0  0  0  0
 21 22  1  0  0  0  0
 23 22  1  0  0  0  0
 23 24  1  0  0  0  0
 25 23  2  0  0  0  0
M  END
>  <MODEL>
7

>  <REMARK>
 VINA RESULT:      -9.1      2.887      6.195
  Name = 
  4 active torsions:
  status: ('A' for Active; 'I' for Inactive)
    1  A    between atoms: C_2  and  C_25
    2  A    between atoms: C_6  and  C_23
    3  A    between atoms: N_15  and  C_21
    4  A    between atoms: C_21  and  C_25
                            x       y       z     vdW  Elec       q    Type
                         _______ _______ _______ _____ _____    ______ ____

>  <TORSDO>
F 4

$$$$
=
 OpenBabel11052412463D

 25 28  0  0  0  0  0  0  0  0999 V2000
  188.0480  177.5660  145.1010 C   0  0  0  0  0  0  0  0  0  0  0  0
  187.4160  177.9040  143.9040 C   0  0  0  0  0  0  0  0  0  0  0  0
  186.0030  177.8370  146.3410 C   0  0  0  0  0  3  0  0  0  0  0  0
  189.3410  177.2180  145.4190 C   0  0  0  0  0  0  0  0  0  0  0  0
  191.6780  176.4740  146.7010 C   0  0  0  0  0  3  0  0  0  0  0  0
  185.3740  178.1700  145.1740 N   0  0  0  0  0  0  0  0  0  0  0  0
  189.3420  176.9980  146.7820 C   0  0  0  0  0  0  0  0  0  0  0  0
  190.5000  176.6230  147.4570 C   0  0  0  0  0  3  0  0  0  0  0  0
  185.3500  178.5610  142.7910 C   0  0  0  0  0  0  0  0  0  0  0  0
  183.8960  178.8930  142.8060 C   0  0  0  0  0  1  0  0  0  0  0  0
  188.0910  177.9460  142.6820 C   0  0  0  0  0  3  0  0  0  0  0  0
  191.6720  176.6990  145.3060 C   0  0  0  0  0  3  0  0  0  0  0  0
  187.3590  177.5330  146.2930 C   0  0  0  0  0  0  0  0  0  0  0  0
  188.1430  177.1910  147.2960 O   0  0  0  0  0  0  0  0  0  0  0  0
  186.0380  178.5980  141.5740 C   0  0  0  0  0  3  0  0  0  0  0  0
  190.4900  177.0780  144.6440 C   0  0  0  0  0  3  0  0  0  0  0  0
  187.4030  178.2930  141.5120 C   0  0  0  0  0  0  0  0  0  0  0  0
  186.0310  178.2140  143.9690 C   0  0  0  0  0  0  0  0  0  0  0  0
  188.0850  178.3470  140.2170 C   0  0  0  0  0  3  0  0  0  0  0  0
  188.7540  177.3380  139.7620 N   0  0  0  0  0  0  0  0  0  0  0  0
  189.4330  177.4070  138.4780 C   0  0  0  0  0  2  0  0  0  0  0  0
  189.6380  176.0150  137.8940 C   0  0  0  0  0  2  0  0  0  0  0  0
  191.0690  175.6020  137.9700 C   0  0  0  0  0  0  0  0  0  0  0  0
  192.0890  176.5880  138.0730 N   0  0  0  0  0  1  0  0  0  0  0  0
  191.3770  174.3830  137.9280 O   0  0  0  0  0  0  0  0  0  0  0  0
  1  4  1  0  0  0  0
  1 13  2  0  0  0  0
  2 18  1  0  0  0  0
  2  1  1  0  0  0  0
  4  7  1  0  0  0  0
  5  8  1  0  0  0  0
  6  3  2  0  0  0  0
  7 14  1  0  0  0  0
  7  8  2  0  0  0  0
  9 10  1  0  0  0  0
  9 18  2  0  0  0  0
 11  2  2  0  0  0  0
 12  5  2  0  0  0  0
 13  3  1  0  0  0  0
 13 14  1  0  0  0  0
 15  9  1  0  0  0  0
 16 12  1  0  0  0  0
 16  4  2  0  0  0  0
 17 15  2  0  0  0  0
 17 11  1  0  0  0  0
 18  6  1  0  0  0  0
 19 17  1  0  0  0  0
 20 19  2  0  0  0  0
 21 20  1  0  0  0  0
 22 23  1  0  0  0  0
 22 21  1  0  0  0  0
 23 24  1  0  0  0  0
 25 23  2  0  0  0  0
M  END
>  <MODEL>
8

>  <REMARK>
 VINA RESULT:      -9.0      2.089      4.836
  Name = 
  4 active torsions:
  status: ('A' for Active; 'I' for Inactive)
    1  A    between atoms: C_2  and  C_25
    2  A    between atoms: C_6  and  C_23
    3  A    between atoms: N_15  and  C_21
    4  A    between atoms: C_21  and  C_25
                            x       y       z     vdW  Elec       q    Type
                         _______ _______ _______ _____ _____    ______ ____

>  <TORSDO>
F 4

$$$$
=
 OpenBabel11052412463D

 25 28  0  0  0  0  0  0  0  0999 V2000
  189.2700  177.6110  143.7470 C   0  0  0  0  0  0  0  0  0  0  0  0
  189.5860  177.5530  142.3890 C   0  0  0  0  0  0  0  0  0  0  0  0
  191.5900  177.4480  144.3670 C   0  0  0  0  0  3  0  0  0  0  0  0
  188.0830  177.7180  144.4350 C   0  0  0  0  0  0  0  0  0  0  0  0
  186.1170  177.9160  146.3720 C   0  0  0  0  0  3  0  0  0  0  0  0
  191.9100  177.3910  143.0400 N   0  0  0  0  0  0  0  0  0  0  0  0
  188.4280  177.7250  145.7710 C   0  0  0  0  0  0  0  0  0  0  0  0
  187.4630  177.8230  146.7710 C   0  0  0  0  0  3  0  0  0  0  0  0
  191.3300  177.3770  140.6960 C   0  0  0  0  0  0  0  0  0  0  0  0
  192.7590  177.2570  140.2870 C   0  0  0  0  0  1  0  0  0  0  0  0
  188.6140  177.6030  141.3870 C   0  0  0  0  0  3  0  0  0  0  0  0
  185.7680  177.9090  145.0020 C   0  0  0  0  0  3  0  0  0  0  0  0
  190.2480  177.5600  144.7150 C   0  0  0  0  0  0  0  0  0  0  0  0
  189.7340  177.6290  145.9270 O   0  0  0  0  0  0  0  0  0  0  0  0
  190.3460  177.4280  139.7020 C   0  0  0  0  0  3  0  0  0  0  0  0
  186.7600  177.8090  144.0100 C   0  0  0  0  0  3  0  0  0  0  0  0
  188.9920  177.5410  140.0400 C   0  0  0  0  0  0  0  0  0  0  0  0
  190.9610  177.4390  142.0490 C   0  0  0  0  0  0  0  0  0  0  0  0
  187.9940  177.5880  138.9670 C   0  0  0  0  0  3  0  0  0  0  0  0
  187.0290  178.4500  138.9800 N   0  0  0  0  0  0  0  0  0  0  0  0
  186.0420  178.4820  137.9130 C   0  0  0  0  0  2  0  0  0  0  0  0
  184.6570  178.1300  138.4420 C   0  0  0  0  0  2  0  0  0  0  0  0
  184.1290  179.2040  139.3320 C   0  0  0  0  0  0  0  0  0  0  0  0
  183.4120  178.8620  140.5110 N   0  0  0  0  0  1  0  0  0  0  0  0
  184.3050  180.4140  139.0330 O   0  0  0  0  0  0  0  0  0  0  0  0
  1  4  1  0  0  0  0
  1 13  2  0  0  0  0
  2  1  1  0  0  0  0
  3 13  1  0  0  0  0
  4  7  1  0  0  0  0
  5  8  1  0  0  0  0
  6  3  2  0  0  0  0
  7 14  1  0  0  0  0
  7  8  2  0  0  0  0
  9 18  2  0  0  0  0
 10  9  1  0  0  0  0
 11  2  2  0  0  0  0
 12  5  2  0  0  0  0
 13 14  1  0  0  0  0
 15 17  2  0  0  0  0
 15  9  1  0  0  0  0
 16  4  2  0  0  0  0
 16 12  1  0  0  0  0
 17 11  1  0  0  0  0
 18  2  1  0  0  0  0
 18  6  1  0  0  0  0
 19 20  2  0  0  0  0
 19 17  1  0  0  0  0
 21 22  1  0  0  0  0
 21 20  1  0  0  0  0
 22 23  1  0  0  0  0
 23 24  1  0  0  0  0
 25 23  2  0  0  0  0
M  END
>  <MODEL>
9

>  <REMARK>
 VINA RESULT:      -8.9      2.272      4.261
  Name = 
  4 active torsions:
  status: ('A' for Active; 'I' for Inactive)
    1  A    between atoms: C_2  and  C_25
    2  A    between atoms: C_6  and  C_23
    3  A    between atoms: N_15  and  C_21
    4  A    between atoms: C_21  and  C_25
                            x       y       z     vdW  Elec       q    Type
                         _______ _______ _______ _____ _____    ______ ____

>  <TORSDO>
F 4

$$$$
