=
 OpenBabel11052413143D

 31 34  0  0  1  0  0  0  0  0999 V2000
  185.1600  178.5530  145.7320 C   0  0  0  0  0  0  0  0  0  0  0  0
  187.1230  178.2810  142.5470 C   0  0  0  0  0  0  0  0  0  0  0  0
  188.5550  178.1330  143.0800 C   0  0  1  0  0  3  0  0  0  0  0  0
  190.1900  176.7450  144.1890 C   0  0  0  0  0  2  0  0  0  0  0  0
  186.0370  178.4260  143.4580 C   0  0  0  0  0  0  0  0  0  0  0  0
  183.8640  178.7000  145.2360 C   0  0  0  0  0  3  0  0  0  0  0  0
  188.7070  177.0510  144.1360 C   0  0  0  0  0  2  0  0  0  0  0  0
  185.5330  178.6110  140.7020 C   0  0  0  0  0  0  0  0  0  0  0  0
  185.3960  178.5320  147.1990 C   0  0  0  0  0  1  0  0  0  0  0  0
  188.8240  177.4000  140.0100 C   0  0  0  0  0  2  0  0  0  0  0  0
  190.7850  177.2370  142.8790 C   0  0  2  0  0  3  0  0  0  0  0  0
  184.4800  178.6810  141.6070 C   0  0  0  0  0  3  0  0  0  0  0  0
  186.8520  178.4240  141.1520 C   0  0  0  0  0  0  0  0  0  0  0  0
  186.2350  178.4200  144.8510 C   0  0  0  0  0  3  0  0  0  0  0  0
  191.6990  178.2560  143.1420 O   0  0  0  0  0  1  0  0  0  0  0  0
  184.7190  178.6020  142.9710 C   0  0  0  0  0  0  0  0  0  0  0  0
  183.6450  178.7280  143.8580 C   0  0  0  0  0  3  0  0  0  0  0  0
  187.8740  178.4510  140.1950 O   0  0  0  0  0  0  0  0  0  0  0  0
  189.1610  176.7780  141.2170 O   0  0  0  0  0  0  0  0  0  0  0  0
  189.6320  177.7900  142.0610 C   0  0  1  0  0  3  0  0  0  0  0  0
  185.2220  178.7150  139.2430 C   0  0  0  0  0  2  0  0  0  0  0  0
  182.7760  177.2790  138.4340 C   0  0  0  0  0  1  0  0  0  0  0  0
  183.8950  180.6690  138.9690 O   0  0  0  0  0  0  0  0  0  0  0  0
  183.9120  179.4100  139.0330 C   0  0  0  0  0  0  0  0  0  0  0  0
  182.6910  178.6550  138.9100 N   0  0  0  0  0  0  0  0  0  0  0  0
  180.5620  179.5980  138.2710 C   0  0  0  0  0  2  0  0  0  0  0  0
  181.4000  179.2280  139.2350 C   0  0  0  0  0  0  0  0  0  0  0  0
  180.6740  178.3050  141.4360 C   0  0  0  0  0  1  0  0  0  0  0  0
  181.0040  179.5600  140.6490 C   0  0  2  0  0  3  0  0  0  0  0  0
  179.8690  180.5330  140.7110 C   0  0  0  0  0  3  0  0  0  0  0  0
  179.2850  180.8260  141.8710 C   0  0  0  0  0  2  0  0  0  0  0  0
  1  9  1  0  0  0  0
  2  3  1  0  0  0  0
  2  5  1  0  0  0  0
  3  7  1  1  0  0  0
  5 14  1  0  0  0  0
  6  1  1  0  0  0  0
  7  4  1  0  0  0  0
  8 13  1  0  0  0  0
  8 12  2  0  0  0  0
 10 18  1  0  0  0  0
 10 19  1  0  0  0  0
 11 15  1  1  0  0  0
 11  4  1  0  0  0  0
 12 16  1  0  0  0  0
 13  2  2  0  0  0  0
 14  1  2  0  0  0  0
 16  5  2  0  0  0  0
 16 17  1  0  0  0  0
 17  6  2  0  0  0  0
 18 13  1  0  0  0  0
 20 19  1  6  0  0  0
 20 11  1  0  0  0  0
 20  3  1  0  0  0  0
 21  8  1  0  0  0  0
 22 25  1  0  0  0  0
 23 24  2  0  0  0  0
 24 21  1  0  0  0  0
 25 24  1  0  0  0  0
 25 27  1  0  0  0  0
 26 27  2  0  0  0  0
 27 29  1  0  0  0  0
 29 30  1  0  0  0  0
 29 28  1  6  0  0  0
 30 31  2  0  0  0  0
M  END
>  <MODEL>
1

>  <REMARK>
 VINA RESULT:      -9.2      0.000      0.000
  Name = 
  5 active torsions:
  status: ('A' for Active; 'I' for Inactive)
    1  A    between atoms: C_1  and  C_24
    2  A    between atoms: C_9  and  C_23
    3  A    between atoms: C_15  and  C_23
    4  A    between atoms: C_19  and  N_22
    5  A    between atoms: C_19  and  C_24
                            x       y       z     vdW  Elec       q    Type
                         _______ _______ _______ _____ _____    ______ ____

>  <TORSDO>
F 5

$$$$
=
 OpenBabel11052413143D

 31 34  0  0  1  0  0  0  0  0999 V2000
  185.1320  178.5440  145.6670 C   0  0  0  0  0  0  0  0  0  0  0  0
  187.0280  178.3000  142.4400 C   0  0  0  0  0  0  0  0  0  0  0  0
  188.4690  178.1270  142.9420 C   0  0  1  0  0  3  0  0  0  0  0  0
  190.1090  176.7030  143.9960 C   0  0  0  0  0  2  0  0  0  0  0  0
  185.9630  178.4430  143.3740 C   0  0  0  0  0  0  0  0  0  0  0  0
  183.8290  178.7140  145.1990 C   0  0  0  0  0  3  0  0  0  0  0  0
  188.6290  177.0270  143.9770 C   0  0  0  0  0  2  0  0  0  0  0  0
  185.4060  178.6780  140.6320 C   0  0  0  0  0  0  0  0  0  0  0  0
  185.3970  178.4970  147.1280 C   0  0  0  0  0  1  0  0  0  0  0  0
  188.6690  177.4400  139.8560 C   0  0  0  0  0  2  0  0  0  0  0  0
  190.6840  177.2080  142.6820 C   0  0  2  0  0  3  0  0  0  0  0  0
  184.3720  178.7450  141.5590 C   0  0  0  0  0  3  0  0  0  0  0  0
  186.7320  178.4680  141.0530 C   0  0  0  0  0  0  0  0  0  0  0  0
  186.1880  178.4120  144.7620 C   0  0  0  0  0  3  0  0  0  0  0  0
  191.6150  178.2120  142.9430 O   0  0  0  0  0  1  0  0  0  0  0  0
  184.6380  178.6420  142.9170 C   0  0  0  0  0  0  0  0  0  0  0  0
  183.5830  178.7660  143.8260 C   0  0  0  0  0  3  0  0  0  0  0  0
  187.7360  178.4980  140.0770 O   0  0  0  0  0  0  0  0  0  0  0  0
  189.0220  176.7940  141.0460 O   0  0  0  0  0  0  0  0  0  0  0  0
  189.5220  177.7880  141.8960 C   0  0  1  0  0  3  0  0  0  0  0  0
  185.0680  178.8080  139.1810 C   0  0  0  0  0  2  0  0  0  0  0  0
  182.4800  177.5630  138.5110 C   0  0  0  0  0  1  0  0  0  0  0  0
  183.8970  180.8590  138.9050 O   0  0  0  0  0  0  0  0  0  0  0  0
  183.8130  179.6050  139.0040 C   0  0  0  0  0  0  0  0  0  0  0  0
  182.5290  178.9520  138.9510 N   0  0  0  0  0  0  0  0  0  0  0  0
  180.8270  179.5660  140.5500 C   0  0  0  0  0  2  0  0  0  0  0  0
  181.3050  179.6390  139.3110 C   0  0  0  0  0  0  0  0  0  0  0  0
  180.9300  180.0460  136.8790 C   0  0  0  0  0  1  0  0  0  0  0  0
  180.4490  180.3370  138.2890 C   0  0  2  0  0  3  0  0  0  0  0  0
  180.3670  181.8130  138.5220 C   0  0  0  0  0  3  0  0  0  0  0  0
  181.1600  182.6540  137.8610 C   0  0  0  0  0  2  0  0  0  0  0  0
  1  9  1  0  0  0  0
  2  3  1  0  0  0  0
  2  5  1  0  0  0  0
  3  7  1  1  0  0  0
  5 14  1  0  0  0  0
  6  1  1  0  0  0  0
  7  4  1  0  0  0  0
  8 13  1  0  0  0  0
  8 12  2  0  0  0  0
 10 18  1  0  0  0  0
 10 19  1  0  0  0  0
 11 15  1  1  0  0  0
 11  4  1  0  0  0  0
 12 16  1  0  0  0  0
 13  2  2  0  0  0  0
 14  1  2  0  0  0  0
 16  5  2  0  0  0  0
 16 17  1  0  0  0  0
 17  6  2  0  0  0  0
 18 13  1  0  0  0  0
 20 19  1  6  0  0  0
 20 11  1  0  0  0  0
 20  3  1  0  0  0  0
 21  8  1  0  0  0  0
 22 25  1  0  0  0  0
 23 24  2  0  0  0  0
 24 21  1  0  0  0  0
 25 24  1  0  0  0  0
 25 27  1  0  0  0  0
 27 26  2  0  0  0  0
 29 28  1  6  0  0  0
 29 30  1  0  0  0  0
 29 27  1  0  0  0  0
 31 30  2  0  0  0  0
M  END
>  <MODEL>
2

>  <REMARK>
 VINA RESULT:      -9.0      0.780      1.463
  Name = 
  5 active torsions:
  status: ('A' for Active; 'I' for Inactive)
    1  A    between atoms: C_1  and  C_24
    2  A    between atoms: C_9  and  C_23
    3  A    between atoms: C_15  and  C_23
    4  A    between atoms: C_19  and  N_22
    5  A    between atoms: C_19  and  C_24
                            x       y       z     vdW  Elec       q    Type
                         _______ _______ _______ _____ _____    ______ ____

>  <TORSDO>
F 5

$$$$
=
 OpenBabel11052413143D

 31 34  0  0  1  0  0  0  0  0999 V2000
  184.3260  178.6260  144.0310 C   0  0  0  0  0  0  0  0  0  0  0  0
  188.0140  177.9640  144.2010 C   0  0  0  0  0  0  0  0  0  0  0  0
  188.2730  178.0520  145.7120 C   0  0  1  0  0  3  0  0  0  0  0  0
  188.0080  177.0510  147.8930 C   0  0  0  0  0  2  0  0  0  0  0  0
  186.7000  178.1700  143.6930 C   0  0  0  0  0  0  0  0  0  0  0  0
  184.1050  178.5570  142.6560 C   0  0  0  0  0  3  0  0  0  0  0  0
  187.3310  177.2010  146.5450 C   0  0  0  0  0  2  0  0  0  0  0  0
  188.8150  177.8000  141.8830 C   0  0  0  0  0  0  0  0  0  0  0  0
  183.1920  178.8960  144.9530 C   0  0  0  0  0  1  0  0  0  0  0  0
  190.9490  176.8000  144.5700 C   0  0  0  0  0  2  0  0  0  0  0  0
  189.4830  177.3490  147.6760 C   0  0  2  0  0  3  0  0  0  0  0  0
  187.5130  177.9340  141.4120 C   0  0  0  0  0  3  0  0  0  0  0  0
  189.0820  177.8240  143.2630 C   0  0  0  0  0  0  0  0  0  0  0  0
  185.6110  178.4370  144.5430 C   0  0  0  0  0  3  0  0  0  0  0  0
  189.8370  178.4810  148.4100 O   0  0  0  0  0  1  0  0  0  0  0  0
  186.4620  178.1280  142.2980 C   0  0  0  0  0  0  0  0  0  0  0  0
  185.1720  178.3120  141.7900 C   0  0  0  0  0  3  0  0  0  0  0  0
  190.4230  177.7720  143.6660 O   0  0  0  0  0  0  0  0  0  0  0  0
  190.0230  176.4430  145.5560 O   0  0  0  0  0  0  0  0  0  0  0  0
  189.6540  177.6320  146.1950 C   0  0  1  0  0  3  0  0  0  0  0  0
  189.9120  177.6060  140.8860 C   0  0  0  0  0  2  0  0  0  0  0  0
  190.5330  175.9280  138.5420 C   0  0  0  0  0  1  0  0  0  0  0  0
  188.9540  179.0860  139.2910 O   0  0  0  0  0  0  0  0  0  0  0  0
  189.4350  177.9400  139.5070 C   0  0  0  0  0  0  0  0  0  0  0  0
  189.5180  176.9710  138.4450 N   0  0  0  0  0  0  0  0  0  0  0  0
  188.9880  177.6760  136.1980 C   0  0  0  0  0  2  0  0  0  0  0  0
  188.6370  177.0140  137.2960 C   0  0  0  0  0  0  0  0  0  0  0  0
  187.0880  175.3060  136.3460 C   0  0  0  0  0  1  0  0  0  0  0  0
  187.2430  176.4470  137.3340 C   0  0  2  0  0  3  0  0  0  0  0  0
  186.1950  177.4900  137.1020 C   0  0  0  0  0  3  0  0  0  0  0  0
  185.7600  178.2550  138.1010 C   0  0  0  0  0  2  0  0  0  0  0  0
  1 14  1  0  0  0  0
  1  9  1  0  0  0  0
  2  3  1  0  0  0  0
  3 20  1  0  0  0  0
  3  7  1  1  0  0  0
  5  2  1  0  0  0  0
  5 14  2  0  0  0  0
  6  1  2  0  0  0  0
  7  4  1  0  0  0  0
  8 13  1  0  0  0  0
 10 19  1  0  0  0  0
 11  4  1  0  0  0  0
 11 15  1  1  0  0  0
 12  8  2  0  0  0  0
 12 16  1  0  0  0  0
 13 18  1  0  0  0  0
 13  2  2  0  0  0  0
 16  5  1  0  0  0  0
 17 16  2  0  0  0  0
 17  6  1  0  0  0  0
 18 10  1  0  0  0  0
 20 19  1  6  0  0  0
 20 11  1  0  0  0  0
 21  8  1  0  0  0  0
 23 24  2  0  0  0  0
 24 21  1  0  0  0  0
 25 22  1  0  0  0  0
 25 24  1  0  0  0  0
 26 27  2  0  0  0  0
 27 29  1  0  0  0  0
 27 25  1  0  0  0  0
 29 28  1  6  0  0  0
 30 29  1  0  0  0  0
 30 31  2  0  0  0  0
M  END
>  <MODEL>
3

>  <REMARK>
 VINA RESULT:      -8.9      2.893      5.200
  Name = 
  5 active torsions:
  status: ('A' for Active; 'I' for Inactive)
    1  A    between atoms: C_1  and  C_24
    2  A    between atoms: C_9  and  C_23
    3  A    between atoms: C_15  and  C_23
    4  A    between atoms: C_19  and  N_22
    5  A    between atoms: C_19  and  C_24
                            x       y       z     vdW  Elec       q    Type
                         _______ _______ _______ _____ _____    ______ ____

>  <TORSDO>
F 5

$$$$
=
 OpenBabel11052413143D

 31 34  0  0  1  0  0  0  0  0999 V2000
  184.8870  179.0030  140.1330 C   0  0  0  0  0  0  0  0  0  0  0  0
  188.1460  177.5140  139.0280 C   0  0  0  0  0  0  0  0  0  0  0  0
  187.8210  177.0960  137.5880 C   0  0  1  0  0  3  0  0  0  0  0  0
  187.3770  177.7740  135.3130 C   0  0  0  0  0  2  0  0  0  0  0  0
  187.1460  178.1300  139.8320 C   0  0  0  0  0  0  0  0  0  0  0  0
  185.1890  179.3660  141.4460 C   0  0  0  0  0  3  0  0  0  0  0  0
  187.1950  178.2020  136.7560 C   0  0  0  0  0  2  0  0  0  0  0  0
  189.6330  177.5250  140.9860 C   0  0  0  0  0  0  0  0  0  0  0  0
  183.5340  179.2740  139.5810 C   0  0  0  0  0  1  0  0  0  0  0  0
  190.9730  176.8240  137.7470 C   0  0  0  0  0  2  0  0  0  0  0  0
  188.5020  176.7510  135.3000 C   0  0  2  0  0  3  0  0  0  0  0  0
  188.6650  178.1890  141.7310 C   0  0  0  0  0  3  0  0  0  0  0  0
  189.3890  177.1730  139.6460 C   0  0  0  0  0  0  0  0  0  0  0  0
  185.8550  178.3890  139.3370 C   0  0  0  0  0  3  0  0  0  0  0  0
  188.0030  175.5230  134.8670 O   0  0  0  0  0  1  0  0  0  0  0  0
  187.4280  178.4820  141.1740 C   0  0  0  0  0  0  0  0  0  0  0  0
  186.4570  179.1030  141.9660 C   0  0  0  0  0  3  0  0  0  0  0  0
  190.3710  176.4300  138.9800 O   0  0  0  0  0  0  0  0  0  0  0  0
  190.0710  177.4920  136.9110 O   0  0  0  0  0  0  0  0  0  0  0  0
  188.9880  176.6240  136.7320 C   0  0  1  0  0  3  0  0  0  0  0  0
  190.9450  177.2210  141.6370 C   0  0  0  0  0  2  0  0  0  0  0  0
  191.6800  178.7920  144.0220 C   0  0  0  0  0  1  0  0  0  0  0  0
  190.4540  175.4980  143.2010 O   0  0  0  0  0  0  0  0  0  0  0  0
  190.7340  176.7160  143.0310 C   0  0  0  0  0  0  0  0  0  0  0  0
  190.8450  177.6040  144.1590 N   0  0  0  0  0  0  0  0  0  0  0  0
  190.6870  176.5090  146.3050 C   0  0  0  0  0  2  0  0  0  0  0  0
  190.1640  177.3430  145.4110 C   0  0  0  0  0  0  0  0  0  0  0  0
  188.5000  177.8800  147.1900 C   0  0  0  0  0  1  0  0  0  0  0  0
  188.7860  177.8760  145.6990 C   0  0  2  0  0  3  0  0  0  0  0  0
  187.7180  177.1310  144.9610 C   0  0  0  0  0  3  0  0  0  0  0  0
  186.4420  177.5000  145.0520 C   0  0  0  0  0  2  0  0  0  0  0  0
  1  6  1  0  0  0  0
  2 13  2  0  0  0  0
  2  5  1  0  0  0  0
  3  7  1  6  0  0  0
  3  2  1  0  0  0  0
  4  7  1  0  0  0  0
  5 16  2  0  0  0  0
  6 17  2  0  0  0  0
  8 21  1  0  0  0  0
  8 12  2  0  0  0  0
  9  1  1  0  0  0  0
 10 18  1  0  0  0  0
 11 15  1  1  0  0  0
 11  4  1  0  0  0  0
 11 20  1  0  0  0  0
 13  8  1  0  0  0  0
 14  5  1  0  0  0  0
 14  1  2  0  0  0  0
 16 12  1  0  0  0  0
 16 17  1  0  0  0  0
 18 13  1  0  0  0  0
 19 10  1  0  0  0  0
 20 19  1  6  0  0  0
 20  3  1  0  0  0  0
 21 24  1  0  0  0  0
 22 25  1  0  0  0  0
 24 23  2  0  0  0  0
 24 25  1  0  0  0  0
 25 27  1  0  0  0  0
 27 29  1  0  0  0  0
 27 26  2  0  0  0  0
 29 28  1  1  0  0  0
 30 31  2  0  0  0  0
 30 29  1  0  0  0  0
M  END
>  <MODEL>
4

>  <REMARK>
 VINA RESULT:      -8.5      3.131      7.379
  Name = 
  5 active torsions:
  status: ('A' for Active; 'I' for Inactive)
    1  A    between atoms: C_1  and  C_24
    2  A    between atoms: C_9  and  C_23
    3  A    between atoms: C_15  and  C_23
    4  A    between atoms: C_19  and  N_22
    5  A    between atoms: C_19  and  C_24
                            x       y       z     vdW  Elec       q    Type
                         _______ _______ _______ _____ _____    ______ ____

>  <TORSDO>
F 5

$$$$
=
 OpenBabel11052413143D

 31 34  0  0  1  0  0  0  0  0999 V2000
  188.8200  177.2240  146.4580 C   0  0  0  0  0  0  0  0  0  0  0  0
  186.9620  178.0620  143.3100 C   0  0  0  0  0  0  0  0  0  0  0  0
  185.5090  178.0750  143.8050 C   0  0  1  0  0  3  0  0  0  0  0  0
  183.7990  179.1910  145.0930 C   0  0  0  0  0  2  0  0  0  0  0  0
  188.0190  177.7670  144.2180 C   0  0  0  0  0  0  0  0  0  0  0  0
  190.1360  177.2010  145.9950 C   0  0  0  0  0  3  0  0  0  0  0  0
  185.2910  178.9310  145.0410 C   0  0  0  0  0  2  0  0  0  0  0  0
  188.6230  178.1240  141.4990 C   0  0  0  0  0  0  0  0  0  0  0  0
  188.5330  176.9580  147.8920 C   0  0  0  0  0  1  0  0  0  0  0  0
  185.3260  179.3780  140.9230 C   0  0  0  0  0  2  0  0  0  0  0  0
  183.2640  178.9480  143.6910 C   0  0  2  0  0  3  0  0  0  0  0  0
  189.6460  177.9030  142.4150 C   0  0  0  0  0  3  0  0  0  0  0  0
  187.2850  178.1940  141.9250 C   0  0  0  0  0  0  0  0  0  0  0  0
  187.7730  177.5020  145.5780 C   0  0  0  0  0  3  0  0  0  0  0  0
  182.3690  177.8790  143.7190 O   0  0  0  0  0  1  0  0  0  0  0  0
  189.3570  177.7140  143.7590 C   0  0  0  0  0  0  0  0  0  0  0  0
  190.4040  177.4420  144.6470 C   0  0  0  0  0  3  0  0  0  0  0  0
  186.2970  178.3300  140.9410 O   0  0  0  0  0  0  0  0  0  0  0  0
  184.9300  179.7500  142.2120 O   0  0  0  0  0  0  0  0  0  0  0  0
  184.4590  178.5850  142.8280 C   0  0  1  0  0  3  0  0  0  0  0  0
  188.9880  178.3080  140.0600 C   0  0  0  0  0  2  0  0  0  0  0  0
  187.7120  177.0620  137.7120 C   0  0  0  0  0  1  0  0  0  0  0  0
  190.2900  176.3190  140.1260 O   0  0  0  0  0  0  0  0  0  0  0  0
  189.4700  177.0190  139.4720 C   0  0  0  0  0  0  0  0  0  0  0  0
  189.0080  176.5830  138.1780 N   0  0  0  0  0  0  0  0  0  0  0  0
  189.4400  174.4100  137.2190 C   0  0  0  0  0  2  0  0  0  0  0  0
  189.7870  175.6870  137.3480 C   0  0  0  0  0  0  0  0  0  0  0  0
  191.1220  175.7480  135.2410 C   0  0  0  0  0  1  0  0  0  0  0  0
  191.0870  176.1080  136.7160 C   0  0  2  0  0  3  0  0  0  0  0  0
  192.2780  175.5410  137.4230 C   0  0  0  0  0  3  0  0  0  0  0  0
  193.1810  176.3390  137.9880 C   0  0  0  0  0  2  0  0  0  0  0  0
  1  9  1  0  0  0  0
  2  3  1  0  0  0  0
  2  5  1  0  0  0  0
  3  7  1  1  0  0  0
  5 14  1  0  0  0  0
  6  1  1  0  0  0  0
  7  4  1  0  0  0  0
  8 13  1  0  0  0  0
  8 12  2  0  0  0  0
 10 18  1  0  0  0  0
 10 19  1  0  0  0  0
 11 15  1  1  0  0  0
 11  4  1  0  0  0  0
 12 16  1  0  0  0  0
 13  2  2  0  0  0  0
 14  1  2  0  0  0  0
 16  5  2  0  0  0  0
 16 17  1  0  0  0  0
 17  6  2  0  0  0  0
 18 13  1  0  0  0  0
 20 19  1  1  0  0  0
 20 11  1  0  0  0  0
 20  3  1  0  0  0  0
 21  8  1  0  0  0  0
 22 25  1  0  0  0  0
 24 21  1  0  0  0  0
 24 23  2  0  0  0  0
 25 24  1  0  0  0  0
 26 27  2  0  0  0  0
 27 25  1  0  0  0  0
 29 28  1  6  0  0  0
 29 27  1  0  0  0  0
 29 30  1  0  0  0  0
 30 31  2  0  0  0  0
M  END
>  <MODEL>
5

>  <REMARK>
 VINA RESULT:      -8.4      2.892      7.103
  Name = 
  5 active torsions:
  status: ('A' for Active; 'I' for Inactive)
    1  A    between atoms: C_1  and  C_24
    2  A    between atoms: C_9  and  C_23
    3  A    between atoms: C_15  and  C_23
    4  A    between atoms: C_19  and  N_22
    5  A    between atoms: C_19  and  C_24
                            x       y       z     vdW  Elec       q    Type
                         _______ _______ _______ _____ _____    ______ ____

>  <TORSDO>
F 5

$$$$
=
 OpenBabel11052413143D

 31 34  0  0  1  0  0  0  0  0999 V2000
  185.0370  178.4170  145.2480 C   0  0  0  0  0  0  0  0  0  0  0  0
  186.9670  178.2550  142.0370 C   0  0  0  0  0  0  0  0  0  0  0  0
  188.3920  177.9970  142.5480 C   0  0  1  0  0  3  0  0  0  0  0  0
  189.9560  176.4540  143.5490 C   0  0  0  0  0  2  0  0  0  0  0  0
  185.8950  178.3960  142.9640 C   0  0  0  0  0  0  0  0  0  0  0  0
  183.7480  178.6650  144.7740 C   0  0  0  0  0  3  0  0  0  0  0  0
  188.4910  176.8410  143.5280 C   0  0  0  0  0  2  0  0  0  0  0  0
  185.3890  178.7910  140.2310 C   0  0  0  0  0  0  0  0  0  0  0  0
  185.2770  178.2860  146.7090 C   0  0  0  0  0  1  0  0  0  0  0  0
  188.6080  177.4570  139.4340 C   0  0  0  0  0  2  0  0  0  0  0  0
  190.5700  177.0000  142.2700 C   0  0  2  0  0  3  0  0  0  0  0  0
  184.3450  178.8560  141.1470 C   0  0  0  0  0  3  0  0  0  0  0  0
  186.6980  178.5050  140.6570 C   0  0  0  0  0  0  0  0  0  0  0  0
  186.0990  178.2870  144.3520 C   0  0  0  0  0  3  0  0  0  0  0  0
  191.5390  177.9500  142.5920 O   0  0  0  0  0  1  0  0  0  0  0  0
  184.5870  178.6730  142.5010 C   0  0  0  0  0  0  0  0  0  0  0  0
  183.5240  178.7960  143.4030 C   0  0  0  0  0  3  0  0  0  0  0  0
  187.7170  178.5420  139.6960 O   0  0  0  0  0  0  0  0  0  0  0  0
  188.9180  176.7390  140.5940 O   0  0  0  0  0  0  0  0  0  0  0  0
  189.4450  177.6670  141.4990 C   0  0  1  0  0  3  0  0  0  0  0  0
  185.0770  179.0080  138.7840 C   0  0  0  0  0  2  0  0  0  0  0  0
  186.3880  178.1460  136.2870 C   0  0  0  0  0  1  0  0  0  0  0  0
  183.7380  177.0660  138.4880 O   0  0  0  0  0  0  0  0  0  0  0  0
  184.7570  177.7090  138.1150 C   0  0  0  0  0  0  0  0  0  0  0  0
  185.5990  177.1960  137.0640 N   0  0  0  0  0  0  0  0  0  0  0  0
  184.6730  175.1730  136.1260 C   0  0  0  0  0  2  0  0  0  0  0  0
  185.6710  175.7810  136.7600 C   0  0  0  0  0  0  0  0  0  0  0  0
  188.0580  175.1240  136.4560 C   0  0  0  0  0  1  0  0  0  0  0  0
  186.7910  174.9100  137.2640 C   0  0  2  0  0  3  0  0  0  0  0  0
  186.4220  173.4600  137.2870 C   0  0  0  0  0  3  0  0  0  0  0  0
  187.3590  172.5160  137.2340 C   0  0  0  0  0  2  0  0  0  0  0  0
  1  9  1  0  0  0  0
  2  3  1  0  0  0  0
  2  5  1  0  0  0  0
  3  7  1  1  0  0  0
  5 14  1  0  0  0  0
  6  1  1  0  0  0  0
  7  4  1  0  0  0  0
  8 13  1  0  0  0  0
  8 12  2  0  0  0  0
 10 18  1  0  0  0  0
 10 19  1  0  0  0  0
 11 15  1  1  0  0  0
 11  4  1  0  0  0  0
 12 16  1  0  0  0  0
 13  2  2  0  0  0  0
 14  1  2  0  0  0  0
 16  5  2  0  0  0  0
 16 17  1  0  0  0  0
 17  6  2  0  0  0  0
 18 13  1  0  0  0  0
 20 19  1  6  0  0  0
 20 11  1  0  0  0  0
 20  3  1  0  0  0  0
 21  8  1  0  0  0  0
 22 25  1  0  0  0  0
 24 23  2  0  0  0  0
 24 21  1  0  0  0  0
 25 24  1  0  0  0  0
 26 27  2  0  0  0  0
 27 25  1  0  0  0  0
 27 29  1  0  0  0  0
 29 28  1  6  0  0  0
 29 30  1  0  0  0  0
 31 30  2  0  0  0  0
M  END
>  <MODEL>
6

>  <REMARK>
 VINA RESULT:      -8.3      2.360      4.215
  Name = 
  5 active torsions:
  status: ('A' for Active; 'I' for Inactive)
    1  A    between atoms: C_1  and  C_24
    2  A    between atoms: C_9  and  C_23
    3  A    between atoms: C_15  and  C_23
    4  A    between atoms: C_19  and  N_22
    5  A    between atoms: C_19  and  C_24
                            x       y       z     vdW  Elec       q    Type
                         _______ _______ _______ _____ _____    ______ ____

>  <TORSDO>
F 5

$$$$
=
 OpenBabel11052413143D

 31 34  0  0  1  0  0  0  0  0999 V2000
  185.1130  178.4010  145.5630 C   0  0  0  0  0  0  0  0  0  0  0  0
  186.8670  178.2940  142.2500 C   0  0  0  0  0  0  0  0  0  0  0  0
  188.3130  178.0050  142.6770 C   0  0  1  0  0  3  0  0  0  0  0  0
  189.9070  176.4190  143.5550 C   0  0  0  0  0  2  0  0  0  0  0  0
  185.8480  178.4250  143.2360 C   0  0  0  0  0  0  0  0  0  0  0  0
  183.8050  178.6770  145.1650 C   0  0  0  0  0  3  0  0  0  0  0  0
  188.4490  176.8240  143.6220 C   0  0  0  0  0  2  0  0  0  0  0  0
  185.2020  178.8940  140.5440 C   0  0  0  0  0  0  0  0  0  0  0  0
  185.4300  178.2310  147.0050 C   0  0  0  0  0  1  0  0  0  0  0  0
  188.3560  177.5400  139.5440 C   0  0  0  0  0  2  0  0  0  0  0  0
  190.4600  176.9880  142.2580 C   0  0  2  0  0  3  0  0  0  0  0  0
  184.2100  178.9490  141.5160 C   0  0  0  0  0  3  0  0  0  0  0  0
  186.5290  178.5810  140.8920 C   0  0  0  0  0  0  0  0  0  0  0  0
  186.1240  178.2790  144.6080 C   0  0  0  0  0  3  0  0  0  0  0  0
  191.4570  177.9170  142.5510 O   0  0  0  0  0  1  0  0  0  0  0  0
  184.5210  178.7300  142.8510 C   0  0  0  0  0  0  0  0  0  0  0  0
  183.5100  178.8440  143.8110 C   0  0  0  0  0  3  0  0  0  0  0  0
  187.4940  178.6290  139.8790 O   0  0  0  0  0  0  0  0  0  0  0  0
  188.7160  176.7890  140.6680 O   0  0  0  0  0  0  0  0  0  0  0  0
  189.3040  177.6880  141.5650 C   0  0  1  0  0  3  0  0  0  0  0  0
  184.8170  179.1510  139.1220 C   0  0  0  0  0  2  0  0  0  0  0  0
  182.2650  180.5730  138.7180 C   0  0  0  0  0  1  0  0  0  0  0  0
  183.4970  177.1850  138.9070 O   0  0  0  0  0  0  0  0  0  0  0  0
  183.5430  178.4400  138.7860 C   0  0  0  0  0  0  0  0  0  0  0  0
  182.3900  179.1730  138.3290 N   0  0  0  0  0  0  0  0  0  0  0  0
  181.5330  178.4200  136.2020 C   0  0  0  0  0  2  0  0  0  0  0  0
  181.3640  178.5570  137.5130 C   0  0  0  0  0  0  0  0  0  0  0  0
  178.9660  179.2150  137.7200 C   0  0  0  0  0  1  0  0  0  0  0  0
  180.0180  178.1780  138.0710 C   0  0  2  0  0  3  0  0  0  0  0  0
  180.0550  177.9470  139.5490 C   0  0  0  0  0  3  0  0  0  0  0  0
  180.2580  176.7280  140.0450 C   0  0  0  0  0  2  0  0  0  0  0  0
  1  9  1  0  0  0  0
  2  3  1  0  0  0  0
  2  5  1  0  0  0  0
  3  7  1  1  0  0  0
  4  7  1  0  0  0  0
  5 14  1  0  0  0  0
  6  1  1  0  0  0  0
  8 13  1  0  0  0  0
  8 12  2  0  0  0  0
 10 18  1  0  0  0  0
 10 19  1  0  0  0  0
 11 15  1  1  0  0  0
 11  4  1  0  0  0  0
 12 16  1  0  0  0  0
 13  2  2  0  0  0  0
 14  1  2  0  0  0  0
 16  5  2  0  0  0  0
 16 17  1  0  0  0  0
 17  6  2  0  0  0  0
 18 13  1  0  0  0  0
 20 19  1  6  0  0  0
 20 11  1  0  0  0  0
 20  3  1  0  0  0  0
 21  8  1  0  0  0  0
 24 23  2  0  0  0  0
 24 21  1  0  0  0  0
 25 22  1  0  0  0  0
 25 24  1  0  0  0  0
 26 27  2  0  0  0  0
 27 29  1  0  0  0  0
 27 25  1  0  0  0  0
 29 28  1  1  0  0  0
 29 30  1  0  0  0  0
 30 31  2  0  0  0  0
M  END
>  <MODEL>
7

>  <REMARK>
 VINA RESULT:      -8.3      1.364      1.769
  Name = 
  5 active torsions:
  status: ('A' for Active; 'I' for Inactive)
    1  A    between atoms: C_1  and  C_24
    2  A    between atoms: C_9  and  C_23
    3  A    between atoms: C_15  and  C_23
    4  A    between atoms: C_19  and  N_22
    5  A    between atoms: C_19  and  C_24
                            x       y       z     vdW  Elec       q    Type
                         _______ _______ _______ _____ _____    ______ ____

>  <TORSDO>
F 5

$$$$
=
 OpenBabel11052413143D

 31 34  0  0  1  0  0  0  0  0999 V2000
  182.3440  178.7920  143.8520 C   0  0  0  0  0  0  0  0  0  0  0  0
  184.7630  178.3410  141.0230 C   0  0  0  0  0  0  0  0  0  0  0  0
  183.8140  178.0940  139.8420 C   0  0  1  0  0  3  0  0  0  0  0  0
  182.1960  179.0000  138.2950 C   0  0  0  0  0  2  0  0  0  0  0  0
  184.2340  178.5570  142.3270 C   0  0  0  0  0  0  0  0  0  0  0  0
  183.2160  179.0020  144.9200 C   0  0  0  0  0  3  0  0  0  0  0  0
  182.7130  179.1330  139.7140 C   0  0  0  0  0  2  0  0  0  0  0  0
  187.0190  178.4000  141.9990 C   0  0  0  0  0  0  0  0  0  0  0  0
  180.8750  178.8100  144.0790 C   0  0  0  0  0  1  0  0  0  0  0  0
  186.6190  178.5780  138.4520 C   0  0  0  0  0  2  0  0  0  0  0  0
  183.2850  178.2990  137.4980 C   0  0  2  0  0  3  0  0  0  0  0  0
  186.4810  178.6780  143.2510 C   0  0  0  0  0  3  0  0  0  0  0  0
  186.1800  178.2190  140.8850 C   0  0  0  0  0  0  0  0  0  0  0  0
  182.8490  178.5690  142.5700 C   0  0  0  0  0  3  0  0  0  0  0  0
  182.8040  177.0720  137.0410 O   0  0  0  0  0  1  0  0  0  0  0  0
  185.1060  178.7460  143.4260 C   0  0  0  0  0  0  0  0  0  0  0  0
  184.5960  178.9760  144.7080 C   0  0  0  0  0  3  0  0  0  0  0  0
  186.7800  177.8550  139.6730 O   0  0  0  0  0  0  0  0  0  0  0  0
  185.3390  179.1300  138.3340 O   0  0  0  0  0  0  0  0  0  0  0  0
  184.4400  178.0650  138.4550 C   0  0  1  0  0  3  0  0  0  0  0  0
  188.5060  178.3230  141.8680 C   0  0  0  0  0  2  0  0  0  0  0  0
  190.6800  179.2200  143.6480 C   0  0  0  0  0  1  0  0  0  0  0  0
  188.8060  176.2190  142.9330 O   0  0  0  0  0  0  0  0  0  0  0  0
  189.0840  177.4490  142.9360 C   0  0  0  0  0  0  0  0  0  0  0  0
  189.9400  178.0020  143.9550 N   0  0  0  0  0  0  0  0  0  0  0  0
  189.0880  177.3920  146.1300 C   0  0  0  0  0  2  0  0  0  0  0  0
  190.0880  177.3770  145.2540 C   0  0  0  0  0  0  0  0  0  0  0  0
  191.8610  175.6710  144.8440 C   0  0  0  0  0  1  0  0  0  0  0  0
  191.4020  176.8170  145.7280 C   0  0  2  0  0  3  0  0  0  0  0  0
  191.3570  176.3880  147.1620 C   0  0  0  0  0  3  0  0  0  0  0  0
  192.3560  175.6880  147.6960 C   0  0  0  0  0  2  0  0  0  0  0  0
  1  9  1  0  0  0  0
  1  6  1  0  0  0  0
  2  5  1  0  0  0  0
  3  7  1  6  0  0  0
  3  2  1  0  0  0  0
  4  7  1  0  0  0  0
  5 14  1  0  0  0  0
  5 16  2  0  0  0  0
  8 12  2  0  0  0  0
 10 18  1  0  0  0  0
 11 15  1  1  0  0  0
 11  4  1  0  0  0  0
 11 20  1  0  0  0  0
 12 16  1  0  0  0  0
 13  2  2  0  0  0  0
 13  8  1  0  0  0  0
 14  1  2  0  0  0  0
 16 17  1  0  0  0  0
 17  6  2  0  0  0  0
 18 13  1  0  0  0  0
 19 10  1  0  0  0  0
 20 19  1  1  0  0  0
 20  3  1  0  0  0  0
 21  8  1  0  0  0  0
 21 24  1  0  0  0  0
 22 25  1  0  0  0  0
 23 24  2  0  0  0  0
 24 25  1  0  0  0  0
 25 27  1  0  0  0  0
 27 29  1  0  0  0  0
 27 26  2  0  0  0  0
 29 28  1  6  0  0  0
 29 30  1  0  0  0  0
 30 31  2  0  0  0  0
M  END
>  <MODEL>
8

>  <REMARK>
 VINA RESULT:      -8.2      2.433      7.664
  Name = 
  5 active torsions:
  status: ('A' for Active; 'I' for Inactive)
    1  A    between atoms: C_1  and  C_24
    2  A    between atoms: C_9  and  C_23
    3  A    between atoms: C_15  and  C_23
    4  A    between atoms: C_19  and  N_22
    5  A    between atoms: C_19  and  C_24
                            x       y       z     vdW  Elec       q    Type
                         _______ _______ _______ _____ _____    ______ ____

>  <TORSDO>
F 5

$$$$
=
 OpenBabel11052413143D

 31 34  0  0  1  0  0  0  0  0999 V2000
  185.0330  178.4880  145.4160 C   0  0  0  0  0  0  0  0  0  0  0  0
  186.9090  178.3220  142.1730 C   0  0  0  0  0  0  0  0  0  0  0  0
  188.3410  178.0590  142.6590 C   0  0  1  0  0  3  0  0  0  0  0  0
  189.9170  176.5110  143.6330 C   0  0  0  0  0  2  0  0  0  0  0  0
  185.8530  178.4660  143.1180 C   0  0  0  0  0  0  0  0  0  0  0  0
  183.7380  178.7400  144.9640 C   0  0  0  0  0  3  0  0  0  0  0  0
  188.4530  176.9020  143.6370 C   0  0  0  0  0  2  0  0  0  0  0  0
  185.3020  178.8650  140.3930 C   0  0  0  0  0  0  0  0  0  0  0  0
  185.2980  178.3550  146.8720 C   0  0  0  0  0  1  0  0  0  0  0  0
  188.5030  177.5210  139.5410 C   0  0  0  0  0  2  0  0  0  0  0  0
  190.5120  177.0560  142.3430 C   0  0  2  0  0  3  0  0  0  0  0  0
  184.2740  178.9320  141.3270 C   0  0  0  0  0  3  0  0  0  0  0  0
  186.6180  178.5740  140.7970 C   0  0  0  0  0  0  0  0  0  0  0  0
  186.0800  178.3550  144.5020 C   0  0  0  0  0  3  0  0  0  0  0  0
  191.4880  178.0020  142.6510 O   0  0  0  0  0  1  0  0  0  0  0  0
  184.5380  178.7470  142.6770 C   0  0  0  0  0  0  0  0  0  0  0  0
  183.4910  178.8730  143.5960 C   0  0  0  0  0  3  0  0  0  0  0  0
  187.6200  178.6090  139.8190 O   0  0  0  0  0  0  0  0  0  0  0  0
  188.8300  176.8010  140.6960 O   0  0  0  0  0  0  0  0  0  0  0  0
  189.3750  177.7260  141.5930 C   0  0  1  0  0  3  0  0  0  0  0  0
  184.9670  179.0840  138.9530 C   0  0  0  0  0  2  0  0  0  0  0  0
  184.6980  176.5280  137.5060 C   0  0  0  0  0  1  0  0  0  0  0  0
  182.5990  179.1850  138.7570 O   0  0  0  0  0  0  0  0  0  0  0  0
  183.6370  178.4810  138.6250 C   0  0  0  0  0  0  0  0  0  0  0  0
  183.5410  177.1170  138.1700 N   0  0  0  0  0  0  0  0  0  0  0  0
  182.0570  175.7710  139.5170 C   0  0  0  0  0  2  0  0  0  0  0  0
  182.3350  176.3330  138.3450 C   0  0  0  0  0  0  0  0  0  0  0  0
  181.6880  174.6000  136.6720 C   0  0  0  0  0  1  0  0  0  0  0  0
  181.4220  176.0000  137.1950 C   0  0  2  0  0  3  0  0  0  0  0  0
  181.5100  177.0000  136.0860 C   0  0  0  0  0  3  0  0  0  0  0  0
  180.6750  178.0360  136.0330 C   0  0  0  0  0  2  0  0  0  0  0  0
  1  9  1  0  0  0  0
  2  3  1  0  0  0  0
  2  5  1  0  0  0  0
  3  7  1  1  0  0  0
  4  7  1  0  0  0  0
  5 14  1  0  0  0  0
  6  1  1  0  0  0  0
  8 13  1  0  0  0  0
  8 12  2  0  0  0  0
 10 18  1  0  0  0  0
 10 19  1  0  0  0  0
 11 15  1  1  0  0  0
 11  4  1  0  0  0  0
 12 16  1  0  0  0  0
 13  2  2  0  0  0  0
 14  1  2  0  0  0  0
 16  5  2  0  0  0  0
 16 17  1  0  0  0  0
 17  6  2  0  0  0  0
 18 13  1  0  0  0  0
 20 19  1  6  0  0  0
 20 11  1  0  0  0  0
 20  3  1  0  0  0  0
 21  8  1  0  0  0  0
 22 25  1  0  0  0  0
 24 23  2  0  0  0  0
 24 21  1  0  0  0  0
 25 27  1  0  0  0  0
 25 24  1  0  0  0  0
 27 26  2  0  0  0  0
 29 28  1  6  0  0  0
 29 27  1  0  0  0  0
 30 29  1  0  0  0  0
 31 30  2  0  0  0  0
M  END
>  <MODEL>
9

>  <REMARK>
 VINA RESULT:      -8.2      1.783      2.475
  Name = 
  5 active torsions:
  status: ('A' for Active; 'I' for Inactive)
    1  A    between atoms: C_1  and  C_24
    2  A    between atoms: C_9  and  C_23
    3  A    between atoms: C_15  and  C_23
    4  A    between atoms: C_19  and  N_22
    5  A    between atoms: C_19  and  C_24
                            x       y       z     vdW  Elec       q    Type
                         _______ _______ _______ _____ _____    ______ ____

>  <TORSDO>
F 5

$$$$
