=
 OpenBabel11052413513D

 27 30  0  0  1  0  0  0  0  0999 V2000
  188.2960  177.6770  141.6830 C   0  0  2  0  0  3  0  0  0  0  0  0
  187.4360  177.9060  142.8670 C   0  0  0  0  0  0  0  0  0  0  0  0
  189.5840  177.4310  143.6590 C   0  0  2  0  0  3  0  0  0  0  0  0
  185.7280  178.1650  146.9230 S   0  0  0  0  0  0  0  0  0  0  0  0
  187.6840  177.7480  148.9000 C   0  0  0  0  0  1  0  0  0  0  0  0
  186.0500  178.1450  142.9090 C   0  0  0  0  0  3  0  0  0  0  0  0
  188.1850  177.7020  146.4530 N   0  0  0  0  0  0  0  0  0  0  0  0
  187.5640  177.8470  145.2550 C   0  0  0  0  0  0  0  0  0  0  0  0
  187.3010  177.8520  147.4690 C   0  0  0  0  0  0  0  0  0  0  0  0
  186.2000  178.1070  145.3150 C   0  0  0  0  0  0  0  0  0  0  0  0
  189.6780  177.5650  142.1910 N   0  0  0  0  0  0  0  0  0  0  0  0
  188.1790  177.7580  144.0070 C   0  0  0  0  0  0  0  0  0  0  0  0
  185.4160  178.2580  144.1640 C   0  0  0  0  0  3  0  0  0  0  0  0
  191.2710  179.3310  143.4650 C   0  0  0  0  0  1  0  0  0  0  0  0
  191.6370  177.4990  145.1020 C   0  0  0  0  0  1  0  0  0  0  0  0
  190.5920  178.3320  144.3870 C   0  0  0  0  0  3  0  0  0  0  0  0
  188.1630  178.7730  140.6180 C   0  0  0  0  0  2  0  0  0  0  0  0
  188.5050  177.3280  136.5900 C   0  0  0  0  0  3  0  0  0  0  0  0
  188.2740  178.2710  139.2140 C   0  0  0  0  0  0  0  0  0  0  0  0
  187.5390  177.1520  138.8020 C   0  0  0  0  0  3  0  0  0  0  0  0
  187.6530  176.6830  137.4910 C   0  0  0  0  0  3  0  0  0  0  0  0
  189.2420  178.4440  136.9990 C   0  0  0  0  0  3  0  0  0  0  0  0
  189.1270  178.9140  138.3110 C   0  0  0  0  0  3  0  0  0  0  0  0
  190.2260  176.3180  141.6800 C   0  0  0  0  0  2  0  0  0  0  0  0
  191.0300  176.5850  140.4550 C   0  0  0  0  0  0  0  0  0  0  0  0
  191.8970  177.4960  140.4590 O   0  0  0  0  0  1  0  0  0  0  0  0
  190.7930  175.8570  139.2970 O   0  0  0  0  0  0  0  0  0  0  0  0
  1 17  1  6  0  0  0
  1 11  1  0  0  0  0
  1  2  1  0  0  0  0
  2  6  2  0  0  0  0
  2 12  1  0  0  0  0
  3 12  1  0  0  0  0
  3 16  1  1  0  0  0
  4  9  1  0  0  0  0
  6 13  1  0  0  0  0
  7  9  2  0  0  0  0
  8 10  1  0  0  0  0
  8  7  1  0  0  0  0
  9  5  1  0  0  0  0
 10  4  1  0  0  0  0
 11  3  1  0  0  0  0
 12  8  2  0  0  0  0
 13 10  2  0  0  0  0
 14 16  1  0  0  0  0
 16 15  1  0  0  0  0
 18 22  2  0  0  0  0
 18 21  1  0  0  0  0
 19 17  1  0  0  0  0
 20 19  1  0  0  0  0
 21 20  2  0  0  0  0
 22 23  1  0  0  0  0
 23 19  2  0  0  0  0
 24 11  1  0  0  0  0
 25 26  1  0  0  0  0
 25 24  1  0  0  0  0
 27 25  2  0  0  0  0
M  END
>  <MODEL>
1

>  <REMARK>
 VINA RESULT:      -7.8      0.000      0.000
  Name = 
  5 active torsions:
  status: ('A' for Active; 'I' for Inactive)
    1  A    between atoms: C_1  and  C_15
    2  A    between atoms: C_3  and  C_26
    3  A    between atoms: C_9  and  C_15
    4  A    between atoms: C_10  and  C_24
    5  A    between atoms: N_18  and  C_24
                            x       y       z     vdW  Elec       q    Type
                         _______ _______ _______ _____ _____    ______ ____

>  <TORSDO>
F 5

$$$$
=
 OpenBabel11052413513D

 27 30  0  0  1  0  0  0  0  0999 V2000
  188.2780  178.1060  143.7880 C   0  0  2  0  0  3  0  0  0  0  0  0
  186.9090  178.1750  143.2260 C   0  0  0  0  0  0  0  0  0  0  0  0
  188.3990  178.4420  141.4440 C   0  0  2  0  0  3  0  0  0  0  0  0
  183.3610  178.7450  140.6730 S   0  0  0  0  0  0  0  0  0  0  0  0
  184.0740  179.1520  137.9840 C   0  0  0  0  0  1  0  0  0  0  0  0
  185.6800  178.1470  143.9100 C   0  0  0  0  0  3  0  0  0  0  0  0
  185.7500  178.7770  139.7980 N   0  0  0  0  0  0  0  0  0  0  0  0
  185.8110  178.5540  141.1350 C   0  0  0  0  0  0  0  0  0  0  0  0
  184.4630  178.9020  139.3950 C   0  0  0  0  0  0  0  0  0  0  0  0
  184.5880  178.5050  141.7920 C   0  0  0  0  0  0  0  0  0  0  0  0
  189.2000  178.0890  142.6340 N   0  0  0  0  0  0  0  0  0  0  0  0
  186.9800  178.3750  141.8740 C   0  0  0  0  0  0  0  0  0  0  0  0
  184.4880  178.3060  143.1750 C   0  0  0  0  0  3  0  0  0  0  0  0
  189.8540  176.5710  140.5100 C   0  0  0  0  0  1  0  0  0  0  0  0
  188.9570  178.3270  138.9990 C   0  0  0  0  0  1  0  0  0  0  0  0
  188.6950  177.5180  140.2540 C   0  0  0  0  0  3  0  0  0  0  0  0
  188.4930  176.9010  144.7120 C   0  0  0  0  0  2  0  0  0  0  0  0
  189.0050  177.9600  148.8410 C   0  0  0  0  0  3  0  0  0  0  0  0
  188.6660  177.2640  146.1520 C   0  0  0  0  0  0  0  0  0  0  0  0
  187.5610  177.6460  146.9240 C   0  0  0  0  0  3  0  0  0  0  0  0
  187.7310  177.9920  148.2670 C   0  0  0  0  0  3  0  0  0  0  0  0
  190.1100  177.5800  148.0730 C   0  0  0  0  0  3  0  0  0  0  0  0
  189.9400  177.2330  146.7290 C   0  0  0  0  0  3  0  0  0  0  0  0
  190.1640  179.1580  142.8360 C   0  0  0  0  0  2  0  0  0  0  0  0
  191.3560  178.6320  143.5590 C   0  0  0  0  0  0  0  0  0  0  0  0
  192.0110  179.3860  144.3230 O   0  0  0  0  0  1  0  0  0  0  0  0
  191.7690  177.3230  143.3550 O   0  0  0  0  0  0  0  0  0  0  0  0
  1 17  1  6  0  0  0
  2  1  1  0  0  0  0
  2  6  1  0  0  0  0
  3 16  1  6  0  0  0
  3 12  1  0  0  0  0
  3 11  1  0  0  0  0
  4 10  1  0  0  0  0
  5  9  1  0  0  0  0
  7  8  1  0  0  0  0
  8 10  2  0  0  0  0
  8 12  1  0  0  0  0
  9  7  2  0  0  0  0
  9  4  1  0  0  0  0
 10 13  1  0  0  0  0
 11 24  1  0  0  0  0
 11  1  1  0  0  0  0
 12  2  2  0  0  0  0
 13  6  2  0  0  0  0
 15 16  1  0  0  0  0
 16 14  1  0  0  0  0
 17 19  1  0  0  0  0
 19 23  2  0  0  0  0
 19 20  1  0  0  0  0
 20 21  2  0  0  0  0
 21 18  1  0  0  0  0
 22 18  2  0  0  0  0
 23 22  1  0  0  0  0
 24 25  1  0  0  0  0
 25 26  1  0  0  0  0
 27 25  2  0  0  0  0
M  END
>  <MODEL>
2

>  <REMARK>
 VINA RESULT:      -7.5      2.441      6.418
  Name = 
  5 active torsions:
  status: ('A' for Active; 'I' for Inactive)
    1  A    between atoms: C_1  and  C_15
    2  A    between atoms: C_3  and  C_26
    3  A    between atoms: C_9  and  C_15
    4  A    between atoms: C_10  and  C_24
    5  A    between atoms: N_18  and  C_24
                            x       y       z     vdW  Elec       q    Type
                         _______ _______ _______ _____ _____    ______ ____

>  <TORSDO>
F 5

$$$$
=
 OpenBabel11052413513D

 27 30  0  0  1  0  0  0  0  0999 V2000
  187.8150  178.1770  143.7100 C   0  0  2  0  0  3  0  0  0  0  0  0
  186.9280  178.2060  142.5240 C   0  0  0  0  0  0  0  0  0  0  0  0
  189.1290  178.1500  141.7360 C   0  0  2  0  0  3  0  0  0  0  0  0
  185.2190  178.5030  138.4720 S   0  0  0  0  0  0  0  0  0  0  0  0
  187.2210  178.4750  136.4980 C   0  0  0  0  0  1  0  0  0  0  0  0
  185.5270  178.3240  142.4830 C   0  0  0  0  0  3  0  0  0  0  0  0
  187.7130  178.3220  138.9430 N   0  0  0  0  0  0  0  0  0  0  0  0
  187.0720  178.3010  140.1390 C   0  0  0  0  0  0  0  0  0  0  0  0
  186.8220  178.4280  137.9270 C   0  0  0  0  0  0  0  0  0  0  0  0
  185.6870  178.3940  140.0780 C   0  0  0  0  0  0  0  0  0  0  0  0
  189.1830  177.9540  143.1990 N   0  0  0  0  0  0  0  0  0  0  0  0
  187.6870  178.1970  141.3860 C   0  0  0  0  0  0  0  0  0  0  0  0
  184.8880  178.4100  141.2290 C   0  0  0  0  0  3  0  0  0  0  0  0
  190.2660  175.8730  141.8610 C   0  0  0  0  0  1  0  0  0  0  0  0
  191.1140  177.6080  140.2990 C   0  0  0  0  0  1  0  0  0  0  0  0
  189.8800  177.0470  140.9770 C   0  0  0  0  0  3  0  0  0  0  0  0
  187.4100  177.1190  144.7440 C   0  0  0  0  0  2  0  0  0  0  0  0
  188.3170  178.2250  148.7910 C   0  0  0  0  0  3  0  0  0  0  0  0
  187.7190  177.5000  146.1560 C   0  0  0  0  0  0  0  0  0  0  0  0
  186.7940  178.2330  146.9100 C   0  0  0  0  0  3  0  0  0  0  0  0
  187.0930  178.5930  148.2270 C   0  0  0  0  0  3  0  0  0  0  0  0
  189.2440  177.4950  148.0390 C   0  0  0  0  0  3  0  0  0  0  0  0
  188.9440  177.1330  146.7230 C   0  0  0  0  0  3  0  0  0  0  0  0
  190.0240  179.0080  143.7430 C   0  0  0  0  0  2  0  0  0  0  0  0
  191.3200  178.4330  144.2010 C   0  0  0  0  0  0  0  0  0  0  0  0
  192.3420  179.1630  144.2720 O   0  0  0  0  0  0  0  0  0  0  0  0
  191.4100  177.0820  144.5070 O   0  0  0  0  0  1  0  0  0  0  0  0
  1 17  1  1  0  0  0
  2  1  1  0  0  0  0
  3 16  1  6  0  0  0
  3 11  1  0  0  0  0
  4 10  1  0  0  0  0
  5  9  1  0  0  0  0
  6  2  1  0  0  0  0
  7  8  1  0  0  0  0
  8 12  1  0  0  0  0
  9  4  1  0  0  0  0
  9  7  2  0  0  0  0
 10  8  2  0  0  0  0
 10 13  1  0  0  0  0
 11  1  1  0  0  0  0
 11 24  1  0  0  0  0
 12  3  1  0  0  0  0
 12  2  2  0  0  0  0
 13  6  2  0  0  0  0
 15 16  1  0  0  0  0
 16 14  1  0  0  0  0
 17 19  1  0  0  0  0
 19 23  2  0  0  0  0
 19 20  1  0  0  0  0
 20 21  2  0  0  0  0
 21 18  1  0  0  0  0
 22 18  2  0  0  0  0
 23 22  1  0  0  0  0
 24 25  1  0  0  0  0
 25 26  2  0  0  0  0
 25 27  1  0  0  0  0
M  END
>  <MODEL>
3

>  <REMARK>
 VINA RESULT:      -7.2      2.520      6.633
  Name = 
  5 active torsions:
  status: ('A' for Active; 'I' for Inactive)
    1  A    between atoms: C_1  and  C_15
    2  A    between atoms: C_3  and  C_26
    3  A    between atoms: C_9  and  C_15
    4  A    between atoms: C_10  and  C_24
    5  A    between atoms: N_18  and  C_24
                            x       y       z     vdW  Elec       q    Type
                         _______ _______ _______ _____ _____    ______ ____

>  <TORSDO>
F 5

$$$$
=
 OpenBabel11052413513D

 27 30  0  0  1  0  0  0  0  0999 V2000
  187.2460  177.9980  142.2250 C   0  0  2  0  0  3  0  0  0  0  0  0
  187.4200  177.8050  143.6830 C   0  0  0  0  0  0  0  0  0  0  0  0
  189.5240  177.5380  142.6980 C   0  0  2  0  0  3  0  0  0  0  0  0
  188.9120  176.8510  147.7200 S   0  0  0  0  0  0  0  0  0  0  0  0
  191.6780  176.3410  147.7080 C   0  0  0  0  0  1  0  0  0  0  0  0
  186.4350  177.7880  144.6870 C   0  0  0  0  0  3  0  0  0  0  0  0
  190.3900  176.9310  145.6500 N   0  0  0  0  0  0  0  0  0  0  0  0
  189.1270  177.2340  145.2580 C   0  0  0  0  0  0  0  0  0  0  0  0
  190.4310  176.6960  146.9840 C   0  0  0  0  0  0  0  0  0  0  0  0
  188.1710  177.2360  146.2660 C   0  0  0  0  0  0  0  0  0  0  0  0
  188.6040  178.0120  141.6430 N   0  0  0  0  0  0  0  0  0  0  0  0
  188.7330  177.5330  143.9540 C   0  0  0  0  0  0  0  0  0  0  0  0
  186.8200  177.5060  146.0140 C   0  0  0  0  0  3  0  0  0  0  0  0
  192.0600  177.6000  142.9320 C   0  0  0  0  0  1  0  0  0  0  0  0
  190.6690  179.3830  143.9580 C   0  0  0  0  0  1  0  0  0  0  0  0
  190.7830  178.4110  142.8010 C   0  0  0  0  0  3  0  0  0  0  0  0
  186.4580  179.2660  141.8720 C   0  0  0  0  0  2  0  0  0  0  0  0
  182.5680  178.5150  140.2170 C   0  0  0  0  0  3  0  0  0  0  0  0
  185.1060  178.9980  141.2910 C   0  0  0  0  0  0  0  0  0  0  0  0
  184.9180  179.0040  139.9040 C   0  0  0  0  0  3  0  0  0  0  0  0
  183.6500  178.7610  139.3670 C   0  0  0  0  0  3  0  0  0  0  0  0
  182.7520  178.5110  141.6040 C   0  0  0  0  0  3  0  0  0  0  0  0
  184.0210  178.7530  142.1400 C   0  0  0  0  0  3  0  0  0  0  0  0
  188.6270  177.0240  140.5770 C   0  0  0  0  0  2  0  0  0  0  0  0
  188.4460  177.6990  139.2610 C   0  0  0  0  0  0  0  0  0  0  0  0
  187.9290  177.0740  138.3000 O   0  0  0  0  0  0  0  0  0  0  0  0
  188.8880  179.0020  139.0830 O   0  0  0  0  0  1  0  0  0  0  0  0
  1 17  1  1  0  0  0
  1  2  1  0  0  0  0
  2 12  2  0  0  0  0
  2  6  1  0  0  0  0
  3 16  1  1  0  0  0
  3 12  1  0  0  0  0
  6 13  2  0  0  0  0
  7  9  2  0  0  0  0
  8  7  1  0  0  0  0
  8 10  2  0  0  0  0
  9  5  1  0  0  0  0
  9  4  1  0  0  0  0
 10  4  1  0  0  0  0
 11  1  1  0  0  0  0
 11  3  1  0  0  0  0
 12  8  1  0  0  0  0
 13 10  1  0  0  0  0
 16 14  1  0  0  0  0
 16 15  1  0  0  0  0
 18 22  1  0  0  0  0
 19 17  1  0  0  0  0
 19 23  1  0  0  0  0
 20 19  2  0  0  0  0
 21 20  1  0  0  0  0
 21 18  2  0  0  0  0
 22 23  2  0  0  0  0
 24 11  1  0  0  0  0
 25 24  1  0  0  0  0
 26 25  2  0  0  0  0
 27 25  1  0  0  0  0
M  END
>  <MODEL>
4

>  <REMARK>
 VINA RESULT:      -7.2      2.341      3.554
  Name = 
  5 active torsions:
  status: ('A' for Active; 'I' for Inactive)
    1  A    between atoms: C_1  and  C_15
    2  A    between atoms: C_3  and  C_26
    3  A    between atoms: C_9  and  C_15
    4  A    between atoms: C_10  and  C_24
    5  A    between atoms: N_18  and  C_24
                            x       y       z     vdW  Elec       q    Type
                         _______ _______ _______ _____ _____    ______ ____

>  <TORSDO>
F 5

$$$$
=
 OpenBabel11052413513D

 27 30  0  0  1  0  0  0  0  0999 V2000
  188.2140  177.7930  143.7760 C   0  0  2  0  0  3  0  0  0  0  0  0
  188.5180  177.7210  142.3280 C   0  0  0  0  0  0  0  0  0  0  0  0
  190.5020  177.2510  143.4710 C   0  0  2  0  0  3  0  0  0  0  0  0
  190.4510  177.5050  138.3720 S   0  0  0  0  0  0  0  0  0  0  0  0
  193.1830  176.8740  138.5870 C   0  0  0  0  0  1  0  0  0  0  0  0
  187.6700  178.0050  141.2410 C   0  0  0  0  0  3  0  0  0  0  0  0
  191.6740  177.0990  140.5660 N   0  0  0  0  0  0  0  0  0  0  0  0
  190.3800  177.3720  140.8680 C   0  0  0  0  0  0  0  0  0  0  0  0
  191.8680  177.1330  139.2250 C   0  0  0  0  0  0  0  0  0  0  0  0
  189.5520  177.6250  139.7820 C   0  0  0  0  0  0  0  0  0  0  0  0
  189.4220  177.3130  144.4770 N   0  0  0  0  0  0  0  0  0  0  0  0
  189.8400  177.4150  142.1530 C   0  0  0  0  0  0  0  0  0  0  0  0
  188.1960  177.9460  139.9340 C   0  0  0  0  0  3  0  0  0  0  0  0
  190.4690  174.7110  143.2680 C   0  0  0  0  0  1  0  0  0  0  0  0
  191.9540  175.8120  144.9270 C   0  0  0  0  0  1  0  0  0  0  0  0
  191.3040  175.9450  143.5650 C   0  0  0  0  0  3  0  0  0  0  0  0
  186.9650  176.9950  144.1720 C   0  0  0  0  0  2  0  0  0  0  0  0
  183.4340  179.3860  144.6670 C   0  0  0  0  0  3  0  0  0  0  0  0
  185.7400  177.8330  144.3480 C   0  0  0  0  0  0  0  0  0  0  0  0
  185.3290  178.2260  145.6280 C   0  0  0  0  0  3  0  0  0  0  0  0
  184.1780  179.0030  145.7870 C   0  0  0  0  0  3  0  0  0  0  0  0
  183.8400  178.9920  143.3880 C   0  0  0  0  0  3  0  0  0  0  0  0
  184.9930  178.2160  143.2290 C   0  0  0  0  0  3  0  0  0  0  0  0
  189.7940  178.3330  145.4440 C   0  0  0  0  0  2  0  0  0  0  0  0
  189.4410  177.8780  146.8180 C   0  0  0  0  0  0  0  0  0  0  0  0
  190.2620  177.1980  147.4850 O   0  0  0  0  0  1  0  0  0  0  0  0
  188.1890  178.1660  147.3440 O   0  0  0  0  0  0  0  0  0  0  0  0
  1 17  1  6  0  0  0
  1 11  1  0  0  0  0
  2  1  1  0  0  0  0
  3 16  1  6  0  0  0
  3 11  1  0  0  0  0
  4  9  1  0  0  0  0
  4 10  1  0  0  0  0
  5  9  1  0  0  0  0
  6  2  2  0  0  0  0
  7  8  1  0  0  0  0
  8 12  2  0  0  0  0
  9  7  2  0  0  0  0
 10 13  2  0  0  0  0
 10  8  1  0  0  0  0
 11 24  1  0  0  0  0
 12  2  1  0  0  0  0
 12  3  1  0  0  0  0
 13  6  1  0  0  0  0
 14 16  1  0  0  0  0
 16 15  1  0  0  0  0
 17 19  1  0  0  0  0
 18 21  1  0  0  0  0
 19 20  1  0  0  0  0
 20 21  2  0  0  0  0
 22 18  2  0  0  0  0
 23 22  1  0  0  0  0
 23 19  2  0  0  0  0
 24 25  1  0  0  0  0
 25 27  2  0  0  0  0
 25 26  1  0  0  0  0
M  END
>  <MODEL>
5

>  <REMARK>
 VINA RESULT:      -6.9      3.313      6.409
  Name = 
  5 active torsions:
  status: ('A' for Active; 'I' for Inactive)
    1  A    between atoms: C_1  and  C_15
    2  A    between atoms: C_3  and  C_26
    3  A    between atoms: C_9  and  C_15
    4  A    between atoms: C_10  and  C_24
    5  A    between atoms: N_18  and  C_24
                            x       y       z     vdW  Elec       q    Type
                         _______ _______ _______ _____ _____    ______ ____

>  <TORSDO>
F 5

$$$$
=
 OpenBabel11052413513D

 27 30  0  0  1  0  0  0  0  0999 V2000
  188.7120  177.5470  143.4430 C   0  0  2  0  0  3  0  0  0  0  0  0
  189.1620  177.6150  142.0330 C   0  0  0  0  0  0  0  0  0  0  0  0
  186.8630  178.0390  142.0430 C   0  0  2  0  0  3  0  0  0  0  0  0
  189.4310  177.7980  137.6370 S   0  0  0  0  0  0  0  0  0  0  0  0
  186.9370  178.3670  136.4690 C   0  0  0  0  0  1  0  0  0  0  0  0
  190.4410  177.3530  141.5090 C   0  0  0  0  0  3  0  0  0  0  0  0
  187.2760  178.1720  138.9370 N   0  0  0  0  0  0  0  0  0  0  0  0
  188.2570  177.9260  139.8410 C   0  0  0  0  0  0  0  0  0  0  0  0
  187.7710  178.1360  137.6760 C   0  0  0  0  0  0  0  0  0  0  0  0
  189.5190  177.6940  139.3080 C   0  0  0  0  0  0  0  0  0  0  0  0
  187.3060  177.9980  143.4520 N   0  0  0  0  0  0  0  0  0  0  0  0
  188.0930  177.8930  141.2250 C   0  0  0  0  0  0  0  0  0  0  0  0
  190.6280  177.4030  140.1130 C   0  0  0  0  0  3  0  0  0  0  0  0
  185.6790  180.1020  142.9550 C   0  0  0  0  0  1  0  0  0  0  0  0
  184.8740  179.0220  140.8690 C   0  0  0  0  0  1  0  0  0  0  0  0
  186.0920  179.3260  141.7160 C   0  0  0  0  0  3  0  0  0  0  0  0
  189.5850  178.3720  144.3970 C   0  0  0  0  0  2  0  0  0  0  0  0
  191.6200  176.0130  147.3510 C   0  0  0  0  0  3  0  0  0  0  0  0
  190.3010  177.5540  145.4240 C   0  0  0  0  0  0  0  0  0  0  0  0
  191.3960  176.7600  145.0600 C   0  0  0  0  0  3  0  0  0  0  0  0
  192.0550  175.9920  146.0230 C   0  0  0  0  0  3  0  0  0  0  0  0
  190.5250  176.8020  147.7170 C   0  0  0  0  0  3  0  0  0  0  0  0
  189.8660  177.5720  146.7540 C   0  0  0  0  0  3  0  0  0  0  0  0
  186.5260  176.9680  144.1180 C   0  0  0  0  0  2  0  0  0  0  0  0
  186.0730  177.4600  145.4490 C   0  0  0  0  0  0  0  0  0  0  0  0
  186.7120  177.1480  146.4860 O   0  0  0  0  0  1  0  0  0  0  0  0
  184.9210  178.2280  145.5490 O   0  0  0  0  0  0  0  0  0  0  0  0
  1 11  1  0  0  0  0
  1 17  1  1  0  0  0
  2  1  1  0  0  0  0
  3 16  1  6  0  0  0
  3 11  1  0  0  0  0
  4  9  1  0  0  0  0
  4 10  1  0  0  0  0
  5  9  1  0  0  0  0
  6  2  1  0  0  0  0
  7  8  1  0  0  0  0
  8 12  1  0  0  0  0
  9  7  2  0  0  0  0
 10  8  2  0  0  0  0
 10 13  1  0  0  0  0
 11 24  1  0  0  0  0
 12  2  2  0  0  0  0
 12  3  1  0  0  0  0
 13  6  2  0  0  0  0
 15 16  1  0  0  0  0
 16 14  1  0  0  0  0
 17 19  1  0  0  0  0
 18 22  1  0  0  0  0
 19 23  1  0  0  0  0
 20 19  2  0  0  0  0
 20 21  1  0  0  0  0
 21 18  2  0  0  0  0
 23 22  2  0  0  0  0
 24 25  1  0  0  0  0
 25 27  2  0  0  0  0
 25 26  1  0  0  0  0
M  END
>  <MODEL>
6

>  <REMARK>
 VINA RESULT:      -6.8      3.445      7.331
  Name = 
  5 active torsions:
  status: ('A' for Active; 'I' for Inactive)
    1  A    between atoms: C_1  and  C_15
    2  A    between atoms: C_3  and  C_26
    3  A    between atoms: C_9  and  C_15
    4  A    between atoms: C_10  and  C_24
    5  A    between atoms: N_18  and  C_24
                            x       y       z     vdW  Elec       q    Type
                         _______ _______ _______ _____ _____    ______ ____

>  <TORSDO>
F 5

$$$$
=
 OpenBabel11052413513D

 27 30  0  0  1  0  0  0  0  0999 V2000
  189.9100  176.8890  141.7820 C   0  0  2  0  0  3  0  0  0  0  0  0
  188.5840  177.5390  141.6780 C   0  0  0  0  0  0  0  0  0  0  0  0
  188.9040  176.9880  143.9270 C   0  0  2  0  0  3  0  0  0  0  0  0
  184.5180  179.0910  142.3780 S   0  0  0  0  0  0  0  0  0  0  0  0
  183.8010  178.9330  145.0930 C   0  0  0  0  0  1  0  0  0  0  0  0
  187.9120  177.9750  140.5210 C   0  0  0  0  0  3  0  0  0  0  0  0
  186.0170  178.1760  144.2200 N   0  0  0  0  0  0  0  0  0  0  0  0
  186.7070  178.0900  143.0550 C   0  0  0  0  0  0  0  0  0  0  0  0
  184.7900  178.7110  144.0070 C   0  0  0  0  0  0  0  0  0  0  0  0
  186.0380  178.5470  141.9260 C   0  0  0  0  0  0  0  0  0  0  0  0
  190.1760  176.7170  143.2250 N   0  0  0  0  0  0  0  0  0  0  0  0
  188.0010  177.5900  142.9150 C   0  0  0  0  0  0  0  0  0  0  0  0
  186.6100  178.5020  140.6480 C   0  0  0  0  0  3  0  0  0  0  0  0
  190.3860  178.7030  145.0910 C   0  0  0  0  0  1  0  0  0  0  0  0
  189.0610  177.0850  146.4310 C   0  0  0  0  0  1  0  0  0  0  0  0
  189.1010  177.8950  145.1500 C   0  0  0  0  0  3  0  0  0  0  0  0
  191.0270  177.6740  141.0830 C   0  0  0  0  0  2  0  0  0  0  0  0
  192.4070  175.8710  137.4400 C   0  0  0  0  0  3  0  0  0  0  0  0
  191.5020  177.0510  139.8100 C   0  0  0  0  0  0  0  0  0  0  0  0
  190.6030  176.3790  138.9720 C   0  0  0  0  0  3  0  0  0  0  0  0
  191.0560  175.7910  137.7880 C   0  0  0  0  0  3  0  0  0  0  0  0
  193.3070  176.5390  138.2760 C   0  0  0  0  0  3  0  0  0  0  0  0
  192.8540  177.1280  139.4600 C   0  0  0  0  0  3  0  0  0  0  0  0
  190.4960  175.3160  143.4420 C   0  0  0  0  0  2  0  0  0  0  0  0
  191.6920  175.2030  144.3230 C   0  0  0  0  0  0  0  0  0  0  0  0
  192.0550  176.1860  145.0190 O   0  0  0  0  0  1  0  0  0  0  0  0
  192.4300  174.0280  144.3440 O   0  0  0  0  0  0  0  0  0  0  0  0
  1 17  1  1  0  0  0
  1 11  1  0  0  0  0
  2  1  1  0  0  0  0
  2 12  1  0  0  0  0
  3 16  1  1  0  0  0
  4  9  1  0  0  0  0
  6 13  1  0  0  0  0
  6  2  2  0  0  0  0
  8  7  1  0  0  0  0
  9  7  2  0  0  0  0
  9  5  1  0  0  0  0
 10  4  1  0  0  0  0
 10  8  1  0  0  0  0
 11 24  1  0  0  0  0
 11  3  1  0  0  0  0
 12  8  2  0  0  0  0
 12  3  1  0  0  0  0
 13 10  2  0  0  0  0
 14 16  1  0  0  0  0
 16 15  1  0  0  0  0
 18 21  2  0  0  0  0
 18 22  1  0  0  0  0
 19 17  1  0  0  0  0
 20 19  2  0  0  0  0
 21 20  1  0  0  0  0
 22 23  2  0  0  0  0
 23 19  1  0  0  0  0
 24 25  1  0  0  0  0
 25 27  2  0  0  0  0
 25 26  1  0  0  0  0
M  END
>  <MODEL>
7

>  <REMARK>
 VINA RESULT:      -6.8      2.478      3.480
  Name = 
  5 active torsions:
  status: ('A' for Active; 'I' for Inactive)
    1  A    between atoms: C_1  and  C_15
    2  A    between atoms: C_3  and  C_26
    3  A    between atoms: C_9  and  C_15
    4  A    between atoms: C_10  and  C_24
    5  A    between atoms: N_18  and  C_24
                            x       y       z     vdW  Elec       q    Type
                         _______ _______ _______ _____ _____    ______ ____

>  <TORSDO>
F 5

$$$$
=
 OpenBabel11052413513D

 27 30  0  0  1  0  0  0  0  0999 V2000
  188.6530  177.6040  141.4000 C   0  0  2  0  0  3  0  0  0  0  0  0
  187.3540  178.0000  141.9930 C   0  0  0  0  0  0  0  0  0  0  0  0
  188.7540  177.3760  143.7590 C   0  0  2  0  0  3  0  0  0  0  0  0
  183.9090  178.7150  144.6480 S   0  0  0  0  0  0  0  0  0  0  0  0
  184.5640  178.2530  147.3430 C   0  0  0  0  0  1  0  0  0  0  0  0
  186.1700  178.3750  141.3330 C   0  0  0  0  0  3  0  0  0  0  0  0
  186.2010  177.9820  145.4750 N   0  0  0  0  0  0  0  0  0  0  0  0
  186.2760  178.1010  144.1260 C   0  0  0  0  0  0  0  0  0  0  0  0
  184.9560  178.2900  145.9110 C   0  0  0  0  0  0  0  0  0  0  0  0
  185.1040  178.4960  143.4920 C   0  0  0  0  0  0  0  0  0  0  0  0
  189.5780  177.3940  142.5320 N   0  0  0  0  0  0  0  0  0  0  0  0
  187.4120  177.8620  143.3530 C   0  0  0  0  0  0  0  0  0  0  0  0
  185.0170  178.6400  142.1010 C   0  0  0  0  0  3  0  0  0  0  0  0
  190.5600  179.0480  144.4180 C   0  0  0  0  0  1  0  0  0  0  0  0
  189.7730  177.3520  146.0530 C   0  0  0  0  0  1  0  0  0  0  0  0
  189.3710  178.2240  144.8800 C   0  0  0  0  0  3  0  0  0  0  0  0
  189.1980  178.6280  140.3960 C   0  0  0  0  0  2  0  0  0  0  0  0
  189.8250  177.0180  136.4660 C   0  0  0  0  0  3  0  0  0  0  0  0
  189.4180  178.0750  139.0250 C   0  0  0  0  0  0  0  0  0  0  0  0
  188.7550  178.6280  137.9230 C   0  0  0  0  0  3  0  0  0  0  0  0
  188.9590  178.1010  136.6450 C   0  0  0  0  0  3  0  0  0  0  0  0
  190.4870  176.4620  137.5660 C   0  0  0  0  0  3  0  0  0  0  0  0
  190.2830  176.9900  138.8440 C   0  0  0  0  0  3  0  0  0  0  0  0
  190.1510  176.0660  142.3800 C   0  0  0  0  0  2  0  0  0  0  0  0
  191.5490  176.0580  142.8970 C   0  0  0  0  0  0  0  0  0  0  0  0
  192.4300  176.7600  142.3380 O   0  0  0  0  0  0  0  0  0  0  0  0
  191.8870  175.2430  143.9690 O   0  0  0  0  0  1  0  0  0  0  0  0
  1 17  1  6  0  0  0
  1  2  1  0  0  0  0
  1 11  1  0  0  0  0
  2 12  1  0  0  0  0
  3 16  1  1  0  0  0
  4  9  1  0  0  0  0
  6  2  2  0  0  0  0
  6 13  1  0  0  0  0
  7  9  2  0  0  0  0
  8  7  1  0  0  0  0
  9  5  1  0  0  0  0
 10  8  1  0  0  0  0
 10  4  1  0  0  0  0
 11  3  1  0  0  0  0
 12  3  1  0  0  0  0
 12  8  2  0  0  0  0
 13 10  2  0  0  0  0
 14 16  1  0  0  0  0
 16 15  1  0  0  0  0
 18 21  2  0  0  0  0
 18 22  1  0  0  0  0
 19 17  1  0  0  0  0
 20 19  2  0  0  0  0
 21 20  1  0  0  0  0
 22 23  2  0  0  0  0
 23 19  1  0  0  0  0
 24 11  1  0  0  0  0
 24 25  1  0  0  0  0
 25 27  1  0  0  0  0
 26 25  2  0  0  0  0
M  END
>  <MODEL>
8

>  <REMARK>
 VINA RESULT:      -6.7      1.742      2.097
  Name = 
  5 active torsions:
  status: ('A' for Active; 'I' for Inactive)
    1  A    between atoms: C_1  and  C_15
    2  A    between atoms: C_3  and  C_26
    3  A    between atoms: C_9  and  C_15
    4  A    between atoms: C_10  and  C_24
    5  A    between atoms: N_18  and  C_24
                            x       y       z     vdW  Elec       q    Type
                         _______ _______ _______ _____ _____    ______ ____

>  <TORSDO>
F 5

$$$$
=
 OpenBabel11052413513D

 27 30  0  0  1  0  0  0  0  0999 V2000
  185.6200  178.3490  143.0800 C   0  0  2  0  0  3  0  0  0  0  0  0
  184.1660  178.5690  143.2640 C   0  0  0  0  0  0  0  0  0  0  0  0
  184.6080  178.7700  140.9770 C   0  0  2  0  0  3  0  0  0  0  0  0
  179.9020  179.5760  142.7830 S   0  0  0  0  0  0  0  0  0  0  0  0
  179.2410  180.0270  140.0870 C   0  0  0  0  0  1  0  0  0  0  0  0
  183.4360  178.6280  144.4640 C   0  0  0  0  0  3  0  0  0  0  0  0
  181.5430  179.4210  140.8450 N   0  0  0  0  0  0  0  0  0  0  0  0
  182.2290  179.1370  141.9810 C   0  0  0  0  0  0  0  0  0  0  0  0
  180.2440  179.6830  141.1270 C   0  0  0  0  0  0  0  0  0  0  0  0
  181.4870  179.1760  143.1550 C   0  0  0  0  0  0  0  0  0  0  0  0
  185.8490  178.2940  141.6220 N   0  0  0  0  0  0  0  0  0  0  0  0
  183.5850  178.8180  142.0500 C   0  0  0  0  0  0  0  0  0  0  0  0
  182.0590  178.9290  144.4100 C   0  0  0  0  0  3  0  0  0  0  0  0
  183.7750  178.6600  138.5720 C   0  0  0  0  0  1  0  0  0  0  0  0
  183.0650  176.9410  140.2180 C   0  0  0  0  0  1  0  0  0  0  0  0
  184.1860  177.8730  139.8040 C   0  0  0  0  0  3  0  0  0  0  0  0
  186.1360  177.0910  143.7900 C   0  0  0  0  0  2  0  0  0  0  0  0
  188.9010  177.8790  146.9780 C   0  0  0  0  0  3  0  0  0  0  0  0
  187.1020  177.3720  144.8950 C   0  0  0  0  0  0  0  0  0  0  0  0
  188.4810  177.3700  144.6490 C   0  0  0  0  0  3  0  0  0  0  0  0
  189.3790  177.6250  145.6890 C   0  0  0  0  0  3  0  0  0  0  0  0
  187.5250  177.8780  147.2280 C   0  0  0  0  0  3  0  0  0  0  0  0
  186.6270  177.6240  146.1870 C   0  0  0  0  0  3  0  0  0  0  0  0
  186.8920  179.2580  141.3120 C   0  0  0  0  0  2  0  0  0  0  0  0
  187.9750  178.5960  140.5330 C   0  0  0  0  0  0  0  0  0  0  0  0
  187.9550  178.6280  139.2760 O   0  0  0  0  0  0  0  0  0  0  0  0
  188.9830  177.9070  141.1930 O   0  0  0  0  0  1  0  0  0  0  0  0
  1  2  1  0  0  0  0
  1 17  1  1  0  0  0
  2  6  1  0  0  0  0
  3 16  1  6  0  0  0
  3 11  1  0  0  0  0
  3 12  1  0  0  0  0
  4 10  1  0  0  0  0
  5  9  1  0  0  0  0
  7  9  2  0  0  0  0
  7  8  1  0  0  0  0
  8 12  1  0  0  0  0
  8 10  2  0  0  0  0
  9  4  1  0  0  0  0
 10 13  1  0  0  0  0
 11  1  1  0  0  0  0
 12  2  2  0  0  0  0
 13  6  2  0  0  0  0
 14 16  1  0  0  0  0
 16 15  1  0  0  0  0
 17 19  1  0  0  0  0
 18 22  1  0  0  0  0
 19 23  1  0  0  0  0
 20 19  2  0  0  0  0
 20 21  1  0  0  0  0
 21 18  2  0  0  0  0
 23 22  2  0  0  0  0
 24 11  1  0  0  0  0
 25 27  1  0  0  0  0
 25 24  1  0  0  0  0
 26 25  2  0  0  0  0
M  END
>  <MODEL>
9

>  <REMARK>
 VINA RESULT:      -6.5      3.781      6.972
  Name = 
  5 active torsions:
  status: ('A' for Active; 'I' for Inactive)
    1  A    between atoms: C_1  and  C_15
    2  A    between atoms: C_3  and  C_26
    3  A    between atoms: C_9  and  C_15
    4  A    between atoms: C_10  and  C_24
    5  A    between atoms: N_18  and  C_24
                            x       y       z     vdW  Elec       q    Type
                         _______ _______ _______ _____ _____    ______ ____

>  <TORSDO>
F 5

$$$$
