=
 OpenBabel11052413333D

 28 32  0  0  1  0  0  0  0  0999 V2000
  187.1390  178.3290  140.7980 N   0  0  0  0  0  0  0  0  0  0  0  0
  189.6920  176.9730  145.3100 S   0  0  0  0  0  0  0  0  0  0  0  0
  183.5760  179.1080  144.1980 C   0  0  0  0  0  1  0  0  0  0  0  0
  187.5790  177.4830  146.8410 C   0  0  0  0  0  0  0  0  0  0  0  0
  187.1420  177.9070  144.5220 C   0  0  1  0  0  3  0  0  0  0  0  0
  188.0080  177.4990  145.5360 C   0  0  0  0  0  0  0  0  0  0  0  0
  185.4400  178.2640  146.2110 C   0  0  0  0  0  3  0  0  0  0  0  0
  188.4720  177.0810  147.7250 C   0  0  0  0  0  2  0  0  0  0  0  0
  185.4330  178.6980  142.4600 C   0  0  0  0  0  0  0  0  0  0  0  0
  187.5640  177.9320  143.1900 O   0  0  0  0  0  0  0  0  0  0  0  0
  186.3170  177.8590  147.1730 N   0  0  0  0  0  0  0  0  0  0  0  0
  184.9150  179.1040  140.1010 C   0  0  0  0  0  3  0  0  0  0  0  0
  184.9790  178.6870  143.8780 C   0  0  0  0  0  0  0  0  0  0  0  0
  184.5140  179.1060  141.3730 C   0  0  0  0  0  3  0  0  0  0  0  0
  189.7950  176.7090  147.1280 C   0  0  2  0  0  3  0  0  0  0  0  0
  185.8270  178.2970  144.8550 C   0  0  0  0  0  0  0  0  0  0  0  0
  186.2490  178.7060  139.7770 N   0  0  0  0  0  2  0  0  0  0  0  0
  186.6940  178.3260  142.1640 C   0  0  0  0  0  0  0  0  0  0  0  0
  190.8840  177.5800  147.7250 C   0  0  0  0  0  2  0  0  0  0  0  0
  192.0900  176.7970  147.9290 N   0  0  0  0  0  1  0  0  0  0  0  0
  188.4820  177.8870  140.4480 C   0  0  0  0  0  2  0  0  0  0  0  0
  188.6210  177.7800  138.9680 C   0  0  0  0  0  0  0  0  0  0  0  0
  188.9340  177.5690  136.1960 C   0  0  0  0  0  0  0  0  0  0  0  0
  188.3720  176.5620  138.3250 C   0  0  0  0  0  3  0  0  0  0  0  0
  189.0340  178.8900  138.2230 C   0  0  0  0  0  3  0  0  0  0  0  0
  189.1890  178.7860  136.8380 C   0  0  0  0  0  3  0  0  0  0  0  0
  189.0980  177.4580  134.7230 C   0  0  0  0  0  1  0  0  0  0  0  0
  188.5270  176.4580  136.9390 C   0  0  0  0  0  3  0  0  0  0  0  0
  1 18  1  0  0  0  0
  2  6  1  0  0  0  0
  2 15  1  0  0  0  0
  4 11  1  0  0  0  0
  4  8  1  0  0  0  0
  5 10  1  6  0  0  0
  5 16  1  0  0  0  0
  5  6  1  0  0  0  0
  6  4  2  0  0  0  0
  7 11  2  0  0  0  0
  9 13  1  0  0  0  0
 12 14  2  0  0  0  0
 13  3  1  0  0  0  0
 13 16  2  0  0  0  0
 14  9  1  0  0  0  0
 15 19  1  1  0  0  0
 15  8  1  0  0  0  0
 16  7  1  0  0  0  0
 17 12  1  0  0  0  0
 17  1  1  0  0  0  0
 18  9  2  0  0  0  0
 18 10  1  0  0  0  0
 19 20  1  0  0  0  0
 21  1  1  0  0  0  0
 22 21  1  0  0  0  0
 23 26  2  0  0  0  0
 23 28  1  0  0  0  0
 24 22  1  0  0  0  0
 25 22  2  0  0  0  0
 26 25  1  0  0  0  0
 27 23  1  0  0  0  0
 28 24  2  0  0  0  0
M  END
>  <MODEL>
1

>  <REMARK>
 VINA RESULT:      -9.4      0.000      0.000
  Name = 
  3 active torsions:
  status: ('A' for Active; 'I' for Inactive)
    1  A    between atoms: N_1  and  C_2
    2  A    between atoms: C_2  and  C_3
    3  A    between atoms: C_12  and  C_24
                            x       y       z     vdW  Elec       q    Type
                         _______ _______ _______ _____ _____    ______ ____

>  <TORSDO>
F 3

$$$$
=
 OpenBabel11052413333D

 28 32  0  0  1  0  0  0  0  0999 V2000
  183.9100  178.6240  141.9110 N   0  0  0  0  0  0  0  0  0  0  0  0
  189.0330  177.0580  141.7370 S   0  0  0  0  0  0  0  0  0  0  0  0
  185.0290  178.4330  146.7660 C   0  0  0  0  0  1  0  0  0  0  0  0
  189.2820  177.0560  144.3840 C   0  0  0  0  0  0  0  0  0  0  0  0
  187.0870  177.7170  143.6810 C   0  0  1  0  0  3  0  0  0  0  0  0
  188.3840  177.3050  143.3750 C   0  0  0  0  0  0  0  0  0  0  0  0
  187.6760  177.6030  146.0300 C   0  0  0  0  0  3  0  0  0  0  0  0
  190.4810  176.6710  143.9910 C   0  0  0  0  0  2  0  0  0  0  0  0
  184.4750  178.5240  144.2510 C   0  0  0  0  0  0  0  0  0  0  0  0
  186.1620  177.9780  142.6650 O   0  0  0  0  0  0  0  0  0  0  0  0
  188.9340  177.2030  145.6890 N   0  0  0  0  0  0  0  0  0  0  0  0
  182.2040  179.1620  143.5940 C   0  0  0  0  0  3  0  0  0  0  0  0
  185.4570  178.2620  145.3390 C   0  0  0  0  0  0  0  0  0  0  0  0
  183.0890  178.9380  144.5660 C   0  0  0  0  0  3  0  0  0  0  0  0
  190.6330  176.5730  142.5040 C   0  0  2  0  0  3  0  0  0  0  0  0
  186.7140  177.8690  145.0340 C   0  0  0  0  0  0  0  0  0  0  0  0
  182.5950  179.0030  142.2270 N   0  0  0  0  0  2  0  0  0  0  0  0
  184.8540  178.3770  142.9660 C   0  0  0  0  0  0  0  0  0  0  0  0
  191.7390  177.5030  142.0440 C   0  0  0  0  0  2  0  0  0  0  0  0
  191.8170  177.5030  140.5940 N   0  0  0  0  0  1  0  0  0  0  0  0
  184.2820  178.4270  140.5160 C   0  0  0  0  0  2  0  0  0  0  0  0
  183.1150  177.9230  139.7380 C   0  0  0  0  0  0  0  0  0  0  0  0
  180.9560  176.9660  138.2360 C   0  0  0  0  0  0  0  0  0  0  0  0
  182.6800  176.6020  139.8970 C   0  0  0  0  0  3  0  0  0  0  0  0
  182.4720  178.7620  138.8210 C   0  0  0  0  0  3  0  0  0  0  0  0
  181.3920  178.2840  138.0710 C   0  0  0  0  0  3  0  0  0  0  0  0
  179.8090  176.4580  137.4400 C   0  0  0  0  0  1  0  0  0  0  0  0
  181.6010  176.1250  139.1480 C   0  0  0  0  0  3  0  0  0  0  0  0
  1 17  1  0  0  0  0
  1 18  1  0  0  0  0
  2 15  1  0  0  0  0
  2  6  1  0  0  0  0
  4 11  1  0  0  0  0
  5 10  1  1  0  0  0
  5 16  1  0  0  0  0
  6  5  1  0  0  0  0
  6  4  2  0  0  0  0
  8  4  1  0  0  0  0
  9 14  1  0  0  0  0
  9 13  1  0  0  0  0
 10 18  1  0  0  0  0
 11  7  2  0  0  0  0
 12 14  2  0  0  0  0
 13  3  1  0  0  0  0
 15 19  1  6  0  0  0
 15  8  1  0  0  0  0
 16 13  2  0  0  0  0
 16  7  1  0  0  0  0
 17 12  1  0  0  0  0
 18  9  2  0  0  0  0
 20 19  1  0  0  0  0
 21  1  1  0  0  0  0
 22 24  1  0  0  0  0
 22 21  1  0  0  0  0
 23 28  1  0  0  0  0
 25 22  2  0  0  0  0
 26 23  2  0  0  0  0
 26 25  1  0  0  0  0
 27 23  1  0  0  0  0
 28 24  2  0  0  0  0
M  END
>  <MODEL>
2

>  <REMARK>
 VINA RESULT:      -9.3      3.466      4.863
  Name = 
  3 active torsions:
  status: ('A' for Active; 'I' for Inactive)
    1  A    between atoms: N_1  and  C_2
    2  A    between atoms: C_2  and  C_3
    3  A    between atoms: C_12  and  C_24
                            x       y       z     vdW  Elec       q    Type
                         _______ _______ _______ _____ _____    ______ ____

>  <TORSDO>
F 3

$$$$
=
 OpenBabel11052413333D

 28 32  0  0  1  0  0  0  0  0999 V2000
  189.8300  177.2150  142.5780 N   0  0  0  0  0  0  0  0  0  0  0  0
  184.7490  178.9170  142.6600 S   0  0  0  0  0  0  0  0  0  0  0  0
  188.8560  177.1170  147.4670 C   0  0  0  0  0  1  0  0  0  0  0  0
  184.5750  178.7530  145.3080 C   0  0  0  0  0  0  0  0  0  0  0  0
  186.7300  178.0840  144.4980 C   0  0  2  0  0  3  0  0  0  0  0  0
  185.4370  178.5470  144.2580 C   0  0  0  0  0  0  0  0  0  0  0  0
  186.2120  178.0600  146.8660 C   0  0  0  0  0  3  0  0  0  0  0  0
  183.3760  179.1920  144.9770 C   0  0  0  0  0  2  0  0  0  0  0  0
  189.3350  177.1760  144.9360 C   0  0  0  0  0  0  0  0  0  0  0  0
  187.6190  177.8660  143.4400 O   0  0  0  0  0  0  0  0  0  0  0  0
  184.9560  178.5130  146.5890 N   0  0  0  0  0  0  0  0  0  0  0  0
  191.5690  176.5270  144.1700 C   0  0  0  0  0  3  0  0  0  0  0  0
  188.3920  177.3920  146.0680 C   0  0  0  0  0  0  0  0  0  0  0  0
  190.7180  176.7080  145.1810 C   0  0  0  0  0  3  0  0  0  0  0  0
  183.1850  179.3910  143.5050 C   0  0  2  0  0  3  0  0  0  0  0  0
  187.1380  177.8350  145.8260 C   0  0  0  0  0  0  0  0  0  0  0  0
  191.1430  176.7840  142.8300 N   0  0  0  0  0  2  0  0  0  0  0  0
  188.9240  177.4160  143.6750 C   0  0  0  0  0  0  0  0  0  0  0  0
  182.0410  178.5210  143.0190 C   0  0  0  0  0  2  0  0  0  0  0  0
  180.8990  178.6610  143.9070 N   0  0  0  0  0  1  0  0  0  0  0  0
  189.4250  177.5110  141.2110 C   0  0  0  0  0  2  0  0  0  0  0  0
  190.4970  177.1110  140.2560 C   0  0  0  0  0  0  0  0  0  0  0  0
  192.4970  176.3990  138.4330 C   0  0  0  0  0  0  0  0  0  0  0  0
  191.8080  177.5650  140.4400 C   0  0  0  0  0  3  0  0  0  0  0  0
  190.1870  176.3070  139.1540 C   0  0  0  0  0  3  0  0  0  0  0  0
  191.1860  175.9500  138.2430 C   0  0  0  0  0  3  0  0  0  0  0  0
  193.5590  176.0190  137.4650 C   0  0  0  0  0  1  0  0  0  0  0  0
  192.8070  177.2070  139.5300 C   0  0  0  0  0  3  0  0  0  0  0  0
  1 17  1  0  0  0  0
  1 18  1  0  0  0  0
  2 15  1  0  0  0  0
  2  6  1  0  0  0  0
  4 11  1  0  0  0  0
  5 10  1  6  0  0  0
  5 16  1  0  0  0  0
  6  5  1  0  0  0  0
  6  4  2  0  0  0  0
  8  4  1  0  0  0  0
  9 14  1  0  0  0  0
  9 13  1  0  0  0  0
 10 18  1  0  0  0  0
 11  7  2  0  0  0  0
 12 14  2  0  0  0  0
 13  3  1  0  0  0  0
 15 19  1  6  0  0  0
 15  8  1  0  0  0  0
 16 13  2  0  0  0  0
 16  7  1  0  0  0  0
 17 12  1  0  0  0  0
 18  9  2  0  0  0  0
 19 20  1  0  0  0  0
 21  1  1  0  0  0  0
 22 24  1  0  0  0  0
 22 21  1  0  0  0  0
 23 28  1  0  0  0  0
 25 22  2  0  0  0  0
 26 23  2  0  0  0  0
 26 25  1  0  0  0  0
 27 23  1  0  0  0  0
 28 24  2  0  0  0  0
M  END
>  <MODEL>
3

>  <REMARK>
 VINA RESULT:      -9.2      2.907      5.349
  Name = 
  3 active torsions:
  status: ('A' for Active; 'I' for Inactive)
    1  A    between atoms: N_1  and  C_2
    2  A    between atoms: C_2  and  C_3
    3  A    between atoms: C_12  and  C_24
                            x       y       z     vdW  Elec       q    Type
                         _______ _______ _______ _____ _____    ______ ____

>  <TORSDO>
F 3

$$$$
=
 OpenBabel11052413333D

 28 32  0  0  1  0  0  0  0  0999 V2000
  187.7350  178.0350  144.8690 N   0  0  0  0  0  0  0  0  0  0  0  0
  187.2470  178.2510  139.5370 S   0  0  0  0  0  0  0  0  0  0  0  0
  182.8330  178.8070  144.3760 C   0  0  0  0  0  1  0  0  0  0  0  0
  184.6220  178.6620  139.6390 C   0  0  0  0  0  0  0  0  0  0  0  0
  185.5910  178.4410  141.8210 C   0  0  0  0  0  0  0  0  0  0  0  0
  185.7260  178.4640  140.4330 C   0  0  0  0  0  0  0  0  0  0  0  0
  183.2150  178.8240  141.5310 C   0  0  0  0  0  2  0  0  0  0  0  0
  184.8540  178.6680  138.3410 C   0  0  0  0  0  2  0  0  0  0  0  0
  185.3680  178.4080  144.6050 C   0  0  0  0  0  0  0  0  0  0  0  0
  186.7040  178.2360  142.6430 O   0  0  0  0  0  0  0  0  0  0  0  0
  183.3890  178.8390  140.1790 N   0  0  0  0  0  0  0  0  0  0  0  0
  186.3090  178.2360  146.8600 C   0  0  0  0  0  3  0  0  0  0  0  0
  184.1760  178.6130  143.7370 C   0  0  0  0  0  0  0  0  0  0  0  0
  185.2410  178.4070  146.0800 C   0  0  0  0  0  3  0  0  0  0  0  0
  186.2930  178.4600  137.9780 C   0  0  2  0  0  3  0  0  0  0  0  0
  184.3140  178.6270  142.3930 C   0  0  0  0  0  0  0  0  0  0  0  0
  187.5970  178.0500  146.2680 N   0  0  0  0  0  2  0  0  0  0  0  0
  186.5780  178.2280  144.0390 C   0  0  0  0  0  0  0  0  0  0  0  0
  186.4250  177.2230  137.1110 C   0  0  0  0  0  2  0  0  0  0  0  0
  187.5170  176.3940  137.5910 N   0  0  0  0  0  1  0  0  0  0  0  0
  189.0590  177.8840  144.2820 C   0  0  0  0  0  2  0  0  0  0  0  0
  189.9970  177.2860  145.2740 C   0  0  0  0  0  0  0  0  0  0  0  0
  191.7920  176.2040  147.1280 C   0  0  0  0  0  0  0  0  0  0  0  0
  189.8060  177.5020  146.6430 C   0  0  0  0  0  3  0  0  0  0  0  0
  191.0920  176.5340  144.8330 C   0  0  0  0  0  3  0  0  0  0  0  0
  191.9890  175.9920  145.7600 C   0  0  0  0  0  3  0  0  0  0  0  0
  192.7440  175.6280  148.1130 C   0  0  0  0  0  1  0  0  0  0  0  0
  190.7020  176.9590  147.5690 C   0  0  0  0  0  3  0  0  0  0  0  0
  1 17  1  0  0  0  0
  2  6  1  0  0  0  0
  4 11  2  0  0  0  0
  4  6  1  0  0  0  0
  5 16  1  0  0  0  0
  5 10  1  0  0  0  0
  6  5  2  0  0  0  0
  7 16  1  0  0  0  0
  8  4  1  0  0  0  0
  9 14  1  0  0  0  0
 10 18  1  0  0  0  0
 11  7  1  0  0  0  0
 13  3  1  0  0  0  0
 13  9  1  0  0  0  0
 14 12  2  0  0  0  0
 15 19  1  6  0  0  0
 15  8  1  0  0  0  0
 15  2  1  0  0  0  0
 16 13  2  0  0  0  0
 17 12  1  0  0  0  0
 18  9  2  0  0  0  0
 18  1  1  0  0  0  0
 19 20  1  0  0  0  0
 21  1  1  0  0  0  0
 21 22  1  0  0  0  0
 22 24  1  0  0  0  0
 23 28  1  0  0  0  0
 23 27  1  0  0  0  0
 24 28  2  0  0  0  0
 25 22  2  0  0  0  0
 25 26  1  0  0  0  0
 26 23  2  0  0  0  0
M  END
>  <MODEL>
4

>  <REMARK>
 VINA RESULT:      -8.6      2.466      7.482
  Name = 
  3 active torsions:
  status: ('A' for Active; 'I' for Inactive)
    1  A    between atoms: N_1  and  C_2
    2  A    between atoms: C_2  and  C_3
    3  A    between atoms: C_12  and  C_24
                            x       y       z     vdW  Elec       q    Type
                         _______ _______ _______ _____ _____    ______ ____

>  <TORSDO>
F 3

$$$$
=
 OpenBabel11052413333D

 28 32  0  0  1  0  0  0  0  0999 V2000
  189.9210  177.8000  140.4040 N   0  0  0  0  0  0  0  0  0  0  0  0
  184.6770  178.9020  140.3520 S   0  0  0  0  0  0  0  0  0  0  0  0
  188.7660  177.2350  145.2210 C   0  0  0  0  0  1  0  0  0  0  0  0
  184.4160  178.5260  142.9710 C   0  0  0  0  0  0  0  0  0  0  0  0
  186.6660  178.1680  142.2240 C   0  0  2  0  0  3  0  0  0  0  0  0
  185.3380  178.4970  141.9530 C   0  0  0  0  0  0  0  0  0  0  0  0
  186.0570  177.9120  144.5570 C   0  0  0  0  0  3  0  0  0  0  0  0
  183.1880  178.8490  142.6130 C   0  0  0  0  0  2  0  0  0  0  0  0
  189.3380  177.5330  142.7270 C   0  0  0  0  0  0  0  0  0  0  0  0
  187.6160  178.1300  141.1990 O   0  0  0  0  0  0  0  0  0  0  0  0
  184.7690  178.2380  144.2500 N   0  0  0  0  0  0  0  0  0  0  0  0
  191.6620  177.1990  142.0290 C   0  0  0  0  0  3  0  0  0  0  0  0
  188.3310  177.5560  143.8230 C   0  0  0  0  0  0  0  0  0  0  0  0
  190.7550  177.2090  143.0070 C   0  0  0  0  0  3  0  0  0  0  0  0
  183.0350  179.1310  141.1490 C   0  0  2  0  0  3  0  0  0  0  0  0
  187.0450  177.8700  143.5510 C   0  0  0  0  0  0  0  0  0  0  0  0
  191.2650  177.5030  140.6900 N   0  0  0  0  0  2  0  0  0  0  0  0
  188.9540  177.8160  141.4660 C   0  0  0  0  0  0  0  0  0  0  0  0
  182.0220  178.1750  140.5510 C   0  0  0  0  0  2  0  0  0  0  0  0
  182.6890  176.9680  140.0910 N   0  0  0  0  0  1  0  0  0  0  0  0
  189.5400  178.1470  139.0420 C   0  0  0  0  0  2  0  0  0  0  0  0
  189.1430  176.9240  138.2890 C   0  0  0  0  0  0  0  0  0  0  0  0
  188.4020  174.6540  136.8300 C   0  0  0  0  0  0  0  0  0  0  0  0
  190.1040  175.9650  137.9480 C   0  0  0  0  0  3  0  0  0  0  0  0
  187.8130  176.7490  137.8930 C   0  0  0  0  0  3  0  0  0  0  0  0
  187.4420  175.6140  137.1650 C   0  0  0  0  0  3  0  0  0  0  0  0
  188.0080  173.4470  136.0570 C   0  0  0  0  0  1  0  0  0  0  0  0
  189.7330  174.8300  137.2200 C   0  0  0  0  0  3  0  0  0  0  0  0
  1 17  1  0  0  0  0
  1 18  1  0  0  0  0
  2 15  1  0  0  0  0
  2  6  1  0  0  0  0
  4 11  1  0  0  0  0
  5 10  1  6  0  0  0
  5 16  1  0  0  0  0
  6  5  1  0  0  0  0
  6  4  2  0  0  0  0
  8  4  1  0  0  0  0
  9 14  1  0  0  0  0
  9 13  1  0  0  0  0
 10 18  1  0  0  0  0
 11  7  2  0  0  0  0
 12 14  2  0  0  0  0
 13  3  1  0  0  0  0
 15 19  1  6  0  0  0
 15  8  1  0  0  0  0
 16 13  2  0  0  0  0
 16  7  1  0  0  0  0
 17 12  1  0  0  0  0
 18  9  2  0  0  0  0
 20 19  1  0  0  0  0
 21  1  1  0  0  0  0
 22 21  1  0  0  0  0
 23 26  2  0  0  0  0
 23 28  1  0  0  0  0
 24 22  1  0  0  0  0
 25 22  2  0  0  0  0
 26 25  1  0  0  0  0
 27 23  1  0  0  0  0
 28 24  2  0  0  0  0
M  END
>  <MODEL>
5

>  <REMARK>
 VINA RESULT:      -8.3      2.765      5.387
  Name = 
  3 active torsions:
  status: ('A' for Active; 'I' for Inactive)
    1  A    between atoms: N_1  and  C_2
    2  A    between atoms: C_2  and  C_3
    3  A    between atoms: C_12  and  C_24
                            x       y       z     vdW  Elec       q    Type
                         _______ _______ _______ _____ _____    ______ ____

>  <TORSDO>
F 3

$$$$
=
 OpenBabel11052413333D

 28 32  0  0  1  0  0  0  0  0999 V2000
  184.8490  178.7040  143.5840 N   0  0  0  0  0  0  0  0  0  0  0  0
  189.5860  177.3100  141.5020 S   0  0  0  0  0  0  0  0  0  0  0  0
  187.4820  177.7600  147.7130 C   0  0  0  0  0  1  0  0  0  0  0  0
  190.6840  176.8870  143.8860 C   0  0  0  0  0  0  0  0  0  0  0  0
  188.4010  177.6000  144.0530 C   0  0  2  0  0  3  0  0  0  0  0  0
  189.5140  177.2750  143.2790 C   0  0  0  0  0  0  0  0  0  0  0  0
  189.7190  177.1230  146.0310 C   0  0  0  0  0  3  0  0  0  0  0  0
  191.6770  176.6000  143.0680 C   0  0  0  0  0  2  0  0  0  0  0  0
  186.1420  178.2420  145.5650 C   0  0  0  0  0  0  0  0  0  0  0  0
  187.2040  178.0000  143.4500 O   0  0  0  0  0  0  0  0  0  0  0  0
  190.7840  176.8130  145.2380 N   0  0  0  0  0  0  0  0  0  0  0  0
  183.8010  178.9220  145.7950 C   0  0  0  0  0  3  0  0  0  0  0  0
  187.4160  177.8310  146.2160 C   0  0  0  0  0  0  0  0  0  0  0  0
  184.9470  178.5660  146.3760 C   0  0  0  0  0  3  0  0  0  0  0  0
  191.3340  176.7460  141.6170 C   0  0  2  0  0  3  0  0  0  0  0  0
  188.4920  177.5230  145.4590 C   0  0  0  0  0  0  0  0  0  0  0  0
  183.7210  178.9950  144.3690 N   0  0  0  0  0  2  0  0  0  0  0  0
  186.0770  178.3130  144.2210 C   0  0  0  0  0  0  0  0  0  0  0  0
  192.2580  177.7650  140.9770 C   0  0  0  0  0  2  0  0  0  0  0  0
  192.8920  177.1910  139.8030 N   0  0  0  0  0  1  0  0  0  0  0  0
  184.7400  178.7440  142.1330 C   0  0  0  0  0  2  0  0  0  0  0  0
  183.3570  178.3840  141.7100 C   0  0  0  0  0  0  0  0  0  0  0  0
  180.7600  177.7510  140.8840 C   0  0  0  0  0  0  0  0  0  0  0  0
  183.1560  177.4810  140.6590 C   0  0  0  0  0  3  0  0  0  0  0  0
  182.2580  178.9750  142.3410 C   0  0  0  0  0  3  0  0  0  0  0  0
  180.9590  178.6580  141.9290 C   0  0  0  0  0  3  0  0  0  0  0  0
  179.3800  177.4130  140.4460 C   0  0  0  0  0  1  0  0  0  0  0  0
  181.8570  177.1640  140.2480 C   0  0  0  0  0  3  0  0  0  0  0  0
  1 18  1  0  0  0  0
  1 17  1  0  0  0  0
  2 15  1  0  0  0  0
  2  6  1  0  0  0  0
  4 11  1  0  0  0  0
  5  6  1  1  0  0  0
  5 16  1  0  0  0  0
  6  4  2  0  0  0  0
  8  4  1  0  0  0  0
  9 13  1  0  0  0  0
  9 14  1  0  0  0  0
 10  5  1  0  0  0  0
 10 18  1  0  0  0  0
 11  7  2  0  0  0  0
 12 14  2  0  0  0  0
 13  3  1  0  0  0  0
 15 19  1  1  0  0  0
 15  8  1  0  0  0  0
 16  7  1  0  0  0  0
 16 13  2  0  0  0  0
 17 12  1  0  0  0  0
 18  9  2  0  0  0  0
 20 19  1  0  0  0  0
 21  1  1  0  0  0  0
 22 21  1  0  0  0  0
 22 25  1  0  0  0  0
 23 26  1  0  0  0  0
 24 22  2  0  0  0  0
 26 25  2  0  0  0  0
 27 23  1  0  0  0  0
 28 24  1  0  0  0  0
 28 23  2  0  0  0  0
M  END
>  <MODEL>
6

>  <REMARK>
 VINA RESULT:      -8.2      3.259      5.813
  Name = 
  3 active torsions:
  status: ('A' for Active; 'I' for Inactive)
    1  A    between atoms: N_1  and  C_2
    2  A    between atoms: C_2  and  C_3
    3  A    between atoms: C_12  and  C_24
                            x       y       z     vdW  Elec       q    Type
                         _______ _______ _______ _____ _____    ______ ____

>  <TORSDO>
F 3

$$$$
=
 OpenBabel11052413333D

 28 32  0  0  1  0  0  0  0  0999 V2000
  186.5520  178.5230  140.0780 N   0  0  0  0  0  0  0  0  0  0  0  0
  188.1440  178.1300  145.1800 S   0  0  0  0  0  0  0  0  0  0  0  0
  191.2450  176.9360  139.5080 C   0  0  0  0  0  1  0  0  0  0  0  0
  190.5820  177.3030  144.5160 C   0  0  0  0  0  0  0  0  0  0  0  0
  189.2050  177.6980  142.5940 C   0  0  0  0  0  0  0  0  0  0  0  0
  189.3770  177.6850  143.9780 C   0  0  0  0  0  0  0  0  0  0  0  0
  191.4940  176.9330  142.3680 C   0  0  0  0  0  2  0  0  0  0  0  0
  190.6450  177.3260  145.8330 C   0  0  0  0  0  2  0  0  0  0  0  0
  188.8230  177.7560  139.8280 C   0  0  0  0  0  0  0  0  0  0  0  0
  187.9840  178.0800  142.0300 O   0  0  0  0  0  0  0  0  0  0  0  0
  191.6220  176.9330  143.7250 N   0  0  0  0  0  0  0  0  0  0  0  0
  187.4780  178.1870  137.8270 C   0  0  0  0  0  3  0  0  0  0  0  0
  190.1230  177.3340  140.4200 C   0  0  0  0  0  0  0  0  0  0  0  0
  188.6370  177.7970  138.3600 C   0  0  0  0  0  3  0  0  0  0  0  0
  189.3790  177.7740  146.4960 C   0  0  2  0  0  3  0  0  0  0  0  0
  190.2800  177.3190  141.7620 C   0  0  0  0  0  0  0  0  0  0  0  0
  186.3970  178.5690  138.6820 N   0  0  0  0  0  2  0  0  0  0  0  0
  187.8080  178.1110  140.6410 C   0  0  0  0  0  0  0  0  0  0  0  0
  188.8690  176.6780  147.4120 C   0  0  0  0  0  2  0  0  0  0  0  0
  188.0440  177.2510  148.4610 N   0  0  0  0  0  1  0  0  0  0  0  0
  185.4560  178.9550  140.9330 C   0  0  0  0  0  2  0  0  0  0  0  0
  184.1490  178.7020  140.2640 C   0  0  0  0  0  0  0  0  0  0  0  0
  181.6690  178.2460  139.0500 C   0  0  0  0  0  0  0  0  0  0  0  0
  183.6040  179.6590  139.3990 C   0  0  0  0  0  3  0  0  0  0  0  0
  183.4470  177.5210  140.5260 C   0  0  0  0  0  3  0  0  0  0  0  0
  182.2080  177.2920  139.9190 C   0  0  0  0  0  3  0  0  0  0  0  0
  180.3530  178.0020  138.4040 C   0  0  0  0  0  1  0  0  0  0  0  0
  182.3660  179.4290  138.7920 C   0  0  0  0  0  3  0  0  0  0  0  0
  1 18  1  0  0  0  0
  1 21  1  0  0  0  0
  2 15  1  0  0  0  0
  3 13  1  0  0  0  0
  4  8  1  0  0  0  0
  5  6  2  0  0  0  0
  6  4  1  0  0  0  0
  6  2  1  0  0  0  0
  7 11  1  0  0  0  0
  8 15  1  0  0  0  0
  9 13  1  0  0  0  0
  9 18  2  0  0  0  0
 10  5  1  0  0  0  0
 11  4  2  0  0  0  0
 12 14  2  0  0  0  0
 12 17  1  0  0  0  0
 13 16  2  0  0  0  0
 14  9  1  0  0  0  0
 15 19  1  1  0  0  0
 16  7  1  0  0  0  0
 16  5  1  0  0  0  0
 17  1  1  0  0  0  0
 18 10  1  0  0  0  0
 19 20  1  0  0  0  0
 22 25  1  0  0  0  0
 22 21  1  0  0  0  0
 23 26  1  0  0  0  0
 24 22  2  0  0  0  0
 26 25  2  0  0  0  0
 27 23  1  0  0  0  0
 28 23  2  0  0  0  0
 28 24  1  0  0  0  0
M  END
>  <MODEL>
7

>  <REMARK>
 VINA RESULT:      -8.1      2.320      5.165
  Name = 
  3 active torsions:
  status: ('A' for Active; 'I' for Inactive)
    1  A    between atoms: N_1  and  C_2
    2  A    between atoms: C_2  and  C_3
    3  A    between atoms: C_12  and  C_24
                            x       y       z     vdW  Elec       q    Type
                         _______ _______ _______ _____ _____    ______ ____

>  <TORSDO>
F 3

$$$$
=
 OpenBabel11052413333D

 28 32  0  0  1  0  0  0  0  0999 V2000
  188.5720  177.6410  143.8620 N   0  0  0  0  0  0  0  0  0  0  0  0
  189.3410  178.0620  138.5750 S   0  0  0  0  0  0  0  0  0  0  0  0
  183.9410  178.6040  142.2830 C   0  0  0  0  0  1  0  0  0  0  0  0
  186.7760  178.5620  138.0860 C   0  0  0  0  0  0  0  0  0  0  0  0
  187.2060  178.2300  140.4210 C   0  0  0  0  0  0  0  0  0  0  0  0
  187.6600  178.2970  139.1040 C   0  0  0  0  0  0  0  0  0  0  0  0
  184.9730  178.7070  139.6070 C   0  0  0  0  0  2  0  0  0  0  0  0
  187.3030  178.6050  136.8780 C   0  0  0  0  0  2  0  0  0  0  0  0
  186.3420  178.1080  143.0740 C   0  0  0  0  0  0  0  0  0  0  0  0
  188.0910  177.9580  141.4690 O   0  0  0  0  0  0  0  0  0  0  0  0
  185.4560  178.7630  138.3330 N   0  0  0  0  0  0  0  0  0  0  0  0
  186.7290  177.8240  145.4760 C   0  0  0  0  0  3  0  0  0  0  0  0
  185.3900  178.3850  141.9640 C   0  0  0  0  0  0  0  0  0  0  0  0
  185.8760  178.0590  144.4780 C   0  0  0  0  0  3  0  0  0  0  0  0
  188.7810  178.3600  136.8480 C   0  0  2  0  0  3  0  0  0  0  0  0
  185.8360  178.4410  140.6900 C   0  0  0  0  0  0  0  0  0  0  0  0
  188.1140  177.6120  145.1900 N   0  0  0  0  0  2  0  0  0  0  0  0
  187.6450  177.9050  142.7960 C   0  0  0  0  0  0  0  0  0  0  0  0
  189.0770  177.1490  135.9830 C   0  0  0  0  0  2  0  0  0  0  0  0
  189.7290  176.1200  136.7760 N   0  0  0  0  0  1  0  0  0  0  0  0
  189.9920  177.4650  143.5910 C   0  0  0  0  0  2  0  0  0  0  0  0
  190.6910  176.9670  144.8090 C   0  0  0  0  0  0  0  0  0  0  0  0
  191.9630  175.9980  147.1050 C   0  0  0  0  0  0  0  0  0  0  0  0
  191.6320  175.9360  144.7070 C   0  0  0  0  0  3  0  0  0  0  0  0
  190.3820  177.5060  146.0620 C   0  0  0  0  0  3  0  0  0  0  0  0
  191.0180  177.0240  147.2100 C   0  0  0  0  0  3  0  0  0  0  0  0
  192.6390  175.4850  148.3250 C   0  0  0  0  0  1  0  0  0  0  0  0
  192.2690  175.4530  145.8550 C   0  0  0  0  0  3  0  0  0  0  0  0
  1 17  1  0  0  0  0
  2  6  1  0  0  0  0
  4 11  2  0  0  0  0
  4  6  1  0  0  0  0
  5 16  1  0  0  0  0
  5 10  1  0  0  0  0
  6  5  2  0  0  0  0
  7 16  1  0  0  0  0
  8  4  1  0  0  0  0
  9 14  1  0  0  0  0
 10 18  1  0  0  0  0
 11  7  1  0  0  0  0
 13  3  1  0  0  0  0
 13  9  1  0  0  0  0
 14 12  2  0  0  0  0
 15 19  1  6  0  0  0
 15  8  1  0  0  0  0
 15  2  1  0  0  0  0
 16 13  2  0  0  0  0
 17 12  1  0  0  0  0
 18  9  2  0  0  0  0
 18  1  1  0  0  0  0
 19 20  1  0  0  0  0
 21  1  1  0  0  0  0
 21 22  1  0  0  0  0
 22 25  1  0  0  0  0
 23 26  1  0  0  0  0
 23 27  1  0  0  0  0
 24 22  2  0  0  0  0
 24 28  1  0  0  0  0
 25 26  2  0  0  0  0
 28 23  2  0  0  0  0
M  END
>  <MODEL>
8

>  <REMARK>
 VINA RESULT:      -8.0      2.440      7.661
  Name = 
  3 active torsions:
  status: ('A' for Active; 'I' for Inactive)
    1  A    between atoms: N_1  and  C_2
    2  A    between atoms: C_2  and  C_3
    3  A    between atoms: C_12  and  C_24
                            x       y       z     vdW  Elec       q    Type
                         _______ _______ _______ _____ _____    ______ ____

>  <TORSDO>
F 3

$$$$
=
 OpenBabel11052413333D

 28 32  0  0  1  0  0  0  0  0999 V2000
  183.2020  178.9460  142.3010 N   0  0  0  0  0  0  0  0  0  0  0  0
  187.3600  177.9520  139.0680 S   0  0  0  0  0  0  0  0  0  0  0  0
  186.7860  177.9330  145.6170 C   0  0  0  0  0  1  0  0  0  0  0  0
  189.0140  177.4640  141.0920 C   0  0  0  0  0  0  0  0  0  0  0  0
  186.8080  178.0300  141.8410 C   0  0  1  0  0  3  0  0  0  0  0  0
  187.7170  177.8140  140.8060 C   0  0  0  0  0  0  0  0  0  0  0  0
  188.5810  177.5230  143.4150 C   0  0  0  0  0  3  0  0  0  0  0  0
  189.7940  177.2810  140.0450 C   0  0  0  0  0  2  0  0  0  0  0  0
  184.9510  178.4530  143.8840 C   0  0  0  0  0  0  0  0  0  0  0  0
  185.4850  178.3900  141.5660 O   0  0  0  0  0  0  0  0  0  0  0  0
  189.4380  177.3210  142.3740 N   0  0  0  0  0  0  0  0  0  0  0  0
  182.7050  178.9800  144.7060 C   0  0  0  0  0  3  0  0  0  0  0  0
  186.3610  178.0830  144.1870 C   0  0  0  0  0  0  0  0  0  0  0  0
  183.9720  178.6610  144.9740 C   0  0  0  0  0  3  0  0  0  0  0  0
  189.1070  177.4870  138.7300 C   0  0  2  0  0  3  0  0  0  0  0  0
  187.2370  177.8810  143.1780 C   0  0  0  0  0  0  0  0  0  0  0  0
  182.2820  179.1260  143.3480 N   0  0  0  0  0  2  0  0  0  0  0  0
  184.5620  178.5940  142.6010 C   0  0  0  0  0  0  0  0  0  0  0  0
  189.8050  178.5910  137.9590 C   0  0  0  0  0  2  0  0  0  0  0  0
  188.8280  179.3820  137.2300 N   0  0  0  0  0  1  0  0  0  0  0  0
  182.7470  179.0590  140.9220 C   0  0  0  0  0  2  0  0  0  0  0  0
  182.0120  177.8270  140.5190 C   0  0  0  0  0  0  0  0  0  0  0  0
  180.6150  175.5380  139.7180 C   0  0  0  0  0  0  0  0  0  0  0  0
  182.6840  176.7880  139.8670 C   0  0  0  0  0  3  0  0  0  0  0  0
  180.6380  177.7230  140.7620 C   0  0  0  0  0  3  0  0  0  0  0  0
  179.9400  176.5790  140.3640 C   0  0  0  0  0  3  0  0  0  0  0  0
  179.8740  174.3220  139.2930 C   0  0  0  0  0  1  0  0  0  0  0  0
  181.9860  175.6440  139.4680 C   0  0  0  0  0  3  0  0  0  0  0  0
  1 18  1  0  0  0  0
  1 17  1  0  0  0  0
  2  6  1  0  0  0  0
  4 11  1  0  0  0  0
  5  6  1  6  0  0  0
  5 16  1  0  0  0  0
  6  4  2  0  0  0  0
  8  4  1  0  0  0  0
  9 13  1  0  0  0  0
  9 14  1  0  0  0  0
 10  5  1  0  0  0  0
 10 18  1  0  0  0  0
 11  7  2  0  0  0  0
 12 14  2  0  0  0  0
 13  3  1  0  0  0  0
 15 19  1  1  0  0  0
 15  2  1  0  0  0  0
 15  8  1  0  0  0  0
 16  7  1  0  0  0  0
 16 13  2  0  0  0  0
 17 12  1  0  0  0  0
 18  9  2  0  0  0  0
 20 19  1  0  0  0  0
 21  1  1  0  0  0  0
 22 25  1  0  0  0  0
 22 21  1  0  0  0  0
 23 26  1  0  0  0  0
 24 22  2  0  0  0  0
 26 25  2  0  0  0  0
 27 23  1  0  0  0  0
 28 23  2  0  0  0  0
 28 24  1  0  0  0  0
M  END
>  <MODEL>
9

>  <REMARK>
 VINA RESULT:      -8.0      3.288      6.527
  Name = 
  3 active torsions:
  status: ('A' for Active; 'I' for Inactive)
    1  A    between atoms: N_1  and  C_2
    2  A    between atoms: C_2  and  C_3
    3  A    between atoms: C_12  and  C_24
                            x       y       z     vdW  Elec       q    Type
                         _______ _______ _______ _____ _____    ______ ____

>  <TORSDO>
F 3

$$$$
