=
 OpenBabel11052415533D

 34 38  0  0  1  0  0  0  0  0999 V2000
  186.8780  178.2820  138.8750 C   0  0  2  0  0  3  0  0  0  0  0  0
  186.9370  174.9450  136.7830 C   0  0  0  0  0  2  0  0  0  0  0  0
  184.9280  176.5720  137.2980 C   0  0  0  0  0  2  0  0  0  0  0  0
  184.8140  179.7470  139.0180 N   0  0  0  0  0  2  0  0  0  0  0  0
  183.3930  179.4370  138.9070 C   0  0  0  0  0  2  0  0  0  0  0  0
  184.6030  177.4410  138.4490 N   0  0  1  0  0  0  0  0  0  0  0  0
  185.4680  178.6150  138.3630 C   0  0  2  0  0  3  0  0  0  0  0  0
  183.2820  178.0280  138.3310 C   0  0  0  0  0  2  0  0  0  0  0  0
  188.4540  174.9450  136.5450 C   0  0  0  0  0  2  0  0  0  0  0  0
  188.9550  176.3510  136.1270 C   0  0  1  0  0  3  0  0  0  0  0  0
  188.5800  178.8030  136.5400 C   0  0  0  0  0  1  0  0  0  0  0  0
  186.4480  176.3490  137.1490 C   0  0  1  0  0  3  0  0  0  0  0  0
  188.6970  177.4370  137.2110 C   0  0  1  0  0  3  0  0  0  0  0  0
  187.4500  177.0930  138.0610 C   0  0  1  0  0  3  0  0  0  0  0  0
  190.3890  176.3500  135.5850 C   0  0  1  0  0  3  0  0  0  0  0  0
  191.4260  176.1980  136.6890 C   0  0  0  0  0  1  0  0  0  0  0  0
  190.5610  175.3320  134.6340 O   0  0  0  0  0  1  0  0  0  0  0  0
  187.0830  178.0700  140.3930 C   0  0  1  0  0  3  0  0  0  0  0  0
  188.5610  177.9150  140.7180 C   0  0  0  0  0  1  0  0  0  0  0  0
  186.2510  179.2760  141.5090 S   0  0  0  0  0  0  0  0  0  0  0  0
  184.3520  179.2800  145.1930 C   0  0  0  0  0  2  0  0  0  0  0  0
  185.3680  178.0830  142.6310 C   0  0  1  0  0  3  0  0  0  0  0  0
  187.5750  177.6510  146.3300 C   0  0  0  0  0  0  0  0  0  0  0  0
  186.3840  178.3830  146.3180 C   0  0  0  0  0  3  0  0  0  0  0  0
  185.6320  178.5080  145.1340 C   0  0  0  0  0  0  0  0  0  0  0  0
  183.0780  178.1260  141.9390 O   0  0  0  0  0  0  0  0  0  0  0  0
  187.2920  177.1810  143.9660 C   0  0  0  0  0  3  0  0  0  0  0  0
  186.1060  177.9260  143.9340 C   0  0  0  0  0  0  0  0  0  0  0  0
  188.0100  177.0280  145.1560 C   0  0  0  0  0  3  0  0  0  0  0  0
  183.9060  178.3590  142.8620 C   0  0  0  0  0  0  0  0  0  0  0  0
  183.4380  178.8850  144.1150 N   0  0  0  0  0  2  0  0  0  0  0  0
  188.3700  177.5670  147.5640 C   0  0  0  0  0  0  0  0  0  0  0  0
  189.6260  176.9550  147.5490 O   0  0  0  0  0  0  0  0  0  0  0  0
  187.9010  178.0290  148.6400 O   0  0  0  0  0  1  0  0  0  0  0  0
  1 18  1  1  0  0  0
  5  4  1  0  0  0  0
  6  3  1  6  0  0  0
  7  6  1  0  0  0  0
  7  1  1  0  0  0  0
  7  4  1  1  0  0  0
  8  6  1  0  0  0  0
  8  5  1  0  0  0  0
  9  2  1  0  0  0  0
 10 15  1  1  0  0  0
 10  9  1  0  0  0  0
 10 13  1  0  0  0  0
 12  2  1  1  0  0  0
 12  3  1  0  0  0  0
 12 14  1  0  0  0  0
 13 11  1  6  0  0  0
 13 14  1  0  0  0  0
 14  1  1  0  0  0  0
 15 16  1  0  0  0  0
 17 15  1  0  0  0  0
 18 19  1  0  0  0  0
 18 20  1  0  0  0  0
 20 22  1  0  0  0  0
 22 30  1  0  0  0  0
 22 28  1  0  0  0  0
 23 32  1  0  0  0  0
 24 23  1  0  0  0  0
 25 21  1  0  0  0  0
 25 24  2  0  0  0  0
 26 30  2  0  0  0  0
 27 29  1  0  0  0  0
 28 27  2  0  0  0  0
 28 25  1  0  0  0  0
 29 23  2  0  0  0  0
 30 31  1  0  0  0  0
 31 21  1  0  0  0  0
 32 34  1  0  0  0  0
 33 32  2  0  0  0  0
M  END
>  <MODEL>
1

>  <REMARK>
 VINA RESULT:      -8.6      0.000      0.000
  Name = 
  5 active torsions:
  status: ('A' for Active; 'I' for Inactive)
    1  A    between atoms: C_1  and  C_8
    2  A    between atoms: C_3  and  C_25
    3  A    between atoms: C_6  and  S_17
    4  A    between atoms: C_7  and  C_11
    5  A    between atoms: C_8  and  S_17
                            x       y       z     vdW  Elec       q    Type
                         _______ _______ _______ _____ _____    ______ ____

>  <TORSDO>
F 5

$$$$
=
 OpenBabel11052415533D

 34 38  0  0  1  0  0  0  0  0999 V2000
  184.1780  179.0250  139.1780 C   0  0  2  0  0  3  0  0  0  0  0  0
  183.3310  175.8690  136.9780 C   0  0  0  0  0  2  0  0  0  0  0  0
  182.1360  178.2160  137.0820 C   0  0  0  0  0  2  0  0  0  0  0  0
  182.9570  181.2290  138.9000 N   0  0  0  0  0  2  0  0  0  0  0  0
  181.6110  181.5420  138.4310 C   0  0  0  0  0  2  0  0  0  0  0  0
  181.9390  179.2000  138.1670 N   0  0  1  0  0  0  0  0  0  0  0  0
  183.2100  179.8930  138.3610 C   0  0  2  0  0  3  0  0  0  0  0  0
  181.0600  180.2830  137.7670 C   0  0  0  0  0  2  0  0  0  0  0  0
  184.7150  175.2160  137.1150 C   0  0  0  0  0  2  0  0  0  0  0  0
  185.8460  176.2560  136.9100 C   0  0  1  0  0  3  0  0  0  0  0  0
  186.4520  178.6560  137.3580 C   0  0  0  0  0  1  0  0  0  0  0  0
  183.4070  177.3650  137.2940 C   0  0  1  0  0  3  0  0  0  0  0  0
  185.8150  177.4050  137.9590 C   0  0  1  0  0  3  0  0  0  0  0  0
  184.3740  177.6640  138.4610 C   0  0  1  0  0  3  0  0  0  0  0  0
  187.2300  175.6220  136.7320 C   0  0  1  0  0  3  0  0  0  0  0  0
  187.1910  174.1040  136.8460 C   0  0  0  0  0  1  0  0  0  0  0  0
  187.7900  175.9870  135.4970 O   0  0  0  0  0  1  0  0  0  0  0  0
  183.8990  178.8260  140.6870 C   0  0  1  0  0  3  0  0  0  0  0  0
  183.4380  177.4020  140.9620 C   0  0  0  0  0  1  0  0  0  0  0  0
  185.2280  179.3610  141.8440 S   0  0  0  0  0  0  0  0  0  0  0  0
  185.5150  179.2770  145.9780 C   0  0  0  0  0  2  0  0  0  0  0  0
  184.8880  178.1880  143.2480 C   0  0  1  0  0  3  0  0  0  0  0  0
  188.5950  177.1980  145.2530 C   0  0  0  0  0  0  0  0  0  0  0  0
  187.6850  178.0600  145.8700 C   0  0  0  0  0  3  0  0  0  0  0  0
  186.4580  178.3700  145.2520 C   0  0  0  0  0  0  0  0  0  0  0  0
  182.6010  178.5530  143.8500 O   0  0  0  0  0  0  0  0  0  0  0  0
  187.0730  176.9620  143.3770 C   0  0  0  0  0  3  0  0  0  0  0  0
  186.1600  177.8390  143.9750 C   0  0  0  0  0  0  0  0  0  0  0  0
  188.2720  176.6280  144.0170 C   0  0  0  0  0  3  0  0  0  0  0  0
  183.8090  178.6110  144.2100 C   0  0  0  0  0  0  0  0  0  0  0  0
  184.1320  179.0810  145.5280 N   0  0  0  0  0  2  0  0  0  0  0  0
  189.8900  176.9200  145.8920 C   0  0  0  0  0  0  0  0  0  0  0  0
  189.9710  176.7730  147.2790 O   0  0  0  0  0  1  0  0  0  0  0  0
  190.9290  176.8380  145.1820 O   0  0  0  0  0  0  0  0  0  0  0  0
  1 18  1  1  0  0  0
  2  9  1  0  0  0  0
  3 12  1  0  0  0  0
  5  4  1  0  0  0  0
  6  3  1  6  0  0  0
  6  7  1  0  0  0  0
  7  4  1  1  0  0  0
  7  1  1  0  0  0  0
  8  6  1  0  0  0  0
  8  5  1  0  0  0  0
 10 15  1  1  0  0  0
 10  9  1  0  0  0  0
 10 13  1  0  0  0  0
 12  2  1  1  0  0  0
 12 14  1  0  0  0  0
 13 11  1  6  0  0  0
 13 14  1  0  0  0  0
 14  1  1  0  0  0  0
 15 16  1  0  0  0  0
 17 15  1  0  0  0  0
 18 19  1  0  0  0  0
 18 20  1  0  0  0  0
 20 22  1  0  0  0  0
 22 28  1  0  0  0  0
 22 30  1  0  0  0  0
 23 24  1  0  0  0  0
 23 32  1  0  0  0  0
 25 24  2  0  0  0  0
 25 21  1  0  0  0  0
 26 30  2  0  0  0  0
 27 28  2  0  0  0  0
 27 29  1  0  0  0  0
 28 25  1  0  0  0  0
 29 23  2  0  0  0  0
 30 31  1  0  0  0  0
 31 21  1  0  0  0  0
 32 33  1  0  0  0  0
 34 32  2  0  0  0  0
M  END
>  <MODEL>
2

>  <REMARK>
 VINA RESULT:      -8.4      1.928      2.766
  Name = 
  5 active torsions:
  status: ('A' for Active; 'I' for Inactive)
    1  A    between atoms: C_1  and  C_8
    2  A    between atoms: C_3  and  C_25
    3  A    between atoms: C_6  and  S_17
    4  A    between atoms: C_7  and  C_11
    5  A    between atoms: C_8  and  S_17
                            x       y       z     vdW  Elec       q    Type
                         _______ _______ _______ _____ _____    ______ ____

>  <TORSDO>
F 5

$$$$
=
 OpenBabel11052415533D

 34 38  0  0  1  0  0  0  0  0999 V2000
  189.1640  176.1810  138.2950 C   0  0  2  0  0  3  0  0  0  0  0  0
  187.9720  178.1120  135.0750 C   0  0  0  0  0  2  0  0  0  0  0  0
  190.2320  176.8340  135.5290 C   0  0  0  0  0  2  0  0  0  0  0  0
  191.3310  174.8650  138.3530 N   0  0  0  0  0  2  0  0  0  0  0  0
  192.5790  175.0160  137.6130 C   0  0  0  0  0  2  0  0  0  0  0  0
  191.0340  176.6060  136.7490 N   0  0  1  0  0  0  0  0  0  0  0  0
  190.3530  175.5770  137.5310 C   0  0  2  0  0  3  0  0  0  0  0  0
  192.3050  175.9710  136.4550 C   0  0  0  0  0  2  0  0  0  0  0  0
  186.4760  178.0720  135.4230 C   0  0  0  0  0  2  0  0  0  0  0  0
  186.0540  176.6630  135.9110 C   0  0  1  0  0  3  0  0  0  0  0  0
  186.8630  174.6910  137.2460 C   0  0  0  0  0  1  0  0  0  0  0  0
  188.7340  177.0320  135.8470 C   0  0  1  0  0  3  0  0  0  0  0  0
  186.7990  176.2160  137.2020 C   0  0  1  0  0  3  0  0  0  0  0  0
  188.2030  176.8630  137.2880 C   0  0  1  0  0  3  0  0  0  0  0  0
  184.5340  176.4740  135.9810 C   0  0  1  0  0  3  0  0  0  0  0  0
  183.9400  177.0300  137.2680 C   0  0  0  0  0  1  0  0  0  0  0  0
  183.9070  177.0700  134.8760 O   0  0  0  0  0  1  0  0  0  0  0  0
  189.4540  177.1030  139.5030 C   0  0  1  0  0  3  0  0  0  0  0  0
  188.8190  178.4700  139.2970 C   0  0  0  0  0  1  0  0  0  0  0  0
  189.0850  176.4110  141.1700 S   0  0  0  0  0  0  0  0  0  0  0  0
  188.7000  177.6290  145.1120 C   0  0  0  0  0  2  0  0  0  0  0  0
  189.0990  177.9880  142.1560 C   0  0  1  0  0  3  0  0  0  0  0  0
  185.2220  178.6060  143.9800 C   0  0  0  0  0  0  0  0  0  0  0  0
  186.3020  178.2050  144.7710 C   0  0  0  0  0  3  0  0  0  0  0  0
  187.5800  178.0310  144.2060 C   0  0  0  0  0  0  0  0  0  0  0  0
  191.3940  178.3730  142.7170 O   0  0  0  0  0  0  0  0  0  0  0  0
  186.6790  178.6380  142.0390 C   0  0  0  0  0  3  0  0  0  0  0  0
  187.7660  178.2200  142.8160 C   0  0  0  0  0  0  0  0  0  0  0  0
  185.4220  178.8490  142.6170 C   0  0  0  0  0  3  0  0  0  0  0  0
  190.2290  178.1360  143.1410 C   0  0  0  0  0  0  0  0  0  0  0  0
  190.0030  178.0090  144.5540 N   0  0  0  0  0  2  0  0  0  0  0  0
  183.8850  178.7400  144.5780 C   0  0  0  0  0  0  0  0  0  0  0  0
  182.7450  178.6020  143.7830 O   0  0  0  0  0  0  0  0  0  0  0  0
  183.7770  179.0040  145.8060 O   0  0  0  0  0  1  0  0  0  0  0  0
  1 18  1  1  0  0  0
  2  9  1  0  0  0  0
  3 12  1  0  0  0  0
  5  4  1  0  0  0  0
  6  3  1  6  0  0  0
  6  7  1  0  0  0  0
  7  1  1  0  0  0  0
  7  4  1  1  0  0  0
  8  6  1  0  0  0  0
  8  5  1  0  0  0  0
  9 10  1  0  0  0  0
 10 15  1  1  0  0  0
 10 13  1  0  0  0  0
 12  2  1  1  0  0  0
 12 14  1  0  0  0  0
 13 11  1  6  0  0  0
 13 14  1  0  0  0  0
 14  1  1  0  0  0  0
 15 16  1  0  0  0  0
 17 15  1  0  0  0  0
 18 20  1  0  0  0  0
 19 18  1  0  0  0  0
 20 22  1  0  0  0  0
 22 28  1  0  0  0  0
 22 30  1  0  0  0  0
 23 32  1  0  0  0  0
 23 24  1  0  0  0  0
 25 24  2  0  0  0  0
 25 21  1  0  0  0  0
 26 30  2  0  0  0  0
 27 29  1  0  0  0  0
 27 28  2  0  0  0  0
 28 25  1  0  0  0  0
 29 23  2  0  0  0  0
 30 31  1  0  0  0  0
 31 21  1  0  0  0  0
 32 34  1  0  0  0  0
 33 32  2  0  0  0  0
M  END
>  <MODEL>
3

>  <REMARK>
 VINA RESULT:      -7.9      3.074      5.354
  Name = 
  5 active torsions:
  status: ('A' for Active; 'I' for Inactive)
    1  A    between atoms: C_1  and  C_8
    2  A    between atoms: C_3  and  C_25
    3  A    between atoms: C_6  and  S_17
    4  A    between atoms: C_7  and  C_11
    5  A    between atoms: C_8  and  S_17
                            x       y       z     vdW  Elec       q    Type
                         _______ _______ _______ _____ _____    ______ ____

>  <TORSDO>
F 5

$$$$
=
 OpenBabel11052415533D

 34 38  0  0  1  0  0  0  0  0999 V2000
  181.8490  178.5320  138.5040 C   0  0  2  0  0  3  0  0  0  0  0  0
  179.2300  176.4140  136.4620 C   0  0  0  0  0  2  0  0  0  0  0  0
  179.4780  179.0290  136.6750 C   0  0  0  0  0  2  0  0  0  0  0  0
  181.9580  181.0590  138.3420 N   0  0  0  0  0  2  0  0  0  0  0  0
  180.9410  182.0580  138.0300 C   0  0  0  0  0  2  0  0  0  0  0  0
  179.9490  179.9120  137.7620 N   0  0  1  0  0  0  0  0  0  0  0  0
  181.4070  179.8200  137.7940 C   0  0  2  0  0  3  0  0  0  0  0  0
  179.7400  181.3140  137.4530 C   0  0  0  0  0  2  0  0  0  0  0  0
  180.0630  175.1230  136.4440 C   0  0  0  0  0  2  0  0  0  0  0  0
  181.5440  175.4190  136.0940 C   0  0  1  0  0  3  0  0  0  0  0  0
  183.3720  177.1120  136.4350 C   0  0  0  0  0  1  0  0  0  0  0  0
  180.1190  177.6260  136.7470 C   0  0  1  0  0  3  0  0  0  0  0  0
  182.2380  176.3560  137.1240 C   0  0  1  0  0  3  0  0  0  0  0  0
  181.2170  177.3110  137.7880 C   0  0  1  0  0  3  0  0  0  0  0  0
  182.3540  174.1600  135.7630 C   0  0  1  0  0  3  0  0  0  0  0  0
  182.9710  173.5260  137.0020 C   0  0  0  0  0  1  0  0  0  0  0  0
  181.5570  173.2160  135.0970 O   0  0  0  0  0  1  0  0  0  0  0  0
  181.6690  178.4340  140.0380 C   0  0  1  0  0  3  0  0  0  0  0  0
  180.2690  177.9500  140.3830 C   0  0  0  0  0  1  0  0  0  0  0  0
  182.9690  177.5080  140.9580 S   0  0  0  0  0  0  0  0  0  0  0  0
  186.9840  178.0830  141.8080 C   0  0  0  0  0  2  0  0  0  0  0  0
  184.1390  178.9110  141.3110 C   0  0  1  0  0  3  0  0  0  0  0  0
  185.6890  178.5430  145.3360 C   0  0  0  0  0  0  0  0  0  0  0  0
  186.5150  178.2460  144.2480 C   0  0  0  0  0  3  0  0  0  0  0  0
  186.0430  178.3900  142.9290 C   0  0  0  0  0  0  0  0  0  0  0  0
  184.9360  179.6350  139.1740 O   0  0  0  0  0  0  0  0  0  0  0  0
  183.8970  179.1100  143.8000 C   0  0  0  0  0  3  0  0  0  0  0  0
  184.7070  178.7990  142.7010 C   0  0  0  0  0  0  0  0  0  0  0  0
  184.3890  179.0030  145.1060 C   0  0  0  0  0  3  0  0  0  0  0  0
  185.2270  179.1300  140.2930 C   0  0  0  0  0  0  0  0  0  0  0  0
  186.5900  178.7720  140.5740 N   0  0  0  0  0  2  0  0  0  0  0  0
  186.1840  178.3440  146.7070 C   0  0  0  0  0  0  0  0  0  0  0  0
  187.1850  177.4040  146.9620 O   0  0  0  0  0  0  0  0  0  0  0  0
  185.6800  179.0100  147.6520 O   0  0  0  0  0  1  0  0  0  0  0  0
  1 18  1  1  0  0  0
  3 12  1  0  0  0  0
  5  4  1  0  0  0  0
  6  3  1  6  0  0  0
  6  7  1  0  0  0  0
  7  4  1  1  0  0  0
  7  1  1  0  0  0  0
  8  6  1  0  0  0  0
  8  5  1  0  0  0  0
  9  2  1  0  0  0  0
 10 15  1  1  0  0  0
 10  9  1  0  0  0  0
 10 13  1  0  0  0  0
 12  2  1  1  0  0  0
 12 14  1  0  0  0  0
 13 11  1  6  0  0  0
 13 14  1  0  0  0  0
 14  1  1  0  0  0  0
 15 16  1  0  0  0  0
 17 15  1  0  0  0  0
 18 19  1  0  0  0  0
 18 20  1  0  0  0  0
 20 22  1  0  0  0  0
 21 25  1  0  0  0  0
 22 28  1  0  0  0  0
 23 32  1  0  0  0  0
 24 23  2  0  0  0  0
 25 24  1  0  0  0  0
 26 30  2  0  0  0  0
 27 29  2  0  0  0  0
 28 25  2  0  0  0  0
 28 27  1  0  0  0  0
 29 23  1  0  0  0  0
 30 31  1  0  0  0  0
 30 22  1  0  0  0  0
 31 21  1  0  0  0  0
 32 33  2  0  0  0  0
 32 34  1  0  0  0  0
M  END
>  <MODEL>
4

>  <REMARK>
 VINA RESULT:      -7.4      3.613      5.379
  Name = 
  5 active torsions:
  status: ('A' for Active; 'I' for Inactive)
    1  A    between atoms: C_1  and  C_8
    2  A    between atoms: C_3  and  C_25
    3  A    between atoms: C_6  and  S_17
    4  A    between atoms: C_7  and  C_11
    5  A    between atoms: C_8  and  S_17
                            x       y       z     vdW  Elec       q    Type
                         _______ _______ _______ _____ _____    ______ ____

>  <TORSDO>
F 5

$$$$
=
 OpenBabel11052415533D

 34 38  0  0  1  0  0  0  0  0999 V2000
  181.9570  177.4950  137.7620 C   0  0  2  0  0  3  0  0  0  0  0  0
  180.2610  174.0810  136.7700 C   0  0  0  0  0  2  0  0  0  0  0  0
  179.6220  176.5400  136.0730 C   0  0  0  0  0  2  0  0  0  0  0  0
  181.2290  179.7040  136.7530 N   0  0  0  0  0  2  0  0  0  0  0  0
  179.9510  180.1500  136.2090 C   0  0  0  0  0  2  0  0  0  0  0  0
  179.7350  177.8450  136.7580 N   0  0  1  0  0  0  0  0  0  0  0  0
  181.1390  178.2450  136.7000 C   0  0  2  0  0  3  0  0  0  0  0  0
  179.0850  178.9080  136.0150 C   0  0  0  0  0  2  0  0  0  0  0  0
  181.4750  173.2050  137.1180 C   0  0  0  0  0  2  0  0  0  0  0  0
  182.7850  173.8240  136.5680 C   0  0  1  0  0  3  0  0  0  0  0  0
  183.9370  176.0240  136.1700 C   0  0  0  0  0  1  0  0  0  0  0  0
  180.6880  175.5350  136.5580 C   0  0  1  0  0  3  0  0  0  0  0  0
  183.0930  175.2280  137.1630 C   0  0  1  0  0  3  0  0  0  0  0  0
  181.7910  175.9680  137.5500 C   0  0  1  0  0  3  0  0  0  0  0  0
  183.9780  172.8610  136.6130 C   0  0  1  0  0  3  0  0  0  0  0  0
  184.8680  173.0960  137.8250 C   0  0  0  0  0  1  0  0  0  0  0  0
  183.5410  171.5270  136.6010 O   0  0  0  0  0  1  0  0  0  0  0  0
  181.7660  177.8770  139.2480 C   0  0  1  0  0  3  0  0  0  0  0  0
  180.3250  177.6460  139.6790 C   0  0  0  0  0  1  0  0  0  0  0  0
  182.9700  177.1570  140.4420 S   0  0  0  0  0  0  0  0  0  0  0  0
  186.7740  178.2550  141.6660 C   0  0  0  0  0  2  0  0  0  0  0  0
  183.9070  178.7020  140.8850 C   0  0  1  0  0  3  0  0  0  0  0  0
  185.0930  178.5470  145.0460 C   0  0  0  0  0  0  0  0  0  0  0  0
  186.0520  178.3580  144.0470 C   0  0  0  0  0  3  0  0  0  0  0  0
  185.6960  178.4380  142.6870 C   0  0  0  0  0  0  0  0  0  0  0  0
  184.8080  179.5210  138.8250 O   0  0  0  0  0  0  0  0  0  0  0  0
  183.4010  178.8720  143.3370 C   0  0  0  0  0  3  0  0  0  0  0  0
  184.3470  178.6680  142.3250 C   0  0  0  0  0  0  0  0  0  0  0  0
  183.7720  178.8320  144.6850 C   0  0  0  0  0  3  0  0  0  0  0  0
  185.0510  179.0600  139.9740 C   0  0  0  0  0  0  0  0  0  0  0  0
  186.4150  178.8840  140.3900 N   0  0  0  0  0  2  0  0  0  0  0  0
  185.4730  178.4170  146.4610 C   0  0  0  0  0  0  0  0  0  0  0  0
  186.8190  178.3080  146.8180 O   0  0  0  0  0  0  0  0  0  0  0  0
  184.5750  178.3790  147.3450 O   0  0  0  0  0  1  0  0  0  0  0  0
  1 18  1  1  0  0  0
  2  9  1  0  0  0  0
  3  6  1  0  0  0  0
  5  4  1  0  0  0  0
  6  8  1  6  0  0  0
  7  4  1  1  0  0  0
  7  6  1  0  0  0  0
  7  1  1  0  0  0  0
  8  5  1  0  0  0  0
 10 15  1  1  0  0  0
 10  9  1  0  0  0  0
 10 13  1  0  0  0  0
 12  3  1  1  0  0  0
 12  2  1  0  0  0  0
 12 14  1  0  0  0  0
 13 11  1  6  0  0  0
 13 14  1  0  0  0  0
 14  1  1  0  0  0  0
 15 16  1  0  0  0  0
 17 15  1  0  0  0  0
 18 19  1  0  0  0  0
 18 20  1  0  0  0  0
 20 22  1  0  0  0  0
 21 25  1  0  0  0  0
 22 28  1  0  0  0  0
 23 32  1  0  0  0  0
 24 23  2  0  0  0  0
 25 24  1  0  0  0  0
 26 30  2  0  0  0  0
 27 29  2  0  0  0  0
 28 25  2  0  0  0  0
 28 27  1  0  0  0  0
 29 23  1  0  0  0  0
 30 31  1  0  0  0  0
 30 22  1  0  0  0  0
 31 21  1  0  0  0  0
 32 33  2  0  0  0  0
 32 34  1  0  0  0  0
M  END
>  <MODEL>
5

>  <REMARK>
 VINA RESULT:      -7.4      3.493      5.155
  Name = 
  5 active torsions:
  status: ('A' for Active; 'I' for Inactive)
    1  A    between atoms: C_1  and  C_8
    2  A    between atoms: C_3  and  C_25
    3  A    between atoms: C_6  and  S_17
    4  A    between atoms: C_7  and  C_11
    5  A    between atoms: C_8  and  S_17
                            x       y       z     vdW  Elec       q    Type
                         _______ _______ _______ _____ _____    ______ ____

>  <TORSDO>
F 5

$$$$
=
 OpenBabel11052415533D

 34 38  0  0  1  0  0  0  0  0999 V2000
  182.3960  178.1500  138.6040 C   0  0  2  0  0  3  0  0  0  0  0  0
  179.9800  181.0590  139.7070 C   0  0  0  0  0  2  0  0  0  0  0  0
  180.2760  179.9230  137.3470 C   0  0  0  0  0  2  0  0  0  0  0  0
  182.3010  177.1250  136.2860 N   0  0  0  0  0  2  0  0  0  0  0  0
  181.8760  177.6680  135.0000 C   0  0  0  0  0  2  0  0  0  0  0  0
  181.4340  179.3160  136.6590 N   0  0  1  0  0  0  0  0  0  0  0  0
  181.6600  178.0050  137.2630 C   0  0  2  0  0  3  0  0  0  0  0  0
  181.1290  178.9680  135.2840 C   0  0  0  0  0  2  0  0  0  0  0  0
  180.0470  180.7460  141.2100 C   0  0  0  0  0  2  0  0  0  0  0  0
  179.9040  179.2250  141.4710 C   0  0  1  0  0  3  0  0  0  0  0  0
  180.5200  176.9750  140.5320 C   0  0  0  0  0  1  0  0  0  0  0  0
  180.4050  179.8410  138.8840 C   0  0  1  0  0  3  0  0  0  0  0  0
  181.0360  178.3840  140.8140 C   0  0  1  0  0  3  0  0  0  0  0  0
  181.5770  179.0760  139.5390 C   0  0  1  0  0  3  0  0  0  0  0  0
  179.6590  178.8820  142.9450 C   0  0  1  0  0  3  0  0  0  0  0  0
  180.9460  178.5400  143.6830 C   0  0  0  0  0  1  0  0  0  0  0  0
  179.0060  179.9380  143.6010 O   0  0  0  0  0  1  0  0  0  0  0  0
  183.8890  178.5530  138.5860 C   0  0  1  0  0  3  0  0  0  0  0  0
  184.0650  179.9780  139.0890 C   0  0  0  0  0  1  0  0  0  0  0  0
  185.0630  177.3850  139.3930 S   0  0  0  0  0  0  0  0  0  0  0  0
  188.2510  177.4090  142.0410 C   0  0  0  0  0  2  0  0  0  0  0  0
  186.1800  178.6160  140.2290 C   0  0  1  0  0  3  0  0  0  0  0  0
  185.5820  178.4550  144.5140 C   0  0  0  0  0  0  0  0  0  0  0  0
  186.7440  177.9130  143.9570 C   0  0  0  0  0  3  0  0  0  0  0  0
  186.9750  177.9830  142.5700 C   0  0  0  0  0  0  0  0  0  0  0  0
  188.0000  178.9630  138.7140 O   0  0  0  0  0  0  0  0  0  0  0  0
  184.8540  179.1250  142.2970 C   0  0  0  0  0  3  0  0  0  0  0  0
  186.0050  178.5700  141.7240 C   0  0  0  0  0  0  0  0  0  0  0  0
  184.6520  179.0860  143.6810 C   0  0  0  0  0  3  0  0  0  0  0  0
  187.6350  178.5460  139.8480 C   0  0  0  0  0  0  0  0  0  0  0  0
  188.6150  178.0100  140.7520 N   0  0  0  0  0  2  0  0  0  0  0  0
  185.3350  178.3340  145.9580 C   0  0  0  0  0  0  0  0  0  0  0  0
  186.3440  177.8700  146.8050 O   0  0  0  0  0  1  0  0  0  0  0  0
  184.2000  178.6280  146.4220 O   0  0  0  0  0  0  0  0  0  0  0  0
  1 18  1  6  0  0  0
  1 14  1  0  0  0  0
  2  9  1  0  0  0  0
  5  8  1  0  0  0  0
  5  4  1  0  0  0  0
  6  8  1  6  0  0  0
  6  7  1  0  0  0  0
  6  3  1  0  0  0  0
  7  4  1  6  0  0  0
  7  1  1  0  0  0  0
  9 10  1  0  0  0  0
 10 15  1  1  0  0  0
 12  3  1  6  0  0  0
 12 14  1  0  0  0  0
 12  2  1  0  0  0  0
 13 11  1  6  0  0  0
 13 10  1  0  0  0  0
 14 13  1  0  0  0  0
 15 17  1  0  0  0  0
 15 16  1  0  0  0  0
 18 19  1  0  0  0  0
 18 20  1  0  0  0  0
 20 22  1  0  0  0  0
 21 25  1  0  0  0  0
 22 28  1  0  0  0  0
 23 32  1  0  0  0  0
 24 23  1  0  0  0  0
 25 24  2  0  0  0  0
 26 30  2  0  0  0  0
 27 29  1  0  0  0  0
 28 27  2  0  0  0  0
 28 25  1  0  0  0  0
 29 23  2  0  0  0  0
 30 22  1  0  0  0  0
 30 31  1  0  0  0  0
 31 21  1  0  0  0  0
 32 34  2  0  0  0  0
 32 33  1  0  0  0  0
M  END
>  <MODEL>
6

>  <REMARK>
 VINA RESULT:      -7.1      3.278      6.838
  Name = 
  5 active torsions:
  status: ('A' for Active; 'I' for Inactive)
    1  A    between atoms: C_1  and  C_8
    2  A    between atoms: C_3  and  C_25
    3  A    between atoms: C_6  and  S_17
    4  A    between atoms: C_7  and  C_11
    5  A    between atoms: C_8  and  S_17
                            x       y       z     vdW  Elec       q    Type
                         _______ _______ _______ _____ _____    ______ ____

>  <TORSDO>
F 5

$$$$
=
 OpenBabel11052415533D

 34 38  0  0  1  0  0  0  0  0999 V2000
  189.0720  177.0670  136.8410 C   0  0  2  0  0  3  0  0  0  0  0  0
  190.2000  173.2930  136.8350 C   0  0  0  0  0  2  0  0  0  0  0  0
  187.8190  174.3370  136.4000 C   0  0  0  0  0  2  0  0  0  0  0  0
  186.7290  177.7740  136.1770 N   0  0  0  0  0  2  0  0  0  0  0  0
  185.4490  177.0780  136.2390 C   0  0  0  0  0  2  0  0  0  0  0  0
  187.1380  175.5430  136.9140 N   0  0  1  0  0  0  0  0  0  0  0  0
  187.7150  176.6950  136.2240 C   0  0  2  0  0  3  0  0  0  0  0  0
  185.7500  175.6040  136.4960 C   0  0  0  0  0  2  0  0  0  0  0  0
  191.6960  173.5850  136.6420 C   0  0  0  0  0  2  0  0  0  0  0  0
  191.9180  174.6580  135.5450 C   0  0  1  0  0  3  0  0  0  0  0  0
  190.9370  176.7690  134.5940 C   0  0  0  0  0  1  0  0  0  0  0  0
  189.3560  174.4930  136.4000 C   0  0  1  0  0  3  0  0  0  0  0  0
  191.2620  176.0260  135.8880 C   0  0  1  0  0  3  0  0  0  0  0  0
  190.0140  175.8380  136.7840 C   0  0  1  0  0  3  0  0  0  0  0  0
  193.3790  174.7720  135.0930 C   0  0  1  0  0  3  0  0  0  0  0  0
  194.1230  175.8890  135.8120 C   0  0  0  0  0  1  0  0  0  0  0  0
  194.0560  173.5570  135.2840 O   0  0  0  0  0  1  0  0  0  0  0  0
  189.0910  177.7210  138.2430 C   0  0  1  0  0  3  0  0  0  0  0  0
  189.1160  179.2370  138.1260 C   0  0  0  0  0  1  0  0  0  0  0  0
  187.8150  177.1380  139.4370 S   0  0  0  0  0  0  0  0  0  0  0  0
  188.2030  176.3880  143.4950 C   0  0  0  0  0  2  0  0  0  0  0  0
  188.4260  178.0000  140.9690 C   0  0  1  0  0  3  0  0  0  0  0  0
  185.1370  178.5980  143.7200 C   0  0  0  0  0  0  0  0  0  0  0  0
  186.0980  177.6210  143.9930 C   0  0  0  0  0  3  0  0  0  0  0  0
  187.1950  177.4310  143.1310 C   0  0  0  0  0  0  0  0  0  0  0  0
  190.7630  177.5010  141.0970 O   0  0  0  0  0  0  0  0  0  0  0  0
  186.3440  179.1940  141.6990 C   0  0  0  0  0  3  0  0  0  0  0  0
  187.3050  178.2070  141.9520 C   0  0  0  0  0  0  0  0  0  0  0  0
  185.2800  179.4020  142.5840 C   0  0  0  0  0  3  0  0  0  0  0  0
  189.6280  177.3830  141.6340 C   0  0  0  0  0  0  0  0  0  0  0  0
  189.5030  176.6590  142.8690 N   0  0  0  0  0  2  0  0  0  0  0  0
  183.9750  178.7530  144.6070 C   0  0  0  0  0  0  0  0  0  0  0  0
  184.1610  178.9470  145.9780 O   0  0  0  0  0  1  0  0  0  0  0  0
  182.8110  178.6850  144.1260 O   0  0  0  0  0  0  0  0  0  0  0  0
  1 18  1  1  0  0  0
  4  5  1  0  0  0  0
  5  8  1  0  0  0  0
  6  3  1  6  0  0  0
  7  4  1  1  0  0  0
  7  1  1  0  0  0  0
  7  6  1  0  0  0  0
  8  6  1  0  0  0  0
  9  2  1  0  0  0  0
 10 15  1  1  0  0  0
 10 13  1  0  0  0  0
 10  9  1  0  0  0  0
 12  3  1  1  0  0  0
 12 14  1  0  0  0  0
 12  2  1  0  0  0  0
 13 11  1  6  0  0  0
 13 14  1  0  0  0  0
 14  1  1  0  0  0  0
 15 17  1  0  0  0  0
 15 16  1  0  0  0  0
 18 20  1  0  0  0  0
 19 18  1  0  0  0  0
 20 22  1  0  0  0  0
 22 30  1  0  0  0  0
 22 28  1  0  0  0  0
 23 24  1  0  0  0  0
 23 32  1  0  0  0  0
 25 21  1  0  0  0  0
 25 24  2  0  0  0  0
 26 30  2  0  0  0  0
 27 28  2  0  0  0  0
 27 29  1  0  0  0  0
 28 25  1  0  0  0  0
 29 23  2  0  0  0  0
 30 31  1  0  0  0  0
 31 21  1  0  0  0  0
 32 33  1  0  0  0  0
 34 32  2  0  0  0  0
M  END
>  <MODEL>
7

>  <REMARK>
 VINA RESULT:      -7.0      2.752      4.195
  Name = 
  5 active torsions:
  status: ('A' for Active; 'I' for Inactive)
    1  A    between atoms: C_1  and  C_8
    2  A    between atoms: C_3  and  C_25
    3  A    between atoms: C_6  and  S_17
    4  A    between atoms: C_7  and  C_11
    5  A    between atoms: C_8  and  S_17
                            x       y       z     vdW  Elec       q    Type
                         _______ _______ _______ _____ _____    ______ ____

>  <TORSDO>
F 5

$$$$
=
 OpenBabel11052415533D

 34 38  0  0  1  0  0  0  0  0999 V2000
  184.5940  176.0360  137.4870 C   0  0  2  0  0  3  0  0  0  0  0  0
  181.3560  177.7530  136.0430 C   0  0  0  0  0  2  0  0  0  0  0  0
  181.9770  175.1960  136.1990 C   0  0  0  0  0  2  0  0  0  0  0  0
  184.8090  173.5180  137.6860 N   0  0  0  0  0  2  0  0  0  0  0  0
  184.2020  172.4270  136.9300 C   0  0  0  0  0  2  0  0  0  0  0  0
  183.2590  174.4640  136.1400 N   0  0  1  0  0  0  0  0  0  0  0  0
  183.9260  174.6540  137.4260 C   0  0  2  0  0  3  0  0  0  0  0  0
  183.0640  173.0270  136.1090 C   0  0  0  0  0  2  0  0  0  0  0  0
  181.5540  179.0860  136.7800 C   0  0  0  0  0  2  0  0  0  0  0  0
  181.9390  178.8530  138.2630 C   0  0  1  0  0  3  0  0  0  0  0  0
  183.2630  177.3280  139.7620 C   0  0  0  0  0  1  0  0  0  0  0  0
  182.1540  176.6380  136.7230 C   0  0  1  0  0  3  0  0  0  0  0  0
  183.2760  178.0760  138.4310 C   0  0  1  0  0  3  0  0  0  0  0  0
  183.5270  177.1310  137.2310 C   0  0  1  0  0  3  0  0  0  0  0  0
  181.8510  180.1200  139.1210 C   0  0  1  0  0  3  0  0  0  0  0  0
  181.5630  181.3630  138.2900 C   0  0  0  0  0  1  0  0  0  0  0  0
  180.8710  179.9820  140.1170 O   0  0  0  0  0  1  0  0  0  0  0  0
  185.8620  176.2810  136.6350 C   0  0  1  0  0  3  0  0  0  0  0  0
  186.0560  177.7680  136.3800 C   0  0  0  0  0  1  0  0  0  0  0  0
  187.4100  175.4710  137.2180 S   0  0  0  0  0  0  0  0  0  0  0  0
  191.1810  176.4750  138.6150 C   0  0  0  0  0  2  0  0  0  0  0  0
  188.4980  176.9740  137.3580 C   0  0  1  0  0  3  0  0  0  0  0  0
  189.2150  177.8760  141.5310 C   0  0  0  0  0  0  0  0  0  0  0  0
  190.2370  177.3170  140.7590 C   0  0  0  0  0  3  0  0  0  0  0  0
  190.0380  177.0460  139.3920 C   0  0  0  0  0  0  0  0  0  0  0  0
  189.7090  177.0840  135.2970 O   0  0  0  0  0  0  0  0  0  0  0  0
  187.7680  177.8780  139.5820 C   0  0  0  0  0  3  0  0  0  0  0  0
  188.7780  177.3020  138.8010 C   0  0  0  0  0  0  0  0  0  0  0  0
  187.9890  178.1810  140.9300 C   0  0  0  0  0  3  0  0  0  0  0  0
  189.7680  176.9430  136.5500 C   0  0  0  0  0  0  0  0  0  0  0  0
  191.0450  176.7520  137.1800 N   0  0  0  0  0  2  0  0  0  0  0  0
  189.4250  178.1110  142.9680 C   0  0  0  0  0  0  0  0  0  0  0  0
  188.4240  177.7870  143.8850 O   0  0  0  0  0  1  0  0  0  0  0  0
  190.5060  178.6280  143.3610 O   0  0  0  0  0  0  0  0  0  0  0  0
  1 18  1  6  0  0  0
  2  9  1  0  0  0  0
  3 12  1  0  0  0  0
  5  4  1  0  0  0  0
  6  8  1  1  0  0  0
  6  3  1  0  0  0  0
  6  7  1  0  0  0  0
  7  1  1  0  0  0  0
  7  4  1  6  0  0  0
  8  5  1  0  0  0  0
  9 10  1  0  0  0  0
 10 13  1  0  0  0  0
 10 15  1  1  0  0  0
 12  2  1  6  0  0  0
 12 14  1  0  0  0  0
 13 11  1  1  0  0  0
 14  1  1  0  0  0  0
 14 13  1  0  0  0  0
 15 17  1  0  0  0  0
 16 15  1  0  0  0  0
 18 20  1  0  0  0  0
 19 18  1  0  0  0  0
 20 22  1  0  0  0  0
 21 25  1  0  0  0  0
 22 28  1  0  0  0  0
 23 32  1  0  0  0  0
 24 23  2  0  0  0  0
 25 24  1  0  0  0  0
 26 30  2  0  0  0  0
 27 29  2  0  0  0  0
 28 25  2  0  0  0  0
 28 27  1  0  0  0  0
 29 23  1  0  0  0  0
 30 31  1  0  0  0  0
 30 22  1  0  0  0  0
 31 21  1  0  0  0  0
 32 34  2  0  0  0  0
 32 33  1  0  0  0  0
M  END
>  <MODEL>
8

>  <REMARK>
 VINA RESULT:      -6.9      3.442      6.839
  Name = 
  5 active torsions:
  status: ('A' for Active; 'I' for Inactive)
    1  A    between atoms: C_1  and  C_8
    2  A    between atoms: C_3  and  C_25
    3  A    between atoms: C_6  and  S_17
    4  A    between atoms: C_7  and  C_11
    5  A    between atoms: C_8  and  S_17
                            x       y       z     vdW  Elec       q    Type
                         _______ _______ _______ _____ _____    ______ ____

>  <TORSDO>
F 5

$$$$
=
 OpenBabel11052415533D

 34 38  0  0  1  0  0  0  0  0999 V2000
  184.0510  177.0440  137.9040 C   0  0  2  0  0  3  0  0  0  0  0  0
  181.1200  179.6750  137.9470 C   0  0  0  0  0  2  0  0  0  0  0  0
  181.6660  177.7950  136.1830 C   0  0  0  0  0  2  0  0  0  0  0  0
  184.1910  175.2110  136.1580 N   0  0  0  0  0  2  0  0  0  0  0  0
  183.6980  175.1350  134.7860 C   0  0  0  0  0  2  0  0  0  0  0  0
  182.9290  177.1860  135.7160 N   0  0  1  0  0  0  0  0  0  0  0  0
  183.3800  176.2690  136.7600 C   0  0  2  0  0  3  0  0  0  0  0  0
  182.7190  176.2890  134.5940 C   0  0  0  0  0  2  0  0  0  0  0  0
  181.2150  179.9790  139.4500 C   0  0  0  0  0  2  0  0  0  0  0  0
  181.3500  178.6750  140.2770 C   0  0  1  0  0  3  0  0  0  0  0  0
  182.3870  176.3840  140.2300 C   0  0  0  0  0  1  0  0  0  0  0  0
  181.7780  178.3310  137.6260 C   0  0  1  0  0  3  0  0  0  0  0  0
  182.6290  177.8610  139.9280 C   0  0  1  0  0  3  0  0  0  0  0  0
  183.0580  178.0960  138.4600 C   0  0  1  0  0  3  0  0  0  0  0  0
  181.1430  178.8840  141.7810 C   0  0  1  0  0  3  0  0  0  0  0  0
  182.4600  178.9500  142.5430 C   0  0  0  0  0  1  0  0  0  0  0  0
  180.4000  180.0500  142.0250 O   0  0  0  0  0  1  0  0  0  0  0  0
  185.4450  177.6680  137.6550 C   0  0  1  0  0  3  0  0  0  0  0  0
  185.4830  179.1060  138.1490 C   0  0  0  0  0  1  0  0  0  0  0  0
  186.8950  176.6940  138.2420 S   0  0  0  0  0  0  0  0  0  0  0  0
  190.2760  177.1590  140.5930 C   0  0  0  0  0  2  0  0  0  0  0  0
  187.8680  178.0640  139.0400 C   0  0  1  0  0  3  0  0  0  0  0  0
  187.7220  177.6450  143.3460 C   0  0  0  0  0  0  0  0  0  0  0  0
  188.8980  177.3280  142.6610 C   0  0  0  0  0  3  0  0  0  0  0  0
  188.9800  177.4890  141.2640 C   0  0  0  0  0  0  0  0  0  0  0  0
  189.4510  178.7720  137.3900 O   0  0  0  0  0  0  0  0  0  0  0  0
  186.6830  178.2640  141.2420 C   0  0  0  0  0  3  0  0  0  0  0  0
  187.8490  177.9340  140.5400 C   0  0  0  0  0  0  0  0  0  0  0  0
  186.6250  178.1400  142.6350 C   0  0  0  0  0  3  0  0  0  0  0  0
  189.2710  178.2570  138.5280 C   0  0  0  0  0  0  0  0  0  0  0  0
  190.4090  177.8610  139.3110 N   0  0  0  0  0  2  0  0  0  0  0  0
  187.6400  177.4290  144.7990 C   0  0  0  0  0  0  0  0  0  0  0  0
  188.7940  177.4880  145.5830 O   0  0  0  0  0  1  0  0  0  0  0  0
  186.5240  177.1680  145.3260 O   0  0  0  0  0  0  0  0  0  0  0  0
  1 18  1  6  0  0  0
  1 14  1  0  0  0  0
  2  9  1  0  0  0  0
  5  4  1  0  0  0  0
  6  8  1  6  0  0  0
  6  3  1  0  0  0  0
  6  7  1  0  0  0  0
  7  4  1  6  0  0  0
  7  1  1  0  0  0  0
  8  5  1  0  0  0  0
  9 10  1  0  0  0  0
 10 15  1  1  0  0  0
 12  3  1  6  0  0  0
 12  2  1  0  0  0  0
 12 14  1  0  0  0  0
 13 11  1  6  0  0  0
 13 10  1  0  0  0  0
 14 13  1  0  0  0  0
 15 17  1  0  0  0  0
 15 16  1  0  0  0  0
 18 19  1  0  0  0  0
 18 20  1  0  0  0  0
 20 22  1  0  0  0  0
 21 25  1  0  0  0  0
 22 28  1  0  0  0  0
 23 32  1  0  0  0  0
 24 23  1  0  0  0  0
 25 24  2  0  0  0  0
 26 30  2  0  0  0  0
 27 29  1  0  0  0  0
 28 27  2  0  0  0  0
 28 25  1  0  0  0  0
 29 23  2  0  0  0  0
 30 22  1  0  0  0  0
 30 31  1  0  0  0  0
 31 21  1  0  0  0  0
 32 34  2  0  0  0  0
 32 33  1  0  0  0  0
M  END
>  <MODEL>
9

>  <REMARK>
 VINA RESULT:      -6.6      2.907      6.321
  Name = 
  5 active torsions:
  status: ('A' for Active; 'I' for Inactive)
    1  A    between atoms: C_1  and  C_8
    2  A    between atoms: C_3  and  C_25
    3  A    between atoms: C_6  and  S_17
    4  A    between atoms: C_7  and  C_11
    5  A    between atoms: C_8  and  S_17
                            x       y       z     vdW  Elec       q    Type
                         _______ _______ _______ _____ _____    ______ ____

>  <TORSDO>
F 5

$$$$
