=
 OpenBabel11052414223D

 34 39  0  0  1  0  0  0  0  0999 V2000
  183.1720  176.3830  138.4870 C   0  0  0  0  0  0  0  0  0  0  0  0
  184.6430  178.3110  138.3010 C   0  0  0  0  0  0  0  0  0  0  0  0
  182.4680  178.5540  139.5860 C   0  0  1  0  0  3  0  0  0  0  0  0
  181.8300  178.8370  142.0260 C   0  0  0  0  0  0  0  0  0  0  0  0
  185.2790  176.1930  137.3080 C   0  0  0  0  0  3  0  0  0  0  0  0
  185.5550  177.5360  137.5780 C   0  0  0  0  0  3  0  0  0  0  0  0
  184.1820  178.6750  141.4650 C   0  0  0  0  0  3  0  0  0  0  0  0
  183.4500  177.7360  138.7730 C   0  0  0  0  0  0  0  0  0  0  0  0
  184.5140  178.8260  142.8120 C   0  0  0  0  0  3  0  0  0  0  0  0
  182.1680  178.9820  143.3740 C   0  0  0  0  0  3  0  0  0  0  0  0
  184.0860  175.6210  137.7560 C   0  0  0  0  0  3  0  0  0  0  0  0
  181.0270  178.0340  139.3820 C   0  0  2  0  0  3  0  0  0  0  0  0
  181.9190  175.8070  138.8700 N   0  0  0  0  0  2  0  0  0  0  0  0
  184.9300  179.6490  138.5450 O   0  0  0  0  0  1  0  0  0  0  0  0
  180.4500  178.8470  141.6460 N   0  0  0  0  0  2  0  0  0  0  0  0
  180.0210  178.7990  140.2490 C   0  0  1  0  0  3  0  0  0  0  0  0
  183.5070  178.9750  143.7750 C   0  0  0  0  0  0  0  0  0  0  0  0
  182.8380  178.6550  141.0570 C   0  0  0  0  0  0  0  0  0  0  0  0
  180.9560  176.5360  139.6890 C   0  0  0  0  0  2  0  0  0  0  0  0
  179.7350  181.7920  137.9140 C   0  0  0  0  0  0  0  0  0  0  0  0
  179.1880  182.7320  138.7900 C   0  0  0  0  0  3  0  0  0  0  0  0
  179.7540  180.1740  139.7140 C   0  0  0  0  0  0  0  0  0  0  0  0
  178.9330  182.3900  140.0830 N   0  0  0  0  0  0  0  0  0  0  0  0
  180.0170  180.5080  138.3790 C   0  0  0  0  0  3  0  0  0  0  0  0
  179.2010  181.1420  140.5560 C   0  0  0  0  0  3  0  0  0  0  0  0
  180.0130  182.1570  136.5010 C   0  0  0  0  0  1  0  0  0  0  0  0
  183.8210  179.1280  145.1600 N   0  0  0  0  0  2  0  0  0  0  0  0
  184.5580  178.1280  145.9180 C   0  0  0  0  0  2  0  0  0  0  0  0
  187.8510  177.8780  144.6620 C   0  0  0  0  0  1  0  0  0  0  0  0
  186.9600  177.4690  145.8190 C   0  0  2  0  0  3  0  0  0  0  0  0
  187.5430  178.4440  147.9380 N   0  0  0  0  0  2  0  0  0  0  0  0
  186.2130  178.9120  147.5840 C   0  0  0  0  0  2  0  0  0  0  0  0
  185.9910  178.5860  146.1260 C   0  0  2  0  0  3  0  0  0  0  0  0
  187.7970  177.3040  147.0710 C   0  0  0  0  0  2  0  0  0  0  0  0
  1  8  1  0  0  0  0
  1 13  1  0  0  0  0
  2 14  1  0  0  0  0
  2  8  2  0  0  0  0
  3  8  1  6  0  0  0
  3 18  1  0  0  0  0
  4 10  1  0  0  0  0
  5  6  2  0  0  0  0
  5 11  1  0  0  0  0
  6  2  1  0  0  0  0
  7  9  2  0  0  0  0
  9 17  1  0  0  0  0
 10 17  2  0  0  0  0
 11  1  2  0  0  0  0
 12  3  1  0  0  0  0
 12 19  1  1  0  0  0
 12 16  1  0  0  0  0
 13 19  1  0  0  0  0
 15  4  1  0  0  0  0
 16 22  1  6  0  0  0
 16 15  1  0  0  0  0
 17 27  1  0  0  0  0
 18  7  1  0  0  0  0
 18  4  2  0  0  0  0
 20 24  2  0  0  0  0
 20 21  1  0  0  0  0
 21 23  2  0  0  0  0
 22 25  2  0  0  0  0
 23 25  1  0  0  0  0
 24 22  1  0  0  0  0
 26 20  1  0  0  0  0
 27 28  1  0  0  0  0
 30 29  1  6  0  0  0
 30 33  1  0  0  0  0
 30 34  1  0  0  0  0
 32 31  1  0  0  0  0
 33 28  1  1  0  0  0
 33 32  1  0  0  0  0
 34 31  1  0  0  0  0
M  END
>  <MODEL>
1

>  <REMARK>
 VINA RESULT:      -8.2      0.000      0.000
  Name = 
  4 active torsions:
  status: ('A' for Active; 'I' for Inactive)
    1  A    between atoms: N_3  and  C_13
    2  A    between atoms: N_3  and  C_29
    3  A    between atoms: C_12  and  C_28
    4  A    between atoms: C_13  and  C_33
                            x       y       z     vdW  Elec       q    Type
                         _______ _______ _______ _____ _____    ______ ____

>  <TORSDO>
F 4

$$$$
=
 OpenBabel11052414223D

 34 39  0  0  1  0  0  0  0  0999 V2000
  185.3520  175.9370  137.1950 C   0  0  0  0  0  0  0  0  0  0  0  0
  186.6380  177.9940  137.0190 C   0  0  0  0  0  0  0  0  0  0  0  0
  184.3520  178.0730  138.1190 C   0  0  1  0  0  3  0  0  0  0  0  0
  183.4930  178.4010  140.4850 C   0  0  0  0  0  0  0  0  0  0  0  0
  187.5560  175.9090  136.1920 C   0  0  0  0  0  3  0  0  0  0  0  0
  187.6770  177.2840  136.4100 C   0  0  0  0  0  3  0  0  0  0  0  0
  185.8870  178.4530  140.1140 C   0  0  0  0  0  3  0  0  0  0  0  0
  185.4720  177.3230  137.4280 C   0  0  0  0  0  0  0  0  0  0  0  0
  186.0920  178.6980  141.4730 C   0  0  0  0  0  3  0  0  0  0  0  0
  183.7050  178.6410  141.8450 C   0  0  0  0  0  3  0  0  0  0  0  0
  186.3920  175.2390  136.5770 C   0  0  0  0  0  3  0  0  0  0  0  0
  182.9900  177.4000  137.8340 C   0  0  2  0  0  3  0  0  0  0  0  0
  184.1340  175.2550  137.5110 N   0  0  0  0  0  2  0  0  0  0  0  0
  186.7720  179.3640  137.2120 O   0  0  0  0  0  1  0  0  0  0  0  0
  182.1540  178.2530  140.0000 N   0  0  0  0  0  2  0  0  0  0  0  0
  181.8470  178.0980  138.5790 C   0  0  1  0  0  3  0  0  0  0  0  0
  185.0010  178.7880  142.3460 C   0  0  0  0  0  0  0  0  0  0  0  0
  184.5900  178.2790  139.6060 C   0  0  0  0  0  0  0  0  0  0  0  0
  183.0410  175.9190  138.2130 C   0  0  0  0  0  2  0  0  0  0  0  0
  180.7970  180.7510  136.0590 C   0  0  0  0  0  0  0  0  0  0  0  0
  180.8020  181.8810  136.8800 C   0  0  0  0  0  3  0  0  0  0  0  0
  181.4910  179.4130  137.9530 C   0  0  0  0  0  0  0  0  0  0  0  0
  181.1390  181.7670  138.1930 N   0  0  0  0  0  0  0  0  0  0  0  0
  181.1420  179.5130  136.5990 C   0  0  0  0  0  3  0  0  0  0  0  0
  181.4780  180.5670  138.7400 C   0  0  0  0  0  3  0  0  0  0  0  0
  180.4260  180.8670  134.6250 C   0  0  0  0  0  1  0  0  0  0  0  0
  185.1850  179.0340  143.7410 N   0  0  0  0  0  2  0  0  0  0  0  0
  185.5650  177.9940  144.6850 C   0  0  0  0  0  2  0  0  0  0  0  0
  189.0680  177.9530  145.1400 C   0  0  0  0  0  1  0  0  0  0  0  0
  187.7650  177.4290  145.7110 C   0  0  2  0  0  3  0  0  0  0  0  0
  187.2100  178.2640  147.8960 N   0  0  0  0  0  2  0  0  0  0  0  0
  186.1780  178.7100  146.9730 C   0  0  0  0  0  2  0  0  0  0  0  0
  186.6950  178.4850  145.5720 C   0  0  2  0  0  3  0  0  0  0  0  0
  187.9180  177.2010  147.2010 C   0  0  0  0  0  2  0  0  0  0  0  0
  1  8  1  0  0  0  0
  1 13  1  0  0  0  0
  2 14  1  0  0  0  0
  2  8  2  0  0  0  0
  3  8  1  1  0  0  0
  3 18  1  0  0  0  0
  4 10  1  0  0  0  0
  5  6  2  0  0  0  0
  5 11  1  0  0  0  0
  6  2  1  0  0  0  0
  7  9  2  0  0  0  0
  9 17  1  0  0  0  0
 10 17  2  0  0  0  0
 11  1  2  0  0  0  0
 12  3  1  0  0  0  0
 12 19  1  1  0  0  0
 12 16  1  0  0  0  0
 13 19  1  0  0  0  0
 15  4  1  0  0  0  0
 16 22  1  6  0  0  0
 16 15  1  0  0  0  0
 17 27  1  0  0  0  0
 18  7  1  0  0  0  0
 18  4  2  0  0  0  0
 20 24  2  0  0  0  0
 20 21  1  0  0  0  0
 21 23  2  0  0  0  0
 22 25  2  0  0  0  0
 23 25  1  0  0  0  0
 24 22  1  0  0  0  0
 26 20  1  0  0  0  0
 27 28  1  0  0  0  0
 30 29  1  1  0  0  0
 30 34  1  0  0  0  0
 32 31  1  0  0  0  0
 33 28  1  6  0  0  0
 33 30  1  0  0  0  0
 33 32  1  0  0  0  0
 34 31  1  0  0  0  0
M  END
>  <MODEL>
2

>  <REMARK>
 VINA RESULT:      -7.8      1.656      2.229
  Name = 
  4 active torsions:
  status: ('A' for Active; 'I' for Inactive)
    1  A    between atoms: N_3  and  C_13
    2  A    between atoms: N_3  and  C_29
    3  A    between atoms: C_12  and  C_28
    4  A    between atoms: C_13  and  C_33
                            x       y       z     vdW  Elec       q    Type
                         _______ _______ _______ _____ _____    ______ ____

>  <TORSDO>
F 4

$$$$
=
 OpenBabel11052414223D

 34 39  0  0  1  0  0  0  0  0999 V2000
  189.4660  175.5140  135.6510 C   0  0  0  0  0  0  0  0  0  0  0  0
  188.2280  173.7170  136.7250 C   0  0  0  0  0  0  0  0  0  0  0  0
  188.3010  175.9900  137.8500 C   0  0  1  0  0  3  0  0  0  0  0  0
  186.6340  177.8580  138.2660 C   0  0  0  0  0  0  0  0  0  0  0  0
  189.3290  173.3380  134.5990 C   0  0  0  0  0  3  0  0  0  0  0  0
  188.5520  172.8690  135.6610 C   0  0  0  0  0  3  0  0  0  0  0  0
  185.8720  175.8760  137.0980 C   0  0  0  0  0  3  0  0  0  0  0  0
  188.6720  175.0510  136.7210 C   0  0  0  0  0  0  0  0  0  0  0  0
  184.5880  176.4170  137.0160 C   0  0  0  0  0  3  0  0  0  0  0  0
  185.3480  178.3970  138.1770 C   0  0  0  0  0  3  0  0  0  0  0  0
  189.7910  174.6550  134.5980 C   0  0  0  0  0  3  0  0  0  0  0  0
  189.3920  177.0690  138.0400 C   0  0  2  0  0  3  0  0  0  0  0  0
  190.0110  176.8370  135.6780 N   0  0  0  0  0  2  0  0  0  0  0  0
  187.4670  173.2250  137.7790 O   0  0  0  0  0  1  0  0  0  0  0  0
  187.6650  178.6120  138.9100 N   0  0  0  0  0  2  0  0  0  0  0  0
  189.0080  178.0760  139.1290 C   0  0  1  0  0  3  0  0  0  0  0  0
  184.3210  177.6840  137.5520 C   0  0  0  0  0  0  0  0  0  0  0  0
  186.9150  176.5960  137.7010 C   0  0  0  0  0  0  0  0  0  0  0  0
  189.6540  177.7950  136.7190 C   0  0  0  0  0  2  0  0  0  0  0  0
  188.3120  177.0990  142.7420 C   0  0  0  0  0  0  0  0  0  0  0  0
  189.4520  176.3390  143.0120 C   0  0  0  0  0  3  0  0  0  0  0  0
  189.1440  177.4920  140.5030 C   0  0  0  0  0  0  0  0  0  0  0  0
  190.3980  176.1660  142.0490 N   0  0  0  0  0  0  0  0  0  0  0  0
  188.1580  177.6760  141.4820 C   0  0  0  0  0  3  0  0  0  0  0  0
  190.2660  176.7200  140.8130 C   0  0  0  0  0  3  0  0  0  0  0  0
  187.2730  177.2890  143.7870 C   0  0  0  0  0  1  0  0  0  0  0  0
  183.0160  178.2600  137.4780 N   0  0  0  0  0  2  0  0  0  0  0  0
  181.9790  177.9990  138.4660 C   0  0  0  0  0  2  0  0  0  0  0  0
  183.6890  178.6300  141.4930 C   0  0  0  0  0  1  0  0  0  0  0  0
  182.3420  178.2320  140.9200 C   0  0  2  0  0  3  0  0  0  0  0  0
  180.5890  179.8450  141.2490 N   0  0  0  0  0  2  0  0  0  0  0  0
  180.8040  179.7070  139.8180 C   0  0  0  0  0  2  0  0  0  0  0  0
  182.1090  178.9720  139.6240 C   0  0  2  0  0  3  0  0  0  0  0  0
  181.2390  178.6920  141.8520 C   0  0  0  0  0  2  0  0  0  0  0  0
  1 13  1  0  0  0  0
  1  8  1  0  0  0  0
  2 14  1  0  0  0  0
  3  8  1  6  0  0  0
  3 12  1  0  0  0  0
  4 15  1  0  0  0  0
  5  6  2  0  0  0  0
  6  2  1  0  0  0  0
  7 18  1  0  0  0  0
  8  2  2  0  0  0  0
  9  7  2  0  0  0  0
  9 17  1  0  0  0  0
 10  4  1  0  0  0  0
 11  5  1  0  0  0  0
 11  1  2  0  0  0  0
 12 19  1  6  0  0  0
 12 16  1  0  0  0  0
 13 19  1  0  0  0  0
 15 16  1  0  0  0  0
 16 22  1  1  0  0  0
 17 10  2  0  0  0  0
 18  3  1  0  0  0  0
 18  4  2  0  0  0  0
 20 21  1  0  0  0  0
 20 26  1  0  0  0  0
 22 25  2  0  0  0  0
 22 24  1  0  0  0  0
 23 21  2  0  0  0  0
 24 20  2  0  0  0  0
 25 23  1  0  0  0  0
 27 17  1  0  0  0  0
 27 28  1  0  0  0  0
 30 29  1  1  0  0  0
 30 34  1  0  0  0  0
 31 34  1  0  0  0  0
 32 31  1  0  0  0  0
 33 28  1  6  0  0  0
 33 32  1  0  0  0  0
 33 30  1  0  0  0  0
M  END
>  <MODEL>
3

>  <REMARK>
 VINA RESULT:      -7.2      3.809      8.297
  Name = 
  4 active torsions:
  status: ('A' for Active; 'I' for Inactive)
    1  A    between atoms: N_3  and  C_13
    2  A    between atoms: N_3  and  C_29
    3  A    between atoms: C_12  and  C_28
    4  A    between atoms: C_13  and  C_33
                            x       y       z     vdW  Elec       q    Type
                         _______ _______ _______ _____ _____    ______ ____

>  <TORSDO>
F 4

$$$$
=
 OpenBabel11052414223D

 34 39  0  0  1  0  0  0  0  0999 V2000
  185.5500  175.7110  137.1560 C   0  0  0  0  0  0  0  0  0  0  0  0
  186.6580  177.8710  137.0020 C   0  0  0  0  0  0  0  0  0  0  0  0
  184.2040  177.8000  137.6440 C   0  0  1  0  0  3  0  0  0  0  0  0
  182.8740  178.2410  139.7600 C   0  0  0  0  0  0  0  0  0  0  0  0
  187.9010  175.8320  136.5880 C   0  0  0  0  0  3  0  0  0  0  0  0
  187.8550  177.2250  136.6760 C   0  0  0  0  0  3  0  0  0  0  0  0
  185.2800  178.5180  139.8370 C   0  0  0  0  0  3  0  0  0  0  0  0
  185.4990  177.1170  137.2580 C   0  0  0  0  0  0  0  0  0  0  0  0
  185.1930  178.9030  141.1760 C   0  0  0  0  0  3  0  0  0  0  0  0
  182.7940  178.6220  141.1020 C   0  0  0  0  0  3  0  0  0  0  0  0
  186.7490  175.0770  136.8200 C   0  0  0  0  0  3  0  0  0  0  0  0
  182.9890  176.9630  137.1850 C   0  0  2  0  0  3  0  0  0  0  0  0
  184.3600  174.9330  137.3120 N   0  0  0  0  0  2  0  0  0  0  0  0
  186.6300  179.2590  137.0690 O   0  0  0  0  0  1  0  0  0  0  0  0
  181.6740  177.9080  139.0550 N   0  0  0  0  0  2  0  0  0  0  0  0
  181.6650  177.5970  137.6260 C   0  0  1  0  0  3  0  0  0  0  0  0
  183.9480  178.9510  141.8170 C   0  0  0  0  0  0  0  0  0  0  0  0
  184.1270  178.1610  139.1190 C   0  0  0  0  0  0  0  0  0  0  0  0
  183.0960  175.5340  137.7240 C   0  0  0  0  0  2  0  0  0  0  0  0
  180.8080  181.1610  136.5990 C   0  0  0  0  0  0  0  0  0  0  0  0
  180.7370  181.0030  135.2130 C   0  0  0  0  0  3  0  0  0  0  0  0
  181.3230  178.8050  136.8070 C   0  0  0  0  0  0  0  0  0  0  0  0
  180.9570  179.7820  134.6550 N   0  0  0  0  0  0  0  0  0  0  0  0
  181.1040  180.0570  137.3970 C   0  0  0  0  0  3  0  0  0  0  0  0
  181.2480  178.6920  135.4170 C   0  0  0  0  0  3  0  0  0  0  0  0
  180.5730  182.4920  137.2160 C   0  0  0  0  0  1  0  0  0  0  0  0
  183.8340  179.3390  143.1870 N   0  0  0  0  0  2  0  0  0  0  0  0
  184.9870  179.6510  144.0190 C   0  0  0  0  0  2  0  0  0  0  0  0
  184.9230  178.2530  147.2630 C   0  0  0  0  0  1  0  0  0  0  0  0
  185.8450  178.8480  146.2170 C   0  0  2  0  0  3  0  0  0  0  0  0
  187.4380  177.3090  145.2820 N   0  0  0  0  0  2  0  0  0  0  0  0
  186.5660  177.7540  144.2070 C   0  0  0  0  0  2  0  0  0  0  0  0
  185.3760  178.4350  144.8420 C   0  0  2  0  0  3  0  0  0  0  0  0
  187.2310  178.2550  146.3670 C   0  0  0  0  0  2  0  0  0  0  0  0
  1  8  1  0  0  0  0
  1 13  1  0  0  0  0
  2 14  1  0  0  0  0
  2  8  2  0  0  0  0
  3  8  1  1  0  0  0
  3 18  1  0  0  0  0
  4 10  1  0  0  0  0
  5  6  2  0  0  0  0
  5 11  1  0  0  0  0
  6  2  1  0  0  0  0
  7  9  2  0  0  0  0
  9 17  1  0  0  0  0
 10 17  2  0  0  0  0
 11  1  2  0  0  0  0
 12 16  1  0  0  0  0
 12  3  1  0  0  0  0
 12 19  1  1  0  0  0
 13 19  1  0  0  0  0
 15  4  1  0  0  0  0
 16 22  1  6  0  0  0
 16 15  1  0  0  0  0
 17 27  1  0  0  0  0
 18  4  2  0  0  0  0
 18  7  1  0  0  0  0
 20 26  1  0  0  0  0
 20 24  1  0  0  0  0
 21 20  2  0  0  0  0
 22 24  2  0  0  0  0
 23 21  1  0  0  0  0
 23 25  2  0  0  0  0
 25 22  1  0  0  0  0
 27 28  1  0  0  0  0
 30 34  1  0  0  0  0
 30 29  1  1  0  0  0
 31 34  1  0  0  0  0
 32 33  1  0  0  0  0
 32 31  1  0  0  0  0
 33 28  1  6  0  0  0
 33 30  1  0  0  0  0
M  END
>  <MODEL>
4

>  <REMARK>
 VINA RESULT:      -7.2      2.004      2.976
  Name = 
  4 active torsions:
  status: ('A' for Active; 'I' for Inactive)
    1  A    between atoms: N_3  and  C_13
    2  A    between atoms: N_3  and  C_29
    3  A    between atoms: C_12  and  C_28
    4  A    between atoms: C_13  and  C_33
                            x       y       z     vdW  Elec       q    Type
                         _______ _______ _______ _____ _____    ______ ____

>  <TORSDO>
F 4

$$$$
=
 OpenBabel11052414223D

 34 39  0  0  1  0  0  0  0  0999 V2000
  180.4140  180.4940  140.0700 C   0  0  0  0  0  0  0  0  0  0  0  0
  180.2970  178.7530  141.7640 C   0  0  0  0  0  0  0  0  0  0  0  0
  181.8960  178.4560  139.8170 C   0  0  1  0  0  3  0  0  0  0  0  0
  184.4170  178.4880  139.5250 C   0  0  0  0  0  0  0  0  0  0  0  0
  178.9350  180.7470  141.9710 C   0  0  0  0  0  3  0  0  0  0  0  0
  179.3500  179.5070  142.4640 C   0  0  0  0  0  3  0  0  0  0  0  0
  183.5130  178.8420  141.7450 C   0  0  0  0  0  3  0  0  0  0  0  0
  180.8460  179.2470  140.5680 C   0  0  0  0  0  0  0  0  0  0  0  0
  184.8070  178.9480  142.2560 C   0  0  0  0  0  3  0  0  0  0  0  0
  185.7110  178.6010  140.0410 C   0  0  0  0  0  3  0  0  0  0  0  0
  179.4600  181.2350  140.7720 C   0  0  0  0  0  3  0  0  0  0  0  0
  181.8260  178.7590  138.3030 C   0  0  2  0  0  3  0  0  0  0  0  0
  180.8840  180.9680  138.8050 N   0  0  0  0  0  2  0  0  0  0  0  0
  180.6840  177.5150  142.2650 O   0  0  0  0  0  1  0  0  0  0  0  0
  184.2410  178.2520  138.1240 N   0  0  0  0  0  2  0  0  0  0  0  0
  182.9250  178.0250  137.5270 C   0  0  1  0  0  3  0  0  0  0  0  0
  185.9140  178.8330  141.4040 C   0  0  0  0  0  0  0  0  0  0  0  0
  183.3000  178.6340  140.3730 C   0  0  0  0  0  0  0  0  0  0  0  0
  181.9240  180.2670  138.0590 C   0  0  0  0  0  2  0  0  0  0  0  0
  183.3210  174.2400  137.4200 C   0  0  0  0  0  0  0  0  0  0  0  0
  181.9990  173.8650  137.1740 C   0  0  0  0  0  3  0  0  0  0  0  0
  182.6330  176.5610  137.3930 C   0  0  0  0  0  0  0  0  0  0  0  0
  181.0340  174.8160  137.0460 N   0  0  0  0  0  0  0  0  0  0  0  0
  183.6370  175.5940  137.5320 C   0  0  0  0  0  3  0  0  0  0  0  0
  181.3220  176.1420  137.1520 C   0  0  0  0  0  3  0  0  0  0  0  0
  184.3800  173.2080  137.5640 C   0  0  0  0  0  1  0  0  0  0  0  0
  187.2480  178.9410  141.9020 N   0  0  0  0  0  2  0  0  0  0  0  0
  188.2740  177.9430  141.6370 C   0  0  0  0  0  2  0  0  0  0  0  0
  187.0440  177.2390  144.8740 C   0  0  0  0  0  1  0  0  0  0  0  0
  188.2360  177.8020  144.1250 C   0  0  2  0  0  3  0  0  0  0  0  0
  190.2480  176.4970  144.3020 N   0  0  0  0  0  2  0  0  0  0  0  0
  189.8520  176.5160  142.9030 C   0  0  0  0  0  2  0  0  0  0  0  0
  188.4330  177.0320  142.8410 C   0  0  2  0  0  3  0  0  0  0  0  0
  189.4970  177.5720  144.9330 C   0  0  0  0  0  2  0  0  0  0  0  0
  1  8  2  0  0  0  0
  1 11  1  0  0  0  0
  2 14  1  0  0  0  0
  2  6  2  0  0  0  0
  3 18  1  1  0  0  0
  3  8  1  0  0  0  0
  4 10  2  0  0  0  0
  4 18  1  0  0  0  0
  5  6  1  0  0  0  0
  7  9  1  0  0  0  0
  8  2  1  0  0  0  0
 10 17  1  0  0  0  0
 11  5  2  0  0  0  0
 12 19  1  1  0  0  0
 12  3  1  0  0  0  0
 13  1  1  0  0  0  0
 15  4  1  0  0  0  0
 16 22  1  1  0  0  0
 16 15  1  0  0  0  0
 16 12  1  0  0  0  0
 17 27  1  0  0  0  0
 17  9  2  0  0  0  0
 18  7  2  0  0  0  0
 19 13  1  0  0  0  0
 20 24  1  0  0  0  0
 20 26  1  0  0  0  0
 21 20  2  0  0  0  0
 22 24  2  0  0  0  0
 23 25  2  0  0  0  0
 23 21  1  0  0  0  0
 25 22  1  0  0  0  0
 28 27  1  0  0  0  0
 30 29  1  1  0  0  0
 30 34  1  0  0  0  0
 31 34  1  0  0  0  0
 32 31  1  0  0  0  0
 33 28  1  6  0  0  0
 33 32  1  0  0  0  0
 33 30  1  0  0  0  0
M  END
>  <MODEL>
5

>  <REMARK>
 VINA RESULT:      -7.1      2.420      5.551
  Name = 
  4 active torsions:
  status: ('A' for Active; 'I' for Inactive)
    1  A    between atoms: N_3  and  C_13
    2  A    between atoms: N_3  and  C_29
    3  A    between atoms: C_12  and  C_28
    4  A    between atoms: C_13  and  C_33
                            x       y       z     vdW  Elec       q    Type
                         _______ _______ _______ _____ _____    ______ ____

>  <TORSDO>
F 4

$$$$
=
 OpenBabel11052414223D

 34 39  0  0  1  0  0  0  0  0999 V2000
  181.1950  180.4310  139.5540 C   0  0  0  0  0  0  0  0  0  0  0  0
  180.4410  178.3700  140.6030 C   0  0  0  0  0  0  0  0  0  0  0  0
  182.8370  178.5150  139.7780 C   0  0  1  0  0  3  0  0  0  0  0  0
  185.1220  178.6470  140.8730 C   0  0  0  0  0  0  0  0  0  0  0  0
  178.9310  180.2540  140.3960 C   0  0  0  0  0  3  0  0  0  0  0  0
  179.1840  178.9450  140.8130 C   0  0  0  0  0  3  0  0  0  0  0  0
  183.1700  178.5100  142.3020 C   0  0  0  0  0  3  0  0  0  0  0  0
  181.4610  179.1140  139.9830 C   0  0  0  0  0  0  0  0  0  0  0  0
  183.9930  178.5260  143.4290 C   0  0  0  0  0  3  0  0  0  0  0  0
  185.9410  178.6680  142.0050 C   0  0  0  0  0  3  0  0  0  0  0  0
  179.9320  180.9920  139.7610 C   0  0  0  0  0  3  0  0  0  0  0  0
  183.5180  179.1300  138.5340 C   0  0  2  0  0  3  0  0  0  0  0  0
  182.1860  181.1680  138.8320 N   0  0  0  0  0  2  0  0  0  0  0  0
  180.6670  177.0600  141.0120 O   0  0  0  0  0  1  0  0  0  0  0  0
  185.7220  178.7090  139.5750 N   0  0  0  0  0  2  0  0  0  0  0  0
  184.9400  178.5930  138.3440 C   0  0  1  0  0  3  0  0  0  0  0  0
  185.3840  178.6110  143.2850 C   0  0  0  0  0  0  0  0  0  0  0  0
  183.7200  178.5940  141.0130 C   0  0  0  0  0  0  0  0  0  0  0  0
  183.5390  180.6560  138.6420 C   0  0  0  0  0  2  0  0  0  0  0  0
  183.8000  175.1560  137.1700 C   0  0  0  0  0  0  0  0  0  0  0  0
  185.0310  174.5980  136.8210 C   0  0  0  0  0  3  0  0  0  0  0  0
  184.9430  177.1860  137.8280 C   0  0  0  0  0  0  0  0  0  0  0  0
  186.1740  175.3210  136.9730 N   0  0  0  0  0  0  0  0  0  0  0  0
  183.7570  176.4560  137.6730 C   0  0  0  0  0  3  0  0  0  0  0  0
  186.1530  176.5920  137.4620 C   0  0  0  0  0  3  0  0  0  0  0  0
  182.5470  174.3740  137.0040 C   0  0  0  0  0  1  0  0  0  0  0  0
  186.2480  178.6310  144.4230 N   0  0  0  0  0  2  0  0  0  0  0  0
  186.3500  177.5210  145.3580 C   0  0  0  0  0  2  0  0  0  0  0  0
  189.2940  177.1430  147.2760 C   0  0  0  0  0  1  0  0  0  0  0  0
  188.7070  177.8780  146.0860 C   0  0  2  0  0  3  0  0  0  0  0  0
  189.6810  177.3060  143.9640 N   0  0  0  0  0  2  0  0  0  0  0  0
  188.2790  176.9230  143.9270 C   0  0  0  0  0  2  0  0  0  0  0  0
  187.7620  176.9610  145.3460 C   0  0  2  0  0  3  0  0  0  0  0  0
  189.8080  178.2060  145.0990 C   0  0  0  0  0  2  0  0  0  0  0  0
  1 11  2  0  0  0  0
  1  8  1  0  0  0  0
  2  6  1  0  0  0  0
  2 14  1  0  0  0  0
  3  8  1  1  0  0  0
  3 18  1  0  0  0  0
  4 18  2  0  0  0  0
  4 10  1  0  0  0  0
  5  6  2  0  0  0  0
  7  9  2  0  0  0  0
  8  2  2  0  0  0  0
 10 17  2  0  0  0  0
 11  5  1  0  0  0  0
 12 19  1  1  0  0  0
 12  3  1  0  0  0  0
 13  1  1  0  0  0  0
 15  4  1  0  0  0  0
 16 22  1  1  0  0  0
 16 12  1  0  0  0  0
 16 15  1  0  0  0  0
 17  9  1  0  0  0  0
 17 27  1  0  0  0  0
 18  7  1  0  0  0  0
 19 13  1  0  0  0  0
 20 24  1  0  0  0  0
 21 23  1  0  0  0  0
 21 20  2  0  0  0  0
 23 25  2  0  0  0  0
 24 22  2  0  0  0  0
 25 22  1  0  0  0  0
 26 20  1  0  0  0  0
 27 28  1  0  0  0  0
 30 29  1  1  0  0  0
 31 34  1  0  0  0  0
 32 31  1  0  0  0  0
 32 33  1  0  0  0  0
 33 28  1  6  0  0  0
 33 30  1  0  0  0  0
 34 30  1  0  0  0  0
M  END
>  <MODEL>
6

>  <REMARK>
 VINA RESULT:      -7.0      2.194      5.382
  Name = 
  4 active torsions:
  status: ('A' for Active; 'I' for Inactive)
    1  A    between atoms: N_3  and  C_13
    2  A    between atoms: N_3  and  C_29
    3  A    between atoms: C_12  and  C_28
    4  A    between atoms: C_13  and  C_33
                            x       y       z     vdW  Elec       q    Type
                         _______ _______ _______ _____ _____    ______ ____

>  <TORSDO>
F 4

$$$$
=
 OpenBabel11052414223D

 34 39  0  0  1  0  0  0  0  0999 V2000
  189.4220  175.7500  135.7080 C   0  0  0  0  0  0  0  0  0  0  0  0
  188.2920  173.8460  136.7140 C   0  0  0  0  0  0  0  0  0  0  0  0
  188.2040  176.0870  137.9030 C   0  0  1  0  0  3  0  0  0  0  0  0
  186.4130  177.8300  138.3490 C   0  0  0  0  0  0  0  0  0  0  0  0
  189.4390  173.6000  134.5940 C   0  0  0  0  0  3  0  0  0  0  0  0
  188.6820  173.0520  135.6320 C   0  0  0  0  0  3  0  0  0  0  0  0
  185.7960  175.8370  137.1160 C   0  0  0  0  0  3  0  0  0  0  0  0
  188.6480  175.2060  136.7540 C   0  0  0  0  0  0  0  0  0  0  0  0
  184.4800  176.2950  137.0330 C   0  0  0  0  0  3  0  0  0  0  0  0
  185.0960  178.2860  138.2580 C   0  0  0  0  0  3  0  0  0  0  0  0
  189.8140  174.9450  134.6360 C   0  0  0  0  0  3  0  0  0  0  0  0
  189.2190  177.2280  138.1370 C   0  0  2  0  0  3  0  0  0  0  0  0
  189.8790  177.1040  135.7780 N   0  0  0  0  0  2  0  0  0  0  0  0
  187.5520  173.2770  137.7450 O   0  0  0  0  0  1  0  0  0  0  0  0
  187.3860  178.6310  139.0270 N   0  0  0  0  0  2  0  0  0  0  0  0
  188.7580  178.1770  139.2490 C   0  0  1  0  0  3  0  0  0  0  0  0
  184.1250  177.5270  137.6000 C   0  0  0  0  0  0  0  0  0  0  0  0
  186.7830  176.6060  137.7530 C   0  0  0  0  0  0  0  0  0  0  0  0
  189.4490  178.0070  136.8400 C   0  0  0  0  0  2  0  0  0  0  0  0
  188.1380  177.1530  142.8630 C   0  0  0  0  0  0  0  0  0  0  0  0
  189.2630  176.3570  143.0860 C   0  0  0  0  0  3  0  0  0  0  0  0
  188.9170  177.5640  140.6080 C   0  0  0  0  0  0  0  0  0  0  0  0
  190.1760  176.1750  142.0940 N   0  0  0  0  0  0  0  0  0  0  0  0
  187.9650  177.7570  141.6180 C   0  0  0  0  0  3  0  0  0  0  0  0
  190.0250  176.7550  140.8710 C   0  0  0  0  0  3  0  0  0  0  0  0
  187.1350  177.3540  143.9410 C   0  0  0  0  0  1  0  0  0  0  0  0
  182.7860  178.0190  137.5250 N   0  0  0  0  0  2  0  0  0  0  0  0
  181.8710  177.9960  138.6570 C   0  0  0  0  0  2  0  0  0  0  0  0
  180.3730  180.2350  136.3710 C   0  0  0  0  0  1  0  0  0  0  0  0
  181.3270  180.1600  137.5470 C   0  0  2  0  0  3  0  0  0  0  0  0
  180.5530  181.2450  139.5480 N   0  0  0  0  0  2  0  0  0  0  0  0
  180.6970  179.8270  139.8380 C   0  0  0  0  0  2  0  0  0  0  0  0
  180.8470  179.1080  138.5180 C   0  0  2  0  0  3  0  0  0  0  0  0
  181.2910  181.4660  138.3150 C   0  0  0  0  0  2  0  0  0  0  0  0
  1 13  1  0  0  0  0
  1  8  1  0  0  0  0
  2  8  2  0  0  0  0
  2 14  1  0  0  0  0
  3  8  1  6  0  0  0
  3 12  1  0  0  0  0
  4 15  1  0  0  0  0
  5 11  1  0  0  0  0
  5  6  2  0  0  0  0
  6  2  1  0  0  0  0
  7 18  1  0  0  0  0
  9  7  2  0  0  0  0
  9 17  1  0  0  0  0
 10  4  1  0  0  0  0
 11  1  2  0  0  0  0
 12 19  1  6  0  0  0
 12 16  1  0  0  0  0
 13 19  1  0  0  0  0
 15 16  1  0  0  0  0
 16 22  1  1  0  0  0
 17 10  2  0  0  0  0
 18  3  1  0  0  0  0
 18  4  2  0  0  0  0
 20 21  1  0  0  0  0
 20 26  1  0  0  0  0
 22 25  2  0  0  0  0
 22 24  1  0  0  0  0
 23 21  2  0  0  0  0
 24 20  2  0  0  0  0
 25 23  1  0  0  0  0
 27 17  1  0  0  0  0
 27 28  1  0  0  0  0
 30 29  1  6  0  0  0
 30 34  1  0  0  0  0
 30 33  1  0  0  0  0
 31 32  1  0  0  0  0
 33 28  1  1  0  0  0
 33 32  1  0  0  0  0
 34 31  1  0  0  0  0
M  END
>  <MODEL>
7

>  <REMARK>
 VINA RESULT:      -6.6      3.765      8.696
  Name = 
  4 active torsions:
  status: ('A' for Active; 'I' for Inactive)
    1  A    between atoms: N_3  and  C_13
    2  A    between atoms: N_3  and  C_29
    3  A    between atoms: C_12  and  C_28
    4  A    between atoms: C_13  and  C_33
                            x       y       z     vdW  Elec       q    Type
                         _______ _______ _______ _____ _____    ______ ____

>  <TORSDO>
F 4

$$$$
=
 OpenBabel11052414223D

 34 39  0  0  1  0  0  0  0  0999 V2000
  189.6840  175.6990  135.6860 C   0  0  0  0  0  0  0  0  0  0  0  0
  188.5190  173.8000  136.6630 C   0  0  0  0  0  0  0  0  0  0  0  0
  188.3750  176.0520  137.8260 C   0  0  1  0  0  3  0  0  0  0  0  0
  186.5620  177.7920  138.1810 C   0  0  0  0  0  0  0  0  0  0  0  0
  189.7540  173.5390  134.5940 C   0  0  0  0  0  3  0  0  0  0  0  0
  188.9570  172.9970  135.6050 C   0  0  0  0  0  3  0  0  0  0  0  0
  186.0020  175.7860  136.9420 C   0  0  0  0  0  3  0  0  0  0  0  0
  188.8690  175.1620  136.7040 C   0  0  0  0  0  0  0  0  0  0  0  0
  184.6900  176.2390  136.8010 C   0  0  0  0  0  3  0  0  0  0  0  0
  185.2480  178.2430  138.0310 C   0  0  0  0  0  3  0  0  0  0  0  0
  190.1230  174.8850  134.6380 C   0  0  0  0  0  3  0  0  0  0  0  0
  189.3770  177.1990  138.0910 C   0  0  2  0  0  3  0  0  0  0  0  0
  190.1340  177.0550  135.7620 N   0  0  0  0  0  2  0  0  0  0  0  0
  187.7390  173.2380  137.6660 O   0  0  0  0  0  1  0  0  0  0  0  0
  187.5040  178.6030  138.8910 N   0  0  0  0  0  2  0  0  0  0  0  0
  188.8670  178.1550  139.1740 C   0  0  1  0  0  3  0  0  0  0  0  0
  184.3080  177.4740  137.3410 C   0  0  0  0  0  0  0  0  0  0  0  0
  186.9600  176.5640  137.6120 C   0  0  0  0  0  0  0  0  0  0  0  0
  189.6570  177.9670  136.7970 C   0  0  0  0  0  2  0  0  0  0  0  0
  188.1060  177.1730  142.7720 C   0  0  0  0  0  0  0  0  0  0  0  0
  189.2170  176.3720  143.0450 C   0  0  0  0  0  3  0  0  0  0  0  0
  188.9710  177.5560  140.5440 C   0  0  0  0  0  0  0  0  0  0  0  0
  190.1650  176.1740  142.0890 N   0  0  0  0  0  0  0  0  0  0  0  0
  187.9840  177.7650  141.5160 C   0  0  0  0  0  3  0  0  0  0  0  0
  190.0630  176.7430  140.8560 C   0  0  0  0  0  3  0  0  0  0  0  0
  187.0650  177.3900  143.8100 C   0  0  0  0  0  1  0  0  0  0  0  0
  182.9720  177.9610  137.2060 N   0  0  0  0  0  2  0  0  0  0  0  0
  182.3190  178.7700  138.2250 C   0  0  0  0  0  2  0  0  0  0  0  0
  180.5340  177.9000  141.1480 C   0  0  0  0  0  1  0  0  0  0  0  0
  181.3910  177.3290  140.0350 C   0  0  2  0  0  3  0  0  0  0  0  0
  180.2470  175.8220  138.5510 N   0  0  0  0  0  2  0  0  0  0  0  0
  180.6810  176.9700  137.7710 C   0  0  0  0  0  2  0  0  0  0  0  0
  181.0860  178.0520  138.7450 C   0  0  2  0  0  3  0  0  0  0  0  0
  181.0070  175.8840  139.7890 C   0  0  0  0  0  2  0  0  0  0  0  0
  1 13  1  0  0  0  0
  1  8  1  0  0  0  0
  2  8  2  0  0  0  0
  2 14  1  0  0  0  0
  3  8  1  6  0  0  0
  3 12  1  0  0  0  0
  4 15  1  0  0  0  0
  5 11  1  0  0  0  0
  5  6  2  0  0  0  0
  6  2  1  0  0  0  0
  7 18  1  0  0  0  0
  9  7  2  0  0  0  0
  9 17  1  0  0  0  0
 10  4  1  0  0  0  0
 11  1  2  0  0  0  0
 12 19  1  6  0  0  0
 12 16  1  0  0  0  0
 13 19  1  0  0  0  0
 15 16  1  0  0  0  0
 16 22  1  1  0  0  0
 17 10  2  0  0  0  0
 18  3  1  0  0  0  0
 18  4  2  0  0  0  0
 20 21  1  0  0  0  0
 20 26  1  0  0  0  0
 22 25  2  0  0  0  0
 22 24  1  0  0  0  0
 23 21  2  0  0  0  0
 24 20  2  0  0  0  0
 25 23  1  0  0  0  0
 27 17  1  0  0  0  0
 27 28  1  0  0  0  0
 30 29  1  1  0  0  0
 31 34  1  0  0  0  0
 32 31  1  0  0  0  0
 32 33  1  0  0  0  0
 33 28  1  6  0  0  0
 33 30  1  0  0  0  0
 34 30  1  0  0  0  0
M  END
>  <MODEL>
8

>  <REMARK>
 VINA RESULT:      -6.6      3.861      8.648
  Name = 
  4 active torsions:
  status: ('A' for Active; 'I' for Inactive)
    1  A    between atoms: N_3  and  C_13
    2  A    between atoms: N_3  and  C_29
    3  A    between atoms: C_12  and  C_28
    4  A    between atoms: C_13  and  C_33
                            x       y       z     vdW  Elec       q    Type
                         _______ _______ _______ _____ _____    ______ ____

>  <TORSDO>
F 4

$$$$
=
 OpenBabel11052414223D

 34 39  0  0  1  0  0  0  0  0999 V2000
  182.3600  179.0430  143.1060 C   0  0  0  0  0  0  0  0  0  0  0  0
  184.0470  178.3710  141.4880 C   0  0  0  0  0  0  0  0  0  0  0  0
  181.5980  178.0330  140.9120 C   0  0  1  0  0  3  0  0  0  0  0  0
  179.9590  179.0900  139.2880 C   0  0  0  0  0  0  0  0  0  0  0  0
  184.7090  179.3820  143.5890 C   0  0  0  0  0  3  0  0  0  0  0  0
  185.0470  178.8240  142.3540 C   0  0  0  0  0  3  0  0  0  0  0  0
  182.2400  179.9100  139.3150 C   0  0  0  0  0  3  0  0  0  0  0  0
  182.6940  178.4900  141.8530 C   0  0  0  0  0  0  0  0  0  0  0  0
  181.9300  180.8080  138.2930 C   0  0  0  0  0  3  0  0  0  0  0  0
  179.6530  179.9950  138.2680 C   0  0  0  0  0  3  0  0  0  0  0  0
  183.3680  179.4840  143.9670 C   0  0  0  0  0  3  0  0  0  0  0  0
  180.3520  177.5820  141.7070 C   0  0  2  0  0  3  0  0  0  0  0  0
  180.9970  179.0800  143.5390 N   0  0  0  0  0  2  0  0  0  0  0  0
  184.4060  177.8050  140.2700 O   0  0  0  0  0  1  0  0  0  0  0  0
  178.9360  178.2200  139.7820 N   0  0  0  0  0  2  0  0  0  0  0  0
  179.2020  177.1820  140.7760 C   0  0  1  0  0  3  0  0  0  0  0  0
  180.6320  180.8580  137.7670 C   0  0  0  0  0  0  0  0  0  0  0  0
  181.2560  179.0570  139.8420 C   0  0  0  0  0  0  0  0  0  0  0  0
  179.9000  178.6910  142.6580 C   0  0  0  0  0  2  0  0  0  0  0  0
  180.0420  174.4970  138.2110 C   0  0  0  0  0  0  0  0  0  0  0  0
  179.9210  173.3560  139.0060 C   0  0  0  0  0  3  0  0  0  0  0  0
  179.4450  175.8540  140.1250 C   0  0  0  0  0  0  0  0  0  0  0  0
  179.5750  173.4730  140.3170 N   0  0  0  0  0  0  0  0  0  0  0  0
  179.8050  175.7500  138.7750 C   0  0  0  0  0  3  0  0  0  0  0  0
  179.3400  174.6870  140.8870 C   0  0  0  0  0  3  0  0  0  0  0  0
  180.4230  174.3780  136.7800 C   0  0  0  0  0  1  0  0  0  0  0  0
  180.2890  181.7700  136.7230 N   0  0  0  0  0  2  0  0  0  0  0  0
  179.0140  182.4700  136.6710 C   0  0  0  0  0  2  0  0  0  0  0  0
  180.8390  184.9980  135.0080 C   0  0  0  0  0  1  0  0  0  0  0  0
  180.7050  184.2700  136.3320 C   0  0  2  0  0  3  0  0  0  0  0  0
  179.9480  185.6310  138.1630 N   0  0  0  0  0  2  0  0  0  0  0  0
  178.9500  184.5980  137.9350 C   0  0  0  0  0  2  0  0  0  0  0  0
  179.2480  183.9690  136.5940 C   0  0  2  0  0  3  0  0  0  0  0  0
  181.1390  185.1830  137.4600 C   0  0  0  0  0  2  0  0  0  0  0  0
  1 13  1  0  0  0  0
  1 11  1  0  0  0  0
  2  8  1  0  0  0  0
  2  6  2  0  0  0  0
  3 18  1  6  0  0  0
  3 12  1  0  0  0  0
  3  8  1  0  0  0  0
  4 15  1  0  0  0  0
  4 18  1  0  0  0  0
  5 11  2  0  0  0  0
  6  5  1  0  0  0  0
  7 18  2  0  0  0  0
  8  1  2  0  0  0  0
  9  7  1  0  0  0  0
 10  4  2  0  0  0  0
 12 19  1  1  0  0  0
 14  2  1  0  0  0  0
 15 16  1  0  0  0  0
 16 22  1  6  0  0  0
 16 12  1  0  0  0  0
 17 10  1  0  0  0  0
 17  9  2  0  0  0  0
 19 13  1  0  0  0  0
 20 24  2  0  0  0  0
 20 21  1  0  0  0  0
 21 23  2  0  0  0  0
 22 25  2  0  0  0  0
 23 25  1  0  0  0  0
 24 22  1  0  0  0  0
 26 20  1  0  0  0  0
 27 17  1  0  0  0  0
 28 27  1  0  0  0  0
 30 29  1  6  0  0  0
 30 33  1  0  0  0  0
 30 34  1  0  0  0  0
 32 31  1  0  0  0  0
 33 28  1  1  0  0  0
 33 32  1  0  0  0  0
 34 31  1  0  0  0  0
M  END
>  <MODEL>
9

>  <REMARK>
 VINA RESULT:      -6.4      3.005      7.853
  Name = 
  4 active torsions:
  status: ('A' for Active; 'I' for Inactive)
    1  A    between atoms: N_3  and  C_13
    2  A    between atoms: N_3  and  C_29
    3  A    between atoms: C_12  and  C_28
    4  A    between atoms: C_13  and  C_33
                            x       y       z     vdW  Elec       q    Type
                         _______ _______ _______ _____ _____    ______ ____

>  <TORSDO>
F 4

$$$$
