=
 OpenBabel11052416223D

 43 48  0  0  1  0  0  0  0  0999 V2000
  181.0640  178.9440  143.0280 C   0  0  0  0  0  0  0  0  0  0  0  0
  184.6670  178.4910  139.5410 C   0  0  0  0  0  0  0  0  0  0  0  0
  187.0670  178.5490  140.8960 C   0  0  0  0  0  0  0  0  0  0  0  0
  182.2770  178.7120  140.9460 C   0  0  0  0  0  0  0  0  0  0  0  0
  182.2690  178.9710  143.7350 C   0  0  0  0  0  3  0  0  0  0  0  0
  179.5450  179.0860  143.8860 Cl  0  0  0  0  0  0  0  0  0  0  0  0
  183.5000  178.7390  141.6570 C   0  0  0  0  0  0  0  0  0  0  0  0
  181.0680  178.8170  141.6370 C   0  0  0  0  0  3  0  0  0  0  0  0
  183.4840  178.8700  143.0530 C   0  0  0  0  0  3  0  0  0  0  0  0
  185.9020  178.6560  141.5840 N   0  0  0  0  0  0  0  0  0  0  0  0
  184.7030  178.6320  140.9420 C   0  0  0  0  0  0  0  0  0  0  0  0
  183.4310  178.4740  138.8860 C   0  0  0  0  0  3  0  0  0  0  0  0
  185.8830  178.3630  138.8510 C   0  0  0  0  0  0  0  0  0  0  0  0
  187.0510  178.4000  139.5460 N   0  0  0  0  0  0  0  0  0  0  0  0
  182.2760  178.5850  139.5940 N   0  0  0  0  0  0  0  0  0  0  0  0
  185.9440  178.1490  137.0640 S   0  0  0  0  0  0  0  0  0  0  0  0
  189.5580  176.4880  135.8770 C   0  0  0  0  0  2  0  0  0  0  0  0
  189.0720  175.1220  135.6850 N   0  0  0  0  0  0  0  0  0  0  0  0
  187.0390  175.5950  136.9670 C   0  0  0  0  0  2  0  0  0  0  0  0
  188.3820  177.4600  135.9130 C   0  0  0  0  0  2  0  0  0  0  0  0
  187.4230  177.0720  137.0380 C   0  0  0  0  0  3  0  0  0  0  0  0
  188.3000  174.7430  136.8690 C   0  0  0  0  0  2  0  0  0  0  0  0
  190.5040  173.7780  136.9380 O   0  0  0  0  0  1  0  0  0  0  0  0
  190.2440  174.2650  135.6560 C   0  0  0  0  0  2  0  0  0  0  0  0
  188.3590  178.5210  141.6280 C   0  0  0  0  0  2  0  0  0  0  0  0
  188.7080  177.1950  141.8940 O   0  0  0  0  0  0  0  0  0  0  0  0
  190.0890  177.2180  142.1220 C   0  0  2  0  0  3  0  0  0  0  0  0
  192.1790  177.3890  140.9830 O   0  0  0  0  0  1  0  0  0  0  0  0
  190.8390  177.0410  140.8120 C   0  0  0  0  0  2  0  0  0  0  0  0
  190.4860  176.1330  143.1200 C   0  0  0  0  0  2  0  0  0  0  0  0
  191.3150  176.6780  144.1960 N   0  0  0  0  0  0  0  0  0  0  0  0
  191.2060  177.0760  146.5250 N   0  0  0  0  0  2  0  0  0  0  0  0
  191.9960  175.5750  144.8460 C   0  0  0  0  0  2  0  0  0  0  0  0
  190.5110  177.2940  145.2610 C   0  0  1  0  0  0  0  0  0  0  0  0
  190.4130  178.6540  145.0190 F   0  0  0  0  0  0  0  0  0  0  0  0
  192.0670  175.9250  146.3120 C   0  0  0  0  0  2  0  0  0  0  0  0
  189.1990  176.7150  145.3360 O   0  0  0  0  0  0  0  0  0  0  0  0
  188.0590  177.3840  145.8020 C   0  0  0  0  0  0  0  0  0  0  0  0
  186.7710  178.4390  147.5720 C   0  0  0  0  0  3  0  0  0  0  0  0
  185.8710  178.3210  145.3280 C   0  0  0  0  0  3  0  0  0  0  0  0
  185.7440  178.7110  146.6650 C   0  0  0  0  0  3  0  0  0  0  0  0
  187.0240  177.6580  144.9010 C   0  0  0  0  0  3  0  0  0  0  0  0
  187.9260  177.7790  147.1430 C   0  0  0  0  0  3  0  0  0  0  0  0
  1  5  1  0  0  0  0
  1  6  1  0  0  0  0
  2 11  1  0  0  0  0
  3 10  2  0  0  0  0
  3 25  1  0  0  0  0
  4  8  1  0  0  0  0
  4  7  1  0  0  0  0
  7  9  1  0  0  0  0
  8  1  2  0  0  0  0
  9  5  2  0  0  0  0
 11 10  1  0  0  0  0
 11  7  2  0  0  0  0
 12  2  2  0  0  0  0
 12 15  1  0  0  0  0
 13  2  1  0  0  0  0
 13 14  2  0  0  0  0
 14  3  1  0  0  0  0
 15  4  2  0  0  0  0
 16 13  1  0  0  0  0
 17 20  1  0  0  0  0
 18 17  1  0  0  0  0
 18 22  1  0  0  0  0
 19 21  1  0  0  0  0
 20 21  1  0  0  0  0
 21 16  1  0  0  0  0
 22 19  1  0  0  0  0
 24 18  1  0  0  0  0
 24 23  1  0  0  0  0
 25 26  1  0  0  0  0
 26 27  1  0  0  0  0
 27 29  1  6  0  0  0
 27 30  1  0  0  0  0
 29 28  1  0  0  0  0
 30 31  1  0  0  0  0
 31 33  1  0  0  0  0
 31 34  1  0  0  0  0
 33 36  1  0  0  0  0
 34 35  1  6  0  0  0
 34 37  1  0  0  0  0
 34 32  1  0  0  0  0
 36 32  1  0  0  0  0
 37 38  1  0  0  0  0
 38 43  1  0  0  0  0
 40 41  2  0  0  0  0
 41 39  1  0  0  0  0
 42 40  1  0  0  0  0
 42 38  2  0  0  0  0
 43 39  2  0  0  0  0
M  END
>  <MODEL>
1

>  <REMARK>
 VINA RESULT:      -9.3      0.000      0.000
  Name = 
  11 active torsions:
  status: ('A' for Active; 'I' for Inactive)
    1  A    between atoms: S_1  and  C_34
    2  A    between atoms: S_1  and  C_35
    3  A    between atoms: C_2  and  O_6
    4  A    between atoms: C_2  and  C_13
    5  A    between atoms: C_3  and  N_4
    6  A    between atoms: C_3  and  C_12
    7  A    between atoms: O_6  and  C_12
    8  A    between atoms: C_11  and  O_14
    9  A    between atoms: C_12  and  C_17
   10  A    between atoms: O_14  and  C_22
   11  A    between atoms: N_19  and  C_37
                            x       y       z     vdW  Elec       q    Type
                         _______ _______ _______ _____ _____    ______ ____

>  <TORSDO>
F 11

$$$$
=
 OpenBabel11052416223D

 43 48  0  0  1  0  0  0  0  0999 V2000
  181.0550  178.9520  143.1810 C   0  0  0  0  0  0  0  0  0  0  0  0
  184.5040  178.5230  139.5390 C   0  0  0  0  0  0  0  0  0  0  0  0
  186.9610  178.6210  140.7840 C   0  0  0  0  0  0  0  0  0  0  0  0
  182.1770  178.7220  141.0480 C   0  0  0  0  0  0  0  0  0  0  0  0
  182.2910  179.0000  143.8330 C   0  0  0  0  0  3  0  0  0  0  0  0
  179.5750  179.0800  144.1050 Cl  0  0  0  0  0  0  0  0  0  0  0  0
  183.4300  178.7700  141.7030 C   0  0  0  0  0  0  0  0  0  0  0  0
  180.9980  178.8160  141.7920 C   0  0  0  0  0  3  0  0  0  0  0  0
  183.4750  178.9100  143.0980 C   0  0  0  0  0  3  0  0  0  0  0  0
  185.8270  178.7170  141.5230 N   0  0  0  0  0  0  0  0  0  0  0  0
  184.6010  178.6740  140.9360 C   0  0  0  0  0  0  0  0  0  0  0  0
  183.2400  178.4860  138.9400 C   0  0  0  0  0  3  0  0  0  0  0  0
  185.6900  178.4060  138.7960 C   0  0  0  0  0  0  0  0  0  0  0  0
  186.8870  178.4630  139.4370 N   0  0  0  0  0  0  0  0  0  0  0  0
  182.1170  178.5860  139.6980 N   0  0  0  0  0  0  0  0  0  0  0  0
  185.6730  178.1810  137.0080 S   0  0  0  0  0  0  0  0  0  0  0  0
  186.8210  174.3380  135.9390 C   0  0  0  0  0  2  0  0  0  0  0  0
  185.4760  173.8000  135.7360 N   0  0  0  0  0  0  0  0  0  0  0  0
  184.4720  175.6740  136.9530 C   0  0  0  0  0  2  0  0  0  0  0  0
  186.7790  175.8640  135.9360 C   0  0  0  0  0  2  0  0  0  0  0  0
  185.8360  176.3580  137.0320 C   0  0  0  0  0  3  0  0  0  0  0  0
  184.6610  174.1620  136.8970 C   0  0  0  0  0  2  0  0  0  0  0  0
  184.8500  171.8210  136.7940 O   0  0  0  0  0  1  0  0  0  0  0  0
  185.6020  172.3540  135.7460 C   0  0  0  0  0  2  0  0  0  0  0  0
  188.2850  178.6140  141.4570 C   0  0  0  0  0  2  0  0  0  0  0  0
  188.5060  177.3570  142.0260 O   0  0  0  0  0  0  0  0  0  0  0  0
  189.8920  177.2730  142.2020 C   0  0  2  0  0  3  0  0  0  0  0  0
  191.8810  177.4450  140.8950 O   0  0  0  0  0  1  0  0  0  0  0  0
  190.5720  176.9630  140.8780 C   0  0  0  0  0  2  0  0  0  0  0  0
  190.2360  176.2130  143.2450 C   0  0  0  0  0  2  0  0  0  0  0  0
  191.1430  176.7440  144.2650 N   0  0  0  0  0  0  0  0  0  0  0  0
  191.2050  177.1140  146.6000 N   0  0  0  0  0  2  0  0  0  0  0  0
  191.8680  175.6330  144.8500 C   0  0  0  0  0  2  0  0  0  0  0  0
  190.4200  177.3480  145.3920 C   0  0  1  0  0  0  0  0  0  0  0  0
  190.3080  178.7110  145.1750 F   0  0  0  0  0  0  0  0  0  0  0  0
  192.0470  175.9640  146.3110 C   0  0  0  0  0  2  0  0  0  0  0  0
  189.1160  176.7700  145.5560 O   0  0  0  0  0  0  0  0  0  0  0  0
  187.9690  177.4850  145.9250 C   0  0  0  0  0  0  0  0  0  0  0  0
  185.8540  178.5590  145.3970 C   0  0  0  0  0  3  0  0  0  0  0  0
  186.6800  178.5710  147.6720 C   0  0  0  0  0  3  0  0  0  0  0  0
  185.7020  178.9240  146.7370 C   0  0  0  0  0  3  0  0  0  0  0  0
  187.8100  177.8560  147.2650 C   0  0  0  0  0  3  0  0  0  0  0  0
  186.9820  177.8410  144.9920 C   0  0  0  0  0  3  0  0  0  0  0  0
  1  5  1  0  0  0  0
  1  6  1  0  0  0  0
  2 11  1  0  0  0  0
  3 25  1  0  0  0  0
  3 10  2  0  0  0  0
  4  7  1  0  0  0  0
  4  8  1  0  0  0  0
  7  9  1  0  0  0  0
  8  1  2  0  0  0  0
  9  5  2  0  0  0  0
 11 10  1  0  0  0  0
 11  7  2  0  0  0  0
 12  2  2  0  0  0  0
 12 15  1  0  0  0  0
 13 14  2  0  0  0  0
 13  2  1  0  0  0  0
 14  3  1  0  0  0  0
 15  4  2  0  0  0  0
 16 21  1  0  0  0  0
 16 13  1  0  0  0  0
 18 24  1  0  0  0  0
 18 17  1  0  0  0  0
 18 22  1  0  0  0  0
 19 21  1  0  0  0  0
 20 17  1  0  0  0  0
 20 21  1  0  0  0  0
 22 19  1  0  0  0  0
 24 23  1  0  0  0  0
 25 26  1  0  0  0  0
 26 27  1  0  0  0  0
 27 29  1  6  0  0  0
 27 30  1  0  0  0  0
 29 28  1  0  0  0  0
 30 31  1  0  0  0  0
 31 33  1  0  0  0  0
 31 34  1  0  0  0  0
 33 36  1  0  0  0  0
 34 35  1  6  0  0  0
 34 37  1  0  0  0  0
 34 32  1  0  0  0  0
 36 32  1  0  0  0  0
 37 38  1  0  0  0  0
 38 42  1  0  0  0  0
 39 41  2  0  0  0  0
 41 40  1  0  0  0  0
 42 40  2  0  0  0  0
 43 39  1  0  0  0  0
 43 38  2  0  0  0  0
M  END
>  <MODEL>
2

>  <REMARK>
 VINA RESULT:      -9.0      1.416      1.810
  Name = 
  11 active torsions:
  status: ('A' for Active; 'I' for Inactive)
    1  A    between atoms: S_1  and  C_34
    2  A    between atoms: S_1  and  C_35
    3  A    between atoms: C_2  and  O_6
    4  A    between atoms: C_2  and  C_13
    5  A    between atoms: C_3  and  N_4
    6  A    between atoms: C_3  and  C_12
    7  A    between atoms: O_6  and  C_12
    8  A    between atoms: C_11  and  O_14
    9  A    between atoms: C_12  and  C_17
   10  A    between atoms: O_14  and  C_22
   11  A    between atoms: N_19  and  C_37
                            x       y       z     vdW  Elec       q    Type
                         _______ _______ _______ _____ _____    ______ ____

>  <TORSDO>
F 11

$$$$
=
 OpenBabel11052416223D

 43 48  0  0  1  0  0  0  0  0999 V2000
  187.5940  177.9750  147.3060 C   0  0  0  0  0  0  0  0  0  0  0  0
  184.0320  178.7580  143.8350 C   0  0  0  0  0  0  0  0  0  0  0  0
  185.2830  178.5760  141.3860 C   0  0  0  0  0  0  0  0  0  0  0  0
  185.5020  178.4220  146.1710 C   0  0  0  0  0  0  0  0  0  0  0  0
  188.2480  177.8740  146.0750 C   0  0  0  0  0  3  0  0  0  0  0  0
  188.4950  177.7720  148.7920 Cl  0  0  0  0  0  0  0  0  0  0  0  0
  186.1590  178.3200  144.9230 C   0  0  0  0  0  0  0  0  0  0  0  0
  186.2250  178.2500  147.3550 C   0  0  0  0  0  3  0  0  0  0  0  0
  187.5340  178.0460  144.8870 C   0  0  0  0  0  3  0  0  0  0  0  0
  186.0030  178.4100  142.5250 N   0  0  0  0  0  0  0  0  0  0  0  0
  185.4130  178.4960  143.7480 C   0  0  0  0  0  0  0  0  0  0  0  0
  183.4310  178.8530  145.0960 C   0  0  0  0  0  3  0  0  0  0  0  0
  183.3030  178.9070  142.6440 C   0  0  0  0  0  0  0  0  0  0  0  0
  183.9490  178.8170  141.4520 N   0  0  0  0  0  0  0  0  0  0  0  0
  184.1710  178.6850  146.2230 N   0  0  0  0  0  0  0  0  0  0  0  0
  181.5280  179.2160  142.6490 S   0  0  0  0  0  0  0  0  0  0  0  0
  180.1800  179.7060  138.7540 C   0  0  0  0  0  2  0  0  0  0  0  0
  179.4770  178.4280  138.6460 N   0  0  0  0  0  0  0  0  0  0  0  0
  180.6460  177.5450  140.6090 C   0  0  0  0  0  2  0  0  0  0  0  0
  180.4440  180.0350  140.2210 C   0  0  0  0  0  2  0  0  0  0  0  0
  181.2660  178.9180  140.8620 C   0  0  0  0  0  3  0  0  0  0  0  0
  180.3750  177.3730  139.1180 C   0  0  0  0  0  2  0  0  0  0  0  0
  180.4050  178.5410  136.5120 O   0  0  0  0  0  1  0  0  0  0  0  0
  179.2600  178.1920  137.2300 C   0  0  0  0  0  2  0  0  0  0  0  0
  185.9430  178.4190  140.0650 C   0  0  0  0  0  2  0  0  0  0  0  0
  185.2680  179.1950  139.1180 O   0  0  0  0  0  0  0  0  0  0  0  0
  185.2490  178.4180  137.9550 C   0  0  2  0  0  3  0  0  0  0  0  0
  183.8090  177.1090  136.5730 O   0  0  0  0  0  1  0  0  0  0  0  0
  183.9300  177.6710  137.8440 C   0  0  0  0  0  2  0  0  0  0  0  0
  186.4230  177.4420  137.9420 C   0  0  0  0  0  2  0  0  0  0  0  0
  187.4630  177.8730  137.0070 N   0  0  0  0  0  0  0  0  0  0  0  0
  189.7720  177.5510  136.6100 N   0  0  0  0  0  2  0  0  0  0  0  0
  187.5770  176.8740  135.9630 C   0  0  0  0  0  2  0  0  0  0  0  0
  188.7930  177.9090  137.6300 C   0  0  1  0  0  0  0  0  0  0  0  0
  189.0450  179.1960  138.0750 F   0  0  0  0  0  0  0  0  0  0  0  0
  189.0400  176.8000  135.6020 C   0  0  0  0  0  2  0  0  0  0  0  0
  188.8900  176.9860  138.7250 O   0  0  0  0  0  0  0  0  0  0  0  0
  189.7120  177.1620  139.8460 C   0  0  0  0  0  0  0  0  0  0  0  0
  190.0400  177.4350  142.2380 C   0  0  0  0  0  3  0  0  0  0  0  0
  191.9480  177.4300  140.7500 C   0  0  0  0  0  3  0  0  0  0  0  0
  191.4200  177.5220  142.0410 C   0  0  0  0  0  3  0  0  0  0  0  0
  191.0950  177.2530  139.6570 C   0  0  0  0  0  3  0  0  0  0  0  0
  189.1880  177.2540  141.1450 C   0  0  0  0  0  3  0  0  0  0  0  0
  1  8  1  0  0  0  0
  1  6  1  0  0  0  0
  2 12  1  0  0  0  0
  3 14  1  0  0  0  0
  3 10  2  0  0  0  0
  4 15  1  0  0  0  0
  4  8  2  0  0  0  0
  5  1  2  0  0  0  0
  7  4  1  0  0  0  0
  9  7  2  0  0  0  0
  9  5  1  0  0  0  0
 10 11  1  0  0  0  0
 11  2  2  0  0  0  0
 11  7  1  0  0  0  0
 12 15  2  0  0  0  0
 13 16  1  0  0  0  0
 13  2  1  0  0  0  0
 14 13  2  0  0  0  0
 17 20  1  0  0  0  0
 18 17  1  0  0  0  0
 18 22  1  0  0  0  0
 19 21  1  0  0  0  0
 20 21  1  0  0  0  0
 21 16  1  0  0  0  0
 22 19  1  0  0  0  0
 23 24  1  0  0  0  0
 24 18  1  0  0  0  0
 25  3  1  0  0  0  0
 26 25  1  0  0  0  0
 27 29  1  1  0  0  0
 27 26  1  0  0  0  0
 28 29  1  0  0  0  0
 30 27  1  0  0  0  0
 31 34  1  0  0  0  0
 31 30  1  0  0  0  0
 32 34  1  0  0  0  0
 33 31  1  0  0  0  0
 34 35  1  1  0  0  0
 34 37  1  0  0  0  0
 36 33  1  0  0  0  0
 36 32  1  0  0  0  0
 37 38  1  0  0  0  0
 38 43  1  0  0  0  0
 40 41  2  0  0  0  0
 41 39  1  0  0  0  0
 42 38  2  0  0  0  0
 42 40  1  0  0  0  0
 43 39  2  0  0  0  0
M  END
>  <MODEL>
3

>  <REMARK>
 VINA RESULT:      -8.7      3.483      7.468
  Name = 
  11 active torsions:
  status: ('A' for Active; 'I' for Inactive)
    1  A    between atoms: S_1  and  C_34
    2  A    between atoms: S_1  and  C_35
    3  A    between atoms: C_2  and  O_6
    4  A    between atoms: C_2  and  C_13
    5  A    between atoms: C_3  and  N_4
    6  A    between atoms: C_3  and  C_12
    7  A    between atoms: O_6  and  C_12
    8  A    between atoms: C_11  and  O_14
    9  A    between atoms: C_12  and  C_17
   10  A    between atoms: O_14  and  C_22
   11  A    between atoms: N_19  and  C_37
                            x       y       z     vdW  Elec       q    Type
                         _______ _______ _______ _____ _____    ______ ____

>  <TORSDO>
F 11

$$$$
=
 OpenBabel11052416223D

 43 48  0  0  1  0  0  0  0  0999 V2000
  184.9590  178.8690  145.1570 C   0  0  0  0  0  0  0  0  0  0  0  0
  182.0640  178.5870  141.0480 C   0  0  0  0  0  0  0  0  0  0  0  0
  183.7740  178.2070  138.9200 C   0  0  0  0  0  0  0  0  0  0  0  0
  183.0880  178.8310  143.6220 C   0  0  0  0  0  0  0  0  0  0  0  0
  185.8440  178.6720  144.0930 C   0  0  0  0  0  3  0  0  0  0  0  0
  185.5760  179.0310  146.7860 Cl  0  0  0  0  0  0  0  0  0  0  0  0
  183.9790  178.6320  142.5420 C   0  0  0  0  0  0  0  0  0  0  0  0
  183.5850  178.9500  144.9220 C   0  0  0  0  0  3  0  0  0  0  0  0
  185.3570  178.5550  142.7890 C   0  0  0  0  0  3  0  0  0  0  0  0
  184.2760  178.3250  140.1760 N   0  0  0  0  0  0  0  0  0  0  0  0
  183.4560  178.5140  141.2450 C   0  0  0  0  0  0  0  0  0  0  0  0
  181.2260  178.7900  142.1510 C   0  0  0  0  0  3  0  0  0  0  0  0
  181.5650  178.4440  139.7430 C   0  0  0  0  0  0  0  0  0  0  0  0
  182.4330  178.2620  138.7140 N   0  0  0  0  0  0  0  0  0  0  0  0
  181.7500  178.9070  143.3990 N   0  0  0  0  0  0  0  0  0  0  0  0
  179.7980  178.4930  139.3910 S   0  0  0  0  0  0  0  0  0  0  0  0
  180.7980  181.5430  136.7590 C   0  0  0  0  0  2  0  0  0  0  0  0
  181.2100  182.5200  137.7650 N   0  0  0  0  0  0  0  0  0  0  0  0
  180.1010  181.2530  139.5440 C   0  0  0  0  0  2  0  0  0  0  0  0
  180.7630  180.1450  137.3700 C   0  0  0  0  0  2  0  0  0  0  0  0
  179.8040  180.1230  138.5590 C   0  0  0  0  0  3  0  0  0  0  0  0
  180.1720  182.5790  138.7940 C   0  0  0  0  0  2  0  0  0  0  0  0
  182.2830  184.5800  137.5940 O   0  0  0  0  0  1  0  0  0  0  0  0
  181.2240  183.8140  137.1070 C   0  0  0  0  0  2  0  0  0  0  0  0
  184.6880  177.9430  137.7800 C   0  0  0  0  0  2  0  0  0  0  0  0
  185.9040  178.5940  138.0030 O   0  0  0  0  0  0  0  0  0  0  0  0
  186.8310  177.9260  137.1960 C   0  0  2  0  0  3  0  0  0  0  0  0
  186.4260  177.9000  134.8440 O   0  0  0  0  0  1  0  0  0  0  0  0
  186.1220  177.2430  136.0370 C   0  0  0  0  0  2  0  0  0  0  0  0
  187.6220  176.9100  138.0170 C   0  0  0  0  0  2  0  0  0  0  0  0
  189.0400  177.2690  138.0850 N   0  0  0  0  0  0  0  0  0  0  0  0
  190.7590  177.5120  139.6910 N   0  0  0  0  0  2  0  0  0  0  0  0
  189.8190  176.0470  138.0580 C   0  0  0  0  0  2  0  0  0  0  0  0
  189.3920  177.9030  139.3620 C   0  0  1  0  0  0  0  0  0  0  0  0
  189.3330  179.2790  139.2120 F   0  0  0  0  0  0  0  0  0  0  0  0
  191.0060  176.2800  138.9600 C   0  0  0  0  0  2  0  0  0  0  0  0
  188.5140  177.4900  140.4200 O   0  0  0  0  0  0  0  0  0  0  0  0
  188.8500  177.4870  141.7800 C   0  0  0  0  0  0  0  0  0  0  0  0
  188.9190  176.4270  143.9660 C   0  0  0  0  0  3  0  0  0  0  0  0
  189.8250  178.6520  143.6730 C   0  0  0  0  0  3  0  0  0  0  0  0
  189.5460  177.5570  144.4960 C   0  0  0  0  0  3  0  0  0  0  0  0
  189.4750  178.6160  142.3210 C   0  0  0  0  0  3  0  0  0  0  0  0
  188.5730  176.3900  142.6120 C   0  0  0  0  0  3  0  0  0  0  0  0
  1  6  1  0  0  0  0
  2 11  2  0  0  0  0
  2 12  1  0  0  0  0
  3 10  2  0  0  0  0
  4  8  2  0  0  0  0
  5  1  2  0  0  0  0
  7  9  2  0  0  0  0
  7  4  1  0  0  0  0
  8  1  1  0  0  0  0
  9  5  1  0  0  0  0
 10 11  1  0  0  0  0
 11  7  1  0  0  0  0
 12 15  2  0  0  0  0
 13  2  1  0  0  0  0
 14  3  1  0  0  0  0
 14 13  2  0  0  0  0
 15  4  1  0  0  0  0
 16 13  1  0  0  0  0
 17 20  1  0  0  0  0
 17 18  1  0  0  0  0
 18 22  1  0  0  0  0
 20 21  1  0  0  0  0
 21 16  1  0  0  0  0
 21 19  1  0  0  0  0
 22 19  1  0  0  0  0
 24 23  1  0  0  0  0
 24 18  1  0  0  0  0
 25 26  1  0  0  0  0
 25  3  1  0  0  0  0
 27 29  1  6  0  0  0
 27 26  1  0  0  0  0
 27 30  1  0  0  0  0
 28 29  1  0  0  0  0
 30 31  1  0  0  0  0
 31 34  1  0  0  0  0
 33 31  1  0  0  0  0
 33 36  1  0  0  0  0
 34 35  1  6  0  0  0
 34 32  1  0  0  0  0
 34 37  1  0  0  0  0
 36 32  1  0  0  0  0
 37 38  1  0  0  0  0
 38 42  2  0  0  0  0
 38 43  1  0  0  0  0
 39 41  1  0  0  0  0
 40 41  2  0  0  0  0
 42 40  1  0  0  0  0
 43 39  2  0  0  0  0
M  END
>  <MODEL>
4

>  <REMARK>
 VINA RESULT:      -8.4      3.519      6.538
  Name = 
  11 active torsions:
  status: ('A' for Active; 'I' for Inactive)
    1  A    between atoms: S_1  and  C_34
    2  A    between atoms: S_1  and  C_35
    3  A    between atoms: C_2  and  O_6
    4  A    between atoms: C_2  and  C_13
    5  A    between atoms: C_3  and  N_4
    6  A    between atoms: C_3  and  C_12
    7  A    between atoms: O_6  and  C_12
    8  A    between atoms: C_11  and  O_14
    9  A    between atoms: C_12  and  C_17
   10  A    between atoms: O_14  and  C_22
   11  A    between atoms: N_19  and  C_37
                            x       y       z     vdW  Elec       q    Type
                         _______ _______ _______ _____ _____    ______ ____

>  <TORSDO>
F 11

$$$$
=
 OpenBabel11052416223D

 43 48  0  0  1  0  0  0  0  0999 V2000
  188.0730  177.5680  147.0950 C   0  0  0  0  0  0  0  0  0  0  0  0
  189.6070  177.4290  142.3020 C   0  0  0  0  0  0  0  0  0  0  0  0
  187.4320  178.1530  140.7720 C   0  0  0  0  0  0  0  0  0  0  0  0
  189.3750  177.3110  145.0710 C   0  0  0  0  0  0  0  0  0  0  0  0
  186.9590  177.9420  146.3390 C   0  0  0  0  0  3  0  0  0  0  0  0
  187.9550  177.4810  148.8390 Cl  0  0  0  0  0  0  0  0  0  0  0  0
  188.2510  177.6890  144.3010 C   0  0  0  0  0  0  0  0  0  0  0  0
  189.2780  177.2520  146.4630 C   0  0  0  0  0  3  0  0  0  0  0  0
  187.0460  178.0010  144.9460 C   0  0  0  0  0  3  0  0  0  0  0  0
  187.3170  178.0970  142.1230 N   0  0  0  0  0  0  0  0  0  0  0  0
  188.3720  177.7420  142.9040 C   0  0  0  0  0  0  0  0  0  0  0  0
  190.6870  177.0570  143.1100 C   0  0  0  0  0  3  0  0  0  0  0  0
  189.7090  177.5120  140.9040 C   0  0  0  0  0  0  0  0  0  0  0  0
  188.6180  177.8670  140.1760 N   0  0  0  0  0  0  0  0  0  0  0  0
  190.5500  177.0060  144.4610 N   0  0  0  0  0  0  0  0  0  0  0  0
  191.2510  177.1610  140.0420 S   0  0  0  0  0  0  0  0  0  0  0  0
  190.6790  174.4870  136.9190 C   0  0  0  0  0  2  0  0  0  0  0  0
  190.6350  175.4760  135.8430 N   0  0  0  0  0  0  0  0  0  0  0  0
  190.2760  177.2960  137.4420 C   0  0  0  0  0  2  0  0  0  0  0  0
  191.3000  175.1030  138.1700 C   0  0  0  0  0  2  0  0  0  0  0  0
  190.4920  176.3260  138.6010 C   0  0  0  0  0  3  0  0  0  0  0  0
  189.7150  176.5420  136.2410 C   0  0  0  0  0  2  0  0  0  0  0  0
  188.7420  174.4080  135.0050 O   0  0  0  0  0  1  0  0  0  0  0  0
  190.0410  174.8150  134.6950 C   0  0  0  0  0  2  0  0  0  0  0  0
  186.2790  178.5990  139.9490 C   0  0  0  0  0  2  0  0  0  0  0  0
  186.6360  178.5660  138.5980 O   0  0  0  0  0  0  0  0  0  0  0  0
  185.6700  177.7620  137.9830 C   0  0  2  0  0  3  0  0  0  0  0  0
  186.9930  178.5090  136.1430 O   0  0  0  0  0  1  0  0  0  0  0  0
  185.9540  177.6470  136.4950 C   0  0  0  0  0  2  0  0  0  0  0  0
  184.2720  178.3280  138.2220 C   0  0  0  0  0  2  0  0  0  0  0  0
  183.2530  177.2800  138.1360 N   0  0  0  0  0  0  0  0  0  0  0  0
  181.0890  176.8030  138.9610 N   0  0  0  0  0  2  0  0  0  0  0  0
  182.3130  177.6470  137.0950 C   0  0  0  0  0  2  0  0  0  0  0  0
  182.4380  177.1940  139.3550 C   0  0  1  0  0  0  0  0  0  0  0  0
  182.9730  176.2220  140.1840 F   0  0  0  0  0  0  0  0  0  0  0  0
  180.9560  177.1830  137.5640 C   0  0  0  0  0  2  0  0  0  0  0  0
  182.3840  178.4510  140.0460 O   0  0  0  0  0  0  0  0  0  0  0  0
  182.4830  178.6010  141.4360 C   0  0  0  0  0  0  0  0  0  0  0  0
  181.4960  178.9890  143.6230 C   0  0  0  0  0  3  0  0  0  0  0  0
  183.8850  178.6590  143.4170 C   0  0  0  0  0  3  0  0  0  0  0  0
  182.7600  178.8980  144.2110 C   0  0  0  0  0  3  0  0  0  0  0  0
  183.7450  178.5130  142.0340 C   0  0  0  0  0  3  0  0  0  0  0  0
  181.3570  178.8400  142.2400 C   0  0  0  0  0  3  0  0  0  0  0  0
  1  6  1  0  0  0  0
  2 11  2  0  0  0  0
  2 12  1  0  0  0  0
  3 10  2  0  0  0  0
  4  8  2  0  0  0  0
  5  1  2  0  0  0  0
  7  9  2  0  0  0  0
  7  4  1  0  0  0  0
  8  1  1  0  0  0  0
  9  5  1  0  0  0  0
 10 11  1  0  0  0  0
 11  7  1  0  0  0  0
 12 15  2  0  0  0  0
 13  2  1  0  0  0  0
 14  3  1  0  0  0  0
 14 13  2  0  0  0  0
 15  4  1  0  0  0  0
 16 13  1  0  0  0  0
 17 20  1  0  0  0  0
 18 22  1  0  0  0  0
 18 17  1  0  0  0  0
 19 21  1  0  0  0  0
 20 21  1  0  0  0  0
 21 16  1  0  0  0  0
 22 19  1  0  0  0  0
 24 23  1  0  0  0  0
 24 18  1  0  0  0  0
 25  3  1  0  0  0  0
 26 25  1  0  0  0  0
 27 29  1  6  0  0  0
 27 30  1  0  0  0  0
 27 26  1  0  0  0  0
 28 29  1  0  0  0  0
 31 30  1  0  0  0  0
 31 34  1  0  0  0  0
 32 34  1  0  0  0  0
 33 36  1  0  0  0  0
 33 31  1  0  0  0  0
 34 37  1  0  0  0  0
 34 35  1  1  0  0  0
 36 32  1  0  0  0  0
 37 38  1  0  0  0  0
 38 42  2  0  0  0  0
 38 43  1  0  0  0  0
 39 41  1  0  0  0  0
 40 41  2  0  0  0  0
 42 40  1  0  0  0  0
 43 39  2  0  0  0  0
M  END
>  <MODEL>
5

>  <REMARK>
 VINA RESULT:      -8.4      3.101      6.936
  Name = 
  11 active torsions:
  status: ('A' for Active; 'I' for Inactive)
    1  A    between atoms: S_1  and  C_34
    2  A    between atoms: S_1  and  C_35
    3  A    between atoms: C_2  and  O_6
    4  A    between atoms: C_2  and  C_13
    5  A    between atoms: C_3  and  N_4
    6  A    between atoms: C_3  and  C_12
    7  A    between atoms: O_6  and  C_12
    8  A    between atoms: C_11  and  O_14
    9  A    between atoms: C_12  and  C_17
   10  A    between atoms: O_14  and  C_22
   11  A    between atoms: N_19  and  C_37
                            x       y       z     vdW  Elec       q    Type
                         _______ _______ _______ _____ _____    ______ ____

>  <TORSDO>
F 11

$$$$
=
 OpenBabel11052416223D

 43 48  0  0  1  0  0  0  0  0999 V2000
  190.7120  176.7570  146.0140 C   0  0  0  0  0  0  0  0  0  0  0  0
  188.9940  177.8280  141.4040 C   0  0  0  0  0  0  0  0  0  0  0  0
  186.3600  178.5800  141.7150 C   0  0  0  0  0  0  0  0  0  0  0  0
  190.4980  177.0990  143.6270 C   0  0  0  0  0  0  0  0  0  0  0  0
  189.3790  177.1400  146.1950 C   0  0  0  0  0  3  0  0  0  0  0  0
  191.6800  176.2890  147.3940 Cl  0  0  0  0  0  0  0  0  0  0  0  0
  189.1490  177.4870  143.8040 C   0  0  0  0  0  0  0  0  0  0  0  0
  191.2690  176.7350  144.7340 C   0  0  0  0  0  3  0  0  0  0  0  0
  188.5990  177.5030  145.0950 C   0  0  0  0  0  3  0  0  0  0  0  0
  187.0930  178.2260  142.8010 N   0  0  0  0  0  0  0  0  0  0  0  0
  188.3940  177.8490  142.6780 C   0  0  0  0  0  0  0  0  0  0  0  0
  190.3300  177.4320  141.2830 C   0  0  0  0  0  3  0  0  0  0  0  0
  188.2230  178.2170  140.2970 C   0  0  0  0  0  0  0  0  0  0  0  0
  186.9260  178.5780  140.4800 N   0  0  0  0  0  0  0  0  0  0  0  0
  191.0450  177.0800  142.3840 N   0  0  0  0  0  0  0  0  0  0  0  0
  188.9060  178.2510  138.6300 S   0  0  0  0  0  0  0  0  0  0  0  0
  188.4060  174.5750  136.7680 C   0  0  0  0  0  2  0  0  0  0  0  0
  187.2930  174.9640  135.9020 N   0  0  0  0  0  0  0  0  0  0  0  0
  186.8660  176.9700  137.2400 C   0  0  0  0  0  2  0  0  0  0  0  0
  189.1160  175.8190  137.2950 C   0  0  0  0  0  2  0  0  0  0  0  0
  188.1260  176.6970  138.0590 C   0  0  0  0  0  3  0  0  0  0  0  0
  186.2970  175.6540  136.7230 C   0  0  0  0  0  2  0  0  0  0  0  0
  186.8620  172.7270  136.3910 O   0  0  0  0  0  1  0  0  0  0  0  0
  186.6770  173.7320  135.4410 C   0  0  0  0  0  2  0  0  0  0  0  0
  184.9590  179.0430  141.8850 C   0  0  0  0  0  2  0  0  0  0  0  0
  184.3050  178.2050  142.7920 O   0  0  0  0  0  0  0  0  0  0  0  0
  183.4800  179.0490  143.5420 C   0  0  2  0  0  3  0  0  0  0  0  0
  185.0890  179.4360  145.2620 O   0  0  0  0  0  1  0  0  0  0  0  0
  183.8110  178.9290  145.0210 C   0  0  0  0  0  2  0  0  0  0  0  0
  182.0090  178.7230  143.2920 C   0  0  0  0  0  2  0  0  0  0  0  0
  181.3730  179.7410  142.4550 N   0  0  0  0  0  0  0  0  0  0  0  0
  179.8790  179.8900  140.6270 N   0  0  0  0  0  2  0  0  0  0  0  0
  180.0610  180.0230  143.0030 C   0  0  0  0  0  2  0  0  0  0  0  0
  181.1070  179.2560  141.0940 C   0  0  1  0  0  0  0  0  0  0  0  0
  182.1570  179.6290  140.2720 F   0  0  0  0  0  0  0  0  0  0  0  0
  179.1550  180.2830  141.8250 C   0  0  0  0  0  2  0  0  0  0  0  0
  180.9450  177.8300  141.0620 O   0  0  0  0  0  0  0  0  0  0  0  0
  181.2950  177.0120  139.9790 C   0  0  0  0  0  0  0  0  0  0  0  0
  180.7500  175.8220  137.9310 C   0  0  0  0  0  3  0  0  0  0  0  0
  182.9990  175.7290  138.8200 C   0  0  0  0  0  3  0  0  0  0  0  0
  182.0680  175.3660  137.8430 C   0  0  0  0  0  3  0  0  0  0  0  0
  182.6120  176.5480  139.8850 C   0  0  0  0  0  3  0  0  0  0  0  0
  180.3650  176.6440  138.9930 C   0  0  0  0  0  3  0  0  0  0  0  0
  1  5  1  0  0  0  0
  1  6  1  0  0  0  0
  2 11  1  0  0  0  0
  3 25  1  0  0  0  0
  3 10  2  0  0  0  0
  4  7  1  0  0  0  0
  4  8  1  0  0  0  0
  7  9  1  0  0  0  0
  8  1  2  0  0  0  0
  9  5  2  0  0  0  0
 11 10  1  0  0  0  0
 11  7  2  0  0  0  0
 12  2  2  0  0  0  0
 12 15  1  0  0  0  0
 13 14  2  0  0  0  0
 13  2  1  0  0  0  0
 14  3  1  0  0  0  0
 15  4  2  0  0  0  0
 16 13  1  0  0  0  0
 17 20  1  0  0  0  0
 18 22  1  0  0  0  0
 18 17  1  0  0  0  0
 19 21  1  0  0  0  0
 20 21  1  0  0  0  0
 21 16  1  0  0  0  0
 22 19  1  0  0  0  0
 24 18  1  0  0  0  0
 24 23  1  0  0  0  0
 25 26  1  0  0  0  0
 26 27  1  0  0  0  0
 27 30  1  1  0  0  0
 27 29  1  0  0  0  0
 29 28  1  0  0  0  0
 31 33  1  0  0  0  0
 31 30  1  0  0  0  0
 32 34  1  0  0  0  0
 32 36  1  0  0  0  0
 34 35  1  6  0  0  0
 34 31  1  0  0  0  0
 36 33  1  0  0  0  0
 37 34  1  0  0  0  0
 38 37  1  0  0  0  0
 39 43  1  0  0  0  0
 40 42  2  0  0  0  0
 41 39  2  0  0  0  0
 41 40  1  0  0  0  0
 42 38  1  0  0  0  0
 43 38  2  0  0  0  0
M  END
>  <MODEL>
6

>  <REMARK>
 VINA RESULT:      -8.4      3.475      7.849
  Name = 
  11 active torsions:
  status: ('A' for Active; 'I' for Inactive)
    1  A    between atoms: S_1  and  C_34
    2  A    between atoms: S_1  and  C_35
    3  A    between atoms: C_2  and  O_6
    4  A    between atoms: C_2  and  C_13
    5  A    between atoms: C_3  and  N_4
    6  A    between atoms: C_3  and  C_12
    7  A    between atoms: O_6  and  C_12
    8  A    between atoms: C_11  and  O_14
    9  A    between atoms: C_12  and  C_17
   10  A    between atoms: O_14  and  C_22
   11  A    between atoms: N_19  and  C_37
                            x       y       z     vdW  Elec       q    Type
                         _______ _______ _______ _____ _____    ______ ____

>  <TORSDO>
F 11

$$$$
=
 OpenBabel11052416223D

 43 48  0  0  1  0  0  0  0  0999 V2000
  191.5200  176.6720  137.9070 C   0  0  0  0  0  0  0  0  0  0  0  0
  186.6400  177.8290  138.3520 C   0  0  0  0  0  0  0  0  0  0  0  0
  186.3040  178.7940  140.9120 C   0  0  0  0  0  0  0  0  0  0  0  0
  189.1560  177.0050  137.5020 C   0  0  0  0  0  0  0  0  0  0  0  0
  191.3730  177.1630  139.2080 C   0  0  0  0  0  3  0  0  0  0  0  0
  193.0900  176.1420  137.3470 Cl  0  0  0  0  0  0  0  0  0  0  0  0
  189.0020  177.5020  138.8170 C   0  0  0  0  0  0  0  0  0  0  0  0
  190.4150  176.5910  137.0570 C   0  0  0  0  0  3  0  0  0  0  0  0
  190.1190  177.5760  139.6620 C   0  0  0  0  0  3  0  0  0  0  0  0
  187.5330  178.3940  140.4980 N   0  0  0  0  0  0  0  0  0  0  0  0
  187.7290  177.9120  139.2420 C   0  0  0  0  0  0  0  0  0  0  0  0
  186.8460  177.3250  137.0630 C   0  0  0  0  0  3  0  0  0  0  0  0
  185.3810  178.2670  138.7940 C   0  0  0  0  0  0  0  0  0  0  0  0
  185.2450  178.7330  140.0630 N   0  0  0  0  0  0  0  0  0  0  0  0
  188.0850  176.9280  136.6700 N   0  0  0  0  0  0  0  0  0  0  0  0
  183.9330  178.2290  137.7240 S   0  0  0  0  0  0  0  0  0  0  0  0
  180.7900  177.1670  140.2180 C   0  0  0  0  0  2  0  0  0  0  0  0
  179.9270  178.3080  139.9130 N   0  0  0  0  0  0  0  0  0  0  0  0
  181.7970  179.5420  138.9250 C   0  0  0  0  0  2  0  0  0  0  0  0
  181.8660  177.0250  139.1450 C   0  0  0  0  0  2  0  0  0  0  0  0
  182.6890  178.3100  139.0630 C   0  0  0  0  0  3  0  0  0  0  0  0
  180.7300  179.5270  140.0140 C   0  0  0  0  0  2  0  0  0  0  0  0
  179.4130  177.7220  142.1080 O   0  0  0  0  0  1  0  0  0  0  0  0
  178.9320  178.3710  140.9690 C   0  0  0  0  0  2  0  0  0  0  0  0
  186.1310  179.3700  142.2700 C   0  0  0  0  0  2  0  0  0  0  0  0
  184.7670  179.4910  142.5490 O   0  0  0  0  0  0  0  0  0  0  0  0
  184.5780  178.8110  143.7570 C   0  0  2  0  0  3  0  0  0  0  0  0
  182.2940  179.0340  143.1020 O   0  0  0  0  0  1  0  0  0  0  0  0
  183.1340  178.9410  144.2120 C   0  0  0  0  0  2  0  0  0  0  0  0
  185.5290  179.3440  144.8260 C   0  0  0  0  0  2  0  0  0  0  0  0
  185.8140  178.3260  145.8390 N   0  0  0  0  0  0  0  0  0  0  0  0
  187.6640  177.1940  146.7820 N   0  0  0  0  0  2  0  0  0  0  0  0
  186.1340  179.0010  147.0820 C   0  0  0  0  0  2  0  0  0  0  0  0
  187.0170  177.5460  145.5220 C   0  0  1  0  0  0  0  0  0  0  0  0
  186.6410  176.3890  144.8610 F   0  0  0  0  0  0  0  0  0  0  0  0
  187.2010  178.1720  147.7530 C   0  0  0  0  0  2  0  0  0  0  0  0
  187.9360  178.2950  144.7120 O   0  0  0  0  0  0  0  0  0  0  0  0
  189.1120  177.7760  144.1540 C   0  0  0  0  0  0  0  0  0  0  0  0
  190.3510  176.0150  143.0270 C   0  0  0  0  0  3  0  0  0  0  0  0
  191.4670  178.0720  143.6450 C   0  0  0  0  0  3  0  0  0  0  0  0
  191.5060  176.8010  143.0640 C   0  0  0  0  0  3  0  0  0  0  0  0
  190.2740  178.5550  144.1900 C   0  0  0  0  0  3  0  0  0  0  0  0
  189.1580  176.5010  143.5680 C   0  0  0  0  0  3  0  0  0  0  0  0
  1  5  1  0  0  0  0
  2 13  1  0  0  0  0
  2 11  1  0  0  0  0
  3 25  1  0  0  0  0
  4  7  1  0  0  0  0
  5  9  2  0  0  0  0
  6  1  1  0  0  0  0
  7 11  2  0  0  0  0
  7  9  1  0  0  0  0
  8  4  1  0  0  0  0
  8  1  2  0  0  0  0
 10  3  2  0  0  0  0
 11 10  1  0  0  0  0
 12  2  2  0  0  0  0
 13 14  2  0  0  0  0
 14  3  1  0  0  0  0
 15 12  1  0  0  0  0
 15  4  2  0  0  0  0
 16 13  1  0  0  0  0
 16 21  1  0  0  0  0
 18 22  1  0  0  0  0
 18 17  1  0  0  0  0
 18 24  1  0  0  0  0
 19 21  1  0  0  0  0
 19 22  1  0  0  0  0
 20 17  1  0  0  0  0
 21 20  1  0  0  0  0
 24 23  1  0  0  0  0
 25 26  1  0  0  0  0
 26 27  1  0  0  0  0
 27 29  1  1  0  0  0
 27 30  1  0  0  0  0
 28 29  1  0  0  0  0
 30 31  1  0  0  0  0
 31 33  1  0  0  0  0
 32 36  1  0  0  0  0
 33 36  1  0  0  0  0
 34 35  1  6  0  0  0
 34 31  1  0  0  0  0
 34 32  1  0  0  0  0
 37 34  1  0  0  0  0
 38 42  1  0  0  0  0
 38 37  1  0  0  0  0
 39 41  2  0  0  0  0
 39 43  1  0  0  0  0
 40 42  2  0  0  0  0
 41 40  1  0  0  0  0
 43 38  2  0  0  0  0
M  END
>  <MODEL>
7

>  <REMARK>
 VINA RESULT:      -8.2      3.536      7.175
  Name = 
  11 active torsions:
  status: ('A' for Active; 'I' for Inactive)
    1  A    between atoms: S_1  and  C_34
    2  A    between atoms: S_1  and  C_35
    3  A    between atoms: C_2  and  O_6
    4  A    between atoms: C_2  and  C_13
    5  A    between atoms: C_3  and  N_4
    6  A    between atoms: C_3  and  C_12
    7  A    between atoms: O_6  and  C_12
    8  A    between atoms: C_11  and  O_14
    9  A    between atoms: C_12  and  C_17
   10  A    between atoms: O_14  and  C_22
   11  A    between atoms: N_19  and  C_37
                            x       y       z     vdW  Elec       q    Type
                         _______ _______ _______ _____ _____    ______ ____

>  <TORSDO>
F 11

$$$$
=
 OpenBabel11052416223D

 43 48  0  0  1  0  0  0  0  0999 V2000
  186.4050  178.0120  145.9740 C   0  0  0  0  0  0  0  0  0  0  0  0
  182.8370  178.8930  142.5330 C   0  0  0  0  0  0  0  0  0  0  0  0
  183.9770  178.3560  140.0810 C   0  0  0  0  0  0  0  0  0  0  0  0
  184.3390  178.5950  144.8540 C   0  0  0  0  0  0  0  0  0  0  0  0
  187.0010  177.7290  144.7420 C   0  0  0  0  0  3  0  0  0  0  0  0
  187.3270  177.8370  147.4510 Cl  0  0  0  0  0  0  0  0  0  0  0  0
  184.9380  178.3110  143.6040 C   0  0  0  0  0  0  0  0  0  0  0  0
  185.0780  178.4450  146.0310 C   0  0  0  0  0  3  0  0  0  0  0  0
  186.2720  177.8790  143.5610 C   0  0  0  0  0  3  0  0  0  0  0  0
  184.7120  178.2080  141.2130 N   0  0  0  0  0  0  0  0  0  0  0  0
  184.1770  178.4680  142.4360 C   0  0  0  0  0  0  0  0  0  0  0  0
  182.2940  179.1650  143.7930 C   0  0  0  0  0  3  0  0  0  0  0  0
  182.0900  179.0200  141.3510 C   0  0  0  0  0  0  0  0  0  0  0  0
  182.6810  178.7530  140.1570 N   0  0  0  0  0  0  0  0  0  0  0  0
  183.0480  179.0120  144.9140 N   0  0  0  0  0  0  0  0  0  0  0  0
  180.3620  179.5290  141.3700 S   0  0  0  0  0  0  0  0  0  0  0  0
  179.7280  175.6030  140.1830 C   0  0  0  0  0  2  0  0  0  0  0  0
  180.1850  175.7580  138.8020 N   0  0  0  0  0  0  0  0  0  0  0  0
  180.0240  178.1970  138.9530 C   0  0  0  0  0  2  0  0  0  0  0  0
  180.2230  176.7710  141.0310 C   0  0  0  0  0  2  0  0  0  0  0  0
  179.7160  178.0880  140.4450 C   0  0  0  0  0  3  0  0  0  0  0  0
  179.5360  176.9420  138.2380 C   0  0  0  0  0  2  0  0  0  0  0  0
  180.0570  173.4340  138.7150 O   0  0  0  0  0  1  0  0  0  0  0  0
  179.6820  174.6110  138.0670 C   0  0  0  0  0  2  0  0  0  0  0  0
  184.5700  178.0110  138.7640 C   0  0  0  0  0  2  0  0  0  0  0  0
  185.7760  178.6980  138.6080 O   0  0  0  0  0  0  0  0  0  0  0  0
  186.5040  177.9530  137.6730 C   0  0  2  0  0  3  0  0  0  0  0  0
  186.1200  176.0200  136.3260 O   0  0  0  0  0  1  0  0  0  0  0  0
  185.5580  177.2340  136.7250 C   0  0  0  0  0  2  0  0  0  0  0  0
  187.4210  176.9560  138.3770 C   0  0  0  0  0  2  0  0  0  0  0  0
  188.8310  177.2680  138.1370 N   0  0  0  0  0  0  0  0  0  0  0  0
  190.8640  177.4400  139.3320 N   0  0  0  0  0  2  0  0  0  0  0  0
  189.5440  176.0210  137.9400 C   0  0  0  0  0  2  0  0  0  0  0  0
  189.4730  177.8790  139.3080 C   0  0  1  0  0  0  0  0  0  0  0  0
  189.4300  179.2570  139.1760 F   0  0  0  0  0  0  0  0  0  0  0  0
  190.9050  176.2070  138.5630 C   0  0  0  0  0  2  0  0  0  0  0  0
  188.8310  177.4860  140.5310 O   0  0  0  0  0  0  0  0  0  0  0  0
  189.4550  177.4550  141.7850 C   0  0  0  0  0  0  0  0  0  0  0  0
  190.4390  178.5590  143.7140 C   0  0  0  0  0  3  0  0  0  0  0  0
  190.3560  176.1420  143.6170 C   0  0  0  0  0  3  0  0  0  0  0  0
  190.7100  177.3150  144.2900 C   0  0  0  0  0  3  0  0  0  0  0  0
  189.7330  176.2140  142.3680 C   0  0  0  0  0  3  0  0  0  0  0  0
  189.8120  178.6300  142.4660 C   0  0  0  0  0  3  0  0  0  0  0  0
  1  8  1  0  0  0  0
  1  6  1  0  0  0  0
  2 12  1  0  0  0  0
  3 14  1  0  0  0  0
  3 10  2  0  0  0  0
  4 15  1  0  0  0  0
  4  8  2  0  0  0  0
  5  1  2  0  0  0  0
  7  4  1  0  0  0  0
  9  7  2  0  0  0  0
  9  5  1  0  0  0  0
 10 11  1  0  0  0  0
 11  2  2  0  0  0  0
 11  7  1  0  0  0  0
 12 15  2  0  0  0  0
 13 16  1  0  0  0  0
 13  2  1  0  0  0  0
 14 13  2  0  0  0  0
 17 20  1  0  0  0  0
 18 17  1  0  0  0  0
 19 21  1  0  0  0  0
 21 20  1  0  0  0  0
 21 16  1  0  0  0  0
 22 18  1  0  0  0  0
 22 19  1  0  0  0  0
 24 23  1  0  0  0  0
 24 18  1  0  0  0  0
 25  3  1  0  0  0  0
 26 25  1  0  0  0  0
 27 29  1  6  0  0  0
 27 30  1  0  0  0  0
 27 26  1  0  0  0  0
 28 29  1  0  0  0  0
 31 30  1  0  0  0  0
 31 34  1  0  0  0  0
 33 31  1  0  0  0  0
 33 36  1  0  0  0  0
 34 35  1  6  0  0  0
 34 32  1  0  0  0  0
 34 37  1  0  0  0  0
 36 32  1  0  0  0  0
 37 38  1  0  0  0  0
 38 42  2  0  0  0  0
 38 43  1  0  0  0  0
 39 41  1  0  0  0  0
 40 41  2  0  0  0  0
 42 40  1  0  0  0  0
 43 39  2  0  0  0  0
M  END
>  <MODEL>
8

>  <REMARK>
 VINA RESULT:      -8.1      3.374      6.463
  Name = 
  11 active torsions:
  status: ('A' for Active; 'I' for Inactive)
    1  A    between atoms: S_1  and  C_34
    2  A    between atoms: S_1  and  C_35
    3  A    between atoms: C_2  and  O_6
    4  A    between atoms: C_2  and  C_13
    5  A    between atoms: C_3  and  N_4
    6  A    between atoms: C_3  and  C_12
    7  A    between atoms: O_6  and  C_12
    8  A    between atoms: C_11  and  O_14
    9  A    between atoms: C_12  and  C_17
   10  A    between atoms: O_14  and  C_22
   11  A    between atoms: N_19  and  C_37
                            x       y       z     vdW  Elec       q    Type
                         _______ _______ _______ _____ _____    ______ ____

>  <TORSDO>
F 11

$$$$
=
 OpenBabel11052416223D

 43 48  0  0  1  0  0  0  0  0999 V2000
  193.8660  175.1890  135.8840 C   0  0  0  0  0  0  0  0  0  0  0  0
  189.2560  176.9750  136.8340 C   0  0  0  0  0  0  0  0  0  0  0  0
  189.1420  177.4160  139.5530 C   0  0  0  0  0  0  0  0  0  0  0  0
  191.5810  175.9660  135.6910 C   0  0  0  0  0  0  0  0  0  0  0  0
  193.8310  175.4090  137.2640 C   0  0  0  0  0  3  0  0  0  0  0  0
  195.3140  174.5500  135.1380 Cl  0  0  0  0  0  0  0  0  0  0  0  0
  191.5410  176.1910  137.0870 C   0  0  0  0  0  0  0  0  0  0  0  0
  192.7440  175.4640  135.0990 C   0  0  0  0  0  3  0  0  0  0  0  0
  192.6730  175.9070  137.8640 C   0  0  0  0  0  3  0  0  0  0  0  0
  190.2780  176.9240  138.9970 N   0  0  0  0  0  0  0  0  0  0  0  0
  190.3630  176.6950  137.6580 C   0  0  0  0  0  0  0  0  0  0  0  0
  189.3470  176.7300  135.4600 C   0  0  0  0  0  3  0  0  0  0  0  0
  188.0970  177.5010  137.4280 C   0  0  0  0  0  0  0  0  0  0  0  0
  188.0690  177.7030  138.7710 N   0  0  0  0  0  0  0  0  0  0  0  0
  190.4940  176.2360  134.9240 N   0  0  0  0  0  0  0  0  0  0  0  0
  186.6380  177.9180  136.4570 S   0  0  0  0  0  0  0  0  0  0  0  0
  183.3950  175.7940  137.9400 C   0  0  0  0  0  2  0  0  0  0  0  0
  182.6660  176.9390  138.4850 N   0  0  0  0  0  0  0  0  0  0  0  0
  184.6640  178.3510  138.3660 C   0  0  0  0  0  2  0  0  0  0  0  0
  184.4490  176.2720  136.9440 C   0  0  0  0  0  2  0  0  0  0  0  0
  185.4110  177.2390  137.6320 C   0  0  0  0  0  3  0  0  0  0  0  0
  183.6020  177.7400  139.2750 C   0  0  0  0  0  2  0  0  0  0  0  0
  180.6400  177.3130  139.5700 O   0  0  0  0  0  1  0  0  0  0  0  0
  181.6860  176.4030  139.4120 C   0  0  0  0  0  2  0  0  0  0  0  0
  189.0970  177.7100  141.0080 C   0  0  0  0  0  2  0  0  0  0  0  0
  189.7290  176.6780  141.7060 O   0  0  0  0  0  0  0  0  0  0  0  0
  190.3630  177.3010  142.7860 C   0  0  2  0  0  3  0  0  0  0  0  0
  192.3460  177.1370  141.4690 O   0  0  0  0  0  1  0  0  0  0  0  0
  191.6400  177.9840  142.3230 C   0  0  0  0  0  2  0  0  0  0  0  0
  190.6640  176.2880  143.8890 C   0  0  0  0  0  2  0  0  0  0  0  0
  191.1150  176.9520  145.1130 N   0  0  0  0  0  0  0  0  0  0  0  0
  190.3380  177.4180  147.2970 N   0  0  0  0  0  2  0  0  0  0  0  0
  191.6870  175.9480  145.9890 C   0  0  0  0  0  2  0  0  0  0  0  0
  189.9990  177.5190  145.8820 C   0  0  1  0  0  0  0  0  0  0  0  0
  189.8520  178.8530  145.5400 F   0  0  0  0  0  0  0  0  0  0  0  0
  191.3230  176.3530  147.3950 C   0  0  0  0  0  2  0  0  0  0  0  0
  188.7730  176.8140  145.6360 O   0  0  0  0  0  0  0  0  0  0  0  0
  187.5160  177.4200  145.5110 C   0  0  0  0  0  0  0  0  0  0  0  0
  185.5720  178.5310  146.4570 C   0  0  0  0  0  3  0  0  0  0  0  0
  185.6800  178.1010  144.0770 C   0  0  0  0  0  3  0  0  0  0  0  0
  184.9990  178.6130  145.1850 C   0  0  0  0  0  3  0  0  0  0  0  0
  186.9330  177.5050  144.2420 C   0  0  0  0  0  3  0  0  0  0  0  0
  186.8270  177.9380  146.6200 C   0  0  0  0  0  3  0  0  0  0  0  0
  1  5  1  0  0  0  0
  2 13  1  0  0  0  0
  2 11  1  0  0  0  0
  3 25  1  0  0  0  0
  4  7  1  0  0  0  0
  5  9  2  0  0  0  0
  6  1  1  0  0  0  0
  7 11  2  0  0  0  0
  7  9  1  0  0  0  0
  8  4  1  0  0  0  0
  8  1  2  0  0  0  0
 10  3  2  0  0  0  0
 11 10  1  0  0  0  0
 12  2  2  0  0  0  0
 13 14  2  0  0  0  0
 14  3  1  0  0  0  0
 15 12  1  0  0  0  0
 15  4  2  0  0  0  0
 16 13  1  0  0  0  0
 16 21  1  0  0  0  0
 17 18  1  0  0  0  0
 18 22  1  0  0  0  0
 18 24  1  0  0  0  0
 19 22  1  0  0  0  0
 20 21  1  0  0  0  0
 20 17  1  0  0  0  0
 21 19  1  0  0  0  0
 24 23  1  0  0  0  0
 25 26  1  0  0  0  0
 26 27  1  0  0  0  0
 27 29  1  6  0  0  0
 27 30  1  0  0  0  0
 28 29  1  0  0  0  0
 30 31  1  0  0  0  0
 31 34  1  0  0  0  0
 31 33  1  0  0  0  0
 32 36  1  0  0  0  0
 33 36  1  0  0  0  0
 34 35  1  6  0  0  0
 34 32  1  0  0  0  0
 37 34  1  0  0  0  0
 38 37  1  0  0  0  0
 38 43  1  0  0  0  0
 39 43  2  0  0  0  0
 40 42  1  0  0  0  0
 40 41  2  0  0  0  0
 41 39  1  0  0  0  0
 42 38  2  0  0  0  0
M  END
>  <MODEL>
9

>  <REMARK>
 VINA RESULT:      -8.0      3.606      6.750
  Name = 
  11 active torsions:
  status: ('A' for Active; 'I' for Inactive)
    1  A    between atoms: S_1  and  C_34
    2  A    between atoms: S_1  and  C_35
    3  A    between atoms: C_2  and  O_6
    4  A    between atoms: C_2  and  C_13
    5  A    between atoms: C_3  and  N_4
    6  A    between atoms: C_3  and  C_12
    7  A    between atoms: O_6  and  C_12
    8  A    between atoms: C_11  and  O_14
    9  A    between atoms: C_12  and  C_17
   10  A    between atoms: O_14  and  C_22
   11  A    between atoms: N_19  and  C_37
                            x       y       z     vdW  Elec       q    Type
                         _______ _______ _______ _____ _____    ______ ____

>  <TORSDO>
F 11

$$$$
