=
 OpenBabel11052414263D

 32 36  0  0  1  0  0  0  0  0999 V2000
  187.0880  178.2470  145.7060 C   0  0  1  0  0  3  0  0  0  0  0  0
  189.3040  177.0870  145.3570 C   0  0  0  0  0  0  0  0  0  0  0  0
  186.0400  178.3680  146.8120 C   0  0  0  0  0  2  0  0  0  0  0  0
  188.3870  177.6800  146.2370 C   0  0  0  0  0  0  0  0  0  0  0  0
  190.5420  176.6170  145.8360 C   0  0  0  0  0  0  0  0  0  0  0  0
  190.8590  177.1870  140.9840 C   0  0  0  0  0  2  0  0  0  0  0  0
  188.9480  177.0280  143.8970 C   0  0  2  0  0  3  0  0  0  0  0  0
  191.7980  177.6660  143.2790 C   0  0  0  0  0  2  0  0  0  0  0  0
  191.3070  176.2930  143.4930 N   0  0  1  0  0  0  0  0  0  0  0  0
  188.7090  177.8180  147.5980 C   0  0  0  0  0  0  0  0  0  0  0  0
  191.4980  175.9180  144.8980 C   0  0  0  0  0  2  0  0  0  0  0  0
  189.9260  177.3350  148.0780 C   0  0  0  0  0  3  0  0  0  0  0  0
  187.8020  178.4210  148.4780 O   0  0  0  0  0  0  0  0  0  0  0  0
  187.5010  176.5510  143.7660 C   0  0  0  0  0  2  0  0  0  0  0  0
  186.5080  177.4560  144.5180 C   0  0  2  0  0  3  0  0  0  0  0  0
  189.8950  176.1200  143.0970 C   0  0  2  0  0  3  0  0  0  0  0  0
  190.8410  176.7270  147.2100 C   0  0  0  0  0  0  0  0  0  0  0  0
  186.6400  179.1050  148.0060 C   0  0  0  0  0  2  0  0  0  0  0  0
  191.3110  178.2710  141.9550 C   0  0  0  0  0  2  0  0  0  0  0  0
  189.7190  176.3620  141.5890 C   0  0  0  0  0  2  0  0  0  0  0  0
  192.1390  176.2460  147.7690 C   0  0  0  0  0  2  0  0  0  0  0  0
  192.5950  177.1380  148.7400 O   0  0  0  0  0  1  0  0  0  0  0  0
  185.8170  178.4040  143.5490 C   0  0  0  0  0  2  0  0  0  0  0  0
  185.8930  177.8590  142.1320 C   0  0  0  0  0  2  0  0  0  0  0  0
  186.6310  178.8440  141.2420 C   0  0  0  0  0  2  0  0  0  0  0  0
  184.8630  179.5570  139.8250 O   0  0  0  0  0  0  0  0  0  0  0  0
  186.5450  178.3840  138.7280 N   0  0  0  0  0  2  0  0  0  0  0  0
  185.9650  178.9550  139.9110 C   0  0  0  0  0  0  0  0  0  0  0  0
  187.8510  177.7290  138.6390 C   0  0  1  0  0  3  0  0  0  0  0  0
  187.8290  176.6270  137.5980 C   0  0  0  0  0  1  0  0  0  0  0  0
  188.9660  178.7220  138.3460 C   0  0  0  0  0  2  0  0  0  0  0  0
  188.6410  179.4850  137.2230 O   0  0  0  0  0  1  0  0  0  0  0  0
  1  4  1  0  0  0  0
  1  3  1  1  0  0  0
  2  5  2  0  0  0  0
  2  4  1  0  0  0  0
  3 18  1  0  0  0  0
  4 10  2  0  0  0  0
  5 17  1  0  0  0  0
  6 20  1  0  0  0  0
  6 19  1  0  0  0  0
  7 14  1  1  0  0  0
  7  2  1  0  0  0  0
  9  8  1  1  0  0  0
  9 11  1  0  0  0  0
 10 12  1  0  0  0  0
 10 13  1  0  0  0  0
 11  5  1  0  0  0  0
 14 15  1  0  0  0  0
 15 23  1  6  0  0  0
 15  1  1  0  0  0  0
 16 20  1  6  0  0  0
 16  9  1  0  0  0  0
 16  7  1  0  0  0  0
 17 21  1  0  0  0  0
 17 12  2  0  0  0  0
 18 13  1  0  0  0  0
 19  8  1  0  0  0  0
 21 22  1  0  0  0  0
 24 23  1  0  0  0  0
 25 24  1  0  0  0  0
 26 28  2  0  0  0  0
 27 28  1  0  0  0  0
 28 25  1  0  0  0  0
 29 30  1  6  0  0  0
 29 27  1  0  0  0  0
 31 29  1  0  0  0  0
 32 31  1  0  0  0  0
M  END
>  <MODEL>
1

>  <REMARK>
 VINA RESULT:      -9.2      0.000      0.000
  Name = 
  7 active torsions:
  status: ('A' for Active; 'I' for Inactive)
    1  A    between atoms: CA_3  and  N_19
    2  A    between atoms: CA_3  and  C_22
    3  A    between atoms: C_13  and  C_29
    4  A    between atoms: C_15  and  C_20
    5  A    between atoms: C_15  and  C_26
    6  A    between atoms: C_16  and  C_20
    7  A    between atoms: C_16  and  C_27
                            x       y       z     vdW  Elec       q    Type
                         _______ _______ _______ _____ _____    ______ ____

>  <TORSDO>
F 7

$$$$
=
 OpenBabel11052414263D

 32 36  0  0  1  0  0  0  0  0999 V2000
  185.7770  178.7100  143.3930 C   0  0  1  0  0  3  0  0  0  0  0  0
  187.6130  177.8250  144.8840 C   0  0  0  0  0  0  0  0  0  0  0  0
  184.2490  178.7450  143.3850 C   0  0  0  0  0  2  0  0  0  0  0  0
  186.3130  178.3360  144.7580 C   0  0  0  0  0  0  0  0  0  0  0  0
  188.1400  177.5370  146.1570 C   0  0  0  0  0  0  0  0  0  0  0  0
  191.8490  177.9310  142.9860 C   0  0  0  0  0  2  0  0  0  0  0  0
  188.4330  177.6580  143.6330 C   0  0  2  0  0  3  0  0  0  0  0  0
  190.7990  178.6240  145.1760 C   0  0  0  0  0  2  0  0  0  0  0  0
  190.3840  177.2110  145.1380 N   0  0  1  0  0  0  0  0  0  0  0  0
  185.5380  178.5720  145.9050 C   0  0  0  0  0  0  0  0  0  0  0  0
  189.5160  176.9240  146.2850 C   0  0  0  0  0  2  0  0  0  0  0  0
  186.0500  178.2680  147.1670 C   0  0  0  0  0  3  0  0  0  0  0  0
  184.2440  179.0930  145.7850 O   0  0  0  0  0  0  0  0  0  0  0  0
  187.5630  176.9980  142.5640 C   0  0  0  0  0  2  0  0  0  0  0  0
  186.2860  177.8010  142.2570 C   0  0  2  0  0  3  0  0  0  0  0  0
  189.7130  176.8440  143.8740 C   0  0  2  0  0  3  0  0  0  0  0  0
  187.3410  177.7430  147.3010 C   0  0  0  0  0  0  0  0  0  0  0  0
  183.7530  179.6040  144.5450 C   0  0  0  0  0  2  0  0  0  0  0  0
  191.3930  179.1050  143.8450 C   0  0  0  0  0  2  0  0  0  0  0  0
  190.6750  176.9960  142.6840 C   0  0  0  0  0  2  0  0  0  0  0  0
  187.8520  177.4550  148.6740 C   0  0  0  0  0  2  0  0  0  0  0  0
  188.8300  178.3870  149.0200 O   0  0  0  0  0  1  0  0  0  0  0  0
  186.4640  178.6110  140.9820 C   0  0  0  0  0  2  0  0  0  0  0  0
  187.8040  178.2960  140.3380 C   0  0  0  0  0  2  0  0  0  0  0  0
  187.6120  178.0360  138.8540 C   0  0  0  0  0  2  0  0  0  0  0  0
  188.8940  179.7060  137.7530 O   0  0  0  0  0  0  0  0  0  0  0  0
  189.8450  177.5840  137.6920 N   0  0  0  0  0  2  0  0  0  0  0  0
  188.8040  178.4930  138.0800 C   0  0  0  0  0  0  0  0  0  0  0  0
  189.9360  176.1700  138.0590 C   0  0  1  0  0  3  0  0  0  0  0  0
  189.2460  175.3010  137.0260 C   0  0  0  0  0  1  0  0  0  0  0  0
  191.3770  175.7270  138.2580 C   0  0  0  0  0  2  0  0  0  0  0  0
  191.5110  174.3780  137.9230 O   0  0  0  0  0  1  0  0  0  0  0  0
  1  3  1  1  0  0  0
  1  4  1  0  0  0  0
  2  5  1  0  0  0  0
  3 18  1  0  0  0  0
  4  2  2  0  0  0  0
  4 10  1  0  0  0  0
  5 11  1  0  0  0  0
  5 17  2  0  0  0  0
  6 19  1  0  0  0  0
  7 14  1  6  0  0  0
  7 16  1  0  0  0  0
  7  2  1  0  0  0  0
  9  8  1  6  0  0  0
  9 11  1  0  0  0  0
 10 12  2  0  0  0  0
 12 17  1  0  0  0  0
 13 10  1  0  0  0  0
 15 23  1  6  0  0  0
 15 14  1  0  0  0  0
 15  1  1  0  0  0  0
 16 20  1  6  0  0  0
 16  9  1  0  0  0  0
 17 21  1  0  0  0  0
 18 13  1  0  0  0  0
 19  8  1  0  0  0  0
 20  6  1  0  0  0  0
 21 22  1  0  0  0  0
 24 23  1  0  0  0  0
 25 24  1  0  0  0  0
 26 28  2  0  0  0  0
 27 29  1  0  0  0  0
 27 28  1  0  0  0  0
 28 25  1  0  0  0  0
 29 30  1  6  0  0  0
 29 31  1  0  0  0  0
 32 31  1  0  0  0  0
M  END
>  <MODEL>
2

>  <REMARK>
 VINA RESULT:      -9.0      1.979      3.189
  Name = 
  7 active torsions:
  status: ('A' for Active; 'I' for Inactive)
    1  A    between atoms: CA_3  and  N_19
    2  A    between atoms: CA_3  and  C_22
    3  A    between atoms: C_13  and  C_29
    4  A    between atoms: C_15  and  C_20
    5  A    between atoms: C_15  and  C_26
    6  A    between atoms: C_16  and  C_20
    7  A    between atoms: C_16  and  C_27
                            x       y       z     vdW  Elec       q    Type
                         _______ _______ _______ _____ _____    ______ ____

>  <TORSDO>
F 7

$$$$
=
 OpenBabel11052414263D

 32 36  0  0  1  0  0  0  0  0999 V2000
  187.0310  178.1210  145.1050 C   0  0  1  0  0  3  0  0  0  0  0  0
  189.3110  177.0400  145.0140 C   0  0  0  0  0  0  0  0  0  0  0  0
  185.8500  178.1830  146.0730 C   0  0  0  0  0  2  0  0  0  0  0  0
  188.2730  177.5840  145.7830 C   0  0  0  0  0  0  0  0  0  0  0  0
  190.4960  176.6000  145.6350 C   0  0  0  0  0  0  0  0  0  0  0  0
  191.3920  177.2890  140.8710 C   0  0  0  0  0  2  0  0  0  0  0  0
  189.1410  177.0030  143.5200 C   0  0  2  0  0  3  0  0  0  0  0  0
  192.0220  177.7460  143.2740 C   0  0  0  0  0  2  0  0  0  0  0  0
  191.5560  176.3540  143.4000 N   0  0  1  0  0  0  0  0  0  0  0  0
  188.4180  177.7020  147.1760 C   0  0  0  0  0  0  0  0  0  0  0  0
  191.5850  175.9530  144.8100 C   0  0  0  0  0  2  0  0  0  0  0  0
  189.5820  177.2470  147.7950 C   0  0  0  0  0  3  0  0  0  0  0  0
  187.3890  178.2550  147.9460 O   0  0  0  0  0  0  0  0  0  0  0  0
  187.7390  176.4840  143.2010 C   0  0  0  0  0  2  0  0  0  0  0  0
  186.6300  177.3390  143.8390 C   0  0  2  0  0  3  0  0  0  0  0  0
  190.2110  176.1440  142.8280 C   0  0  2  0  0  3  0  0  0  0  0  0
  190.6180  176.6890  147.0370 C   0  0  0  0  0  0  0  0  0  0  0  0
  186.2720  178.9130  147.3460 C   0  0  0  0  0  2  0  0  0  0  0  0
  191.6820  178.3650  141.9100 C   0  0  0  0  0  2  0  0  0  0  0  0
  190.2150  176.4150  141.3140 C   0  0  0  0  0  2  0  0  0  0  0  0
  191.8530  176.2370  147.7440 C   0  0  0  0  0  2  0  0  0  0  0  0
  192.3350  177.2650  148.5550 O   0  0  0  0  0  1  0  0  0  0  0  0
  186.0320  178.2860  142.8090 C   0  0  0  0  0  2  0  0  0  0  0  0
  184.5650  177.9620  142.5820 C   0  0  0  0  0  2  0  0  0  0  0  0
  183.7300  179.2220  142.7410 C   0  0  0  0  0  2  0  0  0  0  0  0
  182.6340  178.7790  144.8020 O   0  0  0  0  0  0  0  0  0  0  0  0
  181.2080  178.8670  142.9660 N   0  0  0  0  0  2  0  0  0  0  0  0
  182.5130  178.9480  143.5600 C   0  0  0  0  0  0  0  0  0  0  0  0
  180.8830  179.1200  141.5620 C   0  0  1  0  0  3  0  0  0  0  0  0
  180.5460  177.8260  140.8460 C   0  0  0  0  0  1  0  0  0  0  0  0
  179.7520  180.1260  141.4130 C   0  0  0  0  0  2  0  0  0  0  0  0
  179.7450  181.0000  142.5010 O   0  0  0  0  0  1  0  0  0  0  0  0
  1  4  1  0  0  0  0
  1  3  1  1  0  0  0
  2  5  2  0  0  0  0
  2  4  1  0  0  0  0
  3 18  1  0  0  0  0
  4 10  2  0  0  0  0
  5 17  1  0  0  0  0
  6 20  1  0  0  0  0
  6 19  1  0  0  0  0
  7 14  1  1  0  0  0
  7  2  1  0  0  0  0
  9  8  1  1  0  0  0
  9 11  1  0  0  0  0
 10 12  1  0  0  0  0
 10 13  1  0  0  0  0
 11  5  1  0  0  0  0
 14 15  1  0  0  0  0
 15 23  1  6  0  0  0
 15  1  1  0  0  0  0
 16 20  1  6  0  0  0
 16  9  1  0  0  0  0
 16  7  1  0  0  0  0
 17 21  1  0  0  0  0
 17 12  2  0  0  0  0
 18 13  1  0  0  0  0
 19  8  1  0  0  0  0
 21 22  1  0  0  0  0
 24 25  1  0  0  0  0
 24 23  1  0  0  0  0
 25 28  1  0  0  0  0
 27 28  1  0  0  0  0
 28 26  2  0  0  0  0
 29 30  1  1  0  0  0
 29 27  1  0  0  0  0
 31 29  1  0  0  0  0
 31 32  1  0  0  0  0
M  END
>  <MODEL>
3

>  <REMARK>
 VINA RESULT:      -8.9      2.727      3.753
  Name = 
  7 active torsions:
  status: ('A' for Active; 'I' for Inactive)
    1  A    between atoms: CA_3  and  N_19
    2  A    between atoms: CA_3  and  C_22
    3  A    between atoms: C_13  and  C_29
    4  A    between atoms: C_15  and  C_20
    5  A    between atoms: C_15  and  C_26
    6  A    between atoms: C_16  and  C_20
    7  A    between atoms: C_16  and  C_27
                            x       y       z     vdW  Elec       q    Type
                         _______ _______ _______ _____ _____    ______ ____

>  <TORSDO>
F 7

$$$$
=
 OpenBabel11052414263D

 32 36  0  0  1  0  0  0  0  0999 V2000
  187.1220  178.2290  145.5000 C   0  0  1  0  0  3  0  0  0  0  0  0
  189.3340  177.0490  145.1900 C   0  0  0  0  0  0  0  0  0  0  0  0
  186.0460  178.3430  146.5800 C   0  0  0  0  0  2  0  0  0  0  0  0
  188.4000  177.6380  146.0560 C   0  0  0  0  0  0  0  0  0  0  0  0
  190.5530  176.5570  145.6940 C   0  0  0  0  0  0  0  0  0  0  0  0
  191.0060  177.2060  140.8630 C   0  0  0  0  0  2  0  0  0  0  0  0
  189.0160  177.0200  143.7200 C   0  0  2  0  0  3  0  0  0  0  0  0
  191.8890  177.6350  143.1900 C   0  0  0  0  0  2  0  0  0  0  0  0
  191.3770  176.2650  143.3670 N   0  0  1  0  0  0  0  0  0  0  0  0
  188.6870  177.7490  147.4270 C   0  0  0  0  0  0  0  0  0  0  0  0
  191.5260  175.8630  144.7690 C   0  0  0  0  0  2  0  0  0  0  0  0
  189.8850  177.2440  147.9300 C   0  0  0  0  0  3  0  0  0  0  0  0
  187.7630  178.3470  148.2920 O   0  0  0  0  0  0  0  0  0  0  0  0
  187.5680  176.5620  143.5430 C   0  0  0  0  0  2  0  0  0  0  0  0
  186.5650  177.4650  144.2830 C   0  0  2  0  0  3  0  0  0  0  0  0
  189.9730  176.1140  142.9300 C   0  0  2  0  0  3  0  0  0  0  0  0
  190.8160  176.6400  147.0770 C   0  0  0  0  0  0  0  0  0  0  0  0
  186.6230  179.0540  147.8020 C   0  0  0  0  0  2  0  0  0  0  0  0
  191.4440  178.2680  141.8630 C   0  0  0  0  0  2  0  0  0  0  0  0
  189.8410  176.3850  141.4220 C   0  0  0  0  0  2  0  0  0  0  0  0
  192.0930  176.1340  147.6620 C   0  0  0  0  0  2  0  0  0  0  0  0
  192.5030  176.9730  148.6980 O   0  0  0  0  0  1  0  0  0  0  0  0
  185.9110  178.4380  143.3130 C   0  0  0  0  0  2  0  0  0  0  0  0
  184.3980  178.3240  143.3910 C   0  0  0  0  0  2  0  0  0  0  0  0
  183.8170  178.2380  141.9890 C   0  0  0  0  0  2  0  0  0  0  0  0
  181.8300  178.9880  143.0550 O   0  0  0  0  0  0  0  0  0  0  0  0
  181.7220  178.9940  140.7320 N   0  0  0  0  0  2  0  0  0  0  0  0
  182.4180  178.7580  141.9660 C   0  0  0  0  0  0  0  0  0  0  0  0
  182.2840  178.8590  139.3870 C   0  0  1  0  0  3  0  0  0  0  0  0
  181.2570  178.2840  138.4300 C   0  0  0  0  0  1  0  0  0  0  0  0
  182.8250  180.1800  138.8620 C   0  0  0  0  0  2  0  0  0  0  0  0
  184.2040  180.2460  139.0690 O   0  0  0  0  0  1  0  0  0  0  0  0
  1  4  1  0  0  0  0
  1  3  1  1  0  0  0
  2  5  2  0  0  0  0
  2  4  1  0  0  0  0
  3 18  1  0  0  0  0
  4 10  2  0  0  0  0
  5 17  1  0  0  0  0
  6 20  1  0  0  0  0
  6 19  1  0  0  0  0
  7 14  1  1  0  0  0
  7  2  1  0  0  0  0
  9  8  1  1  0  0  0
  9 11  1  0  0  0  0
 10 12  1  0  0  0  0
 10 13  1  0  0  0  0
 11  5  1  0  0  0  0
 14 15  1  0  0  0  0
 15 23  1  6  0  0  0
 15  1  1  0  0  0  0
 16 20  1  6  0  0  0
 16  9  1  0  0  0  0
 16  7  1  0  0  0  0
 17 21  1  0  0  0  0
 17 12  2  0  0  0  0
 18 13  1  0  0  0  0
 19  8  1  0  0  0  0
 21 22  1  0  0  0  0
 23 24  1  0  0  0  0
 25 24  1  0  0  0  0
 27 28  1  0  0  0  0
 28 25  1  0  0  0  0
 28 26  2  0  0  0  0
 29 30  1  6  0  0  0
 29 27  1  0  0  0  0
 31 32  1  0  0  0  0
 31 29  1  0  0  0  0
M  END
>  <MODEL>
4

>  <REMARK>
 VINA RESULT:      -8.8      1.940      2.630
  Name = 
  7 active torsions:
  status: ('A' for Active; 'I' for Inactive)
    1  A    between atoms: CA_3  and  N_19
    2  A    between atoms: CA_3  and  C_22
    3  A    between atoms: C_13  and  C_29
    4  A    between atoms: C_15  and  C_20
    5  A    between atoms: C_15  and  C_26
    6  A    between atoms: C_16  and  C_20
    7  A    between atoms: C_16  and  C_27
                            x       y       z     vdW  Elec       q    Type
                         _______ _______ _______ _____ _____    ______ ____

>  <TORSDO>
F 7

$$$$
=
 OpenBabel11052414263D

 32 36  0  0  1  0  0  0  0  0999 V2000
  185.5310  178.7450  143.4860 C   0  0  1  0  0  3  0  0  0  0  0  0
  187.4390  177.8380  144.8690 C   0  0  0  0  0  0  0  0  0  0  0  0
  184.0030  178.7590  143.5430 C   0  0  0  0  0  2  0  0  0  0  0  0
  186.1290  178.3350  144.8140 C   0  0  0  0  0  0  0  0  0  0  0  0
  188.0230  177.5180  146.1090 C   0  0  0  0  0  0  0  0  0  0  0  0
  191.5880  178.0630  142.7990 C   0  0  0  0  0  2  0  0  0  0  0  0
  188.2070  177.7230  143.5800 C   0  0  2  0  0  3  0  0  0  0  0  0
  190.6240  178.6720  145.0530 C   0  0  0  0  0  2  0  0  0  0  0  0
  190.2250  177.2550  144.9860 N   0  0  1  0  0  0  0  0  0  0  0  0
  185.4000  178.5240  146.0000 C   0  0  0  0  0  0  0  0  0  0  0  0
  189.4100  176.9200  146.1590 C   0  0  0  0  0  2  0  0  0  0  0  0
  185.9690  178.1870  147.2280 C   0  0  0  0  0  3  0  0  0  0  0  0
  184.0950  179.0310  145.9510 O   0  0  0  0  0  0  0  0  0  0  0  0
  187.3010  177.0840  142.5280 C   0  0  0  0  0  2  0  0  0  0  0  0
  186.0020  177.8790  142.3010 C   0  0  2  0  0  3  0  0  0  0  0  0
  189.5060  176.9180  143.7410 C   0  0  2  0  0  3  0  0  0  0  0  0
  187.2710  177.6770  147.2910 C   0  0  0  0  0  0  0  0  0  0  0  0
  183.5460  179.5740  144.7500 C   0  0  0  0  0  2  0  0  0  0  0  0
  191.1550  179.2030  143.7130 C   0  0  0  0  0  2  0  0  0  0  0  0
  190.4140  177.1220  142.5160 C   0  0  0  0  0  2  0  0  0  0  0  0
  187.8430  177.3520  148.6320 C   0  0  0  0  0  2  0  0  0  0  0  0
  188.6760  178.3880  149.0530 O   0  0  0  0  0  1  0  0  0  0  0  0
  186.1150  178.7310  141.0460 C   0  0  0  0  0  2  0  0  0  0  0  0
  184.9090  178.5120  140.1480 C   0  0  0  0  0  2  0  0  0  0  0  0
  185.2410  178.9410  138.7290 C   0  0  0  0  0  2  0  0  0  0  0  0
  184.7290  177.0580  137.3730 O   0  0  0  0  0  0  0  0  0  0  0  0
  187.0060  177.4090  137.6910 N   0  0  0  0  0  2  0  0  0  0  0  0
  185.6300  177.7630  137.8990 C   0  0  0  0  0  0  0  0  0  0  0  0
  188.1700  178.1640  138.1570 C   0  0  1  0  0  3  0  0  0  0  0  0
  189.0030  177.3320  139.1130 C   0  0  0  0  0  1  0  0  0  0  0  0
  189.0210  178.6660  137.0010 C   0  0  0  0  0  2  0  0  0  0  0  0
  188.6940  177.9750  135.8340 O   0  0  0  0  0  1  0  0  0  0  0  0
  1  3  1  1  0  0  0
  1  4  1  0  0  0  0
  2  5  1  0  0  0  0
  3 18  1  0  0  0  0
  4  2  2  0  0  0  0
  4 10  1  0  0  0  0
  5 11  1  0  0  0  0
  5 17  2  0  0  0  0
  6 19  1  0  0  0  0
  7 14  1  6  0  0  0
  7 16  1  0  0  0  0
  7  2  1  0  0  0  0
  9  8  1  6  0  0  0
  9 11  1  0  0  0  0
 10 12  2  0  0  0  0
 12 17  1  0  0  0  0
 13 10  1  0  0  0  0
 15 23  1  6  0  0  0
 15 14  1  0  0  0  0
 15  1  1  0  0  0  0
 16 20  1  6  0  0  0
 16  9  1  0  0  0  0
 17 21  1  0  0  0  0
 18 13  1  0  0  0  0
 19  8  1  0  0  0  0
 20  6  1  0  0  0  0
 21 22  1  0  0  0  0
 24 23  1  0  0  0  0
 25 24  1  0  0  0  0
 26 28  2  0  0  0  0
 27 28  1  0  0  0  0
 27 29  1  0  0  0  0
 28 25  1  0  0  0  0
 29 30  1  1  0  0  0
 31 29  1  0  0  0  0
 32 31  1  0  0  0  0
M  END
>  <MODEL>
5

>  <REMARK>
 VINA RESULT:      -8.5      1.681      2.809
  Name = 
  7 active torsions:
  status: ('A' for Active; 'I' for Inactive)
    1  A    between atoms: CA_3  and  N_19
    2  A    between atoms: CA_3  and  C_22
    3  A    between atoms: C_13  and  C_29
    4  A    between atoms: C_15  and  C_20
    5  A    between atoms: C_15  and  C_26
    6  A    between atoms: C_16  and  C_20
    7  A    between atoms: C_16  and  C_27
                            x       y       z     vdW  Elec       q    Type
                         _______ _______ _______ _____ _____    ______ ____

>  <TORSDO>
F 7

$$$$
=
 OpenBabel11052414263D

 32 36  0  0  1  0  0  0  0  0999 V2000
  185.3310  178.2300  143.6930 C   0  0  1  0  0  3  0  0  0  0  0  0
  183.3690  178.6280  142.1540 C   0  0  0  0  0  0  0  0  0  0  0  0
  185.8360  178.7570  145.0360 C   0  0  0  0  0  2  0  0  0  0  0  0
  183.8860  178.6160  143.4570 C   0  0  0  0  0  0  0  0  0  0  0  0
  182.0090  178.9220  141.9350 C   0  0  0  0  0  0  0  0  0  0  0  0
  183.7700  176.6430  137.9770 C   0  0  0  0  0  2  0  0  0  0  0  0
  184.2890  178.2590  141.0230 C   0  0  2  0  0  3  0  0  0  0  0  0
  182.0110  176.7810  139.7830 C   0  0  0  0  0  2  0  0  0  0  0  0
  182.2550  178.2170  139.5640 N   0  0  1  0  0  0  0  0  0  0  0  0
  183.0450  178.8870  144.5490 C   0  0  0  0  0  0  0  0  0  0  0  0
  181.4710  179.0000  140.5250 C   0  0  0  0  0  2  0  0  0  0  0  0
  181.7030  179.2000  144.3330 C   0  0  0  0  0  3  0  0  0  0  0  0
  183.5540  178.8650  145.8530 O   0  0  0  0  0  0  0  0  0  0  0  0
  185.6160  178.9930  141.2140 C   0  0  0  0  0  2  0  0  0  0  0  0
  186.2820  178.6730  142.5650 C   0  0  2  0  0  3  0  0  0  0  0  0
  183.6850  178.5760  139.6460 C   0  0  2  0  0  3  0  0  0  0  0  0
  181.1810  179.2290  143.0340 C   0  0  0  0  0  0  0  0  0  0  0  0
  184.8590  178.3600  146.1400 C   0  0  0  0  0  2  0  0  0  0  0  0
  183.0490  175.8890  139.0880 C   0  0  0  0  0  2  0  0  0  0  0  0
  184.4870  177.8740  138.5370 C   0  0  0  0  0  2  0  0  0  0  0  0
  179.7330  179.5470  142.8570 C   0  0  0  0  0  2  0  0  0  0  0  0
  178.9560  178.4770  143.3010 O   0  0  0  0  0  1  0  0  0  0  0  0
  187.3870  177.6430  142.3810 C   0  0  0  0  0  2  0  0  0  0  0  0
  188.5570  178.2530  141.6280 C   0  0  0  0  0  2  0  0  0  0  0  0
  189.8110  178.1830  142.4840 C   0  0  0  0  0  2  0  0  0  0  0  0
  190.2930  176.0030  141.6710 O   0  0  0  0  0  0  0  0  0  0  0  0
  190.5970  176.2520  143.9640 N   0  0  0  0  0  2  0  0  0  0  0  0
  190.2430  176.7670  142.6710 C   0  0  0  0  0  0  0  0  0  0  0  0
  190.6740  177.0210  145.2060 C   0  0  1  0  0  3  0  0  0  0  0  0
  189.3070  177.1370  145.8530 C   0  0  0  0  0  1  0  0  0  0  0  0
  191.6800  176.4270  146.1810 C   0  0  0  0  0  2  0  0  0  0  0  0
  191.6410  177.1230  147.3900 O   0  0  0  0  0  1  0  0  0  0  0  0
  1  3  1  1  0  0  0
  2  4  1  0  0  0  0
  3 18  1  0  0  0  0
  4  1  1  0  0  0  0
  4 10  2  0  0  0  0
  5  2  2  0  0  0  0
  5 17  1  0  0  0  0
  6 20  1  0  0  0  0
  6 19  1  0  0  0  0
  7 14  1  1  0  0  0
  7  2  1  0  0  0  0
  9 16  1  0  0  0  0
  9  8  1  1  0  0  0
  9 11  1  0  0  0  0
 10 13  1  0  0  0  0
 11  5  1  0  0  0  0
 12 10  1  0  0  0  0
 13 18  1  0  0  0  0
 14 15  1  0  0  0  0
 15 23  1  6  0  0  0
 15  1  1  0  0  0  0
 16 20  1  6  0  0  0
 16  7  1  0  0  0  0
 17 12  2  0  0  0  0
 19  8  1  0  0  0  0
 21 17  1  0  0  0  0
 21 22  1  0  0  0  0
 24 23  1  0  0  0  0
 24 25  1  0  0  0  0
 25 28  1  0  0  0  0
 26 28  2  0  0  0  0
 27 29  1  0  0  0  0
 28 27  1  0  0  0  0
 29 30  1  1  0  0  0
 29 31  1  0  0  0  0
 31 32  1  0  0  0  0
M  END
>  <MODEL>
6

>  <REMARK>
 VINA RESULT:      -8.4      3.319      7.818
  Name = 
  7 active torsions:
  status: ('A' for Active; 'I' for Inactive)
    1  A    between atoms: CA_3  and  N_19
    2  A    between atoms: CA_3  and  C_22
    3  A    between atoms: C_13  and  C_29
    4  A    between atoms: C_15  and  C_20
    5  A    between atoms: C_15  and  C_26
    6  A    between atoms: C_16  and  C_20
    7  A    between atoms: C_16  and  C_27
                            x       y       z     vdW  Elec       q    Type
                         _______ _______ _______ _____ _____    ______ ____

>  <TORSDO>
F 7

$$$$
=
 OpenBabel11052414263D

 32 36  0  0  1  0  0  0  0  0999 V2000
  185.4720  178.8020  143.4650 C   0  0  1  0  0  3  0  0  0  0  0  0
  187.3770  177.8550  144.8260 C   0  0  0  0  0  0  0  0  0  0  0  0
  183.9440  178.8180  143.5200 C   0  0  0  0  0  2  0  0  0  0  0  0
  186.0670  178.3550  144.7820 C   0  0  0  0  0  0  0  0  0  0  0  0
  187.9580  177.5000  146.0570 C   0  0  0  0  0  0  0  0  0  0  0  0
  191.5300  178.1290  142.7690 C   0  0  0  0  0  2  0  0  0  0  0  0
  188.1460  177.7740  143.5350 C   0  0  2  0  0  3  0  0  0  0  0  0
  190.5630  178.6780  145.0370 C   0  0  0  0  0  2  0  0  0  0  0  0
  190.1620  177.2640  144.9310 N   0  0  1  0  0  0  0  0  0  0  0  0
  185.3370  178.5130  145.9720 C   0  0  0  0  0  0  0  0  0  0  0  0
  189.3450  176.8980  146.0920 C   0  0  0  0  0  2  0  0  0  0  0  0
  185.9040  178.1420  147.1910 C   0  0  0  0  0  3  0  0  0  0  0  0
  184.0340  179.0230  145.9350 O   0  0  0  0  0  0  0  0  0  0  0  0
  187.2410  177.1660  142.4650 C   0  0  0  0  0  2  0  0  0  0  0  0
  185.9440  177.9690  142.2580 C   0  0  2  0  0  3  0  0  0  0  0  0
  189.4440  176.9630  143.6760 C   0  0  2  0  0  3  0  0  0  0  0  0
  187.2040  177.6280  147.2420 C   0  0  0  0  0  0  0  0  0  0  0  0
  183.4870  179.6000  144.7490 C   0  0  0  0  0  2  0  0  0  0  0  0
  191.0970  179.2440  143.7130 C   0  0  0  0  0  2  0  0  0  0  0  0
  190.3540  177.1980  142.4590 C   0  0  0  0  0  2  0  0  0  0  0  0
  187.7740  177.2650  148.5740 C   0  0  0  0  0  2  0  0  0  0  0  0
  188.5330  178.3270  149.0680 O   0  0  0  0  0  1  0  0  0  0  0  0
  186.0610  178.8550  141.0260 C   0  0  0  0  0  2  0  0  0  0  0  0
  185.1530  178.3440  139.9200 C   0  0  0  0  0  2  0  0  0  0  0  0
  183.7860  178.9980  140.0340 C   0  0  0  0  0  2  0  0  0  0  0  0
  183.0140  176.7520  140.0470 O   0  0  0  0  0  0  0  0  0  0  0  0
  181.3630  178.3270  140.4970 N   0  0  0  0  0  2  0  0  0  0  0  0
  182.7190  177.9670  140.1910 C   0  0  0  0  0  0  0  0  0  0  0  0
  180.8720  179.6770  140.7780 C   0  0  1  0  0  3  0  0  0  0  0  0
  180.3140  180.3180  139.5220 C   0  0  0  0  0  1  0  0  0  0  0  0
  179.8350  179.6840  141.8910 C   0  0  0  0  0  2  0  0  0  0  0  0
  180.1810  180.6290  142.8580 O   0  0  0  0  0  1  0  0  0  0  0  0
  1  3  1  1  0  0  0
  1  4  1  0  0  0  0
  2  5  1  0  0  0  0
  3 18  1  0  0  0  0
  4  2  2  0  0  0  0
  4 10  1  0  0  0  0
  5 11  1  0  0  0  0
  5 17  2  0  0  0  0
  6 19  1  0  0  0  0
  7 14  1  6  0  0  0
  7 16  1  0  0  0  0
  7  2  1  0  0  0  0
  9  8  1  1  0  0  0
  9 11  1  0  0  0  0
 10 12  2  0  0  0  0
 12 17  1  0  0  0  0
 13 10  1  0  0  0  0
 15 23  1  6  0  0  0
 15 14  1  0  0  0  0
 15  1  1  0  0  0  0
 16 20  1  6  0  0  0
 16  9  1  0  0  0  0
 17 21  1  0  0  0  0
 18 13  1  0  0  0  0
 19  8  1  0  0  0  0
 20  6  1  0  0  0  0
 21 22  1  0  0  0  0
 24 25  1  0  0  0  0
 24 23  1  0  0  0  0
 25 28  1  0  0  0  0
 26 28  2  0  0  0  0
 27 29  1  0  0  0  0
 28 27  1  0  0  0  0
 29 30  1  6  0  0  0
 29 31  1  0  0  0  0
 31 32  1  0  0  0  0
M  END
>  <MODEL>
7

>  <REMARK>
 VINA RESULT:      -8.2      2.813      4.385
  Name = 
  7 active torsions:
  status: ('A' for Active; 'I' for Inactive)
    1  A    between atoms: CA_3  and  N_19
    2  A    between atoms: CA_3  and  C_22
    3  A    between atoms: C_13  and  C_29
    4  A    between atoms: C_15  and  C_20
    5  A    between atoms: C_15  and  C_26
    6  A    between atoms: C_16  and  C_20
    7  A    between atoms: C_16  and  C_27
                            x       y       z     vdW  Elec       q    Type
                         _______ _______ _______ _____ _____    ______ ____

>  <TORSDO>
F 7

$$$$
=
 OpenBabel11052414263D

 32 36  0  0  1  0  0  0  0  0999 V2000
  188.6040  177.1140  142.1130 C   0  0  1  0  0  3  0  0  0  0  0  0
  186.4010  178.1990  142.7020 C   0  0  0  0  0  0  0  0  0  0  0  0
  189.9940  176.9740  142.7340 C   0  0  0  0  0  2  0  0  0  0  0  0
  187.5920  177.5950  143.1300 C   0  0  0  0  0  0  0  0  0  0  0  0
  185.4270  178.5880  143.6410 C   0  0  0  0  0  0  0  0  0  0  0  0
  183.3140  178.2840  139.2350 C   0  0  0  0  0  2  0  0  0  0  0  0
  186.1790  178.3560  141.2220 C   0  0  2  0  0  3  0  0  0  0  0  0
  183.3180  177.6360  141.6760 C   0  0  0  0  0  2  0  0  0  0  0  0
  183.8300  179.0130  141.7840 N   0  0  1  0  0  0  0  0  0  0  0  0
  187.8090  177.3660  144.4990 C   0  0  0  0  0  0  0  0  0  0  0  0
  184.1750  179.2990  143.1800 C   0  0  0  0  0  2  0  0  0  0  0  0
  186.8550  177.7700  145.4330 C   0  0  0  0  0  3  0  0  0  0  0  0
  188.9910  176.7520  144.9310 O   0  0  0  0  0  0  0  0  0  0  0  0
  187.4610  178.9000  140.5920 C   0  0  0  0  0  2  0  0  0  0  0  0
  188.6800  177.9960  140.8520 C   0  0  2  0  0  3  0  0  0  0  0  0
  184.9850  179.2680  140.9000 C   0  0  2  0  0  3  0  0  0  0  0  0
  185.6700  178.3870  145.0160 C   0  0  0  0  0  0  0  0  0  0  0  0
  189.9010  176.1450  144.0120 C   0  0  0  0  0  2  0  0  0  0  0  0
  183.2800  177.1280  140.2270 C   0  0  0  0  0  2  0  0  0  0  0  0
  184.5830  179.1200  139.4230 C   0  0  0  0  0  2  0  0  0  0  0  0
  184.6700  178.7810  146.0520 C   0  0  0  0  0  2  0  0  0  0  0  0
  185.3140  179.0020  147.2700 O   0  0  0  0  0  1  0  0  0  0  0  0
  188.9710  177.1350  139.6310 C   0  0  0  0  0  2  0  0  0  0  0  0
  190.1520  177.6960  138.8580 C   0  0  0  0  0  2  0  0  0  0  0  0
  189.7770  177.8570  137.3940 C   0  0  0  0  0  2  0  0  0  0  0  0
  189.0560  180.1120  137.5940 O   0  0  0  0  0  0  0  0  0  0  0  0
  187.4740  178.6870  136.6550 N   0  0  0  0  0  2  0  0  0  0  0  0
  188.7680  178.9430  137.2240 C   0  0  0  0  0  0  0  0  0  0  0  0
  187.0140  177.4140  136.1010 C   0  0  1  0  0  3  0  0  0  0  0  0
  186.0150  176.7520  137.0310 C   0  0  0  0  0  1  0  0  0  0  0  0
  186.4210  177.5810  134.7100 C   0  0  0  0  0  2  0  0  0  0  0  0
  185.1080  177.1080  134.6910 O   0  0  0  0  0  1  0  0  0  0  0  0
  1  3  1  1  0  0  0
  1  4  1  0  0  0  0
  2  4  2  0  0  0  0
  2  5  1  0  0  0  0
  3 18  1  0  0  0  0
  4 10  1  0  0  0  0
  5 17  2  0  0  0  0
  6 20  1  0  0  0  0
  6 19  1  0  0  0  0
  7 14  1  6  0  0  0
  7  2  1  0  0  0  0
  9  8  1  1  0  0  0
  9 11  1  0  0  0  0
 10 13  1  0  0  0  0
 10 12  2  0  0  0  0
 11  5  1  0  0  0  0
 14 15  1  0  0  0  0
 15 23  1  6  0  0  0
 15  1  1  0  0  0  0
 16 20  1  6  0  0  0
 16  7  1  0  0  0  0
 16  9  1  0  0  0  0
 17 12  1  0  0  0  0
 17 21  1  0  0  0  0
 18 13  1  0  0  0  0
 19  8  1  0  0  0  0
 21 22  1  0  0  0  0
 24 23  1  0  0  0  0
 25 24  1  0  0  0  0
 27 28  1  0  0  0  0
 28 25  1  0  0  0  0
 28 26  2  0  0  0  0
 29 27  1  0  0  0  0
 29 30  1  1  0  0  0
 31 29  1  0  0  0  0
 32 31  1  0  0  0  0
M  END
>  <MODEL>
8

>  <REMARK>
 VINA RESULT:      -7.6      2.736      5.584
  Name = 
  7 active torsions:
  status: ('A' for Active; 'I' for Inactive)
    1  A    between atoms: CA_3  and  N_19
    2  A    between atoms: CA_3  and  C_22
    3  A    between atoms: C_13  and  C_29
    4  A    between atoms: C_15  and  C_20
    5  A    between atoms: C_15  and  C_26
    6  A    between atoms: C_16  and  C_20
    7  A    between atoms: C_16  and  C_27
                            x       y       z     vdW  Elec       q    Type
                         _______ _______ _______ _____ _____    ______ ____

>  <TORSDO>
F 7

$$$$
=
 OpenBabel11052414263D

 32 36  0  0  1  0  0  0  0  0999 V2000
  185.3600  178.1360  143.6420 C   0  0  1  0  0  3  0  0  0  0  0  0
  183.4470  178.5890  142.0560 C   0  0  0  0  0  0  0  0  0  0  0  0
  185.8570  178.6620  144.9890 C   0  0  0  0  0  2  0  0  0  0  0  0
  183.9370  178.5750  143.3700 C   0  0  0  0  0  0  0  0  0  0  0  0
  182.1060  178.9330  141.8040 C   0  0  0  0  0  0  0  0  0  0  0  0
  183.8570  176.5300  137.9160 C   0  0  0  0  0  2  0  0  0  0  0  0
  184.3760  178.1670  140.9500 C   0  0  2  0  0  3  0  0  0  0  0  0
  182.0670  176.7630  139.6820 C   0  0  0  0  0  2  0  0  0  0  0  0
  182.3720  178.1850  139.4490 N   0  0  1  0  0  0  0  0  0  0  0  0
  183.0840  178.8940  144.4400 C   0  0  0  0  0  0  0  0  0  0  0  0
  181.6000  179.0120  140.3820 C   0  0  0  0  0  2  0  0  0  0  0  0
  181.7610  179.2560  144.1910 C   0  0  0  0  0  3  0  0  0  0  0  0
  183.5660  178.8710  145.7540 O   0  0  0  0  0  0  0  0  0  0  0  0
  185.7270  178.8510  141.1600 C   0  0  0  0  0  2  0  0  0  0  0  0
  186.3510  178.5250  142.5290 C   0  0  2  0  0  3  0  0  0  0  0  0
  183.8140  178.4880  139.5570 C   0  0  2  0  0  3  0  0  0  0  0  0
  181.2670  179.2870  142.8820 C   0  0  0  0  0  0  0  0  0  0  0  0
  184.8430  178.3190  146.0770 C   0  0  0  0  0  2  0  0  0  0  0  0
  183.0830  175.8210  139.0210 C   0  0  0  0  0  2  0  0  0  0  0  0
  184.6100  177.7400  138.4750 C   0  0  0  0  0  2  0  0  0  0  0  0
  179.8370  179.6600  142.6700 C   0  0  0  0  0  2  0  0  0  0  0  0
  179.7320  181.0370  142.4740 O   0  0  0  0  0  1  0  0  0  0  0  0
  187.4180  177.4500  142.3820 C   0  0  0  0  0  2  0  0  0  0  0  0
  188.6240  178.0010  141.6400 C   0  0  0  0  0  2  0  0  0  0  0  0
  189.6650  176.9070  141.4690 C   0  0  0  0  0  2  0  0  0  0  0  0
  191.7730  177.8330  140.8820 O   0  0  0  0  0  0  0  0  0  0  0  0
  190.5010  177.1370  139.0630 N   0  0  0  0  0  2  0  0  0  0  0  0
  190.7000  177.3150  140.4740 C   0  0  0  0  0  0  0  0  0  0  0  0
  189.3570  176.4790  138.4310 C   0  0  1  0  0  3  0  0  0  0  0  0
  188.3320  177.5010  137.9770 C   0  0  0  0  0  1  0  0  0  0  0  0
  189.7820  175.5930  137.2700 C   0  0  0  0  0  2  0  0  0  0  0  0
  190.3310  174.4040  137.7540 O   0  0  0  0  0  1  0  0  0  0  0  0
  1  3  1  1  0  0  0
  2  4  1  0  0  0  0
  3 18  1  0  0  0  0
  4  1  1  0  0  0  0
  4 10  2  0  0  0  0
  5  2  2  0  0  0  0
  5 17  1  0  0  0  0
  6 20  1  0  0  0  0
  6 19  1  0  0  0  0
  7 14  1  1  0  0  0
  7  2  1  0  0  0  0
  9 16  1  0  0  0  0
  9  8  1  1  0  0  0
  9 11  1  0  0  0  0
 10 13  1  0  0  0  0
 11  5  1  0  0  0  0
 12 10  1  0  0  0  0
 13 18  1  0  0  0  0
 14 15  1  0  0  0  0
 15 23  1  6  0  0  0
 15  1  1  0  0  0  0
 16 20  1  6  0  0  0
 16  7  1  0  0  0  0
 17 12  2  0  0  0  0
 19  8  1  0  0  0  0
 21 17  1  0  0  0  0
 22 21  1  0  0  0  0
 24 23  1  0  0  0  0
 25 24  1  0  0  0  0
 27 28  1  0  0  0  0
 28 26  2  0  0  0  0
 28 25  1  0  0  0  0
 29 30  1  6  0  0  0
 29 27  1  0  0  0  0
 31 32  1  0  0  0  0
 31 29  1  0  0  0  0
M  END
>  <MODEL>
9

>  <REMARK>
 VINA RESULT:      -7.6      3.596      7.190
  Name = 
  7 active torsions:
  status: ('A' for Active; 'I' for Inactive)
    1  A    between atoms: CA_3  and  N_19
    2  A    between atoms: CA_3  and  C_22
    3  A    between atoms: C_13  and  C_29
    4  A    between atoms: C_15  and  C_20
    5  A    between atoms: C_15  and  C_26
    6  A    between atoms: C_16  and  C_20
    7  A    between atoms: C_16  and  C_27
                            x       y       z     vdW  Elec       q    Type
                         _______ _______ _______ _____ _____    ______ ____

>  <TORSDO>
F 7

$$$$
