=
 OpenBabel11052415463D

 34 39  0  0  1  0  0  0  0  0999 V2000
  185.0730  178.0120  140.2980 C   0  0  2  0  0  3  0  0  0  0  0  0
  184.3430  178.3510  142.7040 C   0  0  0  0  0  2  0  0  0  0  0  0
  182.2260  178.2170  139.6000 C   0  0  2  0  0  0  0  0  0  0  0  0
  186.8320  178.2720  142.9620 N   0  0  0  0  0  0  0  0  0  0  0  0
  183.2630  177.7260  138.5780 C   0  0  0  0  0  2  0  0  0  0  0  0
  184.6590  178.2650  138.8550 C   0  0  0  0  0  2  0  0  0  0  0  0
  182.7000  178.0000  140.9760 N   0  0  0  0  0  2  0  0  0  0  0  0
  184.0110  178.6000  141.2390 C   0  0  2  0  0  3  0  0  0  0  0  0
  181.0100  177.3290  139.3940 C   0  0  0  0  0  1  0  0  0  0  0  0
  185.6120  179.0760  143.1490 C   0  0  0  0  0  2  0  0  0  0  0  0
  186.4050  178.7100  140.4970 C   0  0  0  0  0  2  0  0  0  0  0  0
  187.2610  178.0150  141.5670 C   0  0  1  0  0  3  0  0  0  0  0  0
  189.0380  179.1570  140.1270 C   0  0  0  0  0  2  0  0  0  0  0  0
  189.7840  176.1310  142.3670 C   0  0  0  0  0  2  0  0  0  0  0  0
  190.4080  176.6080  144.7660 C   0  0  0  0  0  2  0  0  0  0  0  0
  189.1220  176.1510  139.8970 C   0  0  0  0  0  2  0  0  0  0  0  0
  188.9670  179.2230  137.6290 C   0  0  0  0  0  3  0  0  0  0  0  0
  189.0460  177.2230  136.2670 C   0  0  0  0  0  3  0  0  0  0  0  0
  190.6980  178.8930  144.5650 N   0  0  0  0  0  2  0  0  0  0  0  0
  188.9770  178.6150  136.3710 C   0  0  0  0  0  3  0  0  0  0  0  0
  189.1110  177.0350  138.6830 C   0  0  0  0  0  0  0  0  0  0  0  0
  189.0210  178.4460  138.7910 C   0  0  0  0  0  0  0  0  0  0  0  0
  189.1090  176.4360  137.4190 C   0  0  0  0  0  3  0  0  0  0  0  0
  190.7010  176.9130  143.3070 C   0  0  2  0  0  3  0  0  0  0  0  0
  190.5860  177.9380  145.4080 C   0  0  0  0  0  2  0  0  0  0  0  0
  189.3120  178.9810  142.5860 C   0  0  0  0  0  2  0  0  0  0  0  0
  190.6210  178.4510  143.2020 C   0  0  1  0  0  3  0  0  0  0  0  0
  189.5980  176.9420  141.1020 C   0  0  1  0  0  3  0  0  0  0  0  0
  188.7920  178.2400  141.3360 C   0  0  1  0  0  0  0  0  0  0  0  0
  181.7770  179.6840  139.3520 C   0  0  0  0  0  3  0  0  0  0  0  0
  181.5030  179.9650  137.8810 C   0  0  0  0  0  1  0  0  0  0  0  0
  180.5780  180.1350  140.1730 C   0  0  0  0  0  1  0  0  0  0  0  0
  186.8670  177.3210  145.2830 C   0  0  0  0  0  1  0  0  0  0  0  0
  186.8070  177.0500  143.7830 C   0  0  0  0  0  2  0  0  0  0  0  0
  1  6  1  6  0  0  0
  1 11  1  0  0  0  0
  1  8  1  0  0  0  0
  2 10  1  0  0  0  0
  3  9  1  6  0  0  0
  3  7  1  0  0  0  0
  4 10  1  0  0  0  0
  4 34  1  0  0  0  0
  5  6  1  0  0  0  0
  5  3  1  0  0  0  0
  7  8  1  0  0  0  0
  8  2  1  1  0  0  0
 12 11  1  6  0  0  0
 12  4  1  0  0  0  0
 15 25  1  0  0  0  0
 17 22  1  0  0  0  0
 18 20  1  0  0  0  0
 18 23  2  0  0  0  0
 19 25  1  0  0  0  0
 20 17  2  0  0  0  0
 21 22  2  0  0  0  0
 21 16  1  0  0  0  0
 22 13  1  0  0  0  0
 23 21  1  0  0  0  0
 24 14  1  6  0  0  0
 24 15  1  0  0  0  0
 27 26  1  1  0  0  0
 27 24  1  0  0  0  0
 27 19  1  0  0  0  0
 28 16  1  6  0  0  0
 28 29  1  0  0  0  0
 28 14  1  0  0  0  0
 29 13  1  6  0  0  0
 29 12  1  0  0  0  0
 29 26  1  0  0  0  0
 30  3  1  0  0  0  0
 30 32  1  0  0  0  0
 31 30  1  0  0  0  0
 34 33  1  0  0  0  0
M  END
>  <MODEL>
1

>  <REMARK>
 VINA RESULT:      -5.7      0.000      0.000
  Name = 
  3 active torsions:
  status: ('A' for Active; 'I' for Inactive)
    1  A    between atoms: C_7  and  C_11
    2  A    between atoms: N_9  and  C_18
    3  A    between atoms: C_33  and  C_34
                            x       y       z     vdW  Elec       q    Type
                         _______ _______ _______ _____ _____    ______ ____

>  <TORSDO>
F 3

$$$$
=
 OpenBabel11052415463D

 34 39  0  0  1  0  0  0  0  0999 V2000
  190.0560  177.3080  140.4280 C   0  0  2  0  0  3  0  0  0  0  0  0
  187.8640  178.5790  140.5590 C   0  0  0  0  0  2  0  0  0  0  0  0
  190.5470  178.2390  143.1720 C   0  0  2  0  0  0  0  0  0  0  0  0
  187.6730  177.5250  138.2970 N   0  0  0  0  0  0  0  0  0  0  0  0
  191.6630  177.5890  142.3390 C   0  0  0  0  0  2  0  0  0  0  0  0
  191.1260  176.6390  141.2780 C   0  0  0  0  0  2  0  0  0  0  0  0
  189.5130  178.8210  142.3010 N   0  0  0  0  0  2  0  0  0  0  0  0
  188.9540  177.8620  141.3440 C   0  0  2  0  0  3  0  0  0  0  0  0
  191.2160  179.3860  143.9100 C   0  0  0  0  0  1  0  0  0  0  0  0
  187.0850  177.6380  139.6420 C   0  0  0  0  0  2  0  0  0  0  0  0
  189.4970  176.2370  139.5100 C   0  0  0  0  0  2  0  0  0  0  0  0
  188.9780  176.8290  138.1900 C   0  0  1  0  0  3  0  0  0  0  0  0
  189.9890  174.6360  137.3510 C   0  0  0  0  0  2  0  0  0  0  0  0
  188.4300  177.2520  135.0160 C   0  0  0  0  0  2  0  0  0  0  0  0
  185.9450  177.0850  134.6050 C   0  0  0  0  0  2  0  0  0  0  0  0
  190.8770  177.0140  135.7220 C   0  0  0  0  0  2  0  0  0  0  0  0
  192.4070  174.0460  137.5810 C   0  0  0  0  0  3  0  0  0  0  0  0
  194.1710  175.3390  136.5420 C   0  0  0  0  0  3  0  0  0  0  0  0
  185.6090  175.0070  135.5630 N   0  0  0  0  0  2  0  0  0  0  0  0
  193.7650  174.2530  137.3220 C   0  0  0  0  0  3  0  0  0  0  0  0
  191.8590  176.0130  136.2590 C   0  0  0  0  0  0  0  0  0  0  0  0
  191.4470  174.9230  137.0670 C   0  0  0  0  0  0  0  0  0  0  0  0
  193.2210  176.2180  136.0160 C   0  0  0  0  0  3  0  0  0  0  0  0
  187.2730  176.3480  134.5940 C   0  0  2  0  0  3  0  0  0  0  0  0
  185.0110  176.0450  135.1130 C   0  0  0  0  0  2  0  0  0  0  0  0
  187.6170  175.2010  136.8940 C   0  0  0  0  0  2  0  0  0  0  0  0
  187.0380  175.0990  135.4700 C   0  0  1  0  0  3  0  0  0  0  0  0
  189.4930  176.3910  135.6660 C   0  0  1  0  0  3  0  0  0  0  0  0
  189.0360  175.7960  137.0170 C   0  0  1  0  0  0  0  0  0  0  0  0
  189.9520  177.2820  144.2410 C   0  0  0  0  0  3  0  0  0  0  0  0
  191.0120  176.7460  145.1930 C   0  0  0  0  0  1  0  0  0  0  0  0
  188.8050  177.8630  145.0550 C   0  0  0  0  0  1  0  0  0  0  0  0
  189.0200  179.5030  137.5460 C   0  0  0  0  0  1  0  0  0  0  0  0
  187.6590  178.8150  137.5880 C   0  0  0  0  0  2  0  0  0  0  0  0
  1 11  1  6  0  0  0
  1  6  1  0  0  0  0
  1  8  1  0  0  0  0
  3  9  1  1  0  0  0
  3 30  1  0  0  0  0
  4 10  1  0  0  0  0
  5  3  1  0  0  0  0
  6  5  1  0  0  0  0
  7  3  1  0  0  0  0
  8  2  1  6  0  0  0
  8  7  1  0  0  0  0
 10  2  1  0  0  0  0
 12  4  1  0  0  0  0
 12 11  1  1  0  0  0
 15 25  1  0  0  0  0
 16 21  1  0  0  0  0
 18 20  2  0  0  0  0
 20 17  1  0  0  0  0
 21 22  1  0  0  0  0
 22 13  1  0  0  0  0
 22 17  2  0  0  0  0
 23 21  2  0  0  0  0
 23 18  1  0  0  0  0
 24 15  1  1  0  0  0
 24 14  1  0  0  0  0
 24 27  1  0  0  0  0
 25 19  1  0  0  0  0
 27 19  1  0  0  0  0
 27 26  1  1  0  0  0
 28 14  1  1  0  0  0
 28 16  1  0  0  0  0
 28 29  1  0  0  0  0
 29 26  1  6  0  0  0
 29 13  1  0  0  0  0
 29 12  1  0  0  0  0
 30 32  1  0  0  0  0
 30 31  1  0  0  0  0
 33 34  1  0  0  0  0
 34  4  1  0  0  0  0
M  END
>  <MODEL>
2

>  <REMARK>
 VINA RESULT:      -5.6      3.098      7.531
  Name = 
  3 active torsions:
  status: ('A' for Active; 'I' for Inactive)
    1  A    between atoms: C_7  and  C_11
    2  A    between atoms: N_9  and  C_18
    3  A    between atoms: C_33  and  C_34
                            x       y       z     vdW  Elec       q    Type
                         _______ _______ _______ _____ _____    ______ ____

>  <TORSDO>
F 3

$$$$
=
 OpenBabel11052415463D

 34 39  0  0  1  0  0  0  0  0999 V2000
  184.2650  176.6520  138.1270 C   0  0  2  0  0  3  0  0  0  0  0  0
  185.9800  178.5120  138.3190 C   0  0  0  0  0  2  0  0  0  0  0  0
  182.4080  178.4740  139.4920 C   0  0  2  0  0  0  0  0  0  0  0  0
  187.2720  176.7980  137.0310 N   0  0  0  0  0  0  0  0  0  0  0  0
  182.0700  176.9880  139.3030 C   0  0  0  0  0  2  0  0  0  0  0  0
  182.7690  176.3760  138.0970 C   0  0  0  0  0  2  0  0  0  0  0  0
  183.8630  178.6910  139.4580 N   0  0  0  0  0  2  0  0  0  0  0  0
  184.4990  178.1660  138.2460 C   0  0  2  0  0  3  0  0  0  0  0  0
  181.9320  178.8170  140.8930 C   0  0  0  0  0  1  0  0  0  0  0  0
  186.7270  178.1660  137.0320 C   0  0  0  0  0  2  0  0  0  0  0  0
  184.8310  176.1270  136.8200 C   0  0  0  0  0  2  0  0  0  0  0  0
  186.2950  175.6850  136.9670 C   0  0  1  0  0  3  0  0  0  0  0  0
  185.5350  174.3200  134.9430 C   0  0  0  0  0  2  0  0  0  0  0  0
  188.4110  173.2340  137.2410 C   0  0  0  0  0  2  0  0  0  0  0  0
  190.7140  174.1020  136.6810 C   0  0  0  0  0  2  0  0  0  0  0  0
  185.9340  172.6170  137.3990 C   0  0  0  0  0  2  0  0  0  0  0  0
  183.2700  173.2820  134.7410 C   0  0  0  0  0  3  0  0  0  0  0  0
  182.4690  171.5870  136.2730 C   0  0  0  0  0  3  0  0  0  0  0  0
  190.2230  174.9690  134.5950 N   0  0  0  0  0  2  0  0  0  0  0  0
  182.2700  172.3970  135.1520 C   0  0  0  0  0  3  0  0  0  0  0  0
  184.6820  172.5310  136.5740 C   0  0  0  0  0  0  0  0  0  0  0  0
  184.4740  173.3680  135.4480 C   0  0  0  0  0  0  0  0  0  0  0  0
  183.6700  171.6580  136.9840 C   0  0  0  0  0  3  0  0  0  0  0  0
  189.4800  173.3870  136.1600 C   0  0  2  0  0  3  0  0  0  0  0  0
  191.1080  174.9420  135.5190 C   0  0  0  0  0  2  0  0  0  0  0  0
  187.8710  175.1370  135.1240 C   0  0  0  0  0  2  0  0  0  0  0  0
  189.0630  174.1850  134.9060 C   0  0  1  0  0  3  0  0  0  0  0  0
  187.0540  173.2160  136.5680 C   0  0  1  0  0  3  0  0  0  0  0  0
  186.6830  174.5760  135.9340 C   0  0  1  0  0  0  0  0  0  0  0  0
  181.6480  179.4000  138.5030 C   0  0  0  0  0  3  0  0  0  0  0  0
  180.1360  179.2750  138.6380 C   0  0  0  0  0  1  0  0  0  0  0  0
  182.0300  180.8710  138.5790 C   0  0  0  0  0  1  0  0  0  0  0  0
  189.5550  177.4100  137.8680 C   0  0  0  0  0  1  0  0  0  0  0  0
  188.2750  176.6120  138.0920 C   0  0  0  0  0  2  0  0  0  0  0  0
  1 11  1  6  0  0  0
  1  8  1  0  0  0  0
  3  9  1  1  0  0  0
  4 10  1  0  0  0  0
  4 34  1  0  0  0  0
  5  3  1  0  0  0  0
  6  1  1  0  0  0  0
  6  5  1  0  0  0  0
  7  3  1  0  0  0  0
  8  2  1  1  0  0  0
  8  7  1  0  0  0  0
 10  2  1  0  0  0  0
 12 11  1  6  0  0  0
 12  4  1  0  0  0  0
 13 22  1  0  0  0  0
 17 20  2  0  0  0  0
 17 22  1  0  0  0  0
 18 23  2  0  0  0  0
 19 27  1  0  0  0  0
 19 25  1  0  0  0  0
 20 18  1  0  0  0  0
 21 23  1  0  0  0  0
 21 16  1  0  0  0  0
 22 21  2  0  0  0  0
 24 15  1  1  0  0  0
 24 14  1  0  0  0  0
 25 15  1  0  0  0  0
 26 29  1  0  0  0  0
 27 26  1  1  0  0  0
 27 24  1  0  0  0  0
 28 14  1  1  0  0  0
 28 16  1  0  0  0  0
 29 13  1  6  0  0  0
 29 28  1  0  0  0  0
 29 12  1  0  0  0  0
 30 32  1  0  0  0  0
 30 31  1  0  0  0  0
 30  3  1  0  0  0  0
 33 34  1  0  0  0  0
M  END
>  <MODEL>
3

>  <REMARK>
 VINA RESULT:      -5.4      3.945      6.460
  Name = 
  3 active torsions:
  status: ('A' for Active; 'I' for Inactive)
    1  A    between atoms: C_7  and  C_11
    2  A    between atoms: N_9  and  C_18
    3  A    between atoms: C_33  and  C_34
                            x       y       z     vdW  Elec       q    Type
                         _______ _______ _______ _____ _____    ______ ____

>  <TORSDO>
F 3

$$$$
=
 OpenBabel11052415463D

 34 39  0  0  1  0  0  0  0  0999 V2000
  190.7720  177.3450  140.1570 C   0  0  2  0  0  3  0  0  0  0  0  0
  188.3930  178.2260  140.0920 C   0  0  0  0  0  2  0  0  0  0  0  0
  190.7450  178.0130  143.0180 C   0  0  2  0  0  0  0  0  0  0  0  0
  188.6740  177.4280  137.7370 N   0  0  0  0  0  0  0  0  0  0  0  0
  192.0520  177.6520  142.2970 C   0  0  0  0  0  2  0  0  0  0  0  0
  191.8270  176.7600  141.0840 C   0  0  0  0  0  2  0  0  0  0  0  0
  189.7430  178.5200  142.0680 N   0  0  0  0  0  2  0  0  0  0  0  0
  189.4840  177.6040  140.9540 C   0  0  2  0  0  3  0  0  0  0  0  0
  191.1050  179.1560  143.9510 C   0  0  0  0  0  1  0  0  0  0  0  0
  187.9110  177.2870  138.9880 C   0  0  0  0  0  2  0  0  0  0  0  0
  190.5270  176.3140  139.0710 C   0  0  0  0  0  2  0  0  0  0  0  0
  190.0830  176.9660  137.7520 C   0  0  1  0  0  3  0  0  0  0  0  0
  189.4790  176.3300  135.3510 C   0  0  0  0  0  2  0  0  0  0  0  0
  191.7260  174.1680  137.5880 C   0  0  0  0  0  2  0  0  0  0  0  0
  194.1950  174.6900  137.5780 C   0  0  0  0  0  2  0  0  0  0  0  0
  189.1930  174.0170  137.2660 C   0  0  0  0  0  2  0  0  0  0  0  0
  187.1490  175.8300  134.5940 C   0  0  0  0  0  3  0  0  0  0  0  0
  185.8530  173.9890  135.4840 C   0  0  0  0  0  3  0  0  0  0  0  0
  194.2010  176.1340  135.7720 N   0  0  0  0  0  2  0  0  0  0  0  0
  185.9720  175.0790  134.6170 C   0  0  0  0  0  3  0  0  0  0  0  0
  188.1010  174.3840  136.3030 C   0  0  0  0  0  0  0  0  0  0  0  0
  188.2150  175.5030  135.4390 C   0  0  0  0  0  0  0  0  0  0  0  0
  186.9130  173.6460  136.3270 C   0  0  0  0  0  3  0  0  0  0  0  0
  192.9730  174.3810  136.7320 C   0  0  2  0  0  3  0  0  0  0  0  0
  194.9030  175.7050  136.7520 C   0  0  0  0  0  2  0  0  0  0  0  0
  191.8460  176.6100  136.0360 C   0  0  0  0  0  2  0  0  0  0  0  0
  192.9000  175.5350  135.7090 C   0  0  1  0  0  3  0  0  0  0  0  0
  190.5150  174.5810  136.7770 C   0  0  1  0  0  3  0  0  0  0  0  0
  190.4670  176.1020  136.5070 C   0  0  1  0  0  0  0  0  0  0  0  0
  190.1960  176.8530  143.8950 C   0  0  0  0  0  3  0  0  0  0  0  0
  191.2050  176.3860  144.9350 C   0  0  0  0  0  1  0  0  0  0  0  0
  188.8720  177.1430  144.5860 C   0  0  0  0  0  1  0  0  0  0  0  0
  187.1830  178.9940  136.4670 C   0  0  0  0  0  1  0  0  0  0  0  0
  188.5250  178.7730  137.1580 C   0  0  0  0  0  2  0  0  0  0  0  0
  1 11  1  6  0  0  0
  1  8  1  0  0  0  0
  1  6  1  0  0  0  0
  3 30  1  0  0  0  0
  3  9  1  1  0  0  0
  4 12  1  0  0  0  0
  4 10  1  0  0  0  0
  5  3  1  0  0  0  0
  6  5  1  0  0  0  0
  7  3  1  0  0  0  0
  8  2  1  6  0  0  0
  8  7  1  0  0  0  0
 10  2  1  0  0  0  0
 12 11  1  1  0  0  0
 13 22  1  0  0  0  0
 17 20  2  0  0  0  0
 17 22  1  0  0  0  0
 18 23  2  0  0  0  0
 19 25  1  0  0  0  0
 20 18  1  0  0  0  0
 21 23  1  0  0  0  0
 21 16  1  0  0  0  0
 22 21  2  0  0  0  0
 24 15  1  1  0  0  0
 24 14  1  0  0  0  0
 25 15  1  0  0  0  0
 26 29  1  0  0  0  0
 27 19  1  0  0  0  0
 27 26  1  1  0  0  0
 27 24  1  0  0  0  0
 28 16  1  1  0  0  0
 28 14  1  0  0  0  0
 29 13  1  6  0  0  0
 29 28  1  0  0  0  0
 29 12  1  0  0  0  0
 30 32  1  0  0  0  0
 30 31  1  0  0  0  0
 33 34  1  0  0  0  0
 34  4  1  0  0  0  0
M  END
>  <MODEL>
4

>  <REMARK>
 VINA RESULT:      -5.3      3.523      7.235
  Name = 
  3 active torsions:
  status: ('A' for Active; 'I' for Inactive)
    1  A    between atoms: C_7  and  C_11
    2  A    between atoms: N_9  and  C_18
    3  A    between atoms: C_33  and  C_34
                            x       y       z     vdW  Elec       q    Type
                         _______ _______ _______ _____ _____    ______ ____

>  <TORSDO>
F 3

$$$$
=
 OpenBabel11052415463D

 34 39  0  0  1  0  0  0  0  0999 V2000
  183.1990  175.4480  138.1480 C   0  0  2  0  0  3  0  0  0  0  0  0
  180.8440  175.2840  137.2200 C   0  0  0  0  0  2  0  0  0  0  0  0
  183.6470  172.7890  136.9800 C   0  0  2  0  0  0  0  0  0  0  0  0
  180.8150  177.5880  138.1990 N   0  0  0  0  0  0  0  0  0  0  0  0
  184.6500  173.4050  137.9670 C   0  0  0  0  0  2  0  0  0  0  0  0
  184.6170  174.9270  137.9660 C   0  0  0  0  0  2  0  0  0  0  0  0
  182.3070  173.3690  137.1630 N   0  0  0  0  0  2  0  0  0  0  0  0
  182.2900  174.8320  137.0740 C   0  0  2  0  0  3  0  0  0  0  0  0
  183.5610  171.3210  137.3610 C   0  0  0  0  0  1  0  0  0  0  0  0
  180.6700  176.7820  136.9750 C   0  0  0  0  0  2  0  0  0  0  0  0
  183.2670  176.9560  137.9870 C   0  0  0  0  0  2  0  0  0  0  0  0
  182.1700  177.6670  138.7950 C   0  0  1  0  0  3  0  0  0  0  0  0
  184.1160  179.2680  139.2300 C   0  0  0  0  0  2  0  0  0  0  0  0
  180.5710  179.8670  140.5730 C   0  0  0  0  0  2  0  0  0  0  0  0
  178.9670  181.1000  139.0630 C   0  0  0  0  0  2  0  0  0  0  0  0
  182.5240  178.6820  141.7230 C   0  0  0  0  0  2  0  0  0  0  0  0
  186.1560  178.6490  140.5350 C   0  0  0  0  0  3  0  0  0  0  0  0
  186.0690  178.0090  142.8680 C   0  0  0  0  0  3  0  0  0  0  0  0
  180.5020  181.7970  137.4800 N   0  0  0  0  0  2  0  0  0  0  0  0
  186.8060  178.2510  141.7060 C   0  0  0  0  0  3  0  0  0  0  0  0
  184.0210  178.5780  141.7010 C   0  0  0  0  0  0  0  0  0  0  0  0
  184.7660  178.8040  140.5150 C   0  0  0  0  0  0  0  0  0  0  0  0
  184.6810  178.1680  142.8640 C   0  0  0  0  0  3  0  0  0  0  0  0
  180.3370  181.1110  139.7180 C   0  0  2  0  0  3  0  0  0  0  0  0
  179.2510  181.6860  137.7260 C   0  0  0  0  0  2  0  0  0  0  0  0
  182.0550  180.0480  138.0910 C   0  0  0  0  0  2  0  0  0  0  0  0
  181.3290  181.3260  138.5540 C   0  0  1  0  0  3  0  0  0  0  0  0
  182.0560  179.5690  140.5830 C   0  0  1  0  0  3  0  0  0  0  0  0
  182.5850  179.1190  139.2030 C   0  0  1  0  0  0  0  0  0  0  0  0
  184.1270  172.8600  135.5040 C   0  0  0  0  0  3  0  0  0  0  0  0
  185.6450  172.8600  135.3880 C   0  0  0  0  0  1  0  0  0  0  0  0
  183.5610  171.7810  134.5940 C   0  0  0  0  0  1  0  0  0  0  0  0
  180.2490  176.2910  140.2700 C   0  0  0  0  0  1  0  0  0  0  0  0
  179.7780  177.2610  139.1910 C   0  0  0  0  0  2  0  0  0  0  0  0
  1  6  1  6  0  0  0
  3  7  1  0  0  0  0
  3  9  1  1  0  0  0
  3  5  1  0  0  0  0
  4 12  1  0  0  0  0
  4 34  1  0  0  0  0
  6  5  1  0  0  0  0
  8  7  1  0  0  0  0
  8  2  1  1  0  0  0
  8  1  1  0  0  0  0
 10  2  1  0  0  0  0
 10  4  1  0  0  0  0
 11  1  1  0  0  0  0
 12 11  1  6  0  0  0
 12 29  1  0  0  0  0
 13 22  1  0  0  0  0
 17 20  1  0  0  0  0
 19 25  1  0  0  0  0
 19 27  1  0  0  0  0
 20 18  2  0  0  0  0
 21 16  1  0  0  0  0
 21 23  2  0  0  0  0
 22 17  2  0  0  0  0
 22 21  1  0  0  0  0
 23 18  1  0  0  0  0
 24 15  1  6  0  0  0
 24 14  1  0  0  0  0
 25 15  1  0  0  0  0
 27 26  1  6  0  0  0
 27 24  1  0  0  0  0
 28 14  1  6  0  0  0
 28 16  1  0  0  0  0
 29 26  1  6  0  0  0
 29 13  1  0  0  0  0
 29 28  1  0  0  0  0
 30  3  1  0  0  0  0
 31 30  1  0  0  0  0
 32 30  1  0  0  0  0
 34 33  1  0  0  0  0
M  END
>  <MODEL>
5

>  <REMARK>
 VINA RESULT:      -5.1      3.805      8.052
  Name = 
  3 active torsions:
  status: ('A' for Active; 'I' for Inactive)
    1  A    between atoms: C_7  and  C_11
    2  A    between atoms: N_9  and  C_18
    3  A    between atoms: C_33  and  C_34
                            x       y       z     vdW  Elec       q    Type
                         _______ _______ _______ _____ _____    ______ ____

>  <TORSDO>
F 3

$$$$
=
 OpenBabel11052415463D

 34 39  0  0  1  0  0  0  0  0999 V2000
  185.1300  176.4180  137.5460 C   0  0  2  0  0  3  0  0  0  0  0  0
  185.9950  174.2800  136.4880 C   0  0  0  0  0  2  0  0  0  0  0  0
  187.9500  177.1750  137.8810 C   0  0  2  0  0  0  0  0  0  0  0  0
  183.5250  173.9830  136.2200 N   0  0  0  0  0  0  0  0  0  0  0  0
  186.8270  177.9560  138.5800 C   0  0  0  0  0  2  0  0  0  0  0  0
  185.5000  177.8640  137.8410 C   0  0  0  0  0  2  0  0  0  0  0  0
  187.5200  175.8020  137.5700 N   0  0  0  0  0  2  0  0  0  0  0  0
  186.2830  175.7450  136.7850 C   0  0  2  0  0  3  0  0  0  0  0  0
  189.0680  177.0780  138.9050 C   0  0  0  0  0  1  0  0  0  0  0  0
  184.8200  174.0960  135.5300 C   0  0  0  0  0  2  0  0  0  0  0  0
  183.8780  176.4550  136.6900 C   0  0  0  0  0  2  0  0  0  0  0  0
  183.0110  175.2020  136.8900 C   0  0  1  0  0  3  0  0  0  0  0  0
  181.2900  176.9080  136.0730 C   0  0  0  0  0  2  0  0  0  0  0  0
  180.3620  173.8490  138.1980 C   0  0  0  0  0  2  0  0  0  0  0  0
  179.8680  171.7040  136.9630 C   0  0  0  0  0  2  0  0  0  0  0  0
  180.9350  176.2140  138.9870 C   0  0  0  0  0  2  0  0  0  0  0  0
  181.2790  179.3080  136.7710 C   0  0  0  0  0  3  0  0  0  0  0  0
  180.9760  179.9990  139.0710 C   0  0  0  0  0  3  0  0  0  0  0  0
  179.7730  172.5870  134.8280 N   0  0  0  0  0  2  0  0  0  0  0  0
  181.1710  180.3220  137.7260 C   0  0  0  0  0  3  0  0  0  0  0  0
  180.9810  177.6380  138.5150 C   0  0  0  0  0  0  0  0  0  0  0  0
  181.1980  177.9650  137.1520 C   0  0  0  0  0  0  0  0  0  0  0  0
  180.8860  178.6610  139.4640 C   0  0  0  0  0  3  0  0  0  0  0  0
  179.5520  173.1840  137.0860 C   0  0  2  0  0  3  0  0  0  0  0  0
  179.8310  171.4940  135.4910 C   0  0  0  0  0  2  0  0  0  0  0  0
  181.0900  174.5090  135.4730 C   0  0  0  0  0  2  0  0  0  0  0  0
  179.7620  173.7520  135.6660 C   0  0  1  0  0  3  0  0  0  0  0  0
  180.5740  175.3030  137.8270 C   0  0  1  0  0  3  0  0  0  0  0  0
  181.4990  175.4790  136.6020 C   0  0  1  0  0  0  0  0  0  0  0  0
  188.5200  177.9130  136.6390 C   0  0  0  0  0  3  0  0  0  0  0  0
  189.0640  179.2930  136.9850 C   0  0  0  0  0  1  0  0  0  0  0  0
  189.5810  177.1430  135.8660 C   0  0  0  0  0  1  0  0  0  0  0  0
  183.5030  171.4770  136.3200 C   0  0  0  0  0  1  0  0  0  0  0  0
  183.4730  172.7950  137.0880 C   0  0  0  0  0  2  0  0  0  0  0  0
  1 11  1  6  0  0  0
  1  6  1  0  0  0  0
  3  5  1  0  0  0  0
  3  9  1  1  0  0  0
  4 12  1  0  0  0  0
  4 34  1  0  0  0  0
  6  5  1  0  0  0  0
  7  3  1  0  0  0  0
  8  2  1  1  0  0  0
  8  1  1  0  0  0  0
  8  7  1  0  0  0  0
 10  4  1  0  0  0  0
 10  2  1  0  0  0  0
 12 11  1  6  0  0  0
 13 29  1  0  0  0  0
 13 22  1  0  0  0  0
 17 22  2  0  0  0  0
 17 20  1  0  0  0  0
 18 23  1  0  0  0  0
 19 25  1  0  0  0  0
 19 27  1  0  0  0  0
 20 18  2  0  0  0  0
 21 16  1  0  0  0  0
 21 23  2  0  0  0  0
 22 21  1  0  0  0  0
 24 15  1  6  0  0  0
 24 14  1  0  0  0  0
 25 15  1  0  0  0  0
 27 26  1  1  0  0  0
 27 24  1  0  0  0  0
 28 14  1  1  0  0  0
 28 16  1  0  0  0  0
 29 26  1  6  0  0  0
 29 12  1  0  0  0  0
 29 28  1  0  0  0  0
 30 31  1  0  0  0  0
 30  3  1  0  0  0  0
 32 30  1  0  0  0  0
 33 34  1  0  0  0  0
M  END
>  <MODEL>
6

>  <REMARK>
 VINA RESULT:      -5.1      3.914      9.365
  Name = 
  3 active torsions:
  status: ('A' for Active; 'I' for Inactive)
    1  A    between atoms: C_7  and  C_11
    2  A    between atoms: N_9  and  C_18
    3  A    between atoms: C_33  and  C_34
                            x       y       z     vdW  Elec       q    Type
                         _______ _______ _______ _____ _____    ______ ____

>  <TORSDO>
F 3

$$$$
=
 OpenBabel11052415463D

 34 39  0  0  1  0  0  0  0  0999 V2000
  183.9820  177.0940  137.4160 C   0  0  2  0  0  3  0  0  0  0  0  0
  185.0560  178.9980  138.7030 C   0  0  0  0  0  2  0  0  0  0  0  0
  186.5590  176.8210  136.0320 C   0  0  2  0  0  0  0  0  0  0  0  0
  182.8050  178.8930  139.7920 N   0  0  0  0  0  0  0  0  0  0  0  0
  185.3030  176.0970  135.5260 C   0  0  0  0  0  2  0  0  0  0  0  0
  184.2940  175.8270  136.6340 C   0  0  0  0  0  2  0  0  0  0  0  0
  186.1990  178.0050  136.8280 N   0  0  0  0  0  2  0  0  0  0  0  0
  185.2920  177.7030  137.9390 C   0  0  2  0  0  3  0  0  0  0  0  0
  187.2680  177.3140  134.7810 C   0  0  0  0  0  1  0  0  0  0  0  0
  184.2600  178.7840  139.9890 C   0  0  0  0  0  2  0  0  0  0  0  0
  183.0890  176.6830  138.5720 C   0  0  0  0  0  2  0  0  0  0  0  0
  182.1510  177.8210  139.0040 C   0  0  1  0  0  3  0  0  0  0  0  0
  180.7750  175.7500  139.5990 C   0  0  0  0  0  2  0  0  0  0  0  0
  179.2630  179.2680  139.3510 C   0  0  0  0  0  2  0  0  0  0  0  0
  179.3280  180.6930  141.4330 C   0  0  0  0  0  2  0  0  0  0  0  0
  179.4230  177.4790  137.5300 C   0  0  0  0  0  2  0  0  0  0  0  0
  180.4210  173.8250  138.0430 C   0  0  0  0  0  3  0  0  0  0  0  0
  179.2860  174.0570  135.9170 C   0  0  0  0  0  3  0  0  0  0  0  0
  179.9740  179.0440  142.9200 N   0  0  0  0  0  2  0  0  0  0  0  0
  179.9380  173.2590  136.8610 C   0  0  0  0  0  3  0  0  0  0  0  0
  179.5810  175.9980  137.3400 C   0  0  0  0  0  0  0  0  0  0  0  0
  180.2610  175.1930  138.2890 C   0  0  0  0  0  0  0  0  0  0  0  0
  179.1120  175.4220  136.1550 C   0  0  0  0  0  3  0  0  0  0  0  0
  178.9330  179.3520  140.8400 C   0  0  2  0  0  3  0  0  0  0  0  0
  179.8310  180.3070  142.7790 C   0  0  0  0  0  2  0  0  0  0  0  0
  180.8960  177.6860  141.1450 C   0  0  0  0  0  2  0  0  0  0  0  0
  179.6180  178.3040  141.7430 C   0  0  1  0  0  3  0  0  0  0  0  0
  179.5380  177.8190  139.0050 C   0  0  1  0  0  3  0  0  0  0  0  0
  180.8340  177.2850  139.6560 C   0  0  1  0  0  0  0  0  0  0  0  0
  187.5410  175.8790  136.7820 C   0  0  0  0  0  3  0  0  0  0  0  0
  187.8610  174.6220  135.9850 C   0  0  0  0  0  1  0  0  0  0  0  0
  188.8440  176.5300  137.2220 C   0  0  0  0  0  1  0  0  0  0  0  0
  181.8960  180.2840  137.9140 C   0  0  0  0  0  1  0  0  0  0  0  0
  182.4170  180.2410  139.3470 C   0  0  0  0  0  2  0  0  0  0  0  0
  1  6  1  1  0  0  0
  1  8  1  0  0  0  0
  1 11  1  0  0  0  0
  2 10  1  0  0  0  0
  3  9  1  6  0  0  0
  3 30  1  0  0  0  0
  3  7  1  0  0  0  0
  4 10  1  0  0  0  0
  5  3  1  0  0  0  0
  5  6  1  0  0  0  0
  7  8  1  0  0  0  0
  8  2  1  6  0  0  0
 12 11  1  1  0  0  0
 12 29  1  0  0  0  0
 12  4  1  0  0  0  0
 15 25  1  0  0  0  0
 17 22  1  0  0  0  0
 18 23  2  0  0  0  0
 18 20  1  0  0  0  0
 20 17  2  0  0  0  0
 21 16  1  0  0  0  0
 21 22  2  0  0  0  0
 22 13  1  0  0  0  0
 23 21  1  0  0  0  0
 24 14  1  6  0  0  0
 24 15  1  0  0  0  0
 24 27  1  0  0  0  0
 25 19  1  0  0  0  0
 27 26  1  6  0  0  0
 27 19  1  0  0  0  0
 28 16  1  6  0  0  0
 28 14  1  0  0  0  0
 28 29  1  0  0  0  0
 29 13  1  6  0  0  0
 29 26  1  0  0  0  0
 30 32  1  0  0  0  0
 31 30  1  0  0  0  0
 33 34  1  0  0  0  0
 34  4  1  0  0  0  0
M  END
>  <MODEL>
7

>  <REMARK>
 VINA RESULT:      -4.7      4.095      8.518
  Name = 
  3 active torsions:
  status: ('A' for Active; 'I' for Inactive)
    1  A    between atoms: C_7  and  C_11
    2  A    between atoms: N_9  and  C_18
    3  A    between atoms: C_33  and  C_34
                            x       y       z     vdW  Elec       q    Type
                         _______ _______ _______ _____ _____    ______ ____

>  <TORSDO>
F 3

$$$$
=
 OpenBabel11052415463D

 34 39  0  0  1  0  0  0  0  0999 V2000
  186.2900  175.6100  136.9900 C   0  0  2  0  0  3  0  0  0  0  0  0
  185.5780  173.7420  135.4280 C   0  0  0  0  0  2  0  0  0  0  0  0
  189.0530  174.8060  136.3930 C   0  0  2  0  0  0  0  0  0  0  0  0
  183.3620  174.7420  136.0220 N   0  0  0  0  0  0  0  0  0  0  0  0
  188.7360  175.7770  137.5410 C   0  0  0  0  0  2  0  0  0  0  0  0
  187.4420  176.5480  137.3170 C   0  0  0  0  0  2  0  0  0  0  0  0
  187.8880  173.9630  136.0810 N   0  0  0  0  0  2  0  0  0  0  0  0
  186.6760  174.7330  135.7880 C   0  0  2  0  0  3  0  0  0  0  0  0
  190.1420  173.8940  136.9300 C   0  0  0  0  0  1  0  0  0  0  0  0
  184.3050  174.4290  134.9360 C   0  0  0  0  0  2  0  0  0  0  0  0
  185.0990  176.4860  136.6490 C   0  0  0  0  0  2  0  0  0  0  0  0
  183.7670  175.7970  136.9820 C   0  0  1  0  0  3  0  0  0  0  0  0
  183.2160  178.1850  137.7100 C   0  0  0  0  0  2  0  0  0  0  0  0
  180.7070  175.2900  137.9490 C   0  0  0  0  0  2  0  0  0  0  0  0
  179.2900  174.8310  135.9120 C   0  0  0  0  0  2  0  0  0  0  0  0
  182.3370  176.1290  139.7340 C   0  0  0  0  0  2  0  0  0  0  0  0
  184.3680  179.3620  139.5900 C   0  0  0  0  0  3  0  0  0  0  0  0
  184.2820  178.5700  141.8760 C   0  0  0  0  0  3  0  0  0  0  0  0
  179.8190  176.7440  134.7250 N   0  0  0  0  0  2  0  0  0  0  0  0
  184.7160  179.5070  140.9350 C   0  0  0  0  0  3  0  0  0  0  0  0
  183.1330  177.3370  140.1320 C   0  0  0  0  0  0  0  0  0  0  0  0
  183.5900  178.2780  139.1730 C   0  0  0  0  0  0  0  0  0  0  0  0
  183.4970  177.4860  141.4740 C   0  0  0  0  0  3  0  0  0  0  0  0
  179.7590  175.8790  136.9050 C   0  0  2  0  0  3  0  0  0  0  0  0
  179.2640  175.5950  134.6350 C   0  0  0  0  0  2  0  0  0  0  0  0
  181.8740  177.0450  135.9620 C   0  0  0  0  0  2  0  0  0  0  0  0
  180.3360  177.0170  136.0360 C   0  0  1  0  0  3  0  0  0  0  0  0
  181.6530  176.3830  138.4020 C   0  0  1  0  0  3  0  0  0  0  0  0
  182.6300  176.8260  137.2900 C   0  0  1  0  0  0  0  0  0  0  0  0
  189.6210  175.5190  135.1350 C   0  0  0  0  0  3  0  0  0  0  0  0
  189.7930  177.0170  135.3470 C   0  0  0  0  0  1  0  0  0  0  0  0
  190.9260  174.9420  134.6060 C   0  0  0  0  0  1  0  0  0  0  0  0
  182.1500  172.5630  135.7550 C   0  0  0  0  0  1  0  0  0  0  0  0
  182.8790  173.5220  136.6900 C   0  0  0  0  0  2  0  0  0  0  0  0
  1 11  1  6  0  0  0
  1  6  1  0  0  0  0
  3  9  1  1  0  0  0
  3  5  1  0  0  0  0
  4 34  1  0  0  0  0
  4 12  1  0  0  0  0
  6  5  1  0  0  0  0
  7  3  1  0  0  0  0
  8  2  1  1  0  0  0
  8  7  1  0  0  0  0
  8  1  1  0  0  0  0
 10  2  1  0  0  0  0
 10  4  1  0  0  0  0
 12 11  1  6  0  0  0
 12 29  1  0  0  0  0
 13 22  1  0  0  0  0
 16 21  1  0  0  0  0
 17 20  1  0  0  0  0
 19 27  1  0  0  0  0
 20 18  2  0  0  0  0
 21 23  2  0  0  0  0
 22 17  2  0  0  0  0
 22 21  1  0  0  0  0
 23 18  1  0  0  0  0
 24 15  1  6  0  0  0
 24 14  1  0  0  0  0
 25 19  1  0  0  0  0
 25 15  1  0  0  0  0
 27 26  1  6  0  0  0
 27 24  1  0  0  0  0
 28 14  1  6  0  0  0
 28 16  1  0  0  0  0
 29 26  1  6  0  0  0
 29 13  1  0  0  0  0
 29 28  1  0  0  0  0
 30 31  1  0  0  0  0
 30  3  1  0  0  0  0
 32 30  1  0  0  0  0
 33 34  1  0  0  0  0
M  END
>  <MODEL>
8

>  <REMARK>
 VINA RESULT:      -3.8      4.217      9.180
  Name = 
  3 active torsions:
  status: ('A' for Active; 'I' for Inactive)
    1  A    between atoms: C_7  and  C_11
    2  A    between atoms: N_9  and  C_18
    3  A    between atoms: C_33  and  C_34
                            x       y       z     vdW  Elec       q    Type
                         _______ _______ _______ _____ _____    ______ ____

>  <TORSDO>
F 3

$$$$
=
 OpenBabel11052415463D

 34 39  0  0  1  0  0  0  0  0999 V2000
  184.9350  178.2910  137.9620 C   0  0  2  0  0  3  0  0  0  0  0  0
  184.9180  178.2560  140.4980 C   0  0  0  0  0  2  0  0  0  0  0  0
  187.8650  178.2110  138.1640 C   0  0  2  0  0  0  0  0  0  0  0  0
  182.4660  178.1900  140.0010 N   0  0  0  0  0  0  0  0  0  0  0  0
  187.1670  178.5200  136.8310 C   0  0  0  0  0  2  0  0  0  0  0  0
  185.7710  177.9190  136.7460 C   0  0  0  0  0  2  0  0  0  0  0  0
  186.9920  178.5380  139.3030 N   0  0  0  0  0  2  0  0  0  0  0  0
  185.6840  177.8790  139.2380 C   0  0  2  0  0  3  0  0  0  0  0  0
  189.0550  179.1550  138.2200 C   0  0  0  0  0  1  0  0  0  0  0  0
  183.6000  177.4960  140.6330 C   0  0  0  0  0  2  0  0  0  0  0  0
  183.6290  177.5280  137.8410 C   0  0  0  0  0  2  0  0  0  0  0  0
  182.4670  178.2700  138.5200 C   0  0  1  0  0  3  0  0  0  0  0  0
  181.0480  178.3240  136.3950 C   0  0  0  0  0  2  0  0  0  0  0  0
  179.5460  177.9580  139.9070 C   0  0  0  0  0  2  0  0  0  0  0  0
  179.3450  175.6170  140.8290 C   0  0  0  0  0  2  0  0  0  0  0  0
  179.9420  180.1000  138.5670 C   0  0  0  0  0  2  0  0  0  0  0  0
  180.9030  180.3030  134.8740 C   0  0  0  0  0  3  0  0  0  0  0  0
  180.0320  182.4440  135.5950 C   0  0  0  0  0  3  0  0  0  0  0  0
  179.8190  174.4710  138.8780 N   0  0  0  0  0  2  0  0  0  0  0  0
  180.5720  181.6310  134.5950 C   0  0  0  0  0  3  0  0  0  0  0  0
  180.1350  180.5970  137.1630 C   0  0  0  0  0  0  0  0  0  0  0  0
  180.7020  179.7770  136.1540 C   0  0  0  0  0  0  0  0  0  0  0  0
  179.8180  181.9290  136.8760 C   0  0  0  0  0  3  0  0  0  0  0  0
  179.0360  176.5390  139.6630 C   0  0  2  0  0  3  0  0  0  0  0  0
  179.6830  174.3410  140.1430 C   0  0  0  0  0  2  0  0  0  0  0  0
  180.9620  176.3810  137.9330 C   0  0  0  0  0  2  0  0  0  0  0  0
  179.6150  175.8180  138.4260 C   0  0  1  0  0  3  0  0  0  0  0  0
  179.8740  178.5830  138.5670 C   0  0  1  0  0  3  0  0  0  0  0  0
  181.0860  177.9180  137.8770 C   0  0  1  0  0  0  0  0  0  0  0  0
  188.4180  176.7610  138.2380 C   0  0  0  0  0  3  0  0  0  0  0  0
  188.7700  176.2050  136.8650 C   0  0  0  0  0  1  0  0  0  0  0  0
  189.6080  176.5750  139.1660 C   0  0  0  0  0  1  0  0  0  0  0  0
  181.7470  179.3750  142.0910 C   0  0  0  0  0  1  0  0  0  0  0  0
  182.2000  179.4900  140.6390 C   0  0  0  0  0  2  0  0  0  0  0  0
  1  6  1  6  0  0  0
  1  8  1  0  0  0  0
  2 10  1  0  0  0  0
  3  9  1  1  0  0  0
  3 30  1  0  0  0  0
  3  7  1  0  0  0  0
  4 10  1  0  0  0  0
  4 34  1  0  0  0  0
  5  3  1  0  0  0  0
  6  5  1  0  0  0  0
  8  7  1  0  0  0  0
  8  2  1  1  0  0  0
 11  1  1  0  0  0  0
 12 11  1  6  0  0  0
 12  4  1  0  0  0  0
 17 22  1  0  0  0  0
 18 23  2  0  0  0  0
 19 25  1  0  0  0  0
 20 17  2  0  0  0  0
 20 18  1  0  0  0  0
 21 16  1  0  0  0  0
 22 13  1  0  0  0  0
 22 21  2  0  0  0  0
 23 21  1  0  0  0  0
 24 14  1  1  0  0  0
 24 15  1  0  0  0  0
 25 15  1  0  0  0  0
 27 26  1  1  0  0  0
 27 19  1  0  0  0  0
 27 24  1  0  0  0  0
 28 16  1  1  0  0  0
 28 14  1  0  0  0  0
 29 13  1  6  0  0  0
 29 26  1  0  0  0  0
 29 12  1  0  0  0  0
 29 28  1  0  0  0  0
 30 32  1  0  0  0  0
 31 30  1  0  0  0  0
 34 33  1  0  0  0  0
M  END
>  <MODEL>
9

>  <REMARK>
 VINA RESULT:      -3.6      2.979      8.478
  Name = 
  3 active torsions:
  status: ('A' for Active; 'I' for Inactive)
    1  A    between atoms: C_7  and  C_11
    2  A    between atoms: N_9  and  C_18
    3  A    between atoms: C_33  and  C_34
                            x       y       z     vdW  Elec       q    Type
                         _______ _______ _______ _____ _____    ______ ____

>  <TORSDO>
F 3

$$$$
