=
 OpenBabel11052416583D

 32 36  0  0  1  0  0  0  0  0999 V2000
  189.1750  177.5170  145.8850 C   0  0  0  0  0  2  0  0  0  0  0  0
  186.7860  178.4060  141.5550 C   0  0  0  0  0  0  0  0  0  0  0  0
  181.9680  178.8750  144.3180 C   0  0  0  0  0  3  0  0  0  0  0  0
  181.4370  179.1060  143.0570 C   0  0  0  0  0  3  0  0  0  0  0  0
  189.1140  177.8960  143.1230 C   0  0  0  0  0  0  0  0  0  0  0  0
  186.6720  178.0720  142.9920 C   0  0  0  0  0  0  0  0  0  0  0  0
  187.8560  177.2830  145.1700 C   0  0  0  0  0  2  0  0  0  0  0  0
  183.3150  178.5490  144.4480 C   0  0  0  0  0  3  0  0  0  0  0  0
  185.5370  178.1060  143.6890 C   0  0  0  0  0  3  0  0  0  0  0  0
  184.1580  178.4480  143.3320 C   0  0  0  0  0  0  0  0  0  0  0  0
  184.3650  178.5580  140.7470 C   0  0  0  0  0  0  0  0  0  0  0  0
  191.3800  176.9100  142.9320 C   0  0  0  0  0  1  0  0  0  0  0  0
  190.4220  177.6570  143.8530 C   0  0  2  0  0  3  0  0  0  0  0  0
  187.9230  177.7660  143.7430 C   0  0  0  0  0  0  0  0  0  0  0  0
  189.1590  178.3200  141.7890 O   0  0  0  0  0  0  0  0  0  0  0  0
  190.2520  176.9090  145.1090 N   0  0  0  0  0  0  0  0  0  0  0  0
  182.2570  179.0010  141.9360 C   0  0  0  0  0  3  0  0  0  0  0  0
  183.6240  178.6710  142.0350 C   0  0  0  0  0  0  0  0  0  0  0  0
  188.0050  178.5130  141.0240 C   0  0  0  0  0  3  0  0  0  0  0  0
  185.6900  178.4860  140.5960 C   0  0  0  0  0  3  0  0  0  0  0  0
  181.8220  179.8690  138.1780 C   0  0  0  0  0  0  0  0  0  0  0  0
  181.1480  178.6130  137.8210 C   0  0  0  0  0  3  0  0  0  0  0  0
  182.6910  177.3760  139.2570 C   0  0  0  0  0  0  0  0  0  0  0  0
  180.8340  176.2930  138.0180 O   0  0  0  0  0  1  0  0  0  0  0  0
  181.5310  177.4490  138.3480 C   0  0  0  0  0  0  0  0  0  0  0  0
  182.7820  179.9120  139.3290 C   0  0  0  0  0  2  0  0  0  0  0  0
  181.5350  180.9300  137.5650 O   0  0  0  0  0  0  0  0  0  0  0  0
  183.0040  176.2710  139.7780 O   0  0  0  0  0  0  0  0  0  0  0  0
  183.5620  178.5960  139.4640 C   0  0  1  0  0  3  0  0  0  0  0  0
  191.4650  177.0840  145.8990 C   0  0  0  0  0  2  0  0  0  0  0  0
  191.2650  176.5390  147.3050 C   0  0  0  0  0  2  0  0  0  0  0  0
  192.4470  175.6820  147.7110 C   0  0  0  0  0  1  0  0  0  0  0  0
  2  6  1  0  0  0  0
  3  8  1  0  0  0  0
  4  3  2  0  0  0  0
  5 14  2  0  0  0  0
  5 13  1  0  0  0  0
  6  9  2  0  0  0  0
  6 14  1  0  0  0  0
  7  1  1  0  0  0  0
 10  9  1  0  0  0  0
 10  8  2  0  0  0  0
 11 18  1  0  0  0  0
 13 12  1  6  0  0  0
 13 16  1  0  0  0  0
 14  7  1  0  0  0  0
 15  5  1  0  0  0  0
 16  1  1  0  0  0  0
 16 30  1  0  0  0  0
 17 18  2  0  0  0  0
 17  4  1  0  0  0  0
 18 10  1  0  0  0  0
 19  2  2  0  0  0  0
 19 15  1  0  0  0  0
 20 11  2  0  0  0  0
 20  2  1  0  0  0  0
 21 26  1  0  0  0  0
 22 21  1  0  0  0  0
 22 25  2  0  0  0  0
 23 29  1  0  0  0  0
 23 28  2  0  0  0  0
 24 25  1  0  0  0  0
 25 23  1  0  0  0  0
 26 29  1  0  0  0  0
 27 21  2  0  0  0  0
 29 11  1  1  0  0  0
 30 31  1  0  0  0  0
 31 32  1  0  0  0  0
M  END
>  <MODEL>
1

>  <REMARK>
 VINA RESULT:     -10.2      0.000      0.000
  Name = 
  3 active torsions:
  status: ('A' for Active; 'I' for Inactive)
    1  A    between atoms: C_1  and  C_10
    2  A    between atoms: C_10  and  N_24
    3  A    between atoms: C_16  and  C_32
                            x       y       z     vdW  Elec       q    Type
                         _______ _______ _______ _____ _____    ______ ____

>  <TORSDO>
F 3

$$$$
=
 OpenBabel11052416583D

 32 36  0  0  1  0  0  0  0  0999 V2000
  190.3860  177.3510  144.5690 C   0  0  0  0  0  2  0  0  0  0  0  0
  186.1870  178.0200  141.8920 C   0  0  0  0  0  0  0  0  0  0  0  0
  189.1850  177.9670  137.1920 C   0  0  0  0  0  3  0  0  0  0  0  0
  187.9530  178.1540  136.5790 C   0  0  0  0  0  3  0  0  0  0  0  0
  187.6240  177.6420  144.3260 C   0  0  0  0  0  0  0  0  0  0  0  0
  187.6670  178.0290  141.9060 C   0  0  0  0  0  0  0  0  0  0  0  0
  189.8550  178.0200  143.3130 C   0  0  0  0  0  2  0  0  0  0  0  0
  189.2660  177.9580  138.5810 C   0  0  0  0  0  3  0  0  0  0  0  0
  188.4340  178.0790  140.8180 C   0  0  0  0  0  3  0  0  0  0  0  0
  188.1310  178.1320  139.3860 C   0  0  0  0  0  0  0  0  0  0  0  0
  185.5760  178.5810  139.4720 C   0  0  0  0  0  0  0  0  0  0  0  0
  187.4590  178.1370  146.7500 C   0  0  0  0  0  1  0  0  0  0  0  0
  188.2730  177.4200  145.6800 C   0  0  2  0  0  3  0  0  0  0  0  0
  188.3570  177.8770  143.2190 C   0  0  0  0  0  0  0  0  0  0  0  0
  186.2300  177.5390  144.2280 O   0  0  0  0  0  0  0  0  0  0  0  0
  189.6720  177.8760  145.7280 N   0  0  0  0  0  0  0  0  0  0  0  0
  186.8160  178.3370  137.3610 C   0  0  0  0  0  3  0  0  0  0  0  0
  186.8670  178.3340  138.7710 C   0  0  0  0  0  0  0  0  0  0  0  0
  185.5430  177.7790  143.0340 C   0  0  0  0  0  3  0  0  0  0  0  0
  185.3320  178.4000  140.7730 C   0  0  0  0  0  3  0  0  0  0  0  0
  182.3750  180.5090  138.5660 C   0  0  0  0  0  0  0  0  0  0  0  0
  181.5660  179.4150  138.0120 C   0  0  0  0  0  3  0  0  0  0  0  0
  183.4470  177.8800  138.2910 C   0  0  0  0  0  0  0  0  0  0  0  0
  181.2350  177.1640  137.4250 O   0  0  0  0  0  1  0  0  0  0  0  0
  182.0520  178.1770  137.9110 C   0  0  0  0  0  0  0  0  0  0  0  0
  183.6690  180.2140  139.2650 C   0  0  0  0  0  2  0  0  0  0  0  0
  181.9450  181.6900  138.5230 O   0  0  0  0  0  0  0  0  0  0  0  0
  183.8690  176.6930  138.2310 O   0  0  0  0  0  0  0  0  0  0  0  0
  184.3890  179.0130  138.6380 C   0  0  1  0  0  3  0  0  0  0  0  0
  190.2980  177.2680  146.8960 C   0  0  0  0  0  2  0  0  0  0  0  0
  191.5530  176.5100  146.4900 C   0  0  0  0  0  2  0  0  0  0  0  0
  192.1660  175.8230  147.6930 C   0  0  0  0  0  1  0  0  0  0  0  0
  1 16  1  0  0  0  0
  2  6  1  0  0  0  0
  2 19  2  0  0  0  0
  3  8  1  0  0  0  0
  4  3  2  0  0  0  0
  4 17  1  0  0  0  0
  5 13  1  0  0  0  0
  6 14  1  0  0  0  0
  7  1  1  0  0  0  0
  8 10  2  0  0  0  0
  9  6  2  0  0  0  0
 10  9  1  0  0  0  0
 11 20  2  0  0  0  0
 13 16  1  0  0  0  0
 13 12  1  1  0  0  0
 14  7  1  0  0  0  0
 14  5  2  0  0  0  0
 15  5  1  0  0  0  0
 16 30  1  0  0  0  0
 17 18  2  0  0  0  0
 18 10  1  0  0  0  0
 18 11  1  0  0  0  0
 19 15  1  0  0  0  0
 20  2  1  0  0  0  0
 21 26  1  0  0  0  0
 22 21  1  0  0  0  0
 23 29  1  0  0  0  0
 24 25  1  0  0  0  0
 25 22  2  0  0  0  0
 25 23  1  0  0  0  0
 27 21  2  0  0  0  0
 28 23  2  0  0  0  0
 29 26  1  0  0  0  0
 29 11  1  1  0  0  0
 31 30  1  0  0  0  0
 31 32  1  0  0  0  0
M  END
>  <MODEL>
2

>  <REMARK>
 VINA RESULT:      -9.7      1.814      3.855
  Name = 
  3 active torsions:
  status: ('A' for Active; 'I' for Inactive)
    1  A    between atoms: C_1  and  C_10
    2  A    between atoms: C_10  and  N_24
    3  A    between atoms: C_16  and  C_32
                            x       y       z     vdW  Elec       q    Type
                         _______ _______ _______ _____ _____    ______ ____

>  <TORSDO>
F 3

$$$$
=
 OpenBabel11052416583D

 32 36  0  0  1  0  0  0  0  0999 V2000
  187.7410  177.8620  145.1110 C   0  0  0  0  0  2  0  0  0  0  0  0
  184.9960  178.5670  140.9620 C   0  0  0  0  0  0  0  0  0  0  0  0
  180.4090  179.0580  144.0910 C   0  0  0  0  0  3  0  0  0  0  0  0
  179.7730  179.2380  142.8700 C   0  0  0  0  0  3  0  0  0  0  0  0
  187.4500  178.1460  142.3520 C   0  0  0  0  0  0  0  0  0  0  0  0
  185.0040  178.2800  142.4140 C   0  0  0  0  0  0  0  0  0  0  0  0
  186.3730  177.5840  144.5140 C   0  0  0  0  0  2  0  0  0  0  0  0
  181.7670  178.7570  144.1210 C   0  0  0  0  0  3  0  0  0  0  0  0
  183.9280  178.3210  143.1990 C   0  0  0  0  0  3  0  0  0  0  0  0
  182.5190  178.6310  142.9440 C   0  0  0  0  0  0  0  0  0  0  0  0
  182.5140  178.6550  140.3490 C   0  0  0  0  0  0  0  0  0  0  0  0
  189.7110  177.1870  142.0110 C   0  0  0  0  0  1  0  0  0  0  0  0
  188.8180  177.9520  142.9810 C   0  0  2  0  0  3  0  0  0  0  0  0
  186.3160  178.0190  143.0710 C   0  0  0  0  0  0  0  0  0  0  0  0
  187.3810  178.5240  141.0050 O   0  0  0  0  0  0  0  0  0  0  0  0
  188.7620  177.2440  144.2700 N   0  0  0  0  0  0  0  0  0  0  0  0
  180.5020  179.1070  141.6900 C   0  0  0  0  0  3  0  0  0  0  0  0
  181.8790  178.8000  141.6880 C   0  0  0  0  0  0  0  0  0  0  0  0
  186.1650  178.6740  140.3310 C   0  0  0  0  0  3  0  0  0  0  0  0
  183.8240  178.5980  140.0940 C   0  0  0  0  0  3  0  0  0  0  0  0
  181.1720  177.5270  136.9270 C   0  0  0  0  0  0  0  0  0  0  0  0
  180.9350  178.8360  136.3010 C   0  0  0  0  0  3  0  0  0  0  0  0
  181.5860  179.9480  138.3780 C   0  0  0  0  0  0  0  0  0  0  0  0
  180.9660  181.1850  136.3190 O   0  0  0  0  0  1  0  0  0  0  0  0
  181.1580  179.9710  136.9660 C   0  0  0  0  0  0  0  0  0  0  0  0
  181.9070  177.4340  138.2300 C   0  0  0  0  0  2  0  0  0  0  0  0
  180.8240  176.4760  136.3300 O   0  0  0  0  0  0  0  0  0  0  0  0
  181.8350  181.0330  138.9700 O   0  0  0  0  0  0  0  0  0  0  0  0
  181.6100  178.6370  139.1350 C   0  0  1  0  0  3  0  0  0  0  0  0
  190.0320  177.4640  144.9540 C   0  0  0  0  0  2  0  0  0  0  0  0
  189.9000  177.1420  146.4340 C   0  0  0  0  0  2  0  0  0  0  0  0
  191.2000  176.5750  146.9680 C   0  0  0  0  0  1  0  0  0  0  0  0
  2  6  1  0  0  0  0
  3  8  1  0  0  0  0
  4  3  2  0  0  0  0
  5 13  1  0  0  0  0
  5 14  2  0  0  0  0
  6 14  1  0  0  0  0
  6  9  2  0  0  0  0
  7  1  1  0  0  0  0
 10  9  1  0  0  0  0
 10  8  2  0  0  0  0
 11 18  1  0  0  0  0
 13 12  1  6  0  0  0
 13 16  1  0  0  0  0
 14  7  1  0  0  0  0
 15  5  1  0  0  0  0
 16 30  1  0  0  0  0
 16  1  1  0  0  0  0
 17  4  1  0  0  0  0
 18 17  2  0  0  0  0
 18 10  1  0  0  0  0
 19  2  2  0  0  0  0
 19 15  1  0  0  0  0
 20 11  2  0  0  0  0
 20  2  1  0  0  0  0
 21 26  1  0  0  0  0
 22 21  1  0  0  0  0
 22 25  2  0  0  0  0
 23 28  2  0  0  0  0
 23 29  1  0  0  0  0
 24 25  1  0  0  0  0
 25 23  1  0  0  0  0
 26 29  1  0  0  0  0
 27 21  2  0  0  0  0
 29 11  1  1  0  0  0
 30 31  1  0  0  0  0
 31 32  1  0  0  0  0
M  END
>  <MODEL>
3

>  <REMARK>
 VINA RESULT:      -9.6      1.347      2.406
  Name = 
  3 active torsions:
  status: ('A' for Active; 'I' for Inactive)
    1  A    between atoms: C_1  and  C_10
    2  A    between atoms: C_10  and  N_24
    3  A    between atoms: C_16  and  C_32
                            x       y       z     vdW  Elec       q    Type
                         _______ _______ _______ _____ _____    ______ ____

>  <TORSDO>
F 3

$$$$
=
 OpenBabel11052416583D

 32 36  0  0  1  0  0  0  0  0999 V2000
  189.3910  177.4640  146.4230 C   0  0  0  0  0  2  0  0  0  0  0  0
  187.1950  178.1870  141.9630 C   0  0  0  0  0  0  0  0  0  0  0  0
  182.3050  179.0030  144.5100 C   0  0  0  0  0  3  0  0  0  0  0  0
  181.8290  179.1790  143.2180 C   0  0  0  0  0  3  0  0  0  0  0  0
  189.4430  177.6820  143.6440 C   0  0  0  0  0  0  0  0  0  0  0  0
  187.0170  177.9430  143.4110 C   0  0  0  0  0  0  0  0  0  0  0  0
  188.0890  177.2390  145.6740 C   0  0  0  0  0  2  0  0  0  0  0  0
  183.6320  178.6340  144.7090 C   0  0  0  0  0  3  0  0  0  0  0  0
  185.8600  178.0610  144.0610 C   0  0  0  0  0  3  0  0  0  0  0  0
  184.5090  178.4350  143.6330 C   0  0  0  0  0  0  0  0  0  0  0  0
  184.8120  178.3840  141.0560 C   0  0  0  0  0  0  0  0  0  0  0  0
  191.6730  176.6000  143.5960 C   0  0  0  0  0  1  0  0  0  0  0  0
  190.7150  177.4370  144.4350 C   0  0  2  0  0  3  0  0  0  0  0  0
  188.2270  177.6340  144.2250 C   0  0  0  0  0  0  0  0  0  0  0  0
  189.5530  178.0240  142.2900 O   0  0  0  0  0  0  0  0  0  0  0  0
  190.4690  176.7710  145.7250 N   0  0  0  0  0  0  0  0  0  0  0  0
  182.6830  178.9770  142.1370 C   0  0  0  0  0  3  0  0  0  0  0  0
  184.0320  178.6010  142.3070 C   0  0  0  0  0  0  0  0  0  0  0  0
  188.4350  178.2160  141.4730 C   0  0  0  0  0  3  0  0  0  0  0  0
  186.1380  178.2530  140.9600 C   0  0  0  0  0  3  0  0  0  0  0  0
  182.3030  177.1870  138.4000 C   0  0  0  0  0  0  0  0  0  0  0  0
  183.1380  177.2910  137.1940 C   0  0  0  0  0  3  0  0  0  0  0  0
  184.9520  178.2390  138.5310 C   0  0  0  0  0  0  0  0  0  0  0  0
  185.1560  177.7900  136.1000 O   0  0  0  0  0  1  0  0  0  0  0  0
  184.3880  177.7540  137.2560 C   0  0  0  0  0  0  0  0  0  0  0  0
  182.9140  177.3530  139.7590 C   0  0  0  0  0  2  0  0  0  0  0  0
  181.0880  176.8810  138.2940 O   0  0  0  0  0  0  0  0  0  0  0  0
  186.1500  178.6280  138.5730 O   0  0  0  0  0  0  0  0  0  0  0  0
  184.0570  178.3770  139.7440 C   0  0  1  0  0  3  0  0  0  0  0  0
  191.6590  176.9460  146.5490 C   0  0  0  0  0  2  0  0  0  0  0  0
  192.0560  175.6270  147.1950 C   0  0  0  0  0  2  0  0  0  0  0  0
  192.8070  175.8780  148.4870 C   0  0  0  0  0  1  0  0  0  0  0  0
  2  6  1  0  0  0  0
  3  8  1  0  0  0  0
  4  3  2  0  0  0  0
  5 14  2  0  0  0  0
  5 13  1  0  0  0  0
  6  9  2  0  0  0  0
  6 14  1  0  0  0  0
  7  1  1  0  0  0  0
 10  9  1  0  0  0  0
 10  8  2  0  0  0  0
 11 18  1  0  0  0  0
 13 12  1  6  0  0  0
 13 16  1  0  0  0  0
 14  7  1  0  0  0  0
 15  5  1  0  0  0  0
 16  1  1  0  0  0  0
 16 30  1  0  0  0  0
 17 18  2  0  0  0  0
 17  4  1  0  0  0  0
 18 10  1  0  0  0  0
 19  2  2  0  0  0  0
 19 15  1  0  0  0  0
 20 11  2  0  0  0  0
 20  2  1  0  0  0  0
 21 26  1  0  0  0  0
 22 25  2  0  0  0  0
 22 21  1  0  0  0  0
 23 28  2  0  0  0  0
 23 29  1  0  0  0  0
 24 25  1  0  0  0  0
 25 23  1  0  0  0  0
 27 21  2  0  0  0  0
 29 26  1  0  0  0  0
 29 11  1  1  0  0  0
 30 31  1  0  0  0  0
 31 32  1  0  0  0  0
M  END
>  <MODEL>
4

>  <REMARK>
 VINA RESULT:      -9.5      1.378      1.809
  Name = 
  3 active torsions:
  status: ('A' for Active; 'I' for Inactive)
    1  A    between atoms: C_1  and  C_10
    2  A    between atoms: C_10  and  N_24
    3  A    between atoms: C_16  and  C_32
                            x       y       z     vdW  Elec       q    Type
                         _______ _______ _______ _____ _____    ______ ____

>  <TORSDO>
F 3

$$$$
=
 OpenBabel11052416583D

 32 36  0  0  1  0  0  0  0  0999 V2000
  186.7650  178.4850  144.1370 C   0  0  0  0  0  2  0  0  0  0  0  0
  190.4670  177.0240  141.0700 C   0  0  0  0  0  0  0  0  0  0  0  0
  187.3120  178.3140  136.6590 C   0  0  0  0  0  3  0  0  0  0  0  0
  188.4110  177.8780  135.9320 C   0  0  0  0  0  3  0  0  0  0  0  0
  189.3320  177.5160  143.6400 C   0  0  0  0  0  0  0  0  0  0  0  0
  189.0410  177.3950  141.2090 C   0  0  0  0  0  0  0  0  0  0  0  0
  187.0230  177.8290  142.7910 C   0  0  0  0  0  2  0  0  0  0  0  0
  187.3200  178.2060  138.0470 C   0  0  0  0  0  3  0  0  0  0  0  0
  188.2240  177.6540  140.1890 C   0  0  0  0  0  3  0  0  0  0  0  0
  188.4150  177.6670  138.7360 C   0  0  0  0  0  0  0  0  0  0  0  0
  190.7600  176.5670  138.5710 C   0  0  0  0  0  0  0  0  0  0  0  0
  189.5060  176.7570  145.9940 C   0  0  0  0  0  1  0  0  0  0  0  0
  188.8470  177.7630  145.0570 C   0  0  2  0  0  3  0  0  0  0  0  0
  188.4970  177.5890  142.5830 C   0  0  0  0  0  0  0  0  0  0  0  0
  190.6940  177.2650  143.4330 O   0  0  0  0  0  0  0  0  0  0  0  0
  187.3830  177.6800  145.1860 N   0  0  0  0  0  0  0  0  0  0  0  0
  189.5040  177.3310  136.5980 C   0  0  0  0  0  3  0  0  0  0  0  0
  189.5410  177.2060  138.0030 C   0  0  0  0  0  0  0  0  0  0  0  0
  191.2190  176.9750  142.1700 C   0  0  0  0  0  3  0  0  0  0  0  0
  191.1220  176.5480  139.8560 C   0  0  0  0  0  3  0  0  0  0  0  0
  192.3810  173.7870  136.4660 C   0  0  0  0  0  0  0  0  0  0  0  0
  193.8000  174.0490  136.7440 C   0  0  0  0  0  3  0  0  0  0  0  0
  193.1800  176.0130  138.0600 C   0  0  0  0  0  0  0  0  0  0  0  0
  195.5250  175.2530  137.7900 O   0  0  0  0  0  1  0  0  0  0  0  0
  194.1760  175.0710  137.5150 C   0  0  0  0  0  0  0  0  0  0  0  0
  191.3130  174.4990  137.2420 C   0  0  0  0  0  2  0  0  0  0  0  0
  192.0600  172.9050  135.6270 O   0  0  0  0  0  0  0  0  0  0  0  0
  193.5550  176.9430  138.8240 O   0  0  0  0  0  0  0  0  0  0  0  0
  191.7380  175.9280  137.6070 C   0  0  1  0  0  3  0  0  0  0  0  0
  187.0120  178.3110  146.4470 C   0  0  0  0  0  2  0  0  0  0  0  0
  185.7000  179.0660  146.2970 C   0  0  0  0  0  2  0  0  0  0  0  0
  184.5550  178.2530  146.8660 C   0  0  0  0  0  1  0  0  0  0  0  0
  1 16  1  0  0  0  0
  2  6  1  0  0  0  0
  2 19  2  0  0  0  0
  3  8  1  0  0  0  0
  4 17  1  0  0  0  0
  4  3  2  0  0  0  0
  5 13  1  0  0  0  0
  6 14  1  0  0  0  0
  7  1  1  0  0  0  0
  8 10  2  0  0  0  0
  9  6  2  0  0  0  0
 10  9  1  0  0  0  0
 11 20  2  0  0  0  0
 13 16  1  0  0  0  0
 13 12  1  1  0  0  0
 14  7  1  0  0  0  0
 14  5  2  0  0  0  0
 15  5  1  0  0  0  0
 16 30  1  0  0  0  0
 17 18  2  0  0  0  0
 18 11  1  0  0  0  0
 18 10  1  0  0  0  0
 19 15  1  0  0  0  0
 20  2  1  0  0  0  0
 21 22  1  0  0  0  0
 21 26  1  0  0  0  0
 22 25  2  0  0  0  0
 23 28  2  0  0  0  0
 25 24  1  0  0  0  0
 25 23  1  0  0  0  0
 26 29  1  0  0  0  0
 27 21  2  0  0  0  0
 29 23  1  0  0  0  0
 29 11  1  1  0  0  0
 31 30  1  0  0  0  0
 31 32  1  0  0  0  0
M  END
>  <MODEL>
5

>  <REMARK>
 VINA RESULT:      -9.2      4.545      8.004
  Name = 
  3 active torsions:
  status: ('A' for Active; 'I' for Inactive)
    1  A    between atoms: C_1  and  C_10
    2  A    between atoms: C_10  and  N_24
    3  A    between atoms: C_16  and  C_32
                            x       y       z     vdW  Elec       q    Type
                         _______ _______ _______ _____ _____    ______ ____

>  <TORSDO>
F 3

$$$$
=
 OpenBabel11052416583D

 32 36  0  0  1  0  0  0  0  0999 V2000
  188.0780  177.9380  137.6280 C   0  0  0  0  0  2  0  0  0  0  0  0
  189.2220  176.7310  142.3680 C   0  0  0  0  0  0  0  0  0  0  0  0
  184.3210  178.7760  144.0640 C   0  0  0  0  0  3  0  0  0  0  0  0
  184.7640  178.3930  145.3230 C   0  0  0  0  0  3  0  0  0  0  0  0
  189.7450  176.8280  139.5670 C   0  0  0  0  0  0  0  0  0  0  0  0
  188.3290  177.4810  141.4580 C   0  0  0  0  0  0  0  0  0  0  0  0
  187.8950  178.4000  139.0630 C   0  0  0  0  0  2  0  0  0  0  0  0
  185.1660  178.6380  142.9670 C   0  0  0  0  0  3  0  0  0  0  0  0
  187.1780  178.0450  141.8210 C   0  0  0  0  0  3  0  0  0  0  0  0
  186.4610  178.1150  143.0970 C   0  0  0  0  0  0  0  0  0  0  0  0
  188.2860  177.2030  144.7010 C   0  0  0  0  0  0  0  0  0  0  0  0
  191.6390  176.8680  137.9670 C   0  0  0  0  0  1  0  0  0  0  0  0
  190.1220  176.7970  138.0970 C   0  0  2  0  0  3  0  0  0  0  0  0
  188.6870  177.5360  140.0120 C   0  0  0  0  0  0  0  0  0  0  0  0
  190.4890  176.0510  140.4640 O   0  0  0  0  0  0  0  0  0  0  0  0
  189.5040  177.8850  137.3220 N   0  0  0  0  0  0  0  0  0  0  0  0
  186.0500  177.8800  145.4730 C   0  0  0  0  0  3  0  0  0  0  0  0
  186.9290  177.7290  144.3800 C   0  0  0  0  0  0  0  0  0  0  0  0
  190.2460  176.0590  141.8410 C   0  0  0  0  0  3  0  0  0  0  0  0
  189.1950  176.7640  143.8270 C   0  0  0  0  0  3  0  0  0  0  0  0
  188.5150  178.1710  148.4150 C   0  0  0  0  0  0  0  0  0  0  0  0
  189.9320  177.8760  148.6700 C   0  0  0  0  0  3  0  0  0  0  0  0
  190.1640  177.0210  146.3920 C   0  0  0  0  0  0  0  0  0  0  0  0
  192.0590  177.1480  147.9870 O   0  0  0  0  0  1  0  0  0  0  0  0
  190.7150  177.3670  147.7170 C   0  0  0  0  0  0  0  0  0  0  0  0
  187.9770  178.1500  147.0160 C   0  0  0  0  0  2  0  0  0  0  0  0
  187.7680  178.5190  149.3660 O   0  0  0  0  0  0  0  0  0  0  0  0
  190.9330  176.5840  145.4930 O   0  0  0  0  0  0  0  0  0  0  0  0
  188.6690  177.0790  146.1610 C   0  0  1  0  0  3  0  0  0  0  0  0
  189.5990  177.5350  135.9090 C   0  0  0  0  0  2  0  0  0  0  0  0
  188.6980  176.3510  135.5950 C   0  0  0  0  0  2  0  0  0  0  0  0
  189.4220  175.3580  134.7080 C   0  0  0  0  0  1  0  0  0  0  0  0
  1  7  1  0  0  0  0
  2 20  1  0  0  0  0
  3  4  1  0  0  0  0
  4 17  2  0  0  0  0
  5 14  2  0  0  0  0
  5 15  1  0  0  0  0
  6  9  2  0  0  0  0
  6  2  1  0  0  0  0
  7 14  1  0  0  0  0
  8 10  1  0  0  0  0
  8  3  2  0  0  0  0
  9 10  1  0  0  0  0
 10 18  2  0  0  0  0
 13 12  1  1  0  0  0
 13  5  1  0  0  0  0
 14  6  1  0  0  0  0
 15 19  1  0  0  0  0
 16  1  1  0  0  0  0
 16 13  1  0  0  0  0
 18 11  1  0  0  0  0
 18 17  1  0  0  0  0
 19  2  2  0  0  0  0
 20 11  2  0  0  0  0
 21 22  1  0  0  0  0
 21 27  2  0  0  0  0
 23 25  1  0  0  0  0
 25 24  1  0  0  0  0
 25 22  2  0  0  0  0
 26 21  1  0  0  0  0
 28 23  2  0  0  0  0
 29 11  1  6  0  0  0
 29 23  1  0  0  0  0
 29 26  1  0  0  0  0
 30 16  1  0  0  0  0
 31 30  1  0  0  0  0
 32 31  1  0  0  0  0
M  END
>  <MODEL>
6

>  <REMARK>
 VINA RESULT:      -8.9      4.220      8.210
  Name = 
  3 active torsions:
  status: ('A' for Active; 'I' for Inactive)
    1  A    between atoms: C_1  and  C_10
    2  A    between atoms: C_10  and  N_24
    3  A    between atoms: C_16  and  C_32
                            x       y       z     vdW  Elec       q    Type
                         _______ _______ _______ _____ _____    ______ ____

>  <TORSDO>
F 3

$$$$
=
 OpenBabel11052416583D

 32 36  0  0  1  0  0  0  0  0999 V2000
  187.6610  177.6420  146.2530 C   0  0  0  0  0  2  0  0  0  0  0  0
  187.9180  178.1930  141.2650 C   0  0  0  0  0  0  0  0  0  0  0  0
  182.4010  178.9680  141.0740 C   0  0  0  0  0  3  0  0  0  0  0  0
  182.6150  179.0980  139.7080 C   0  0  0  0  0  3  0  0  0  0  0  0
  189.0610  177.7850  143.8460 C   0  0  0  0  0  0  0  0  0  0  0  0
  187.0560  177.9850  142.4500 C   0  0  0  0  0  0  0  0  0  0  0  0
  186.8920  177.3680  144.9720 C   0  0  0  0  0  2  0  0  0  0  0  0
  183.4650  178.6340  141.9080 C   0  0  0  0  0  3  0  0  0  0  0  0
  185.7290  178.0950  142.4490 C   0  0  0  0  0  3  0  0  0  0  0  0
  184.7560  178.4260  141.4040 C   0  0  0  0  0  0  0  0  0  0  0  0
  186.2790  178.3110  139.3050 C   0  0  0  0  0  0  0  0  0  0  0  0
  191.0380  176.7530  144.9300 C   0  0  0  0  0  1  0  0  0  0  0  0
  189.7860  177.5900  145.1650 C   0  0  2  0  0  3  0  0  0  0  0  0
  187.7160  177.7260  143.7610 C   0  0  0  0  0  0  0  0  0  0  0  0
  189.8160  178.0930  142.7070 O   0  0  0  0  0  0  0  0  0  0  0  0
  188.9470  176.9540  146.1940 N   0  0  0  0  0  0  0  0  0  0  0  0
  183.8900  178.8860  139.1890 C   0  0  0  0  0  3  0  0  0  0  0  0
  184.9860  178.5450  140.0080 C   0  0  0  0  0  0  0  0  0  0  0  0
  189.2390  178.2370  141.4420 C   0  0  0  0  0  3  0  0  0  0  0  0
  187.4840  178.2080  139.8730 C   0  0  0  0  0  3  0  0  0  0  0  0
  185.6780  176.8300  135.8090 C   0  0  0  0  0  0  0  0  0  0  0  0
  186.9360  177.2100  135.1500 C   0  0  0  0  0  3  0  0  0  0  0  0
  187.6290  178.4100  137.1630 C   0  0  0  0  0  0  0  0  0  0  0  0
  189.0590  178.2180  135.1450 O   0  0  0  0  0  1  0  0  0  0  0  0
  187.8650  177.9220  135.7910 C   0  0  0  0  0  0  0  0  0  0  0  0
  185.5150  177.0100  137.2880 C   0  0  0  0  0  2  0  0  0  0  0  0
  184.7640  176.2800  135.1420 O   0  0  0  0  0  0  0  0  0  0  0  0
  188.5400  179.0410  137.7640 O   0  0  0  0  0  0  0  0  0  0  0  0
  186.2610  178.2520  137.7930 C   0  0  1  0  0  3  0  0  0  0  0  0
  189.5820  177.1780  147.4870 C   0  0  0  0  0  2  0  0  0  0  0  0
  188.9390  178.3610  148.1960 C   0  0  0  0  0  2  0  0  0  0  0  0
  187.9310  177.8780  149.2190 C   0  0  0  0  0  1  0  0  0  0  0  0
  2 19  2  0  0  0  0
  2  6  1  0  0  0  0
  3  8  1  0  0  0  0
  4  3  2  0  0  0  0
  5 13  1  0  0  0  0
  6 14  1  0  0  0  0
  7  1  1  0  0  0  0
  9  6  2  0  0  0  0
 10  8  2  0  0  0  0
 10  9  1  0  0  0  0
 11 20  2  0  0  0  0
 11 18  1  0  0  0  0
 13 12  1  6  0  0  0
 13 16  1  0  0  0  0
 14  5  2  0  0  0  0
 14  7  1  0  0  0  0
 15  5  1  0  0  0  0
 16  1  1  0  0  0  0
 16 30  1  0  0  0  0
 17  4  1  0  0  0  0
 17 18  2  0  0  0  0
 18 10  1  0  0  0  0
 19 15  1  0  0  0  0
 20  2  1  0  0  0  0
 21 26  1  0  0  0  0
 22 25  2  0  0  0  0
 22 21  1  0  0  0  0
 23 28  2  0  0  0  0
 23 29  1  0  0  0  0
 24 25  1  0  0  0  0
 25 23  1  0  0  0  0
 26 29  1  0  0  0  0
 27 21  2  0  0  0  0
 29 11  1  1  0  0  0
 30 31  1  0  0  0  0
 31 32  1  0  0  0  0
M  END
>  <MODEL>
7

>  <REMARK>
 VINA RESULT:      -8.7      2.748      3.798
  Name = 
  3 active torsions:
  status: ('A' for Active; 'I' for Inactive)
    1  A    between atoms: C_1  and  C_10
    2  A    between atoms: C_10  and  N_24
    3  A    between atoms: C_16  and  C_32
                            x       y       z     vdW  Elec       q    Type
                         _______ _______ _______ _____ _____    ______ ____

>  <TORSDO>
F 3

$$$$
=
 OpenBabel11052416583D

 32 36  0  0  1  0  0  0  0  0999 V2000
  180.9870  179.3300  143.2630 C   0  0  0  0  0  2  0  0  0  0  0  0
  185.7820  178.0280  142.5180 C   0  0  0  0  0  0  0  0  0  0  0  0
  186.6060  177.9390  148.0300 C   0  0  0  0  0  3  0  0  0  0  0  0
  187.9020  177.5850  147.6820 C   0  0  0  0  0  3  0  0  0  0  0  0
  183.1460  178.6600  141.6310 C   0  0  0  0  0  0  0  0  0  0  0  0
  184.7600  178.5150  143.4710 C   0  0  0  0  0  0  0  0  0  0  0  0
  182.3830  179.5100  143.8320 C   0  0  0  0  0  2  0  0  0  0  0  0
  185.6880  178.2540  147.0330 C   0  0  0  0  0  3  0  0  0  0  0  0
  184.9240  178.5750  144.7910 C   0  0  0  0  0  3  0  0  0  0  0  0
  186.0380  178.2200  145.6750 C   0  0  0  0  0  0  0  0  0  0  0  0
  187.9110  177.8330  143.9220 C   0  0  0  0  0  0  0  0  0  0  0  0
  181.9510  179.5810  139.6630 C   0  0  0  0  0  1  0  0  0  0  0  0
  181.7790  178.9530  141.0410 C   0  0  2  0  0  3  0  0  0  0  0  0
  183.4170  178.8770  142.9350 C   0  0  0  0  0  0  0  0  0  0  0  0
  184.1250  178.0960  140.8030 O   0  0  0  0  0  0  0  0  0  0  0  0
  180.9630  179.8340  141.8930 N   0  0  0  0  0  0  0  0  0  0  0  0
  188.2700  177.5550  146.3400 C   0  0  0  0  0  3  0  0  0  0  0  0
  187.3630  177.8710  145.3060 C   0  0  0  0  0  0  0  0  0  0  0  0
  185.4270  177.8430  141.2460 C   0  0  0  0  0  3  0  0  0  0  0  0
  187.2060  177.8640  142.7880 C   0  0  0  0  0  3  0  0  0  0  0  0
  191.6230  178.8350  143.9520 C   0  0  0  0  0  0  0  0  0  0  0  0
  192.0550  178.2530  142.6730 C   0  0  0  0  0  3  0  0  0  0  0  0
  189.8270  177.3030  142.3510 C   0  0  0  0  0  0  0  0  0  0  0  0
  191.6500  177.0690  140.6840 O   0  0  0  0  0  1  0  0  0  0  0  0
  191.2100  177.5620  141.9070 C   0  0  0  0  0  0  0  0  0  0  0  0
  190.1670  178.8890  144.3040 C   0  0  0  0  0  2  0  0  0  0  0  0
  192.4700  179.3610  144.7180 O   0  0  0  0  0  0  0  0  0  0  0  0
  189.0340  176.6870  141.5880 O   0  0  0  0  0  0  0  0  0  0  0  0
  189.4070  177.6720  143.7570 C   0  0  1  0  0  3  0  0  0  0  0  0
  179.5780  179.7230  141.4490 C   0  0  0  0  0  2  0  0  0  0  0  0
  178.9310  181.0970  141.3820 C   0  0  0  0  0  2  0  0  0  0  0  0
  178.9870  181.6380  139.9670 C   0  0  0  0  0  1  0  0  0  0  0  0
  1  7  1  0  0  0  0
  2 20  1  0  0  0  0
  2  6  1  0  0  0  0
  4  3  1  0  0  0  0
  5 14  2  0  0  0  0
  6  9  2  0  0  0  0
  8  3  2  0  0  0  0
  9 10  1  0  0  0  0
 10  8  1  0  0  0  0
 11 18  1  0  0  0  0
 13 12  1  6  0  0  0
 13  5  1  0  0  0  0
 13 16  1  0  0  0  0
 14  6  1  0  0  0  0
 14  7  1  0  0  0  0
 15 19  1  0  0  0  0
 15  5  1  0  0  0  0
 16  1  1  0  0  0  0
 17  4  2  0  0  0  0
 18 10  2  0  0  0  0
 18 17  1  0  0  0  0
 19  2  2  0  0  0  0
 20 11  2  0  0  0  0
 21 26  1  0  0  0  0
 21 27  2  0  0  0  0
 22 21  1  0  0  0  0
 23 29  1  0  0  0  0
 24 25  1  0  0  0  0
 25 23  1  0  0  0  0
 25 22  2  0  0  0  0
 28 23  2  0  0  0  0
 29 11  1  6  0  0  0
 29 26  1  0  0  0  0
 30 16  1  0  0  0  0
 31 30  1  0  0  0  0
 32 31  1  0  0  0  0
M  END
>  <MODEL>
8

>  <REMARK>
 VINA RESULT:      -8.6      2.767      8.502
  Name = 
  3 active torsions:
  status: ('A' for Active; 'I' for Inactive)
    1  A    between atoms: C_1  and  C_10
    2  A    between atoms: C_10  and  N_24
    3  A    between atoms: C_16  and  C_32
                            x       y       z     vdW  Elec       q    Type
                         _______ _______ _______ _____ _____    ______ ____

>  <TORSDO>
F 3

$$$$
=
 OpenBabel11052416583D

 32 36  0  0  1  0  0  0  0  0999 V2000
  183.2550  179.0240  140.9930 C   0  0  0  0  0  2  0  0  0  0  0  0
  187.2620  178.0920  143.8780 C   0  0  0  0  0  0  0  0  0  0  0  0
  190.4540  177.7520  139.3210 C   0  0  0  0  0  3  0  0  0  0  0  0
  191.4720  177.5030  140.2320 C   0  0  0  0  0  3  0  0  0  0  0  0
  184.5040  178.6920  143.4630 C   0  0  0  0  0  0  0  0  0  0  0  0
  186.6840  178.0940  142.5150 C   0  0  0  0  0  0  0  0  0  0  0  0
  184.5570  178.2420  141.0250 C   0  0  0  0  0  2  0  0  0  0  0  0
  189.1440  177.8840  139.7720 C   0  0  0  0  0  3  0  0  0  0  0  0
  187.3910  177.9540  141.3940 C   0  0  0  0  0  3  0  0  0  0  0  0
  188.8210  177.7740  141.1320 C   0  0  0  0  0  0  0  0  0  0  0  0
  189.6750  177.3160  143.5400 C   0  0  0  0  0  0  0  0  0  0  0  0
  182.2930  178.4120  144.5490 C   0  0  0  0  0  1  0  0  0  0  0  0
  183.0300  179.0380  143.3700 C   0  0  2  0  0  3  0  0  0  0  0  0
  185.2260  178.3660  142.3710 C   0  0  0  0  0  0  0  0  0  0  0  0
  185.1340  178.7770  144.7120 O   0  0  0  0  0  0  0  0  0  0  0  0
  182.4150  178.5970  142.1070 N   0  0  0  0  0  0  0  0  0  0  0  0
  191.1680  177.3820  141.5860 C   0  0  0  0  0  3  0  0  0  0  0  0
  189.8500  177.5080  142.0730 C   0  0  0  0  0  0  0  0  0  0  0  0
  186.4740  178.4280  144.9000 C   0  0  0  0  0  3  0  0  0  0  0  0
  188.5850  177.6090  144.2550 C   0  0  0  0  0  3  0  0  0  0  0  0
  192.0920  174.7440  145.0670 C   0  0  0  0  0  0  0  0  0  0  0  0
  192.2220  175.2910  146.4250 C   0  0  0  0  0  3  0  0  0  0  0  0
  190.8240  177.1940  145.7950 C   0  0  0  0  0  0  0  0  0  0  0  0
  191.7190  176.8740  148.0860 O   0  0  0  0  0  1  0  0  0  0  0  0
  191.6060  176.4200  146.7790 C   0  0  0  0  0  0  0  0  0  0  0  0
  191.0640  175.2970  144.1250 C   0  0  0  0  0  2  0  0  0  0  0  0
  192.7910  173.7580  144.7200 O   0  0  0  0  0  0  0  0  0  0  0  0
  190.2130  178.2330  146.1640 O   0  0  0  0  0  0  0  0  0  0  0  0
  190.8590  176.8040  144.3330 C   0  0  1  0  0  3  0  0  0  0  0  0
  181.1520  179.3100  141.9540 C   0  0  0  0  0  2  0  0  0  0  0  0
  180.3240  178.6900  140.8400 C   0  0  0  0  0  2  0  0  0  0  0  0
  179.5830  177.4700  141.3500 C   0  0  0  0  0  1  0  0  0  0  0  0
  1  7  1  0  0  0  0
  1 16  1  0  0  0  0
  2 20  1  0  0  0  0
  2 19  2  0  0  0  0
  3  8  2  0  0  0  0
  3  4  1  0  0  0  0
  4 17  2  0  0  0  0
  5 15  1  0  0  0  0
  6  2  1  0  0  0  0
  7 14  1  0  0  0  0
  8 10  1  0  0  0  0
  9  6  2  0  0  0  0
 10  9  1  0  0  0  0
 10 18  2  0  0  0  0
 11 20  2  0  0  0  0
 13  5  1  0  0  0  0
 13 12  1  1  0  0  0
 14  6  1  0  0  0  0
 14  5  2  0  0  0  0
 15 19  1  0  0  0  0
 16 13  1  0  0  0  0
 17 18  1  0  0  0  0
 18 11  1  0  0  0  0
 21 22  1  0  0  0  0
 22 25  2  0  0  0  0
 23 28  2  0  0  0  0
 23 25  1  0  0  0  0
 25 24  1  0  0  0  0
 26 29  1  0  0  0  0
 26 21  1  0  0  0  0
 27 21  2  0  0  0  0
 29 11  1  1  0  0  0
 29 23  1  0  0  0  0
 30 16  1  0  0  0  0
 31 32  1  0  0  0  0
 31 30  1  0  0  0  0
M  END
>  <MODEL>
9

>  <REMARK>
 VINA RESULT:      -8.4      3.215      9.324
  Name = 
  3 active torsions:
  status: ('A' for Active; 'I' for Inactive)
    1  A    between atoms: C_1  and  C_10
    2  A    between atoms: C_10  and  N_24
    3  A    between atoms: C_16  and  C_32
                            x       y       z     vdW  Elec       q    Type
                         _______ _______ _______ _____ _____    ______ ____

>  <TORSDO>
F 3

$$$$
