=
 OpenBabel11052413213D

 28 29  0  0  1  0  0  0  0  0999 V2000
  188.7970  178.0500  136.2320 C   0  0  0  0  0  1  0  0  0  0  0  0
  187.7900  177.5340  137.1480 N   0  0  0  0  0  0  0  0  0  0  0  0
  188.4520  177.0070  138.3470 C   0  0  0  0  0  2  0  0  0  0  0  0
  189.4400  178.0000  138.9760 C   0  0  0  0  0  2  0  0  0  0  0  0
  190.4940  177.2990  139.8240 C   0  0  2  0  0  3  0  0  0  0  0  0
  190.6630  175.9780  139.4050 O   0  0  0  0  0  1  0  0  0  0  0  0
  190.1210  177.3430  141.2970 C   0  0  0  0  0  2  0  0  0  0  0  0
  191.1940  176.9020  142.0700 O   0  0  0  0  0  0  0  0  0  0  0  0
  190.6330  175.9800  142.9520 C   0  0  0  0  0  2  0  0  0  0  0  0
  189.5280  176.6440  143.7590 C   0  0  0  0  0  2  0  0  0  0  0  0
  190.0440  177.4250  144.9700 C   0  0  2  0  0  3  0  0  0  0  0  0
  191.3300  176.8460  145.5420 C   0  0  0  0  0  1  0  0  0  0  0  0
  189.1550  176.8940  147.2960 C   0  0  0  0  0  1  0  0  0  0  0  0
  188.9840  177.7220  146.0320 C   0  0  0  0  0  2  0  0  0  0  0  0
  186.9680  178.6090  137.5250 N   0  0  0  0  0  2  0  0  0  0  0  0
  185.8010  178.0580  138.2040 C   0  0  0  0  0  2  0  0  0  0  0  0
  185.2630  179.0220  139.1560 N   0  0  0  0  0  2  0  0  0  0  0  0
  183.1790  179.0600  143.5820 C   0  0  0  0  0  3  0  0  0  0  0  0
  185.5500  178.5620  143.3580 C   0  0  0  0  0  0  0  0  0  0  0  0
  184.2050  179.0360  141.3880 C   0  0  0  0  0  3  0  0  0  0  0  0
  184.5160  178.5790  145.5480 C   0  0  0  0  0  0  0  0  0  0  0  0
  184.3050  178.8870  142.7730 C   0  0  0  0  0  0  0  0  0  0  0  0
  186.5700  178.5560  141.1630 C   0  0  0  0  0  3  0  0  0  0  0  0
  185.6480  178.4070  144.7440 C   0  0  0  0  0  3  0  0  0  0  0  0
  186.6770  178.4000  142.5490 C   0  0  0  0  0  3  0  0  0  0  0  0
  184.6150  178.4250  146.9230 O   0  0  0  0  0  1  0  0  0  0  0  0
  183.2860  178.9060  144.9690 C   0  0  0  0  0  3  0  0  0  0  0  0
  185.3380  178.8710  140.5760 C   0  0  0  0  0  0  0  0  0  0  0  0
  1  2  1  0  0  0  0
  2 15  1  0  0  0  0
  2  3  1  0  0  0  0
  3  4  1  0  0  0  0
  4  5  1  0  0  0  0
  5  6  1  6  0  0  0
  5  7  1  0  0  0  0
  7  8  1  0  0  0  0
  8  9  1  0  0  0  0
  9 10  1  0  0  0  0
 10 11  1  0  0  0  0
 11 12  1  1  0  0  0
 11 14  1  0  0  0  0
 14 13  1  0  0  0  0
 15 16  1  0  0  0  0
 16 17  1  0  0  0  0
 17 28  1  0  0  0  0
 18 27  1  0  0  0  0
 19 24  2  0  0  0  0
 20 22  1  0  0  0  0
 21 26  1  0  0  0  0
 22 19  1  0  0  0  0
 22 18  2  0  0  0  0
 23 25  2  0  0  0  0
 24 21  1  0  0  0  0
 25 19  1  0  0  0  0
 27 21  2  0  0  0  0
 28 23  1  0  0  0  0
 28 20  2  0  0  0  0
M  END
>  <MODEL>
1

>  <REMARK>
 VINA RESULT:      -7.5      0.000      0.000
  Name = 
  13 active torsions:
  status: ('A' for Active; 'I' for Inactive)
    1  A    between atoms: C_1  and  C_2
    2  A    between atoms: C_1  and  C_26
    3  A    between atoms: C_2  and  O_3
    4  A    between atoms: O_3  and  C_7
    5  A    between atoms: C_5  and  N_20
    6  A    between atoms: C_5  and  N_27
    7  A    between atoms: C_6  and  C_11
    8  A    between atoms: C_6  and  C_28
    9  A    between atoms: C_7  and  C_28
   10  A    between atoms: C_19  and  N_21
   11  A    between atoms: C_19  and  C_26
   12  A    between atoms: N_20  and  C_25
   13  A    between atoms: N_21  and  N_27
                            x       y       z     vdW  Elec       q    Type
                         _______ _______ _______ _____ _____    ______ ____

>  <TORSDO>
F 13

$$$$
=
 OpenBabel11052413213D

 28 29  0  0  1  0  0  0  0  0999 V2000
  183.4040  178.7960  138.3630 C   0  0  0  0  0  1  0  0  0  0  0  0
  184.5550  178.4420  139.1810 N   0  0  0  0  0  0  0  0  0  0  0  0
  185.7350  178.3010  138.3210 C   0  0  0  0  0  2  0  0  0  0  0  0
  187.0120  177.9540  139.1010 C   0  0  0  0  0  2  0  0  0  0  0  0
  188.2720  178.2990  138.3180 C   0  0  2  0  0  3  0  0  0  0  0  0
  188.4430  177.4190  137.2480 O   0  0  0  0  0  1  0  0  0  0  0  0
  189.4940  178.2780  139.2210 C   0  0  0  0  0  2  0  0  0  0  0  0
  189.4580  177.1510  140.0410 O   0  0  0  0  0  0  0  0  0  0  0  0
  190.6210  177.2380  140.8040 C   0  0  0  0  0  2  0  0  0  0  0  0
  190.2730  177.1780  142.2840 C   0  0  0  0  0  2  0  0  0  0  0  0
  191.4970  177.0330  143.1910 C   0  0  2  0  0  3  0  0  0  0  0  0
  191.6070  175.6510  143.8190 C   0  0  0  0  0  1  0  0  0  0  0  0
  190.8330  179.3960  143.8720 C   0  0  0  0  0  1  0  0  0  0  0  0
  191.6820  178.1750  144.1930 C   0  0  0  0  0  2  0  0  0  0  0  0
  184.7780  179.4980  140.0810 N   0  0  0  0  0  2  0  0  0  0  0  0
  184.1930  179.1200  141.3610 C   0  0  0  0  0  2  0  0  0  0  0  0
  185.0020  178.0940  142.0080 N   0  0  0  0  0  2  0  0  0  0  0  0
  188.3450  177.2080  145.4680 C   0  0  0  0  0  3  0  0  0  0  0  0
  186.2660  178.3310  146.0450 C   0  0  0  0  0  0  0  0  0  0  0  0
  186.6960  177.6510  143.7500 C   0  0  0  0  0  3  0  0  0  0  0  0
  187.9230  177.8950  147.7560 C   0  0  0  0  0  0  0  0  0  0  0  0
  187.1070  177.7270  145.0830 C   0  0  0  0  0  0  0  0  0  0  0  0
  184.6170  178.7550  144.3250 C   0  0  0  0  0  3  0  0  0  0  0  0
  186.6800  178.4140  147.3770 C   0  0  0  0  0  3  0  0  0  0  0  0
  185.0240  178.8400  145.6610 C   0  0  0  0  0  3  0  0  0  0  0  0
  188.3330  177.9770  149.0790 O   0  0  0  0  0  1  0  0  0  0  0  0
  188.7520  177.2920  146.8040 C   0  0  0  0  0  3  0  0  0  0  0  0
  185.4480  178.1640  143.3650 C   0  0  0  0  0  0  0  0  0  0  0  0
  1  2  1  0  0  0  0
  2 15  1  0  0  0  0
  3  4  1  0  0  0  0
  3  2  1  0  0  0  0
  5  6  1  6  0  0  0
  5  4  1  0  0  0  0
  5  7  1  0  0  0  0
  7  8  1  0  0  0  0
  8  9  1  0  0  0  0
  9 10  1  0  0  0  0
 10 11  1  0  0  0  0
 11 12  1  1  0  0  0
 11 14  1  0  0  0  0
 13 14  1  0  0  0  0
 15 16  1  0  0  0  0
 16 17  1  0  0  0  0
 17 28  1  0  0  0  0
 18 27  1  0  0  0  0
 19 24  2  0  0  0  0
 20 22  1  0  0  0  0
 21 26  1  0  0  0  0
 22 18  2  0  0  0  0
 22 19  1  0  0  0  0
 23 25  2  0  0  0  0
 24 21  1  0  0  0  0
 25 19  1  0  0  0  0
 27 21  2  0  0  0  0
 28 20  2  0  0  0  0
 28 23  1  0  0  0  0
M  END
>  <MODEL>
2

>  <REMARK>
 VINA RESULT:      -7.3      1.821      3.619
  Name = 
  13 active torsions:
  status: ('A' for Active; 'I' for Inactive)
    1  A    between atoms: C_1  and  C_2
    2  A    between atoms: C_1  and  C_26
    3  A    between atoms: C_2  and  O_3
    4  A    between atoms: O_3  and  C_7
    5  A    between atoms: C_5  and  N_20
    6  A    between atoms: C_5  and  N_27
    7  A    between atoms: C_6  and  C_11
    8  A    between atoms: C_6  and  C_28
    9  A    between atoms: C_7  and  C_28
   10  A    between atoms: C_19  and  N_21
   11  A    between atoms: C_19  and  C_26
   12  A    between atoms: N_20  and  C_25
   13  A    between atoms: N_21  and  N_27
                            x       y       z     vdW  Elec       q    Type
                         _______ _______ _______ _____ _____    ______ ____

>  <TORSDO>
F 13

$$$$
=
 OpenBabel11052413213D

 28 29  0  0  1  0  0  0  0  0999 V2000
  192.1840  175.5600  146.4970 C   0  0  0  0  0  1  0  0  0  0  0  0
  191.5430  176.8330  146.7930 N   0  0  0  0  0  0  0  0  0  0  0  0
  191.3590  177.5850  145.5470 C   0  0  0  0  0  2  0  0  0  0  0  0
  191.6330  176.7450  144.2910 C   0  0  0  0  0  2  0  0  0  0  0  0
  191.3820  177.5320  143.0110 C   0  0  2  0  0  3  0  0  0  0  0  0
  190.9180  178.8150  143.3050 O   0  0  0  0  0  1  0  0  0  0  0  0
  190.3950  176.8050  142.1120 C   0  0  0  0  0  2  0  0  0  0  0  0
  190.2800  177.4750  140.8950 O   0  0  0  0  0  0  0  0  0  0  0  0
  189.0960  176.9910  140.3410 C   0  0  0  0  0  2  0  0  0  0  0  0
  188.2360  178.1510  139.8640 C   0  0  0  0  0  2  0  0  0  0  0  0
  187.8380  178.0460  138.3900 C   0  0  2  0  0  3  0  0  0  0  0  0
  186.3390  178.1970  138.1710 C   0  0  0  0  0  1  0  0  0  0  0  0
  189.6210  177.2290  136.7660 C   0  0  0  0  0  1  0  0  0  0  0  0
  188.4440  176.8500  137.6530 C   0  0  0  0  0  2  0  0  0  0  0  0
  190.2790  176.5540  147.3400 N   0  0  0  0  0  2  0  0  0  0  0  0
  189.4790  177.7690  147.2490 C   0  0  0  0  0  2  0  0  0  0  0  0
  188.0590  177.4400  147.1770 N   0  0  0  0  0  2  0  0  0  0  0  0
  183.8900  178.8520  145.0420 C   0  0  0  0  0  3  0  0  0  0  0  0
  185.7170  177.9840  143.6890 C   0  0  0  0  0  0  0  0  0  0  0  0
  185.9550  178.1600  146.1030 C   0  0  0  0  0  3  0  0  0  0  0  0
  183.6540  178.6860  142.6330 C   0  0  0  0  0  0  0  0  0  0  0  0
  185.1840  178.3350  144.9510 C   0  0  0  0  0  0  0  0  0  0  0  0
  187.7700  177.2810  144.7600 C   0  0  0  0  0  3  0  0  0  0  0  0
  184.9480  178.1640  142.5350 C   0  0  0  0  0  3  0  0  0  0  0  0
  187.0070  177.4570  143.6000 C   0  0  0  0  0  3  0  0  0  0  0  0
  182.8910  178.8630  141.4880 O   0  0  0  0  0  1  0  0  0  0  0  0
  183.1260  179.0260  143.8830 C   0  0  0  0  0  3  0  0  0  0  0  0
  187.2520  177.6320  146.0120 C   0  0  0  0  0  0  0  0  0  0  0  0
  1  2  1  0  0  0  0
  2 15  1  0  0  0  0
  3  2  1  0  0  0  0
  4  3  1  0  0  0  0
  5  6  1  1  0  0  0
  5  4  1  0  0  0  0
  7  5  1  0  0  0  0
  8  7  1  0  0  0  0
  9  8  1  0  0  0  0
 10  9  1  0  0  0  0
 11 12  1  1  0  0  0
 11 10  1  0  0  0  0
 13 14  1  0  0  0  0
 14 11  1  0  0  0  0
 16 15  1  0  0  0  0
 17 16  1  0  0  0  0
 19 22  1  0  0  0  0
 21 27  1  0  0  0  0
 22 18  1  0  0  0  0
 22 20  2  0  0  0  0
 23 28  2  0  0  0  0
 24 21  2  0  0  0  0
 24 19  1  0  0  0  0
 25 19  2  0  0  0  0
 25 23  1  0  0  0  0
 26 21  1  0  0  0  0
 27 18  2  0  0  0  0
 28 20  1  0  0  0  0
 28 17  1  0  0  0  0
M  END
>  <MODEL>
3

>  <REMARK>
 VINA RESULT:      -7.1      3.524      6.334
  Name = 
  13 active torsions:
  status: ('A' for Active; 'I' for Inactive)
    1  A    between atoms: C_1  and  C_2
    2  A    between atoms: C_1  and  C_26
    3  A    between atoms: C_2  and  O_3
    4  A    between atoms: O_3  and  C_7
    5  A    between atoms: C_5  and  N_20
    6  A    between atoms: C_5  and  N_27
    7  A    between atoms: C_6  and  C_11
    8  A    between atoms: C_6  and  C_28
    9  A    between atoms: C_7  and  C_28
   10  A    between atoms: C_19  and  N_21
   11  A    between atoms: C_19  and  C_26
   12  A    between atoms: N_20  and  C_25
   13  A    between atoms: N_21  and  N_27
                            x       y       z     vdW  Elec       q    Type
                         _______ _______ _______ _____ _____    ______ ____

>  <TORSDO>
F 13

$$$$
=
 OpenBabel11052413213D

 28 29  0  0  1  0  0  0  0  0999 V2000
  191.1080  177.1040  139.8810 C   0  0  0  0  0  1  0  0  0  0  0  0
  189.8440  176.7280  140.4980 N   0  0  0  0  0  0  0  0  0  0  0  0
  189.7470  177.3530  141.8220 C   0  0  0  0  0  2  0  0  0  0  0  0
  190.0760  176.3880  142.9700 C   0  0  0  0  0  2  0  0  0  0  0  0
  191.4100  176.7170  143.6280 C   0  0  2  0  0  3  0  0  0  0  0  0
  191.9990  175.5630  144.1500 O   0  0  0  0  0  1  0  0  0  0  0  0
  191.2340  177.7600  144.7190 C   0  0  0  0  0  2  0  0  0  0  0  0
  191.6590  177.2440  145.9420 O   0  0  0  0  0  0  0  0  0  0  0  0
  190.4800  176.9630  146.6300 C   0  0  0  0  0  2  0  0  0  0  0  0
  189.3580  177.8540  146.1190 C   0  0  0  0  0  2  0  0  0  0  0  0
  188.1700  177.9470  147.0800 C   0  0  2  0  0  3  0  0  0  0  0  0
  188.3380  177.0720  148.3140 C   0  0  0  0  0  1  0  0  0  0  0  0
  185.8900  178.9960  146.6510 C   0  0  0  0  0  1  0  0  0  0  0  0
  186.8020  177.8020  146.4110 C   0  0  0  0  0  2  0  0  0  0  0  0
  188.8100  177.2280  139.6880 N   0  0  0  0  0  2  0  0  0  0  0  0
  188.2680  178.4120  140.3420 C   0  0  0  0  0  2  0  0  0  0  0  0
  186.8670  178.5970  139.9790 N   0  0  0  0  0  2  0  0  0  0  0  0
  182.0930  178.7260  141.0390 C   0  0  0  0  0  3  0  0  0  0  0  0
  183.7390  178.7620  142.8310 C   0  0  0  0  0  0  0  0  0  0  0  0
  184.4560  178.6560  140.5100 C   0  0  0  0  0  3  0  0  0  0  0  0
  181.3760  178.8230  143.3550 C   0  0  0  0  0  0  0  0  0  0  0  0
  183.4270  178.7140  141.4530 C   0  0  0  0  0  0  0  0  0  0  0  0
  186.0980  178.7070  142.2910 C   0  0  0  0  0  3  0  0  0  0  0  0
  182.7100  178.8140  143.7760 C   0  0  0  0  0  3  0  0  0  0  0  0
  185.0730  178.7600  143.2430 C   0  0  0  0  0  3  0  0  0  0  0  0
  180.3550  178.8760  144.2930 O   0  0  0  0  0  1  0  0  0  0  0  0
  181.0690  178.7820  141.9910 C   0  0  0  0  0  3  0  0  0  0  0  0
  185.7960  178.6520  140.9250 C   0  0  0  0  0  0  0  0  0  0  0  0
  1  2  1  0  0  0  0
  2  3  1  0  0  0  0
  3  4  1  0  0  0  0
  4  5  1  0  0  0  0
  5  6  1  1  0  0  0
  5  7  1  0  0  0  0
  7  8  1  0  0  0  0
  8  9  1  0  0  0  0
 10  9  1  0  0  0  0
 10 11  1  0  0  0  0
 11 12  1  1  0  0  0
 14 13  1  0  0  0  0
 14 11  1  0  0  0  0
 15 16  1  0  0  0  0
 15  2  1  0  0  0  0
 17 16  1  0  0  0  0
 17 28  1  0  0  0  0
 18 22  2  0  0  0  0
 18 27  1  0  0  0  0
 19 25  1  0  0  0  0
 19 24  2  0  0  0  0
 20 28  2  0  0  0  0
 20 22  1  0  0  0  0
 21 24  1  0  0  0  0
 21 26  1  0  0  0  0
 22 19  1  0  0  0  0
 23 25  2  0  0  0  0
 27 21  2  0  0  0  0
 28 23  1  0  0  0  0
M  END
>  <MODEL>
4

>  <REMARK>
 VINA RESULT:      -6.9      2.121      3.336
  Name = 
  13 active torsions:
  status: ('A' for Active; 'I' for Inactive)
    1  A    between atoms: C_1  and  C_2
    2  A    between atoms: C_1  and  C_26
    3  A    between atoms: C_2  and  O_3
    4  A    between atoms: O_3  and  C_7
    5  A    between atoms: C_5  and  N_20
    6  A    between atoms: C_5  and  N_27
    7  A    between atoms: C_6  and  C_11
    8  A    between atoms: C_6  and  C_28
    9  A    between atoms: C_7  and  C_28
   10  A    between atoms: C_19  and  N_21
   11  A    between atoms: C_19  and  C_26
   12  A    between atoms: N_20  and  C_25
   13  A    between atoms: N_21  and  N_27
                            x       y       z     vdW  Elec       q    Type
                         _______ _______ _______ _____ _____    ______ ____

>  <TORSDO>
F 13

$$$$
=
 OpenBabel11052413213D

 28 29  0  0  1  0  0  0  0  0999 V2000
  182.7350  179.2070  143.6640 C   0  0  0  0  0  1  0  0  0  0  0  0
  184.0780  179.2220  143.1020 N   0  0  0  0  0  0  0  0  0  0  0  0
  185.0580  179.0860  144.1850 C   0  0  0  0  0  2  0  0  0  0  0  0
  184.4220  178.6950  145.5270 C   0  0  0  0  0  2  0  0  0  0  0  0
  185.4700  178.4240  146.5990 C   0  0  2  0  0  3  0  0  0  0  0  0
  185.7160  179.5750  147.3500 O   0  0  0  0  0  1  0  0  0  0  0  0
  186.7590  177.9110  145.9790 C   0  0  0  0  0  2  0  0  0  0  0  0
  187.7040  177.6760  146.9770 O   0  0  0  0  0  0  0  0  0  0  0  0
  188.7830  177.1010  146.3070 C   0  0  0  0  0  2  0  0  0  0  0  0
  189.2900  178.0500  145.2330 C   0  0  0  0  0  2  0  0  0  0  0  0
  190.8130  178.0430  145.0850 C   0  0  2  0  0  3  0  0  0  0  0  0
  191.3010  178.9300  143.9480 C   0  0  0  0  0  1  0  0  0  0  0  0
  191.5070  176.0220  143.6990 C   0  0  0  0  0  1  0  0  0  0  0  0
  191.4430  176.6480  145.0840 C   0  0  0  0  0  2  0  0  0  0  0  0
  184.1940  178.1110  142.2490 N   0  0  0  0  0  2  0  0  0  0  0  0
  184.5910  178.6000  140.9350 C   0  0  0  0  0  2  0  0  0  0  0  0
  185.9000  179.2420  141.0050 N   0  0  0  0  0  2  0  0  0  0  0  0
  188.9030  177.2340  137.7070 C   0  0  0  0  0  3  0  0  0  0  0  0
  189.5540  177.3240  140.0490 C   0  0  0  0  0  0  0  0  0  0  0  0
  187.4150  178.2350  139.3350 C   0  0  0  0  0  3  0  0  0  0  0  0
  191.0400  176.3320  138.4150 C   0  0  0  0  0  0  0  0  0  0  0  0
  188.6200  177.5990  139.0240 C   0  0  0  0  0  0  0  0  0  0  0  0
  188.0540  178.3120  141.6710 C   0  0  0  0  0  3  0  0  0  0  0  0
  190.7620  176.6930  139.7380 C   0  0  0  0  0  3  0  0  0  0  0  0
  189.2650  177.6800  141.3680 C   0  0  0  0  0  3  0  0  0  0  0  0
  192.2390  175.7050  138.1070 O   0  0  0  0  0  1  0  0  0  0  0  0
  190.1130  176.6000  137.4030 C   0  0  0  0  0  3  0  0  0  0  0  0
  187.1270  178.5940  140.6610 C   0  0  0  0  0  0  0  0  0  0  0  0
  2  1  1  0  0  0  0
  2  3  1  0  0  0  0
  3  4  1  0  0  0  0
  4  5  1  0  0  0  0
  5  6  1  6  0  0  0
  7  5  1  0  0  0  0
  7  8  1  0  0  0  0
  9  8  1  0  0  0  0
 10  9  1  0  0  0  0
 11 12  1  6  0  0  0
 11 10  1  0  0  0  0
 13 14  1  0  0  0  0
 14 11  1  0  0  0  0
 15  2  1  0  0  0  0
 16 17  1  0  0  0  0
 16 15  1  0  0  0  0
 18 22  1  0  0  0  0
 19 25  1  0  0  0  0
 20 28  2  0  0  0  0
 21 24  2  0  0  0  0
 22 20  1  0  0  0  0
 22 19  2  0  0  0  0
 24 19  1  0  0  0  0
 25 23  2  0  0  0  0
 26 21  1  0  0  0  0
 27 18  2  0  0  0  0
 27 21  1  0  0  0  0
 28 17  1  0  0  0  0
 28 23  1  0  0  0  0
M  END
>  <MODEL>
5

>  <REMARK>
 VINA RESULT:      -6.8      1.827      6.475
  Name = 
  13 active torsions:
  status: ('A' for Active; 'I' for Inactive)
    1  A    between atoms: C_1  and  C_2
    2  A    between atoms: C_1  and  C_26
    3  A    between atoms: C_2  and  O_3
    4  A    between atoms: O_3  and  C_7
    5  A    between atoms: C_5  and  N_20
    6  A    between atoms: C_5  and  N_27
    7  A    between atoms: C_6  and  C_11
    8  A    between atoms: C_6  and  C_28
    9  A    between atoms: C_7  and  C_28
   10  A    between atoms: C_19  and  N_21
   11  A    between atoms: C_19  and  C_26
   12  A    between atoms: N_20  and  C_25
   13  A    between atoms: N_21  and  N_27
                            x       y       z     vdW  Elec       q    Type
                         _______ _______ _______ _____ _____    ______ ____

>  <TORSDO>
F 13

$$$$
=
 OpenBabel11052413213D

 28 29  0  0  1  0  0  0  0  0999 V2000
  191.3940  175.3960  137.4400 C   0  0  0  0  0  1  0  0  0  0  0  0
  190.5590  176.3630  138.1390 N   0  0  0  0  0  0  0  0  0  0  0  0
  189.1780  176.2470  137.6560 C   0  0  0  0  0  2  0  0  0  0  0  0
  188.8600  177.2080  136.5010 C   0  0  0  0  0  2  0  0  0  0  0  0
  188.0440  178.4080  136.9640 C   0  0  2  0  0  3  0  0  0  0  0  0
  188.7370  179.1290  137.9380 O   0  0  0  0  0  1  0  0  0  0  0  0
  186.6890  177.9690  137.4950 C   0  0  0  0  0  2  0  0  0  0  0  0
  186.2070  178.9130  138.4010 O   0  0  0  0  0  0  0  0  0  0  0  0
  184.8760  178.5530  138.6040 C   0  0  0  0  0  2  0  0  0  0  0  0
  184.3610  179.1810  139.8900 C   0  0  0  0  0  2  0  0  0  0  0  0
  183.7600  178.1660  140.8640 C   0  0  2  0  0  3  0  0  0  0  0  0
  182.2400  178.2210  140.9130 C   0  0  0  0  0  1  0  0  0  0  0  0
  183.5870  178.8630  143.3080 C   0  0  0  0  0  1  0  0  0  0  0  0
  184.4140  178.1510  142.2480 C   0  0  0  0  0  2  0  0  0  0  0  0
  190.5860  176.0380  139.5060 N   0  0  0  0  0  2  0  0  0  0  0  0
  190.6050  177.2870  140.2570 C   0  0  0  0  0  2  0  0  0  0  0  0
  189.3550  177.4600  140.9900 N   0  0  0  0  0  2  0  0  0  0  0  0
  186.7260  177.5750  145.1130 C   0  0  0  0  0  3  0  0  0  0  0  0
  189.1560  177.6220  145.2190 C   0  0  0  0  0  0  0  0  0  0  0  0
  188.0240  177.5110  143.0690 C   0  0  0  0  0  3  0  0  0  0  0  0
  187.8530  177.6760  147.2590 C   0  0  0  0  0  0  0  0  0  0  0  0
  187.9620  177.5690  144.4640 C   0  0  0  0  0  0  0  0  0  0  0  0
  190.4440  177.5730  143.1700 C   0  0  0  0  0  3  0  0  0  0  0  0
  189.0950  177.6720  146.6140 C   0  0  0  0  0  3  0  0  0  0  0  0
  190.3910  177.6250  144.5670 C   0  0  0  0  0  3  0  0  0  0  0  0
  187.7930  177.7280  148.6440 O   0  0  0  0  0  1  0  0  0  0  0  0
  186.6720  177.6300  146.5110 C   0  0  0  0  0  3  0  0  0  0  0  0
  189.2660  177.5130  142.4160 C   0  0  0  0  0  0  0  0  0  0  0  0
  1  2  1  0  0  0  0
  2 15  1  0  0  0  0
  3  2  1  0  0  0  0
  4  5  1  0  0  0  0
  4  3  1  0  0  0  0
  5  7  1  0  0  0  0
  5  6  1  1  0  0  0
  7  8  1  0  0  0  0
  8  9  1  0  0  0  0
  9 10  1  0  0  0  0
 10 11  1  0  0  0  0
 11 12  1  1  0  0  0
 11 14  1  0  0  0  0
 14 13  1  0  0  0  0
 15 16  1  0  0  0  0
 16 17  1  0  0  0  0
 17 28  1  0  0  0  0
 18 27  1  0  0  0  0
 19 24  2  0  0  0  0
 20 22  1  0  0  0  0
 21 26  1  0  0  0  0
 22 18  2  0  0  0  0
 22 19  1  0  0  0  0
 23 25  2  0  0  0  0
 24 21  1  0  0  0  0
 25 19  1  0  0  0  0
 27 21  2  0  0  0  0
 28 20  2  0  0  0  0
 28 23  1  0  0  0  0
M  END
>  <MODEL>
6

>  <REMARK>
 VINA RESULT:      -6.8      2.330      5.193
  Name = 
  13 active torsions:
  status: ('A' for Active; 'I' for Inactive)
    1  A    between atoms: C_1  and  C_2
    2  A    between atoms: C_1  and  C_26
    3  A    between atoms: C_2  and  O_3
    4  A    between atoms: O_3  and  C_7
    5  A    between atoms: C_5  and  N_20
    6  A    between atoms: C_5  and  N_27
    7  A    between atoms: C_6  and  C_11
    8  A    between atoms: C_6  and  C_28
    9  A    between atoms: C_7  and  C_28
   10  A    between atoms: C_19  and  N_21
   11  A    between atoms: C_19  and  C_26
   12  A    between atoms: N_20  and  C_25
   13  A    between atoms: N_21  and  N_27
                            x       y       z     vdW  Elec       q    Type
                         _______ _______ _______ _____ _____    ______ ____

>  <TORSDO>
F 13

$$$$
=
 OpenBabel11052413213D

 28 29  0  0  1  0  0  0  0  0999 V2000
  182.0640  178.8260  143.7350 C   0  0  0  0  0  1  0  0  0  0  0  0
  183.4560  179.2490  143.6750 N   0  0  0  0  0  0  0  0  0  0  0  0
  184.0210  179.2430  145.0290 C   0  0  0  0  0  2  0  0  0  0  0  0
  185.3640  178.5040  145.1190 C   0  0  0  0  0  2  0  0  0  0  0  0
  185.7670  178.2220  146.5600 C   0  0  2  0  0  3  0  0  0  0  0  0
  185.7930  179.4040  147.3040 O   0  0  0  0  0  1  0  0  0  0  0  0
  187.1190  177.5300  146.6200 C   0  0  0  0  0  2  0  0  0  0  0  0
  187.8390  177.9910  147.7210 O   0  0  0  0  0  0  0  0  0  0  0  0
  189.1590  177.6370  147.4470 C   0  0  0  0  0  2  0  0  0  0  0  0
  189.3420  177.4470  145.9490 C   0  0  0  0  0  2  0  0  0  0  0  0
  190.6790  176.8010  145.5770 C   0  0  2  0  0  3  0  0  0  0  0  0
  191.5390  176.4810  146.7920 C   0  0  0  0  0  1  0  0  0  0  0  0
  191.0730  178.9890  144.3360 C   0  0  0  0  0  1  0  0  0  0  0  0
  191.4420  177.5190  144.4610 C   0  0  0  0  0  2  0  0  0  0  0  0
  184.1520  178.3120  142.8930 N   0  0  0  0  0  2  0  0  0  0  0  0
  183.8860  178.6180  141.4930 C   0  0  0  0  0  2  0  0  0  0  0  0
  184.9900  179.3800  140.9200 N   0  0  0  0  0  2  0  0  0  0  0  0
  189.5830  177.7220  141.2120 C   0  0  0  0  0  3  0  0  0  0  0  0
  188.3860  177.6210  139.0970 C   0  0  0  0  0  0  0  0  0  0  0  0
  187.3070  178.5380  141.0740 C   0  0  0  0  0  3  0  0  0  0  0  0
  190.6580  176.7990  139.2440 C   0  0  0  0  0  0  0  0  0  0  0  0
  188.4260  177.9620  140.4690 C   0  0  0  0  0  0  0  0  0  0  0  0
  186.1170  178.4540  138.9650 C   0  0  0  0  0  3  0  0  0  0  0  0
  189.5030  177.0380  138.4920 C   0  0  0  0  0  3  0  0  0  0  0  0
  187.2310  177.8720  138.3520 C   0  0  0  0  0  3  0  0  0  0  0  0
  191.7670  176.2210  138.6420 O   0  0  0  0  0  1  0  0  0  0  0  0
  190.6990  177.1410  140.5990 C   0  0  0  0  0  3  0  0  0  0  0  0
  186.1470  178.7870  140.3240 C   0  0  0  0  0  0  0  0  0  0  0  0
  2  1  1  0  0  0  0
  2  3  1  0  0  0  0
  3  4  1  0  0  0  0
  4  5  1  0  0  0  0
  5  7  1  0  0  0  0
  5  6  1  1  0  0  0
  7  8  1  0  0  0  0
  9  8  1  0  0  0  0
 10  9  1  0  0  0  0
 11 10  1  0  0  0  0
 11 12  1  1  0  0  0
 13 14  1  0  0  0  0
 14 11  1  0  0  0  0
 15  2  1  0  0  0  0
 16 15  1  0  0  0  0
 17 16  1  0  0  0  0
 19 22  1  0  0  0  0
 21 27  2  0  0  0  0
 22 20  1  0  0  0  0
 22 18  2  0  0  0  0
 23 28  1  0  0  0  0
 24 19  2  0  0  0  0
 24 21  1  0  0  0  0
 25 23  2  0  0  0  0
 25 19  1  0  0  0  0
 26 21  1  0  0  0  0
 27 18  1  0  0  0  0
 28 17  1  0  0  0  0
 28 20  2  0  0  0  0
M  END
>  <MODEL>
7

>  <REMARK>
 VINA RESULT:      -6.7      1.861      6.334
  Name = 
  13 active torsions:
  status: ('A' for Active; 'I' for Inactive)
    1  A    between atoms: C_1  and  C_2
    2  A    between atoms: C_1  and  C_26
    3  A    between atoms: C_2  and  O_3
    4  A    between atoms: O_3  and  C_7
    5  A    between atoms: C_5  and  N_20
    6  A    between atoms: C_5  and  N_27
    7  A    between atoms: C_6  and  C_11
    8  A    between atoms: C_6  and  C_28
    9  A    between atoms: C_7  and  C_28
   10  A    between atoms: C_19  and  N_21
   11  A    between atoms: C_19  and  C_26
   12  A    between atoms: N_20  and  C_25
   13  A    between atoms: N_21  and  N_27
                            x       y       z     vdW  Elec       q    Type
                         _______ _______ _______ _____ _____    ______ ____

>  <TORSDO>
F 13

$$$$
=
 OpenBabel11052413213D

 28 29  0  0  1  0  0  0  0  0999 V2000
  180.2870  179.5500  142.9010 C   0  0  0  0  0  1  0  0  0  0  0  0
  181.4530  178.8040  142.4510 N   0  0  0  0  0  0  0  0  0  0  0  0
  181.6160  178.9870  141.0040 C   0  0  0  0  0  2  0  0  0  0  0  0
  182.7980  178.1970  140.4250 C   0  0  0  0  0  2  0  0  0  0  0  0
  183.8250  179.1060  139.7640 C   0  0  2  0  0  3  0  0  0  0  0  0
  183.1930  180.1260  139.0510 O   0  0  0  0  0  1  0  0  0  0  0  0
  184.7430  178.3120  138.8490 C   0  0  0  0  0  2  0  0  0  0  0  0
  186.0450  178.8020  138.9430 O   0  0  0  0  0  0  0  0  0  0  0  0
  186.7720  178.0360  138.0340 C   0  0  0  0  0  2  0  0  0  0  0  0
  188.0250  177.4900  138.7030 C   0  0  0  0  0  2  0  0  0  0  0  0
  189.3170  178.1260  138.1850 C   0  0  2  0  0  3  0  0  0  0  0  0
  189.0640  179.2710  137.2140 C   0  0  0  0  0  1  0  0  0  0  0  0
  190.6670  176.0290  138.6990 C   0  0  0  0  0  1  0  0  0  0  0  0
  190.3620  177.1250  137.6890 C   0  0  0  0  0  2  0  0  0  0  0  0
  182.5770  179.3400  143.1010 N   0  0  0  0  0  2  0  0  0  0  0  0
  182.7360  178.6330  144.3660 C   0  0  0  0  0  2  0  0  0  0  0  0
  183.7590  179.2760  145.1840 N   0  0  0  0  0  2  0  0  0  0  0  0
  187.5470  178.2600  148.1080 C   0  0  0  0  0  3  0  0  0  0  0  0
  187.6390  177.6720  145.7490 C   0  0  0  0  0  0  0  0  0  0  0  0
  185.6660  178.7590  146.6650 C   0  0  0  0  0  3  0  0  0  0  0  0
  189.5120  177.1680  147.1980 C   0  0  0  0  0  0  0  0  0  0  0  0
  186.9470  178.2330  146.8470 C   0  0  0  0  0  0  0  0  0  0  0  0
  185.7610  178.1890  144.3120 C   0  0  0  0  0  3  0  0  0  0  0  0
  188.9180  177.1390  145.9310 C   0  0  0  0  0  3  0  0  0  0  0  0
  187.0420  177.6550  144.4860 C   0  0  0  0  0  3  0  0  0  0  0  0
  190.7820  176.6390  147.3780 O   0  0  0  0  0  1  0  0  0  0  0  0
  188.8290  177.7280  148.2820 C   0  0  0  0  0  3  0  0  0  0  0  0
  185.0670  178.7390  145.3960 C   0  0  0  0  0  0  0  0  0  0  0  0
  2  1  1  0  0  0  0
  2 15  1  0  0  0  0
  3  2  1  0  0  0  0
  4  3  1  0  0  0  0
  5  6  1  6  0  0  0
  5  4  1  0  0  0  0
  7  8  1  0  0  0  0
  7  5  1  0  0  0  0
  9 10  1  0  0  0  0
  9  8  1  0  0  0  0
 11 12  1  6  0  0  0
 11 10  1  0  0  0  0
 14 11  1  0  0  0  0
 14 13  1  0  0  0  0
 15 16  1  0  0  0  0
 16 17  1  0  0  0  0
 17 28  1  0  0  0  0
 18 27  1  0  0  0  0
 19 24  2  0  0  0  0
 19 22  1  0  0  0  0
 20 22  1  0  0  0  0
 21 26  1  0  0  0  0
 21 27  2  0  0  0  0
 22 18  2  0  0  0  0
 23 25  2  0  0  0  0
 23 28  1  0  0  0  0
 24 21  1  0  0  0  0
 25 19  1  0  0  0  0
 28 20  2  0  0  0  0
M  END
>  <MODEL>
8

>  <REMARK>
 VINA RESULT:      -6.7      3.326      6.672
  Name = 
  13 active torsions:
  status: ('A' for Active; 'I' for Inactive)
    1  A    between atoms: C_1  and  C_2
    2  A    between atoms: C_1  and  C_26
    3  A    between atoms: C_2  and  O_3
    4  A    between atoms: O_3  and  C_7
    5  A    between atoms: C_5  and  N_20
    6  A    between atoms: C_5  and  N_27
    7  A    between atoms: C_6  and  C_11
    8  A    between atoms: C_6  and  C_28
    9  A    between atoms: C_7  and  C_28
   10  A    between atoms: C_19  and  N_21
   11  A    between atoms: C_19  and  C_26
   12  A    between atoms: N_20  and  C_25
   13  A    between atoms: N_21  and  N_27
                            x       y       z     vdW  Elec       q    Type
                         _______ _______ _______ _____ _____    ______ ____

>  <TORSDO>
F 13

$$$$
=
 OpenBabel11052413213D

 28 29  0  0  1  0  0  0  0  0999 V2000
  191.3850  176.6240  138.5750 C   0  0  0  0  0  1  0  0  0  0  0  0
  190.8420  177.3940  139.6850 N   0  0  0  0  0  0  0  0  0  0  0  0
  189.5950  178.0390  139.2610 C   0  0  0  0  0  2  0  0  0  0  0  0
  188.7150  177.1350  138.3860 C   0  0  0  0  0  2  0  0  0  0  0  0
  188.0710  177.9010  137.2380 C   0  0  2  0  0  3  0  0  0  0  0  0
  188.4630  179.2400  137.2580 O   0  0  0  0  0  1  0  0  0  0  0  0
  186.5560  177.7920  137.2960 C   0  0  0  0  0  2  0  0  0  0  0  0
  186.0360  178.8260  138.0740 O   0  0  0  0  0  0  0  0  0  0  0  0
  184.7530  178.3980  138.4090 C   0  0  0  0  0  2  0  0  0  0  0  0
  184.0990  179.4060  139.3410 C   0  0  0  0  0  2  0  0  0  0  0  0
  182.6370  179.0830  139.6580 C   0  0  2  0  0  3  0  0  0  0  0  0
  181.6790  180.1780  139.2090 C   0  0  0  0  0  1  0  0  0  0  0  0
  180.9120  178.5050  141.4400 C   0  0  0  0  0  1  0  0  0  0  0  0
  182.3890  178.6050  141.0900 C   0  0  0  0  0  2  0  0  0  0  0  0
  190.5520  176.4940  140.7240 N   0  0  0  0  0  2  0  0  0  0  0  0
  191.1610  177.0140  141.9420 C   0  0  0  0  0  2  0  0  0  0  0  0
  190.6020  176.3490  143.1140 N   0  0  0  0  0  2  0  0  0  0  0  0
  185.9500  177.8460  143.3260 C   0  0  0  0  0  3  0  0  0  0  0  0
  187.3040  177.7940  145.3460 C   0  0  0  0  0  0  0  0  0  0  0  0
  188.2510  177.0980  143.2170 C   0  0  0  0  0  3  0  0  0  0  0  0
  185.0000  178.5330  145.4500 C   0  0  0  0  0  0  0  0  0  0  0  0
  187.1670  177.5780  143.9560 C   0  0  0  0  0  0  0  0  0  0  0  0
  189.6070  177.0600  145.2250 C   0  0  0  0  0  3  0  0  0  0  0  0
  186.2180  178.2680  146.0870 C   0  0  0  0  0  3  0  0  0  0  0  0
  188.5250  177.5360  145.9730 C   0  0  0  0  0  3  0  0  0  0  0  0
  183.9230  179.0040  146.1860 O   0  0  0  0  0  1  0  0  0  0  0  0
  184.8680  178.3240  144.0730 C   0  0  0  0  0  3  0  0  0  0  0  0
  189.4770  176.8360  143.8490 C   0  0  0  0  0  0  0  0  0  0  0  0
  1  2  1  0  0  0  0
  2 15  1  0  0  0  0
  3  2  1  0  0  0  0
  4  3  1  0  0  0  0
  5  6  1  1  0  0  0
  5  7  1  0  0  0  0
  5  4  1  0  0  0  0
  7  8  1  0  0  0  0
  8  9  1  0  0  0  0
  9 10  1  0  0  0  0
 10 11  1  0  0  0  0
 11 12  1  1  0  0  0
 11 14  1  0  0  0  0
 14 13  1  0  0  0  0
 15 16  1  0  0  0  0
 16 17  1  0  0  0  0
 17 28  1  0  0  0  0
 18 22  2  0  0  0  0
 18 27  1  0  0  0  0
 19 25  1  0  0  0  0
 19 24  2  0  0  0  0
 20 28  2  0  0  0  0
 20 22  1  0  0  0  0
 21 24  1  0  0  0  0
 21 26  1  0  0  0  0
 22 19  1  0  0  0  0
 23 25  2  0  0  0  0
 27 21  2  0  0  0  0
 28 23  1  0  0  0  0
M  END
>  <MODEL>
9

>  <REMARK>
 VINA RESULT:      -6.6      2.617      5.738
  Name = 
  13 active torsions:
  status: ('A' for Active; 'I' for Inactive)
    1  A    between atoms: C_1  and  C_2
    2  A    between atoms: C_1  and  C_26
    3  A    between atoms: C_2  and  O_3
    4  A    between atoms: O_3  and  C_7
    5  A    between atoms: C_5  and  N_20
    6  A    between atoms: C_5  and  N_27
    7  A    between atoms: C_6  and  C_11
    8  A    between atoms: C_6  and  C_28
    9  A    between atoms: C_7  and  C_28
   10  A    between atoms: C_19  and  N_21
   11  A    between atoms: C_19  and  C_26
   12  A    between atoms: N_20  and  C_25
   13  A    between atoms: N_21  and  N_27
                            x       y       z     vdW  Elec       q    Type
                         _______ _______ _______ _____ _____    ______ ____

>  <TORSDO>
F 13

$$$$
