=
 OpenBabel11052413133D

 31 34  0  0  1  0  0  0  0  0999 V2000
  184.8640  178.3590  144.4600 C   0  0  0  0  0  0  0  0  0  0  0  0
  188.4520  177.8340  143.3630 C   0  0  0  0  0  0  0  0  0  0  0  0
  189.1100  177.5120  144.5870 C   0  0  0  0  0  0  0  0  0  0  0  0
  189.4100  177.0920  146.8130 N   0  0  0  0  0  0  0  0  0  0  0  0
  187.0360  178.1080  143.3470 C   0  0  0  0  0  0  0  0  0  0  0  0
  184.2540  178.6550  143.2460 C   0  0  0  0  0  3  0  0  0  0  0  0
  188.5220  177.4150  145.8520 C   0  0  0  0  0  3  0  0  0  0  0  0
  188.4160  178.2110  140.9320 C   0  0  0  0  0  0  0  0  0  0  0  0
  184.1300  178.3300  145.5990 F   0  0  0  0  0  0  0  0  0  0  0  0
  191.5500  177.3710  142.6500 C   0  0  0  0  0  3  0  0  0  0  0  0
  190.5970  176.9700  146.2060 C   0  0  0  0  0  0  0  0  0  0  0  0
  187.0890  178.4520  140.9770 N   0  0  0  0  0  0  0  0  0  0  0  0
  189.1440  177.8970  142.1030 C   0  0  0  0  0  0  0  0  0  0  0  0
  186.2330  178.0900  144.5050 C   0  0  0  0  0  3  0  0  0  0  0  0
  191.7920  176.6320  146.9030 N   0  0  0  0  0  1  0  0  0  0  0  0
  186.3900  178.4140  142.1250 C   0  0  0  0  0  0  0  0  0  0  0  0
  185.0180  178.6830  142.0810 C   0  0  0  0  0  3  0  0  0  0  0  0
  190.4740  177.6870  141.8980 N   0  0  0  0  0  0  0  0  0  0  0  0
  191.5820  177.1470  144.0030 C   0  0  0  0  0  3  0  0  0  0  0  0
  190.5110  177.2060  144.8550 C   0  0  0  0  0  0  0  0  0  0  0  0
  189.0820  178.2600  139.5880 C   0  0  0  0  0  2  0  0  0  0  0  0
  186.9210  177.7870  137.6350 C   0  0  0  0  0  1  0  0  0  0  0  0
  189.7300  176.0100  139.1670 O   0  0  0  0  0  0  0  0  0  0  0  0
  188.9380  176.9490  138.8790 C   0  0  0  0  0  0  0  0  0  0  0  0
  187.9210  176.7530  137.8850 N   0  0  0  0  0  0  0  0  0  0  0  0
  188.5670  175.6780  135.7800 C   0  0  0  0  0  1  0  0  0  0  0  0
  187.8830  175.5020  137.1240 C   0  0  2  0  0  3  0  0  0  0  0  0
  186.4530  175.0150  136.9230 C   0  0  0  0  0  2  0  0  0  0  0  0
  186.3190  173.5670  137.2690 C   0  0  0  0  0  0  0  0  0  0  0  0
  185.0190  173.0440  137.7720 C   0  0  0  0  0  1  0  0  0  0  0  0
  187.2770  172.8160  137.1710 O   0  0  0  0  0  0  0  0  0  0  0  0
  1 14  1  0  0  0  0
  1  9  1  0  0  0  0
  2  3  1  0  0  0  0
  3 20  1  0  0  0  0
  3  7  2  0  0  0  0
  5  2  1  0  0  0  0
  5 14  2  0  0  0  0
  6  1  2  0  0  0  0
  7  4  1  0  0  0  0
  8 12  2  0  0  0  0
  8 13  1  0  0  0  0
 10 19  1  0  0  0  0
 11  4  2  0  0  0  0
 11 15  1  0  0  0  0
 12 16  1  0  0  0  0
 13  2  2  0  0  0  0
 16  5  1  0  0  0  0
 17 16  2  0  0  0  0
 17  6  1  0  0  0  0
 18 13  1  0  0  0  0
 18 10  2  0  0  0  0
 19 20  2  0  0  0  0
 20 11  1  0  0  0  0
 21  8  1  0  0  0  0
 22 25  1  0  0  0  0
 24 23  2  0  0  0  0
 24 21  1  0  0  0  0
 25 24  1  0  0  0  0
 27 26  1  6  0  0  0
 27 25  1  0  0  0  0
 28 27  1  0  0  0  0
 28 29  1  0  0  0  0
 29 30  1  0  0  0  0
 31 29  2  0  0  0  0
M  END
>  <MODEL>
1

>  <REMARK>
 VINA RESULT:      -9.5      0.000      0.000
  Name = 
  5 active torsions:
  status: ('A' for Active; 'I' for Inactive)
    1  A    between atoms: C_1  and  C_24
    2  A    between atoms: C_9  and  C_23
    3  A    between atoms: C_15  and  C_23
    4  A    between atoms: C_19  and  N_22
    5  A    between atoms: C_19  and  C_24
                            x       y       z     vdW  Elec       q    Type
                         _______ _______ _______ _____ _____    ______ ____

>  <TORSDO>
F 5

$$$$
=
 OpenBabel11052413133D

 31 34  0  0  1  0  0  0  0  0999 V2000
  190.5560  176.6670  145.8490 C   0  0  0  0  0  0  0  0  0  0  0  0
  187.9240  177.9080  143.4230 C   0  0  0  0  0  0  0  0  0  0  0  0
  186.7950  178.1230  144.2670 C   0  0  0  0  0  0  0  0  0  0  0  0
  185.5240  178.2140  146.1640 N   0  0  0  0  0  0  0  0  0  0  0  0
  189.1670  177.4270  143.9740 C   0  0  0  0  0  0  0  0  0  0  0  0
  191.6400  176.4830  144.9970 C   0  0  0  0  0  3  0  0  0  0  0  0
  186.7350  177.9210  145.6490 C   0  0  0  0  0  3  0  0  0  0  0  0
  189.0590  177.9330  141.2390 C   0  0  0  0  0  0  0  0  0  0  0  0
  190.6780  176.3960  147.1700 F   0  0  0  0  0  0  0  0  0  0  0  0
  185.5440  178.9520  141.5330 C   0  0  0  0  0  3  0  0  0  0  0  0
  184.7640  178.6140  145.1380 C   0  0  0  0  0  0  0  0  0  0  0  0
  190.1960  177.4870  141.8120 N   0  0  0  0  0  0  0  0  0  0  0  0
  187.8930  178.1590  142.0060 C   0  0  0  0  0  0  0  0  0  0  0  0
  189.3420  177.1320  145.3420 C   0  0  0  0  0  3  0  0  0  0  0  0
  183.4050  179.0130  145.2900 N   0  0  0  0  0  1  0  0  0  0  0  0
  190.2850  177.2290  143.1290 C   0  0  0  0  0  0  0  0  0  0  0  0
  191.5020  176.7640  143.6390 C   0  0  0  0  0  3  0  0  0  0  0  0
  186.8250  178.6020  141.2850 N   0  0  0  0  0  0  0  0  0  0  0  0
  184.9030  178.9540  142.7460 C   0  0  0  0  0  3  0  0  0  0  0  0
  185.4510  178.5920  143.9480 C   0  0  0  0  0  0  0  0  0  0  0  0
  189.0900  178.2070  139.7640 C   0  0  0  0  0  2  0  0  0  0  0  0
  186.8780  177.6720  137.8850 C   0  0  0  0  0  1  0  0  0  0  0  0
  189.8860  176.0410  139.1840 O   0  0  0  0  0  0  0  0  0  0  0  0
  189.0120  176.9290  138.9870 C   0  0  0  0  0  0  0  0  0  0  0  0
  187.9650  176.7080  138.0300 N   0  0  0  0  0  0  0  0  0  0  0  0
  188.7000  175.7720  135.8890 C   0  0  0  0  0  1  0  0  0  0  0  0
  187.9850  175.5020  137.2000 C   0  0  2  0  0  3  0  0  0  0  0  0
  186.5750  174.9870  136.9300 C   0  0  0  0  0  2  0  0  0  0  0  0
  186.4510  173.5370  137.2740 C   0  0  0  0  0  0  0  0  0  0  0  0
  185.1530  173.0030  137.7670 C   0  0  0  0  0  1  0  0  0  0  0  0
  187.4170  172.7950  137.1810 O   0  0  0  0  0  0  0  0  0  0  0  0
  1  9  1  0  0  0  0
  2  5  1  0  0  0  0
  2  3  1  0  0  0  0
  3  7  2  0  0  0  0
  5 14  2  0  0  0  0
  6  1  2  0  0  0  0
  7  4  1  0  0  0  0
  8 12  2  0  0  0  0
  8 13  1  0  0  0  0
 10 19  1  0  0  0  0
 11 15  1  0  0  0  0
 11  4  2  0  0  0  0
 12 16  1  0  0  0  0
 13  2  2  0  0  0  0
 14  1  1  0  0  0  0
 16 17  2  0  0  0  0
 16  5  1  0  0  0  0
 17  6  1  0  0  0  0
 18 10  2  0  0  0  0
 18 13  1  0  0  0  0
 19 20  2  0  0  0  0
 20  3  1  0  0  0  0
 20 11  1  0  0  0  0
 21  8  1  0  0  0  0
 22 25  1  0  0  0  0
 24 23  2  0  0  0  0
 24 21  1  0  0  0  0
 25 24  1  0  0  0  0
 27 26  1  6  0  0  0
 27 25  1  0  0  0  0
 28 27  1  0  0  0  0
 28 29  1  0  0  0  0
 29 30  1  0  0  0  0
 31 29  2  0  0  0  0
M  END
>  <MODEL>
2

>  <REMARK>
 VINA RESULT:      -9.3      1.889      4.095
  Name = 
  5 active torsions:
  status: ('A' for Active; 'I' for Inactive)
    1  A    between atoms: C_1  and  C_24
    2  A    between atoms: C_9  and  C_23
    3  A    between atoms: C_15  and  C_23
    4  A    between atoms: C_19  and  N_22
    5  A    between atoms: C_19  and  C_24
                            x       y       z     vdW  Elec       q    Type
                         _______ _______ _______ _____ _____    ______ ____

>  <TORSDO>
F 5

$$$$
=
 OpenBabel11052413133D

 31 34  0  0  1  0  0  0  0  0999 V2000
  191.3170  176.8950  144.3370 C   0  0  0  0  0  0  0  0  0  0  0  0
  187.8150  177.8620  143.2620 C   0  0  0  0  0  0  0  0  0  0  0  0
  187.1190  177.9510  144.5040 C   0  0  0  0  0  0  0  0  0  0  0  0
  186.7400  177.8950  146.7560 N   0  0  0  0  0  0  0  0  0  0  0  0
  189.2140  177.5130  143.2340 C   0  0  0  0  0  0  0  0  0  0  0  0
  191.9660  176.8320  143.1080 C   0  0  0  0  0  3  0  0  0  0  0  0
  187.6520  177.7360  145.7780 C   0  0  0  0  0  3  0  0  0  0  0  0
  187.9430  178.0190  140.8100 C   0  0  0  0  0  0  0  0  0  0  0  0
  191.9980  176.6320  145.4780 F   0  0  0  0  0  0  0  0  0  0  0  0
  184.7810  178.6560  142.5650 C   0  0  0  0  0  3  0  0  0  0  0  0
  185.5900  178.2180  146.1520 C   0  0  0  0  0  0  0  0  0  0  0  0
  189.2510  177.6940  140.8450 N   0  0  0  0  0  0  0  0  0  0  0  0
  187.1790  178.1160  141.9960 C   0  0  0  0  0  0  0  0  0  0  0  0
  189.9630  177.2310  144.3940 C   0  0  0  0  0  3  0  0  0  0  0  0
  184.3830  178.4690  146.8660 N   0  0  0  0  0  1  0  0  0  0  0  0
  189.8980  177.4390  141.9970 C   0  0  0  0  0  0  0  0  0  0  0  0
  191.2560  177.1040  141.9410 C   0  0  0  0  0  3  0  0  0  0  0  0
  185.8720  178.4460  141.7980 N   0  0  0  0  0  0  0  0  0  0  0  0
  184.6990  178.5840  143.9320 C   0  0  0  0  0  3  0  0  0  0  0  0
  185.7250  178.2760  144.7860 C   0  0  0  0  0  0  0  0  0  0  0  0
  187.3370  178.3030  139.4660 C   0  0  0  0  0  2  0  0  0  0  0  0
  187.6050  176.0080  137.6310 C   0  0  0  0  0  1  0  0  0  0  0  0
  189.2050  179.2260  138.3180 O   0  0  0  0  0  0  0  0  0  0  0  0
  188.3850  178.2710  138.3970 C   0  0  0  0  0  0  0  0  0  0  0  0
  188.4650  177.1770  137.4710 N   0  0  0  0  0  0  0  0  0  0  0  0
  188.7060  177.5450  135.0610 C   0  0  0  0  0  1  0  0  0  0  0  0
  189.4210  177.2330  136.3630 C   0  0  2  0  0  3  0  0  0  0  0  0
  190.2000  175.9290  136.2320 C   0  0  0  0  0  2  0  0  0  0  0  0
  191.0030  175.6500  137.4620 C   0  0  0  0  0  0  0  0  0  0  0  0
  192.0240  176.6330  137.9170 C   0  0  0  0  0  1  0  0  0  0  0  0
  190.8490  174.6070  138.0780 O   0  0  0  0  0  0  0  0  0  0  0  0
  1 14  1  0  0  0  0
  1  9  1  0  0  0  0
  2  3  1  0  0  0  0
  3 20  1  0  0  0  0
  3  7  2  0  0  0  0
  5  2  1  0  0  0  0
  5 14  2  0  0  0  0
  6  1  2  0  0  0  0
  7  4  1  0  0  0  0
  8 12  2  0  0  0  0
  8 13  1  0  0  0  0
 10 19  1  0  0  0  0
 11  4  2  0  0  0  0
 11 15  1  0  0  0  0
 12 16  1  0  0  0  0
 13  2  2  0  0  0  0
 16  5  1  0  0  0  0
 17 16  2  0  0  0  0
 17  6  1  0  0  0  0
 18 13  1  0  0  0  0
 18 10  2  0  0  0  0
 19 20  2  0  0  0  0
 20 11  1  0  0  0  0
 21  8  1  0  0  0  0
 23 24  2  0  0  0  0
 24 21  1  0  0  0  0
 25 22  1  0  0  0  0
 25 24  1  0  0  0  0
 27 26  1  6  0  0  0
 27 25  1  0  0  0  0
 28 27  1  0  0  0  0
 28 29  1  0  0  0  0
 29 30  1  0  0  0  0
 29 31  2  0  0  0  0
M  END
>  <MODEL>
3

>  <REMARK>
 VINA RESULT:      -9.1      2.373      4.571
  Name = 
  5 active torsions:
  status: ('A' for Active; 'I' for Inactive)
    1  A    between atoms: C_1  and  C_24
    2  A    between atoms: C_9  and  C_23
    3  A    between atoms: C_15  and  C_23
    4  A    between atoms: C_19  and  N_22
    5  A    between atoms: C_19  and  C_24
                            x       y       z     vdW  Elec       q    Type
                         _______ _______ _______ _____ _____    ______ ____

>  <TORSDO>
F 5

$$$$
=
 OpenBabel11052413133D

 31 34  0  0  1  0  0  0  0  0999 V2000
  190.6120  177.4270  140.6100 C   0  0  0  0  0  0  0  0  0  0  0  0
  187.6680  177.9360  142.9390 C   0  0  0  0  0  0  0  0  0  0  0  0
  188.2180  177.6110  144.2150 C   0  0  0  0  0  0  0  0  0  0  0  0
  189.7460  176.9810  145.7920 N   0  0  0  0  0  0  0  0  0  0  0  0
  188.4870  177.8710  141.7540 C   0  0  0  0  0  0  0  0  0  0  0  0
  190.0450  177.7650  139.3850 C   0  0  0  0  0  3  0  0  0  0  0  0
  189.5320  177.2190  144.4830 C   0  0  0  0  0  3  0  0  0  0  0  0
  185.8340  178.6610  141.4680 C   0  0  0  0  0  0  0  0  0  0  0  0
  191.9100  177.0470  140.6740 F   0  0  0  0  0  0  0  0  0  0  0  0
  185.2980  178.2830  145.0810 C   0  0  0  0  0  3  0  0  0  0  0  0
  188.5820  177.2100  146.4130 C   0  0  0  0  0  0  0  0  0  0  0  0
  186.6490  178.5880  140.3960 N   0  0  0  0  0  0  0  0  0  0  0  0
  186.2990  178.3440  142.7650 C   0  0  0  0  0  0  0  0  0  0  0  0
  189.8420  177.4810  141.7720 C   0  0  0  0  0  3  0  0  0  0  0  0
  188.4130  177.0630  147.8190 N   0  0  0  0  0  1  0  0  0  0  0  0
  187.9360  178.2080  140.4950 C   0  0  0  0  0  0  0  0  0  0  0  0
  188.7080  178.1540  139.3300 C   0  0  0  0  0  3  0  0  0  0  0  0
  185.3570  178.4590  143.7430 N   0  0  0  0  0  0  0  0  0  0  0  0
  186.3150  177.8910  145.9140 C   0  0  0  0  0  3  0  0  0  0  0  0
  187.5980  177.5970  145.5350 C   0  0  0  0  0  0  0  0  0  0  0  0
  184.4240  179.1210  141.2340 C   0  0  0  0  0  2  0  0  0  0  0  0
  182.9730  176.9160  139.9160 C   0  0  0  0  0  1  0  0  0  0  0  0
  184.5320  180.1180  139.0770 O   0  0  0  0  0  0  0  0  0  0  0  0
  184.1140  179.1510  139.7700 C   0  0  0  0  0  0  0  0  0  0  0  0
  183.3530  178.1010  139.1530 N   0  0  0  0  0  0  0  0  0  0  0  0
  181.4800  178.5220  137.6320 C   0  0  0  0  0  1  0  0  0  0  0  0
  182.9620  178.2180  137.7470 C   0  0  2  0  0  3  0  0  0  0  0  0
  183.3000  176.9530  136.9670 C   0  0  0  0  0  2  0  0  0  0  0  0
  184.6070  177.0850  136.2550 C   0  0  0  0  0  0  0  0  0  0  0  0
  185.8750  177.0940  137.0340 C   0  0  0  0  0  1  0  0  0  0  0  0
  184.6400  177.2180  135.0410 O   0  0  0  0  0  0  0  0  0  0  0  0
  1  9  1  0  0  0  0
  1 14  1  0  0  0  0
  2  3  1  0  0  0  0
  3  7  2  0  0  0  0
  3 20  1  0  0  0  0
  4 11  2  0  0  0  0
  5 14  2  0  0  0  0
  5  2  1  0  0  0  0
  6  1  2  0  0  0  0
  7  4  1  0  0  0  0
  8 13  1  0  0  0  0
 10 19  1  0  0  0  0
 11 15  1  0  0  0  0
 12 16  1  0  0  0  0
 12  8  2  0  0  0  0
 13  2  2  0  0  0  0
 13 18  1  0  0  0  0
 16  5  1  0  0  0  0
 17  6  1  0  0  0  0
 17 16  2  0  0  0  0
 18 10  2  0  0  0  0
 20 19  2  0  0  0  0
 20 11  1  0  0  0  0
 21  8  1  0  0  0  0
 23 24  2  0  0  0  0
 24 21  1  0  0  0  0
 25 24  1  0  0  0  0
 25 22  1  0  0  0  0
 27 26  1  1  0  0  0
 27 25  1  0  0  0  0
 28 27  1  0  0  0  0
 29 28  1  0  0  0  0
 29 30  1  0  0  0  0
 31 29  2  0  0  0  0
M  END
>  <MODEL>
4

>  <REMARK>
 VINA RESULT:      -9.0      3.091      4.781
  Name = 
  5 active torsions:
  status: ('A' for Active; 'I' for Inactive)
    1  A    between atoms: C_1  and  C_24
    2  A    between atoms: C_9  and  C_23
    3  A    between atoms: C_15  and  C_23
    4  A    between atoms: C_19  and  N_22
    5  A    between atoms: C_19  and  C_24
                            x       y       z     vdW  Elec       q    Type
                         _______ _______ _______ _____ _____    ______ ____

>  <TORSDO>
F 5

$$$$
=
 OpenBabel11052413133D

 31 34  0  0  1  0  0  0  0  0999 V2000
  184.6510  178.6150  145.8940 C   0  0  0  0  0  0  0  0  0  0  0  0
  187.0350  178.0260  143.0100 C   0  0  0  0  0  0  0  0  0  0  0  0
  188.2310  177.6160  143.6700 C   0  0  0  0  0  0  0  0  0  0  0  0
  189.6640  177.0670  145.3630 N   0  0  0  0  0  0  0  0  0  0  0  0
  185.8550  178.3490  143.7720 C   0  0  0  0  0  0  0  0  0  0  0  0
  183.4990  178.9980  145.2140 C   0  0  0  0  0  3  0  0  0  0  0  0
  188.4170  177.4710  145.0480 C   0  0  0  0  0  3  0  0  0  0  0  0
  185.7110  178.5350  140.9990 C   0  0  0  0  0  0  0  0  0  0  0  0
  184.6500  178.5510  147.2470 F   0  0  0  0  0  0  0  0  0  0  0  0
  189.2200  177.4950  140.7150 C   0  0  0  0  0  3  0  0  0  0  0  0
  190.3230  176.9360  144.2050 C   0  0  0  0  0  0  0  0  0  0  0  0
  184.6370  178.8190  141.7640 N   0  0  0  0  0  0  0  0  0  0  0  0
  186.9370  178.1330  141.5770 C   0  0  0  0  0  0  0  0  0  0  0  0
  185.8070  178.2970  145.1800 C   0  0  0  0  0  3  0  0  0  0  0  0
  191.6830  176.5200  144.1320 N   0  0  0  0  0  1  0  0  0  0  0  0
  184.6700  178.7440  143.1070 C   0  0  0  0  0  0  0  0  0  0  0  0
  183.5100  179.0620  143.8230 C   0  0  0  0  0  3  0  0  0  0  0  0
  187.9290  177.8880  140.6770 N   0  0  0  0  0  0  0  0  0  0  0  0
  189.9670  177.1970  141.8270 C   0  0  0  0  0  3  0  0  0  0  0  0
  189.5330  177.2480  143.1250 C   0  0  0  0  0  0  0  0  0  0  0  0
  185.5440  178.6340  139.5110 C   0  0  0  0  0  2  0  0  0  0  0  0
  183.1870  176.9740  138.8790 C   0  0  0  0  0  1  0  0  0  0  0  0
  184.1330  180.5020  139.0930 O   0  0  0  0  0  0  0  0  0  0  0  0
  184.2220  179.2470  139.1660 C   0  0  0  0  0  0  0  0  0  0  0  0
  183.0680  178.4280  138.9220 N   0  0  0  0  0  0  0  0  0  0  0  0
  180.6730  178.2770  139.4160 C   0  0  0  0  0  1  0  0  0  0  0  0
  181.7640  179.0600  138.7080 C   0  0  2  0  0  3  0  0  0  0  0  0
  181.4410  179.1820  137.2230 C   0  0  0  0  0  2  0  0  0  0  0  0
  181.0870  180.5870  136.8580 C   0  0  0  0  0  0  0  0  0  0  0  0
  181.0400  181.6360  137.9140 C   0  0  0  0  0  1  0  0  0  0  0  0
  180.8060  180.8750  135.7050 O   0  0  0  0  0  0  0  0  0  0  0  0
  1  9  1  0  0  0  0
  2  3  1  0  0  0  0
  2  5  1  0  0  0  0
  3  7  2  0  0  0  0
  5 14  1  0  0  0  0
  6  1  1  0  0  0  0
  7  4  1  0  0  0  0
  8 13  1  0  0  0  0
  8 12  2  0  0  0  0
 10 19  1  0  0  0  0
 11  4  2  0  0  0  0
 12 16  1  0  0  0  0
 13  2  2  0  0  0  0
 14  1  2  0  0  0  0
 15 11  1  0  0  0  0
 16  5  2  0  0  0  0
 16 17  1  0  0  0  0
 17  6  2  0  0  0  0
 18 10  2  0  0  0  0
 18 13  1  0  0  0  0
 19 20  2  0  0  0  0
 20  3  1  0  0  0  0
 20 11  1  0  0  0  0
 21  8  1  0  0  0  0
 22 25  1  0  0  0  0
 23 24  2  0  0  0  0
 24 21  1  0  0  0  0
 25 24  1  0  0  0  0
 27 25  1  0  0  0  0
 27 26  1  1  0  0  0
 28 27  1  0  0  0  0
 29 28  1  0  0  0  0
 29 30  1  0  0  0  0
 31 29  2  0  0  0  0
M  END
>  <MODEL>
5

>  <REMARK>
 VINA RESULT:      -8.9      3.653      4.670
  Name = 
  5 active torsions:
  status: ('A' for Active; 'I' for Inactive)
    1  A    between atoms: C_1  and  C_24
    2  A    between atoms: C_9  and  C_23
    3  A    between atoms: C_15  and  C_23
    4  A    between atoms: C_19  and  N_22
    5  A    between atoms: C_19  and  C_24
                            x       y       z     vdW  Elec       q    Type
                         _______ _______ _______ _____ _____    ______ ____

>  <TORSDO>
F 5

$$$$
=
 OpenBabel11052413133D

 31 34  0  0  1  0  0  0  0  0999 V2000
  184.6320  178.5390  145.6250 C   0  0  0  0  0  0  0  0  0  0  0  0
  186.6880  178.2840  142.4530 C   0  0  0  0  0  0  0  0  0  0  0  0
  187.9570  177.8480  142.9360 C   0  0  0  0  0  0  0  0  0  0  0  0
  189.5790  177.1840  144.4020 N   0  0  0  0  0  0  0  0  0  0  0  0
  185.5950  178.5030  143.3680 C   0  0  0  0  0  0  0  0  0  0  0  0
  183.4050  178.9510  145.1150 C   0  0  0  0  0  3  0  0  0  0  0  0
  188.2990  177.5820  144.2650 C   0  0  0  0  0  3  0  0  0  0  0  0
  185.1380  178.9400  140.6570 C   0  0  0  0  0  0  0  0  0  0  0  0
  184.7840  178.3500  146.9570 F   0  0  0  0  0  0  0  0  0  0  0  0
  188.6110  178.0270  139.8920 C   0  0  0  0  0  3  0  0  0  0  0  0
  190.1070  177.1790  143.1710 C   0  0  0  0  0  0  0  0  0  0  0  0
  184.1520  179.1230  141.5590 N   0  0  0  0  0  0  0  0  0  0  0  0
  186.4280  178.5200  141.0570 C   0  0  0  0  0  0  0  0  0  0  0  0
  185.7060  178.3200  144.7610 C   0  0  0  0  0  3  0  0  0  0  0  0
  191.4570  176.8090  142.9100 N   0  0  0  0  0  1  0  0  0  0  0  0
  184.3360  178.9250  142.8770 C   0  0  0  0  0  0  0  0  0  0  0  0
  183.2590  179.1430  143.7430 C   0  0  0  0  0  3  0  0  0  0  0  0
  187.3170  178.3870  140.0330 N   0  0  0  0  0  0  0  0  0  0  0  0
  189.4820  177.6480  140.8820 C   0  0  0  0  0  3  0  0  0  0  0  0
  189.1960  177.5670  142.2190 C   0  0  0  0  0  0  0  0  0  0  0  0
  184.8050  179.1710  139.2120 C   0  0  0  0  0  2  0  0  0  0  0  0
  182.1810  180.4190  138.6940 C   0  0  0  0  0  1  0  0  0  0  0  0
  183.7270  177.1030  138.7420 O   0  0  0  0  0  0  0  0  0  0  0  0
  183.6140  178.3570  138.8080 C   0  0  0  0  0  0  0  0  0  0  0  0
  182.3600  178.9830  138.4990 N   0  0  0  0  0  0  0  0  0  0  0  0
  180.8190  178.6650  136.6200 C   0  0  0  0  0  1  0  0  0  0  0  0
  181.2510  178.1730  137.9900 C   0  0  2  0  0  3  0  0  0  0  0  0
  180.0650  178.1860  138.9480 C   0  0  0  0  0  2  0  0  0  0  0  0
  180.3740  177.4380  140.2050 C   0  0  0  0  0  0  0  0  0  0  0  0
  180.4090  178.1610  141.5060 C   0  0  0  0  0  1  0  0  0  0  0  0
  180.6280  176.2440  140.1670 O   0  0  0  0  0  0  0  0  0  0  0  0
  1  9  1  0  0  0  0
  2  3  1  0  0  0  0
  2  5  1  0  0  0  0
  3  7  2  0  0  0  0
  5 14  1  0  0  0  0
  6  1  1  0  0  0  0
  7  4  1  0  0  0  0
  8 13  1  0  0  0  0
  8 12  2  0  0  0  0
 10 18  2  0  0  0  0
 10 19  1  0  0  0  0
 11  4  2  0  0  0  0
 12 16  1  0  0  0  0
 13  2  2  0  0  0  0
 14  1  2  0  0  0  0
 15 11  1  0  0  0  0
 16  5  2  0  0  0  0
 16 17  1  0  0  0  0
 17  6  2  0  0  0  0
 18 13  1  0  0  0  0
 19 20  2  0  0  0  0
 20  3  1  0  0  0  0
 20 11  1  0  0  0  0
 21  8  1  0  0  0  0
 23 24  2  0  0  0  0
 24 21  1  0  0  0  0
 25 22  1  0  0  0  0
 25 24  1  0  0  0  0
 27 26  1  6  0  0  0
 27 25  1  0  0  0  0
 27 28  1  0  0  0  0
 28 29  1  0  0  0  0
 29 30  1  0  0  0  0
 31 29  2  0  0  0  0
M  END
>  <MODEL>
6

>  <REMARK>
 VINA RESULT:      -8.8      3.398      4.625
  Name = 
  5 active torsions:
  status: ('A' for Active; 'I' for Inactive)
    1  A    between atoms: C_1  and  C_24
    2  A    between atoms: C_9  and  C_23
    3  A    between atoms: C_15  and  C_23
    4  A    between atoms: C_19  and  N_22
    5  A    between atoms: C_19  and  C_24
                            x       y       z     vdW  Elec       q    Type
                         _______ _______ _______ _____ _____    ______ ____

>  <TORSDO>
F 5

$$$$
=
 OpenBabel11052413133D

 31 34  0  0  1  0  0  0  0  0999 V2000
  183.8530  178.6240  143.6370 C   0  0  0  0  0  0  0  0  0  0  0  0
  187.5920  178.0740  143.3710 C   0  0  0  0  0  0  0  0  0  0  0  0
  187.9620  177.7830  144.7180 C   0  0  0  0  0  0  0  0  0  0  0  0
  187.7620  177.4180  146.9640 N   0  0  0  0  0  0  0  0  0  0  0  0
  186.2160  178.3470  143.0360 C   0  0  0  0  0  0  0  0  0  0  0  0
  183.5270  178.8900  142.3100 C   0  0  0  0  0  3  0  0  0  0  0  0
  187.1090  177.7170  145.8230 C   0  0  0  0  0  3  0  0  0  0  0  0
  188.0950  178.3920  140.9840 C   0  0  0  0  0  0  0  0  0  0  0  0
  182.8860  178.6230  144.5850 F   0  0  0  0  0  0  0  0  0  0  0  0
  190.7690  177.5960  143.3710 C   0  0  0  0  0  3  0  0  0  0  0  0
  189.0530  177.2820  146.6370 C   0  0  0  0  0  0  0  0  0  0  0  0
  186.7930  178.6330  140.7290 N   0  0  0  0  0  0  0  0  0  0  0  0
  188.5450  178.1070  142.2930 C   0  0  0  0  0  0  0  0  0  0  0  0
  185.1770  178.3570  143.9890 C   0  0  0  0  0  3  0  0  0  0  0  0
  190.0630  176.9620  147.5890 N   0  0  0  0  0  1  0  0  0  0  0  0
  185.8570  178.6230  141.6950 C   0  0  0  0  0  0  0  0  0  0  0  0
  184.5290  178.8900  141.3430 C   0  0  0  0  0  3  0  0  0  0  0  0
  189.8870  177.8930  142.3920 N   0  0  0  0  0  0  0  0  0  0  0  0
  190.5010  177.4050  144.7030 C   0  0  0  0  0  3  0  0  0  0  0  0
  189.2680  177.4850  145.2960 C   0  0  0  0  0  0  0  0  0  0  0  0
  189.0420  178.4080  139.8190 C   0  0  0  0  0  2  0  0  0  0  0  0
  189.9270  176.0030  138.3560 C   0  0  0  0  0  1  0  0  0  0  0  0
  187.4050  178.6420  138.1090 O   0  0  0  0  0  0  0  0  0  0  0  0
  188.3520  177.9500  138.5710 C   0  0  0  0  0  0  0  0  0  0  0  0
  188.7530  176.7440  137.9040 N   0  0  0  0  0  0  0  0  0  0  0  0
  186.8870  175.3130  137.2170 C   0  0  0  0  0  1  0  0  0  0  0  0
  187.9820  176.2580  136.7580 C   0  0  2  0  0  3  0  0  0  0  0  0
  188.8770  175.5650  135.7370 C   0  0  0  0  0  2  0  0  0  0  0  0
  189.6990  176.5540  134.9760 C   0  0  0  0  0  0  0  0  0  0  0  0
  191.1370  176.2720  134.7110 C   0  0  0  0  0  1  0  0  0  0  0  0
  189.2080  177.6060  134.5960 O   0  0  0  0  0  0  0  0  0  0  0  0
  1 14  1  0  0  0  0
  1  9  1  0  0  0  0
  2  3  1  0  0  0  0
  3 20  1  0  0  0  0
  3  7  2  0  0  0  0
  5  2  1  0  0  0  0
  5 14  2  0  0  0  0
  6  1  2  0  0  0  0
  7  4  1  0  0  0  0
  8 13  1  0  0  0  0
 10 19  1  0  0  0  0
 11  4  2  0  0  0  0
 11 15  1  0  0  0  0
 12  8  2  0  0  0  0
 12 16  1  0  0  0  0
 13 18  1  0  0  0  0
 13  2  2  0  0  0  0
 16  5  1  0  0  0  0
 17 16  2  0  0  0  0
 17  6  1  0  0  0  0
 18 10  2  0  0  0  0
 19 20  2  0  0  0  0
 20 11  1  0  0  0  0
 21  8  1  0  0  0  0
 23 24  2  0  0  0  0
 24 21  1  0  0  0  0
 25 22  1  0  0  0  0
 25 24  1  0  0  0  0
 27 26  1  1  0  0  0
 27 25  1  0  0  0  0
 28 27  1  0  0  0  0
 29 28  1  0  0  0  0
 30 29  1  0  0  0  0
 31 29  2  0  0  0  0
M  END
>  <MODEL>
7

>  <REMARK>
 VINA RESULT:      -8.7      1.656      2.455
  Name = 
  5 active torsions:
  status: ('A' for Active; 'I' for Inactive)
    1  A    between atoms: C_1  and  C_24
    2  A    between atoms: C_9  and  C_23
    3  A    between atoms: C_15  and  C_23
    4  A    between atoms: C_19  and  N_22
    5  A    between atoms: C_19  and  C_24
                            x       y       z     vdW  Elec       q    Type
                         _______ _______ _______ _____ _____    ______ ____

>  <TORSDO>
F 5

$$$$
=
 OpenBabel11052413133D

 31 34  0  0  1  0  0  0  0  0999 V2000
  190.4040  177.0600  142.2880 C   0  0  0  0  0  0  0  0  0  0  0  0
  186.8100  178.1950  142.6790 C   0  0  0  0  0  0  0  0  0  0  0  0
  186.6190  178.1520  144.0920 C   0  0  0  0  0  0  0  0  0  0  0  0
  187.0830  177.8460  146.3080 N   0  0  0  0  0  0  0  0  0  0  0  0
  188.0810  177.8310  142.1030 C   0  0  0  0  0  0  0  0  0  0  0  0
  190.5560  177.1290  140.9070 C   0  0  0  0  0  3  0  0  0  0  0  0
  187.5670  177.7860  145.0520 C   0  0  0  0  0  3  0  0  0  0  0  0
  186.0450  178.6280  140.3800 C   0  0  0  0  0  0  0  0  0  0  0  0
  191.4370  176.6590  143.0660 F   0  0  0  0  0  0  0  0  0  0  0  0
  183.7790  179.1080  143.2290 C   0  0  0  0  0  3  0  0  0  0  0  0
  185.8120  178.2530  146.2040 C   0  0  0  0  0  0  0  0  0  0  0  0
  187.2570  178.2820  139.9000 N   0  0  0  0  0  0  0  0  0  0  0  0
  185.7720  178.6010  141.7680 C   0  0  0  0  0  0  0  0  0  0  0  0
  189.1840  177.4070  142.8720 C   0  0  0  0  0  3  0  0  0  0  0  0
  184.9630  178.4390  147.3330 N   0  0  0  0  0  1  0  0  0  0  0  0
  188.2630  177.8880  140.7010 C   0  0  0  0  0  0  0  0  0  0  0  0
  189.4860  177.5420  140.1160 C   0  0  0  0  0  3  0  0  0  0  0  0
  184.5030  178.9700  142.0980 N   0  0  0  0  0  0  0  0  0  0  0  0
  184.1960  178.8810  144.5170 C   0  0  0  0  0  3  0  0  0  0  0  0
  185.4440  178.4630  144.8980 C   0  0  0  0  0  0  0  0  0  0  0  0
  185.0090  179.0720  139.3900 C   0  0  0  0  0  2  0  0  0  0  0  0
  182.8630  177.0610  139.6350 C   0  0  0  0  0  1  0  0  0  0  0  0
  185.5850  177.9660  137.3640 O   0  0  0  0  0  0  0  0  0  0  0  0
  184.7940  178.0220  138.3440 C   0  0  0  0  0  0  0  0  0  0  0  0
  183.7070  177.0880  138.4440 N   0  0  0  0  0  0  0  0  0  0  0  0
  182.1690  176.5230  136.6240 C   0  0  0  0  0  1  0  0  0  0  0  0
  183.4510  176.1530  137.3470 C   0  0  2  0  0  3  0  0  0  0  0  0
  183.3740  174.7150  137.8460 C   0  0  0  0  0  2  0  0  0  0  0  0
  184.5610  173.9220  137.4020 C   0  0  0  0  0  0  0  0  0  0  0  0
  184.4390  172.4500  137.2190 C   0  0  0  0  0  1  0  0  0  0  0  0
  185.6370  174.4690  137.2190 O   0  0  0  0  0  0  0  0  0  0  0  0
  1 14  1  0  0  0  0
  1  9  1  0  0  0  0
  2  3  1  0  0  0  0
  3 20  1  0  0  0  0
  3  7  2  0  0  0  0
  5  2  1  0  0  0  0
  5 14  2  0  0  0  0
  6  1  2  0  0  0  0
  7  4  1  0  0  0  0
  8 13  1  0  0  0  0
 10 19  1  0  0  0  0
 11  4  2  0  0  0  0
 11 15  1  0  0  0  0
 12  8  2  0  0  0  0
 12 16  1  0  0  0  0
 13 18  1  0  0  0  0
 13  2  2  0  0  0  0
 16  5  1  0  0  0  0
 17 16  2  0  0  0  0
 17  6  1  0  0  0  0
 18 10  2  0  0  0  0
 19 20  2  0  0  0  0
 20 11  1  0  0  0  0
 21  8  1  0  0  0  0
 23 24  2  0  0  0  0
 24 25  1  0  0  0  0
 24 21  1  0  0  0  0
 25 22  1  0  0  0  0
 27 26  1  1  0  0  0
 27 28  1  0  0  0  0
 27 25  1  0  0  0  0
 29 28  1  0  0  0  0
 30 29  1  0  0  0  0
 31 29  2  0  0  0  0
M  END
>  <MODEL>
8

>  <REMARK>
 VINA RESULT:      -8.4      2.737      4.659
  Name = 
  5 active torsions:
  status: ('A' for Active; 'I' for Inactive)
    1  A    between atoms: C_1  and  C_24
    2  A    between atoms: C_9  and  C_23
    3  A    between atoms: C_15  and  C_23
    4  A    between atoms: C_19  and  N_22
    5  A    between atoms: C_19  and  C_24
                            x       y       z     vdW  Elec       q    Type
                         _______ _______ _______ _____ _____    ______ ____

>  <TORSDO>
F 5

$$$$
=
 OpenBabel11052413133D

 31 34  0  0  1  0  0  0  0  0999 V2000
  185.7200  178.2770  145.9230 C   0  0  0  0  0  0  0  0  0  0  0  0
  186.6270  178.3130  142.2450 C   0  0  0  0  0  0  0  0  0  0  0  0
  188.0030  177.9360  142.2570 C   0  0  0  0  0  0  0  0  0  0  0  0
  190.0450  177.3050  143.0650 N   0  0  0  0  0  0  0  0  0  0  0  0
  185.8880  178.4160  143.4790 C   0  0  0  0  0  0  0  0  0  0  0  0
  184.3770  178.6340  145.8700 C   0  0  0  0  0  3  0  0  0  0  0  0
  188.7740  177.6260  143.3810 C   0  0  0  0  0  3  0  0  0  0  0  0
  184.5460  178.9580  141.1010 C   0  0  0  0  0  0  0  0  0  0  0  0
  186.3110  178.0310  147.1170 F   0  0  0  0  0  0  0  0  0  0  0  0
  187.6100  178.3090  139.1860 C   0  0  0  0  0  3  0  0  0  0  0  0
  190.1380  177.3950  141.7330 C   0  0  0  0  0  0  0  0  0  0  0  0
  183.9040  179.0310  142.2860 N   0  0  0  0  0  0  0  0  0  0  0  0
  185.9120  178.6020  141.0290 C   0  0  0  0  0  0  0  0  0  0  0  0
  186.4600  178.1700  144.7440 C   0  0  0  0  0  3  0  0  0  0  0  0
  191.3420  177.1260  141.0210 N   0  0  0  0  0  1  0  0  0  0  0  0
  184.5210  178.7800  143.4540 C   0  0  0  0  0  0  0  0  0  0  0  0
  183.7800  178.8850  144.6370 C   0  0  0  0  0  3  0  0  0  0  0  0
  186.4210  178.5770  139.7650 N   0  0  0  0  0  0  0  0  0  0  0  0
  188.7750  177.9380  139.8090 C   0  0  0  0  0  3  0  0  0  0  0  0
  188.9480  177.7710  141.1580 C   0  0  0  0  0  0  0  0  0  0  0  0
  183.7460  179.2390  139.8630 C   0  0  0  0  0  2  0  0  0  0  0  0
  181.1990  180.6520  139.3870 C   0  0  0  0  0  1  0  0  0  0  0  0
  182.4120  177.3000  140.2150 O   0  0  0  0  0  0  0  0  0  0  0  0
  182.4310  178.5240  139.9110 C   0  0  0  0  0  0  0  0  0  0  0  0
  181.2040  179.2100  139.6160 N   0  0  0  0  0  0  0  0  0  0  0  0
  179.3370  178.5640  138.1670 C   0  0  0  0  0  1  0  0  0  0  0  0
  179.9500  178.4570  139.5510 C   0  0  2  0  0  3  0  0  0  0  0  0
  178.9560  178.9390  140.6020 C   0  0  0  0  0  2  0  0  0  0  0  0
  179.4460  178.6540  141.9850 C   0  0  0  0  0  0  0  0  0  0  0  0
  179.7980  179.7810  142.8910 C   0  0  0  0  0  1  0  0  0  0  0  0
  179.5880  177.5020  142.3650 O   0  0  0  0  0  0  0  0  0  0  0  0
  1  9  1  0  0  0  0
  2  3  1  0  0  0  0
  2  5  1  0  0  0  0
  3  7  2  0  0  0  0
  4  7  1  0  0  0  0
  5 14  1  0  0  0  0
  6  1  1  0  0  0  0
  8 12  2  0  0  0  0
 10 18  2  0  0  0  0
 10 19  1  0  0  0  0
 11  4  2  0  0  0  0
 12 16  1  0  0  0  0
 13  8  1  0  0  0  0
 13  2  2  0  0  0  0
 14  1  2  0  0  0  0
 15 11  1  0  0  0  0
 16  5  2  0  0  0  0
 16 17  1  0  0  0  0
 17  6  2  0  0  0  0
 18 13  1  0  0  0  0
 19 20  2  0  0  0  0
 20 11  1  0  0  0  0
 20  3  1  0  0  0  0
 21 24  1  0  0  0  0
 21  8  1  0  0  0  0
 22 25  1  0  0  0  0
 24 23  2  0  0  0  0
 25 24  1  0  0  0  0
 27 26  1  6  0  0  0
 27 25  1  0  0  0  0
 27 28  1  0  0  0  0
 28 29  1  0  0  0  0
 29 31  2  0  0  0  0
 29 30  1  0  0  0  0
M  END
>  <MODEL>
9

>  <REMARK>
 VINA RESULT:      -8.4      3.785      5.810
  Name = 
  5 active torsions:
  status: ('A' for Active; 'I' for Inactive)
    1  A    between atoms: C_1  and  C_24
    2  A    between atoms: C_9  and  C_23
    3  A    between atoms: C_15  and  C_23
    4  A    between atoms: C_19  and  N_22
    5  A    between atoms: C_19  and  C_24
                            x       y       z     vdW  Elec       q    Type
                         _______ _______ _______ _____ _____    ______ ____

>  <TORSDO>
F 5

$$$$
