=
 OpenBabel11052415103D

 55 59  0  0  1  0  0  0  0  0999 V2000
  187.8270  178.0800  144.3130 O   0  0  0  0  0  0  0  0  0  0  0  0
  185.4880  178.3320  143.9600 C   0  0  1  0  0  3  0  0  0  0  0  0
  187.2000  177.9550  145.5610 C   0  0  0  0  0  2  0  0  0  0  0  0
  186.8770  178.6990  143.4840 C   0  0  2  0  0  3  0  0  0  0  0  0
  185.7180  177.7740  145.3350 C   0  0  0  0  0  2  0  0  0  0  0  0
  184.6290  179.5810  144.0350 C   0  0  0  0  0  2  0  0  0  0  0  0
  183.3540  179.2830  144.8010 C   0  0  0  0  0  2  0  0  0  0  0  0
  182.4560  178.3700  143.9890 C   0  0  0  0  0  2  0  0  0  0  0  0
  181.3070  179.3500  142.9760 S   0  0  0  0  0  0  0  0  0  0  0  0
  181.9420  178.7240  141.5060 O   0  0  0  0  0  0  0  0  0  0  0  0
  180.8240  178.2770  140.7960 C   0  0  0  0  0  2  0  0  0  0  0  0
  179.6650  180.1160  139.8390 O   0  0  0  0  0  1  0  0  0  0  0  0
  180.6110  179.1310  139.5520 C   0  0  0  0  0  0  0  0  0  0  0  0
  181.8050  179.7540  139.1920 O   0  0  0  0  0  1  0  0  0  0  0  0
  180.0730  178.2920  138.3860 C   0  0  0  0  0  2  0  0  0  0  0  0
  181.0570  177.8620  137.2780 C   0  0  2  0  0  3  0  0  0  0  0  0
  181.4040  178.9100  136.4240 O   0  0  0  0  0  1  0  0  0  0  0  0
  180.8080  176.5190  136.5250 C   0  0  2  0  0  0  0  0  0  0  0  0
  182.2170  175.4480  138.7910 O   0  0  0  0  0  1  0  0  0  0  0  0
  180.6150  174.1230  137.4840 C   0  0  1  0  0  3  0  0  0  0  0  0
  180.1230  174.8270  139.9840 C   0  0  0  0  0  1  0  0  0  0  0  0
  180.8930  175.0190  138.6860 C   0  0  1  0  0  0  0  0  0  0  0  0
  179.4660  173.1570  137.7150 C   0  0  0  0  0  1  0  0  0  0  0  0
  180.0810  175.5620  137.5130 C   0  0  1  0  0  3  0  0  0  0  0  0
  183.0650  176.6900  135.3010 C   0  0  0  0  0  2  0  0  0  0  0  0
  182.3320  175.5120  134.6960 C   0  0  0  0  0  2  0  0  0  0  0  0
  182.1630  175.8330  136.1730 C   0  0  0  0  0  3  0  0  0  0  0  0
  179.9900  176.7390  135.3780 O   0  0  0  0  0  0  0  0  0  0  0  0
  178.9480  175.9270  135.4400 O   0  0  0  0  0  1  0  0  0  0  0  0
  187.0800  178.3200  142.0140 C   0  0  2  0  0  3  0  0  0  0  0  0
  185.7840  177.8820  141.3360 C   0  0  0  0  0  2  0  0  0  0  0  0
  184.7650  179.8560  140.4910 O   0  0  0  0  0  1  0  0  0  0  0  0
  185.4890  178.7270  140.1070 C   0  0  2  0  0  3  0  0  0  0  0  0
  184.6840  177.9180  139.1030 C   0  0  0  0  0  2  0  0  0  0  0  0
  185.1970  178.1650  137.6980 C   0  0  0  0  0  1  0  0  0  0  0  0
  188.1190  177.2170  141.9130 C   0  0  0  0  0  2  0  0  0  0  0  0
  188.1170  176.7210  137.4870 C   0  0  0  0  0  1  0  0  0  0  0  0
  190.4200  176.2340  138.6030 C   0  0  2  0  0  3  0  0  0  0  0  0
  188.9280  176.6410  138.7690 C   0  0  1  0  0  3  0  0  0  0  0  0
  190.4360  176.6310  141.1340 C   0  0  2  0  0  3  0  0  0  0  0  0
  191.2590  176.5960  139.8370 C   0  0  0  0  0  2  0  0  0  0  0  0
  188.7870  177.9060  139.6040 C   0  0  0  0  0  2  0  0  0  0  0  0
  189.2840  177.6620  141.0380 C   0  0  1  0  0  3  0  0  0  0  0  0
  191.1980  175.9080  143.4280 C   0  0  0  0  0  2  0  0  0  0  0  0
  191.0300  178.2560  142.9880 C   0  0  0  0  0  2  0  0  0  0  0  0
  191.2460  178.0960  144.4160 N   0  0  0  0  0  2  0  0  0  0  0  0
  190.9470  176.6980  144.6940 C   0  0  2  0  0  3  0  0  0  0  0  0
  191.3610  176.9330  142.3240 C   0  0  2  0  0  3  0  0  0  0  0  0
  191.8420  176.1820  145.8090 C   0  0  0  0  0  2  0  0  0  0  0  0
  191.5810  176.9070  147.0440 N   0  0  0  0  0  0  0  0  0  0  0  0
  192.2940  176.2040  148.0950 C   0  0  0  0  0  1  0  0  0  0  0  0
  190.1660  176.7580  147.3350 C   0  0  0  0  0  1  0  0  0  0  0  0
  192.5410  176.6980  137.6120 C   0  0  0  0  0  1  0  0  0  0  0  0
  191.1030  176.7510  137.4070 N   0  0  0  0  0  0  0  0  0  0  0  0
  190.8030  175.9830  136.3290 O   0  0  0  0  0  1  0  0  0  0  0  0
  1  3  1  0  0  0  0
  2  6  1  1  0  0  0
  2  5  1  0  0  0  0
  4 30  1  6  0  0  0
  4  2  1  0  0  0  0
  4  1  1  0  0  0  0
  5  3  1  0  0  0  0
  6  7  1  0  0  0  0
  8  7  1  0  0  0  0
  9  8  1  0  0  0  0
 10  9  1  0  0  0  0
 11 10  1  0  0  0  0
 13 12  1  0  0  0  0
 13 11  1  0  0  0  0
 14 13  1  0  0  0  0
 15 13  1  0  0  0  0
 16 17  1  6  0  0  0
 16 15  1  0  0  0  0
 18 28  1  6  0  0  0
 18 16  1  0  0  0  0
 20 24  1  0  0  0  0
 20 23  1  1  0  0  0
 20 22  1  0  0  0  0
 22 19  1  0  0  0  0
 22 21  1  1  0  0  0
 24 18  1  6  0  0  0
 24 22  1  0  0  0  0
 25 27  1  0  0  0  0
 26 25  1  0  0  0  0
 26 27  1  0  0  0  0
 27 18  1  0  0  0  0
 28 29  1  0  0  0  0
 30 31  1  1  0  0  0
 33 32  1  1  0  0  0
 33 31  1  0  0  0  0
 34 33  1  0  0  0  0
 35 34  1  0  0  0  0
 36 30  1  0  0  0  0
 38 54  1  6  0  0  0
 38 39  1  0  0  0  0
 38 41  1  0  0  0  0
 39 37  1  6  0  0  0
 39 42  1  0  0  0  0
 40 41  1  6  0  0  0
 40 48  1  0  0  0  0
 42 43  1  0  0  0  0
 43 40  1  0  0  0  0
 43 36  1  1  0  0  0
 44 47  1  0  0  0  0
 45 46  1  0  0  0  0
 46 47  1  0  0  0  0
 47 49  1  1  0  0  0
 48 45  1  1  0  0  0
 48 44  1  0  0  0  0
 49 50  1  0  0  0  0
 50 52  1  0  0  0  0
 50 51  1  0  0  0  0
 54 53  1  0  0  0  0
 55 54  1  0  0  0  0
M  END
>  <MODEL>
1

>  <REMARK>
 VINA RESULT:      -5.7      0.000      0.000
  Name = 
  23 active torsions:
  status: ('A' for Active; 'I' for Inactive)
    1  A    between atoms: C_1  and  C_21
    2  A    between atoms: C_1  and  O_29
    3  A    between atoms: C_1  and  C_38
    4  A    between atoms: C_1  and  C_53
    5  A    between atoms: C_2  and  C_19
    6  A    between atoms: C_2  and  C_28
    7  A    between atoms: C_2  and  C_44
    8  A    between atoms: C_4  and  C_40
    9  A    between atoms: C_8  and  C_20
   10  A    between atoms: C_8  and  O_43
   11  A    between atoms: N_10  and  C_32
   12  A    between atoms: C_16  and  N_17
   13  A    between atoms: C_19  and  C_40
   14  A    between atoms: C_20  and  C_42
   15  A    between atoms: C_21  and  C_42
   16  A    between atoms: C_27  and  C_31
   17  A    between atoms: C_28  and  C_49
   18  A    between atoms: C_31  and  C_54
   19  A    between atoms: C_32  and  C_48
   20  A    between atoms: C_33  and  C_52
   21  A    between atoms: S_35  and  O_43
   22  A    between atoms: S_35  and  C_51
   23  A    between atoms: C_51  and  C_54
                            x       y       z     vdW  Elec       q    Type
                         _______ _______ _______ _____ _____    ______ ____

>  <TORSDO>
F 23

$$$$
=
 OpenBabel11052415103D

 55 59  0  0  1  0  0  0  0  0999 V2000
  188.6550  179.0040  138.4090 O   0  0  0  0  0  0  0  0  0  0  0  0
  186.6570  177.9430  137.6770 C   0  0  1  0  0  3  0  0  0  0  0  0
  188.5310  179.2500  137.0350 C   0  0  0  0  0  2  0  0  0  0  0  0
  187.7990  177.9210  138.6690 C   0  0  2  0  0  3  0  0  0  0  0  0
  187.1280  178.8870  136.6090 C   0  0  0  0  0  2  0  0  0  0  0  0
  186.4560  176.5530  137.1010 C   0  0  0  0  0  2  0  0  0  0  0  0
  185.7270  176.6470  135.7740 C   0  0  0  0  0  2  0  0  0  0  0  0
  184.2720  177.0040  135.9990 C   0  0  0  0  0  2  0  0  0  0  0  0
  183.1930  175.8940  135.0450 S   0  0  0  0  0  0  0  0  0  0  0  0
  181.7720  176.4840  135.8120 O   0  0  0  0  0  0  0  0  0  0  0  0
  180.8330  175.4590  135.6600 C   0  0  0  0  0  2  0  0  0  0  0  0
  179.3380  174.0380  136.8360 O   0  0  0  0  0  1  0  0  0  0  0  0
  180.1760  175.1410  136.9980 C   0  0  0  0  0  0  0  0  0  0  0  0
  181.1500  174.8260  137.9450 O   0  0  0  0  0  1  0  0  0  0  0  0
  179.3150  176.3130  137.4880 C   0  0  0  0  0  2  0  0  0  0  0  0
  179.8020  177.1190  138.7110 C   0  0  2  0  0  3  0  0  0  0  0  0
  179.1930  176.7170  139.9020 O   0  0  0  0  0  1  0  0  0  0  0  0
  179.9420  178.6670  138.5890 C   0  0  2  0  0  0  0  0  0  0  0  0
  180.7580  181.3310  139.3000 O   0  0  0  0  0  1  0  0  0  0  0  0
  180.6570  179.4990  140.9320 C   0  0  1  0  0  3  0  0  0  0  0  0
  179.0030  181.5580  141.0500 C   0  0  0  0  0  1  0  0  0  0  0  0
  179.9810  180.6940  140.2680 C   0  0  1  0  0  0  0  0  0  0  0  0
  180.1670  179.2490  142.3480 C   0  0  0  0  0  1  0  0  0  0  0  0
  179.5000  179.2810  139.9480 C   0  0  1  0  0  3  0  0  0  0  0  0
  179.4850  179.1360  136.1000 C   0  0  0  0  0  2  0  0  0  0  0  0
  179.4400  180.4730  136.8080 C   0  0  0  0  0  2  0  0  0  0  0  0
  178.9510  179.2210  137.5200 C   0  0  0  0  0  3  0  0  0  0  0  0
  181.2960  179.0210  138.3180 O   0  0  0  0  0  0  0  0  0  0  0  0
  182.0640  177.9740  138.5670 O   0  0  0  0  0  1  0  0  0  0  0  0
  187.2860  177.9410  140.1110 C   0  0  2  0  0  3  0  0  0  0  0  0
  185.9900  178.7360  140.2620 C   0  0  0  0  0  2  0  0  0  0  0  0
  183.8790  178.0120  141.0790 O   0  0  0  0  0  1  0  0  0  0  0  0
  185.1930  178.2690  141.4700 C   0  0  2  0  0  3  0  0  0  0  0  0
  185.2080  179.3430  142.5460 C   0  0  0  0  0  2  0  0  0  0  0  0
  185.0480  178.7150  143.9170 C   0  0  0  0  0  1  0  0  0  0  0  0
  188.3570  178.5150  141.0230 C   0  0  0  0  0  2  0  0  0  0  0  0
  188.4790  177.2050  145.2780 C   0  0  0  0  0  1  0  0  0  0  0  0
  190.8200  177.3150  144.1400 C   0  0  2  0  0  3  0  0  0  0  0  0
  189.2810  177.5140  144.0260 C   0  0  1  0  0  3  0  0  0  0  0  0
  190.7250  177.9630  141.6630 C   0  0  2  0  0  3  0  0  0  0  0  0
  191.4940  177.2170  142.7640 C   0  0  0  0  0  2  0  0  0  0  0  0
  188.7180  176.7990  142.8060 C   0  0  0  0  0  2  0  0  0  0  0  0
  189.2850  177.4110  141.5140 C   0  0  1  0  0  3  0  0  0  0  0  0
  191.0020  176.7250  139.4820 C   0  0  0  0  0  2  0  0  0  0  0  0
  192.9710  177.5710  140.5520 C   0  0  0  0  0  2  0  0  0  0  0  0
  193.4030  176.7070  139.4660 N   0  0  0  0  0  2  0  0  0  0  0  0
  192.2290  175.9210  139.1120 C   0  0  2  0  0  3  0  0  0  0  0  0
  191.4990  177.8710  140.3380 C   0  0  2  0  0  3  0  0  0  0  0  0
  192.2240  175.6290  137.6200 C   0  0  0  0  0  2  0  0  0  0  0  0
  193.5680  175.3080  137.1620 N   0  0  0  0  0  0  0  0  0  0  0  0
  193.5810  175.5320  135.7290 C   0  0  0  0  0  1  0  0  0  0  0  0
  193.7560  173.8810  137.3590 C   0  0  0  0  0  1  0  0  0  0  0  0
  192.0680  175.2820  144.1460 C   0  0  0  0  0  1  0  0  0  0  0  0
  191.2670  176.1800  144.9610 N   0  0  0  0  0  0  0  0  0  0  0  0
  192.0390  176.6200  145.9870 O   0  0  0  0  0  1  0  0  0  0  0  0
  1  4  1  0  0  0  0
  2  6  1  6  0  0  0
  2  4  1  0  0  0  0
  3  1  1  0  0  0  0
  4 30  1  1  0  0  0
  5  3  1  0  0  0  0
  5  2  1  0  0  0  0
  7  8  1  0  0  0  0
  7  6  1  0  0  0  0
  9 10  1  0  0  0  0
  9  8  1  0  0  0  0
 11 10  1  0  0  0  0
 11 13  1  0  0  0  0
 12 13  1  0  0  0  0
 13 15  1  0  0  0  0
 13 14  1  0  0  0  0
 15 16  1  0  0  0  0
 16 17  1  1  0  0  0
 18 28  1  6  0  0  0
 18 16  1  0  0  0  0
 19 22  1  0  0  0  0
 20 23  1  1  0  0  0
 22 20  1  0  0  0  0
 22 21  1  1  0  0  0
 24 18  1  6  0  0  0
 24 22  1  0  0  0  0
 24 20  1  0  0  0  0
 25 26  1  0  0  0  0
 25 27  1  0  0  0  0
 26 27  1  0  0  0  0
 27 18  1  0  0  0  0
 28 29  1  0  0  0  0
 30 31  1  6  0  0  0
 30 36  1  0  0  0  0
 31 33  1  0  0  0  0
 33 32  1  6  0  0  0
 33 34  1  0  0  0  0
 34 35  1  0  0  0  0
 38 54  1  1  0  0  0
 39 38  1  0  0  0  0
 39 37  1  1  0  0  0
 40 41  1  1  0  0  0
 41 38  1  0  0  0  0
 42 39  1  0  0  0  0
 43 36  1  1  0  0  0
 43 40  1  0  0  0  0
 43 42  1  0  0  0  0
 46 45  1  0  0  0  0
 47 49  1  6  0  0  0
 47 46  1  0  0  0  0
 47 44  1  0  0  0  0
 48 44  1  6  0  0  0
 48 45  1  0  0  0  0
 48 40  1  0  0  0  0
 50 52  1  0  0  0  0
 50 49  1  0  0  0  0
 51 50  1  0  0  0  0
 53 54  1  0  0  0  0
 54 55  1  0  0  0  0
M  END
>  <MODEL>
2

>  <REMARK>
 VINA RESULT:      -5.6      2.302      6.150
  Name = 
  23 active torsions:
  status: ('A' for Active; 'I' for Inactive)
    1  A    between atoms: C_1  and  C_21
    2  A    between atoms: C_1  and  O_29
    3  A    between atoms: C_1  and  C_38
    4  A    between atoms: C_1  and  C_53
    5  A    between atoms: C_2  and  C_19
    6  A    between atoms: C_2  and  C_28
    7  A    between atoms: C_2  and  C_44
    8  A    between atoms: C_4  and  C_40
    9  A    between atoms: C_8  and  C_20
   10  A    between atoms: C_8  and  O_43
   11  A    between atoms: N_10  and  C_32
   12  A    between atoms: C_16  and  N_17
   13  A    between atoms: C_19  and  C_40
   14  A    between atoms: C_20  and  C_42
   15  A    between atoms: C_21  and  C_42
   16  A    between atoms: C_27  and  C_31
   17  A    between atoms: C_28  and  C_49
   18  A    between atoms: C_31  and  C_54
   19  A    between atoms: C_32  and  C_48
   20  A    between atoms: C_33  and  C_52
   21  A    between atoms: S_35  and  O_43
   22  A    between atoms: S_35  and  C_51
   23  A    between atoms: C_51  and  C_54
                            x       y       z     vdW  Elec       q    Type
                         _______ _______ _______ _____ _____    ______ ____

>  <TORSDO>
F 23

$$$$
=
 OpenBabel11052415103D

 55 59  0  0  1  0  0  0  0  0999 V2000
  186.7290  177.4120  135.8730 O   0  0  0  0  0  0  0  0  0  0  0  0
  188.0700  177.6180  137.8250 C   0  0  1  0  0  3  0  0  0  0  0  0
  187.1570  178.7450  135.9460 C   0  0  0  0  0  2  0  0  0  0  0  0
  186.9210  176.8910  137.1630 C   0  0  2  0  0  3  0  0  0  0  0  0
  188.2660  178.8350  136.9670 C   0  0  0  0  0  2  0  0  0  0  0  0
  187.6720  178.0240  139.2330 C   0  0  0  0  0  2  0  0  0  0  0  0
  188.6590  177.4490  140.2320 C   0  0  0  0  0  2  0  0  0  0  0  0
  190.0370  178.0360  140.0050 C   0  0  0  0  0  2  0  0  0  0  0  0
  191.3200  176.8010  140.3730 S   0  0  0  0  0  0  0  0  0  0  0  0
  191.9010  177.6880  141.7250 O   0  0  0  0  0  0  0  0  0  0  0  0
  191.1930  177.1790  142.8170 C   0  0  0  0  0  2  0  0  0  0  0  0
  191.5970  177.8740  145.0520 O   0  0  0  0  0  1  0  0  0  0  0  0
  190.9810  178.2670  143.8640 C   0  0  0  0  0  0  0  0  0  0  0  0
  191.5620  179.4600  143.4350 O   0  0  0  0  0  1  0  0  0  0  0  0
  189.4900  178.4750  144.1580 C   0  0  0  0  0  2  0  0  0  0  0  0
  188.8730  177.7470  145.3710 C   0  0  2  0  0  3  0  0  0  0  0  0
  189.5690  176.5870  145.7180 O   0  0  0  0  0  1  0  0  0  0  0  0
  187.3250  177.5750  145.4430 C   0  0  2  0  0  0  0  0  0  0  0  0
  184.5360  178.2290  145.6850 O   0  0  0  0  0  1  0  0  0  0  0  0
  185.6780  178.0900  143.5150 C   0  0  1  0  0  3  0  0  0  0  0  0
  184.7880  180.3880  144.4720 C   0  0  0  0  0  1  0  0  0  0  0  0
  185.2060  178.9410  144.6890 C   0  0  1  0  0  0  0  0  0  0  0  0
  185.7700  178.8690  142.2140 C   0  0  0  0  0  1  0  0  0  0  0  0
  186.6950  178.6540  144.5170 C   0  0  1  0  0  3  0  0  0  0  0  0
  187.8110  178.6480  147.7310 C   0  0  0  0  0  2  0  0  0  0  0  0
  187.5800  177.1740  147.9850 C   0  0  0  0  0  2  0  0  0  0  0  0
  186.8090  177.8830  146.8820 C   0  0  0  0  0  3  0  0  0  0  0  0
  186.9510  176.2750  144.9920 O   0  0  0  0  0  0  0  0  0  0  0  0
  187.4680  176.0800  143.7910 O   0  0  0  0  0  1  0  0  0  0  0  0
  187.1620  175.3800  137.1300 C   0  0  2  0  0  3  0  0  0  0  0  0
  188.5550  175.0180  136.6150 C   0  0  0  0  0  2  0  0  0  0  0  0
  190.1250  173.4600  137.4840 O   0  0  0  0  0  1  0  0  0  0  0  0
  188.8760  173.5550  136.8710 C   0  0  2  0  0  3  0  0  0  0  0  0
  188.8900  172.7900  135.5570 C   0  0  0  0  0  2  0  0  0  0  0  0
  188.0910  171.5090  135.6860 C   0  0  0  0  0  1  0  0  0  0  0  0
  186.1020  174.7150  136.2700 C   0  0  0  0  0  2  0  0  0  0  0  0
  184.2320  170.6840  135.9560 C   0  0  0  0  0  1  0  0  0  0  0  0
  182.5180  172.6220  136.2650 C   0  0  2  0  0  3  0  0  0  0  0  0
  184.0020  172.1760  136.1200 C   0  0  1  0  0  3  0  0  0  0  0  0
  183.6120  174.9200  136.5550 C   0  0  2  0  0  3  0  0  0  0  0  0
  182.3940  174.0350  136.8540 C   0  0  0  0  0  2  0  0  0  0  0  0
  184.8670  172.7620  137.2270 C   0  0  0  0  0  2  0  0  0  0  0  0
  184.9110  174.2950  137.1220 C   0  0  1  0  0  3  0  0  0  0  0  0
  182.2510  176.3440  138.1320 C   0  0  0  0  0  2  0  0  0  0  0  0
  182.9340  177.3120  136.0510 C   0  0  0  0  0  2  0  0  0  0  0  0
  181.9790  178.2210  136.6600 N   0  0  0  0  0  2  0  0  0  0  0  0
  181.3050  177.4380  137.6870 C   0  0  2  0  0  3  0  0  0  0  0  0
  183.3770  176.3310  137.1200 C   0  0  2  0  0  3  0  0  0  0  0  0
  180.9460  178.3230  138.8690 C   0  0  0  0  0  2  0  0  0  0  0  0
  182.0490  178.3750  139.8170 N   0  0  0  0  0  0  0  0  0  0  0  0
  181.4620  178.6060  141.1230 C   0  0  0  0  0  1  0  0  0  0  0  0
  182.8280  179.5590  139.4990 C   0  0  0  0  0  1  0  0  0  0  0  0
  180.7230  172.5070  137.8330 C   0  0  0  0  0  1  0  0  0  0  0  0
  181.6430  171.7200  137.0290 N   0  0  0  0  0  0  0  0  0  0  0  0
  180.9110  170.9510  136.1820 O   0  0  0  0  0  1  0  0  0  0  0  0
  1  3  1  0  0  0  0
  1  4  1  0  0  0  0
  2  6  1  1  0  0  0
  3  5  1  0  0  0  0
  4 30  1  6  0  0  0
  4  2  1  0  0  0  0
  5  2  1  0  0  0  0
  6  7  1  0  0  0  0
  8  7  1  0  0  0  0
  8  9  1  0  0  0  0
  9 10  1  0  0  0  0
 10 11  1  0  0  0  0
 11 13  1  0  0  0  0
 13 15  1  0  0  0  0
 13 12  1  0  0  0  0
 14 13  1  0  0  0  0
 15 16  1  0  0  0  0
 16 18  1  0  0  0  0
 16 17  1  6  0  0  0
 18 28  1  6  0  0  0
 18 27  1  0  0  0  0
 20 23  1  6  0  0  0
 20 24  1  0  0  0  0
 20 22  1  0  0  0  0
 22 21  1  6  0  0  0
 22 19  1  0  0  0  0
 24 22  1  0  0  0  0
 24 18  1  1  0  0  0
 25 26  1  0  0  0  0
 27 25  1  0  0  0  0
 27 26  1  0  0  0  0
 29 28  1  0  0  0  0
 30 36  1  6  0  0  0
 31 33  1  0  0  0  0
 31 30  1  0  0  0  0
 33 32  1  6  0  0  0
 34 35  1  0  0  0  0
 34 33  1  0  0  0  0
 38 41  1  0  0  0  0
 38 54  1  1  0  0  0
 39 37  1  1  0  0  0
 39 38  1  0  0  0  0
 39 42  1  0  0  0  0
 40 41  1  1  0  0  0
 40 48  1  0  0  0  0
 40 43  1  0  0  0  0
 43 36  1  6  0  0  0
 43 42  1  0  0  0  0
 45 46  1  0  0  0  0
 46 47  1  0  0  0  0
 47 44  1  0  0  0  0
 47 49  1  1  0  0  0
 48 45  1  6  0  0  0
 48 44  1  0  0  0  0
 49 50  1  0  0  0  0
 50 51  1  0  0  0  0
 52 50  1  0  0  0  0
 54 53  1  0  0  0  0
 55 54  1  0  0  0  0
M  END
>  <MODEL>
3

>  <REMARK>
 VINA RESULT:      -5.3      4.035      9.962
  Name = 
  23 active torsions:
  status: ('A' for Active; 'I' for Inactive)
    1  A    between atoms: C_1  and  C_21
    2  A    between atoms: C_1  and  O_29
    3  A    between atoms: C_1  and  C_38
    4  A    between atoms: C_1  and  C_53
    5  A    between atoms: C_2  and  C_19
    6  A    between atoms: C_2  and  C_28
    7  A    between atoms: C_2  and  C_44
    8  A    between atoms: C_4  and  C_40
    9  A    between atoms: C_8  and  C_20
   10  A    between atoms: C_8  and  O_43
   11  A    between atoms: N_10  and  C_32
   12  A    between atoms: C_16  and  N_17
   13  A    between atoms: C_19  and  C_40
   14  A    between atoms: C_20  and  C_42
   15  A    between atoms: C_21  and  C_42
   16  A    between atoms: C_27  and  C_31
   17  A    between atoms: C_28  and  C_49
   18  A    between atoms: C_31  and  C_54
   19  A    between atoms: C_32  and  C_48
   20  A    between atoms: C_33  and  C_52
   21  A    between atoms: S_35  and  O_43
   22  A    between atoms: S_35  and  C_51
   23  A    between atoms: C_51  and  C_54
                            x       y       z     vdW  Elec       q    Type
                         _______ _______ _______ _____ _____    ______ ____

>  <TORSDO>
F 23

$$$$
=
 OpenBabel11052415103D

 55 59  0  0  1  0  0  0  0  0999 V2000
  188.9390  177.7990  144.9580 O   0  0  0  0  0  0  0  0  0  0  0  0
  187.0790  177.1300  143.6360 C   0  0  1  0  0  3  0  0  0  0  0  0
  187.7960  177.9040  145.7620 C   0  0  0  0  0  2  0  0  0  0  0  0
  188.4590  177.7500  143.6390 C   0  0  2  0  0  3  0  0  0  0  0  0
  186.6620  177.1780  145.0770 C   0  0  0  0  0  2  0  0  0  0  0  0
  186.1440  177.9720  142.7870 C   0  0  0  0  0  2  0  0  0  0  0  0
  185.2810  178.8410  143.6810 C   0  0  0  0  0  2  0  0  0  0  0  0
  183.8140  178.6180  143.3720 C   0  0  0  0  0  2  0  0  0  0  0  0
  183.6110  178.0290  141.6630 S   0  0  0  0  0  0  0  0  0  0  0  0
  182.0540  178.7430  141.5160 O   0  0  0  0  0  0  0  0  0  0  0  0
  181.9270  179.0440  140.1570 C   0  0  0  0  0  2  0  0  0  0  0  0
  179.6770  179.0690  140.9180 O   0  0  0  0  0  1  0  0  0  0  0  0
  180.4550  179.0860  139.7600 C   0  0  0  0  0  0  0  0  0  0  0  0
  180.1840  180.2600  139.0590 O   0  0  0  0  0  1  0  0  0  0  0  0
  180.0700  177.8610  138.9210 C   0  0  0  0  0  2  0  0  0  0  0  0
  181.0770  177.3460  137.8710 C   0  0  2  0  0  3  0  0  0  0  0  0
  181.3740  178.2970  136.8930 O   0  0  0  0  0  1  0  0  0  0  0  0
  180.8970  175.9100  137.2920 C   0  0  2  0  0  0  0  0  0  0  0  0
  183.0610  176.3130  135.4410 O   0  0  0  0  0  1  0  0  0  0  0  0
  182.5360  174.1150  136.4030 C   0  0  1  0  0  3  0  0  0  0  0  0
  184.7650  175.4010  137.0090 C   0  0  0  0  0  1  0  0  0  0  0  0
  183.3440  175.4070  136.4640 C   0  0  1  0  0  0  0  0  0  0  0  0
  183.2590  172.9320  137.0220 C   0  0  0  0  0  1  0  0  0  0  0  0
  182.2430  175.1570  137.4910 C   0  0  1  0  0  3  0  0  0  0  0  0
  179.2750  176.4780  135.3750 C   0  0  0  0  0  2  0  0  0  0  0  0
  179.5960  175.0030  135.2490 C   0  0  0  0  0  2  0  0  0  0  0  0
  180.6580  175.9700  135.7520 C   0  0  0  0  0  3  0  0  0  0  0  0
  179.8550  175.2250  137.9830 O   0  0  0  0  0  0  0  0  0  0  0  0
  180.3930  174.5140  138.9600 O   0  0  0  0  0  1  0  0  0  0  0  0
  189.4160  176.9870  142.7190 C   0  0  2  0  0  3  0  0  0  0  0  0
  190.6300  177.8210  142.3120 C   0  0  0  0  0  2  0  0  0  0  0  0
  191.7670  176.0480  143.4130 O   0  0  0  0  0  1  0  0  0  0  0  0
  191.8730  177.3980  143.0770 C   0  0  2  0  0  3  0  0  0  0  0  0
  192.0120  178.2310  144.3410 C   0  0  0  0  0  2  0  0  0  0  0  0
  191.5860  179.6620  144.0770 C   0  0  0  0  0  1  0  0  0  0  0  0
  188.6680  176.5200  141.4830 C   0  0  0  0  0  2  0  0  0  0  0  0
  185.6620  178.8860  139.2030 C   0  0  0  0  0  1  0  0  0  0  0  0
  187.4600  177.7420  137.7050 C   0  0  2  0  0  3  0  0  0  0  0  0
  186.8940  178.0020  139.1310 C   0  0  1  0  0  3  0  0  0  0  0  0
  189.2460  176.4760  139.0360 C   0  0  2  0  0  3  0  0  0  0  0  0
  188.9080  177.2300  137.7420 C   0  0  0  0  0  2  0  0  0  0  0  0
  187.9830  178.4760  140.0820 C   0  0  0  0  0  2  0  0  0  0  0  0
  189.0410  177.3770  140.2800 C   0  0  1  0  0  3  0  0  0  0  0  0
  191.6010  176.9120  138.2410 C   0  0  0  0  0  2  0  0  0  0  0  0
  190.7850  174.6610  138.1580 C   0  0  0  0  0  2  0  0  0  0  0  0
  192.0460  174.6940  137.4360 N   0  0  0  0  0  2  0  0  0  0  0  0
  192.2980  176.1030  137.1690 C   0  0  2  0  0  3  0  0  0  0  0  0
  190.6860  175.9430  138.9620 C   0  0  2  0  0  3  0  0  0  0  0  0
  193.7920  176.3830  137.2010 C   0  0  0  0  0  2  0  0  0  0  0  0
  194.4450  175.7870  136.0460 N   0  0  0  0  0  0  0  0  0  0  0  0
  195.6260  175.1070  136.5420 C   0  0  0  0  0  1  0  0  0  0  0  0
  194.9160  176.8790  135.2120 C   0  0  0  0  0  1  0  0  0  0  0  0
  188.7230  179.3950  136.5370 C   0  0  0  0  0  1  0  0  0  0  0  0
  187.3870  178.8690  136.7640 N   0  0  0  0  0  0  0  0  0  0  0  0
  186.8900  178.4510  135.5720 O   0  0  0  0  0  1  0  0  0  0  0  0
  1  3  1  0  0  0  0
  2  6  1  6  0  0  0
  2  4  1  0  0  0  0
  2  5  1  0  0  0  0
  4 30  1  6  0  0  0
  4  1  1  0  0  0  0
  5  3  1  0  0  0  0
  6  7  1  0  0  0  0
  8  7  1  0  0  0  0
  9  8  1  0  0  0  0
 10  9  1  0  0  0  0
 11 10  1  0  0  0  0
 13 11  1  0  0  0  0
 13 12  1  0  0  0  0
 14 13  1  0  0  0  0
 15 13  1  0  0  0  0
 16 17  1  6  0  0  0
 16 15  1  0  0  0  0
 18 16  1  0  0  0  0
 18 28  1  1  0  0  0
 19 22  1  0  0  0  0
 20 22  1  0  0  0  0
 20 23  1  1  0  0  0
 20 24  1  0  0  0  0
 22 21  1  1  0  0  0
 22 24  1  0  0  0  0
 24 18  1  6  0  0  0
 25 27  1  0  0  0  0
 26 25  1  0  0  0  0
 26 27  1  0  0  0  0
 27 18  1  0  0  0  0
 28 29  1  0  0  0  0
 30 36  1  6  0  0  0
 31 30  1  0  0  0  0
 31 33  1  0  0  0  0
 33 32  1  1  0  0  0
 33 34  1  0  0  0  0
 35 34  1  0  0  0  0
 38 54  1  6  0  0  0
 38 41  1  0  0  0  0
 38 39  1  0  0  0  0
 39 37  1  6  0  0  0
 39 42  1  0  0  0  0
 40 41  1  6  0  0  0
 40 43  1  0  0  0  0
 42 43  1  0  0  0  0
 43 36  1  1  0  0  0
 44 48  1  0  0  0  0
 46 45  1  0  0  0  0
 47 49  1  1  0  0  0
 47 46  1  0  0  0  0
 47 44  1  0  0  0  0
 48 45  1  6  0  0  0
 48 40  1  0  0  0  0
 50 51  1  0  0  0  0
 50 49  1  0  0  0  0
 52 50  1  0  0  0  0
 53 54  1  0  0  0  0
 55 54  1  0  0  0  0
M  END
>  <MODEL>
4

>  <REMARK>
 VINA RESULT:      -4.7      2.477      4.915
  Name = 
  23 active torsions:
  status: ('A' for Active; 'I' for Inactive)
    1  A    between atoms: C_1  and  C_21
    2  A    between atoms: C_1  and  O_29
    3  A    between atoms: C_1  and  C_38
    4  A    between atoms: C_1  and  C_53
    5  A    between atoms: C_2  and  C_19
    6  A    between atoms: C_2  and  C_28
    7  A    between atoms: C_2  and  C_44
    8  A    between atoms: C_4  and  C_40
    9  A    between atoms: C_8  and  C_20
   10  A    between atoms: C_8  and  O_43
   11  A    between atoms: N_10  and  C_32
   12  A    between atoms: C_16  and  N_17
   13  A    between atoms: C_19  and  C_40
   14  A    between atoms: C_20  and  C_42
   15  A    between atoms: C_21  and  C_42
   16  A    between atoms: C_27  and  C_31
   17  A    between atoms: C_28  and  C_49
   18  A    between atoms: C_31  and  C_54
   19  A    between atoms: C_32  and  C_48
   20  A    between atoms: C_33  and  C_52
   21  A    between atoms: S_35  and  O_43
   22  A    between atoms: S_35  and  C_51
   23  A    between atoms: C_51  and  C_54
                            x       y       z     vdW  Elec       q    Type
                         _______ _______ _______ _____ _____    ______ ____

>  <TORSDO>
F 23

$$$$
=
 OpenBabel11052415103D

 55 59  0  0  1  0  0  0  0  0999 V2000
  188.4080  178.1380  143.8920 O   0  0  0  0  0  0  0  0  0  0  0  0
  187.2550  177.7640  141.8460 C   0  0  1  0  0  3  0  0  0  0  0  0
  187.0360  178.2210  144.1650 C   0  0  0  0  0  2  0  0  0  0  0  0
  188.5170  178.2840  142.4990 C   0  0  2  0  0  3  0  0  0  0  0  0
  186.2790  177.6640  142.9830 C   0  0  0  0  0  2  0  0  0  0  0  0
  186.7640  178.7650  140.8160 C   0  0  0  0  0  2  0  0  0  0  0  0
  186.7040  178.1090  139.4500 C   0  0  0  0  0  2  0  0  0  0  0  0
  185.4280  178.5050  138.7340 C   0  0  0  0  0  2  0  0  0  0  0  0
  185.5130  178.0300  136.9800 S   0  0  0  0  0  0  0  0  0  0  0  0
  183.8600  177.5590  136.9440 O   0  0  0  0  0  0  0  0  0  0  0  0
  183.7430  176.5910  137.9450 C   0  0  0  0  0  2  0  0  0  0  0  0
  181.4550  177.0150  137.4680 O   0  0  0  0  0  1  0  0  0  0  0  0
  182.3090  176.5340  138.4610 C   0  0  0  0  0  0  0  0  0  0  0  0
  181.9580  175.2150  138.7480 O   0  0  0  0  0  1  0  0  0  0  0  0
  182.1290  177.4170  139.7020 C   0  0  0  0  0  2  0  0  0  0  0  0
  181.3670  178.7500  139.5480 C   0  0  2  0  0  3  0  0  0  0  0  0
  182.1980  179.8100  139.1800 O   0  0  0  0  0  1  0  0  0  0  0  0
  180.3130  179.1480  140.6260 C   0  0  2  0  0  0  0  0  0  0  0  0
  179.1290  180.0370  143.0910 O   0  0  0  0  0  1  0  0  0  0  0  0
  181.5240  179.5390  142.8790 C   0  0  1  0  0  3  0  0  0  0  0  0
  179.9200  178.0470  144.3580 C   0  0  0  0  0  1  0  0  0  0  0  0
  180.1220  179.0700  143.2500 C   0  0  1  0  0  0  0  0  0  0  0  0
  182.6170  178.8100  143.6420 C   0  0  0  0  0  1  0  0  0  0  0  0
  180.7820  178.5410  141.9790 C   0  0  1  0  0  3  0  0  0  0  0  0
  178.9500  176.9730  140.4230 C   0  0  0  0  0  2  0  0  0  0  0  0
  178.9310  177.6260  139.0570 C   0  0  0  0  0  2  0  0  0  0  0  0
  178.9350  178.4890  140.3100 C   0  0  0  0  0  3  0  0  0  0  0  0
  180.2300  180.5670  140.7370 O   0  0  0  0  0  0  0  0  0  0  0  0
  179.0260  180.9510  140.3470 O   0  0  0  0  0  1  0  0  0  0  0  0
  189.7600  177.5760  141.9530 C   0  0  2  0  0  3  0  0  0  0  0  0
  191.0070  177.8510  142.7910 C   0  0  0  0  0  2  0  0  0  0  0  0
  190.5220  175.5890  143.3350 O   0  0  0  0  0  1  0  0  0  0  0  0
  191.4500  176.6090  143.5470 C   0  0  2  0  0  3  0  0  0  0  0  0
  191.5460  176.9140  145.0330 C   0  0  0  0  0  2  0  0  0  0  0  0
  190.2010  176.7070  145.7000 C   0  0  0  0  0  1  0  0  0  0  0  0
  189.9960  178.0010  140.5150 C   0  0  0  0  0  2  0  0  0  0  0  0
  194.3370  177.0580  140.2040 C   0  0  0  0  0  1  0  0  0  0  0  0
  193.0310  176.7610  137.9700 C   0  0  2  0  0  3  0  0  0  0  0  0
  193.0080  177.1500  139.4770 C   0  0  1  0  0  3  0  0  0  0  0  0
  190.5160  177.2000  138.1890 C   0  0  2  0  0  3  0  0  0  0  0  0
  191.6250  176.4570  137.4300 C   0  0  0  0  0  2  0  0  0  0  0  0
  191.9050  176.4130  140.2230 C   0  0  0  0  0  2  0  0  0  0  0  0
  190.5240  176.8320  139.6940 C   0  0  1  0  0  3  0  0  0  0  0  0
  188.8490  175.4100  137.5700 C   0  0  0  0  0  2  0  0  0  0  0  0
  189.1190  177.2600  136.0730 C   0  0  0  0  0  2  0  0  0  0  0  0
  188.3030  176.2670  135.3940 N   0  0  0  0  0  2  0  0  0  0  0  0
  188.4940  175.0350  136.1470 C   0  0  2  0  0  3  0  0  0  0  0  0
  189.1540  176.8930  137.5440 C   0  0  2  0  0  3  0  0  0  0  0  0
  187.2180  174.2100  136.1340 C   0  0  0  0  0  2  0  0  0  0  0  0
  187.4870  172.8680  135.6400 N   0  0  0  0  0  0  0  0  0  0  0  0
  187.4710  171.9900  136.7950 C   0  0  0  0  0  1  0  0  0  0  0  0
  188.8500  172.8630  135.1380 C   0  0  0  0  0  1  0  0  0  0  0  0
  193.1810  174.6760  136.8200 C   0  0  0  0  0  1  0  0  0  0  0  0
  193.9230  175.6510  137.6010 N   0  0  0  0  0  0  0  0  0  0  0  0
  194.9480  176.1100  136.8400 O   0  0  0  0  0  1  0  0  0  0  0  0
  1  3  1  0  0  0  0
  2  6  1  6  0  0  0
  2  4  1  0  0  0  0
  2  5  1  0  0  0  0
  4 30  1  6  0  0  0
  4  1  1  0  0  0  0
  5  3  1  0  0  0  0
  7  6  1  0  0  0  0
  8  7  1  0  0  0  0
  9  8  1  0  0  0  0
 10  9  1  0  0  0  0
 10 11  1  0  0  0  0
 11 13  1  0  0  0  0
 12 13  1  0  0  0  0
 13 14  1  0  0  0  0
 13 15  1  0  0  0  0
 16 17  1  1  0  0  0
 16 15  1  0  0  0  0
 16 18  1  0  0  0  0
 18 28  1  1  0  0  0
 19 22  1  0  0  0  0
 20 22  1  0  0  0  0
 20 23  1  1  0  0  0
 22 21  1  1  0  0  0
 24 18  1  6  0  0  0
 24 20  1  0  0  0  0
 24 22  1  0  0  0  0
 26 27  1  0  0  0  0
 26 25  1  0  0  0  0
 27 25  1  0  0  0  0
 27 18  1  0  0  0  0
 29 28  1  0  0  0  0
 30 36  1  6  0  0  0
 30 31  1  0  0  0  0
 31 33  1  0  0  0  0
 33 32  1  1  0  0  0
 33 34  1  0  0  0  0
 34 35  1  0  0  0  0
 38 54  1  1  0  0  0
 38 39  1  0  0  0  0
 39 37  1  1  0  0  0
 39 42  1  0  0  0  0
 40 41  1  6  0  0  0
 40 43  1  0  0  0  0
 41 38  1  0  0  0  0
 43 42  1  0  0  0  0
 43 36  1  1  0  0  0
 46 45  1  0  0  0  0
 46 47  1  0  0  0  0
 47 49  1  1  0  0  0
 47 44  1  0  0  0  0
 48 45  1  6  0  0  0
 48 44  1  0  0  0  0
 48 40  1  0  0  0  0
 50 49  1  0  0  0  0
 50 51  1  0  0  0  0
 52 50  1  0  0  0  0
 53 54  1  0  0  0  0
 55 54  1  0  0  0  0
M  END
>  <MODEL>
5

>  <REMARK>
 VINA RESULT:      -4.7      2.751      6.285
  Name = 
  23 active torsions:
  status: ('A' for Active; 'I' for Inactive)
    1  A    between atoms: C_1  and  C_21
    2  A    between atoms: C_1  and  O_29
    3  A    between atoms: C_1  and  C_38
    4  A    between atoms: C_1  and  C_53
    5  A    between atoms: C_2  and  C_19
    6  A    between atoms: C_2  and  C_28
    7  A    between atoms: C_2  and  C_44
    8  A    between atoms: C_4  and  C_40
    9  A    between atoms: C_8  and  C_20
   10  A    between atoms: C_8  and  O_43
   11  A    between atoms: N_10  and  C_32
   12  A    between atoms: C_16  and  N_17
   13  A    between atoms: C_19  and  C_40
   14  A    between atoms: C_20  and  C_42
   15  A    between atoms: C_21  and  C_42
   16  A    between atoms: C_27  and  C_31
   17  A    between atoms: C_28  and  C_49
   18  A    between atoms: C_31  and  C_54
   19  A    between atoms: C_32  and  C_48
   20  A    between atoms: C_33  and  C_52
   21  A    between atoms: S_35  and  O_43
   22  A    between atoms: S_35  and  C_51
   23  A    between atoms: C_51  and  C_54
                            x       y       z     vdW  Elec       q    Type
                         _______ _______ _______ _____ _____    ______ ____

>  <TORSDO>
F 23

$$$$
=
 OpenBabel11052415103D

 55 59  0  0  1  0  0  0  0  0999 V2000
  181.6950  177.5910  135.6120 O   0  0  0  0  0  0  0  0  0  0  0  0
  183.7190  177.0800  136.7520 C   0  0  1  0  0  3  0  0  0  0  0  0
  182.6210  177.1650  134.6490 C   0  0  0  0  0  2  0  0  0  0  0  0
  182.4630  177.9240  136.7400 C   0  0  2  0  0  3  0  0  0  0  0  0
  183.7870  176.5210  135.3600 C   0  0  0  0  0  2  0  0  0  0  0  0
  184.9230  177.9630  137.0260 C   0  0  0  0  0  2  0  0  0  0  0  0
  184.9060  178.4210  138.4720 C   0  0  0  0  0  2  0  0  0  0  0  0
  186.2750  178.2380  139.0960 C   0  0  0  0  0  2  0  0  0  0  0  0
  187.5730  178.4050  137.8320 S   0  0  0  0  0  0  0  0  0  0  0  0
  188.7830  178.7480  139.0040 O   0  0  0  0  0  0  0  0  0  0  0  0
  189.8710  177.9520  138.6370 C   0  0  0  0  0  2  0  0  0  0  0  0
  188.9400  176.1500  139.8720 O   0  0  0  0  0  1  0  0  0  0  0  0
  190.1180  176.8750  139.6870 C   0  0  0  0  0  0  0  0  0  0  0  0
  191.1130  176.0020  139.2500 O   0  0  0  0  0  1  0  0  0  0  0  0
  190.5040  177.4920  141.0380 C   0  0  0  0  0  2  0  0  0  0  0  0
  189.4910  177.4050  142.1990 C   0  0  2  0  0  3  0  0  0  0  0  0
  188.4840  178.3690  142.1140 O   0  0  0  0  0  1  0  0  0  0  0  0
  190.0220  177.2040  143.6510 C   0  0  2  0  0  0  0  0  0  0  0  0
  189.9210  176.3860  146.4060 O   0  0  0  0  0  1  0  0  0  0  0  0
  187.9020  176.8700  145.0960 C   0  0  1  0  0  3  0  0  0  0  0  0
  188.6520  178.4080  147.1110 C   0  0  0  0  0  1  0  0  0  0  0  0
  188.9770  177.3540  146.0620 C   0  0  1  0  0  0  0  0  0  0  0  0
  186.5870  177.6150  145.2470 C   0  0  0  0  0  1  0  0  0  0  0  0
  188.9850  177.8450  144.6170 C   0  0  1  0  0  3  0  0  0  0  0  0
  191.2040  179.1990  144.7680 C   0  0  0  0  0  2  0  0  0  0  0  0
  191.3430  179.3950  143.2730 C   0  0  0  0  0  2  0  0  0  0  0  0
  191.3520  177.9900  143.8590 C   0  0  0  0  0  3  0  0  0  0  0  0
  190.1550  175.8140  143.9410 O   0  0  0  0  0  0  0  0  0  0  0  0
  190.4700  175.1790  142.8250 O   0  0  0  0  0  1  0  0  0  0  0  0
  181.6640  177.7540  138.0350 C   0  0  2  0  0  3  0  0  0  0  0  0
  181.8310  176.3660  138.6510 C   0  0  0  0  0  2  0  0  0  0  0  0
  180.2030  175.4100  140.0930 O   0  0  0  0  0  1  0  0  0  0  0  0
  180.4990  175.6420  138.7500 C   0  0  2  0  0  3  0  0  0  0  0  0
  180.5710  174.3180  138.0050 C   0  0  0  0  0  2  0  0  0  0  0  0
  179.4760  173.3860  138.4820 C   0  0  0  0  0  1  0  0  0  0  0  0
  180.1950  178.0300  137.7660 C   0  0  0  0  0  2  0  0  0  0  0  0
  179.9250  181.1640  134.6130 C   0  0  0  0  0  1  0  0  0  0  0  0
  181.0590  181.9760  136.8130 C   0  0  2  0  0  3  0  0  0  0  0  0
  180.3860  180.8200  136.0180 C   0  0  1  0  0  3  0  0  0  0  0  0
  181.1080  180.1980  138.6570 C   0  0  2  0  0  3  0  0  0  0  0  0
  181.0930  181.6960  138.3230 C   0  0  0  0  0  2  0  0  0  0  0  0
  179.2790  180.1600  136.8290 C   0  0  0  0  0  2  0  0  0  0  0  0
  179.8600  179.4830  138.0810 C   0  0  1  0  0  3  0  0  0  0  0  0
  182.4830  179.2840  140.5640 C   0  0  0  0  0  2  0  0  0  0  0  0
  180.0990  179.1310  140.7240 C   0  0  0  0  0  2  0  0  0  0  0  0
  180.6590  178.3360  141.8040 N   0  0  0  0  0  2  0  0  0  0  0  0
  182.0550  178.1300  141.4440 C   0  0  2  0  0  3  0  0  0  0  0  0
  181.2100  180.0080  140.1790 C   0  0  2  0  0  3  0  0  0  0  0  0
  182.9180  178.0860  142.6940 C   0  0  0  0  0  2  0  0  0  0  0  0
  183.5520  179.3760  142.9190 N   0  0  0  0  0  0  0  0  0  0  0  0
  184.9510  179.2170  142.5680 C   0  0  0  0  0  1  0  0  0  0  0  0
  183.5110  179.6280  144.3480 C   0  0  0  0  0  1  0  0  0  0  0  0
  179.9320  183.8090  137.8460 C   0  0  0  0  0  1  0  0  0  0  0  0
  180.4990  183.3200  136.6000 N   0  0  0  0  0  0  0  0  0  0  0  0
  181.4790  184.1780  136.2170 O   0  0  0  0  0  1  0  0  0  0  0  0
  1  4  1  0  0  0  0
  2  6  1  6  0  0  0
  3  5  1  0  0  0  0
  3  1  1  0  0  0  0
  4  2  1  0  0  0  0
  4 30  1  1  0  0  0
  5  2  1  0  0  0  0
  6  7  1  0  0  0  0
  7  8  1  0  0  0  0
  9 10  1  0  0  0  0
  9  8  1  0  0  0  0
 11 10  1  0  0  0  0
 11 13  1  0  0  0  0
 13 12  1  0  0  0  0
 13 15  1  0  0  0  0
 14 13  1  0  0  0  0
 15 16  1  0  0  0  0
 16 17  1  1  0  0  0
 16 18  1  0  0  0  0
 18 27  1  0  0  0  0
 18 28  1  1  0  0  0
 20 23  1  1  0  0  0
 20 22  1  0  0  0  0
 22 19  1  0  0  0  0
 22 21  1  1  0  0  0
 24 18  1  6  0  0  0
 24 20  1  0  0  0  0
 24 22  1  0  0  0  0
 26 27  1  0  0  0  0
 26 25  1  0  0  0  0
 27 25  1  0  0  0  0
 29 28  1  0  0  0  0
 30 36  1  6  0  0  0
 30 31  1  0  0  0  0
 31 33  1  0  0  0  0
 33 32  1  1  0  0  0
 34 35  1  0  0  0  0
 34 33  1  0  0  0  0
 38 54  1  1  0  0  0
 38 41  1  0  0  0  0
 39 37  1  6  0  0  0
 39 38  1  0  0  0  0
 39 42  1  0  0  0  0
 40 41  1  1  0  0  0
 40 48  1  0  0  0  0
 42 43  1  0  0  0  0
 43 36  1  6  0  0  0
 43 40  1  0  0  0  0
 44 47  1  0  0  0  0
 45 46  1  0  0  0  0
 47 46  1  0  0  0  0
 47 49  1  1  0  0  0
 48 44  1  6  0  0  0
 48 45  1  0  0  0  0
 49 50  1  0  0  0  0
 50 52  1  0  0  0  0
 51 50  1  0  0  0  0
 54 53  1  0  0  0  0
 55 54  1  0  0  0  0
M  END
>  <MODEL>
6

>  <REMARK>
 VINA RESULT:      -4.3      3.509     10.122
  Name = 
  23 active torsions:
  status: ('A' for Active; 'I' for Inactive)
    1  A    between atoms: C_1  and  C_21
    2  A    between atoms: C_1  and  O_29
    3  A    between atoms: C_1  and  C_38
    4  A    between atoms: C_1  and  C_53
    5  A    between atoms: C_2  and  C_19
    6  A    between atoms: C_2  and  C_28
    7  A    between atoms: C_2  and  C_44
    8  A    between atoms: C_4  and  C_40
    9  A    between atoms: C_8  and  C_20
   10  A    between atoms: C_8  and  O_43
   11  A    between atoms: N_10  and  C_32
   12  A    between atoms: C_16  and  N_17
   13  A    between atoms: C_19  and  C_40
   14  A    between atoms: C_20  and  C_42
   15  A    between atoms: C_21  and  C_42
   16  A    between atoms: C_27  and  C_31
   17  A    between atoms: C_28  and  C_49
   18  A    between atoms: C_31  and  C_54
   19  A    between atoms: C_32  and  C_48
   20  A    between atoms: C_33  and  C_52
   21  A    between atoms: S_35  and  O_43
   22  A    between atoms: S_35  and  C_51
   23  A    between atoms: C_51  and  C_54
                            x       y       z     vdW  Elec       q    Type
                         _______ _______ _______ _____ _____    ______ ____

>  <TORSDO>
F 23

$$$$
=
 OpenBabel11052415103D

 55 59  0  0  1  0  0  0  0  0999 V2000
  190.6630  177.5510  140.7490 O   0  0  0  0  0  0  0  0  0  0  0  0
  188.2850  177.5060  140.7470 C   0  0  1  0  0  3  0  0  0  0  0  0
  190.2460  177.4360  142.0820 C   0  0  0  0  0  2  0  0  0  0  0  0
  189.5320  177.9990  140.0460 C   0  0  2  0  0  3  0  0  0  0  0  0
  188.7810  177.0700  142.0950 C   0  0  0  0  0  2  0  0  0  0  0  0
  187.2970  178.6480  140.8930 C   0  0  0  0  0  2  0  0  0  0  0  0
  186.1720  178.4870  139.8870 C   0  0  0  0  0  2  0  0  0  0  0  0
  184.8620  178.9590  140.4850 C   0  0  0  0  0  2  0  0  0  0  0  0
  184.5850  178.1730  142.1020 S   0  0  0  0  0  0  0  0  0  0  0  0
  182.8990  177.9970  141.8190 O   0  0  0  0  0  0  0  0  0  0  0  0
  182.3910  179.2980  141.8730 C   0  0  0  0  0  2  0  0  0  0  0  0
  180.4400  178.0480  142.3970 O   0  0  0  0  0  1  0  0  0  0  0  0
  180.8660  179.2700  141.8760 C   0  0  0  0  0  0  0  0  0  0  0  0
  180.3730  180.2940  142.6850 O   0  0  0  0  0  1  0  0  0  0  0  0
  180.3040  179.3950  140.4550 C   0  0  0  0  0  2  0  0  0  0  0  0
  181.2990  179.4890  139.2790 C   0  0  2  0  0  3  0  0  0  0  0  0
  181.8130  180.7760  139.1050 O   0  0  0  0  0  1  0  0  0  0  0  0
  180.9480  178.7840  137.9330 C   0  0  2  0  0  0  0  0  0  0  0  0
  180.8470  176.8440  135.8130 O   0  0  0  0  0  1  0  0  0  0  0  0
  182.4330  176.6800  137.6810 C   0  0  1  0  0  3  0  0  0  0  0  0
  183.2410  177.1630  135.2100 C   0  0  0  0  0  1  0  0  0  0  0  0
  182.1360  177.1390  136.2570 C   0  0  1  0  0  0  0  0  0  0  0  0
  183.9030  176.3790  137.9150 C   0  0  0  0  0  1  0  0  0  0  0  0
  182.2640  178.1740  137.3720 C   0  0  1  0  0  3  0  0  0  0  0  0
  179.2580  180.6280  137.3280 C   0  0  0  0  0  2  0  0  0  0  0  0
  179.0990  179.5370  136.2900 C   0  0  0  0  0  2  0  0  0  0  0  0
  180.4710  179.8300  136.8790 C   0  0  0  0  0  3  0  0  0  0  0  0
  179.9920  177.7490  138.1510 O   0  0  0  0  0  0  0  0  0  0  0  0
  180.3930  177.0130  139.1740 O   0  0  0  0  0  1  0  0  0  0  0  0
  189.5640  177.5510  138.5830 C   0  0  2  0  0  3  0  0  0  0  0  0
  189.0930  178.6430  137.6240 C   0  0  0  0  0  2  0  0  0  0  0  0
  189.4860  178.4810  135.2850 O   0  0  0  0  0  1  0  0  0  0  0  0
  188.6300  178.0550  136.3010 C   0  0  2  0  0  3  0  0  0  0  0  0
  187.2110  178.5110  136.0000 C   0  0  0  0  0  2  0  0  0  0  0  0
  186.6880  177.8160  134.7580 C   0  0  0  0  0  1  0  0  0  0  0  0
  188.7090  176.3080  138.4140 C   0  0  0  0  0  2  0  0  0  0  0  0
  193.0930  176.6520  137.7050 C   0  0  0  0  0  1  0  0  0  0  0  0
  191.8220  175.3420  135.8450 C   0  0  2  0  0  3  0  0  0  0  0  0
  191.7650  176.1270  137.1870 C   0  0  1  0  0  3  0  0  0  0  0  0
  189.3210  175.0560  136.3200 C   0  0  2  0  0  3  0  0  0  0  0  0
  190.5650  174.4900  135.6190 C   0  0  0  0  0  2  0  0  0  0  0  0
  191.0120  175.3470  138.2550 C   0  0  0  0  0  2  0  0  0  0  0  0
  189.5410  175.1620  137.8500 C   0  0  1  0  0  3  0  0  0  0  0  0
  186.9700  174.4140  136.9720 C   0  0  0  0  0  2  0  0  0  0  0  0
  188.4020  172.7030  136.1020 C   0  0  0  0  0  2  0  0  0  0  0  0
  187.2110  172.0510  136.6200 N   0  0  0  0  0  2  0  0  0  0  0  0
  186.5720  173.0430  137.4750 C   0  0  2  0  0  3  0  0  0  0  0  0
  188.0990  174.1840  135.9890 C   0  0  2  0  0  3  0  0  0  0  0  0
  185.0610  172.8900  137.4160 C   0  0  0  0  0  2  0  0  0  0  0  0
  184.6750  172.1140  136.2480 N   0  0  0  0  0  0  0  0  0  0  0  0
  184.1630  173.0590  135.2730 C   0  0  0  0  0  1  0  0  0  0  0  0
  183.5540  171.2790  136.6420 C   0  0  0  0  0  1  0  0  0  0  0  0
  192.5770  173.1360  135.3410 C   0  0  0  0  0  1  0  0  0  0  0  0
  193.0050  174.4910  135.6430 N   0  0  0  0  0  0  0  0  0  0  0  0
  193.7350  174.9470  134.5940 O   0  0  0  0  0  1  0  0  0  0  0  0
  1  3  1  0  0  0  0
  2  6  1  1  0  0  0
  2  5  1  0  0  0  0
  3  5  1  0  0  0  0
  4 30  1  6  0  0  0
  4  2  1  0  0  0  0
  4  1  1  0  0  0  0
  7  8  1  0  0  0  0
  7  6  1  0  0  0  0
  8  9  1  0  0  0  0
 10 11  1  0  0  0  0
 10  9  1  0  0  0  0
 11 13  1  0  0  0  0
 13 12  1  0  0  0  0
 13 14  1  0  0  0  0
 15 13  1  0  0  0  0
 16 17  1  6  0  0  0
 16 15  1  0  0  0  0
 18 28  1  1  0  0  0
 18 16  1  0  0  0  0
 19 22  1  0  0  0  0
 20 23  1  6  0  0  0
 22 21  1  6  0  0  0
 22 24  1  0  0  0  0
 22 20  1  0  0  0  0
 24 20  1  0  0  0  0
 24 18  1  1  0  0  0
 26 27  1  0  0  0  0
 26 25  1  0  0  0  0
 27 25  1  0  0  0  0
 27 18  1  0  0  0  0
 28 29  1  0  0  0  0
 30 31  1  6  0  0  0
 33 32  1  6  0  0  0
 33 31  1  0  0  0  0
 34 33  1  0  0  0  0
 35 34  1  0  0  0  0
 36 30  1  0  0  0  0
 38 54  1  1  0  0  0
 38 39  1  0  0  0  0
 39 37  1  1  0  0  0
 39 42  1  0  0  0  0
 40 41  1  6  0  0  0
 40 43  1  0  0  0  0
 41 38  1  0  0  0  0
 43 42  1  0  0  0  0
 43 36  1  6  0  0  0
 44 47  1  0  0  0  0
 45 46  1  0  0  0  0
 46 47  1  0  0  0  0
 47 49  1  6  0  0  0
 48 45  1  1  0  0  0
 48 40  1  0  0  0  0
 48 44  1  0  0  0  0
 50 52  1  0  0  0  0
 50 49  1  0  0  0  0
 51 50  1  0  0  0  0
 53 54  1  0  0  0  0
 55 54  1  0  0  0  0
M  END
>  <MODEL>
7

>  <REMARK>
 VINA RESULT:      -4.3      3.298      5.952
  Name = 
  23 active torsions:
  status: ('A' for Active; 'I' for Inactive)
    1  A    between atoms: C_1  and  C_21
    2  A    between atoms: C_1  and  O_29
    3  A    between atoms: C_1  and  C_38
    4  A    between atoms: C_1  and  C_53
    5  A    between atoms: C_2  and  C_19
    6  A    between atoms: C_2  and  C_28
    7  A    between atoms: C_2  and  C_44
    8  A    between atoms: C_4  and  C_40
    9  A    between atoms: C_8  and  C_20
   10  A    between atoms: C_8  and  O_43
   11  A    between atoms: N_10  and  C_32
   12  A    between atoms: C_16  and  N_17
   13  A    between atoms: C_19  and  C_40
   14  A    between atoms: C_20  and  C_42
   15  A    between atoms: C_21  and  C_42
   16  A    between atoms: C_27  and  C_31
   17  A    between atoms: C_28  and  C_49
   18  A    between atoms: C_31  and  C_54
   19  A    between atoms: C_32  and  C_48
   20  A    between atoms: C_33  and  C_52
   21  A    between atoms: S_35  and  O_43
   22  A    between atoms: S_35  and  C_51
   23  A    between atoms: C_51  and  C_54
                            x       y       z     vdW  Elec       q    Type
                         _______ _______ _______ _____ _____    ______ ____

>  <TORSDO>
F 23

$$$$
=
 OpenBabel11052415103D

 55 59  0  0  1  0  0  0  0  0999 V2000
  188.7900  179.0120  138.4100 O   0  0  0  0  0  0  0  0  0  0  0  0
  186.7060  178.1020  137.7140 C   0  0  1  0  0  3  0  0  0  0  0  0
  188.6490  179.2890  137.0430 C   0  0  0  0  0  2  0  0  0  0  0  0
  187.8680  177.9860  138.6760 C   0  0  2  0  0  3  0  0  0  0  0  0
  187.2140  179.0290  136.6480 C   0  0  0  0  0  2  0  0  0  0  0  0
  186.3960  176.7390  137.1230 C   0  0  0  0  0  2  0  0  0  0  0  0
  186.3400  176.8350  135.6100 C   0  0  0  0  0  2  0  0  0  0  0  0
  184.9000  176.9100  135.1430 C   0  0  0  0  0  2  0  0  0  0  0  0
  184.1990  175.2400  134.9800 S   0  0  0  0  0  0  0  0  0  0  0  0
  182.5960  175.7980  135.2460 O   0  0  0  0  0  0  0  0  0  0  0  0
  181.9980  174.8090  136.0310 C   0  0  0  0  0  2  0  0  0  0  0  0
  180.9430  174.3980  138.1190 O   0  0  0  0  0  1  0  0  0  0  0  0
  181.6760  175.3560  137.4170 C   0  0  0  0  0  0  0  0  0  0  0  0
  182.8560  175.6120  138.1140 O   0  0  0  0  0  1  0  0  0  0  0  0
  180.8210  176.6270  137.3290 C   0  0  0  0  0  2  0  0  0  0  0  0
  181.5140  177.9910  137.5230 C   0  0  2  0  0  3  0  0  0  0  0  0
  182.7480  177.8860  138.1680 O   0  0  0  0  0  1  0  0  0  0  0  0
  180.6700  179.2060  138.0160 C   0  0  2  0  0  0  0  0  0  0  0  0
  179.1430  181.6390  138.1560 O   0  0  0  0  0  1  0  0  0  0  0  0
  180.0910  180.7910  136.0550 C   0  0  1  0  0  3  0  0  0  0  0  0
  180.9740  183.0140  137.1800 C   0  0  0  0  0  1  0  0  0  0  0  0
  180.2260  181.6920  137.2770 C   0  0  1  0  0  0  0  0  0  0  0  0
  180.8490  181.3110  134.8460 C   0  0  0  0  0  1  0  0  0  0  0  0
  181.0890  180.4380  137.1660 C   0  0  1  0  0  3  0  0  0  0  0  0
  180.6720  178.4530  140.4780 C   0  0  0  0  0  2  0  0  0  0  0  0
  179.8220  179.7040  140.4080 C   0  0  0  0  0  2  0  0  0  0  0  0
  181.0280  179.5550  139.4930 C   0  0  0  0  0  3  0  0  0  0  0  0
  179.2790  178.9470  137.8350 O   0  0  0  0  0  0  0  0  0  0  0  0
  179.1040  178.3920  136.6480 O   0  0  0  0  0  1  0  0  0  0  0  0
  187.3940  178.0180  140.1310 C   0  0  2  0  0  3  0  0  0  0  0  0
  186.1670  178.9060  140.3290 C   0  0  0  0  0  2  0  0  0  0  0  0
  183.9650  178.6160  141.1770 O   0  0  0  0  0  1  0  0  0  0  0  0
  185.3110  178.4170  141.4860 C   0  0  2  0  0  3  0  0  0  0  0  0
  185.6650  179.1810  142.7520 C   0  0  0  0  0  2  0  0  0  0  0  0
  185.4750  178.2970  143.9690 C   0  0  0  0  0  1  0  0  0  0  0  0
  188.5270  178.4910  141.0240 C   0  0  0  0  0  2  0  0  0  0  0  0
  189.1660  177.0210  145.1800 C   0  0  0  0  0  1  0  0  0  0  0  0
  191.3350  177.0860  143.7380 C   0  0  2  0  0  3  0  0  0  0  0  0
  189.8040  177.3460  143.8410 C   0  0  1  0  0  3  0  0  0  0  0  0
  190.9340  177.8270  141.3190 C   0  0  2  0  0  3  0  0  0  0  0  0
  191.8130  177.0140  142.2800 C   0  0  0  0  0  2  0  0  0  0  0  0
  189.0530  176.6980  142.6870 C   0  0  0  0  0  2  0  0  0  0  0  0
  189.4660  177.3360  141.3500 C   0  0  1  0  0  3  0  0  0  0  0  0
  190.9500  176.5860  139.1220 C   0  0  0  0  0  2  0  0  0  0  0  0
  193.0160  177.5120  139.9040 C   0  0  0  0  0  2  0  0  0  0  0  0
  193.3240  176.6570  138.7700 N   0  0  0  0  0  2  0  0  0  0  0  0
  192.1420  175.8250  138.5850 C   0  0  2  0  0  3  0  0  0  0  0  0
  191.5190  177.7560  139.8990 C   0  0  2  0  0  3  0  0  0  0  0  0
  191.9400  175.5240  137.1090 C   0  0  0  0  0  2  0  0  0  0  0  0
  190.7790  174.6670  136.9210 N   0  0  0  0  0  0  0  0  0  0  0  0
  191.2650  173.4400  136.3170 C   0  0  0  0  0  1  0  0  0  0  0  0
  189.9320  175.3070  135.9300 C   0  0  0  0  0  1  0  0  0  0  0  0
  191.5930  176.0610  145.8780 C   0  0  0  0  0  1  0  0  0  0  0  0
  191.8400  175.9050  144.4540 N   0  0  0  0  0  0  0  0  0  0  0  0
  191.1910  174.7900  144.0330 O   0  0  0  0  0  1  0  0  0  0  0  0
  1  4  1  0  0  0  0
  2  6  1  6  0  0  0
  2  4  1  0  0  0  0
  3  1  1  0  0  0  0
  4 30  1  1  0  0  0
  5  3  1  0  0  0  0
  5  2  1  0  0  0  0
  7  6  1  0  0  0  0
  8  7  1  0  0  0  0
  9  8  1  0  0  0  0
  9 10  1  0  0  0  0
 10 11  1  0  0  0  0
 11 13  1  0  0  0  0
 13 14  1  0  0  0  0
 13 12  1  0  0  0  0
 15 13  1  0  0  0  0
 15 16  1  0  0  0  0
 16 18  1  0  0  0  0
 16 17  1  1  0  0  0
 18 28  1  6  0  0  0
 18 27  1  0  0  0  0
 20 23  1  6  0  0  0
 20 24  1  0  0  0  0
 20 22  1  0  0  0  0
 22 21  1  6  0  0  0
 22 19  1  0  0  0  0
 24 22  1  0  0  0  0
 24 18  1  1  0  0  0
 26 25  1  0  0  0  0
 27 26  1  0  0  0  0
 27 25  1  0  0  0  0
 29 28  1  0  0  0  0
 30 31  1  6  0  0  0
 30 36  1  0  0  0  0
 31 33  1  0  0  0  0
 33 32  1  6  0  0  0
 33 34  1  0  0  0  0
 34 35  1  0  0  0  0
 38 39  1  0  0  0  0
 38 54  1  6  0  0  0
 39 37  1  1  0  0  0
 40 43  1  0  0  0  0
 40 41  1  1  0  0  0
 41 38  1  0  0  0  0
 42 39  1  0  0  0  0
 43 36  1  1  0  0  0
 43 42  1  0  0  0  0
 46 45  1  0  0  0  0
 47 49  1  6  0  0  0
 47 46  1  0  0  0  0
 47 44  1  0  0  0  0
 48 44  1  6  0  0  0
 48 45  1  0  0  0  0
 48 40  1  0  0  0  0
 50 49  1  0  0  0  0
 51 50  1  0  0  0  0
 52 50  1  0  0  0  0
 54 53  1  0  0  0  0
 55 54  1  0  0  0  0
M  END
>  <MODEL>
8

>  <REMARK>
 VINA RESULT:      -4.2      2.474      6.317
  Name = 
  23 active torsions:
  status: ('A' for Active; 'I' for Inactive)
    1  A    between atoms: C_1  and  C_21
    2  A    between atoms: C_1  and  O_29
    3  A    between atoms: C_1  and  C_38
    4  A    between atoms: C_1  and  C_53
    5  A    between atoms: C_2  and  C_19
    6  A    between atoms: C_2  and  C_28
    7  A    between atoms: C_2  and  C_44
    8  A    between atoms: C_4  and  C_40
    9  A    between atoms: C_8  and  C_20
   10  A    between atoms: C_8  and  O_43
   11  A    between atoms: N_10  and  C_32
   12  A    between atoms: C_16  and  N_17
   13  A    between atoms: C_19  and  C_40
   14  A    between atoms: C_20  and  C_42
   15  A    between atoms: C_21  and  C_42
   16  A    between atoms: C_27  and  C_31
   17  A    between atoms: C_28  and  C_49
   18  A    between atoms: C_31  and  C_54
   19  A    between atoms: C_32  and  C_48
   20  A    between atoms: C_33  and  C_52
   21  A    between atoms: S_35  and  O_43
   22  A    between atoms: S_35  and  C_51
   23  A    between atoms: C_51  and  C_54
                            x       y       z     vdW  Elec       q    Type
                         _______ _______ _______ _____ _____    ______ ____

>  <TORSDO>
F 23

$$$$
=
 OpenBabel11052415103D

 55 59  0  0  1  0  0  0  0  0999 V2000
  188.0970  177.7350  135.5380 O   0  0  0  0  0  0  0  0  0  0  0  0
  189.1920  177.4310  137.6270 C   0  0  1  0  0  3  0  0  0  0  0  0
  188.0890  178.9720  136.1970 C   0  0  0  0  0  2  0  0  0  0  0  0
  188.3640  176.7850  136.5380 C   0  0  2  0  0  3  0  0  0  0  0  0
  189.0540  178.9020  137.3560 C   0  0  0  0  0  2  0  0  0  0  0  0
  188.6060  177.0870  138.9840 C   0  0  0  0  0  2  0  0  0  0  0  0
  189.7180  176.7050  139.9430 C   0  0  0  0  0  2  0  0  0  0  0  0
  190.6710  177.8680  140.1300 C   0  0  0  0  0  2  0  0  0  0  0  0
  192.2980  177.2710  140.6800 S   0  0  0  0  0  0  0  0  0  0  0  0
  192.0970  177.9270  142.2560 O   0  0  0  0  0  0  0  0  0  0  0  0
  191.5840  176.8750  143.0180 C   0  0  0  0  0  2  0  0  0  0  0  0
  191.0110  176.3040  145.2510 O   0  0  0  0  0  1  0  0  0  0  0  0
  191.1120  177.3850  144.3760 C   0  0  0  0  0  0  0  0  0  0  0  0
  192.0390  178.2900  144.8920 O   0  0  0  0  0  1  0  0  0  0  0  0
  189.7270  178.0370  144.2750 C   0  0  0  0  0  2  0  0  0  0  0  0
  188.8010  177.9840  145.5080 C   0  0  2  0  0  3  0  0  0  0  0  0
  189.3190  177.2020  146.5420 O   0  0  0  0  0  1  0  0  0  0  0  0
  187.2700  177.7770  145.2950 C   0  0  2  0  0  0  0  0  0  0  0  0
  184.4870  178.0700  144.6340 O   0  0  0  0  0  1  0  0  0  0  0  0
  186.2400  177.8830  142.9240 C   0  0  1  0  0  3  0  0  0  0  0  0
  184.8750  180.1200  143.2770 C   0  0  0  0  0  1  0  0  0  0  0  0
  185.3520  178.7690  143.7910 C   0  0  1  0  0  0  0  0  0  0  0  0
  186.6410  178.5420  141.6160 C   0  0  0  0  0  1  0  0  0  0  0  0
  186.8440  178.6700  144.0950 C   0  0  1  0  0  3  0  0  0  0  0  0
  187.3550  178.9340  147.5940 C   0  0  0  0  0  2  0  0  0  0  0  0
  186.7700  177.5560  147.8230 C   0  0  0  0  0  2  0  0  0  0  0  0
  186.4730  178.3000  146.5300 C   0  0  0  0  0  3  0  0  0  0  0  0
  186.9920  176.4100  145.0010 O   0  0  0  0  0  0  0  0  0  0  0  0
  187.5920  176.0920  143.8670 O   0  0  0  0  0  1  0  0  0  0  0  0
  189.0610  175.5470  135.9680 C   0  0  2  0  0  3  0  0  0  0  0  0
  190.3050  175.8960  135.1530 C   0  0  0  0  0  2  0  0  0  0  0  0
  191.1680  173.6890  135.3360 O   0  0  0  0  0  1  0  0  0  0  0  0
  191.4890  175.0290  135.5520 C   0  0  2  0  0  3  0  0  0  0  0  0
  191.8190  175.2480  137.0200 C   0  0  0  0  0  2  0  0  0  0  0  0
  192.8700  176.3300  137.1670 C   0  0  0  0  0  1  0  0  0  0  0  0
  188.0830  174.7620  135.1110 C   0  0  0  0  0  2  0  0  0  0  0  0
  186.8300  170.4890  135.1840 C   0  0  0  0  0  1  0  0  0  0  0  0
  184.8410  172.1720  135.1970 C   0  0  2  0  0  3  0  0  0  0  0  0
  186.3790  171.9390  135.1660 C   0  0  1  0  0  3  0  0  0  0  0  0
  185.5770  174.6250  135.2670 C   0  0  2  0  0  3  0  0  0  0  0  0
  184.4820  173.6060  135.6130 C   0  0  0  0  0  2  0  0  0  0  0  0
  187.0860  172.7620  136.2340 C   0  0  0  0  0  2  0  0  0  0  0  0
  186.9160  174.2640  135.9560 C   0  0  1  0  0  3  0  0  0  0  0  0
  184.9220  176.1690  137.1520 C   0  0  0  0  0  2  0  0  0  0  0  0
  183.7500  176.3740  135.0740 C   0  0  0  0  0  2  0  0  0  0  0  0
  183.0430  177.1820  136.0530 N   0  0  0  0  0  2  0  0  0  0  0  0
  183.5290  176.7270  137.3480 C   0  0  2  0  0  3  0  0  0  0  0  0
  185.1100  176.0380  135.6550 C   0  0  2  0  0  3  0  0  0  0  0  0
  183.5720  177.8870  138.3290 C   0  0  0  0  0  2  0  0  0  0  0  0
  182.3080  178.6080  138.3170 N   0  0  0  0  0  0  0  0  0  0  0  0
  182.6070  179.9740  138.7060 C   0  0  0  0  0  1  0  0  0  0  0  0
  181.4870  178.0480  139.3760 C   0  0  0  0  0  1  0  0  0  0  0  0
  183.2460  171.9880  136.9620 C   0  0  0  0  0  1  0  0  0  0  0  0
  184.0610  171.2370  136.0210 N   0  0  0  0  0  0  0  0  0  0  0  0
  183.2310  170.5030  135.2370 O   0  0  0  0  0  1  0  0  0  0  0  0
  1  3  1  0  0  0  0
  1  4  1  0  0  0  0
  2  6  1  1  0  0  0
  3  5  1  0  0  0  0
  4 30  1  6  0  0  0
  4  2  1  0  0  0  0
  5  2  1  0  0  0  0
  6  7  1  0  0  0  0
  7  8  1  0  0  0  0
  8  9  1  0  0  0  0
  9 10  1  0  0  0  0
 10 11  1  0  0  0  0
 11 13  1  0  0  0  0
 13 14  1  0  0  0  0
 13 12  1  0  0  0  0
 15 13  1  0  0  0  0
 15 16  1  0  0  0  0
 16 17  1  1  0  0  0
 18 28  1  6  0  0  0
 18 16  1  0  0  0  0
 18 27  1  0  0  0  0
 20 23  1  6  0  0  0
 20 22  1  0  0  0  0
 20 24  1  0  0  0  0
 22 21  1  6  0  0  0
 22 24  1  0  0  0  0
 22 19  1  0  0  0  0
 24 18  1  1  0  0  0
 25 26  1  0  0  0  0
 27 25  1  0  0  0  0
 27 26  1  0  0  0  0
 29 28  1  0  0  0  0
 30 36  1  6  0  0  0
 31 33  1  0  0  0  0
 31 30  1  0  0  0  0
 33 32  1  1  0  0  0
 33 34  1  0  0  0  0
 34 35  1  0  0  0  0
 38 41  1  0  0  0  0
 38 54  1  1  0  0  0
 39 37  1  1  0  0  0
 39 38  1  0  0  0  0
 39 42  1  0  0  0  0
 40 41  1  1  0  0  0
 40 48  1  0  0  0  0
 40 43  1  0  0  0  0
 43 36  1  6  0  0  0
 43 42  1  0  0  0  0
 44 47  1  0  0  0  0
 45 46  1  0  0  0  0
 46 47  1  0  0  0  0
 47 49  1  1  0  0  0
 48 45  1  6  0  0  0
 48 44  1  0  0  0  0
 50 49  1  0  0  0  0
 50 51  1  0  0  0  0
 50 52  1  0  0  0  0
 54 53  1  0  0  0  0
 55 54  1  0  0  0  0
M  END
>  <MODEL>
9

>  <REMARK>
 VINA RESULT:      -4.1      4.189      9.906
  Name = 
  23 active torsions:
  status: ('A' for Active; 'I' for Inactive)
    1  A    between atoms: C_1  and  C_21
    2  A    between atoms: C_1  and  O_29
    3  A    between atoms: C_1  and  C_38
    4  A    between atoms: C_1  and  C_53
    5  A    between atoms: C_2  and  C_19
    6  A    between atoms: C_2  and  C_28
    7  A    between atoms: C_2  and  C_44
    8  A    between atoms: C_4  and  C_40
    9  A    between atoms: C_8  and  C_20
   10  A    between atoms: C_8  and  O_43
   11  A    between atoms: N_10  and  C_32
   12  A    between atoms: C_16  and  N_17
   13  A    between atoms: C_19  and  C_40
   14  A    between atoms: C_20  and  C_42
   15  A    between atoms: C_21  and  C_42
   16  A    between atoms: C_27  and  C_31
   17  A    between atoms: C_28  and  C_49
   18  A    between atoms: C_31  and  C_54
   19  A    between atoms: C_32  and  C_48
   20  A    between atoms: C_33  and  C_52
   21  A    between atoms: S_35  and  O_43
   22  A    between atoms: S_35  and  C_51
   23  A    between atoms: C_51  and  C_54
                            x       y       z     vdW  Elec       q    Type
                         _______ _______ _______ _____ _____    ______ ____

>  <TORSDO>
F 23

$$$$
