=
 OpenBabel11052414023D

 34 38  0  0  1  0  0  0  0  0999 V2000
  187.2370  176.8370  137.6190 C   0  0  0  0  0  0  0  0  0  0  0  0
  185.5020  175.6010  136.2590 C   0  0  0  0  0  0  0  0  0  0  0  0
  181.5050  175.3200  137.9550 C   0  0  0  0  0  0  0  0  0  0  0  0
  184.9240  177.6220  137.6230 C   0  0  0  0  0  0  0  0  0  0  0  0
  181.9960  178.9050  138.2950 C   0  0  0  0  0  2  0  0  0  0  0  0
  188.9440  178.0050  139.0410 C   0  0  0  0  0  1  0  0  0  0  0  0
  186.3470  174.8500  135.7010 O   0  0  0  0  0  0  0  0  0  0  0  0
  183.3740  176.7020  135.7860 C   0  0  0  0  0  2  0  0  0  0  0  0
  181.6130  171.8990  137.2840 C   0  0  0  0  0  1  0  0  0  0  0  0
  181.3800  174.3220  136.9280 N   0  0  0  0  0  0  0  0  0  0  0  0
  182.3190  173.1970  136.9360 C   0  0  2  0  0  3  0  0  0  0  0  0
  185.9110  176.7080  137.1650 C   0  0  0  0  0  0  0  0  0  0  0  0
  181.8360  174.9810  139.1230 O   0  0  0  0  0  0  0  0  0  0  0  0
  182.4850  177.5500  138.0390 N   0  0  1  0  0  0  0  0  0  0  0  0
  188.2380  175.9780  137.1700 O   0  0  0  0  0  1  0  0  0  0  0  0
  183.6540  174.3490  135.0160 C   0  0  0  0  0  2  0  0  0  0  0  0
  185.2780  178.5560  138.6300 C   0  0  0  0  0  0  0  0  0  0  0  0
  187.5510  177.8380  138.5410 C   0  0  0  0  0  0  0  0  0  0  0  0
  184.0370  175.3730  136.0760 C   0  0  1  0  0  3  0  0  0  0  0  0
  183.1230  179.9280  138.5330 C   0  0  0  0  0  2  0  0  0  0  0  0
  184.2710  179.3910  139.4010 C   0  0  1  0  0  3  0  0  0  0  0  0
  181.3070  176.7710  137.6410 C   0  0  0  0  0  2  0  0  0  0  0  0
  183.5310  177.6350  136.9990 C   0  0  1  0  0  3  0  0  0  0  0  0
  186.5740  178.6380  139.0350 N   0  0  0  0  0  0  0  0  0  0  0  0
  183.0990  173.0490  135.6190 C   0  0  0  0  0  2  0  0  0  0  0  0
  184.1950  178.2710  143.1150 C   0  0  1  0  0  3  0  0  0  0  0  0
  183.0240  178.9750  143.4550 O   0  0  0  0  0  0  0  0  0  0  0  0
  183.7870  178.7090  140.6950 C   0  0  1  0  0  3  0  0  0  0  0  0
  182.0560  178.6460  142.4890 C   0  0  0  0  0  2  0  0  0  0  0  0
  184.7980  178.8520  141.8370 C   0  0  0  0  0  2  0  0  0  0  0  0
  182.4320  179.2660  141.1420 C   0  0  0  0  0  2  0  0  0  0  0  0
  185.1990  178.3870  144.2430 C   0  0  0  0  0  1  0  0  0  0  0  0
  178.9310  174.2250  136.7610 C   0  0  0  0  0  1  0  0  0  0  0  0
  180.2440  174.3330  136.0080 C   0  0  0  0  0  2  0  0  0  0  0  0
  1 18  1  0  0  0  0
  2 12  1  0  0  0  0
  3 13  2  0  0  0  0
  4 17  2  0  0  0  0
  5 20  1  0  0  0  0
  7  2  2  0  0  0  0
  8 19  1  0  0  0  0
 10 11  1  0  0  0  0
 10  3  1  0  0  0  0
 11  9  1  6  0  0  0
 12  1  2  0  0  0  0
 12  4  1  0  0  0  0
 14 22  1  6  0  0  0
 14  5  1  0  0  0  0
 15  1  1  0  0  0  0
 16 25  1  0  0  0  0
 17 24  1  0  0  0  0
 17 21  1  0  0  0  0
 18 24  2  0  0  0  0
 18  6  1  0  0  0  0
 19 16  1  6  0  0  0
 19  2  1  0  0  0  0
 21 20  1  6  0  0  0
 21 28  1  0  0  0  0
 22  3  1  0  0  0  0
 23  8  1  6  0  0  0
 23  4  1  0  0  0  0
 23 14  1  0  0  0  0
 25 11  1  0  0  0  0
 26 27  1  0  0  0  0
 26 32  1  1  0  0  0
 28 31  1  1  0  0  0
 28 30  1  0  0  0  0
 29 27  1  0  0  0  0
 30 26  1  0  0  0  0
 31 29  1  0  0  0  0
 34 33  1  0  0  0  0
 34 10  1  0  0  0  0
M  END
>  <MODEL>
1

>  <REMARK>
 VINA RESULT:      -6.6      0.000      0.000
  Name = 
  2 active torsions:
  status: ('A' for Active; 'I' for Inactive)
    1  A    between atoms: C_12  and  C_28
    2  A    between atoms: N_13  and  C_33
                            x       y       z     vdW  Elec       q    Type
                         _______ _______ _______ _____ _____    ______ ____

>  <TORSDO>
F 2

$$$$
=
 OpenBabel11052414023D

 34 38  0  0  1  0  0  0  0  0999 V2000
  184.3550  178.6670  142.0920 C   0  0  0  0  0  0  0  0  0  0  0  0
  186.0510  178.5300  140.2240 C   0  0  0  0  0  0  0  0  0  0  0  0
  185.0310  176.0200  136.8190 C   0  0  0  0  0  0  0  0  0  0  0  0
  183.5850  178.5200  139.7790 C   0  0  0  0  0  0  0  0  0  0  0  0
  181.9820  177.9930  136.9820 C   0  0  0  0  0  2  0  0  0  0  0  0
  182.6740  178.7090  143.9560 C   0  0  0  0  0  1  0  0  0  0  0  0
  187.0350  178.7370  140.9840 O   0  0  0  0  0  0  0  0  0  0  0  0
  185.3230  178.9820  137.9380 C   0  0  0  0  0  2  0  0  0  0  0  0
  188.1800  174.5540  137.1350 C   0  0  0  0  0  1  0  0  0  0  0  0
  186.4350  176.1890  136.5570 N   0  0  0  0  0  0  0  0  0  0  0  0
  187.3880  175.7680  137.5870 C   0  0  2  0  0  3  0  0  0  0  0  0
  184.6490  178.5920  140.7180 C   0  0  0  0  0  0  0  0  0  0  0  0
  184.6280  175.0130  137.4600 O   0  0  0  0  0  0  0  0  0  0  0  0
  183.2520  177.5220  137.5390 N   0  0  1  0  0  0  0  0  0  0  0  0
  185.3700  178.7680  143.0410 O   0  0  0  0  0  1  0  0  0  0  0  0
  187.6840  178.2630  138.2770 C   0  0  0  0  0  2  0  0  0  0  0  0
  182.2580  178.3890  140.2640 C   0  0  0  0  0  0  0  0  0  0  0  0
  183.0230  178.6300  142.5110 C   0  0  0  0  0  0  0  0  0  0  0  0
  186.2560  178.1530  138.7930 C   0  0  1  0  0  3  0  0  0  0  0  0
  181.0870  178.7060  138.0130 C   0  0  0  0  0  2  0  0  0  0  0  0
  181.0710  178.0260  139.3900 C   0  0  1  0  0  3  0  0  0  0  0  0
  184.0420  177.0610  136.3920 C   0  0  0  0  0  2  0  0  0  0  0  0
  183.8630  178.6410  138.2830 C   0  0  1  0  0  3  0  0  0  0  0  0
  182.0290  178.4650  141.6020 N   0  0  0  0  0  0  0  0  0  0  0  0
  188.3350  176.8940  138.0330 C   0  0  0  0  0  2  0  0  0  0  0  0
  179.8740  174.4790  140.4150 C   0  0  1  0  0  3  0  0  0  0  0  0
  178.9310  174.3410  139.3800 O   0  0  0  0  0  0  0  0  0  0  0  0
  180.8200  176.5070  139.3160 C   0  0  1  0  0  3  0  0  0  0  0  0
  179.5930  174.6580  138.1800 C   0  0  0  0  0  2  0  0  0  0  0  0
  180.2170  175.9560  140.6110 C   0  0  0  0  0  2  0  0  0  0  0  0
  179.9060  176.1540  138.1370 C   0  0  0  0  0  2  0  0  0  0  0  0
  179.3000  173.9220  141.7010 C   0  0  0  0  0  1  0  0  0  0  0  0
  186.8170  178.1090  135.0730 C   0  0  0  0  0  1  0  0  0  0  0  0
  186.9050  176.6030  135.2360 C   0  0  0  0  0  2  0  0  0  0  0  0
  1 18  1  0  0  0  0
  1 15  1  0  0  0  0
  2 12  1  0  0  0  0
  2  7  2  0  0  0  0
  3 13  2  0  0  0  0
  4 17  2  0  0  0  0
  4 12  1  0  0  0  0
  5 14  1  0  0  0  0
  5 20  1  0  0  0  0
 10  3  1  0  0  0  0
 10 11  1  0  0  0  0
 11  9  1  6  0  0  0
 11 25  1  0  0  0  0
 12  1  2  0  0  0  0
 14 22  1  6  0  0  0
 14 23  1  0  0  0  0
 16 19  1  0  0  0  0
 17 24  1  0  0  0  0
 18  6  1  0  0  0  0
 19  8  1  6  0  0  0
 19  2  1  0  0  0  0
 21 20  1  6  0  0  0
 21 17  1  0  0  0  0
 22  3  1  0  0  0  0
 23  8  1  1  0  0  0
 23  4  1  0  0  0  0
 24 18  2  0  0  0  0
 25 16  1  0  0  0  0
 26 30  1  0  0  0  0
 26 32  1  1  0  0  0
 27 26  1  0  0  0  0
 28 31  1  6  0  0  0
 28 21  1  0  0  0  0
 28 30  1  0  0  0  0
 29 27  1  0  0  0  0
 31 29  1  0  0  0  0
 33 34  1  0  0  0  0
 34 10  1  0  0  0  0
M  END
>  <MODEL>
2

>  <REMARK>
 VINA RESULT:      -5.7      2.166      5.445
  Name = 
  2 active torsions:
  status: ('A' for Active; 'I' for Inactive)
    1  A    between atoms: C_12  and  C_28
    2  A    between atoms: N_13  and  C_33
                            x       y       z     vdW  Elec       q    Type
                         _______ _______ _______ _____ _____    ______ ____

>  <TORSDO>
F 2

$$$$
=
 OpenBabel11052414023D

 34 38  0  0  1  0  0  0  0  0999 V2000
  189.9560  174.5150  137.0280 C   0  0  0  0  0  0  0  0  0  0  0  0
  188.1420  173.2370  135.8190 C   0  0  0  0  0  0  0  0  0  0  0  0
  184.0290  174.3730  136.6730 C   0  0  0  0  0  0  0  0  0  0  0  0
  187.9350  175.6850  136.3140 C   0  0  0  0  0  0  0  0  0  0  0  0
  185.3690  177.6700  135.9320 C   0  0  0  0  0  2  0  0  0  0  0  0
  191.7180  175.7580  138.3120 C   0  0  0  0  0  1  0  0  0  0  0  0
  188.8300  172.1860  135.7150 O   0  0  0  0  0  0  0  0  0  0  0  0
  186.4360  174.4870  134.5980 C   0  0  0  0  0  2  0  0  0  0  0  0
  183.3480  170.9900  137.1750 C   0  0  0  0  0  1  0  0  0  0  0  0
  183.7810  173.1170  136.0190 N   0  0  0  0  0  0  0  0  0  0  0  0
  184.3960  171.9110  136.5770 C   0  0  2  0  0  3  0  0  0  0  0  0
  188.7050  174.4930  136.3830 C   0  0  0  0  0  0  0  0  0  0  0  0
  184.1200  174.4200  137.9280 O   0  0  0  0  0  0  0  0  0  0  0  0
  185.5250  176.2450  136.2300 N   0  0  1  0  0  0  0  0  0  0  0  0
  190.7530  173.3740  137.0910 O   0  0  0  0  0  1  0  0  0  0  0  0
  186.2010  172.0090  134.7000 C   0  0  0  0  0  2  0  0  0  0  0  0
  188.3900  176.8310  137.0160 C   0  0  0  0  0  0  0  0  0  0  0  0
  190.4000  175.6980  137.6230 C   0  0  0  0  0  0  0  0  0  0  0  0
  186.7000  173.2500  135.4280 C   0  0  1  0  0  3  0  0  0  0  0  0
  186.6810  178.4690  136.0500 C   0  0  0  0  0  2  0  0  0  0  0  0
  187.5420  178.0660  137.2570 C   0  0  1  0  0  3  0  0  0  0  0  0
  184.2450  175.6230  135.8750 C   0  0  0  0  0  2  0  0  0  0  0  0
  186.6770  175.7450  135.4520 C   0  0  1  0  0  3  0  0  0  0  0  0
  189.6050  176.7970  137.6250 N   0  0  0  0  0  0  0  0  0  0  0  0
  185.2660  171.1490  135.5640 C   0  0  0  0  0  2  0  0  0  0  0  0
  186.7620  178.3130  141.0500 C   0  0  1  0  0  3  0  0  0  0  0  0
  185.8330  179.3650  140.9390 O   0  0  0  0  0  0  0  0  0  0  0  0
  186.7480  178.0050  138.5760 C   0  0  1  0  0  3  0  0  0  0  0  0
  184.9110  178.9910  139.9440 C   0  0  0  0  0  2  0  0  0  0  0  0
  187.6360  178.2580  139.7980 C   0  0  0  0  0  2  0  0  0  0  0  0
  185.5890  179.0070  138.5730 C   0  0  0  0  0  2  0  0  0  0  0  0
  187.6370  178.5390  142.2650 C   0  0  0  0  0  1  0  0  0  0  0  0
  181.4400  173.5040  135.3850 C   0  0  0  0  0  1  0  0  0  0  0  0
  182.8040  173.0180  134.9350 C   0  0  0  0  0  2  0  0  0  0  0  0
  1 15  1  0  0  0  0
  1 18  1  0  0  0  0
  2 12  1  0  0  0  0
  3 13  2  0  0  0  0
  4 12  1  0  0  0  0
  4 17  2  0  0  0  0
  5 20  1  0  0  0  0
  5 14  1  0  0  0  0
  7  2  2  0  0  0  0
 10 11  1  0  0  0  0
 10  3  1  0  0  0  0
 11  9  1  6  0  0  0
 12  1  2  0  0  0  0
 14 22  1  6  0  0  0
 16 19  1  0  0  0  0
 16 25  1  0  0  0  0
 17 21  1  0  0  0  0
 17 24  1  0  0  0  0
 18 24  2  0  0  0  0
 18  6  1  0  0  0  0
 19  8  1  6  0  0  0
 19  2  1  0  0  0  0
 21 20  1  6  0  0  0
 21 28  1  0  0  0  0
 22  3  1  0  0  0  0
 23  8  1  1  0  0  0
 23 14  1  0  0  0  0
 23  4  1  0  0  0  0
 25 11  1  0  0  0  0
 26 32  1  1  0  0  0
 27 26  1  0  0  0  0
 28 31  1  6  0  0  0
 28 30  1  0  0  0  0
 29 27  1  0  0  0  0
 30 26  1  0  0  0  0
 31 29  1  0  0  0  0
 34 33  1  0  0  0  0
 34 10  1  0  0  0  0
M  END
>  <MODEL>
3

>  <REMARK>
 VINA RESULT:      -5.4      2.546      3.553
  Name = 
  2 active torsions:
  status: ('A' for Active; 'I' for Inactive)
    1  A    between atoms: C_12  and  C_28
    2  A    between atoms: N_13  and  C_33
                            x       y       z     vdW  Elec       q    Type
                         _______ _______ _______ _____ _____    ______ ____

>  <TORSDO>
F 2

$$$$
=
 OpenBabel11052414023D

 34 38  0  0  1  0  0  0  0  0999 V2000
  184.7840  178.2090  140.1480 C   0  0  0  0  0  0  0  0  0  0  0  0
  187.1790  178.2630  139.3420 C   0  0  0  0  0  0  0  0  0  0  0  0
  188.2140  175.5940  136.0650 C   0  0  0  0  0  0  0  0  0  0  0  0
  185.2570  177.9310  137.7680 C   0  0  0  0  0  0  0  0  0  0  0  0
  185.2830  177.1620  134.5940 C   0  0  0  0  0  2  0  0  0  0  0  0
  182.4160  178.0630  140.9660 C   0  0  0  0  0  1  0  0  0  0  0  0
  187.6410  178.6060  140.4640 O   0  0  0  0  0  0  0  0  0  0  0  0
  187.6120  178.5850  136.9610 C   0  0  0  0  0  2  0  0  0  0  0  0
  190.9450  174.5490  137.9660 C   0  0  0  0  0  1  0  0  0  0  0  0
  189.5410  175.9370  136.4990 N   0  0  0  0  0  0  0  0  0  0  0  0
  189.9110  175.6570  137.8880 C   0  0  2  0  0  3  0  0  0  0  0  0
  185.7160  178.1520  139.0950 C   0  0  0  0  0  0  0  0  0  0  0  0
  187.6580  174.5530  136.5080 O   0  0  0  0  0  0  0  0  0  0  0  0
  186.1620  176.8650  135.7260 N   0  0  1  0  0  0  0  0  0  0  0  0
  185.1930  178.4540  141.4580 O   0  0  0  0  0  1  0  0  0  0  0  0
  189.5700  178.1800  138.4460 C   0  0  0  0  0  2  0  0  0  0  0  0
  183.8840  177.6380  137.5640 C   0  0  0  0  0  0  0  0  0  0  0  0
  183.4290  178.0070  139.8760 C   0  0  0  0  0  0  0  0  0  0  0  0
  188.0920  177.8950  138.2190 C   0  0  1  0  0  3  0  0  0  0  0  0
  183.9300  177.7690  135.0110 C   0  0  0  0  0  2  0  0  0  0  0  0
  183.3180  177.1130  136.2570 C   0  0  1  0  0  3  0  0  0  0  0  0
  187.4540  176.4930  135.1380 C   0  0  0  0  0  2  0  0  0  0  0  0
  186.2130  178.0650  136.5860 C   0  0  1  0  0  3  0  0  0  0  0  0
  183.0270  177.7040  138.6170 N   0  0  0  0  0  0  0  0  0  0  0  0
  190.3980  176.9010  138.6490 C   0  0  0  0  0  2  0  0  0  0  0  0
  184.1700  173.4170  137.0790 C   0  0  1  0  0  3  0  0  0  0  0  0
  182.8860  173.0730  137.5430 O   0  0  0  0  0  0  0  0  0  0  0  0
  183.2950  175.5740  136.1850 C   0  0  1  0  0  3  0  0  0  0  0  0
  181.9710  173.4950  136.5610 C   0  0  0  0  0  2  0  0  0  0  0  0
  184.3410  174.9350  137.1050 C   0  0  0  0  0  2  0  0  0  0  0  0
  181.9080  175.0220  136.5300 C   0  0  0  0  0  2  0  0  0  0  0  0
  185.2160  172.7790  137.9680 C   0  0  0  0  0  1  0  0  0  0  0  0
  190.9730  175.2580  134.6230 C   0  0  0  0  0  1  0  0  0  0  0  0
  190.5480  176.3890  135.5400 C   0  0  0  0  0  2  0  0  0  0  0  0
  1 15  1  0  0  0  0
  2  7  2  0  0  0  0
  3 10  1  0  0  0  0
  3 13  2  0  0  0  0
  4 12  1  0  0  0  0
  5 20  1  0  0  0  0
 10 11  1  0  0  0  0
 11  9  1  6  0  0  0
 11 25  1  0  0  0  0
 12  2  1  0  0  0  0
 12  1  2  0  0  0  0
 14  5  1  6  0  0  0
 14 23  1  0  0  0  0
 16 25  1  0  0  0  0
 17  4  2  0  0  0  0
 17 24  1  0  0  0  0
 18  1  1  0  0  0  0
 18  6  1  0  0  0  0
 19  8  1  6  0  0  0
 19 16  1  0  0  0  0
 19  2  1  0  0  0  0
 21 20  1  6  0  0  0
 21 17  1  0  0  0  0
 22 14  1  0  0  0  0
 22  3  1  0  0  0  0
 23  8  1  1  0  0  0
 23  4  1  0  0  0  0
 24 18  2  0  0  0  0
 26 30  1  0  0  0  0
 26 27  1  0  0  0  0
 26 32  1  1  0  0  0
 28 21  1  0  0  0  0
 28 31  1  1  0  0  0
 28 30  1  0  0  0  0
 29 27  1  0  0  0  0
 31 29  1  0  0  0  0
 33 34  1  0  0  0  0
 34 10  1  0  0  0  0
M  END
>  <MODEL>
4

>  <REMARK>
 VINA RESULT:      -5.4      2.380      6.566
  Name = 
  2 active torsions:
  status: ('A' for Active; 'I' for Inactive)
    1  A    between atoms: C_12  and  C_28
    2  A    between atoms: N_13  and  C_33
                            x       y       z     vdW  Elec       q    Type
                         _______ _______ _______ _____ _____    ______ ____

>  <TORSDO>
F 2

$$$$
=
 OpenBabel11052414023D

 34 38  0  0  1  0  0  0  0  0999 V2000
  187.5810  177.7010  142.9350 C   0  0  0  0  0  0  0  0  0  0  0  0
  189.3040  177.4820  141.1000 C   0  0  0  0  0  0  0  0  0  0  0  0
  187.8700  176.2160  137.1920 C   0  0  0  0  0  0  0  0  0  0  0  0
  186.9830  178.3100  140.6470 C   0  0  0  0  0  0  0  0  0  0  0  0
  185.5180  178.9230  137.7920 C   0  0  0  0  0  2  0  0  0  0  0  0
  185.8450  177.8290  144.7440 C   0  0  0  0  0  1  0  0  0  0  0  0
  190.2450  177.2110  141.8950 O   0  0  0  0  0  0  0  0  0  0  0  0
  188.9180  178.6280  138.9790 C   0  0  0  0  0  2  0  0  0  0  0  0
  190.4260  173.8430  137.1780 C   0  0  0  0  0  1  0  0  0  0  0  0
  189.2780  176.0110  136.9880 N   0  0  0  0  0  0  0  0  0  0  0  0
  189.9850  175.1060  137.8970 C   0  0  2  0  0  3  0  0  0  0  0  0
  187.9470  177.8500  141.5840 C   0  0  0  0  0  0  0  0  0  0  0  0
  187.1440  175.2600  137.5750 O   0  0  0  0  0  0  0  0  0  0  0  0
  186.5500  177.9820  138.2320 N   0  0  1  0  0  0  0  0  0  0  0  0
  188.5060  177.2810  143.8890 O   0  0  0  0  0  1  0  0  0  0  0  0
  190.9360  177.1790  139.1580 C   0  0  0  0  0  2  0  0  0  0  0  0
  185.6420  178.4780  141.0770 C   0  0  0  0  0  0  0  0  0  0  0  0
  186.2670  177.9730  143.3230 C   0  0  0  0  0  0  0  0  0  0  0  0
  189.5010  177.3890  139.6220 C   0  0  1  0  0  3  0  0  0  0  0  0
  184.7910  179.6230  138.9550 C   0  0  0  0  0  2  0  0  0  0  0  0
  184.4720  178.6910  140.1330 C   0  0  1  0  0  3  0  0  0  0  0  0
  187.2590  177.5730  137.0150 C   0  0  0  0  0  2  0  0  0  0  0  0
  187.3990  178.6720  139.2230 C   0  0  1  0  0  3  0  0  0  0  0  0
  185.3420  178.3190  142.3930 N   0  0  0  0  0  0  0  0  0  0  0  0
  191.1810  175.7680  138.6020 C   0  0  0  0  0  2  0  0  0  0  0  0
  181.7440  175.9610  139.7210 C   0  0  1  0  0  3  0  0  0  0  0  0
  181.6340  176.0770  138.3220 O   0  0  0  0  0  0  0  0  0  0  0  0
  183.7980  177.3730  139.7010 C   0  0  1  0  0  3  0  0  0  0  0  0
  182.9390  176.0030  137.8040 C   0  0  0  0  0  2  0  0  0  0  0  0
  182.3960  177.2180  140.2970 C   0  0  0  0  0  2  0  0  0  0  0  0
  183.7200  177.2650  138.1750 C   0  0  0  0  0  2  0  0  0  0  0  0
  180.3660  175.7890  140.3240 C   0  0  0  0  0  1  0  0  0  0  0  0
  189.7070  175.6670  134.5940 C   0  0  0  0  0  1  0  0  0  0  0  0
  189.9490  176.5480  135.8050 C   0  0  0  0  0  2  0  0  0  0  0  0
  1 18  1  0  0  0  0
  1 15  1  0  0  0  0
  2 12  1  0  0  0  0
  2  7  2  0  0  0  0
  3 13  2  0  0  0  0
  4 17  2  0  0  0  0
  4 12  1  0  0  0  0
  5 14  1  0  0  0  0
  5 20  1  0  0  0  0
 10  3  1  0  0  0  0
 10 11  1  0  0  0  0
 11  9  1  6  0  0  0
 11 25  1  0  0  0  0
 12  1  2  0  0  0  0
 14 22  1  6  0  0  0
 14 23  1  0  0  0  0
 16 19  1  0  0  0  0
 17 24  1  0  0  0  0
 18  6  1  0  0  0  0
 19  8  1  6  0  0  0
 19  2  1  0  0  0  0
 21 20  1  6  0  0  0
 21 17  1  0  0  0  0
 22  3  1  0  0  0  0
 23  8  1  6  0  0  0
 23  4  1  0  0  0  0
 24 18  2  0  0  0  0
 25 16  1  0  0  0  0
 26 30  1  0  0  0  0
 26 32  1  1  0  0  0
 27 26  1  0  0  0  0
 28 31  1  6  0  0  0
 28 21  1  0  0  0  0
 28 30  1  0  0  0  0
 29 31  1  0  0  0  0
 29 27  1  0  0  0  0
 33 34  1  0  0  0  0
 34 10  1  0  0  0  0
M  END
>  <MODEL>
5

>  <REMARK>
 VINA RESULT:      -5.3      2.678      6.208
  Name = 
  2 active torsions:
  status: ('A' for Active; 'I' for Inactive)
    1  A    between atoms: C_12  and  C_28
    2  A    between atoms: N_13  and  C_33
                            x       y       z     vdW  Elec       q    Type
                         _______ _______ _______ _____ _____    ______ ____

>  <TORSDO>
F 2

$$$$
=
 OpenBabel11052414023D

 34 38  0  0  1  0  0  0  0  0999 V2000
  185.0070  177.5310  137.8240 C   0  0  0  0  0  0  0  0  0  0  0  0
  186.7960  178.3280  139.4200 C   0  0  0  0  0  0  0  0  0  0  0  0
  190.6820  176.3890  139.1500 C   0  0  0  0  0  0  0  0  0  0  0  0
  187.3290  177.6310  137.0720 C   0  0  0  0  0  0  0  0  0  0  0  0
  190.2340  177.2170  135.6380 C   0  0  0  0  0  2  0  0  0  0  0  0
  183.2400  176.6510  136.2720 C   0  0  0  0  0  1  0  0  0  0  0  0
  185.9720  178.6740  140.3100 O   0  0  0  0  0  0  0  0  0  0  0  0
  188.9670  178.9910  138.5190 C   0  0  0  0  0  2  0  0  0  0  0  0
  190.5540  175.9630  142.6090 C   0  0  0  0  0  1  0  0  0  0  0  0
  190.8490  177.0440  140.4190 N   0  0  0  0  0  0  0  0  0  0  0  0
  189.8920  176.7410  141.4860 C   0  0  2  0  0  3  0  0  0  0  0  0
  186.3550  177.8400  138.0860 C   0  0  0  0  0  0  0  0  0  0  0  0
  190.2780  175.1970  139.1060 O   0  0  0  0  0  0  0  0  0  0  0  0
  189.7370  177.0670  137.0070 N   0  0  1  0  0  0  0  0  0  0  0  0
  184.0190  177.7490  138.7820 O   0  0  0  0  0  1  0  0  0  0  0  0
  188.6920  179.0020  140.9950 C   0  0  0  0  0  2  0  0  0  0  0  0
  186.9330  176.9900  135.8710 C   0  0  0  0  0  0  0  0  0  0  0  0
  184.6570  176.9880  136.5850 C   0  0  0  0  0  0  0  0  0  0  0  0
  188.2650  178.3410  139.6910 C   0  0  1  0  0  3  0  0  0  0  0  0
  189.1130  177.3800  134.5940 C   0  0  0  0  0  2  0  0  0  0  0  0
  187.9070  176.4600  134.8350 C   0  0  1  0  0  3  0  0  0  0  0  0
  190.9230  177.1280  137.8690 C   0  0  0  0  0  2  0  0  0  0  0  0
  188.7550  178.1420  137.2530 C   0  0  1  0  0  3  0  0  0  0  0  0
  185.6170  176.7100  135.6690 N   0  0  0  0  0  0  0  0  0  0  0  0
  189.1880  177.9910  142.0400 C   0  0  0  0  0  2  0  0  0  0  0  0
  190.1210  173.2850  135.1170 C   0  0  1  0  0  3  0  0  0  0  0  0
  189.9420  173.1060  136.5020 O   0  0  0  0  0  0  0  0  0  0  0  0
  188.3030  174.9900  135.0760 C   0  0  1  0  0  3  0  0  0  0  0  0
  188.5580  173.1530  136.7430 C   0  0  0  0  0  2  0  0  0  0  0  0
  189.7700  174.7210  134.7290 C   0  0  0  0  0  2  0  0  0  0  0  0
  188.0380  174.5750  136.5270 C   0  0  0  0  0  2  0  0  0  0  0  0
  191.5650  173.0050  134.7540 C   0  0  0  0  0  1  0  0  0  0  0  0
  193.2950  177.1500  140.2140 C   0  0  0  0  0  1  0  0  0  0  0  0
  192.0370  177.8500  140.6940 C   0  0  0  0  0  2  0  0  0  0  0  0
  1 12  1  0  0  0  0
  1 15  1  0  0  0  0
  2 19  1  0  0  0  0
  2  7  2  0  0  0  0
  3 10  1  0  0  0  0
  4 23  1  0  0  0  0
  4 12  2  0  0  0  0
  6 18  1  0  0  0  0
 10 34  1  0  0  0  0
 10 11  1  0  0  0  0
 11 25  1  0  0  0  0
 11  9  1  1  0  0  0
 12  2  1  0  0  0  0
 13  3  2  0  0  0  0
 14  5  1  6  0  0  0
 14 23  1  0  0  0  0
 14 22  1  0  0  0  0
 16 25  1  0  0  0  0
 17  4  1  0  0  0  0
 18  1  2  0  0  0  0
 19  8  1  6  0  0  0
 19 16  1  0  0  0  0
 20  5  1  0  0  0  0
 21 20  1  1  0  0  0
 21 28  1  0  0  0  0
 21 17  1  0  0  0  0
 22  3  1  0  0  0  0
 23  8  1  1  0  0  0
 24 17  2  0  0  0  0
 24 18  1  0  0  0  0
 26 32  1  1  0  0  0
 26 27  1  0  0  0  0
 27 29  1  0  0  0  0
 28 30  1  1  0  0  0
 28 31  1  0  0  0  0
 30 26  1  0  0  0  0
 31 29  1  0  0  0  0
 33 34  1  0  0  0  0
M  END
>  <MODEL>
6

>  <REMARK>
 VINA RESULT:      -5.1      3.351      8.460
  Name = 
  2 active torsions:
  status: ('A' for Active; 'I' for Inactive)
    1  A    between atoms: C_12  and  C_28
    2  A    between atoms: N_13  and  C_33
                            x       y       z     vdW  Elec       q    Type
                         _______ _______ _______ _____ _____    ______ ____

>  <TORSDO>
F 2

$$$$
=
 OpenBabel11052414023D

 34 38  0  0  1  0  0  0  0  0999 V2000
  186.2110  173.6120  137.3250 C   0  0  0  0  0  0  0  0  0  0  0  0
  184.2140  175.1080  137.7230 C   0  0  0  0  0  0  0  0  0  0  0  0
  185.0160  179.0890  139.2870 C   0  0  0  0  0  0  0  0  0  0  0  0
  186.4020  176.0100  136.8990 C   0  0  0  0  0  0  0  0  0  0  0  0
  187.3530  179.1100  136.5020 C   0  0  0  0  0  2  0  0  0  0  0  0
  188.2190  172.1370  137.0200 C   0  0  0  0  0  1  0  0  0  0  0  0
  183.4270  174.1480  137.9420 O   0  0  0  0  0  0  0  0  0  0  0  0
  184.2080  177.3480  136.7510 C   0  0  0  0  0  2  0  0  0  0  0  0
  182.5640  178.4850  141.6930 C   0  0  0  0  0  1  0  0  0  0  0  0
  183.6000  179.0370  139.5300 N   0  0  0  0  0  0  0  0  0  0  0  0
  183.0800  177.9530  140.3680 C   0  0  2  0  0  3  0  0  0  0  0  0
  185.6210  174.8900  137.2950 C   0  0  0  0  0  0  0  0  0  0  0  0
  185.8230  178.7590  140.1960 O   0  0  0  0  0  0  0  0  0  0  0  0
  186.4370  178.4290  137.4200 N   0  0  1  0  0  0  0  0  0  0  0  0
  185.4710  172.4870  137.6800 O   0  0  0  0  0  1  0  0  0  0  0  0
  182.2920  176.7190  138.2120 C   0  0  0  0  0  2  0  0  0  0  0  0
  187.7900  175.8260  136.6740 C   0  0  0  0  0  0  0  0  0  0  0  0
  187.5630  173.4740  137.0020 C   0  0  0  0  0  0  0  0  0  0  0  0
  183.7770  176.5200  137.9420 C   0  0  1  0  0  3  0  0  0  0  0  0
  188.2430  178.1440  135.6970 C   0  0  0  0  0  2  0  0  0  0  0  0
  188.7800  176.9660  136.5230 C   0  0  1  0  0  3  0  0  0  0  0  0
  185.5480  179.4740  137.9400 C   0  0  0  0  0  2  0  0  0  0  0  0
  185.7450  177.3670  136.6630 C   0  0  1  0  0  3  0  0  0  0  0  0
  188.3100  174.5700  136.7190 N   0  0  0  0  0  0  0  0  0  0  0  0
  182.0000  177.1120  139.6690 C   0  0  0  0  0  2  0  0  0  0  0  0
  189.2870  177.3610  140.3500 C   0  0  1  0  0  3  0  0  0  0  0  0
  190.4890  176.6300  140.4130 O   0  0  0  0  0  0  0  0  0  0  0  0
  189.4110  177.4000  137.8600 C   0  0  1  0  0  3  0  0  0  0  0  0
  191.3380  177.1590  139.4240 C   0  0  0  0  0  2  0  0  0  0  0  0
  188.5390  177.0210  139.0610 C   0  0  0  0  0  2  0  0  0  0  0  0
  190.8090  176.7980  138.0350 C   0  0  0  0  0  2  0  0  0  0  0  0
  188.4210  177.0100  141.5410 C   0  0  0  0  0  1  0  0  0  0  0  0
  181.9610  179.7560  137.8480 C   0  0  0  0  0  1  0  0  0  0  0  0
  182.7260  180.1290  139.1040 C   0  0  0  0  0  2  0  0  0  0  0  0
  1 15  1  0  0  0  0
  2 19  1  0  0  0  0
  2  7  2  0  0  0  0
  3 10  1  0  0  0  0
  3 13  2  0  0  0  0
  4 12  2  0  0  0  0
 10 11  1  0  0  0  0
 11  9  1  1  0  0  0
 12  1  1  0  0  0  0
 12  2  1  0  0  0  0
 14  5  1  6  0  0  0
 14 22  1  0  0  0  0
 16 25  1  0  0  0  0
 17 24  2  0  0  0  0
 17  4  1  0  0  0  0
 18  6  1  0  0  0  0
 18  1  2  0  0  0  0
 19  8  1  6  0  0  0
 19 16  1  0  0  0  0
 20  5  1  0  0  0  0
 21 20  1  1  0  0  0
 21 17  1  0  0  0  0
 21 28  1  0  0  0  0
 22  3  1  0  0  0  0
 23  8  1  1  0  0  0
 23  4  1  0  0  0  0
 23 14  1  0  0  0  0
 24 18  1  0  0  0  0
 25 11  1  0  0  0  0
 26 27  1  0  0  0  0
 26 32  1  1  0  0  0
 28 31  1  1  0  0  0
 28 30  1  0  0  0  0
 29 27  1  0  0  0  0
 30 26  1  0  0  0  0
 31 29  1  0  0  0  0
 33 34  1  0  0  0  0
 34 10  1  0  0  0  0
M  END
>  <MODEL>
7

>  <REMARK>
 VINA RESULT:      -5.0      2.522      5.500
  Name = 
  2 active torsions:
  status: ('A' for Active; 'I' for Inactive)
    1  A    between atoms: C_12  and  C_28
    2  A    between atoms: N_13  and  C_33
                            x       y       z     vdW  Elec       q    Type
                         _______ _______ _______ _____ _____    ______ ____

>  <TORSDO>
F 2

$$$$
=
 OpenBabel11052414023D

 34 38  0  0  1  0  0  0  0  0999 V2000
  184.5660  178.1070  139.7630 C   0  0  0  0  0  0  0  0  0  0  0  0
  186.7380  178.6110  140.9540 C   0  0  0  0  0  0  0  0  0  0  0  0
  190.2910  176.5450  139.5250 C   0  0  0  0  0  0  0  0  0  0  0  0
  186.6450  178.1960  138.4840 C   0  0  0  0  0  0  0  0  0  0  0  0
  189.0890  177.8350  136.3460 C   0  0  0  0  0  2  0  0  0  0  0  0
  182.4220  177.5150  138.6010 C   0  0  0  0  0  1  0  0  0  0  0  0
  186.1760  178.8780  142.0510 O   0  0  0  0  0  0  0  0  0  0  0  0
  188.6770  179.2830  139.6310 C   0  0  0  0  0  2  0  0  0  0  0  0
  190.9540  175.6870  142.8400 C   0  0  0  0  0  1  0  0  0  0  0  0
  190.8030  177.0240  140.7810 N   0  0  0  0  0  0  0  0  0  0  0  0
  190.1060  176.6320  142.0080 C   0  0  2  0  0  3  0  0  0  0  0  0
  185.9580  178.3180  139.7220 C   0  0  0  0  0  0  0  0  0  0  0  0
  189.8000  175.3880  139.4480 O   0  0  0  0  0  0  0  0  0  0  0  0
  188.9200  177.5330  137.7690 N   0  0  1  0  0  0  0  0  0  0  0  0
  183.8530  178.2460  140.9520 O   0  0  0  0  0  1  0  0  0  0  0  0
  188.9980  178.9900  142.0830 C   0  0  0  0  0  2  0  0  0  0  0  0
  185.9290  177.7320  137.3510 C   0  0  0  0  0  0  0  0  0  0  0  0
  183.8930  177.7440  138.5950 C   0  0  0  0  0  0  0  0  0  0  0  0
  188.2260  178.5210  140.8580 C   0  0  1  0  0  3  0  0  0  0  0  0
  187.7680  178.1810  135.6330 C   0  0  0  0  0  2  0  0  0  0  0  0
  186.5880  177.2940  136.0550 C   0  0  1  0  0  3  0  0  0  0  0  0
  190.2780  177.4300  138.3160 C   0  0  0  0  0  2  0  0  0  0  0  0
  188.1090  178.6130  138.3670 C   0  0  1  0  0  3  0  0  0  0  0  0
  184.5860  177.5410  137.4460 N   0  0  0  0  0  0  0  0  0  0  0  0
  189.6500  177.8320  142.8550 C   0  0  0  0  0  2  0  0  0  0  0  0
  186.2650  173.4830  136.7140 C   0  0  1  0  0  3  0  0  0  0  0  0
  186.0750  173.1190  135.3670 O   0  0  0  0  0  0  0  0  0  0  0  0
  186.9170  175.7890  136.0250 C   0  0  1  0  0  3  0  0  0  0  0  0
  187.1070  173.7300  134.6310 C   0  0  0  0  0  2  0  0  0  0  0  0
  185.9610  174.9690  136.8980 C   0  0  0  0  0  2  0  0  0  0  0  0
  186.8940  175.2440  134.5940 C   0  0  0  0  0  2  0  0  0  0  0  0
  185.3380  172.6680  137.5920 C   0  0  0  0  0  1  0  0  0  0  0  0
  193.1200  177.0670  139.9660 C   0  0  0  0  0  1  0  0  0  0  0  0
  192.0800  177.7330  140.8470 C   0  0  0  0  0  2  0  0  0  0  0  0
  1 15  1  0  0  0  0
  2  7  2  0  0  0  0
  3 10  1  0  0  0  0
  4 12  2  0  0  0  0
 10 34  1  0  0  0  0
 10 11  1  0  0  0  0
 11  9  1  1  0  0  0
 11 25  1  0  0  0  0
 12  1  1  0  0  0  0
 12  2  1  0  0  0  0
 13  3  2  0  0  0  0
 14  5  1  6  0  0  0
 14 22  1  0  0  0  0
 14 23  1  0  0  0  0
 16 25  1  0  0  0  0
 17 24  2  0  0  0  0
 17  4  1  0  0  0  0
 18  6  1  0  0  0  0
 18  1  2  0  0  0  0
 19  8  1  6  0  0  0
 19  2  1  0  0  0  0
 19 16  1  0  0  0  0
 20  5  1  0  0  0  0
 21 20  1  1  0  0  0
 21 17  1  0  0  0  0
 22  3  1  0  0  0  0
 23  4  1  0  0  0  0
 23  8  1  1  0  0  0
 24 18  1  0  0  0  0
 26 30  1  0  0  0  0
 26 32  1  1  0  0  0
 27 26  1  0  0  0  0
 28 31  1  6  0  0  0
 28 21  1  0  0  0  0
 28 30  1  0  0  0  0
 29 27  1  0  0  0  0
 31 29  1  0  0  0  0
 33 34  1  0  0  0  0
M  END
>  <MODEL>
8

>  <REMARK>
 VINA RESULT:      -4.8      2.756      8.047
  Name = 
  2 active torsions:
  status: ('A' for Active; 'I' for Inactive)
    1  A    between atoms: C_12  and  C_28
    2  A    between atoms: N_13  and  C_33
                            x       y       z     vdW  Elec       q    Type
                         _______ _______ _______ _____ _____    ______ ____

>  <TORSDO>
F 2

$$$$
=
 OpenBabel11052414023D

 34 38  0  0  1  0  0  0  0  0999 V2000
  183.4360  177.7280  139.2610 C   0  0  0  0  0  0  0  0  0  0  0  0
  184.4050  178.5340  141.4510 C   0  0  0  0  0  0  0  0  0  0  0  0
  188.4410  177.2260  142.4190 C   0  0  0  0  0  0  0  0  0  0  0  0
  185.8150  178.2640  139.3970 C   0  0  0  0  0  0  0  0  0  0  0  0
  189.0570  178.4780  139.0620 C   0  0  0  0  0  2  0  0  0  0  0  0
  182.4880  176.8380  137.1140 C   0  0  0  0  0  1  0  0  0  0  0  0
  183.2810  178.6280  142.0150 O   0  0  0  0  0  0  0  0  0  0  0  0
  186.5910  179.6210  141.4420 C   0  0  0  0  0  2  0  0  0  0  0  0
  187.2360  176.2940  145.5560 C   0  0  0  0  0  1  0  0  0  0  0  0
  188.0480  177.7090  143.7150 N   0  0  0  0  0  0  0  0  0  0  0  0
  186.8600  177.1230  144.3410 C   0  0  2  0  0  3  0  0  0  0  0  0
  184.5360  178.1850  140.0110 C   0  0  0  0  0  0  0  0  0  0  0  0
  188.3010  176.0070  142.1330 O   0  0  0  0  0  0  0  0  0  0  0  0
  188.1650  178.0630  140.1460 N   0  0  1  0  0  0  0  0  0  0  0  0
  182.1610  177.6640  139.8190 O   0  0  0  0  0  1  0  0  0  0  0  0
  185.5020  179.2370  143.6490 C   0  0  0  0  0  2  0  0  0  0  0  0
  185.9720  177.7530  138.0830 C   0  0  0  0  0  0  0  0  0  0  0  0
  183.6300  177.3250  137.9370 C   0  0  0  0  0  0  0  0  0  0  0  0
  185.6680  178.7160  142.2280 C   0  0  1  0  0  3  0  0  0  0  0  0
  188.3440  178.6280  137.7050 C   0  0  0  0  0  2  0  0  0  0  0  0
  187.3180  177.5200  137.4220 C   0  0  1  0  0  3  0  0  0  0  0  0
  188.9590  178.1680  141.3750 C   0  0  0  0  0  2  0  0  0  0  0  0
  186.9780  178.9410  140.1160 C   0  0  1  0  0  3  0  0  0  0  0  0
  184.8760  177.3210  137.4030 N   0  0  0  0  0  0  0  0  0  0  0  0
  185.7940  178.1670  144.7120 C   0  0  0  0  0  2  0  0  0  0  0  0
  187.6220  173.6550  137.2590 C   0  0  1  0  0  3  0  0  0  0  0  0
  188.8340  173.6360  136.5410 O   0  0  0  0  0  0  0  0  0  0  0  0
  187.8720  176.1030  137.6620 C   0  0  1  0  0  3  0  0  0  0  0  0
  189.7210  174.4910  137.2190 C   0  0  0  0  0  2  0  0  0  0  0  0
  186.9480  175.0170  137.1010 C   0  0  0  0  0  2  0  0  0  0  0  0
  189.2710  175.9430  137.0580 C   0  0  0  0  0  2  0  0  0  0  0  0
  186.7040  172.5750  136.7280 C   0  0  0  0  0  1  0  0  0  0  0  0
  190.2690  178.0160  144.7160 C   0  0  0  0  0  1  0  0  0  0  0  0
  188.9040  178.6280  144.4630 C   0  0  0  0  0  2  0  0  0  0  0  0
  1 15  1  0  0  0  0
  1 12  1  0  0  0  0
  2  7  2  0  0  0  0
  2 19  1  0  0  0  0
  3 10  1  0  0  0  0
  4 12  2  0  0  0  0
  4 23  1  0  0  0  0
  6 18  1  0  0  0  0
 10 11  1  0  0  0  0
 10 34  1  0  0  0  0
 11 25  1  0  0  0  0
 11  9  1  1  0  0  0
 12  2  1  0  0  0  0
 13  3  2  0  0  0  0
 14  5  1  6  0  0  0
 14 22  1  0  0  0  0
 16 25  1  0  0  0  0
 17  4  1  0  0  0  0
 18  1  2  0  0  0  0
 19  8  1  6  0  0  0
 19 16  1  0  0  0  0
 20  5  1  0  0  0  0
 21 28  1  0  0  0  0
 21 20  1  1  0  0  0
 21 17  1  0  0  0  0
 22  3  1  0  0  0  0
 23 14  1  0  0  0  0
 23  8  1  1  0  0  0
 24 18  1  0  0  0  0
 24 17  2  0  0  0  0
 26 32  1  6  0  0  0
 27 29  1  0  0  0  0
 27 26  1  0  0  0  0
 28 31  1  6  0  0  0
 30 26  1  0  0  0  0
 30 28  1  0  0  0  0
 31 29  1  0  0  0  0
 34 33  1  0  0  0  0
M  END
>  <MODEL>
9

>  <REMARK>
 VINA RESULT:      -4.6      2.502      7.924
  Name = 
  2 active torsions:
  status: ('A' for Active; 'I' for Inactive)
    1  A    between atoms: C_12  and  C_28
    2  A    between atoms: N_13  and  C_33
                            x       y       z     vdW  Elec       q    Type
                         _______ _______ _______ _____ _____    ______ ____

>  <TORSDO>
F 2

$$$$
