=
 OpenBabel11052413473D

 27 31  0  0  0  0  0  0  0  0999 V2000
  187.4180  178.5950  141.5130 N   0  0  0  0  0  0  0  0  0  0  0  0
  187.7240  177.7620  143.8020 C   0  0  0  0  0  0  0  0  0  0  0  0
  189.5630  176.7490  142.4160 N   0  0  0  0  0  0  0  0  0  0  0  0
  190.0150  177.0370  147.1840 C   0  0  0  0  0  3  0  0  0  0  0  0
  192.1360  176.4170  148.2900 O   0  0  0  0  0  1  0  0  0  0  0  0
  187.2420  177.9170  145.1170 C   0  0  0  0  0  3  0  0  0  0  0  0
  191.2450  176.4810  144.6430 C   0  0  0  0  0  2  0  0  0  0  0  0
  190.4750  177.2860  139.0660 N   0  0  0  0  0  0  0  0  0  0  0  0
  191.9880  176.3360  145.9430 C   0  0  0  0  0  3  0  0  0  0  0  0
  191.0540  176.4820  138.0070 C   0  0  0  0  0  1  0  0  0  0  0  0
  189.8400  177.0310  144.7990 C   0  0  0  0  0  0  0  0  0  0  0  0
  186.9120  178.1330  142.7740 C   0  0  0  0  0  0  0  0  0  0  0  0
  191.4110  176.5830  147.1180 C   0  0  0  0  0  0  0  0  0  0  0  0
  189.2940  177.2480  146.0790 C   0  0  0  0  0  0  0  0  0  0  0  0
  188.4410  178.2150  140.8210 C   0  0  0  0  0  0  0  0  0  0  0  0
  189.0520  177.2700  143.6520 C   0  0  0  0  0  0  0  0  0  0  0  0
  190.0120  176.3550  140.0940 C   0  0  0  0  0  2  0  0  0  0  0  0
  188.0140  177.6660  146.2000 N   0  0  0  0  0  0  0  0  0  0  0  0
  189.3070  177.9540  138.4960 C   0  0  0  0  0  2  0  0  0  0  0  0
  188.7080  178.9140  139.5210 C   0  0  0  0  0  2  0  0  0  0  0  0
  189.3100  177.0900  141.1960 C   0  0  0  0  0  0  0  0  0  0  0  0
  182.7210  178.7330  143.3570 C   0  0  0  0  0  3  0  0  0  0  0  0
  185.4590  178.3810  142.9890 C   0  0  0  0  0  0  0  0  0  0  0  0
  184.9570  178.7410  144.2480 C   0  0  0  0  0  3  0  0  0  0  0  0
  183.5870  178.9240  144.4350 C   0  0  0  0  0  3  0  0  0  0  0  0
  183.2140  178.3670  142.1440 N   0  0  0  0  0  0  0  0  0  0  0  0
  184.5470  178.1840  141.9420 C   0  0  0  0  0  3  0  0  0  0  0  0
  1 12  1  0  0  0  0
  2  6  1  0  0  0  0
  3 16  1  0  0  0  0
  6 18  2  0  0  0  0
  7 11  1  0  0  0  0
  7  9  1  0  0  0  0
  8 17  1  0  0  0  0
  9 13  2  0  0  0  0
 10  8  1  0  0  0  0
 11 14  1  0  0  0  0
 12 23  1  0  0  0  0
 12  2  2  0  0  0  0
 13  4  1  0  0  0  0
 13  5  1  0  0  0  0
 14 18  1  0  0  0  0
 14  4  2  0  0  0  0
 15 21  1  0  0  0  0
 15  1  2  0  0  0  0
 16  2  1  0  0  0  0
 16 11  2  0  0  0  0
 17 21  1  0  0  0  0
 19  8  1  0  0  0  0
 19 20  1  0  0  0  0
 20 15  1  0  0  0  0
 21  3  2  0  0  0  0
 22 25  1  0  0  0  0
 23 24  1  0  0  0  0
 24 25  2  0  0  0  0
 26 22  2  0  0  0  0
 27 26  1  0  0  0  0
 27 23  2  0  0  0  0
M  END
>  <MODEL>
1

>  <REMARK>
 VINA RESULT:     -10.3      0.000      0.000
  Name = 
  1 active torsions:
  status: ('A' for Active; 'I' for Inactive)
    1  A    between atoms: C_9  and  C_15
                            x       y       z     vdW  Elec       q    Type
                         _______ _______ _______ _____ _____    ______ ____

>  <TORSDO>
F 1

$$$$
=
 OpenBabel11052413473D

 27 31  0  0  0  0  0  0  0  0999 V2000
  186.9260  178.7440  140.1370 N   0  0  0  0  0  0  0  0  0  0  0  0
  186.1500  178.2030  142.4030 C   0  0  0  0  0  0  0  0  0  0  0  0
  188.4240  177.1580  142.1520 N   0  0  0  0  0  0  0  0  0  0  0  0
  186.6350  178.0260  146.5180 C   0  0  0  0  0  3  0  0  0  0  0  0
  188.0130  177.6760  148.5400 O   0  0  0  0  0  1  0  0  0  0  0  0
  185.1180  178.4790  143.3210 C   0  0  0  0  0  3  0  0  0  0  0  0
  188.8960  177.2590  144.9140 C   0  0  0  0  0  2  0  0  0  0  0  0
  190.7700  177.3600  139.5450 N   0  0  0  0  0  0  0  0  0  0  0  0
  188.9600  177.3140  146.4160 C   0  0  0  0  0  3  0  0  0  0  0  0
  191.7740  176.4770  138.9830 C   0  0  0  0  0  1  0  0  0  0  0  0
  187.5740  177.7310  144.3390 C   0  0  0  0  0  0  0  0  0  0  0  0
  185.8990  178.3990  141.0790 C   0  0  0  0  0  0  0  0  0  0  0  0
  187.9080  177.6580  147.1560 C   0  0  0  0  0  0  0  0  0  0  0  0
  186.5010  178.0600  145.1890 C   0  0  0  0  0  0  0  0  0  0  0  0
  188.1530  178.3520  140.0430 C   0  0  0  0  0  0  0  0  0  0  0  0
  187.4000  177.7850  142.9400 C   0  0  0  0  0  0  0  0  0  0  0  0
  189.8910  176.5270  140.3640 C   0  0  0  0  0  2  0  0  0  0  0  0
  185.3060  178.4050  144.6590 N   0  0  0  0  0  0  0  0  0  0  0  0
  189.9920  177.8800  138.4230 C   0  0  0  0  0  2  0  0  0  0  0  0
  188.9850  178.9120  138.9270 C   0  0  0  0  0  2  0  0  0  0  0  0
  188.7580  177.3380  140.9180 C   0  0  0  0  0  0  0  0  0  0  0  0
  181.9500  178.8880  139.5200 C   0  0  0  0  0  3  0  0  0  0  0  0
  184.5090  178.5770  140.5740 C   0  0  0  0  0  0  0  0  0  0  0  0
  183.4690  177.7290  140.9830 C   0  0  0  0  0  3  0  0  0  0  0  0
  182.1850  177.8860  140.4620 C   0  0  0  0  0  3  0  0  0  0  0  0
  182.9680  179.6940  139.1150 N   0  0  0  0  0  0  0  0  0  0  0  0
  184.2270  179.5570  139.6120 C   0  0  0  0  0  3  0  0  0  0  0  0
  1 12  1  0  0  0  0
  2 16  1  0  0  0  0
  2  6  1  0  0  0  0
  3 16  1  0  0  0  0
  4 13  1  0  0  0  0
  6 18  2  0  0  0  0
  7  9  1  0  0  0  0
  8 17  1  0  0  0  0
  9 13  2  0  0  0  0
 10  8  1  0  0  0  0
 11  7  1  0  0  0  0
 11 14  1  0  0  0  0
 12  2  2  0  0  0  0
 13  5  1  0  0  0  0
 14  4  2  0  0  0  0
 15  1  2  0  0  0  0
 15 21  1  0  0  0  0
 16 11  2  0  0  0  0
 17 21  1  0  0  0  0
 18 14  1  0  0  0  0
 19 20  1  0  0  0  0
 19  8  1  0  0  0  0
 20 15  1  0  0  0  0
 21  3  2  0  0  0  0
 22 25  1  0  0  0  0
 23 24  1  0  0  0  0
 23 12  1  0  0  0  0
 25 24  2  0  0  0  0
 26 22  2  0  0  0  0
 26 27  1  0  0  0  0
 27 23  2  0  0  0  0
M  END
>  <MODEL>
2

>  <REMARK>
 VINA RESULT:     -10.1      1.845      2.638
  Name = 
  1 active torsions:
  status: ('A' for Active; 'I' for Inactive)
    1  A    between atoms: C_9  and  C_15
                            x       y       z     vdW  Elec       q    Type
                         _______ _______ _______ _____ _____    ______ ____

>  <TORSDO>
F 1

$$$$
=
 OpenBabel11052413473D

 27 31  0  0  0  0  0  0  0  0999 V2000
  188.4230  176.9990  143.9690 N   0  0  0  0  0  0  0  0  0  0  0  0
  186.2950  178.0820  144.5450 C   0  0  0  0  0  0  0  0  0  0  0  0
  186.6620  178.4770  142.0880 N   0  0  0  0  0  0  0  0  0  0  0  0
  182.2550  178.8130  143.9560 C   0  0  0  0  0  3  0  0  0  0  0  0
  180.2880  179.1410  142.4960 O   0  0  0  0  0  1  0  0  0  0  0  0
  185.3690  178.2250  145.5960 C   0  0  0  0  0  3  0  0  0  0  0  0
  183.9100  178.7210  141.6040 C   0  0  0  0  0  2  0  0  0  0  0  0
  189.1440  177.2730  139.9130 N   0  0  0  0  0  0  0  0  0  0  0  0
  182.4190  178.9010  141.5280 C   0  0  0  0  0  3  0  0  0  0  0  0
  189.8210  177.7740  138.7320 C   0  0  0  0  0  1  0  0  0  0  0  0
  184.4300  178.5010  143.0130 C   0  0  0  0  0  0  0  0  0  0  0  0
  187.5740  177.7370  144.8610 C   0  0  0  0  0  0  0  0  0  0  0  0
  181.6570  178.9550  142.6200 C   0  0  0  0  0  0  0  0  0  0  0  0
  183.5630  178.5930  144.1180 C   0  0  0  0  0  0  0  0  0  0  0  0
  188.5500  177.0540  142.6840 C   0  0  0  0  0  0  0  0  0  0  0  0
  185.8060  178.2610  143.2200 C   0  0  0  0  0  0  0  0  0  0  0  0
  188.4950  178.4210  140.5430 C   0  0  0  0  0  2  0  0  0  0  0  0
  184.0570  178.4710  145.3710 N   0  0  0  0  0  0  0  0  0  0  0  0
  190.1830  176.7830  140.8160 C   0  0  0  0  0  2  0  0  0  0  0  0
  189.5400  176.1290  142.0380 C   0  0  0  0  0  2  0  0  0  0  0  0
  187.8410  178.0180  141.8320 C   0  0  0  0  0  0  0  0  0  0  0  0
  189.0920  178.0770  148.8410 C   0  0  0  0  0  3  0  0  0  0  0  0
  188.0750  177.8270  146.2610 C   0  0  0  0  0  0  0  0  0  0  0  0
  187.2450  178.2540  147.3080 C   0  0  0  0  0  3  0  0  0  0  0  0
  187.7490  178.3730  148.6030 C   0  0  0  0  0  3  0  0  0  0  0  0
  189.8940  177.6810  147.8170 N   0  0  0  0  0  0  0  0  0  0  0  0
  189.4210  177.5580  146.5480 C   0  0  0  0  0  3  0  0  0  0  0  0
  1 12  1  0  0  0  0
  2 12  2  0  0  0  0
  2  6  1  0  0  0  0
  3 16  1  0  0  0  0
  4 14  2  0  0  0  0
  5 13  1  0  0  0  0
  7 11  1  0  0  0  0
  8 17  1  0  0  0  0
  8 19  1  0  0  0  0
  9  7  1  0  0  0  0
  9 13  2  0  0  0  0
 10  8  1  0  0  0  0
 11 16  2  0  0  0  0
 11 14  1  0  0  0  0
 12 23  1  0  0  0  0
 13  4  1  0  0  0  0
 14 18  1  0  0  0  0
 15  1  2  0  0  0  0
 16  2  1  0  0  0  0
 17 21  1  0  0  0  0
 18  6  2  0  0  0  0
 19 20  1  0  0  0  0
 20 15  1  0  0  0  0
 21  3  2  0  0  0  0
 21 15  1  0  0  0  0
 23 27  2  0  0  0  0
 23 24  1  0  0  0  0
 24 25  2  0  0  0  0
 25 22  1  0  0  0  0
 26 22  2  0  0  0  0
 27 26  1  0  0  0  0
M  END
>  <MODEL>
3

>  <REMARK>
 VINA RESULT:     -10.1      3.024      6.089
  Name = 
  1 active torsions:
  status: ('A' for Active; 'I' for Inactive)
    1  A    between atoms: C_9  and  C_15
                            x       y       z     vdW  Elec       q    Type
                         _______ _______ _______ _____ _____    ______ ____

>  <TORSDO>
F 1

$$$$
=
 OpenBabel11052413473D

 27 31  0  0  0  0  0  0  0  0999 V2000
  189.7540  178.2580  142.0280 N   0  0  0  0  0  0  0  0  0  0  0  0
  187.3710  178.1100  141.4550 C   0  0  0  0  0  0  0  0  0  0  0  0
  187.5670  177.4850  143.8830 N   0  0  0  0  0  0  0  0  0  0  0  0
  183.3650  178.9680  142.1050 C   0  0  0  0  0  2  0  0  0  0  0  0
  181.4310  179.3540  143.5940 O   0  0  0  0  0  1  0  0  0  0  0  0
  186.4560  178.3860  140.4200 C   0  0  0  0  0  3  0  0  0  0  0  0
  184.9380  178.2990  144.4190 C   0  0  0  0  0  3  0  0  0  0  0  0
  190.3320  177.5290  146.0500 N   0  0  0  0  0  0  0  0  0  0  0  0
  183.4940  178.7050  144.5220 C   0  0  0  0  0  3  0  0  0  0  0  0
  190.7670  176.7480  147.1930 C   0  0  0  0  0  1  0  0  0  0  0  0
  185.4960  178.3690  143.0100 C   0  0  0  0  0  0  0  0  0  0  0  0
  188.6820  177.9490  141.1240 C   0  0  0  0  0  0  0  0  0  0  0  0
  182.7650  179.0030  143.4470 C   0  0  0  0  0  0  0  0  0  0  0  0
  184.6560  178.6730  141.9220 C   0  0  0  0  0  0  0  0  0  0  0  0
  189.8570  178.0950  143.3050 C   0  0  0  0  0  0  0  0  0  0  0  0
  186.8560  178.0690  142.7820 C   0  0  0  0  0  0  0  0  0  0  0  0
  189.2860  176.7530  145.3860 C   0  0  0  0  0  2  0  0  0  0  0  0
  185.1520  178.6560  140.6650 N   0  0  0  0  0  0  0  0  0  0  0  0
  191.4750  177.6230  145.1450 C   0  0  0  0  0  2  0  0  0  0  0  0
  191.1300  178.5340  143.9680 C   0  0  0  0  0  2  0  0  0  0  0  0
  188.8340  177.4390  144.1320 C   0  0  0  0  0  0  0  0  0  0  0  0
  189.8030  177.2700  137.0570 C   0  0  0  0  0  3  0  0  0  0  0  0
  189.1030  177.7400  139.7110 C   0  0  0  0  0  0  0  0  0  0  0  0
  189.0550  178.7820  138.7730 C   0  0  0  0  0  3  0  0  0  0  0  0
  189.4120  178.5520  137.4450 C   0  0  0  0  0  3  0  0  0  0  0  0
  189.8280  176.2610  137.9680 N   0  0  0  0  0  0  0  0  0  0  0  0
  189.4850  176.4660  139.2680 C   0  0  0  0  0  3  0  0  0  0  0  0
  1 15  1  0  0  0  0
  2 16  1  0  0  0  0
  3 21  1  0  0  0  0
  4 13  1  0  0  0  0
  6 18  1  0  0  0  0
  6  2  2  0  0  0  0
  7  9  1  0  0  0  0
  8 10  1  0  0  0  0
 11  7  2  0  0  0  0
 12  2  1  0  0  0  0
 12  1  2  0  0  0  0
 13  5  1  0  0  0  0
 13  9  2  0  0  0  0
 14  4  1  0  0  0  0
 14 11  1  0  0  0  0
 15 20  1  0  0  0  0
 15 21  2  0  0  0  0
 16 11  1  0  0  0  0
 16  3  2  0  0  0  0
 17  8  1  0  0  0  0
 18 14  2  0  0  0  0
 19  8  1  0  0  0  0
 20 19  1  0  0  0  0
 21 17  1  0  0  0  0
 22 25  2  0  0  0  0
 22 26  1  0  0  0  0
 23 12  1  0  0  0  0
 24 23  2  0  0  0  0
 25 24  1  0  0  0  0
 26 27  2  0  0  0  0
 27 23  1  0  0  0  0
M  END
>  <MODEL>
4

>  <REMARK>
 VINA RESULT:      -9.9      2.670      6.650
  Name = 
  1 active torsions:
  status: ('A' for Active; 'I' for Inactive)
    1  A    between atoms: C_9  and  C_15
                            x       y       z     vdW  Elec       q    Type
                         _______ _______ _______ _____ _____    ______ ____

>  <TORSDO>
F 1

$$$$
=
 OpenBabel11052413473D

 27 31  0  0  0  0  0  0  0  0999 V2000
  189.5280  176.7730  141.7810 N   0  0  0  0  0  0  0  0  0  0  0  0
  187.7280  177.7170  143.1600 C   0  0  0  0  0  0  0  0  0  0  0  0
  187.4070  178.6260  140.8360 N   0  0  0  0  0  0  0  0  0  0  0  0
  183.7450  178.5750  143.9350 C   0  0  0  0  0  3  0  0  0  0  0  0
  181.4700  179.2150  143.2110 O   0  0  0  0  0  1  0  0  0  0  0  0
  187.1500  177.6380  144.4410 C   0  0  0  0  0  3  0  0  0  0  0  0
  184.6540  178.9800  141.2360 C   0  0  0  0  0  2  0  0  0  0  0  0
  189.0840  177.9040  137.8350 N   0  0  0  0  0  0  0  0  0  0  0  0
  183.2180  179.1780  141.6360 C   0  0  0  0  0  3  0  0  0  0  0  0
  189.4300  178.6420  136.6360 C   0  0  0  0  0  1  0  0  0  0  0  0
  185.5370  178.4620  142.3560 C   0  0  0  0  0  0  0  0  0  0  0  0
  189.0190  177.3080  143.0120 C   0  0  0  0  0  0  0  0  0  0  0  0
  182.8030  179.0010  142.8890 C   0  0  0  0  0  0  0  0  0  0  0  0
  185.0270  178.3200  143.6610 C   0  0  0  0  0  0  0  0  0  0  0  0
  189.2890  177.1000  140.5540 C   0  0  0  0  0  0  0  0  0  0  0  0
  186.8960  178.1780  142.1000 C   0  0  0  0  0  0  0  0  0  0  0  0
  188.7190  178.8930  138.8470 C   0  0  0  0  0  2  0  0  0  0  0  0
  185.8470  177.9310  144.6630 N   0  0  0  0  0  0  0  0  0  0  0  0
  190.3020  177.2280  138.2770 C   0  0  0  0  0  2  0  0  0  0  0  0
  189.9910  176.3310  139.4740 C   0  0  0  0  0  2  0  0  0  0  0  0
  188.4330  178.2280  140.1600 C   0  0  0  0  0  0  0  0  0  0  0  0
  191.6400  176.7520  146.3410 C   0  0  0  0  0  3  0  0  0  0  0  0
  189.9010  177.0950  144.1930 C   0  0  0  0  0  0  0  0  0  0  0  0
  189.6020  177.6620  145.4410 C   0  0  0  0  0  3  0  0  0  0  0  0
  190.4670  177.4860  146.5200 C   0  0  0  0  0  3  0  0  0  0  0  0
  191.9310  176.2210  145.1240 N   0  0  0  0  0  0  0  0  0  0  0  0
  191.1000  176.3800  144.0590 C   0  0  0  0  0  3  0  0  0  0  0  0
  1 12  1  0  0  0  0
  2  6  1  0  0  0  0
  3 16  1  0  0  0  0
  6 18  2  0  0  0  0
  7  9  1  0  0  0  0
  7 11  1  0  0  0  0
  8 19  1  0  0  0  0
  8 17  1  0  0  0  0
  9 13  2  0  0  0  0
 10  8  1  0  0  0  0
 11 14  1  0  0  0  0
 12  2  2  0  0  0  0
 12 23  1  0  0  0  0
 13  5  1  0  0  0  0
 13  4  1  0  0  0  0
 14  4  2  0  0  0  0
 14 18  1  0  0  0  0
 15  1  2  0  0  0  0
 16 11  2  0  0  0  0
 16  2  1  0  0  0  0
 17 21  1  0  0  0  0
 19 20  1  0  0  0  0
 20 15  1  0  0  0  0
 21 15  1  0  0  0  0
 21  3  2  0  0  0  0
 22 25  1  0  0  0  0
 23 24  1  0  0  0  0
 24 25  2  0  0  0  0
 26 22  2  0  0  0  0
 27 23  2  0  0  0  0
 27 26  1  0  0  0  0
M  END
>  <MODEL>
5

>  <REMARK>
 VINA RESULT:      -9.1      2.649      5.852
  Name = 
  1 active torsions:
  status: ('A' for Active; 'I' for Inactive)
    1  A    between atoms: C_9  and  C_15
                            x       y       z     vdW  Elec       q    Type
                         _______ _______ _______ _____ _____    ______ ____

>  <TORSDO>
F 1

$$$$
=
 OpenBabel11052413473D

 27 31  0  0  0  0  0  0  0  0999 V2000
  190.9990  177.8590  142.1270 N   0  0  0  0  0  0  0  0  0  0  0  0
  189.0650  177.7460  140.6180 C   0  0  0  0  0  0  0  0  0  0  0  0
  188.1840  177.3840  142.9460 N   0  0  0  0  0  0  0  0  0  0  0  0
  185.2370  178.8300  139.4470 C   0  0  0  0  0  2  0  0  0  0  0  0
  182.8980  179.4560  139.9450 O   0  0  0  0  0  1  0  0  0  0  0  0
  188.6890  177.9430  139.2750 C   0  0  0  0  0  3  0  0  0  0  0  0
  185.6470  178.3570  142.2550 C   0  0  0  0  0  3  0  0  0  0  0  0
  189.7930  177.5550  146.0640 N   0  0  0  0  0  0  0  0  0  0  0  0
  184.3290  178.8300  141.7060 C   0  0  0  0  0  3  0  0  0  0  0  0
  189.6500  176.8870  147.3440 C   0  0  0  0  0  1  0  0  0  0  0  0
  186.7430  178.2490  141.2120 C   0  0  0  0  0  0  0  0  0  0  0  0
  190.3770  177.4960  140.8850 C   0  0  0  0  0  0  0  0  0  0  0  0
  184.1390  179.0370  140.4030 C   0  0  0  0  0  0  0  0  0  0  0  0
  186.4570  178.4660  139.8500 C   0  0  0  0  0  0  0  0  0  0  0  0
  190.5490  177.8340  143.3380 C   0  0  0  0  0  0  0  0  0  0  0  0
  188.0450  177.8710  141.6030 C   0  0  0  0  0  0  0  0  0  0  0  0
  189.0580  176.7530  145.0880 C   0  0  0  0  0  2  0  0  0  0  0  0
  187.4280  178.2900  138.9250 N   0  0  0  0  0  0  0  0  0  0  0  0
  191.2130  177.5030  145.7200 C   0  0  0  0  0  2  0  0  0  0  0  0
  191.4630  178.2910  144.4360 C   0  0  0  0  0  2  0  0  0  0  0  0
  189.2250  177.3150  143.7070 C   0  0  0  0  0  0  0  0  0  0  0  0
  193.1720  176.3530  137.8610 C   0  0  0  0  0  3  0  0  0  0  0  0
  191.3280  177.1170  139.8030 C   0  0  0  0  0  0  0  0  0  0  0  0
  190.9270  176.3080  138.7300 C   0  0  0  0  0  3  0  0  0  0  0  0
  191.8460  175.9290  137.7520 C   0  0  0  0  0  3  0  0  0  0  0  0
  193.5550  177.1220  138.9150 N   0  0  0  0  0  0  0  0  0  0  0  0
  192.6740  177.5030  139.8780 C   0  0  0  0  0  3  0  0  0  0  0  0
  1 15  1  0  0  0  0
  2 12  1  0  0  0  0
  2 16  1  0  0  0  0
  3 21  1  0  0  0  0
  4 14  1  0  0  0  0
  4 13  1  0  0  0  0
  5 13  1  0  0  0  0
  6  2  2  0  0  0  0
  8 10  1  0  0  0  0
  9  7  1  0  0  0  0
 11 16  1  0  0  0  0
 11  7  2  0  0  0  0
 12  1  2  0  0  0  0
 13  9  2  0  0  0  0
 14 11  1  0  0  0  0
 15 21  2  0  0  0  0
 15 20  1  0  0  0  0
 16  3  2  0  0  0  0
 17  8  1  0  0  0  0
 18  6  1  0  0  0  0
 18 14  2  0  0  0  0
 19  8  1  0  0  0  0
 20 19  1  0  0  0  0
 21 17  1  0  0  0  0
 22 26  1  0  0  0  0
 23 27  1  0  0  0  0
 23 12  1  0  0  0  0
 24 23  2  0  0  0  0
 25 22  2  0  0  0  0
 25 24  1  0  0  0  0
 26 27  2  0  0  0  0
M  END
>  <MODEL>
6

>  <REMARK>
 VINA RESULT:      -9.1      3.064      7.539
  Name = 
  1 active torsions:
  status: ('A' for Active; 'I' for Inactive)
    1  A    between atoms: C_9  and  C_15
                            x       y       z     vdW  Elec       q    Type
                         _______ _______ _______ _____ _____    ______ ____

>  <TORSDO>
F 1

$$$$
=
 OpenBabel11052413473D

 27 31  0  0  0  0  0  0  0  0999 V2000
  183.3870  178.9500  142.7430 N   0  0  0  0  0  0  0  0  0  0  0  0
  185.5870  178.4020  141.7990 C   0  0  0  0  0  0  0  0  0  0  0  0
  183.8780  177.7220  140.0830 N   0  0  0  0  0  0  0  0  0  0  0  0
  188.4290  178.5030  138.7800 C   0  0  0  0  0  3  0  0  0  0  0  0
  189.0820  178.4750  136.3970 O   0  0  0  0  0  1  0  0  0  0  0  0
  186.9670  178.5540  142.0350 C   0  0  0  0  0  3  0  0  0  0  0  0
  185.7060  178.0300  137.9800 C   0  0  0  0  0  2  0  0  0  0  0  0
  180.3940  178.1700  140.0070 N   0  0  0  0  0  0  0  0  0  0  0  0
  186.8230  178.1670  136.9820 C   0  0  0  0  0  3  0  0  0  0  0  0
  179.2650  177.4330  139.4730 C   0  0  0  0  0  1  0  0  0  0  0  0
  186.1370  178.2570  139.4170 C   0  0  0  0  0  0  0  0  0  0  0  0
  184.7420  178.4920  142.8640 C   0  0  0  0  0  0  0  0  0  0  0  0
  188.0850  178.3740  137.3570 C   0  0  0  0  0  0  0  0  0  0  0  0
  187.4950  178.4510  139.7340 C   0  0  0  0  0  0  0  0  0  0  0  0
  182.5080  178.7550  141.8160 C   0  0  0  0  0  0  0  0  0  0  0  0
  185.1760  178.2150  140.4490 C   0  0  0  0  0  0  0  0  0  0  0  0
  181.5290  177.2470  140.0210 C   0  0  0  0  0  2  0  0  0  0  0  0
  187.8710  178.5750  141.0270 N   0  0  0  0  0  0  0  0  0  0  0  0
  180.0620  178.5040  141.3900 C   0  0  0  0  0  2  0  0  0  0  0  0
  181.1570  179.3860  141.9870 C   0  0  0  0  0  2  0  0  0  0  0  0
  182.7290  177.8930  140.6470 C   0  0  0  0  0  0  0  0  0  0  0  0
  186.0940  178.2490  146.9100 C   0  0  0  0  0  3  0  0  0  0  0  0
  185.2500  178.4210  144.2620 C   0  0  0  0  0  0  0  0  0  0  0  0
  186.3200  177.5820  144.6090 C   0  0  0  0  0  3  0  0  0  0  0  0
  186.7490  177.4990  145.9330 C   0  0  0  0  0  3  0  0  0  0  0  0
  185.0460  179.0460  146.5680 N   0  0  0  0  0  0  0  0  0  0  0  0
  184.6130  179.1410  145.2820 C   0  0  0  0  0  3  0  0  0  0  0  0
  1 12  1  0  0  0  0
  2  6  1  0  0  0  0
  2 12  2  0  0  0  0
  3 16  1  0  0  0  0
  3 21  2  0  0  0  0
  4 14  2  0  0  0  0
  5 13  1  0  0  0  0
  7 11  1  0  0  0  0
  8 17  1  0  0  0  0
  8 19  1  0  0  0  0
  9 13  2  0  0  0  0
  9  7  1  0  0  0  0
 10  8  1  0  0  0  0
 11 14  1  0  0  0  0
 11 16  2  0  0  0  0
 12 23  1  0  0  0  0
 13  4  1  0  0  0  0
 14 18  1  0  0  0  0
 15 20  1  0  0  0  0
 15  1  2  0  0  0  0
 16  2  1  0  0  0  0
 17 21  1  0  0  0  0
 18  6  2  0  0  0  0
 19 20  1  0  0  0  0
 21 15  1  0  0  0  0
 23 24  2  0  0  0  0
 23 27  1  0  0  0  0
 24 25  1  0  0  0  0
 25 22  2  0  0  0  0
 26 22  1  0  0  0  0
 27 26  2  0  0  0  0
M  END
>  <MODEL>
7

>  <REMARK>
 VINA RESULT:      -8.3      3.569      7.165
  Name = 
  1 active torsions:
  status: ('A' for Active; 'I' for Inactive)
    1  A    between atoms: C_9  and  C_15
                            x       y       z     vdW  Elec       q    Type
                         _______ _______ _______ _____ _____    ______ ____

>  <TORSDO>
F 1

$$$$
=
 OpenBabel11052413473D

 27 31  0  0  0  0  0  0  0  0999 V2000
  187.8600  178.3090  145.1270 N   0  0  0  0  0  0  0  0  0  0  0  0
  189.0520  177.5720  143.1100 C   0  0  0  0  0  0  0  0  0  0  0  0
  186.6270  177.7860  142.4750 N   0  0  0  0  0  0  0  0  0  0  0  0
  190.0250  177.8740  139.0890 C   0  0  0  0  0  2  0  0  0  0  0  0
  189.4500  178.3620  136.7360 O   0  0  0  0  0  1  0  0  0  0  0  0
  190.3460  177.3440  142.6040 C   0  0  0  0  0  3  0  0  0  0  0  0
  187.2590  178.2530  139.7830 C   0  0  0  0  0  3  0  0  0  0  0  0
  183.8740  178.9940  144.2930 N   0  0  0  0  0  0  0  0  0  0  0  0
  187.7610  178.4100  138.3740 C   0  0  0  0  0  3  0  0  0  0  0  0
  182.4550  178.7010  144.3430 C   0  0  0  0  0  1  0  0  0  0  0  0
  188.3540  177.9730  140.7960 C   0  0  0  0  0  0  0  0  0  0  0  0
  188.8790  177.5480  144.4610 C   0  0  0  0  0  0  0  0  0  0  0  0
  189.0410  178.2220  138.0540 C   0  0  0  0  0  0  0  0  0  0  0  0
  189.6820  177.7680  140.3760 C   0  0  0  0  0  0  0  0  0  0  0  0
  186.6440  178.5770  144.7820 C   0  0  0  0  0  0  0  0  0  0  0  0
  188.0270  177.8600  142.1650 C   0  0  0  0  0  0  0  0  0  0  0  0
  184.5090  177.8770  143.5950 C   0  0  0  0  0  2  0  0  0  0  0  0
  190.6300  177.4440  141.2840 N   0  0  0  0  0  0  0  0  0  0  0  0
  184.3510  178.9980  145.6740 C   0  0  0  0  0  2  0  0  0  0  0  0
  185.8200  179.4170  145.7130 C   0  0  0  0  0  2  0  0  0  0  0  0
  185.9990  178.0440  143.5730 C   0  0  0  0  0  0  0  0  0  0  0  0
  191.9490  176.0020  147.0000 C   0  0  0  0  0  3  0  0  0  0  0  0
  189.9210  176.9840  145.3630 C   0  0  0  0  0  0  0  0  0  0  0  0
  189.8150  177.0890  146.7570 C   0  0  0  0  0  3  0  0  0  0  0  0
  190.8250  176.5930  147.5800 C   0  0  0  0  0  3  0  0  0  0  0  0
  192.0520  175.9200  145.6460 N   0  0  0  0  0  0  0  0  0  0  0  0
  191.0770  176.3980  144.8270 C   0  0  0  0  0  3  0  0  0  0  0  0
  2 12  1  0  0  0  0
  3 21  1  0  0  0  0
  4 14  1  0  0  0  0
  5 13  1  0  0  0  0
  6  2  2  0  0  0  0
  7 11  2  0  0  0  0
  8 10  1  0  0  0  0
  8 19  1  0  0  0  0
  9  7  1  0  0  0  0
 11 16  1  0  0  0  0
 12  1  2  0  0  0  0
 12 23  1  0  0  0  0
 13  9  2  0  0  0  0
 13  4  1  0  0  0  0
 14 11  1  0  0  0  0
 14 18  2  0  0  0  0
 15  1  1  0  0  0  0
 15 20  1  0  0  0  0
 16  3  2  0  0  0  0
 16  2  1  0  0  0  0
 17  8  1  0  0  0  0
 18  6  1  0  0  0  0
 19 20  1  0  0  0  0
 21 17  1  0  0  0  0
 21 15  2  0  0  0  0
 22 25  1  0  0  0  0
 23 24  1  0  0  0  0
 24 25  2  0  0  0  0
 26 22  2  0  0  0  0
 27 23  2  0  0  0  0
 27 26  1  0  0  0  0
M  END
>  <MODEL>
8

>  <REMARK>
 VINA RESULT:      -8.2      2.711      7.048
  Name = 
  1 active torsions:
  status: ('A' for Active; 'I' for Inactive)
    1  A    between atoms: C_9  and  C_15
                            x       y       z     vdW  Elec       q    Type
                         _______ _______ _______ _____ _____    ______ ____

>  <TORSDO>
F 1

$$$$
=
 OpenBabel11052413473D

 27 31  0  0  0  0  0  0  0  0999 V2000
  186.4570  177.6470  143.2260 N   0  0  0  0  0  0  0  0  0  0  0  0
  186.1500  178.3590  140.8960 C   0  0  0  0  0  0  0  0  0  0  0  0
  188.6190  178.4720  141.3640 N   0  0  0  0  0  0  0  0  0  0  0  0
  187.0280  178.1920  136.8460 C   0  0  0  0  0  2  0  0  0  0  0  0
  188.6090  177.9200  134.9660 O   0  0  0  0  0  1  0  0  0  0  0  0
  185.1760  178.4640  139.8840 C   0  0  0  0  0  3  0  0  0  0  0  0
  189.2600  178.1000  138.6600 C   0  0  0  0  0  3  0  0  0  0  0  0
  190.4700  177.4890  144.1830 N   0  0  0  0  0  0  0  0  0  0  0  0
  189.4310  177.9710  137.1710 C   0  0  0  0  0  3  0  0  0  0  0  0
  191.6810  177.9440  144.8390 C   0  0  0  0  0  1  0  0  0  0  0  0
  187.8120  178.1860  139.1050 C   0  0  0  0  0  0  0  0  0  0  0  0
  185.7260  178.3210  142.1900 C   0  0  0  0  0  0  0  0  0  0  0  0
  188.3960  178.0260  136.3330 C   0  0  0  0  0  0  0  0  0  0  0  0
  186.7740  178.2590  138.1560 C   0  0  0  0  0  0  0  0  0  0  0  0
  187.7270  177.5460  143.4370 C   0  0  0  0  0  0  0  0  0  0  0  0
  187.5080  178.2530  140.4820 C   0  0  0  0  0  0  0  0  0  0  0  0
  190.0510  178.5630  143.2850 C   0  0  0  0  0  2  0  0  0  0  0  0
  185.4960  178.4120  138.5690 N   0  0  0  0  0  0  0  0  0  0  0  0
  189.4560  177.3440  145.2250 C   0  0  0  0  0  2  0  0  0  0  0  0
  188.1800  176.7530  144.6270 C   0  0  0  0  0  2  0  0  0  0  0  0
  188.7480  178.2230  142.6240 C   0  0  0  0  0  0  0  0  0  0  0  0
  181.6970  179.3060  143.2180 C   0  0  0  0  0  3  0  0  0  0  0  0
  184.3350  178.7020  142.5600 C   0  0  0  0  0  0  0  0  0  0  0  0
  184.0020  179.0680  143.8720 C   0  0  0  0  0  3  0  0  0  0  0  0
  182.6830  179.3780  144.2040 C   0  0  0  0  0  3  0  0  0  0  0  0
  182.0260  178.9330  141.9530 N   0  0  0  0  0  0  0  0  0  0  0  0
  183.3060  178.6280  141.6090 C   0  0  0  0  0  3  0  0  0  0  0  0
  1 15  1  0  0  0  0
  2 12  1  0  0  0  0
  3 21  1  0  0  0  0
  4 14  1  0  0  0  0
  5 13  1  0  0  0  0
  6  2  2  0  0  0  0
  7 11  2  0  0  0  0
  8 10  1  0  0  0  0
  8 19  1  0  0  0  0
  9  7  1  0  0  0  0
 11 16  1  0  0  0  0
 12 23  1  0  0  0  0
 12  1  2  0  0  0  0
 13  4  1  0  0  0  0
 13  9  2  0  0  0  0
 14 18  2  0  0  0  0
 14 11  1  0  0  0  0
 15 20  1  0  0  0  0
 16  2  1  0  0  0  0
 16  3  2  0  0  0  0
 17  8  1  0  0  0  0
 18  6  1  0  0  0  0
 20 19  1  0  0  0  0
 21 17  1  0  0  0  0
 21 15  2  0  0  0  0
 22 25  1  0  0  0  0
 23 24  1  0  0  0  0
 24 25  2  0  0  0  0
 26 22  2  0  0  0  0
 27 26  1  0  0  0  0
 27 23  2  0  0  0  0
M  END
>  <MODEL>
9

>  <REMARK>
 VINA RESULT:      -8.2      3.143      6.068
  Name = 
  1 active torsions:
  status: ('A' for Active; 'I' for Inactive)
    1  A    between atoms: C_9  and  C_15
                            x       y       z     vdW  Elec       q    Type
                         _______ _______ _______ _____ _____    ______ ____

>  <TORSDO>
F 1

$$$$
