=
 OpenBabel11052413283D

 28 32  0  0  1  0  0  0  0  0999 V2000
  190.0930  177.7650  141.8850 C   0  0  2  0  0  3  0  0  0  0  0  0
  184.8800  178.2560  142.5340 C   0  0  0  0  0  2  0  0  0  0  0  0
  189.2590  176.5410  145.9970 N   0  0  0  0  0  1  0  0  0  0  0  0
  184.8470  179.1410  144.8630 C   0  0  1  0  0  3  0  0  0  0  0  0
  186.8870  177.9190  144.0700 C   0  0  0  0  0  0  0  0  0  0  0  0
  182.6890  178.8950  143.5600 C   0  0  0  0  0  0  0  0  0  0  0  0
  185.3790  178.0160  143.9580 C   0  0  2  0  0  3  0  0  0  0  0  0
  186.5080  178.0490  146.5000 C   0  0  0  0  0  2  0  0  0  0  0  0
  183.3210  179.0980  144.9170 C   0  0  0  0  0  2  0  0  0  0  0  0
  189.7110  178.2670  144.3050 C   0  0  1  0  0  3  0  0  0  0  0  0
  187.7550  177.9440  142.8260 C   0  0  0  0  0  2  0  0  0  0  0  0
  185.4340  179.1250  146.2880 C   0  0  0  0  0  2  0  0  0  0  0  0
  192.0210  177.7520  143.5220 C   0  0  0  0  0  3  0  0  0  0  0  0
  188.9170  177.8870  145.5580 C   0  0  1  0  0  3  0  0  0  0  0  0
  191.2010  178.1520  144.5040 C   0  0  0  0  0  3  0  0  0  0  0  0
  180.9510  179.0670  143.4110 Cl  0  0  0  0  0  0  0  0  0  0  0  0
  183.3860  178.4420  142.5030 C   0  0  0  0  0  3  0  0  0  0  0  0
  187.4280  177.9700  145.3120 C   0  0  0  0  0  0  0  0  0  0  0  0
  191.5130  177.2810  142.1830 C   0  0  0  0  0  2  0  0  0  0  0  0
  189.1910  177.4920  143.0920 C   0  0  1  0  0  3  0  0  0  0  0  0
  189.5830  177.0390  140.6400 C   0  0  0  0  0  2  0  0  0  0  0  0
  190.0470  177.6940  139.3400 C   0  0  2  0  0  3  0  0  0  0  0  0
  189.8740  177.2380  136.9770 N   0  0  0  0  0  0  0  0  0  0  0  0
  189.0090  178.6190  138.7650 C   0  0  0  0  0  2  0  0  0  0  0  0
  191.8030  176.3700  138.1880 C   0  0  0  0  0  1  0  0  0  0  0  0
  190.3200  176.6790  138.2500 C   0  0  1  0  0  3  0  0  0  0  0  0
  188.8770  176.3270  136.4390 C   0  0  0  0  0  1  0  0  0  0  0  0
  189.1890  178.4970  137.2670 C   0  0  0  0  0  2  0  0  0  0  0  0
  1 21  1  6  0  0  0
  1 19  1  0  0  0  0
  1 20  1  0  0  0  0
  4  9  1  1  0  0  0
  4 12  1  0  0  0  0
  5 18  2  0  0  0  0
  6  9  1  0  0  0  0
  7  2  1  6  0  0  0
  7  5  1  0  0  0  0
  7  4  1  0  0  0  0
 10 15  1  1  0  0  0
 10 14  1  0  0  0  0
 11  5  1  0  0  0  0
 12  8  1  0  0  0  0
 13 15  2  0  0  0  0
 14  3  1  6  0  0  0
 16  6  1  0  0  0  0
 17  2  1  0  0  0  0
 17  6  2  0  0  0  0
 18 14  1  0  0  0  0
 18  8  1  0  0  0  0
 19 13  1  0  0  0  0
 20 11  1  6  0  0  0
 20 10  1  0  0  0  0
 22 21  1  1  0  0  0
 23 28  1  0  0  0  0
 23 26  1  0  0  0  0
 24 22  1  0  0  0  0
 26 25  1  6  0  0  0
 26 22  1  0  0  0  0
 27 23  1  0  0  0  0
 28 24  1  0  0  0  0
M  END
>  <MODEL>
1

>  <REMARK>
 VINA RESULT:     -10.9      0.000      0.000
  Name = 
  2 active torsions:
  status: ('A' for Active; 'I' for Inactive)
    1  A    between atoms: C_1  and  C_2
    2  A    between atoms: C_2  and  C_3
                            x       y       z     vdW  Elec       q    Type
                         _______ _______ _______ _____ _____    ______ ____

>  <TORSDO>
F 2

$$$$
=
 OpenBabel11052413283D

 28 32  0  0  1  0  0  0  0  0999 V2000
  190.3690  177.1050  143.6280 C   0  0  2  0  0  3  0  0  0  0  0  0
  185.2720  178.1040  142.7030 C   0  0  0  0  0  2  0  0  0  0  0  0
  188.2590  176.2070  147.3500 N   0  0  0  0  0  1  0  0  0  0  0  0
  184.6590  179.1250  144.8920 C   0  0  1  0  0  3  0  0  0  0  0  0
  186.7030  177.6780  144.7700 C   0  0  0  0  0  0  0  0  0  0  0  0
  182.9570  178.9990  143.0200 C   0  0  0  0  0  0  0  0  0  0  0  0
  185.3090  177.9040  144.2180 C   0  0  2  0  0  3  0  0  0  0  0  0
  185.6520  177.9860  146.9760 C   0  0  0  0  0  2  0  0  0  0  0  0
  183.1870  179.2230  144.4970 C   0  0  0  0  0  2  0  0  0  0  0  0
  189.3580  177.7810  145.8130 C   0  0  1  0  0  3  0  0  0  0  0  0
  187.8900  177.5500  143.8350 C   0  0  0  0  0  2  0  0  0  0  0  0
  184.8040  179.1400  146.4260 C   0  0  0  0  0  2  0  0  0  0  0  0
  191.7290  177.0140  145.7590 C   0  0  0  0  0  3  0  0  0  0  0  0
  188.2000  177.5500  146.7890 C   0  0  1  0  0  3  0  0  0  0  0  0
  190.7060  177.5440  146.4450 C   0  0  0  0  0  3  0  0  0  0  0  0
  181.3640  179.3180  142.3620 Cl  0  0  0  0  0  0  0  0  0  0  0  0
  183.8780  178.4230  142.2290 C   0  0  0  0  0  3  0  0  0  0  0  0
  186.8640  177.7530  146.1150 C   0  0  0  0  0  0  0  0  0  0  0  0
  191.5840  176.5130  144.3450 C   0  0  0  0  0  2  0  0  0  0  0  0
  189.1340  176.9870  144.5250 C   0  0  1  0  0  3  0  0  0  0  0  0
  190.1680  176.3560  142.3120 C   0  0  0  0  0  2  0  0  0  0  0  0
  190.2240  177.2750  141.0920 C   0  0  2  0  0  3  0  0  0  0  0  0
  190.5510  177.0320  138.7140 N   0  0  0  0  0  0  0  0  0  0  0  0
  188.8840  177.4190  140.4240 C   0  0  0  0  0  2  0  0  0  0  0  0
  192.5040  177.4190  140.1200 C   0  0  0  0  0  1  0  0  0  0  0  0
  191.1490  176.7470  140.0150 C   0  0  1  0  0  3  0  0  0  0  0  0
  190.3770  175.7560  138.0400 C   0  0  0  0  0  1  0  0  0  0  0  0
  189.2140  177.5730  138.9550 C   0  0  0  0  0  2  0  0  0  0  0  0
  1 21  1  6  0  0  0
  1 19  1  0  0  0  0
  1 20  1  0  0  0  0
  4  9  1  1  0  0  0
  4 12  1  0  0  0  0
  5 18  2  0  0  0  0
  6  9  1  0  0  0  0
  7  2  1  6  0  0  0
  7  5  1  0  0  0  0
  7  4  1  0  0  0  0
 10 15  1  1  0  0  0
 10 14  1  0  0  0  0
 11  5  1  0  0  0  0
 12  8  1  0  0  0  0
 13 15  2  0  0  0  0
 14  3  1  6  0  0  0
 16  6  1  0  0  0  0
 17  2  1  0  0  0  0
 17  6  2  0  0  0  0
 18 14  1  0  0  0  0
 18  8  1  0  0  0  0
 19 13  1  0  0  0  0
 20 11  1  6  0  0  0
 20 10  1  0  0  0  0
 22 21  1  1  0  0  0
 23 28  1  0  0  0  0
 23 26  1  0  0  0  0
 24 22  1  0  0  0  0
 26 25  1  6  0  0  0
 26 22  1  0  0  0  0
 27 23  1  0  0  0  0
 28 24  1  0  0  0  0
M  END
>  <MODEL>
2

>  <REMARK>
 VINA RESULT:     -10.6      1.217      1.560
  Name = 
  2 active torsions:
  status: ('A' for Active; 'I' for Inactive)
    1  A    between atoms: C_1  and  C_2
    2  A    between atoms: C_2  and  C_3
                            x       y       z     vdW  Elec       q    Type
                         _______ _______ _______ _____ _____    ______ ____

>  <TORSDO>
F 2

$$$$
=
 OpenBabel11052413283D

 28 32  0  0  1  0  0  0  0  0999 V2000
  189.8960  177.4440  142.9950 C   0  0  2  0  0  3  0  0  0  0  0  0
  184.7930  178.6550  143.5620 C   0  0  0  0  0  2  0  0  0  0  0  0
  188.6780  179.3540  139.2570 N   0  0  0  0  0  1  0  0  0  0  0  0
  183.9930  178.1120  141.2640 C   0  0  1  0  0  3  0  0  0  0  0  0
  186.4380  178.5460  141.6170 C   0  0  0  0  0  0  0  0  0  0  0  0
  182.3510  178.8460  143.0470 C   0  0  0  0  0  0  0  0  0  0  0  0
  185.0370  178.9020  142.0730 C   0  0  2  0  0  3  0  0  0  0  0  0
  185.5440  178.8340  139.3400 C   0  0  0  0  0  2  0  0  0  0  0  0
  182.5880  178.6270  141.5710 C   0  0  0  0  0  2  0  0  0  0  0  0
  188.8810  177.3820  140.7100 C   0  0  1  0  0  3  0  0  0  0  0  0
  187.4860  178.1050  142.6200 C   0  0  0  0  0  2  0  0  0  0  0  0
  184.2470  178.1210  139.7440 C   0  0  0  0  0  2  0  0  0  0  0  0
  191.3420  177.0650  140.9540 C   0  0  0  0  0  3  0  0  0  0  0  0
  188.0140  178.1360  139.6980 C   0  0  1  0  0  3  0  0  0  0  0  0
  190.2530  177.0580  140.1730 C   0  0  0  0  0  3  0  0  0  0  0  0
  180.7220  179.1990  143.5910 Cl  0  0  0  0  0  0  0  0  0  0  0  0
  183.3590  178.9330  143.9320 C   0  0  0  0  0  3  0  0  0  0  0  0
  186.6640  178.4830  140.2810 C   0  0  0  0  0  0  0  0  0  0  0  0
  191.3020  177.5020  142.3960 C   0  0  0  0  0  2  0  0  0  0  0  0
  188.9040  178.1240  142.0470 C   0  0  1  0  0  3  0  0  0  0  0  0
  189.9180  178.1340  144.3580 C   0  0  0  0  0  2  0  0  0  0  0  0
  189.4230  177.2310  145.4880 C   0  0  2  0  0  3  0  0  0  0  0  0
  189.2710  177.3400  147.8930 N   0  0  0  0  0  0  0  0  0  0  0  0
  187.9880  177.5030  145.8480 C   0  0  0  0  0  2  0  0  0  0  0  0
  191.2790  176.3800  146.9000 C   0  0  0  0  0  1  0  0  0  0  0  0
  190.2000  177.4370  146.7710 C   0  0  1  0  0  3  0  0  0  0  0  0
  189.3420  178.6010  148.6130 C   0  0  0  0  0  1  0  0  0  0  0  0
  187.9220  177.2410  147.3380 C   0  0  0  0  0  2  0  0  0  0  0  0
  1 21  1  1  0  0  0
  2 17  1  0  0  0  0
  4 12  1  6  0  0  0
  4  9  1  0  0  0  0
  4  7  1  0  0  0  0
  5  7  1  0  0  0  0
  5 11  1  0  0  0  0
  6 16  1  0  0  0  0
  6 17  2  0  0  0  0
  7  2  1  1  0  0  0
  8 12  1  0  0  0  0
  8 18  1  0  0  0  0
  9  6  1  0  0  0  0
 10 15  1  6  0  0  0
 10 20  1  0  0  0  0
 13 19  1  0  0  0  0
 14  3  1  1  0  0  0
 14 18  1  0  0  0  0
 14 10  1  0  0  0  0
 15 13  2  0  0  0  0
 18  5  2  0  0  0  0
 19  1  1  0  0  0  0
 20 11  1  1  0  0  0
 20  1  1  0  0  0  0
 22 21  1  6  0  0  0
 22 24  1  0  0  0  0
 22 26  1  0  0  0  0
 23 27  1  0  0  0  0
 24 28  1  0  0  0  0
 26 25  1  1  0  0  0
 26 23  1  0  0  0  0
 28 23  1  0  0  0  0
M  END
>  <MODEL>
3

>  <REMARK>
 VINA RESULT:      -9.7      1.756      5.775
  Name = 
  2 active torsions:
  status: ('A' for Active; 'I' for Inactive)
    1  A    between atoms: C_1  and  C_2
    2  A    between atoms: C_2  and  C_3
                            x       y       z     vdW  Elec       q    Type
                         _______ _______ _______ _____ _____    ______ ____

>  <TORSDO>
F 2

$$$$
=
 OpenBabel11052413283D

 28 32  0  0  1  0  0  0  0  0999 V2000
  186.3310  178.1920  141.8350 C   0  0  2  0  0  3  0  0  0  0  0  0
  190.3940  176.9970  144.9820 C   0  0  0  0  0  2  0  0  0  0  0  0
  185.3780  179.8910  145.7480 N   0  0  0  0  0  1  0  0  0  0  0  0
  189.1430  176.4890  147.0780 C   0  0  1  0  0  3  0  0  0  0  0  0
  188.0240  177.8780  145.3150 C   0  0  0  0  0  0  0  0  0  0  0  0
  191.6560  176.1890  146.9860 C   0  0  0  0  0  0  0  0  0  0  0  0
  189.3490  177.5300  145.9640 C   0  0  2  0  0  3  0  0  0  0  0  0
  187.1830  178.0670  147.6230 C   0  0  0  0  0  2  0  0  0  0  0  0
  190.4350  176.3000  147.8690 C   0  0  0  0  0  2  0  0  0  0  0  0
  185.4190  178.0170  144.1570 C   0  0  1  0  0  3  0  0  0  0  0  0
  187.8580  177.7970  143.8100 C   0  0  0  0  0  2  0  0  0  0  0  0
  187.9750  176.8160  148.0280 C   0  0  0  0  0  2  0  0  0  0  0  0
  183.9140  178.7590  142.3140 C   0  0  0  0  0  3  0  0  0  0  0  0
  185.5930  178.4570  145.6130 C   0  0  1  0  0  3  0  0  0  0  0  0
  184.0720  178.3930  143.5930 C   0  0  0  0  0  3  0  0  0  0  0  0
  193.1810  175.7270  147.7180 Cl  0  0  0  0  0  0  0  0  0  0  0  0
  191.6500  176.5770  145.7000 C   0  0  0  0  0  3  0  0  0  0  0  0
  186.9670  178.1050  146.1340 C   0  0  0  0  0  0  0  0  0  0  0  0
  185.0760  178.9320  141.3710 C   0  0  0  0  0  2  0  0  0  0  0  0
  186.5970  178.5040  143.3110 C   0  0  1  0  0  3  0  0  0  0  0  0
  187.5060  178.6280  140.9600 C   0  0  0  0  0  2  0  0  0  0  0  0
  187.7830  177.6570  139.8130 C   0  0  2  0  0  3  0  0  0  0  0  0
  188.4400  177.8070  137.4960 N   0  0  0  0  0  0  0  0  0  0  0  0
  189.2370  177.2840  139.7200 C   0  0  0  0  0  2  0  0  0  0  0  0
  186.0610  177.7850  138.0290 C   0  0  0  0  0  1  0  0  0  0  0  0
  187.4390  178.2490  138.4620 C   0  0  1  0  0  3  0  0  0  0  0  0
  189.0550  179.0030  136.9460 C   0  0  0  0  0  1  0  0  0  0  0  0
  189.4790  177.0940  138.2380 C   0  0  0  0  0  2  0  0  0  0  0  0
  1 21  1  6  0  0  0
  1 20  1  0  0  0  0
  2 17  1  0  0  0  0
  4  9  1  1  0  0  0
  4 12  1  0  0  0  0
  5  7  1  0  0  0  0
  5 18  2  0  0  0  0
  6 16  1  0  0  0  0
  6  9  1  0  0  0  0
  7  2  1  6  0  0  0
  7  4  1  0  0  0  0
  8 12  1  0  0  0  0
 10 15  1  6  0  0  0
 10 14  1  0  0  0  0
 11  5  1  0  0  0  0
 13 15  2  0  0  0  0
 14  3  1  6  0  0  0
 14 18  1  0  0  0  0
 17  6  2  0  0  0  0
 18  8  1  0  0  0  0
 19  1  1  0  0  0  0
 19 13  1  0  0  0  0
 20 11  1  1  0  0  0
 20 10  1  0  0  0  0
 22 21  1  1  0  0  0
 23 28  1  0  0  0  0
 23 26  1  0  0  0  0
 24 22  1  0  0  0  0
 26 25  1  6  0  0  0
 26 22  1  0  0  0  0
 27 23  1  0  0  0  0
 28 24  1  0  0  0  0
M  END
>  <MODEL>
4

>  <REMARK>
 VINA RESULT:      -9.6      3.163      5.525
  Name = 
  2 active torsions:
  status: ('A' for Active; 'I' for Inactive)
    1  A    between atoms: C_1  and  C_2
    2  A    between atoms: C_2  and  C_3
                            x       y       z     vdW  Elec       q    Type
                         _______ _______ _______ _____ _____    ______ ____

>  <TORSDO>
F 2

$$$$
=
 OpenBabel11052413283D

 28 32  0  0  1  0  0  0  0  0999 V2000
  186.3540  178.0730  140.4880 C   0  0  2  0  0  3  0  0  0  0  0  0
  189.7940  177.3180  144.4160 C   0  0  0  0  0  2  0  0  0  0  0  0
  184.6930  180.1280  143.9700 N   0  0  0  0  0  1  0  0  0  0  0  0
  188.1920  176.9860  146.2960 C   0  0  1  0  0  3  0  0  0  0  0  0
  187.3950  178.1590  144.2270 C   0  0  0  0  0  0  0  0  0  0  0  0
  190.6830  176.7520  146.6860 C   0  0  0  0  0  0  0  0  0  0  0  0
  188.5850  177.9160  145.1340 C   0  0  2  0  0  3  0  0  0  0  0  0
  186.1490  178.5540  146.3150 C   0  0  0  0  0  2  0  0  0  0  0  0
  189.3220  176.9160  147.3200 C   0  0  0  0  0  2  0  0  0  0  0  0
  185.0400  178.1060  142.6150 C   0  0  1  0  0  3  0  0  0  0  0  0
  187.5040  177.9230  142.7330 C   0  0  0  0  0  2  0  0  0  0  0  0
  186.8680  177.3740  146.9830 C   0  0  0  0  0  2  0  0  0  0  0  0
  183.8840  178.6150  140.4660 C   0  0  0  0  0  3  0  0  0  0  0  0
  184.9440  178.6940  144.0250 C   0  0  1  0  0  3  0  0  0  0  0  0
  183.8130  178.3840  141.7840 C   0  0  0  0  0  3  0  0  0  0  0  0
  192.0550  176.4100  147.7220 Cl  0  0  0  0  0  0  0  0  0  0  0  0
  190.9050  177.0090  145.3850 C   0  0  0  0  0  3  0  0  0  0  0  0
  186.2050  178.4360  144.8160 C   0  0  0  0  0  0  0  0  0  0  0  0
  185.1960  178.7260  139.7320 C   0  0  0  0  0  2  0  0  0  0  0  0
  186.3460  178.5390  141.9460 C   0  0  1  0  0  3  0  0  0  0  0  0
  187.6630  178.4530  139.7960 C   0  0  0  0  0  2  0  0  0  0  0  0
  188.3100  177.2760  139.0640 C   0  0  2  0  0  3  0  0  0  0  0  0
  189.1220  176.8150  136.8390 N   0  0  0  0  0  0  0  0  0  0  0  0
  189.8120  177.3400  139.0980 C   0  0  0  0  0  2  0  0  0  0  0  0
  186.8030  176.2760  137.3640 C   0  0  0  0  0  1  0  0  0  0  0  0
  187.9470  177.2440  137.5940 C   0  0  1  0  0  3  0  0  0  0  0  0
  189.4300  177.8780  135.8970 C   0  0  0  0  0  1  0  0  0  0  0  0
  190.2400  176.7380  137.7770 C   0  0  0  0  0  2  0  0  0  0  0  0
  1 21  1  6  0  0  0
  1 20  1  0  0  0  0
  2 17  1  0  0  0  0
  4 12  1  1  0  0  0
  4  9  1  0  0  0  0
  5 18  2  0  0  0  0
  5  7  1  0  0  0  0
  6  9  1  0  0  0  0
  6 16  1  0  0  0  0
  7  2  1  6  0  0  0
  7  4  1  0  0  0  0
  8 12  1  0  0  0  0
 10 15  1  6  0  0  0
 10 14  1  0  0  0  0
 11  5  1  0  0  0  0
 13 15  2  0  0  0  0
 14  3  1  6  0  0  0
 14 18  1  0  0  0  0
 17  6  2  0  0  0  0
 18  8  1  0  0  0  0
 19 13  1  0  0  0  0
 19  1  1  0  0  0  0
 20 10  1  0  0  0  0
 20 11  1  1  0  0  0
 22 24  1  0  0  0  0
 22 21  1  6  0  0  0
 23 26  1  0  0  0  0
 23 28  1  0  0  0  0
 26 25  1  1  0  0  0
 26 22  1  0  0  0  0
 27 23  1  0  0  0  0
 28 24  1  0  0  0  0
M  END
>  <MODEL>
5

>  <REMARK>
 VINA RESULT:      -9.2      2.957      5.188
  Name = 
  2 active torsions:
  status: ('A' for Active; 'I' for Inactive)
    1  A    between atoms: C_1  and  C_2
    2  A    between atoms: C_2  and  C_3
                            x       y       z     vdW  Elec       q    Type
                         _______ _______ _______ _____ _____    ______ ____

>  <TORSDO>
F 2

$$$$
=
 OpenBabel11052413283D

 28 32  0  0  1  0  0  0  0  0999 V2000
  186.4800  178.5090  138.7840 C   0  0  2  0  0  3  0  0  0  0  0  0
  187.4490  177.6160  143.8920 C   0  0  0  0  0  2  0  0  0  0  0  0
  190.3670  176.5170  138.9530 N   0  0  0  0  0  1  0  0  0  0  0  0
  189.8920  178.1070  143.9300 C   0  0  1  0  0  3  0  0  0  0  0  0
  188.8100  177.5500  141.7370 C   0  0  0  0  0  0  0  0  0  0  0  0
  188.6700  177.5430  146.0750 C   0  0  0  0  0  0  0  0  0  0  0  0
  188.7890  177.2930  143.2310 C   0  0  2  0  0  3  0  0  0  0  0  0
  191.2440  177.2190  141.9260 C   0  0  0  0  0  2  0  0  0  0  0  0
  190.0110  177.6870  145.3930 C   0  0  0  0  0  2  0  0  0  0  0  0
  188.9650  178.5340  139.0620 C   0  0  1  0  0  3  0  0  0  0  0  0
  187.5480  177.9710  141.0100 C   0  0  0  0  0  2  0  0  0  0  0  0
  191.2650  178.0210  143.2340 C   0  0  0  0  0  2  0  0  0  0  0  0
  187.9980  178.7190  136.7720 C   0  0  0  0  0  3  0  0  0  0  0  0
  190.1740  177.7890  139.6350 C   0  0  1  0  0  3  0  0  0  0  0  0
  189.0710  178.7560  137.5740 C   0  0  0  0  0  3  0  0  0  0  0  0
  188.6350  177.3070  147.8120 Cl  0  0  0  0  0  0  0  0  0  0  0  0
  187.5220  177.4350  145.3860 C   0  0  0  0  0  3  0  0  0  0  0  0
  190.0170  177.5440  141.1180 C   0  0  0  0  0  0  0  0  0  0  0  0
  186.6260  178.3450  137.2700 C   0  0  0  0  0  2  0  0  0  0  0  0
  187.6670  177.8470  139.4900 C   0  0  1  0  0  3  0  0  0  0  0  0
  185.1580  177.8750  139.2170 C   0  0  0  0  0  2  0  0  0  0  0  0
  184.3060  178.8100  140.0760 C   0  0  2  0  0  3  0  0  0  0  0  0
  181.9750  179.0330  140.6590 N   0  0  0  0  0  0  0  0  0  0  0  0
  184.1290  178.2930  141.4770 C   0  0  0  0  0  2  0  0  0  0  0  0
  182.8060  180.2420  138.7120 C   0  0  0  0  0  1  0  0  0  0  0  0
  182.9020  178.9700  139.5320 C   0  0  1  0  0  3  0  0  0  0  0  0
  181.0330  177.9400  140.4930 C   0  0  0  0  0  1  0  0  0  0  0  0
  182.7430  178.7550  141.8720 C   0  0  0  0  0  2  0  0  0  0  0  0
  1 21  1  1  0  0  0
  1 20  1  0  0  0  0
  2 17  1  0  0  0  0
  4 12  1  6  0  0  0
  4  9  1  0  0  0  0
  5  7  1  0  0  0  0
  6 16  1  0  0  0  0
  7  2  1  1  0  0  0
  7  4  1  0  0  0  0
  8 12  1  0  0  0  0
  9  6  1  0  0  0  0
 10 15  1  6  0  0  0
 10 20  1  0  0  0  0
 10 14  1  0  0  0  0
 11  5  1  0  0  0  0
 13 19  1  0  0  0  0
 13 15  2  0  0  0  0
 14  3  1  6  0  0  0
 14 18  1  0  0  0  0
 17  6  2  0  0  0  0
 18  5  2  0  0  0  0
 18  8  1  0  0  0  0
 19  1  1  0  0  0  0
 20 11  1  1  0  0  0
 22 21  1  6  0  0  0
 22 24  1  0  0  0  0
 23 28  1  0  0  0  0
 24 28  1  0  0  0  0
 26 25  1  1  0  0  0
 26 22  1  0  0  0  0
 26 23  1  0  0  0  0
 27 23  1  0  0  0  0
M  END
>  <MODEL>
6

>  <REMARK>
 VINA RESULT:      -9.0      2.990      6.441
  Name = 
  2 active torsions:
  status: ('A' for Active; 'I' for Inactive)
    1  A    between atoms: C_1  and  C_2
    2  A    between atoms: C_2  and  C_3
                            x       y       z     vdW  Elec       q    Type
                         _______ _______ _______ _____ _____    ______ ____

>  <TORSDO>
F 2

$$$$
=
 OpenBabel11052413283D

 28 32  0  0  1  0  0  0  0  0999 V2000
  187.0230  178.3040  144.5270 C   0  0  2  0  0  3  0  0  0  0  0  0
  190.0520  176.9510  140.4250 C   0  0  0  0  0  2  0  0  0  0  0  0
  184.3170  177.8020  141.1310 N   0  0  0  0  0  1  0  0  0  0  0  0
  188.9070  178.2530  138.6330 C   0  0  1  0  0  3  0  0  0  0  0  0
  187.6450  177.7340  140.7370 C   0  0  0  0  0  0  0  0  0  0  0  0
  191.0090  176.9400  138.1130 C   0  0  0  0  0  0  0  0  0  0  0  0
  188.7000  177.2360  139.7690 C   0  0  2  0  0  3  0  0  0  0  0  0
  186.3340  178.2490  138.7170 C   0  0  0  0  0  2  0  0  0  0  0  0
  189.8050  177.6580  137.5500 C   0  0  0  0  0  2  0  0  0  0  0  0
  185.8750  179.1500  142.4720 C   0  0  1  0  0  3  0  0  0  0  0  0
  187.9350  177.8040  142.2240 C   0  0  0  0  0  2  0  0  0  0  0  0
  187.5950  178.7730  138.0160 C   0  0  0  0  0  2  0  0  0  0  0  0
  184.7350  179.3730  144.6780 C   0  0  0  0  0  3  0  0  0  0  0  0
  185.3850  178.7900  141.0670 C   0  0  1  0  0  3  0  0  0  0  0  0
  184.7660  179.6450  143.3660 C   0  0  0  0  0  3  0  0  0  0  0  0
  192.2640  176.4150  137.0060 Cl  0  0  0  0  0  0  0  0  0  0  0  0
  191.0820  176.5560  139.3990 C   0  0  0  0  0  3  0  0  0  0  0  0
  186.5090  178.2570  140.2110 C   0  0  0  0  0  0  0  0  0  0  0  0
  185.7370  178.4620  145.3400 C   0  0  0  0  0  2  0  0  0  0  0  0
  186.6740  177.9900  143.0690 C   0  0  1  0  0  3  0  0  0  0  0  0
  187.8570  177.1850  145.1470 C   0  0  0  0  0  2  0  0  0  0  0  0
  189.1730  177.6850  145.7420 C   0  0  2  0  0  3  0  0  0  0  0  0
  190.9230  176.8000  147.1480 N   0  0  0  0  0  0  0  0  0  0  0  0
  190.3530  177.3660  144.8660 C   0  0  0  0  0  2  0  0  0  0  0  0
  189.0550  177.9560  148.2070 C   0  0  0  0  0  1  0  0  0  0  0  0
  189.4840  177.0410  147.0760 C   0  0  1  0  0  3  0  0  0  0  0  0
  191.1040  175.3720  147.3440 C   0  0  0  0  0  1  0  0  0  0  0  0
  191.4870  177.1270  145.8400 C   0  0  0  0  0  2  0  0  0  0  0  0
  1 21  1  1  0  0  0
  1 19  1  0  0  0  0
  4  9  1  6  0  0  0
  4  7  1  0  0  0  0
  5 11  1  0  0  0  0
  6 17  2  0  0  0  0
  7  2  1  1  0  0  0
  7  5  1  0  0  0  0
  8 18  1  0  0  0  0
  9  6  1  0  0  0  0
 10 20  1  0  0  0  0
 10 15  1  1  0  0  0
 12  4  1  0  0  0  0
 12  8  1  0  0  0  0
 13 19  1  0  0  0  0
 14  3  1  1  0  0  0
 14 10  1  0  0  0  0
 15 13  2  0  0  0  0
 16  6  1  0  0  0  0
 17  2  1  0  0  0  0
 18  5  2  0  0  0  0
 18 14  1  0  0  0  0
 20 11  1  6  0  0  0
 20  1  1  0  0  0  0
 22 21  1  6  0  0  0
 22 26  1  0  0  0  0
 23 27  1  0  0  0  0
 24 22  1  0  0  0  0
 24 28  1  0  0  0  0
 26 23  1  0  0  0  0
 26 25  1  1  0  0  0
 28 23  1  0  0  0  0
M  END
>  <MODEL>
7

>  <REMARK>
 VINA RESULT:      -8.9      3.256      7.601
  Name = 
  2 active torsions:
  status: ('A' for Active; 'I' for Inactive)
    1  A    between atoms: C_1  and  C_2
    2  A    between atoms: C_2  and  C_3
                            x       y       z     vdW  Elec       q    Type
                         _______ _______ _______ _____ _____    ______ ____

>  <TORSDO>
F 2

$$$$
=
 OpenBabel11052413283D

 28 32  0  0  1  0  0  0  0  0999 V2000
  185.7280  178.0200  143.5960 C   0  0  2  0  0  3  0  0  0  0  0  0
  187.5790  178.0000  138.6560 C   0  0  0  0  0  2  0  0  0  0  0  0
  190.0150  178.8190  143.9010 N   0  0  0  0  0  1  0  0  0  0  0  0
  189.7550  176.8480  139.0460 C   0  0  1  0  0  3  0  0  0  0  0  0
  188.6040  177.9390  140.9890 C   0  0  0  0  0  0  0  0  0  0  0  0
  189.0440  177.4730  136.6970 C   0  0  0  0  0  0  0  0  0  0  0  0
  188.8560  178.0130  139.4960 C   0  0  2  0  0  3  0  0  0  0  0  0
  191.0310  177.5560  141.1680 C   0  0  0  0  0  2  0  0  0  0  0  0
  190.1820  177.0440  137.5930 C   0  0  0  0  0  2  0  0  0  0  0  0
  188.1120  177.2730  143.7210 C   0  0  1  0  0  3  0  0  0  0  0  0
  187.1900  177.9740  141.5360 C   0  0  0  0  0  2  0  0  0  0  0  0
  190.9880  176.6310  139.9440 C   0  0  0  0  0  2  0  0  0  0  0  0
  186.8410  177.6340  145.8350 C   0  0  0  0  0  3  0  0  0  0  0  0
  189.5500  177.5790  143.2940 C   0  0  1  0  0  3  0  0  0  0  0  0
  187.9520  177.2070  145.2190 C   0  0  0  0  0  3  0  0  0  0  0  0
  189.3080  177.5030  134.9640 Cl  0  0  0  0  0  0  0  0  0  0  0  0
  187.8970  177.9760  137.1830 C   0  0  0  0  0  3  0  0  0  0  0  0
  189.6680  177.6820  141.7920 C   0  0  0  0  0  0  0  0  0  0  0  0
  185.7150  178.3140  145.0970 C   0  0  0  0  0  2  0  0  0  0  0  0
  187.1390  178.2380  143.0410 C   0  0  1  0  0  3  0  0  0  0  0  0
  184.7190  178.9400  142.9110 C   0  0  0  0  0  2  0  0  0  0  0  0
  183.4610  178.2020  142.4510 C   0  0  2  0  0  3  0  0  0  0  0  0
  181.3180  178.7890  141.5120 N   0  0  0  0  0  0  0  0  0  0  0  0
  183.4960  177.8780  140.9830 C   0  0  0  0  0  2  0  0  0  0  0  0
  181.5180  178.6280  143.9360 C   0  0  0  0  0  1  0  0  0  0  0  0
  182.2070  179.0270  142.6450 C   0  0  1  0  0  3  0  0  0  0  0  0
  181.0800  180.0760  140.8820 C   0  0  0  0  0  1  0  0  0  0  0  0
  182.0490  177.9700  140.5470 C   0  0  0  0  0  2  0  0  0  0  0  0
  1 21  1  6  0  0  0
  1 19  1  0  0  0  0
  4  9  1  6  0  0  0
  4  7  1  0  0  0  0
  4 12  1  0  0  0  0
  5 11  1  0  0  0  0
  5 18  2  0  0  0  0
  6 17  2  0  0  0  0
  6  9  1  0  0  0  0
  7  2  1  6  0  0  0
  7  5  1  0  0  0  0
  8 18  1  0  0  0  0
 10 15  1  1  0  0  0
 12  8  1  0  0  0  0
 14 10  1  0  0  0  0
 14  3  1  1  0  0  0
 15 13  2  0  0  0  0
 16  6  1  0  0  0  0
 17  2  1  0  0  0  0
 18 14  1  0  0  0  0
 19 13  1  0  0  0  0
 20 11  1  6  0  0  0
 20  1  1  0  0  0  0
 20 10  1  0  0  0  0
 22 26  1  0  0  0  0
 22 21  1  6  0  0  0
 23 26  1  0  0  0  0
 24 22  1  0  0  0  0
 26 25  1  1  0  0  0
 27 23  1  0  0  0  0
 28 24  1  0  0  0  0
 28 23  1  0  0  0  0
M  END
>  <MODEL>
8

>  <REMARK>
 VINA RESULT:      -8.9      3.195      7.085
  Name = 
  2 active torsions:
  status: ('A' for Active; 'I' for Inactive)
    1  A    between atoms: C_1  and  C_2
    2  A    between atoms: C_2  and  C_3
                            x       y       z     vdW  Elec       q    Type
                         _______ _______ _______ _____ _____    ______ ____

>  <TORSDO>
F 2

$$$$
=
 OpenBabel11052413283D

 28 32  0  0  1  0  0  0  0  0999 V2000
  184.1860  178.4200  140.0110 C   0  0  2  0  0  3  0  0  0  0  0  0
  188.5320  177.6780  142.9080 C   0  0  0  0  0  2  0  0  0  0  0  0
  183.3860  180.2580  143.8950 N   0  0  0  0  0  1  0  0  0  0  0  0
  187.4700  177.1980  145.1110 C   0  0  1  0  0  3  0  0  0  0  0  0
  186.1340  178.4100  143.3690 C   0  0  0  0  0  0  0  0  0  0  0  0
  189.9860  177.0670  144.8510 C   0  0  0  0  0  0  0  0  0  0  0  0
  187.5230  178.1900  143.9350 C   0  0  2  0  0  3  0  0  0  0  0  0
  185.4440  178.6650  145.7200 C   0  0  0  0  0  2  0  0  0  0  0  0
  188.8240  177.1420  145.8150 C   0  0  0  0  0  2  0  0  0  0  0  0
  183.4520  178.3080  142.3990 C   0  0  1  0  0  3  0  0  0  0  0  0
  185.8700  178.2380  141.8860 C   0  0  0  0  0  2  0  0  0  0  0  0
  186.3500  177.4950  146.1270 C   0  0  0  0  0  2  0  0  0  0  0  0
  181.7730  178.8450  140.6360 C   0  0  0  0  0  3  0  0  0  0  0  0
  183.6940  178.8370  143.8150 C   0  0  1  0  0  3  0  0  0  0  0  0
  182.0450  178.5600  141.9170 C   0  0  0  0  0  3  0  0  0  0  0  0
  191.5870  176.7510  145.4920 Cl  0  0  0  0  0  0  0  0  0  0  0  0
  189.8630  177.3840  143.5510 C   0  0  0  0  0  3  0  0  0  0  0  0
  185.1220  178.6080  144.2510 C   0  0  0  0  0  0  0  0  0  0  0  0
  182.8520  179.0460  139.6030 C   0  0  0  0  0  2  0  0  0  0  0  0
  184.5300  178.8280  141.4460 C   0  0  1  0  0  3  0  0  0  0  0  0
  185.2630  178.8870  139.0320 C   0  0  0  0  0  2  0  0  0  0  0  0
  186.0030  177.7270  138.3660 C   0  0  2  0  0  3  0  0  0  0  0  0
  186.7460  177.1550  136.1430 N   0  0  0  0  0  0  0  0  0  0  0  0
  187.4870  177.9590  138.3010 C   0  0  0  0  0  2  0  0  0  0  0  0
  184.5350  176.4140  136.8530 C   0  0  0  0  0  1  0  0  0  0  0  0
  185.5710  177.5200  136.9290 C   0  0  1  0  0  3  0  0  0  0  0  0
  186.8810  178.1540  135.0960 C   0  0  0  0  0  1  0  0  0  0  0  0
  187.9130  177.2890  137.0130 C   0  0  0  0  0  2  0  0  0  0  0  0
  1 21  1  6  0  0  0
  1 20  1  0  0  0  0
  2 17  1  0  0  0  0
  4  9  1  1  0  0  0
  4 12  1  0  0  0  0
  5  7  1  0  0  0  0
  5 18  2  0  0  0  0
  6 16  1  0  0  0  0
  6  9  1  0  0  0  0
  7  2  1  6  0  0  0
  7  4  1  0  0  0  0
  8 12  1  0  0  0  0
 10 15  1  6  0  0  0
 10 14  1  0  0  0  0
 11  5  1  0  0  0  0
 13 15  2  0  0  0  0
 14  3  1  6  0  0  0
 14 18  1  0  0  0  0
 17  6  2  0  0  0  0
 18  8  1  0  0  0  0
 19  1  1  0  0  0  0
 19 13  1  0  0  0  0
 20 11  1  1  0  0  0
 20 10  1  0  0  0  0
 22 21  1  6  0  0  0
 23 26  1  0  0  0  0
 23 28  1  0  0  0  0
 24 22  1  0  0  0  0
 26 25  1  1  0  0  0
 26 22  1  0  0  0  0
 27 23  1  0  0  0  0
 28 24  1  0  0  0  0
M  END
>  <MODEL>
9

>  <REMARK>
 VINA RESULT:      -8.8      3.221      5.784
  Name = 
  2 active torsions:
  status: ('A' for Active; 'I' for Inactive)
    1  A    between atoms: C_1  and  C_2
    2  A    between atoms: C_2  and  C_3
                            x       y       z     vdW  Elec       q    Type
                         _______ _______ _______ _____ _____    ______ ____

>  <TORSDO>
F 2

$$$$
