=
 OpenBabel11052412433D

 25 27  0  0  1  0  0  0  0  0999 V2000
  186.9890  177.9640  145.3850 N   0  0  0  0  0  0  0  0  0  0  0  0
  188.1780  177.5300  144.9100 C   0  0  0  0  0  0  0  0  0  0  0  0
  188.8510  177.8490  148.4700 C   0  0  0  0  0  1  0  0  0  0  0  0
  188.3600  177.7940  147.0660 C   0  0  0  0  0  0  0  0  0  0  0  0
  190.3790  176.9580  145.7410 C   0  0  0  0  0  0  0  0  0  0  0  0
  191.5380  176.7940  147.0470 Cl  0  0  0  0  0  0  0  0  0  0  0  0
  188.5290  177.2030  143.5990 C   0  0  0  0  0  3  0  0  0  0  0  0
  187.1020  178.1280  146.7000 N   0  0  0  0  0  0  0  0  0  0  0  0
  190.7570  176.6290  144.4280 C   0  0  0  0  0  3  0  0  0  0  0  0
  189.8390  176.7480  143.3610 C   0  0  0  0  0  0  0  0  0  0  0  0
  189.0690  177.4060  145.9440 C   0  0  0  0  0  0  0  0  0  0  0  0
  185.7860  178.2450  144.6350 C   0  0  0  0  0  0  0  0  0  0  0  0
  183.4790  178.8220  143.1280 C   0  0  0  0  0  3  0  0  0  0  0  0
  184.5970  178.6680  145.2740 C   0  0  0  0  0  0  0  0  0  0  0  0
  183.4560  178.9510  144.5170 C   0  0  0  0  0  3  0  0  0  0  0  0
  184.6460  178.4060  142.4870 C   0  0  0  0  0  3  0  0  0  0  0  0
  184.5190  178.7860  146.6920 N   0  0  0  0  0  1  0  0  0  0  0  0
  185.7890  178.1210  143.2350 C   0  0  0  0  0  3  0  0  0  0  0  0
  190.2610  176.3850  141.9660 C   0  0  0  0  0  2  0  0  0  0  0  0
  190.6610  177.5390  141.1480 N   0  0  0  0  0  0  0  0  0  0  0  0
  192.0000  177.4850  140.9430 O   0  0  0  0  0  1  0  0  0  0  0  0
  190.0110  177.4770  139.8430 C   0  0  0  0  0  2  0  0  0  0  0  0
  189.0330  179.0720  138.3350 O   0  0  0  0  0  1  0  0  0  0  0  0
  187.6220  178.2060  140.0540 C   0  0  0  0  0  1  0  0  0  0  0  0
  189.0250  178.6260  139.6570 C   0  0  1  0  0  3  0  0  0  0  0  0
  1  8  1  0  0  0  0
  2  1  1  0  0  0  0
  2 11  1  0  0  0  0
  4  3  1  0  0  0  0
  5 11  2  0  0  0  0
  5  6  1  0  0  0  0
  7  2  2  0  0  0  0
  8  4  2  0  0  0  0
  9  5  1  0  0  0  0
 10  7  1  0  0  0  0
 10  9  2  0  0  0  0
 11  4  1  0  0  0  0
 12 14  1  0  0  0  0
 12  1  1  0  0  0  0
 13 15  1  0  0  0  0
 14 17  1  0  0  0  0
 15 14  2  0  0  0  0
 16 13  2  0  0  0  0
 16 18  1  0  0  0  0
 18 12  2  0  0  0  0
 19 10  1  0  0  0  0
 20 19  1  0  0  0  0
 21 20  1  0  0  0  0
 22 20  1  0  0  0  0
 23 25  1  0  0  0  0
 25 22  1  0  0  0  0
 25 24  1  6  0  0  0
M  END
>  <MODEL>
1

>  <REMARK>
 VINA RESULT:      -9.5      0.000      0.000
  Name = 
  5 active torsions:
  status: ('A' for Active; 'I' for Inactive)
    1  A    between atoms: N_1  and  C_5
    2  A    between atoms: C_2  and  N_15
    3  A    between atoms: C_2  and  C_21
    4  A    between atoms: C_6  and  N_15
    5  A    between atoms: C_6  and  C_23
                            x       y       z     vdW  Elec       q    Type
                         _______ _______ _______ _____ _____    ______ ____

>  <TORSDO>
F 5

$$$$
=
 OpenBabel11052412433D

 25 27  0  0  1  0  0  0  0  0999 V2000
  186.9540  177.9560  145.4230 N   0  0  0  0  0  0  0  0  0  0  0  0
  188.1860  177.5180  145.0790 C   0  0  0  0  0  0  0  0  0  0  0  0
  188.5040  177.9390  148.6780 C   0  0  0  0  0  1  0  0  0  0  0  0
  188.1540  177.8420  147.2350 C   0  0  0  0  0  0  0  0  0  0  0  0
  190.2970  176.9860  146.1380 C   0  0  0  0  0  0  0  0  0  0  0  0
  191.3230  176.8660  147.5550 Cl  0  0  0  0  0  0  0  0  0  0  0  0
  188.6660  177.1580  143.8190 C   0  0  0  0  0  3  0  0  0  0  0  0
  186.9360  178.1560  146.7380 N   0  0  0  0  0  0  0  0  0  0  0  0
  190.8040  176.6240  144.8780 C   0  0  0  0  0  3  0  0  0  0  0  0
  189.9950  176.7080  143.7230 C   0  0  0  0  0  0  0  0  0  0  0  0
  188.9710  177.4290  146.1990 C   0  0  0  0  0  0  0  0  0  0  0  0
  185.8290  178.2080  144.5510 C   0  0  0  0  0  0  0  0  0  0  0  0
  183.6790  178.7250  142.8090 C   0  0  0  0  0  3  0  0  0  0  0  0
  184.5840  178.6460  145.0580 C   0  0  0  0  0  0  0  0  0  0  0  0
  183.5210  178.8990  144.1850 C   0  0  0  0  0  3  0  0  0  0  0  0
  184.9030  178.2930  142.2980 C   0  0  0  0  0  3  0  0  0  0  0  0
  184.3690  178.8110  146.4570 N   0  0  0  0  0  1  0  0  0  0  0  0
  185.9680  178.0370  143.1630 C   0  0  0  0  0  3  0  0  0  0  0  0
  190.5550  176.3100  142.3870 C   0  0  0  0  0  2  0  0  0  0  0  0
  190.5490  177.3950  141.3950 N   0  0  0  0  0  0  0  0  0  0  0  0
  191.8180  177.5960  140.9620 O   0  0  0  0  0  1  0  0  0  0  0  0
  189.7430  177.0130  140.2400 C   0  0  0  0  0  2  0  0  0  0  0  0
  190.7600  175.4280  138.7490 O   0  0  0  0  0  1  0  0  0  0  0  0
  190.0180  177.4850  137.7930 C   0  0  0  0  0  1  0  0  0  0  0  0
  190.6100  176.7910  139.0050 C   0  0  1  0  0  3  0  0  0  0  0  0
  1  8  1  0  0  0  0
  2  1  1  0  0  0  0
  2 11  1  0  0  0  0
  4  3  1  0  0  0  0
  5 11  2  0  0  0  0
  5  6  1  0  0  0  0
  7  2  2  0  0  0  0
  8  4  2  0  0  0  0
  9  5  1  0  0  0  0
 10  7  1  0  0  0  0
 10  9  2  0  0  0  0
 11  4  1  0  0  0  0
 12 14  1  0  0  0  0
 12  1  1  0  0  0  0
 13 15  1  0  0  0  0
 14 17  1  0  0  0  0
 15 14  2  0  0  0  0
 16 13  2  0  0  0  0
 16 18  1  0  0  0  0
 18 12  2  0  0  0  0
 19 10  1  0  0  0  0
 20 19  1  0  0  0  0
 21 20  1  0  0  0  0
 22 20  1  0  0  0  0
 23 25  1  0  0  0  0
 25 24  1  6  0  0  0
 25 22  1  0  0  0  0
M  END
>  <MODEL>
2

>  <REMARK>
 VINA RESULT:      -9.3      1.069      1.214
  Name = 
  5 active torsions:
  status: ('A' for Active; 'I' for Inactive)
    1  A    between atoms: N_1  and  C_5
    2  A    between atoms: C_2  and  N_15
    3  A    between atoms: C_2  and  C_21
    4  A    between atoms: C_6  and  N_15
    5  A    between atoms: C_6  and  C_23
                            x       y       z     vdW  Elec       q    Type
                         _______ _______ _______ _____ _____    ______ ____

>  <TORSDO>
F 5

$$$$
=
 OpenBabel11052412433D

 25 27  0  0  1  0  0  0  0  0999 V2000
  187.7330  177.9400  144.4430 N   0  0  0  0  0  0  0  0  0  0  0  0
  186.6890  178.1990  143.6250 C   0  0  0  0  0  0  0  0  0  0  0  0
  185.1120  178.2240  146.9020 C   0  0  0  0  0  1  0  0  0  0  0  0
  185.9550  178.1660  145.6780 C   0  0  0  0  0  0  0  0  0  0  0  0
  184.3140  178.6440  143.7780 C   0  0  0  0  0  0  0  0  0  0  0  0
  182.8400  178.8420  144.7080 Cl  0  0  0  0  0  0  0  0  0  0  0  0
  186.6800  178.3380  142.2360 C   0  0  0  0  0  3  0  0  0  0  0  0
  187.2840  177.9170  145.6950 N   0  0  0  0  0  0  0  0  0  0  0  0
  184.2800  178.7820  142.3800 C   0  0  0  0  0  3  0  0  0  0  0  0
  185.4550  178.6330  141.6110 C   0  0  0  0  0  0  0  0  0  0  0  0
  185.5480  178.3520  144.3690 C   0  0  0  0  0  0  0  0  0  0  0  0
  189.1080  177.6940  144.0730 C   0  0  0  0  0  0  0  0  0  0  0  0
  191.7930  177.2790  143.3350 C   0  0  0  0  0  3  0  0  0  0  0  0
  189.4930  176.5130  143.3970 C   0  0  0  0  0  0  0  0  0  0  0  0
  190.8290  176.3150  143.0360 C   0  0  0  0  0  3  0  0  0  0  0  0
  191.4250  178.4480  144.0020 C   0  0  0  0  0  3  0  0  0  0  0  0
  188.5480  175.4900  143.0960 N   0  0  0  0  0  1  0  0  0  0  0  0
  190.0930  178.6520  144.3660 C   0  0  0  0  0  3  0  0  0  0  0  0
  185.3980  178.7910  140.1180 C   0  0  0  0  0  2  0  0  0  0  0  0
  184.0920  179.2460  139.6200 N   0  0  0  0  0  0  0  0  0  0  0  0
  184.2500  180.4500  139.0170 O   0  0  0  0  0  1  0  0  0  0  0  0
  183.5850  178.3130  138.6180 C   0  0  0  0  0  2  0  0  0  0  0  0
  182.8150  176.4200  139.8810 O   0  0  0  0  0  1  0  0  0  0  0  0
  181.4950  178.4050  140.0000 C   0  0  0  0  0  1  0  0  0  0  0  0
  182.3890  177.5260  139.1450 C   0  0  1  0  0  3  0  0  0  0  0  0
  1  8  1  0  0  0  0
  2 11  1  0  0  0  0
  2  1  1  0  0  0  0
  4  8  2  0  0  0  0
  4  3  1  0  0  0  0
  5 11  2  0  0  0  0
  5  6  1  0  0  0  0
  7  2  2  0  0  0  0
  9  5  1  0  0  0  0
 10  7  1  0  0  0  0
 10  9  2  0  0  0  0
 11  4  1  0  0  0  0
 12 18  1  0  0  0  0
 12  1  1  0  0  0  0
 13 16  1  0  0  0  0
 14 12  2  0  0  0  0
 15 13  2  0  0  0  0
 15 14  1  0  0  0  0
 16 18  2  0  0  0  0
 17 14  1  0  0  0  0
 19 10  1  0  0  0  0
 20 19  1  0  0  0  0
 21 20  1  0  0  0  0
 22 25  1  0  0  0  0
 22 20  1  0  0  0  0
 25 23  1  0  0  0  0
 25 24  1  1  0  0  0
M  END
>  <MODEL>
3

>  <REMARK>
 VINA RESULT:      -8.9      3.417      5.915
  Name = 
  5 active torsions:
  status: ('A' for Active; 'I' for Inactive)
    1  A    between atoms: N_1  and  C_5
    2  A    between atoms: C_2  and  N_15
    3  A    between atoms: C_2  and  C_21
    4  A    between atoms: C_6  and  N_15
    5  A    between atoms: C_6  and  C_23
                            x       y       z     vdW  Elec       q    Type
                         _______ _______ _______ _____ _____    ______ ____

>  <TORSDO>
F 5

$$$$
=
 OpenBabel11052412433D

 25 27  0  0  1  0  0  0  0  0999 V2000
  186.9900  177.7470  142.5860 N   0  0  0  0  0  0  0  0  0  0  0  0
  186.6000  177.9210  143.8690 C   0  0  0  0  0  0  0  0  0  0  0  0
  183.5730  178.7530  142.0310 C   0  0  0  0  0  1  0  0  0  0  0  0
  184.9070  178.3760  142.5720 C   0  0  0  0  0  0  0  0  0  0  0  0
  184.6170  178.5550  145.1050 C   0  0  0  0  0  0  0  0  0  0  0  0
  182.9390  179.0630  145.1720 Cl  0  0  0  0  0  0  0  0  0  0  0  0
  187.3330  177.7270  145.0400 C   0  0  0  0  0  3  0  0  0  0  0  0
  185.9570  178.0270  141.7960 N   0  0  0  0  0  0  0  0  0  0  0  0
  185.3380  178.3720  146.2970 C   0  0  0  0  0  3  0  0  0  0  0  0
  186.6880  177.9580  146.2680 C   0  0  0  0  0  0  0  0  0  0  0  0
  185.2870  178.3160  143.9000 C   0  0  0  0  0  0  0  0  0  0  0  0
  188.2940  177.3550  142.1030 C   0  0  0  0  0  0  0  0  0  0  0  0
  190.8580  176.5930  141.2250 C   0  0  0  0  0  3  0  0  0  0  0  0
  188.8190  177.8630  140.8920 C   0  0  0  0  0  0  0  0  0  0  0  0
  190.0930  177.4780  140.4630 C   0  0  0  0  0  3  0  0  0  0  0  0
  190.3510  176.0860  142.4210 C   0  0  0  0  0  3  0  0  0  0  0  0
  188.0630  178.7460  140.0690 N   0  0  0  0  0  1  0  0  0  0  0  0
  189.0800  176.4650  142.8550 C   0  0  0  0  0  3  0  0  0  0  0  0
  187.4380  177.7620  147.5540 C   0  0  0  0  0  2  0  0  0  0  0  0
  188.8930  177.9240  147.4230 N   0  0  0  0  0  0  0  0  0  0  0  0
  189.3470  178.6530  148.4720 O   0  0  0  0  0  1  0  0  0  0  0  0
  189.5490  176.6210  147.4730 C   0  0  0  0  0  2  0  0  0  0  0  0
  191.7040  175.5630  147.5800 O   0  0  0  0  0  1  0  0  0  0  0  0
  191.3370  177.0830  145.7770 C   0  0  0  0  0  1  0  0  0  0  0  0
  191.0500  176.7440  147.2280 C   0  0  1  0  0  3  0  0  0  0  0  0
  1  2  1  0  0  0  0
  2 11  2  0  0  0  0
  2  7  1  0  0  0  0
  3  4  1  0  0  0  0
  4 11  1  0  0  0  0
  5  6  1  0  0  0  0
  5  9  2  0  0  0  0
  7 10  2  0  0  0  0
  8  4  2  0  0  0  0
  8  1  1  0  0  0  0
 10  9  1  0  0  0  0
 10 19  1  0  0  0  0
 11  5  1  0  0  0  0
 12  1  1  0  0  0  0
 12 18  1  0  0  0  0
 13 16  1  0  0  0  0
 14 12  2  0  0  0  0
 15 14  1  0  0  0  0
 15 13  2  0  0  0  0
 16 18  2  0  0  0  0
 17 14  1  0  0  0  0
 20 22  1  0  0  0  0
 20 19  1  0  0  0  0
 20 21  1  0  0  0  0
 25 24  1  6  0  0  0
 25 22  1  0  0  0  0
 25 23  1  0  0  0  0
M  END
>  <MODEL>
4

>  <REMARK>
 VINA RESULT:      -8.9      3.453      6.474
  Name = 
  5 active torsions:
  status: ('A' for Active; 'I' for Inactive)
    1  A    between atoms: N_1  and  C_5
    2  A    between atoms: C_2  and  N_15
    3  A    between atoms: C_2  and  C_21
    4  A    between atoms: C_6  and  N_15
    5  A    between atoms: C_6  and  C_23
                            x       y       z     vdW  Elec       q    Type
                         _______ _______ _______ _____ _____    ______ ____

>  <TORSDO>
F 5

$$$$
=
 OpenBabel11052412433D

 25 27  0  0  1  0  0  0  0  0999 V2000
  186.1200  178.2600  144.6920 N   0  0  0  0  0  0  0  0  0  0  0  0
  186.4120  178.3160  143.3730 C   0  0  0  0  0  0  0  0  0  0  0  0
  182.8230  178.9070  143.3860 C   0  0  0  0  0  1  0  0  0  0  0  0
  184.2710  178.6490  143.6140 C   0  0  0  0  0  0  0  0  0  0  0  0
  185.2800  178.6880  141.2660 C   0  0  0  0  0  0  0  0  0  0  0  0
  183.8300  179.0030  140.3300 Cl  0  0  0  0  0  0  0  0  0  0  0  0
  187.6510  178.1860  142.7450 C   0  0  0  0  0  3  0  0  0  0  0  0
  184.8140  178.4600  144.8370 N   0  0  0  0  0  0  0  0  0  0  0  0
  186.5160  178.5540  140.6120 C   0  0  0  0  0  3  0  0  0  0  0  0
  187.6980  178.3060  141.3450 C   0  0  0  0  0  0  0  0  0  0  0  0
  185.2680  178.5640  142.6600 C   0  0  0  0  0  0  0  0  0  0  0  0
  187.0260  178.0020  145.7880 C   0  0  0  0  0  0  0  0  0  0  0  0
  188.7960  177.4360  147.9030 C   0  0  0  0  0  3  0  0  0  0  0  0
  186.7930  178.5270  147.0810 C   0  0  0  0  0  0  0  0  0  0  0  0
  187.6790  178.2420  148.1240 C   0  0  0  0  0  3  0  0  0  0  0  0
  189.0360  176.9120  146.6330 C   0  0  0  0  0  3  0  0  0  0  0  0
  185.6810  179.3780  147.3460 N   0  0  0  0  0  1  0  0  0  0  0  0
  188.1570  177.1930  145.5860 C   0  0  0  0  0  3  0  0  0  0  0  0
  189.0100  178.1730  140.6260 C   0  0  0  0  0  2  0  0  0  0  0  0
  189.8180  177.0310  141.0750 N   0  0  0  0  0  0  0  0  0  0  0  0
  190.1810  176.3010  139.9910 O   0  0  0  0  0  1  0  0  0  0  0  0
  191.0410  177.5030  141.7180 C   0  0  0  0  0  2  0  0  0  0  0  0
  191.8130  176.2210  143.5970 O   0  0  0  0  0  1  0  0  0  0  0  0
  191.4110  178.5450  143.9680 C   0  0  0  0  0  1  0  0  0  0  0  0
  190.9930  177.2880  143.2270 C   0  0  1  0  0  3  0  0  0  0  0  0
  1  8  1  0  0  0  0
  1 12  1  0  0  0  0
  2  1  1  0  0  0  0
  3  4  1  0  0  0  0
  4  8  2  0  0  0  0
  5 11  1  0  0  0  0
  6  5  1  0  0  0  0
  7  2  1  0  0  0  0
  9  5  2  0  0  0  0
  9 10  1  0  0  0  0
 10  7  2  0  0  0  0
 11  2  2  0  0  0  0
 11  4  1  0  0  0  0
 12 14  1  0  0  0  0
 13 15  1  0  0  0  0
 14 17  1  0  0  0  0
 14 15  2  0  0  0  0
 16 13  2  0  0  0  0
 18 12  2  0  0  0  0
 18 16  1  0  0  0  0
 19 20  1  0  0  0  0
 19 10  1  0  0  0  0
 20 22  1  0  0  0  0
 21 20  1  0  0  0  0
 22 25  1  0  0  0  0
 25 23  1  0  0  0  0
 25 24  1  1  0  0  0
M  END
>  <MODEL>
5

>  <REMARK>
 VINA RESULT:      -8.7      2.540      4.905
  Name = 
  5 active torsions:
  status: ('A' for Active; 'I' for Inactive)
    1  A    between atoms: N_1  and  C_5
    2  A    between atoms: C_2  and  N_15
    3  A    between atoms: C_2  and  C_21
    4  A    between atoms: C_6  and  N_15
    5  A    between atoms: C_6  and  C_23
                            x       y       z     vdW  Elec       q    Type
                         _______ _______ _______ _____ _____    ______ ____

>  <TORSDO>
F 5

$$$$
=
 OpenBabel11052412433D

 25 27  0  0  1  0  0  0  0  0999 V2000
  186.9230  177.8510  144.8470 N   0  0  0  0  0  0  0  0  0  0  0  0
  188.0240  177.5760  144.1130 C   0  0  0  0  0  0  0  0  0  0  0  0
  189.2630  177.2050  147.5120 C   0  0  0  0  0  1  0  0  0  0  0  0
  188.5510  177.4100  146.2220 C   0  0  0  0  0  0  0  0  0  0  0  0
  190.3380  176.9520  144.4530 C   0  0  0  0  0  0  0  0  0  0  0  0
  191.6970  176.5830  145.5000 Cl  0  0  0  0  0  0  0  0  0  0  0  0
  188.1620  177.5350  142.7250 C   0  0  0  0  0  3  0  0  0  0  0  0
  187.2460  177.7530  146.1340 N   0  0  0  0  0  0  0  0  0  0  0  0
  190.5020  176.9100  143.0580 C   0  0  0  0  0  3  0  0  0  0  0  0
  189.4210  177.1990  142.1960 C   0  0  0  0  0  0  0  0  0  0  0  0
  189.0730  177.2890  144.9470 C   0  0  0  0  0  0  0  0  0  0  0  0
  185.6110  178.2210  144.3690 C   0  0  0  0  0  0  0  0  0  0  0  0
  183.0810  178.9700  143.3850 C   0  0  0  0  0  3  0  0  0  0  0  0
  184.6100  178.7000  145.2480 C   0  0  0  0  0  0  0  0  0  0  0  0
  183.3570  179.0680  144.7500 C   0  0  0  0  0  3  0  0  0  0  0  0
  184.0600  178.4990  142.5090 C   0  0  0  0  0  3  0  0  0  0  0  0
  184.8380  178.7900  146.6510 N   0  0  0  0  0  1  0  0  0  0  0  0
  185.3130  178.1290  142.9990 C   0  0  0  0  0  3  0  0  0  0  0  0
  189.6160  177.1430  140.7080 C   0  0  0  0  0  2  0  0  0  0  0  0
  188.4990  177.7130  139.9420 N   0  0  0  0  0  0  0  0  0  0  0  0
  188.7620  179.0200  139.6950 O   0  0  0  0  0  1  0  0  0  0  0  0
  188.3760  177.0370  138.6540 C   0  0  0  0  0  2  0  0  0  0  0  0
  188.6210  178.0640  136.4960 O   0  0  0  0  0  1  0  0  0  0  0  0
  186.4100  177.4540  137.1560 C   0  0  0  0  0  1  0  0  0  0  0  0
  187.7720  177.9560  137.5980 C   0  0  1  0  0  3  0  0  0  0  0  0
  1  8  1  0  0  0  0
  2  1  1  0  0  0  0
  2 11  1  0  0  0  0
  4  3  1  0  0  0  0
  5 11  2  0  0  0  0
  5  6  1  0  0  0  0
  7  2  2  0  0  0  0
  8  4  2  0  0  0  0
  9  5  1  0  0  0  0
 10  7  1  0  0  0  0
 10  9  2  0  0  0  0
 11  4  1  0  0  0  0
 12  1  1  0  0  0  0
 12 14  1  0  0  0  0
 13 15  1  0  0  0  0
 14 17  1  0  0  0  0
 15 14  2  0  0  0  0
 16 18  1  0  0  0  0
 16 13  2  0  0  0  0
 18 12  2  0  0  0  0
 19 10  1  0  0  0  0
 20 19  1  0  0  0  0
 21 20  1  0  0  0  0
 22 20  1  0  0  0  0
 23 25  1  0  0  0  0
 25 24  1  6  0  0  0
 25 22  1  0  0  0  0
M  END
>  <MODEL>
6

>  <REMARK>
 VINA RESULT:      -8.6      1.342      1.595
  Name = 
  5 active torsions:
  status: ('A' for Active; 'I' for Inactive)
    1  A    between atoms: N_1  and  C_5
    2  A    between atoms: C_2  and  N_15
    3  A    between atoms: C_2  and  C_21
    4  A    between atoms: C_6  and  N_15
    5  A    between atoms: C_6  and  C_23
                            x       y       z     vdW  Elec       q    Type
                         _______ _______ _______ _____ _____    ______ ____

>  <TORSDO>
F 5

$$$$
=
 OpenBabel11052412433D

 25 27  0  0  1  0  0  0  0  0999 V2000
  187.5990  178.0600  142.3790 N   0  0  0  0  0  0  0  0  0  0  0  0
  188.9000  177.8310  142.6630 C   0  0  0  0  0  0  0  0  0  0  0  0
  188.8670  177.6370  139.0310 C   0  0  0  0  0  1  0  0  0  0  0  0
  188.6500  177.7570  140.4980 C   0  0  0  0  0  0  0  0  0  0  0  0
  190.9760  177.3960  141.4950 C   0  0  0  0  0  0  0  0  0  0  0  0
  191.8900  177.1440  140.0200 Cl  0  0  0  0  0  0  0  0  0  0  0  0
  189.5320  177.8060  143.9070 C   0  0  0  0  0  3  0  0  0  0  0  0
  187.4470  178.0120  141.0580 N   0  0  0  0  0  0  0  0  0  0  0  0
  191.6330  177.3600  142.7370 C   0  0  0  0  0  3  0  0  0  0  0  0
  190.9180  177.5650  143.9380 C   0  0  0  0  0  0  0  0  0  0  0  0
  189.5980  177.6390  141.4990 C   0  0  0  0  0  0  0  0  0  0  0  0
  186.5170  178.2920  143.3090 C   0  0  0  0  0  0  0  0  0  0  0  0
  184.4200  178.6840  145.1470 C   0  0  0  0  0  3  0  0  0  0  0  0
  185.3380  178.9700  142.9200 C   0  0  0  0  0  0  0  0  0  0  0  0
  184.3030  179.1610  143.8400 C   0  0  0  0  0  3  0  0  0  0  0  0
  185.5780  178.0140  145.5420 C   0  0  0  0  0  3  0  0  0  0  0  0
  185.1860  179.4980  141.6060 N   0  0  0  0  0  1  0  0  0  0  0  0
  186.6170  177.8200  144.6290 C   0  0  0  0  0  3  0  0  0  0  0  0
  191.6410  177.5280  145.2540 C   0  0  0  0  0  2  0  0  0  0  0  0
  191.1390  176.5010  146.1780 N   0  0  0  0  0  0  0  0  0  0  0  0
  192.1410  175.6280  146.4450 O   0  0  0  0  0  1  0  0  0  0  0  0
  190.7390  177.1140  147.4410 C   0  0  0  0  0  2  0  0  0  0  0  0
  188.4580  176.3610  147.4240 O   0  0  0  0  0  1  0  0  0  0  0  0
  188.9210  178.3730  148.6210 C   0  0  0  0  0  1  0  0  0  0  0  0
  189.2630  177.5000  147.4290 C   0  0  1  0  0  3  0  0  0  0  0  0
  1  2  1  0  0  0  0
  1 12  1  0  0  0  0
  2  7  1  0  0  0  0
  3  4  1  0  0  0  0
  4  8  2  0  0  0  0
  4 11  1  0  0  0  0
  5 11  1  0  0  0  0
  5  9  2  0  0  0  0
  6  5  1  0  0  0  0
  7 10  2  0  0  0  0
  8  1  1  0  0  0  0
  9 10  1  0  0  0  0
 10 19  1  0  0  0  0
 11  2  2  0  0  0  0
 12 18  1  0  0  0  0
 13 16  1  0  0  0  0
 14 12  2  0  0  0  0
 14 15  1  0  0  0  0
 15 13  2  0  0  0  0
 17 14  1  0  0  0  0
 18 16  2  0  0  0  0
 19 20  1  0  0  0  0
 20 21  1  0  0  0  0
 20 22  1  0  0  0  0
 23 25  1  0  0  0  0
 25 22  1  0  0  0  0
 25 24  1  1  0  0  0
M  END
>  <MODEL>
7

>  <REMARK>
 VINA RESULT:      -8.6      3.227      5.253
  Name = 
  5 active torsions:
  status: ('A' for Active; 'I' for Inactive)
    1  A    between atoms: N_1  and  C_5
    2  A    between atoms: C_2  and  N_15
    3  A    between atoms: C_2  and  C_21
    4  A    between atoms: C_6  and  N_15
    5  A    between atoms: C_6  and  C_23
                            x       y       z     vdW  Elec       q    Type
                         _______ _______ _______ _____ _____    ______ ____

>  <TORSDO>
F 5

$$$$
=
 OpenBabel11052412433D

 25 27  0  0  1  0  0  0  0  0999 V2000
  188.0730  177.6710  145.2000 N   0  0  0  0  0  0  0  0  0  0  0  0
  187.7600  177.8810  143.9020 C   0  0  0  0  0  0  0  0  0  0  0  0
  184.6050  178.5850  145.5700 C   0  0  0  0  0  1  0  0  0  0  0  0
  185.9780  178.2520  145.1030 C   0  0  0  0  0  0  0  0  0  0  0  0
  185.8540  178.5500  142.5670 C   0  0  0  0  0  0  0  0  0  0  0  0
  184.1740  179.0270  142.4110 Cl  0  0  0  0  0  0  0  0  0  0  0  0
  188.5820  177.7890  142.7790 C   0  0  0  0  0  3  0  0  0  0  0  0
  186.9840  177.8940  145.9320 N   0  0  0  0  0  0  0  0  0  0  0  0
  186.6620  178.4580  141.4210 C   0  0  0  0  0  3  0  0  0  0  0  0
  188.0200  178.0810  141.5230 C   0  0  0  0  0  0  0  0  0  0  0  0
  186.4450  178.2540  143.8010 C   0  0  0  0  0  0  0  0  0  0  0  0
  189.3420  177.2480  145.7480 C   0  0  0  0  0  0  0  0  0  0  0  0
  191.8180  176.3790  146.7670 C   0  0  0  0  0  3  0  0  0  0  0  0
  189.5550  177.1640  147.1440 C   0  0  0  0  0  0  0  0  0  0  0  0
  190.7890  176.7320  147.6400 C   0  0  0  0  0  3  0  0  0  0  0  0
  191.6190  176.4580  145.3880 C   0  0  0  0  0  3  0  0  0  0  0  0
  188.5420  177.5410  148.0720 N   0  0  0  0  0  1  0  0  0  0  0  0
  190.3910  176.8880  144.8850 C   0  0  0  0  0  3  0  0  0  0  0  0
  188.8670  177.9950  140.2860 C   0  0  0  0  0  2  0  0  0  0  0  0
  188.2100  178.5180  139.0800 N   0  0  0  0  0  0  0  0  0  0  0  0
  189.0550  179.3780  138.4610 O   0  0  0  0  0  1  0  0  0  0  0  0
  187.9290  177.4280  138.1500 C   0  0  0  0  0  2  0  0  0  0  0  0
  185.8600  178.6360  137.9820 O   0  0  0  0  0  1  0  0  0  0  0  0
  187.0210  178.1970  135.9440 C   0  0  0  0  0  1  0  0  0  0  0  0
  186.6700  177.7030  137.3350 C   0  0  1  0  0  3  0  0  0  0  0  0
  1 12  1  0  0  0  0
  1  8  1  0  0  0  0
  2  1  1  0  0  0  0
  4  3  1  0  0  0  0
  4  8  2  0  0  0  0
  5 11  2  0  0  0  0
  6  5  1  0  0  0  0
  7  2  2  0  0  0  0
  9 10  2  0  0  0  0
  9  5  1  0  0  0  0
 10  7  1  0  0  0  0
 11  2  1  0  0  0  0
 11  4  1  0  0  0  0
 12 14  1  0  0  0  0
 13 15  1  0  0  0  0
 14 15  2  0  0  0  0
 14 17  1  0  0  0  0
 16 13  2  0  0  0  0
 18 16  1  0  0  0  0
 18 12  2  0  0  0  0
 19 10  1  0  0  0  0
 20 19  1  0  0  0  0
 21 20  1  0  0  0  0
 22 20  1  0  0  0  0
 25 24  1  6  0  0  0
 25 23  1  0  0  0  0
 25 22  1  0  0  0  0
M  END
>  <MODEL>
8

>  <REMARK>
 VINA RESULT:      -8.4      2.527      4.885
  Name = 
  5 active torsions:
  status: ('A' for Active; 'I' for Inactive)
    1  A    between atoms: N_1  and  C_5
    2  A    between atoms: C_2  and  N_15
    3  A    between atoms: C_2  and  C_21
    4  A    between atoms: C_6  and  N_15
    5  A    between atoms: C_6  and  C_23
                            x       y       z     vdW  Elec       q    Type
                         _______ _______ _______ _____ _____    ______ ____

>  <TORSDO>
F 5

$$$$
=
 OpenBabel11052412433D

 25 27  0  0  1  0  0  0  0  0999 V2000
  186.8110  177.8830  144.3380 N   0  0  0  0  0  0  0  0  0  0  0  0
  187.8160  177.8300  143.4360 C   0  0  0  0  0  0  0  0  0  0  0  0
  189.5040  176.8820  146.5140 C   0  0  0  0  0  1  0  0  0  0  0  0
  188.6220  177.2890  145.3880 C   0  0  0  0  0  0  0  0  0  0  0  0
  190.1780  177.3040  143.3610 C   0  0  0  0  0  0  0  0  0  0  0  0
  191.6760  176.8270  144.1390 Cl  0  0  0  0  0  0  0  0  0  0  0  0
  187.7710  178.0720  142.0620 C   0  0  0  0  0  3  0  0  0  0  0  0
  187.3040  177.5560  145.5290 N   0  0  0  0  0  0  0  0  0  0  0  0
  190.1580  177.5490  141.9770 C   0  0  0  0  0  3  0  0  0  0  0  0
  188.9630  177.9290  141.3280 C   0  0  0  0  0  0  0  0  0  0  0  0
  188.9760  177.4540  144.0620 C   0  0  0  0  0  0  0  0  0  0  0  0
  185.4330  178.2530  144.1070 C   0  0  0  0  0  0  0  0  0  0  0  0
  182.7670  179.0050  143.6030 C   0  0  0  0  0  3  0  0  0  0  0  0
  184.5810  178.6380  145.1690 C   0  0  0  0  0  0  0  0  0  0  0  0
  183.2580  179.0090  144.9090 C   0  0  0  0  0  3  0  0  0  0  0  0
  183.5970  178.6280  142.5470 C   0  0  0  0  0  3  0  0  0  0  0  0
  185.0320  178.6290  146.5210 N   0  0  0  0  0  1  0  0  0  0  0  0
  184.9190  178.2560  142.7990 C   0  0  0  0  0  3  0  0  0  0  0  0
  188.9620  178.1790  139.8470 C   0  0  0  0  0  2  0  0  0  0  0  0
  189.1440  176.9630  139.0410 N   0  0  0  0  0  0  0  0  0  0  0  0
  188.0310  176.7660  138.2920 O   0  0  0  0  0  1  0  0  0  0  0  0
  190.2680  177.1320  138.1250 C   0  0  0  0  0  2  0  0  0  0  0  0
  190.8500  174.8050  138.0080 O   0  0  0  0  0  1  0  0  0  0  0  0
  192.5890  176.3760  137.5540 C   0  0  0  0  0  1  0  0  0  0  0  0
  191.3350  176.0670  138.3520 C   0  0  1  0  0  3  0  0  0  0  0  0
  1  8  1  0  0  0  0
  2 11  1  0  0  0  0
  2  1  1  0  0  0  0
  4  8  2  0  0  0  0
  4  3  1  0  0  0  0
  5 11  2  0  0  0  0
  5  6  1  0  0  0  0
  7  2  2  0  0  0  0
  9  5  1  0  0  0  0
 10  9  2  0  0  0  0
 10  7  1  0  0  0  0
 11  4  1  0  0  0  0
 12  1  1  0  0  0  0
 12 14  1  0  0  0  0
 13 15  1  0  0  0  0
 14 17  1  0  0  0  0
 15 14  2  0  0  0  0
 16 18  1  0  0  0  0
 16 13  2  0  0  0  0
 18 12  2  0  0  0  0
 19 10  1  0  0  0  0
 20 19  1  0  0  0  0
 21 20  1  0  0  0  0
 22 25  1  0  0  0  0
 22 20  1  0  0  0  0
 23 25  1  0  0  0  0
 25 24  1  6  0  0  0
M  END
>  <MODEL>
9

>  <REMARK>
 VINA RESULT:      -8.3      1.750      2.568
  Name = 
  5 active torsions:
  status: ('A' for Active; 'I' for Inactive)
    1  A    between atoms: N_1  and  C_5
    2  A    between atoms: C_2  and  N_15
    3  A    between atoms: C_2  and  C_21
    4  A    between atoms: C_6  and  N_15
    5  A    between atoms: C_6  and  C_23
                            x       y       z     vdW  Elec       q    Type
                         _______ _______ _______ _____ _____    ______ ____

>  <TORSDO>
F 5

$$$$
