=
 OpenBabel11052413083D

 31 35  0  0  1  0  0  0  0  0999 V2000
  190.7000  177.0690  142.2470 C   0  0  0  0  0  0  0  0  0  0  0  0
  187.1210  177.6330  143.5270 C   0  0  2  0  0  3  0  0  0  0  0  0
  187.3440  177.7550  145.0300 C   0  0  0  0  0  0  0  0  0  0  0  0
  188.5510  177.0820  146.9750 C   0  0  0  0  0  0  0  0  0  0  0  0
  188.3620  177.6190  142.6460 C   0  0  0  0  0  0  0  0  0  0  0  0
  190.5770  177.4770  140.9180 C   0  0  0  0  0  3  0  0  0  0  0  0
  188.3680  177.0810  145.6280 N   0  0  0  0  0  0  0  0  0  0  0  0
  185.8120  178.4110  141.5480 C   0  0  1  0  0  3  0  0  0  0  0  0
  191.8870  176.6080  142.7080 F   0  0  0  0  0  0  0  0  0  0  0  0
  185.2200  179.1550  145.2670 C   0  0  0  0  0  2  0  0  0  0  0  0
  189.5970  176.4130  147.5150 F   0  0  0  0  0  0  0  0  0  0  0  0
  187.0180  178.4570  140.7840 O   0  0  0  0  0  0  0  0  0  0  0  0
  186.1220  178.6850  143.0160 C   0  0  1  0  0  3  0  0  0  0  0  0
  189.5960  177.1290  143.1020 C   0  0  0  0  0  3  0  0  0  0  0  0
  187.6580  177.7650  147.8010 C   0  0  0  0  0  3  0  0  0  0  0  0
  188.2400  177.9980  141.2900 C   0  0  0  0  0  0  0  0  0  0  0  0
  189.3490  177.9390  140.4400 C   0  0  0  0  0  3  0  0  0  0  0  0
  184.8650  178.6570  143.8720 C   0  0  0  0  0  2  0  0  0  0  0  0
  186.3930  178.4130  145.8450 C   0  0  0  0  0  0  0  0  0  0  0  0
  186.5760  178.4310  147.2290 C   0  0  0  0  0  3  0  0  0  0  0  0
  184.8970  179.3800  141.0500 O   0  0  0  0  0  0  0  0  0  0  0  0
  184.2710  180.3210  139.0420 O   0  0  0  0  0  0  0  0  0  0  0  0
  184.3360  179.2940  139.7730 C   0  0  0  0  0  0  0  0  0  0  0  0
  182.9200  175.5250  138.3000 C   0  0  0  0  0  0  0  0  0  0  0  0
  184.3750  177.4470  138.1190 C   0  0  0  0  0  3  0  0  0  0  0  0
  182.2490  177.7670  141.1000 F   0  0  0  0  0  0  0  0  0  0  0  0
  182.4810  174.3350  137.8220 F   0  0  0  0  0  0  0  0  0  0  0  0
  183.9250  176.2200  137.6260 C   0  0  0  0  0  3  0  0  0  0  0  0
  182.8110  177.2840  139.9650 C   0  0  0  0  0  0  0  0  0  0  0  0
  183.8270  177.9940  139.2890 C   0  0  0  0  0  0  0  0  0  0  0  0
  182.3640  176.0560  139.4660 C   0  0  0  0  0  3  0  0  0  0  0  0
  1  9  1  0  0  0  0
  1 14  1  0  0  0  0
  2  5  1  6  0  0  0
  2  3  1  0  0  0  0
  3  7  2  0  0  0  0
  3 19  1  0  0  0  0
  4 11  1  0  0  0  0
  4 15  2  0  0  0  0
  5 14  2  0  0  0  0
  6  1  2  0  0  0  0
  7  4  1  0  0  0  0
  8 21  1  6  0  0  0
  8 13  1  0  0  0  0
 10 19  1  0  0  0  0
 12 16  1  0  0  0  0
 12  8  1  0  0  0  0
 13  2  1  0  0  0  0
 13 18  1  1  0  0  0
 16  5  1  0  0  0  0
 17  6  1  0  0  0  0
 17 16  2  0  0  0  0
 18 10  1  0  0  0  0
 19 20  2  0  0  0  0
 20 15  1  0  0  0  0
 22 23  2  0  0  0  0
 23 21  1  0  0  0  0
 24 31  1  0  0  0  0
 25 30  2  0  0  0  0
 27 24  1  0  0  0  0
 28 25  1  0  0  0  0
 28 24  2  0  0  0  0
 29 26  1  0  0  0  0
 30 23  1  0  0  0  0
 30 29  1  0  0  0  0
 31 29  2  0  0  0  0
M  END
>  <MODEL>
1

>  <REMARK>
 VINA RESULT:     -10.9      0.000      0.000
  Name = 
  3 active torsions:
  status: ('A' for Active; 'I' for Inactive)
    1  A    between atoms: C_9  and  C_22
    2  A    between atoms: C_9  and  O_23
    3  A    between atoms: C_15  and  O_23
                            x       y       z     vdW  Elec       q    Type
                         _______ _______ _______ _____ _____    ______ ____

>  <TORSDO>
F 3

$$$$
=
 OpenBabel11052413083D

 31 35  0  0  1  0  0  0  0  0999 V2000
  189.8260  177.1160  146.7500 C   0  0  0  0  0  0  0  0  0  0  0  0
  187.7380  177.3610  143.5330 C   0  0  2  0  0  3  0  0  0  0  0  0
  186.4790  178.0590  144.0330 C   0  0  0  0  0  0  0  0  0  0  0  0
  184.8870  178.3950  145.7780 C   0  0  0  0  0  0  0  0  0  0  0  0
  188.9120  177.2840  144.5010 C   0  0  0  0  0  0  0  0  0  0  0  0
  191.1120  176.9830  146.2260 C   0  0  0  0  0  3  0  0  0  0  0  0
  186.0530  177.8710  145.3140 N   0  0  0  0  0  0  0  0  0  0  0  0
  189.3600  177.0880  141.6550 C   0  0  1  0  0  3  0  0  0  0  0  0
  189.6350  177.1040  148.0920 F   0  0  0  0  0  0  0  0  0  0  0  0
  186.0240  178.9860  141.6970 C   0  0  0  0  0  2  0  0  0  0  0  0
  184.5210  178.1940  147.0660 F   0  0  0  0  0  0  0  0  0  0  0  0
  190.4340  177.1010  142.5970 O   0  0  0  0  0  0  0  0  0  0  0  0
  188.2030  177.9300  142.1830 C   0  0  1  0  0  3  0  0  0  0  0  0
  188.7320  177.2540  145.8920 C   0  0  0  0  0  3  0  0  0  0  0  0
  184.0650  179.1330  144.9270 C   0  0  0  0  0  3  0  0  0  0  0  0
  190.2150  177.1150  143.9800 C   0  0  0  0  0  0  0  0  0  0  0  0
  191.3060  176.9810  144.8430 C   0  0  0  0  0  3  0  0  0  0  0  0
  187.0360  177.9580  141.2080 C   0  0  0  0  0  2  0  0  0  0  0  0
  185.6410  178.7590  143.1320 C   0  0  0  0  0  0  0  0  0  0  0  0
  184.4470  179.3120  143.5990 C   0  0  0  0  0  3  0  0  0  0  0  0
  189.8150  177.6050  140.4100 O   0  0  0  0  0  0  0  0  0  0  0  0
  190.6590  175.9060  139.1010 O   0  0  0  0  0  0  0  0  0  0  0  0
  189.8220  176.8400  139.2390 C   0  0  0  0  0  0  0  0  0  0  0  0
  186.9560  177.6020  136.1430 C   0  0  0  0  0  0  0  0  0  0  0  0
  188.1420  176.0680  137.5860 C   0  0  0  0  0  3  0  0  0  0  0  0
  189.2290  179.5130  138.2640 F   0  0  0  0  0  0  0  0  0  0  0  0
  186.0480  177.8280  135.1630 F   0  0  0  0  0  0  0  0  0  0  0  0
  187.2050  176.2990  136.5770 C   0  0  0  0  0  3  0  0  0  0  0  0
  188.5820  178.4480  137.7300 C   0  0  0  0  0  0  0  0  0  0  0  0
  188.8410  177.1330  138.1740 C   0  0  0  0  0  0  0  0  0  0  0  0
  187.6430  178.6740  136.7180 C   0  0  0  0  0  3  0  0  0  0  0  0
  1  9  1  0  0  0  0
  2  3  1  1  0  0  0
  2  5  1  0  0  0  0
  3  7  1  0  0  0  0
  4 11  1  0  0  0  0
  5 14  1  0  0  0  0
  6  1  1  0  0  0  0
  7  4  2  0  0  0  0
  8 21  1  6  0  0  0
  8 13  1  0  0  0  0
  8 12  1  0  0  0  0
 10 19  1  0  0  0  0
 12 16  1  0  0  0  0
 13 18  1  6  0  0  0
 13  2  1  0  0  0  0
 14  1  2  0  0  0  0
 15  4  1  0  0  0  0
 16  5  2  0  0  0  0
 16 17  1  0  0  0  0
 17  6  2  0  0  0  0
 18 10  1  0  0  0  0
 19 20  1  0  0  0  0
 19  3  2  0  0  0  0
 20 15  2  0  0  0  0
 22 23  2  0  0  0  0
 23 21  1  0  0  0  0
 24 28  2  0  0  0  0
 24 31  1  0  0  0  0
 25 30  2  0  0  0  0
 27 24  1  0  0  0  0
 28 25  1  0  0  0  0
 29 30  1  0  0  0  0
 29 26  1  0  0  0  0
 30 23  1  0  0  0  0
 31 29  2  0  0  0  0
M  END
>  <MODEL>
2

>  <REMARK>
 VINA RESULT:     -10.9      3.229      4.675
  Name = 
  3 active torsions:
  status: ('A' for Active; 'I' for Inactive)
    1  A    between atoms: C_9  and  C_22
    2  A    between atoms: C_9  and  O_23
    3  A    between atoms: C_15  and  O_23
                            x       y       z     vdW  Elec       q    Type
                         _______ _______ _______ _____ _____    ______ ____

>  <TORSDO>
F 3

$$$$
=
 OpenBabel11052413083D

 31 35  0  0  1  0  0  0  0  0999 V2000
  190.7440  177.0570  142.3850 C   0  0  0  0  0  0  0  0  0  0  0  0
  187.3690  177.4500  144.1810 C   0  0  2  0  0  3  0  0  0  0  0  0
  187.8070  177.6150  145.6320 C   0  0  0  0  0  0  0  0  0  0  0  0
  189.3270  177.0510  147.3820 C   0  0  0  0  0  0  0  0  0  0  0  0
  188.4640  177.4860  143.1240 C   0  0  0  0  0  0  0  0  0  0  0  0
  190.4010  177.4290  141.0850 C   0  0  0  0  0  3  0  0  0  0  0  0
  188.9450  177.0120  146.0770 N   0  0  0  0  0  0  0  0  0  0  0  0
  185.7370  178.1130  142.4120 C   0  0  1  0  0  3  0  0  0  0  0  0
  192.0110  176.6710  142.6680 F   0  0  0  0  0  0  0  0  0  0  0  0
  185.6650  178.9010  146.1680 C   0  0  0  0  0  2  0  0  0  0  0  0
  190.4780  176.4520  147.7670 F   0  0  0  0  0  0  0  0  0  0  0  0
  186.8110  178.2090  141.4750 O   0  0  0  0  0  0  0  0  0  0  0  0
  186.2460  178.4340  143.8130 C   0  0  1  0  0  3  0  0  0  0  0  0
  189.7780  177.0740  143.3950 C   0  0  0  0  0  3  0  0  0  0  0  0
  188.5300  177.7010  148.3240 C   0  0  0  0  0  3  0  0  0  0  0  0
  188.1190  177.8290  141.7970 C   0  0  0  0  0  0  0  0  0  0  0  0
  189.0910  177.8130  140.7910 C   0  0  0  0  0  3  0  0  0  0  0  0
  185.1350  178.3560  144.8480 C   0  0  0  0  0  2  0  0  0  0  0  0
  186.9520  178.2370  146.5720 C   0  0  0  0  0  0  0  0  0  0  0  0
  187.3380  178.2940  147.9130 C   0  0  0  0  0  3  0  0  0  0  0  0
  184.7040  179.0200  142.0450 O   0  0  0  0  0  0  0  0  0  0  0  0
  184.5770  179.7690  139.8700 O   0  0  0  0  0  0  0  0  0  0  0  0
  184.1210  179.0170  140.7740 C   0  0  0  0  0  0  0  0  0  0  0  0
  180.8500  176.3730  139.9400 C   0  0  0  0  0  0  0  0  0  0  0  0
  183.1830  176.9740  139.7290 C   0  0  0  0  0  3  0  0  0  0  0  0
  181.4240  179.4900  141.7500 F   0  0  0  0  0  0  0  0  0  0  0  0
  179.8260  175.5300  139.6680 F   0  0  0  0  0  0  0  0  0  0  0  0
  182.1280  176.1020  139.4480 C   0  0  0  0  0  3  0  0  0  0  0  0
  181.6800  178.3920  140.9970 C   0  0  0  0  0  0  0  0  0  0  0  0
  182.9750  178.1250  140.5030 C   0  0  0  0  0  0  0  0  0  0  0  0
  180.6270  177.5160  140.7120 C   0  0  0  0  0  3  0  0  0  0  0  0
  1  9  1  0  0  0  0
  1 14  1  0  0  0  0
  2  5  1  6  0  0  0
  2  3  1  0  0  0  0
  3  7  2  0  0  0  0
  3 19  1  0  0  0  0
  4 11  1  0  0  0  0
  4 15  2  0  0  0  0
  5 14  2  0  0  0  0
  6  1  2  0  0  0  0
  7  4  1  0  0  0  0
  8 21  1  6  0  0  0
  8 13  1  0  0  0  0
 10 19  1  0  0  0  0
 12 16  1  0  0  0  0
 12  8  1  0  0  0  0
 13  2  1  0  0  0  0
 13 18  1  1  0  0  0
 16  5  1  0  0  0  0
 17  6  1  0  0  0  0
 17 16  2  0  0  0  0
 18 10  1  0  0  0  0
 19 20  2  0  0  0  0
 20 15  1  0  0  0  0
 22 23  2  0  0  0  0
 23 21  1  0  0  0  0
 24 31  1  0  0  0  0
 25 30  2  0  0  0  0
 27 24  1  0  0  0  0
 28 25  1  0  0  0  0
 28 24  2  0  0  0  0
 29 26  1  0  0  0  0
 30 23  1  0  0  0  0
 30 29  1  0  0  0  0
 31 29  2  0  0  0  0
M  END
>  <MODEL>
3

>  <REMARK>
 VINA RESULT:     -10.8      1.186      1.413
  Name = 
  3 active torsions:
  status: ('A' for Active; 'I' for Inactive)
    1  A    between atoms: C_9  and  C_22
    2  A    between atoms: C_9  and  O_23
    3  A    between atoms: C_15  and  O_23
                            x       y       z     vdW  Elec       q    Type
                         _______ _______ _______ _____ _____    ______ ____

>  <TORSDO>
F 3

$$$$
=
 OpenBabel11052413083D

 31 35  0  0  1  0  0  0  0  0999 V2000
  185.3740  178.3790  145.3970 C   0  0  0  0  0  0  0  0  0  0  0  0
  188.9310  177.9750  144.0000 C   0  0  2  0  0  3  0  0  0  0  0  0
  189.6860  177.4560  145.2180 C   0  0  0  0  0  0  0  0  0  0  0  0
  189.9950  177.4630  147.5840 C   0  0  0  0  0  0  0  0  0  0  0  0
  187.4150  178.0500  144.1110 C   0  0  0  0  0  0  0  0  0  0  0  0
  184.6190  178.3340  144.2240 C   0  0  0  0  0  3  0  0  0  0  0  0
  189.2990  177.8230  146.4720 N   0  0  0  0  0  0  0  0  0  0  0  0
  188.6750  177.8890  141.5180 C   0  0  1  0  0  3  0  0  0  0  0  0
  184.7620  178.5560  146.5920 F   0  0  0  0  0  0  0  0  0  0  0  0
  191.4100  176.3240  143.7100 C   0  0  0  0  0  2  0  0  0  0  0  0
  189.5540  177.8380  148.8080 F   0  0  0  0  0  0  0  0  0  0  0  0
  187.2560  177.8810  141.6770 O   0  0  0  0  0  0  0  0  0  0  0  0
  189.3320  177.2210  142.7210 C   0  0  1  0  0  3  0  0  0  0  0  0
  186.7640  178.2500  145.3380 C   0  0  0  0  0  3  0  0  0  0  0  0
  191.1660  176.7160  147.4630 C   0  0  0  0  0  3  0  0  0  0  0  0
  186.6430  178.0390  142.9260 C   0  0  0  0  0  0  0  0  0  0  0  0
  185.2520  178.1660  142.9910 C   0  0  0  0  0  3  0  0  0  0  0  0
  190.8470  177.1940  142.5940 C   0  0  0  0  0  2  0  0  0  0  0  0
  190.8980  176.7420  145.0600 C   0  0  0  0  0  0  0  0  0  0  0  0
  191.6150  176.3570  146.1940 C   0  0  0  0  0  3  0  0  0  0  0  0
  189.0230  177.1980  140.3230 O   0  0  0  0  0  0  0  0  0  0  0  0
  189.0000  179.0480  138.9490 O   0  0  0  0  0  0  0  0  0  0  0  0
  189.3930  177.8670  139.1520 C   0  0  0  0  0  0  0  0  0  0  0  0
  191.8100  175.8760  136.2230 C   0  0  0  0  0  0  0  0  0  0  0  0
  189.7230  176.8970  136.8940 C   0  0  0  0  0  3  0  0  0  0  0  0
  192.1350  177.0490  139.6630 F   0  0  0  0  0  0  0  0  0  0  0  0
  192.5610  175.2470  135.2880 F   0  0  0  0  0  0  0  0  0  0  0  0
  190.4970  176.2490  135.9290 C   0  0  0  0  0  3  0  0  0  0  0  0
  191.5770  176.7990  138.4530 C   0  0  0  0  0  0  0  0  0  0  0  0
  190.2490  177.1790  138.1630 C   0  0  0  0  0  0  0  0  0  0  0  0
  192.3480  176.1510  137.4820 C   0  0  0  0  0  3  0  0  0  0  0  0
  1  9  1  0  0  0  0
  2  5  1  1  0  0  0
  2  3  1  0  0  0  0
  3  7  1  0  0  0  0
  4 11  1  0  0  0  0
  5 14  2  0  0  0  0
  6  1  2  0  0  0  0
  7  4  2  0  0  0  0
  8 21  1  6  0  0  0
  8 12  1  0  0  0  0
  8 13  1  0  0  0  0
 10 19  1  0  0  0  0
 12 16  1  0  0  0  0
 13 18  1  6  0  0  0
 13  2  1  0  0  0  0
 14  1  1  0  0  0  0
 15  4  1  0  0  0  0
 16 17  2  0  0  0  0
 16  5  1  0  0  0  0
 17  6  1  0  0  0  0
 18 10  1  0  0  0  0
 19  3  2  0  0  0  0
 19 20  1  0  0  0  0
 20 15  2  0  0  0  0
 22 23  2  0  0  0  0
 23 21  1  0  0  0  0
 24 31  1  0  0  0  0
 25 30  2  0  0  0  0
 27 24  1  0  0  0  0
 28 24  2  0  0  0  0
 28 25  1  0  0  0  0
 29 26  1  0  0  0  0
 30 29  1  0  0  0  0
 30 23  1  0  0  0  0
 31 29  2  0  0  0  0
M  END
>  <MODEL>
4

>  <REMARK>
 VINA RESULT:     -10.7      3.458      5.871
  Name = 
  3 active torsions:
  status: ('A' for Active; 'I' for Inactive)
    1  A    between atoms: C_9  and  C_22
    2  A    between atoms: C_9  and  O_23
    3  A    between atoms: C_15  and  O_23
                            x       y       z     vdW  Elec       q    Type
                         _______ _______ _______ _____ _____    ______ ____

>  <TORSDO>
F 3

$$$$
=
 OpenBabel11052413083D

 31 35  0  0  1  0  0  0  0  0999 V2000
  185.1630  178.3190  145.1270 C   0  0  0  0  0  0  0  0  0  0  0  0
  188.7830  178.1300  143.8520 C   0  0  2  0  0  3  0  0  0  0  0  0
  189.5070  177.5460  145.0590 C   0  0  0  0  0  0  0  0  0  0  0  0
  189.7240  177.3870  147.4300 C   0  0  0  0  0  0  0  0  0  0  0  0
  187.2620  178.1500  143.9060 C   0  0  0  0  0  0  0  0  0  0  0  0
  184.4550  178.3370  143.9240 C   0  0  0  0  0  3  0  0  0  0  0  0
  189.0590  177.8070  146.3200 N   0  0  0  0  0  0  0  0  0  0  0  0
  188.6270  178.2200  141.3620 C   0  0  1  0  0  3  0  0  0  0  0  0
  184.4990  178.3870  146.3060 F   0  0  0  0  0  0  0  0  0  0  0  0
  191.3260  176.5830  143.5460 C   0  0  0  0  0  2  0  0  0  0  0  0
  189.2230  177.6560  148.6590 F   0  0  0  0  0  0  0  0  0  0  0  0
  187.2030  178.1560  141.4620 O   0  0  0  0  0  0  0  0  0  0  0  0
  189.2580  177.4860  142.5400 C   0  0  1  0  0  3  0  0  0  0  0  0
  186.5580  178.2370  145.1170 C   0  0  0  0  0  3  0  0  0  0  0  0
  190.9230  176.6870  147.3040 C   0  0  0  0  0  3  0  0  0  0  0  0
  186.5380  178.2030  142.6930 C   0  0  0  0  0  0  0  0  0  0  0  0
  185.1420  178.2810  142.7100 C   0  0  0  0  0  3  0  0  0  0  0  0
  190.7770  177.5160  142.4730 C   0  0  0  0  0  2  0  0  0  0  0  0
  190.7480  176.8830  144.9000 C   0  0  0  0  0  0  0  0  0  0  0  0
  191.4340  176.4380  146.0310 C   0  0  0  0  0  3  0  0  0  0  0  0
  189.0440  177.6320  140.1360 O   0  0  0  0  0  0  0  0  0  0  0  0
  189.1040  179.2170  138.4640 O   0  0  0  0  0  0  0  0  0  0  0  0
  188.6380  178.1250  138.8920 C   0  0  0  0  0  0  0  0  0  0  0  0
  185.7620  175.9570  136.5650 C   0  0  0  0  0  0  0  0  0  0  0  0
  186.3920  177.8960  137.8660 C   0  0  0  0  0  3  0  0  0  0  0  0
  189.1990  175.5280  137.7140 F   0  0  0  0  0  0  0  0  0  0  0  0
  184.8430  175.2840  135.8330 F   0  0  0  0  0  0  0  0  0  0  0  0
  185.4440  177.2030  137.1100 C   0  0  0  0  0  3  0  0  0  0  0  0
  187.9810  176.0950  137.5320 C   0  0  0  0  0  0  0  0  0  0  0  0
  187.6670  177.3550  138.0870 C   0  0  0  0  0  0  0  0  0  0  0  0
  187.0280  175.4050  136.7760 C   0  0  0  0  0  3  0  0  0  0  0  0
  1  9  1  0  0  0  0
  2  5  1  1  0  0  0
  2  3  1  0  0  0  0
  3  7  1  0  0  0  0
  4 11  1  0  0  0  0
  5 14  2  0  0  0  0
  6  1  2  0  0  0  0
  7  4  2  0  0  0  0
  8 21  1  6  0  0  0
  8 12  1  0  0  0  0
  8 13  1  0  0  0  0
 10 19  1  0  0  0  0
 12 16  1  0  0  0  0
 13 18  1  6  0  0  0
 13  2  1  0  0  0  0
 14  1  1  0  0  0  0
 15  4  1  0  0  0  0
 16 17  2  0  0  0  0
 16  5  1  0  0  0  0
 17  6  1  0  0  0  0
 18 10  1  0  0  0  0
 19  3  2  0  0  0  0
 19 20  1  0  0  0  0
 20 15  2  0  0  0  0
 22 23  2  0  0  0  0
 23 21  1  0  0  0  0
 24 31  2  0  0  0  0
 24 28  1  0  0  0  0
 25 30  1  0  0  0  0
 27 24  1  0  0  0  0
 28 25  2  0  0  0  0
 29 26  1  0  0  0  0
 29 30  2  0  0  0  0
 30 23  1  0  0  0  0
 31 29  1  0  0  0  0
M  END
>  <MODEL>
5

>  <REMARK>
 VINA RESULT:     -10.4      2.499      4.499
  Name = 
  3 active torsions:
  status: ('A' for Active; 'I' for Inactive)
    1  A    between atoms: C_9  and  C_22
    2  A    between atoms: C_9  and  O_23
    3  A    between atoms: C_15  and  O_23
                            x       y       z     vdW  Elec       q    Type
                         _______ _______ _______ _____ _____    ______ ____

>  <TORSDO>
F 3

$$$$
=
 OpenBabel11052413083D

 31 35  0  0  1  0  0  0  0  0999 V2000
  189.5760  177.4280  141.8680 C   0  0  0  0  0  0  0  0  0  0  0  0
  186.7980  177.6790  144.5110 C   0  0  2  0  0  3  0  0  0  0  0  0
  187.6030  177.7410  145.8030 C   0  0  0  0  0  0  0  0  0  0  0  0
  189.5210  177.0590  147.0480 C   0  0  0  0  0  0  0  0  0  0  0  0
  187.5770  177.7940  143.2080 C   0  0  0  0  0  0  0  0  0  0  0  0
  188.9100  177.8920  140.7330 C   0  0  0  0  0  3  0  0  0  0  0  0
  188.8100  177.1120  145.8900 N   0  0  0  0  0  0  0  0  0  0  0  0
  184.7690  178.4600  143.2840 C   0  0  1  0  0  3  0  0  0  0  0  0
  190.8680  177.0280  141.7800 F   0  0  0  0  0  0  0  0  0  0  0  0
  185.6980  178.9770  146.9720 C   0  0  0  0  0  2  0  0  0  0  0  0
  190.7240  176.4390  147.0740 F   0  0  0  0  0  0  0  0  0  0  0  0
  185.5600  178.6280  142.1070 O   0  0  0  0  0  0  0  0  0  0  0  0
  185.6330  178.6820  144.5200 C   0  0  1  0  0  3  0  0  0  0  0  0
  188.9100  177.3700  143.0950 C   0  0  0  0  0  3  0  0  0  0  0  0
  189.0090  177.6370  148.2100 C   0  0  0  0  0  3  0  0  0  0  0  0
  186.9020  178.2300  142.0450 C   0  0  0  0  0  0  0  0  0  0  0  0
  187.5740  178.2900  140.8210 C   0  0  0  0  0  3  0  0  0  0  0  0
  184.8310  178.5260  145.8030 C   0  0  0  0  0  2  0  0  0  0  0  0
  187.0350  178.2910  146.9770 C   0  0  0  0  0  0  0  0  0  0  0  0
  187.7610  178.2540  148.1690 C   0  0  0  0  0  3  0  0  0  0  0  0
  183.6900  179.3870  143.2660 O   0  0  0  0  0  0  0  0  0  0  0  0
  181.8100  178.6030  144.3440 O   0  0  0  0  0  0  0  0  0  0  0  0
  182.3520  178.9800  143.2690 C   0  0  0  0  0  0  0  0  0  0  0  0
  180.0640  179.1020  139.6440 C   0  0  0  0  0  0  0  0  0  0  0  0
  180.4300  179.7970  141.9310 C   0  0  0  0  0  3  0  0  0  0  0  0
  183.0780  177.4680  140.8950 F   0  0  0  0  0  0  0  0  0  0  0  0
  179.3310  179.1500  138.5060 F   0  0  0  0  0  0  0  0  0  0  0  0
  179.6740  179.8470  140.7580 C   0  0  0  0  0  3  0  0  0  0  0  0
  181.9720  178.2520  140.8760 C   0  0  0  0  0  0  0  0  0  0  0  0
  181.5830  179.0020  142.0060 C   0  0  0  0  0  0  0  0  0  0  0  0
  181.2110  178.3060  139.7040 C   0  0  0  0  0  3  0  0  0  0  0  0
  1 14  1  0  0  0  0
  2  5  1  6  0  0  0
  2 13  1  0  0  0  0
  2  3  1  0  0  0  0
  3  7  2  0  0  0  0
  3 19  1  0  0  0  0
  4 11  1  0  0  0  0
  4 15  2  0  0  0  0
  6 17  1  0  0  0  0
  6  1  2  0  0  0  0
  7  4  1  0  0  0  0
  8 21  1  6  0  0  0
  8 13  1  0  0  0  0
  9  1  1  0  0  0  0
 10 19  1  0  0  0  0
 12  8  1  0  0  0  0
 13 18  1  1  0  0  0
 14  5  2  0  0  0  0
 16 12  1  0  0  0  0
 16  5  1  0  0  0  0
 17 16  2  0  0  0  0
 18 10  1  0  0  0  0
 19 20  2  0  0  0  0
 20 15  1  0  0  0  0
 21 23  1  0  0  0  0
 23 22  2  0  0  0  0
 24 31  2  0  0  0  0
 24 28  1  0  0  0  0
 25 30  1  0  0  0  0
 27 24  1  0  0  0  0
 28 25  2  0  0  0  0
 29 26  1  0  0  0  0
 29 30  2  0  0  0  0
 30 23  1  0  0  0  0
 31 29  1  0  0  0  0
M  END
>  <MODEL>
6

>  <REMARK>
 VINA RESULT:     -10.4      2.046      2.883
  Name = 
  3 active torsions:
  status: ('A' for Active; 'I' for Inactive)
    1  A    between atoms: C_9  and  C_22
    2  A    between atoms: C_9  and  O_23
    3  A    between atoms: C_15  and  O_23
                            x       y       z     vdW  Elec       q    Type
                         _______ _______ _______ _____ _____    ______ ____

>  <TORSDO>
F 3

$$$$
=
 OpenBabel11052413083D

 31 35  0  0  1  0  0  0  0  0999 V2000
  189.8230  177.1290  146.3130 C   0  0  0  0  0  0  0  0  0  0  0  0
  187.4110  177.6370  143.3640 C   0  0  2  0  0  3  0  0  0  0  0  0
  186.1820  178.2060  144.0630 C   0  0  0  0  0  0  0  0  0  0  0  0
  184.7640  178.2550  145.9810 C   0  0  0  0  0  0  0  0  0  0  0  0
  188.6790  177.5090  144.1980 C   0  0  0  0  0  0  0  0  0  0  0  0
  191.0540  177.1240  145.6550 C   0  0  0  0  0  3  0  0  0  0  0  0
  185.8960  177.8490  145.3470 N   0  0  0  0  0  0  0  0  0  0  0  0
  188.8430  177.6680  141.3190 C   0  0  1  0  0  3  0  0  0  0  0  0
  189.7700  176.9520  147.6550 F   0  0  0  0  0  0  0  0  0  0  0  0
  185.4550  179.3730  141.9100 C   0  0  0  0  0  2  0  0  0  0  0  0
  184.5390  177.8870  147.2640 F   0  0  0  0  0  0  0  0  0  0  0  0
  190.0060  177.6270  142.1480 O   0  0  0  0  0  0  0  0  0  0  0  0
  187.7130  178.3820  142.0530 C   0  0  1  0  0  3  0  0  0  0  0  0
  188.6430  177.3090  145.5860 C   0  0  0  0  0  3  0  0  0  0  0  0
  183.8300  179.0420  145.3070 C   0  0  0  0  0  3  0  0  0  0  0  0
  189.9280  177.4690  143.5370 C   0  0  0  0  0  0  0  0  0  0  0  0
  191.1060  177.2920  144.2700 C   0  0  0  0  0  3  0  0  0  0  0  0
  186.4530  178.4620  141.2060 C   0  0  0  0  0  2  0  0  0  0  0  0
  185.2300  178.9610  143.3380 C   0  0  0  0  0  0  0  0  0  0  0  0
  184.0680  179.3940  143.9800 C   0  0  0  0  0  3  0  0  0  0  0  0
  189.1480  178.3480  140.1070 O   0  0  0  0  0  0  0  0  0  0  0  0
  187.8650  178.4090  138.1940 O   0  0  0  0  0  0  0  0  0  0  0  0
  188.7810  177.8470  138.8540 C   0  0  0  0  0  0  0  0  0  0  0  0
  190.7280  174.3830  137.2430 C   0  0  0  0  0  0  0  0  0  0  0  0
  188.7560  175.7530  137.5260 C   0  0  0  0  0  3  0  0  0  0  0  0
  191.5910  177.2610  139.3140 F   0  0  0  0  0  0  0  0  0  0  0  0
  191.3300  173.2840  136.7280 F   0  0  0  0  0  0  0  0  0  0  0  0
  189.3760  174.6200  136.9940 C   0  0  0  0  0  3  0  0  0  0  0  0
  190.8460  176.4150  138.5610 C   0  0  0  0  0  0  0  0  0  0  0  0
  189.4790  176.6620  138.3130 C   0  0  0  0  0  0  0  0  0  0  0  0
  191.4620  175.2790  138.0250 C   0  0  0  0  0  3  0  0  0  0  0  0
  1  9  1  0  0  0  0
  2  3  1  1  0  0  0
  2  5  1  0  0  0  0
  3  7  1  0  0  0  0
  4 11  1  0  0  0  0
  5 14  1  0  0  0  0
  6  1  1  0  0  0  0
  7  4  2  0  0  0  0
  8 21  1  6  0  0  0
  8 13  1  0  0  0  0
  8 12  1  0  0  0  0
 10 19  1  0  0  0  0
 12 16  1  0  0  0  0
 13 18  1  6  0  0  0
 13  2  1  0  0  0  0
 14  1  2  0  0  0  0
 15  4  1  0  0  0  0
 16  5  2  0  0  0  0
 16 17  1  0  0  0  0
 17  6  2  0  0  0  0
 18 10  1  0  0  0  0
 19 20  1  0  0  0  0
 19  3  2  0  0  0  0
 20 15  2  0  0  0  0
 22 23  2  0  0  0  0
 23 21  1  0  0  0  0
 24 31  1  0  0  0  0
 25 30  2  0  0  0  0
 27 24  1  0  0  0  0
 28 24  2  0  0  0  0
 28 25  1  0  0  0  0
 29 26  1  0  0  0  0
 30 29  1  0  0  0  0
 30 23  1  0  0  0  0
 31 29  2  0  0  0  0
M  END
>  <MODEL>
7

>  <REMARK>
 VINA RESULT:     -10.3      3.307      5.049
  Name = 
  3 active torsions:
  status: ('A' for Active; 'I' for Inactive)
    1  A    between atoms: C_9  and  C_22
    2  A    between atoms: C_9  and  O_23
    3  A    between atoms: C_15  and  O_23
                            x       y       z     vdW  Elec       q    Type
                         _______ _______ _______ _____ _____    ______ ____

>  <TORSDO>
F 3

$$$$
=
 OpenBabel11052413083D

 31 35  0  0  1  0  0  0  0  0999 V2000
  190.8180  177.0370  142.9710 C   0  0  0  0  0  0  0  0  0  0  0  0
  187.0330  177.6910  143.0880 C   0  0  2  0  0  3  0  0  0  0  0  0
  186.8130  177.9790  144.5680 C   0  0  0  0  0  0  0  0  0  0  0  0
  187.3900  177.5380  146.8400 C   0  0  0  0  0  0  0  0  0  0  0  0
  188.4760  177.5970  142.6120 C   0  0  0  0  0  0  0  0  0  0  0  0
  191.0930  177.2960  141.6270 C   0  0  0  0  0  3  0  0  0  0  0  0
  187.6060  177.3880  145.5060 N   0  0  0  0  0  0  0  0  0  0  0  0
  186.3690  178.2320  140.7420 C   0  0  1  0  0  3  0  0  0  0  0  0
  191.8110  176.6440  143.8030 F   0  0  0  0  0  0  0  0  0  0  0  0
  184.7390  179.3690  144.0260 C   0  0  0  0  0  2  0  0  0  0  0  0
  188.2220  176.9450  147.7300 F   0  0  0  0  0  0  0  0  0  0  0  0
  187.7450  178.2100  140.3610 O   0  0  0  0  0  0  0  0  0  0  0  0
  186.2450  178.6680  142.1980 C   0  0  1  0  0  3  0  0  0  0  0  0
  189.5150  177.1760  143.4560 C   0  0  0  0  0  3  0  0  0  0  0  0
  186.3100  178.2950  147.2930 C   0  0  0  0  0  3  0  0  0  0  0  0
  188.7600  177.8250  141.2460 C   0  0  0  0  0  0  0  0  0  0  0  0
  190.0660  177.6880  140.7670 C   0  0  0  0  0  3  0  0  0  0  0  0
  184.7940  178.7180  142.6500 C   0  0  0  0  0  2  0  0  0  0  0  0
  185.6790  178.7100  144.9960 C   0  0  0  0  0  0  0  0  0  0  0  0
  185.4540  178.8810  146.3630 C   0  0  0  0  0  3  0  0  0  0  0  0
  185.6570  179.1290  139.8980 O   0  0  0  0  0  0  0  0  0  0  0  0
  185.1240  178.1680  137.8730 O   0  0  0  0  0  0  0  0  0  0  0  0
  184.7280  178.6890  138.9510 C   0  0  0  0  0  0  0  0  0  0  0  0
  180.5390  179.1990  139.7150 C   0  0  0  0  0  0  0  0  0  0  0  0
  182.6410  180.0260  138.8530 C   0  0  0  0  0  3  0  0  0  0  0  0
  183.1010  176.6520  140.2370 F   0  0  0  0  0  0  0  0  0  0  0  0
  179.2170  179.3740  139.9510 F   0  0  0  0  0  0  0  0  0  0  0  0
  181.2780  180.2080  139.0950 C   0  0  0  0  0  3  0  0  0  0  0  0
  182.5300  177.8210  139.8550 C   0  0  0  0  0  0  0  0  0  0  0  0
  183.2830  178.8370  139.2280 C   0  0  0  0  0  0  0  0  0  0  0  0
  181.1650  178.0080  140.0950 C   0  0  0  0  0  3  0  0  0  0  0  0
  1 14  1  0  0  0  0
  1  9  1  0  0  0  0
  2  5  1  6  0  0  0
  2  3  1  0  0  0  0
  3 19  2  0  0  0  0
  3  7  1  0  0  0  0
  4 15  1  0  0  0  0
  4 11  1  0  0  0  0
  5 14  2  0  0  0  0
  6  1  2  0  0  0  0
  7  4  2  0  0  0  0
  8 21  1  6  0  0  0
  8 13  1  0  0  0  0
 10 19  1  0  0  0  0
 12  8  1  0  0  0  0
 12 16  1  0  0  0  0
 13 18  1  1  0  0  0
 13  2  1  0  0  0  0
 16  5  1  0  0  0  0
 17 16  2  0  0  0  0
 17  6  1  0  0  0  0
 18 10  1  0  0  0  0
 19 20  1  0  0  0  0
 20 15  2  0  0  0  0
 22 23  2  0  0  0  0
 23 30  1  0  0  0  0
 23 21  1  0  0  0  0
 24 27  1  0  0  0  0
 24 31  1  0  0  0  0
 25 28  1  0  0  0  0
 25 30  2  0  0  0  0
 28 24  2  0  0  0  0
 29 31  2  0  0  0  0
 29 26  1  0  0  0  0
 30 29  1  0  0  0  0
M  END
>  <MODEL>
8

>  <REMARK>
 VINA RESULT:     -10.0      1.485      2.104
  Name = 
  3 active torsions:
  status: ('A' for Active; 'I' for Inactive)
    1  A    between atoms: C_9  and  C_22
    2  A    between atoms: C_9  and  O_23
    3  A    between atoms: C_15  and  O_23
                            x       y       z     vdW  Elec       q    Type
                         _______ _______ _______ _____ _____    ______ ____

>  <TORSDO>
F 3

$$$$
=
 OpenBabel11052413083D

 31 35  0  0  1  0  0  0  0  0999 V2000
  185.0010  178.4640  146.2030 C   0  0  0  0  0  0  0  0  0  0  0  0
  187.5830  178.4950  143.3570 C   0  0  2  0  0  3  0  0  0  0  0  0
  188.7280  177.6960  143.9680 C   0  0  0  0  0  0  0  0  0  0  0  0
  190.0040  177.1030  145.8950 C   0  0  0  0  0  0  0  0  0  0  0  0
  186.2690  178.5120  144.1260 C   0  0  0  0  0  0  0  0  0  0  0  0
  183.8220  178.7070  145.4980 C   0  0  0  0  0  3  0  0  0  0  0  0
  188.9420  177.7220  145.3140 N   0  0  0  0  0  0  0  0  0  0  0  0
  186.2980  179.0420  141.2870 C   0  0  1  0  0  3  0  0  0  0  0  0
  184.9690  178.3180  147.5500 F   0  0  0  0  0  0  0  0  0  0  0  0
  189.5400  177.0180  141.6420 C   0  0  0  0  0  2  0  0  0  0  0  0
  190.1570  177.1440  147.2390 F   0  0  0  0  0  0  0  0  0  0  0  0
  185.0840  178.9670  142.0360 O   0  0  0  0  0  0  0  0  0  0  0  0
  187.3340  178.1000  141.8920 C   0  0  1  0  0  3  0  0  0  0  0  0
  186.2180  178.3790  145.5220 C   0  0  0  0  0  3  0  0  0  0  0  0
  190.9390  176.4320  145.1060 C   0  0  0  0  0  3  0  0  0  0  0  0
  185.0730  178.7900  143.4250 C   0  0  0  0  0  0  0  0  0  0  0  0
  183.8580  178.8710  144.1120 C   0  0  0  0  0  3  0  0  0  0  0  0
  188.6450  178.1350  141.1210 C   0  0  0  0  0  2  0  0  0  0  0  0
  189.6870  177.0670  143.1380 C   0  0  0  0  0  0  0  0  0  0  0  0
  190.7760  176.4180  143.7220 C   0  0  0  0  0  3  0  0  0  0  0  0
  186.0430  178.6870  139.9340 O   0  0  0  0  0  0  0  0  0  0  0  0
  184.3690  180.0360  139.1040 O   0  0  0  0  0  0  0  0  0  0  0  0
  184.7940  178.8700  139.3330 C   0  0  0  0  0  0  0  0  0  0  0  0
  182.4900  175.4380  138.1950 C   0  0  0  0  0  0  0  0  0  0  0  0
  184.2370  177.0480  137.7460 C   0  0  0  0  0  3  0  0  0  0  0  0
  182.6790  177.7700  140.9960 F   0  0  0  0  0  0  0  0  0  0  0  0
  181.7690  174.3530  137.8220 F   0  0  0  0  0  0  0  0  0  0  0  0
  183.4960  175.9290  137.3610 C   0  0  0  0  0  3  0  0  0  0  0  0
  182.9650  177.1880  139.8060 C   0  0  0  0  0  0  0  0  0  0  0  0
  183.9830  177.6900  138.9680 C   0  0  0  0  0  0  0  0  0  0  0  0
  182.2250  176.0660  139.4150 C   0  0  0  0  0  3  0  0  0  0  0  0
  1  9  1  0  0  0  0
  2  3  1  1  0  0  0
  2  5  1  0  0  0  0
  3  7  1  0  0  0  0
  4 11  1  0  0  0  0
  5 14  2  0  0  0  0
  6  1  2  0  0  0  0
  7  4  2  0  0  0  0
  8 21  1  6  0  0  0
  8 13  1  0  0  0  0
  8 12  1  0  0  0  0
 10 19  1  0  0  0  0
 12 16  1  0  0  0  0
 13 18  1  6  0  0  0
 13  2  1  0  0  0  0
 14  1  1  0  0  0  0
 15  4  1  0  0  0  0
 16 17  2  0  0  0  0
 16  5  1  0  0  0  0
 17  6  1  0  0  0  0
 18 10  1  0  0  0  0
 19 20  1  0  0  0  0
 19  3  2  0  0  0  0
 20 15  2  0  0  0  0
 22 23  2  0  0  0  0
 23 21  1  0  0  0  0
 24 31  1  0  0  0  0
 25 30  2  0  0  0  0
 27 24  1  0  0  0  0
 28 25  1  0  0  0  0
 28 24  2  0  0  0  0
 29 26  1  0  0  0  0
 30 23  1  0  0  0  0
 30 29  1  0  0  0  0
 31 29  2  0  0  0  0
M  END
>  <MODEL>
9

>  <REMARK>
 VINA RESULT:      -9.9      1.371      3.744
  Name = 
  3 active torsions:
  status: ('A' for Active; 'I' for Inactive)
    1  A    between atoms: C_9  and  C_22
    2  A    between atoms: C_9  and  O_23
    3  A    between atoms: C_15  and  O_23
                            x       y       z     vdW  Elec       q    Type
                         _______ _______ _______ _____ _____    ______ ____

>  <TORSDO>
F 3

$$$$
