=
 OpenBabel11052413113D

 31 35  0  0  1  0  0  0  0  0999 V2000
  189.2850  177.4230  143.8550 C   0  0  0  0  0  0  0  0  0  0  0  0
  190.0400  177.5810  145.1580 C   0  0  2  0  0  3  0  0  0  0  0  0
  191.7070  176.3530  146.5220 C   0  0  0  0  0  0  0  0  0  0  0  0
  189.8960  177.3300  142.6690 C   0  0  0  0  0  0  0  0  0  0  0  0
  191.3660  177.3960  141.1060 C   0  0  0  0  0  0  0  0  0  0  0  0
  191.2250  176.6600  145.3120 C   0  0  0  0  0  3  0  0  0  0  0  0
  187.0690  177.6650  142.5340 C   0  0  0  0  0  0  0  0  0  0  0  0
  187.8180  177.6340  146.2930 C   0  0  0  0  0  3  0  0  0  0  0  0
  192.8180  175.5840  146.6240 F   0  0  0  0  0  0  0  0  0  0  0  0
  187.7620  177.5450  141.3900 C   0  0  0  0  0  3  0  0  0  0  0  0
  187.8000  177.5970  143.8370 C   0  0  0  0  0  0  0  0  0  0  0  0
  191.2940  177.3630  142.4080 N   0  0  0  0  0  0  0  0  0  0  0  0
  191.0010  176.7780  147.7510 C   0  0  0  0  0  3  0  0  0  0  0  0
  189.1710  177.3310  141.4660 N   0  0  0  0  0  0  0  0  0  0  0  0
  190.0990  177.4000  140.4310 N   0  0  0  0  0  2  0  0  0  0  0  0
  187.1340  177.7160  144.9910 C   0  0  0  0  0  3  0  0  0  0  0  0
  189.1450  177.5190  146.3800 C   0  0  0  0  0  0  0  0  0  0  0  0
  189.7790  177.3170  147.6910 C   0  0  0  0  0  3  0  0  0  0  0  0
  185.5260  179.7250  141.1090 O   0  0  0  0  0  0  0  0  0  0  0  0
  184.9150  178.8890  141.8260 C   0  0  0  0  0  0  0  0  0  0  0  0
  185.6450  177.8720  142.5290 N   0  0  0  0  0  2  0  0  0  0  0  0
  180.6790  179.0040  142.0620 C   0  0  0  0  0  0  0  0  0  0  0  0
  182.6960  178.9120  140.8190 N   0  0  0  0  0  0  0  0  0  0  0  0
  183.5800  179.0200  144.7580 Cl  0  0  0  0  0  0  0  0  0  0  0  0
  178.9310  179.0510  142.1200 Cl  0  0  0  0  0  0  0  0  0  0  0  0
  181.3400  178.9470  140.8390 C   0  0  0  0  0  3  0  0  0  0  0  0
  182.7600  178.9890  143.2020 C   0  0  0  0  0  0  0  0  0  0  0  0
  183.4410  178.9310  141.9610 C   0  0  0  0  0  0  0  0  0  0  0  0
  181.4010  179.0240  143.2100 N   0  0  0  0  0  0  0  0  0  0  0  0
  192.6190  177.4440  140.4060 C   0  0  0  0  0  0  0  0  0  0  0  0
  193.6280  177.4830  139.8420 N   0  0  0  0  0  0  0  0  0  0  0  0
  1  2  1  0  0  0  0
  2  6  1  1  0  0  0
  2 17  1  0  0  0  0
  3  9  1  0  0  0  0
  3 13  1  0  0  0  0
  4  1  2  0  0  0  0
  5 12  2  0  0  0  0
  6  3  2  0  0  0  0
  7 11  1  0  0  0  0
  8 17  2  0  0  0  0
 10 14  1  0  0  0  0
 10  7  2  0  0  0  0
 11  1  1  0  0  0  0
 11 16  2  0  0  0  0
 12  4  1  0  0  0  0
 14  4  1  0  0  0  0
 15  5  1  0  0  0  0
 15 14  1  0  0  0  0
 16  8  1  0  0  0  0
 17 18  1  0  0  0  0
 18 13  2  0  0  0  0
 19 20  2  0  0  0  0
 20 28  1  0  0  0  0
 20 21  1  0  0  0  0
 21  7  1  0  0  0  0
 22 25  1  0  0  0  0
 22 29  1  0  0  0  0
 23 26  1  0  0  0  0
 23 28  2  0  0  0  0
 26 22  2  0  0  0  0
 27 29  2  0  0  0  0
 27 24  1  0  0  0  0
 28 27  1  0  0  0  0
 30  5  1  0  0  0  0
 31 30  3  0  0  0  0
M  END
>  <MODEL>
1

>  <REMARK>
 VINA RESULT:     -11.0      0.000      0.000
  Name = 
  3 active torsions:
  status: ('A' for Active; 'I' for Inactive)
    1  A    between atoms: C_2  and  C_13
    2  A    between atoms: C_9  and  C_22
    3  A    between atoms: C_15  and  N_23
                            x       y       z     vdW  Elec       q    Type
                         _______ _______ _______ _____ _____    ______ ____

>  <TORSDO>
F 3

$$$$
=
 OpenBabel11052413113D

 31 35  0  0  1  0  0  0  0  0999 V2000
  188.8530  177.5490  143.3450 C   0  0  0  0  0  0  0  0  0  0  0  0
  189.1150  177.0230  144.7400 C   0  0  2  0  0  3  0  0  0  0  0  0
  189.0440  177.8160  147.0890 C   0  0  0  0  0  0  0  0  0  0  0  0
  187.6560  177.9980  142.9510 C   0  0  0  0  0  0  0  0  0  0  0  0
  185.5540  178.4170  142.8470 C   0  0  0  0  0  0  0  0  0  0  0  0
  188.5440  177.8740  145.8480 C   0  0  0  0  0  3  0  0  0  0  0  0
  189.5620  177.6780  140.8550 C   0  0  0  0  0  0  0  0  0  0  0  0
  191.4640  176.6060  144.0060 C   0  0  0  0  0  3  0  0  0  0  0  0
  188.4620  178.5350  148.0780 F   0  0  0  0  0  0  0  0  0  0  0  0
  188.3370  178.1410  140.5530 C   0  0  0  0  0  3  0  0  0  0  0  0
  189.8890  177.3680  142.2810 C   0  0  0  0  0  0  0  0  0  0  0  0
  186.4590  178.0620  143.7160 N   0  0  0  0  0  0  0  0  0  0  0  0
  190.2680  177.0360  147.3790 C   0  0  0  0  0  3  0  0  0  0  0  0
  187.4030  178.3420  141.6130 N   0  0  0  0  0  0  0  0  0  0  0  0
  186.0390  178.5950  141.5080 N   0  0  0  0  0  2  0  0  0  0  0  0
  191.1000  176.9040  142.6100 C   0  0  0  0  0  3  0  0  0  0  0  0
  190.5750  176.7090  144.9970 C   0  0  0  0  0  0  0  0  0  0  0  0
  191.0070  176.5230  146.3900 C   0  0  0  0  0  3  0  0  0  0  0  0
  189.6330  175.5860  138.7870 O   0  0  0  0  0  0  0  0  0  0  0  0
  190.5670  176.4300  138.8380 C   0  0  0  0  0  0  0  0  0  0  0  0
  190.5540  177.4620  139.8360 N   0  0  0  0  0  2  0  0  0  0  0  0
  193.6990  176.2480  135.9790 C   0  0  0  0  0  0  0  0  0  0  0  0
  191.4190  176.0300  136.5900 N   0  0  0  0  0  0  0  0  0  0  0  0
  193.5500  177.1440  139.8340 Cl  0  0  0  0  0  0  0  0  0  0  0  0
  194.9640  176.1620  134.7730 Cl  0  0  0  0  0  0  0  0  0  0  0  0
  192.3820  175.9570  135.6380 C   0  0  0  0  0  3  0  0  0  0  0  0
  193.0380  176.6760  138.2170 C   0  0  0  0  0  0  0  0  0  0  0  0
  191.6940  176.3810  137.8780 C   0  0  0  0  0  0  0  0  0  0  0  0
  193.9950  176.5990  137.2560 N   0  0  0  0  0  0  0  0  0  0  0  0
  184.1740  178.5950  143.2030 C   0  0  0  0  0  0  0  0  0  0  0  0
  183.0630  178.7390  143.4900 N   0  0  0  0  0  0  0  0  0  0  0  0
  1  2  1  0  0  0  0
  2 17  1  0  0  0  0
  2  6  1  1  0  0  0
  3 13  1  0  0  0  0
  3  9  1  0  0  0  0
  4  1  2  0  0  0  0
  4 12  1  0  0  0  0
  5 30  1  0  0  0  0
  5 12  2  0  0  0  0
  6  3  2  0  0  0  0
  7 11  1  0  0  0  0
  8 17  2  0  0  0  0
 10  7  2  0  0  0  0
 10 14  1  0  0  0  0
 11 16  2  0  0  0  0
 11  1  1  0  0  0  0
 14  4  1  0  0  0  0
 15 14  1  0  0  0  0
 15  5  1  0  0  0  0
 16  8  1  0  0  0  0
 17 18  1  0  0  0  0
 18 13  2  0  0  0  0
 19 20  2  0  0  0  0
 20 21  1  0  0  0  0
 21  7  1  0  0  0  0
 22 29  1  0  0  0  0
 23 28  2  0  0  0  0
 25 22  1  0  0  0  0
 26 22  2  0  0  0  0
 26 23  1  0  0  0  0
 27 24  1  0  0  0  0
 28 27  1  0  0  0  0
 28 20  1  0  0  0  0
 29 27  2  0  0  0  0
 30 31  3  0  0  0  0
M  END
>  <MODEL>
2

>  <REMARK>
 VINA RESULT:      -9.9      4.233      7.794
  Name = 
  3 active torsions:
  status: ('A' for Active; 'I' for Inactive)
    1  A    between atoms: C_2  and  C_13
    2  A    between atoms: C_9  and  C_22
    3  A    between atoms: C_15  and  N_23
                            x       y       z     vdW  Elec       q    Type
                         _______ _______ _______ _____ _____    ______ ____

>  <TORSDO>
F 3

$$$$
=
 OpenBabel11052413113D

 31 35  0  0  1  0  0  0  0  0999 V2000
  187.3390  177.8500  143.1120 C   0  0  0  0  0  0  0  0  0  0  0  0
  187.3230  177.4150  144.5620 C   0  0  2  0  0  3  0  0  0  0  0  0
  186.8000  178.3520  146.7970 C   0  0  0  0  0  0  0  0  0  0  0  0
  186.2420  178.2620  142.4660 C   0  0  0  0  0  0  0  0  0  0  0  0
  184.2010  178.6540  141.9300 C   0  0  0  0  0  0  0  0  0  0  0  0
  186.5510  178.3280  145.4820 C   0  0  0  0  0  3  0  0  0  0  0  0
  188.5170  177.8290  140.8040 C   0  0  0  0  0  0  0  0  0  0  0  0
  189.7680  176.9740  144.3240 C   0  0  0  0  0  3  0  0  0  0  0  0
  186.0400  179.1270  147.6080 F   0  0  0  0  0  0  0  0  0  0  0  0
  187.3760  178.2610  140.2410 C   0  0  0  0  0  3  0  0  0  0  0  0
  188.5600  177.6120  142.2830 C   0  0  0  0  0  0  0  0  0  0  0  0
  184.9190  178.3630  142.9790 N   0  0  0  0  0  0  0  0  0  0  0  0
  187.9430  177.6040  147.3680 C   0  0  0  0  0  3  0  0  0  0  0  0
  186.2550  178.5200  141.0850 N   0  0  0  0  0  0  0  0  0  0  0  0
  184.9370  178.7530  140.7020 N   0  0  0  0  0  2  0  0  0  0  0  0
  189.6830  177.1800  142.8690 C   0  0  0  0  0  3  0  0  0  0  0  0
  188.7050  177.1310  145.1160 C   0  0  0  0  0  0  0  0  0  0  0  0
  188.8580  177.0360  146.5760 C   0  0  0  0  0  3  0  0  0  0  0  0
  188.7350  176.2100  138.3560 O   0  0  0  0  0  0  0  0  0  0  0  0
  189.7690  176.7610  138.8200 C   0  0  0  0  0  0  0  0  0  0  0  0
  189.6880  177.5590  140.0120 N   0  0  0  0  0  2  0  0  0  0  0  0
  193.4620  176.2650  136.7900 C   0  0  0  0  0  0  0  0  0  0  0  0
  191.0940  176.1720  136.8630 N   0  0  0  0  0  0  0  0  0  0  0  0
  192.4730  177.4390  140.4410 Cl  0  0  0  0  0  0  0  0  0  0  0  0
  194.9650  176.0480  135.9210 Cl  0  0  0  0  0  0  0  0  0  0  0  0
  192.2470  175.9970  136.1690 C   0  0  0  0  0  3  0  0  0  0  0  0
  192.3250  176.8750  138.7810 C   0  0  0  0  0  0  0  0  0  0  0  0
  191.0820  176.6040  138.1560 C   0  0  0  0  0  0  0  0  0  0  0  0
  193.4730  176.6960  138.0770 N   0  0  0  0  0  0  0  0  0  0  0  0
  182.7790  178.8420  142.0000 C   0  0  0  0  0  0  0  0  0  0  0  0
  181.6340  178.9940  142.0570 N   0  0  0  0  0  0  0  0  0  0  0  0
  1  2  1  0  0  0  0
  2 17  1  0  0  0  0
  2  6  1  1  0  0  0
  3 13  1  0  0  0  0
  3  9  1  0  0  0  0
  4 12  1  0  0  0  0
  4  1  2  0  0  0  0
  5 30  1  0  0  0  0
  5 12  2  0  0  0  0
  6  3  2  0  0  0  0
  7 11  1  0  0  0  0
  8 17  2  0  0  0  0
 10  7  2  0  0  0  0
 10 14  1  0  0  0  0
 11 16  2  0  0  0  0
 11  1  1  0  0  0  0
 14  4  1  0  0  0  0
 15 14  1  0  0  0  0
 15  5  1  0  0  0  0
 16  8  1  0  0  0  0
 17 18  1  0  0  0  0
 18 13  2  0  0  0  0
 19 20  2  0  0  0  0
 20 21  1  0  0  0  0
 21  7  1  0  0  0  0
 22 29  1  0  0  0  0
 23 28  2  0  0  0  0
 25 22  1  0  0  0  0
 26 22  2  0  0  0  0
 26 23  1  0  0  0  0
 27 24  1  0  0  0  0
 28 27  1  0  0  0  0
 28 20  1  0  0  0  0
 29 27  2  0  0  0  0
 30 31  3  0  0  0  0
M  END
>  <MODEL>
3

>  <REMARK>
 VINA RESULT:      -9.7      4.035      7.782
  Name = 
  3 active torsions:
  status: ('A' for Active; 'I' for Inactive)
    1  A    between atoms: C_2  and  C_13
    2  A    between atoms: C_9  and  C_22
    3  A    between atoms: C_15  and  N_23
                            x       y       z     vdW  Elec       q    Type
                         _______ _______ _______ _____ _____    ______ ____

>  <TORSDO>
F 3

$$$$
=
 OpenBabel11052413113D

 31 35  0  0  1  0  0  0  0  0999 V2000
  185.5930  178.5070  140.3880 C   0  0  0  0  0  0  0  0  0  0  0  0
  184.0820  178.4240  140.4160 C   0  0  2  0  0  3  0  0  0  0  0  0
  182.1150  179.7210  139.6410 C   0  0  0  0  0  0  0  0  0  0  0  0
  186.2980  178.5250  139.2520 C   0  0  0  0  0  0  0  0  0  0  0  0
  186.8760  178.3530  137.1920 C   0  0  0  0  0  0  0  0  0  0  0  0
  183.3850  179.3440  139.4440 C   0  0  0  0  0  3  0  0  0  0  0  0
  187.8530  178.2000  141.6190 C   0  0  0  0  0  0  0  0  0  0  0  0
  184.2510  178.4550  142.9060 C   0  0  0  0  0  3  0  0  0  0  0  0
  181.4930  180.4870  138.7130 F   0  0  0  0  0  0  0  0  0  0  0  0
  188.4810  178.2460  140.4320 C   0  0  0  0  0  3  0  0  0  0  0  0
  186.3640  178.3430  141.6590 C   0  0  0  0  0  0  0  0  0  0  0  0
  185.8010  178.4660  137.9210 N   0  0  0  0  0  0  0  0  0  0  0  0
  181.4060  179.3760  140.8940 C   0  0  0  0  0  3  0  0  0  0  0  0
  187.7010  178.4550  139.2550 N   0  0  0  0  0  0  0  0  0  0  0  0
  188.1060  178.3170  137.9310 N   0  0  0  0  0  2  0  0  0  0  0  0
  185.7140  178.2990  142.8270 C   0  0  0  0  0  3  0  0  0  0  0  0
  183.5000  178.5660  141.8080 C   0  0  0  0  0  0  0  0  0  0  0  0
  182.0610  178.8430  141.9310 C   0  0  0  0  0  3  0  0  0  0  0  0
  188.3030  175.6950  143.0950 O   0  0  0  0  0  0  0  0  0  0  0  0
  188.7830  176.7670  143.5480 C   0  0  0  0  0  0  0  0  0  0  0  0
  188.5800  178.0030  142.8450 N   0  0  0  0  0  2  0  0  0  0  0  0
  191.1420  176.7700  147.0760 C   0  0  0  0  0  0  0  0  0  0  0  0
  190.8830  176.4470  144.7410 N   0  0  0  0  0  0  0  0  0  0  0  0
  187.3420  177.5840  146.3150 Cl  0  0  0  0  0  0  0  0  0  0  0  0
  192.1460  176.7600  148.5090 Cl  0  0  0  0  0  0  0  0  0  0  0  0
  191.6810  176.4320  145.8390 C   0  0  0  0  0  3  0  0  0  0  0  0
  189.0230  177.1270  146.0700 C   0  0  0  0  0  0  0  0  0  0  0  0
  189.5640  176.7830  144.8060 C   0  0  0  0  0  0  0  0  0  0  0  0
  189.8310  177.1080  147.1630 N   0  0  0  0  0  0  0  0  0  0  0  0
  186.8280  178.2540  135.7600 C   0  0  0  0  0  0  0  0  0  0  0  0
  186.7890  178.1750  134.6070 N   0  0  0  0  0  0  0  0  0  0  0  0
  1  2  1  0  0  0  0
  1 11  1  0  0  0  0
  2  6  1  6  0  0  0
  2 17  1  0  0  0  0
  3 13  1  0  0  0  0
  4 14  1  0  0  0  0
  4  1  2  0  0  0  0
  5 12  2  0  0  0  0
  5 15  1  0  0  0  0
  6  3  2  0  0  0  0
  7 11  1  0  0  0  0
  7 21  1  0  0  0  0
  9  3  1  0  0  0  0
 10  7  2  0  0  0  0
 11 16  2  0  0  0  0
 12  4  1  0  0  0  0
 13 18  2  0  0  0  0
 14 10  1  0  0  0  0
 15 14  1  0  0  0  0
 16  8  1  0  0  0  0
 17 18  1  0  0  0  0
 17  8  2  0  0  0  0
 19 20  2  0  0  0  0
 20 28  1  0  0  0  0
 21 20  1  0  0  0  0
 22 29  1  0  0  0  0
 22 25  1  0  0  0  0
 23 28  2  0  0  0  0
 23 26  1  0  0  0  0
 26 22  2  0  0  0  0
 27 24  1  0  0  0  0
 27 29  2  0  0  0  0
 28 27  1  0  0  0  0
 30  5  1  0  0  0  0
 31 30  3  0  0  0  0
M  END
>  <MODEL>
4

>  <REMARK>
 VINA RESULT:      -9.1      4.244      8.056
  Name = 
  3 active torsions:
  status: ('A' for Active; 'I' for Inactive)
    1  A    between atoms: C_2  and  C_13
    2  A    between atoms: C_9  and  C_22
    3  A    between atoms: C_15  and  N_23
                            x       y       z     vdW  Elec       q    Type
                         _______ _______ _______ _____ _____    ______ ____

>  <TORSDO>
F 3

$$$$
=
 OpenBabel11052413113D

 31 35  0  0  1  0  0  0  0  0999 V2000
  188.8350  177.7750  142.8000 C   0  0  0  0  0  0  0  0  0  0  0  0
  189.2840  177.8730  144.2420 C   0  0  2  0  0  3  0  0  0  0  0  0
  190.4600  176.5010  145.9400 C   0  0  0  0  0  0  0  0  0  0  0  0
  189.6880  177.6020  141.7840 C   0  0  0  0  0  0  0  0  0  0  0  0
  191.4750  177.4950  140.6000 C   0  0  0  0  0  0  0  0  0  0  0  0
  190.3020  176.8380  144.6550 C   0  0  0  0  0  3  0  0  0  0  0  0
  187.0160  178.2240  141.0090 C   0  0  0  0  0  0  0  0  0  0  0  0
  186.8790  178.1700  144.8390 C   0  0  0  0  0  3  0  0  0  0  0  0
  191.4320  175.6240  146.2870 F   0  0  0  0  0  0  0  0  0  0  0  0
  187.9370  178.0160  140.0530 C   0  0  0  0  0  3  0  0  0  0  0  0
  187.4190  178.1000  142.4440 C   0  0  0  0  0  0  0  0  0  0  0  0
  191.1040  177.4890  141.8500 N   0  0  0  0  0  0  0  0  0  0  0  0
  189.5390  177.0140  146.9790 C   0  0  0  0  0  3  0  0  0  0  0  0
  189.2610  177.6600  140.4470 N   0  0  0  0  0  0  0  0  0  0  0  0
  190.4040  177.6190  139.6530 N   0  0  0  0  0  2  0  0  0  0  0  0
  186.5230  178.3030  143.4160 C   0  0  0  0  0  3  0  0  0  0  0  0
  188.1320  177.9210  145.2260 C   0  0  0  0  0  0  0  0  0  0  0  0
  188.4250  177.6740  146.6460 C   0  0  0  0  0  3  0  0  0  0  0  0
  185.8360  178.6670  138.3510 O   0  0  0  0  0  0  0  0  0  0  0  0
  185.1090  178.7890  139.3720 C   0  0  0  0  0  0  0  0  0  0  0  0
  185.6610  178.5750  140.6810 N   0  0  0  0  0  2  0  0  0  0  0  0
  181.0500  179.9720  138.9920 C   0  0  0  0  0  0  0  0  0  0  0  0
  183.3740  180.4370  138.9140 N   0  0  0  0  0  0  0  0  0  0  0  0
  182.8410  176.5590  139.9050 Cl  0  0  0  0  0  0  0  0  0  0  0  0
  179.3890  180.4950  138.8270 Cl  0  0  0  0  0  0  0  0  0  0  0  0
  182.0940  180.8670  138.7800 C   0  0  0  0  0  3  0  0  0  0  0  0
  182.6100  178.2470  139.4660 C   0  0  0  0  0  0  0  0  0  0  0  0
  183.6780  179.1520  139.2520 C   0  0  0  0  0  0  0  0  0  0  0  0
  181.3320  178.6870  139.3290 N   0  0  0  0  0  0  0  0  0  0  0  0
  192.8530  177.4040  140.2060 C   0  0  0  0  0  0  0  0  0  0  0  0
  193.9630  177.3310  139.8880 N   0  0  0  0  0  0  0  0  0  0  0  0
  1  2  1  0  0  0  0
  2  6  1  1  0  0  0
  2 17  1  0  0  0  0
  3  9  1  0  0  0  0
  3 13  1  0  0  0  0
  4 12  1  0  0  0  0
  4  1  2  0  0  0  0
  5 12  2  0  0  0  0
  6  3  2  0  0  0  0
  7 11  1  0  0  0  0
  8 17  2  0  0  0  0
 10 14  1  0  0  0  0
 10  7  2  0  0  0  0
 11  1  1  0  0  0  0
 11 16  2  0  0  0  0
 14  4  1  0  0  0  0
 15 14  1  0  0  0  0
 15  5  1  0  0  0  0
 16  8  1  0  0  0  0
 17 18  1  0  0  0  0
 18 13  2  0  0  0  0
 19 20  2  0  0  0  0
 20 21  1  0  0  0  0
 21  7  1  0  0  0  0
 22 29  1  0  0  0  0
 23 28  2  0  0  0  0
 25 22  1  0  0  0  0
 26 23  1  0  0  0  0
 26 22  2  0  0  0  0
 27 24  1  0  0  0  0
 28 20  1  0  0  0  0
 28 27  1  0  0  0  0
 29 27  2  0  0  0  0
 30  5  1  0  0  0  0
 31 30  3  0  0  0  0
M  END
>  <MODEL>
5

>  <REMARK>
 VINA RESULT:      -8.9      2.091      2.260
  Name = 
  3 active torsions:
  status: ('A' for Active; 'I' for Inactive)
    1  A    between atoms: C_2  and  C_13
    2  A    between atoms: C_9  and  C_22
    3  A    between atoms: C_15  and  N_23
                            x       y       z     vdW  Elec       q    Type
                         _______ _______ _______ _____ _____    ______ ____

>  <TORSDO>
F 3

$$$$
=
 OpenBabel11052413113D

 31 35  0  0  0  0  0  0  0  0999 V2000
  188.8930  177.1740  144.8010 C   0  0  0  0  0  0  0  0  0  0  0  0
  187.7970  178.0390  145.3860 C   0  0  0  0  0  0  0  0  0  0  0  0
  186.1410  177.9780  147.2300 C   0  0  0  0  0  0  0  0  0  0  0  0
  189.9730  176.8000  145.4960 C   0  0  0  0  0  0  0  0  0  0  0  0
  191.5030  176.6650  146.9950 C   0  0  0  0  0  0  0  0  0  0  0  0
  187.3490  177.6340  146.7680 C   0  0  0  0  0  3  0  0  0  0  0  0
  190.0930  176.2320  142.7050 C   0  0  0  0  0  0  0  0  0  0  0  0
  186.6710  177.8950  143.1640 C   0  0  0  0  0  3  0  0  0  0  0  0
  185.7960  177.6640  148.5020 F   0  0  0  0  0  0  0  0  0  0  0  0
  191.1280  175.8760  143.4850 C   0  0  0  0  0  3  0  0  0  0  0  0
  188.9070  176.8930  143.3320 C   0  0  0  0  0  0  0  0  0  0  0  0
  190.2940  177.1270  146.8430 N   0  0  0  0  0  0  0  0  0  0  0  0
  185.1480  178.6310  146.3470 C   0  0  0  0  0  3  0  0  0  0  0  0
  191.0420  176.1220  144.8880 N   0  0  0  0  0  0  0  0  0  0  0  0
  192.0630  176.0420  145.8300 N   0  0  0  0  0  2  0  0  0  0  0  0
  187.8640  177.2600  142.5790 C   0  0  0  0  0  3  0  0  0  0  0  0
  186.6100  178.2090  144.4600 C   0  0  0  0  0  0  0  0  0  0  0  0
  185.3580  178.7280  145.0300 C   0  0  0  0  0  2  0  0  0  0  0  0
  191.3720  177.8530  140.6090 O   0  0  0  0  0  0  0  0  0  0  0  0
  190.7420  176.8130  140.2800 C   0  0  0  0  0  0  0  0  0  0  0  0
  190.1110  176.0040  141.2850 N   0  0  0  0  0  2  0  0  0  0  0  0
  190.5210  175.5100  136.2470 C   0  0  0  0  0  0  0  0  0  0  0  0
  191.2640  175.2530  138.4840 N   0  0  0  0  0  0  0  0  0  0  0  0
  189.0570  178.6240  138.2100 Cl  0  0  0  0  0  0  0  0  0  0  0  0
  190.4520  174.9420  134.5940 Cl  0  0  0  0  0  0  0  0  0  0  0  0
  191.2250  174.7920  137.2080 C   0  0  0  0  0  3  0  0  0  0  0  0
  189.9200  177.1270  137.8770 C   0  0  0  0  0  0  0  0  0  0  0  0
  190.6350  176.4010  138.8620 C   0  0  0  0  0  0  0  0  0  0  0  0
  189.8870  176.6570  136.6030 N   0  0  0  0  0  0  0  0  0  0  0  0
  192.2240  176.7910  148.2310 C   0  0  0  0  0  0  0  0  0  0  0  0
  192.8050  176.8920  149.2260 N   0  0  0  0  0  0  0  0  0  0  0  0
  1  2  1  0  0  0  0
  1  4  2  0  0  0  0
  2  6  2  0  0  0  0
  3  9  1  0  0  0  0
  4 12  1  0  0  0  0
  5 30  1  0  0  0  0
  6  3  1  0  0  0  0
  7 11  1  0  0  0  0
  7 10  2  0  0  0  0
  8 17  2  0  0  0  0
 10 14  1  0  0  0  0
 11  1  1  0  0  0  0
 12  5  2  0  0  0  0
 13  3  2  0  0  0  0
 14  4  1  0  0  0  0
 14 15  1  0  0  0  0
 15  5  1  0  0  0  0
 16  8  1  0  0  0  0
 16 11  2  0  0  0  0
 17 18  1  0  0  0  0
 17  2  1  0  0  0  0
 18 13  1  0  0  0  0
 20 19  2  0  0  0  0
 20 21  1  0  0  0  0
 21  7  1  0  0  0  0
 22 29  2  0  0  0  0
 22 26  1  0  0  0  0
 23 28  1  0  0  0  0
 25 22  1  0  0  0  0
 26 23  2  0  0  0  0
 27 24  1  0  0  0  0
 27 28  2  0  0  0  0
 28 20  1  0  0  0  0
 29 27  1  0  0  0  0
 30 31  3  0  0  0  0
M  END
>  <MODEL>
6

>  <REMARK>
 VINA RESULT:      -8.9      4.403      7.023
  Name = 
  3 active torsions:
  status: ('A' for Active; 'I' for Inactive)
    1  A    between atoms: C_2  and  C_13
    2  A    between atoms: C_9  and  C_22
    3  A    between atoms: C_15  and  N_23
                            x       y       z     vdW  Elec       q    Type
                         _______ _______ _______ _____ _____    ______ ____

>  <TORSDO>
F 3

$$$$
=
 OpenBabel11052413113D

 31 35  0  0  0  0  0  0  0  0999 V2000
  187.2730  178.2870  139.3260 C   0  0  0  0  0  0  0  0  0  0  0  0
  187.9190  178.3220  137.9570 C   0  0  0  0  0  0  0  0  0  0  0  0
  187.6110  177.3210  135.7100 C   0  0  0  0  0  0  0  0  0  0  0  0
  186.0100  178.6700  139.5430 C   0  0  0  0  0  0  0  0  0  0  0  0
  184.0610  179.5410  139.3160 C   0  0  0  0  0  0  0  0  0  0  0  0
  187.0620  177.7700  136.8450 C   0  0  0  0  0  3  0  0  0  0  0  0
  187.5410  178.2090  141.9030 C   0  0  0  0  0  0  0  0  0  0  0  0
  189.9880  177.4550  139.0500 C   0  0  0  0  0  3  0  0  0  0  0  0
  186.8120  176.9010  134.7000 F   0  0  0  0  0  0  0  0  0  0  0  0
  186.2560  178.5800  142.0260 C   0  0  0  0  0  3  0  0  0  0  0  0
  188.1160  178.0290  140.5330 C   0  0  0  0  0  0  0  0  0  0  0  0
  185.0770  179.1650  138.5900 N   0  0  0  0  0  0  0  0  0  0  0  0
  189.0800  177.2070  135.5700 C   0  0  0  0  0  3  0  0  0  0  0  0
  185.4820  178.7650  140.8420 N   0  0  0  0  0  0  0  0  0  0  0  0
  184.2260  179.3520  140.7290 N   0  0  0  0  0  2  0  0  0  0  0  0
  189.3940  177.6610  140.3810 C   0  0  0  0  0  3  0  0  0  0  0  0
  189.3020  177.7050  137.9320 C   0  0  0  0  0  0  0  0  0  0  0  0
  189.8860  177.3710  136.6240 C   0  0  0  0  0  2  0  0  0  0  0  0
  188.1970  175.6710  143.2390 O   0  0  0  0  0  0  0  0  0  0  0  0
  188.6770  176.7430  143.6920 C   0  0  0  0  0  0  0  0  0  0  0  0
  188.3740  177.9950  143.0560 N   0  0  0  0  0  2  0  0  0  0  0  0
  191.3210  176.7010  147.0120 C   0  0  0  0  0  0  0  0  0  0  0  0
  190.8690  176.4100  144.7030 N   0  0  0  0  0  0  0  0  0  0  0  0
  187.4700  177.5190  146.5800 Cl  0  0  0  0  0  0  0  0  0  0  0  0
  192.4400  176.6730  148.3570 Cl  0  0  0  0  0  0  0  0  0  0  0  0
  191.7550  176.3810  145.7300 C   0  0  0  0  0  3  0  0  0  0  0  0
  189.1250  177.0680  146.1910 C   0  0  0  0  0  0  0  0  0  0  0  0
  189.5590  176.7430  144.8810 C   0  0  0  0  0  0  0  0  0  0  0  0
  190.0210  177.0360  147.2120 N   0  0  0  0  0  0  0  0  0  0  0  0
  182.8770  180.1170  138.7420 C   0  0  0  0  0  0  0  0  0  0  0  0
  181.9240  180.5810  138.2800 N   0  0  0  0  0  0  0  0  0  0  0  0
  1  4  2  0  0  0  0
  1 11  1  0  0  0  0
  2  1  1  0  0  0  0
  3  6  1  0  0  0  0
  4 14  1  0  0  0  0
  5 15  1  0  0  0  0
  6  2  2  0  0  0  0
  7 10  2  0  0  0  0
  7 21  1  0  0  0  0
  8 16  1  0  0  0  0
  9  3  1  0  0  0  0
 11  7  1  0  0  0  0
 12  5  2  0  0  0  0
 12  4  1  0  0  0  0
 13  3  2  0  0  0  0
 13 18  1  0  0  0  0
 14 10  1  0  0  0  0
 15 14  1  0  0  0  0
 16 11  2  0  0  0  0
 17  2  1  0  0  0  0
 17  8  2  0  0  0  0
 18 17  1  0  0  0  0
 19 20  2  0  0  0  0
 20 28  1  0  0  0  0
 21 20  1  0  0  0  0
 22 29  1  0  0  0  0
 22 25  1  0  0  0  0
 23 28  2  0  0  0  0
 23 26  1  0  0  0  0
 26 22  2  0  0  0  0
 27 24  1  0  0  0  0
 27 29  2  0  0  0  0
 28 27  1  0  0  0  0
 30  5  1  0  0  0  0
 31 30  3  0  0  0  0
M  END
>  <MODEL>
7

>  <REMARK>
 VINA RESULT:      -8.9      4.283      8.537
  Name = 
  3 active torsions:
  status: ('A' for Active; 'I' for Inactive)
    1  A    between atoms: C_2  and  C_13
    2  A    between atoms: C_9  and  C_22
    3  A    between atoms: C_15  and  N_23
                            x       y       z     vdW  Elec       q    Type
                         _______ _______ _______ _____ _____    ______ ____

>  <TORSDO>
F 3

$$$$
=
 OpenBabel11052413113D

 31 35  0  0  0  0  0  0  0  0999 V2000
  187.9520  177.7220  142.7340 C   0  0  0  0  0  0  0  0  0  0  0  0
  186.7050  178.5790  142.6840 C   0  0  0  0  0  0  0  0  0  0  0  0
  184.3860  178.5720  143.5640 C   0  0  0  0  0  0  0  0  0  0  0  0
  188.5940  177.4390  143.8730 C   0  0  0  0  0  0  0  0  0  0  0  0
  189.2640  177.4640  145.9110 C   0  0  0  0  0  0  0  0  0  0  0  0
  185.6740  178.2470  143.7350 C   0  0  0  0  0  3  0  0  0  0  0  0
  189.9860  176.6940  141.4990 C   0  0  0  0  0  0  0  0  0  0  0  0
  186.7260  178.2450  140.2110 C   0  0  0  0  0  3  0  0  0  0  0  0
  183.4970  178.3290  144.5570 F   0  0  0  0  0  0  0  0  0  0  0  0
  190.5490  176.4320  142.6910 C   0  0  0  0  0  3  0  0  0  0  0  0
  188.6410  177.3470  141.4610 C   0  0  0  0  0  0  0  0  0  0  0  0
  188.2570  177.8660  145.1870 N   0  0  0  0  0  0  0  0  0  0  0  0
  183.9070  179.1250  142.2770 C   0  0  0  0  0  3  0  0  0  0  0  0
  189.8260  176.7650  143.8750 N   0  0  0  0  0  0  0  0  0  0  0  0
  190.3010  176.7890  145.1830 N   0  0  0  0  0  2  0  0  0  0  0  0
  188.0580  177.6210  140.2880 C   0  0  0  0  0  3  0  0  0  0  0  0
  186.0740  178.6390  141.3070 C   0  0  0  0  0  0  0  0  0  0  0  0
  184.6970  179.1440  141.2000 C   0  0  0  0  0  2  0  0  0  0  0  0
  192.4420  177.8780  140.3930 O   0  0  0  0  0  0  0  0  0  0  0  0
  191.8550  176.9700  139.7470 C   0  0  0  0  0  0  0  0  0  0  0  0
  190.6550  176.3740  140.2670 N   0  0  0  0  0  2  0  0  0  0  0  0
  193.4930  175.5840  136.0850 C   0  0  0  0  0  0  0  0  0  0  0  0
  193.6740  176.0710  138.3990 N   0  0  0  0  0  0  0  0  0  0  0  0
  189.9390  176.9710  137.1520 Cl  0  0  0  0  0  0  0  0  0  0  0  0
  194.2020  175.0070  134.5940 Cl  0  0  0  0  0  0  0  0  0  0  0  0
  194.2460  175.6190  137.2540 C   0  0  0  0  0  3  0  0  0  0  0  0
  191.6190  176.4580  137.2510 C   0  0  0  0  0  0  0  0  0  0  0  0
  192.3800  176.4960  138.4460 C   0  0  0  0  0  0  0  0  0  0  0  0
  192.2020  176.0030  136.1100 N   0  0  0  0  0  0  0  0  0  0  0  0
  189.3370  177.6990  147.3260 C   0  0  0  0  0  0  0  0  0  0  0  0
  189.3940  177.8890  148.4660 N   0  0  0  0  0  0  0  0  0  0  0  0
  1  4  2  0  0  0  0
  2  1  1  0  0  0  0
  2  6  2  0  0  0  0
  3  6  1  0  0  0  0
  3  9  1  0  0  0  0
  4 14  1  0  0  0  0
  4 12  1  0  0  0  0
  5 30  1  0  0  0  0
  7 10  2  0  0  0  0
  8 16  1  0  0  0  0
  8 17  2  0  0  0  0
 10 14  1  0  0  0  0
 11  7  1  0  0  0  0
 11  1  1  0  0  0  0
 12  5  2  0  0  0  0
 13  3  2  0  0  0  0
 14 15  1  0  0  0  0
 15  5  1  0  0  0  0
 16 11  2  0  0  0  0
 17  2  1  0  0  0  0
 18 17  1  0  0  0  0
 18 13  1  0  0  0  0
 20 21  1  0  0  0  0
 20 19  2  0  0  0  0
 21  7  1  0  0  0  0
 22 29  2  0  0  0  0
 22 26  1  0  0  0  0
 23 28  1  0  0  0  0
 24 27  1  0  0  0  0
 25 22  1  0  0  0  0
 26 23  2  0  0  0  0
 27 28  2  0  0  0  0
 28 20  1  0  0  0  0
 29 27  1  0  0  0  0
 30 31  3  0  0  0  0
M  END
>  <MODEL>
8

>  <REMARK>
 VINA RESULT:      -8.7      4.593      8.452
  Name = 
  3 active torsions:
  status: ('A' for Active; 'I' for Inactive)
    1  A    between atoms: C_2  and  C_13
    2  A    between atoms: C_9  and  C_22
    3  A    between atoms: C_15  and  N_23
                            x       y       z     vdW  Elec       q    Type
                         _______ _______ _______ _____ _____    ______ ____

>  <TORSDO>
F 3

$$$$
=
 OpenBabel11052413113D

 31 35  0  0  0  0  0  0  0  0999 V2000
  189.5380  177.1310  142.4150 C   0  0  0  0  0  0  0  0  0  0  0  0
  190.4940  176.7120  141.3190 C   0  0  0  0  0  0  0  0  0  0  0  0
  192.7070  177.3650  140.4080 C   0  0  0  0  0  0  0  0  0  0  0  0
  189.8620  177.1010  143.7120 C   0  0  0  0  0  0  0  0  0  0  0  0
  190.8550  176.6930  145.5710 C   0  0  0  0  0  0  0  0  0  0  0  0
  191.8940  177.2570  141.4660 C   0  0  0  0  0  3  0  0  0  0  0  0
  187.1020  177.5760  143.1810 C   0  0  0  0  0  0  0  0  0  0  0  0
  188.6690  177.2350  139.6990 C   0  0  0  0  0  3  0  0  0  0  0  0
  193.9820  177.7870  140.5840 F   0  0  0  0  0  0  0  0  0  0  0  0
  187.5210  177.5460  144.4570 C   0  0  0  0  0  3  0  0  0  0  0  0
  188.1010  177.3810  142.0840 C   0  0  0  0  0  0  0  0  0  0  0  0
  191.0950  176.6880  144.2890 N   0  0  0  0  0  0  0  0  0  0  0  0
  192.2100  177.1020  139.0390 C   0  0  0  0  0  3  0  0  0  0  0  0
  188.9110  177.3540  144.7150 N   0  0  0  0  0  0  0  0  0  0  0  0
  189.5190  177.0720  145.9340 N   0  0  0  0  0  2  0  0  0  0  0  0
  187.7110  177.4030  140.8050 C   0  0  0  0  0  3  0  0  0  0  0  0
  189.9580  176.9700  139.9250 C   0  0  0  0  0  0  0  0  0  0  0  0
  190.9050  176.9300  138.8010 C   0  0  0  0  0  2  0  0  0  0  0  0
  185.8160  179.9790  142.0720 O   0  0  0  0  0  0  0  0  0  0  0  0
  185.1120  178.9630  142.3120 C   0  0  0  0  0  0  0  0  0  0  0  0
  185.7160  177.7760  142.8510 N   0  0  0  0  0  2  0  0  0  0  0  0
  180.9660  178.9640  141.4030 C   0  0  0  0  0  0  0  0  0  0  0  0
  183.2450  178.9600  140.7470 N   0  0  0  0  0  0  0  0  0  0  0  0
  183.0360  178.9700  144.7800 Cl  0  0  0  0  0  0  0  0  0  0  0  0
  179.2660  178.9640  140.9900 Cl  0  0  0  0  0  0  0  0  0  0  0  0
  181.9320  178.9600  140.4020 C   0  0  0  0  0  3  0  0  0  0  0  0
  182.6650  178.9670  143.0600 C   0  0  0  0  0  0  0  0  0  0  0  0
  183.6550  178.9630  142.0470 C   0  0  0  0  0  0  0  0  0  0  0  0
  181.3530  178.9670  142.7040 N   0  0  0  0  0  0  0  0  0  0  0  0
  191.8490  176.3260  146.5400 C   0  0  0  0  0  0  0  0  0  0  0  0
  192.6490  176.0310  147.3210 N   0  0  0  0  0  0  0  0  0  0  0  0
  1  4  2  0  0  0  0
  2  6  2  0  0  0  0
  2  1  1  0  0  0  0
  3  9  1  0  0  0  0
  3  6  1  0  0  0  0
  4 12  1  0  0  0  0
  4 14  1  0  0  0  0
  5 15  1  0  0  0  0
  5 30  1  0  0  0  0
  7 10  2  0  0  0  0
  8 17  2  0  0  0  0
  8 16  1  0  0  0  0
 10 14  1  0  0  0  0
 11  1  1  0  0  0  0
 11  7  1  0  0  0  0
 12  5  2  0  0  0  0
 13  3  2  0  0  0  0
 14 15  1  0  0  0  0
 16 11  2  0  0  0  0
 17  2  1  0  0  0  0
 18 13  1  0  0  0  0
 18 17  1  0  0  0  0
 19 20  2  0  0  0  0
 20 21  1  0  0  0  0
 21  7  1  0  0  0  0
 22 29  1  0  0  0  0
 23 28  2  0  0  0  0
 25 22  1  0  0  0  0
 26 23  1  0  0  0  0
 26 22  2  0  0  0  0
 27 24  1  0  0  0  0
 28 20  1  0  0  0  0
 28 27  1  0  0  0  0
 29 27  2  0  0  0  0
 30 31  3  0  0  0  0
M  END
>  <MODEL>
9

>  <REMARK>
 VINA RESULT:      -8.0      2.018      4.258
  Name = 
  3 active torsions:
  status: ('A' for Active; 'I' for Inactive)
    1  A    between atoms: C_2  and  C_13
    2  A    between atoms: C_9  and  C_22
    3  A    between atoms: C_15  and  N_23
                            x       y       z     vdW  Elec       q    Type
                         _______ _______ _______ _____ _____    ______ ____

>  <TORSDO>
F 3

$$$$
