=
 OpenBabel11052415203D

 37 41  0  0  1  0  0  0  0  0999 V2000
  184.6140  179.3980  142.3970 C   0  0  2  0  0  3  0  0  0  0  0  0
  183.2220  178.6350  144.7600 N   0  0  0  0  0  0  0  0  0  0  0  0
  185.1280  178.7380  141.1220 C   0  0  0  0  0  2  0  0  0  0  0  0
  185.3490  178.9270  143.6350 C   0  0  0  0  0  0  0  0  0  0  0  0
  183.8910  178.3270  140.3220 C   0  0  1  0  0  0  0  0  0  0  0  0
  181.1020  178.8110  143.7510 N   0  0  0  0  0  1  0  0  0  0  0  0
  181.5820  179.4410  140.5110 C   0  0  0  0  0  1  0  0  0  0  0  0
  182.5240  178.8640  143.6920 C   0  0  0  0  0  0  0  0  0  0  0  0
  183.1900  179.1020  142.4500 N   0  0  0  0  0  0  0  0  0  0  0  0
  184.6600  178.6060  144.7580 C   0  0  0  0  0  0  0  0  0  0  0  0
  183.0180  177.1640  140.8210 C   0  0  1  0  0  3  0  0  0  0  0  0
  182.6760  178.6160  141.1860 C   0  0  2  0  0  0  0  0  0  0  0  0
  180.6110  176.7030  139.9450 C   0  0  0  0  0  2  0  0  0  0  0  0
  182.1110  176.5770  139.7730 C   0  0  0  0  0  0  0  0  0  0  0  0
  182.6310  175.7680  138.8430 C   0  0  0  0  0  3  0  0  0  0  0  0
  182.2640  174.3360  136.9960 O   0  0  0  0  0  0  0  0  0  0  0  0
  180.3410  175.4440  137.8120 C   0  0  0  0  0  3  0  0  0  0  0  0
  181.7720  175.1250  137.8430 C   0  0  0  0  0  0  0  0  0  0  0  0
  179.8070  176.2030  138.7690 C   0  0  0  0  0  3  0  0  0  0  0  0
  185.3580  178.1840  146.0280 C   0  0  0  0  0  0  0  0  0  0  0  0
  186.0870  177.0280  145.8140 F   0  0  0  0  0  0  0  0  0  0  0  0
  186.2240  179.1790  146.4460 F   0  0  0  0  0  0  0  0  0  0  0  0
  184.4290  177.9380  147.0220 F   0  0  0  0  0  0  0  0  0  0  0  0
  184.5260  179.8410  138.9090 O   0  0  0  0  0  1  0  0  0  0  0  0
  183.7610  178.7710  138.9960 O   0  0  0  0  0  0  0  0  0  0  0  0
  186.8550  178.9400  143.6240 C   0  0  0  0  0  2  0  0  0  0  0  0
  188.2310  176.9800  143.5830 O   0  0  0  0  0  0  0  0  0  0  0  0
  189.1810  176.4280  142.7080 C   0  0  1  0  0  3  0  0  0  0  0  0
  188.2550  178.3390  141.6310 C   0  0  0  0  0  2  0  0  0  0  0  0
  189.4430  177.4240  141.5980 C   0  0  2  0  0  3  0  0  0  0  0  0
  187.4230  177.8050  142.7820 C   0  0  2  0  0  3  0  0  0  0  0  0
  190.4650  176.0920  143.4570 C   0  0  0  0  0  2  0  0  0  0  0  0
  191.4050  177.1150  143.3110 O   0  0  0  0  0  1  0  0  0  0  0  0
  189.5940  176.7830  140.3280 O   0  0  0  0  0  0  0  0  0  0  0  0
  190.8170  176.5890  139.6760 C   0  0  0  0  0  0  0  0  0  0  0  0
  191.8020  177.3100  139.9830 O   0  0  0  0  0  1  0  0  0  0  0  0
  190.9650  175.6140  138.6960 O   0  0  0  0  0  0  0  0  0  0  0  0
  1  3  1  6  0  0  0
  1  9  1  0  0  0  0
  1  4  1  0  0  0  0
  4 10  2  0  0  0  0
  5 25  1  6  0  0  0
  5 11  1  0  0  0  0
  5  3  1  0  0  0  0
  5 12  1  0  0  0  0
  8  6  1  0  0  0  0
  8  2  2  0  0  0  0
  9  8  1  0  0  0  0
 10  2  1  0  0  0  0
 10 20  1  0  0  0  0
 11 14  1  6  0  0  0
 11 12  1  0  0  0  0
 12  7  1  6  0  0  0
 12  9  1  0  0  0  0
 14 13  1  0  0  0  0
 15 14  2  0  0  0  0
 16 18  2  0  0  0  0
 17 18  1  0  0  0  0
 17 19  2  0  0  0  0
 18 15  1  0  0  0  0
 19 13  1  0  0  0  0
 20 22  1  0  0  0  0
 20 23  1  0  0  0  0
 21 20  1  0  0  0  0
 24 25  1  0  0  0  0
 26  4  1  0  0  0  0
 28 32  1  1  0  0  0
 28 27  1  0  0  0  0
 29 31  1  0  0  0  0
 30 34  1  6  0  0  0
 30 29  1  0  0  0  0
 30 28  1  0  0  0  0
 31 27  1  0  0  0  0
 31 26  1  1  0  0  0
 33 32  1  0  0  0  0
 35 36  1  0  0  0  0
 35 34  1  0  0  0  0
 37 35  2  0  0  0  0
M  END
>  <MODEL>
1

>  <REMARK>
 VINA RESULT:      -7.6      0.000      0.000
  Name = 
  8 active torsions:
  status: ('A' for Active; 'I' for Inactive)
    1  A    between atoms: C_3  and  C_30
    2  A    between atoms: C_5  and  C_12
    3  A    between atoms: C_6  and  C_31
    4  A    between atoms: C_11  and  O_26
    5  A    between atoms: C_13  and  C_20
    6  A    between atoms: C_14  and  O_27
    7  A    between atoms: C_20  and  C_36
    8  A    between atoms: O_26  and  C_33
                            x       y       z     vdW  Elec       q    Type
                         _______ _______ _______ _____ _____    ______ ____

>  <TORSDO>
F 8

$$$$
=
 OpenBabel11052415203D

 37 41  0  0  1  0  0  0  0  0999 V2000
  183.9720  179.1270  140.3220 C   0  0  2  0  0  3  0  0  0  0  0  0
  182.2470  178.7260  142.5510 N   0  0  0  0  0  0  0  0  0  0  0  0
  184.8150  178.2800  139.3750 C   0  0  0  0  0  2  0  0  0  0  0  0
  184.4990  179.1150  141.7420 C   0  0  0  0  0  0  0  0  0  0  0  0
  183.8290  177.4690  138.5310 C   0  0  1  0  0  0  0  0  0  0  0  0
  180.3700  178.2630  141.2090 N   0  0  0  0  0  1  0  0  0  0  0  0
  181.4030  178.1590  138.0390 C   0  0  0  0  0  1  0  0  0  0  0  0
  181.7540  178.5570  141.3640 C   0  0  0  0  0  0  0  0  0  0  0  0
  182.6190  178.6000  140.2260 N   0  0  0  0  0  0  0  0  0  0  0  0
  183.6470  178.9580  142.7860 C   0  0  0  0  0  0  0  0  0  0  0  0
  183.0370  176.3250  139.1850 C   0  0  1  0  0  3  0  0  0  0  0  0
  182.4380  177.7350  139.0790 C   0  0  2  0  0  0  0  0  0  0  0  0
  180.9450  175.1280  138.1990 C   0  0  0  0  0  2  0  0  0  0  0  0
  182.4450  175.3460  138.2060 C   0  0  0  0  0  0  0  0  0  0  0  0
  183.2610  174.5290  137.5300 C   0  0  0  0  0  3  0  0  0  0  0  0
  183.4940  172.7280  136.0140 O   0  0  0  0  0  0  0  0  0  0  0  0
  181.2750  173.4620  136.3780 C   0  0  0  0  0  3  0  0  0  0  0  0
  182.7210  173.5170  136.6160 C   0  0  0  0  0  0  0  0  0  0  0  0
  180.4520  174.2320  137.0890 C   0  0  0  0  0  3  0  0  0  0  0  0
  184.1250  178.9930  144.2160 C   0  0  0  0  0  0  0  0  0  0  0  0
  183.0470  179.0410  145.0820 F   0  0  0  0  0  0  0  0  0  0  0  0
  184.8640  177.8570  144.4980 F   0  0  0  0  0  0  0  0  0  0  0  0
  184.9080  180.1130  144.4300 F   0  0  0  0  0  0  0  0  0  0  0  0
  185.2000  177.5580  136.8570 O   0  0  0  0  0  1  0  0  0  0  0  0
  183.9110  177.5440  137.1320 O   0  0  0  0  0  0  0  0  0  0  0  0
  185.9610  179.3970  141.9670 C   0  0  0  0  0  2  0  0  0  0  0  0
  187.0830  177.5540  143.0100 O   0  0  0  0  0  0  0  0  0  0  0  0
  188.3120  176.8960  142.8490 C   0  0  1  0  0  3  0  0  0  0  0  0
  188.1290  178.4910  141.0900 C   0  0  0  0  0  2  0  0  0  0  0  0
  189.1350  177.6600  141.8330 C   0  0  2  0  0  3  0  0  0  0  0  0
  186.8140  178.1510  141.7660 C   0  0  2  0  0  3  0  0  0  0  0  0
  189.0420  176.7950  144.1820 C   0  0  0  0  0  2  0  0  0  0  0  0
  188.7780  177.9130  144.9760 O   0  0  0  0  0  1  0  0  0  0  0  0
  189.8590  176.7870  140.9630 O   0  0  0  0  0  0  0  0  0  0  0  0
  190.8190  177.2070  140.0350 C   0  0  0  0  0  0  0  0  0  0  0  0
  190.5210  177.2460  138.8130 O   0  0  0  0  0  0  0  0  0  0  0  0
  192.0960  177.5810  140.4380 O   0  0  0  0  0  1  0  0  0  0  0  0
  1  3  1  6  0  0  0
  1  4  1  0  0  0  0
  2 10  1  0  0  0  0
  4 26  1  0  0  0  0
  4 10  2  0  0  0  0
  5 25  1  6  0  0  0
  5 12  1  0  0  0  0
  5 11  1  0  0  0  0
  5  3  1  0  0  0  0
  6  8  1  0  0  0  0
  8  2  2  0  0  0  0
  9  1  1  0  0  0  0
  9  8  1  0  0  0  0
 10 20  1  0  0  0  0
 11 14  1  6  0  0  0
 12  7  1  6  0  0  0
 12 11  1  0  0  0  0
 12  9  1  0  0  0  0
 13 14  1  0  0  0  0
 15 14  2  0  0  0  0
 16 18  2  0  0  0  0
 17 18  1  0  0  0  0
 17 19  2  0  0  0  0
 18 15  1  0  0  0  0
 19 13  1  0  0  0  0
 20 23  1  0  0  0  0
 20 22  1  0  0  0  0
 20 21  1  0  0  0  0
 24 25  1  0  0  0  0
 28 27  1  0  0  0  0
 28 32  1  1  0  0  0
 29 31  1  0  0  0  0
 29 30  1  0  0  0  0
 30 34  1  6  0  0  0
 30 28  1  0  0  0  0
 31 26  1  1  0  0  0
 31 27  1  0  0  0  0
 32 33  1  0  0  0  0
 35 37  1  0  0  0  0
 35 34  1  0  0  0  0
 36 35  2  0  0  0  0
M  END
>  <MODEL>
2

>  <REMARK>
 VINA RESULT:      -7.4      1.647      2.252
  Name = 
  8 active torsions:
  status: ('A' for Active; 'I' for Inactive)
    1  A    between atoms: C_3  and  C_30
    2  A    between atoms: C_5  and  C_12
    3  A    between atoms: C_6  and  C_31
    4  A    between atoms: C_11  and  O_26
    5  A    between atoms: C_13  and  C_20
    6  A    between atoms: C_14  and  O_27
    7  A    between atoms: C_20  and  C_36
    8  A    between atoms: O_26  and  C_33
                            x       y       z     vdW  Elec       q    Type
                         _______ _______ _______ _____ _____    ______ ____

>  <TORSDO>
F 8

$$$$
=
 OpenBabel11052415203D

 37 41  0  0  1  0  0  0  0  0999 V2000
  189.0270  178.5630  139.1730 C   0  0  2  0  0  3  0  0  0  0  0  0
  186.2170  178.2260  138.8720 N   0  0  0  0  0  0  0  0  0  0  0  0
  190.2470  177.6980  139.4710 C   0  0  0  0  0  2  0  0  0  0  0  0
  188.0840  178.6690  140.3530 C   0  0  0  0  0  0  0  0  0  0  0  0
  190.4350  176.7870  138.2560 C   0  0  1  0  0  0  0  0  0  0  0  0
  186.3810  177.5860  136.6130 N   0  0  0  0  0  1  0  0  0  0  0  0
  189.6240  177.3250  135.8770 C   0  0  0  0  0  1  0  0  0  0  0  0
  186.9730  177.9560  137.8540 C   0  0  0  0  0  0  0  0  0  0  0  0
  188.3950  177.9670  138.0070 N   0  0  0  0  0  0  0  0  0  0  0  0
  186.7470  178.5400  140.1730 C   0  0  0  0  0  0  0  0  0  0  0  0
  189.4310  175.6510  138.0000 C   0  0  1  0  0  3  0  0  0  0  0  0
  189.2560  177.0210  137.3280 C   0  0  2  0  0  0  0  0  0  0  0  0
  188.9350  173.8220  136.2150 C   0  0  0  0  0  2  0  0  0  0  0  0
  189.9330  174.5830  137.0640 C   0  0  0  0  0  0  0  0  0  0  0  0
  191.2020  174.1710  137.1690 C   0  0  0  0  0  3  0  0  0  0  0  0
  192.8940  172.6830  136.4520 O   0  0  0  0  0  0  0  0  0  0  0  0
  190.8420  172.5130  135.2900 C   0  0  0  0  0  3  0  0  0  0  0  0
  191.7120  173.0890  136.3210 C   0  0  0  0  0  0  0  0  0  0  0  0
  189.5620  172.8760  135.2190 C   0  0  0  0  0  3  0  0  0  0  0  0
  185.7700  178.6910  141.3130 C   0  0  0  0  0  0  0  0  0  0  0  0
  184.4780  178.7930  140.8290 F   0  0  0  0  0  0  0  0  0  0  0  0
  185.8410  177.5890  142.1470 F   0  0  0  0  0  0  0  0  0  0  0  0
  186.0570  179.8340  142.0370 F   0  0  0  0  0  0  0  0  0  0  0  0
  192.5760  176.9170  138.5550 O   0  0  0  0  0  1  0  0  0  0  0  0
  191.6770  176.7750  137.6020 O   0  0  0  0  0  0  0  0  0  0  0  0
  188.6560  179.0350  141.6970 C   0  0  0  0  0  2  0  0  0  0  0  0
  188.1640  177.5820  143.5380 O   0  0  0  0  0  0  0  0  0  0  0  0
  188.9020  176.9330  144.5400 C   0  0  1  0  0  3  0  0  0  0  0  0
  190.4640  177.9700  143.0720 C   0  0  0  0  0  2  0  0  0  0  0  0
  190.3390  177.4030  144.4550 C   0  0  2  0  0  3  0  0  0  0  0  0
  189.0730  177.8020  142.4890 C   0  0  2  0  0  3  0  0  0  0  0  0
  188.3100  177.2240  145.9130 C   0  0  0  0  0  2  0  0  0  0  0  0
  186.9400  177.4790  145.8160 O   0  0  0  0  0  1  0  0  0  0  0  0
  191.2660  176.3380  144.6860 O   0  0  0  0  0  0  0  0  0  0  0  0
  191.8670  176.0610  145.9190 C   0  0  0  0  0  0  0  0  0  0  0  0
  192.4360  174.9510  146.0930 O   0  0  0  0  0  0  0  0  0  0  0  0
  191.8460  176.9860  146.9560 O   0  0  0  0  0  1  0  0  0  0  0  0
  1  3  1  1  0  0  0
  1  4  1  0  0  0  0
  2 10  1  0  0  0  0
  4 26  1  0  0  0  0
  5 25  1  6  0  0  0
  5  3  1  0  0  0  0
  6  8  1  0  0  0  0
  8  9  1  0  0  0  0
  8  2  2  0  0  0  0
  9  1  1  0  0  0  0
 10  4  2  0  0  0  0
 10 20  1  0  0  0  0
 11 14  1  6  0  0  0
 11  5  1  0  0  0  0
 12  7  1  6  0  0  0
 12 11  1  0  0  0  0
 12  9  1  0  0  0  0
 12  5  1  0  0  0  0
 13 14  1  0  0  0  0
 14 15  2  0  0  0  0
 17 18  1  0  0  0  0
 18 16  2  0  0  0  0
 18 15  1  0  0  0  0
 19 17  2  0  0  0  0
 19 13  1  0  0  0  0
 20 23  1  0  0  0  0
 20 22  1  0  0  0  0
 21 20  1  0  0  0  0
 25 24  1  0  0  0  0
 27 28  1  0  0  0  0
 28 32  1  1  0  0  0
 29 30  1  0  0  0  0
 30 28  1  0  0  0  0
 30 34  1  6  0  0  0
 31 26  1  1  0  0  0
 31 29  1  0  0  0  0
 31 27  1  0  0  0  0
 33 32  1  0  0  0  0
 34 35  1  0  0  0  0
 35 36  2  0  0  0  0
 35 37  1  0  0  0  0
M  END
>  <MODEL>
3

>  <REMARK>
 VINA RESULT:      -7.0      4.305      6.943
  Name = 
  8 active torsions:
  status: ('A' for Active; 'I' for Inactive)
    1  A    between atoms: C_3  and  C_30
    2  A    between atoms: C_5  and  C_12
    3  A    between atoms: C_6  and  C_31
    4  A    between atoms: C_11  and  O_26
    5  A    between atoms: C_13  and  C_20
    6  A    between atoms: C_14  and  O_27
    7  A    between atoms: C_20  and  C_36
    8  A    between atoms: O_26  and  C_33
                            x       y       z     vdW  Elec       q    Type
                         _______ _______ _______ _____ _____    ______ ____

>  <TORSDO>
F 8

$$$$
=
 OpenBabel11052415203D

 37 41  0  0  1  0  0  0  0  0999 V2000
  185.5590  178.5120  137.7960 C   0  0  2  0  0  3  0  0  0  0  0  0
  183.4190  176.7390  137.1800 N   0  0  0  0  0  0  0  0  0  0  0  0
  186.9090  178.4560  138.5040 C   0  0  0  0  0  2  0  0  0  0  0  0
  184.3940  178.3140  138.7440 C   0  0  0  0  0  0  0  0  0  0  0  0
  187.8150  177.5840  137.6340 C   0  0  1  0  0  0  0  0  0  0  0  0
  184.4630  175.9100  135.2400 N   0  0  0  0  0  1  0  0  0  0  0  0
  187.5240  177.2280  135.1050 C   0  0  0  0  0  1  0  0  0  0  0  0
  184.4580  176.7300  136.4040 C   0  0  0  0  0  0  0  0  0  0  0  0
  185.6140  177.4920  136.7600 N   0  0  0  0  0  0  0  0  0  0  0  0
  183.3720  177.4900  138.4060 C   0  0  0  0  0  0  0  0  0  0  0  0
  187.5590  176.0700  137.5550 C   0  0  1  0  0  3  0  0  0  0  0  0
  186.9610  177.0240  136.5100 C   0  0  2  0  0  0  0  0  0  0  0  0
  188.5020  174.2750  135.9220 C   0  0  0  0  0  2  0  0  0  0  0  0
  188.7270  175.2710  137.0410 C   0  0  0  0  0  0  0  0  0  0  0  0
  189.8760  175.2870  137.7260 C   0  0  0  0  0  3  0  0  0  0  0  0
  192.0810  174.4650  137.9670 O   0  0  0  0  0  0  0  0  0  0  0  0
  190.9220  173.7020  136.0520 C   0  0  0  0  0  3  0  0  0  0  0  0
  191.0180  174.4730  137.2960 C   0  0  0  0  0  0  0  0  0  0  0  0
  189.7640  173.6360  135.3960 C   0  0  0  0  0  3  0  0  0  0  0  0
  182.1680  177.3060  139.2980 C   0  0  0  0  0  0  0  0  0  0  0  0
  181.1160  176.7660  138.5800 F   0  0  0  0  0  0  0  0  0  0  0  0
  182.4760  176.4480  140.3380 F   0  0  0  0  0  0  0  0  0  0  0  0
  181.7670  178.5250  139.8130 F   0  0  0  0  0  0  0  0  0  0  0  0
  189.0260  179.3770  137.5350 O   0  0  0  0  0  1  0  0  0  0  0  0
  189.0480  178.1010  137.2050 O   0  0  0  0  0  0  0  0  0  0  0  0
  184.3460  179.1380  140.0030 C   0  0  0  0  0  2  0  0  0  0  0  0
  183.6380  178.5540  142.2170 O   0  0  0  0  0  0  0  0  0  0  0  0
  184.2660  178.3090  143.4480 C   0  0  1  0  0  3  0  0  0  0  0  0
  185.9840  178.5960  141.8240 C   0  0  0  0  0  2  0  0  0  0  0  0
  185.7400  178.6250  143.3050 C   0  0  2  0  0  3  0  0  0  0  0  0
  184.6160  178.2930  141.2420 C   0  0  2  0  0  3  0  0  0  0  0  0
  183.6300  179.1490  144.5490 C   0  0  0  0  0  2  0  0  0  0  0  0
  184.2630  178.9220  145.7730 O   0  0  0  0  0  1  0  0  0  0  0  0
  186.5600  177.6860  144.0040 O   0  0  0  0  0  0  0  0  0  0  0  0
  187.7930  177.2100  143.5420 C   0  0  0  0  0  0  0  0  0  0  0  0
  187.8800  176.0270  143.1220 O   0  0  0  0  0  0  0  0  0  0  0  0
  188.9230  178.0190  143.5410 O   0  0  0  0  0  1  0  0  0  0  0  0
  1  3  1  1  0  0  0
  1  4  1  0  0  0  0
  2 10  1  0  0  0  0
  4 26  1  0  0  0  0
  5 25  1  6  0  0  0
  5  3  1  0  0  0  0
  6  8  1  0  0  0  0
  8  9  1  0  0  0  0
  8  2  2  0  0  0  0
  9  1  1  0  0  0  0
 10  4  2  0  0  0  0
 10 20  1  0  0  0  0
 11 14  1  6  0  0  0
 11  5  1  0  0  0  0
 12  7  1  6  0  0  0
 12  9  1  0  0  0  0
 12 11  1  0  0  0  0
 12  5  1  0  0  0  0
 13 14  1  0  0  0  0
 14 15  2  0  0  0  0
 17 18  1  0  0  0  0
 18 15  1  0  0  0  0
 18 16  2  0  0  0  0
 19 13  1  0  0  0  0
 19 17  2  0  0  0  0
 20 23  1  0  0  0  0
 20 22  1  0  0  0  0
 21 20  1  0  0  0  0
 25 24  1  0  0  0  0
 27 28  1  0  0  0  0
 28 32  1  1  0  0  0
 29 30  1  0  0  0  0
 30 28  1  0  0  0  0
 30 34  1  1  0  0  0
 31 26  1  6  0  0  0
 31 29  1  0  0  0  0
 31 27  1  0  0  0  0
 32 33  1  0  0  0  0
 35 34  1  0  0  0  0
 36 35  2  0  0  0  0
 37 35  1  0  0  0  0
M  END
>  <MODEL>
4

>  <REMARK>
 VINA RESULT:      -6.9      4.096      6.923
  Name = 
  8 active torsions:
  status: ('A' for Active; 'I' for Inactive)
    1  A    between atoms: C_3  and  C_30
    2  A    between atoms: C_5  and  C_12
    3  A    between atoms: C_6  and  C_31
    4  A    between atoms: C_11  and  O_26
    5  A    between atoms: C_13  and  C_20
    6  A    between atoms: C_14  and  O_27
    7  A    between atoms: C_20  and  C_36
    8  A    between atoms: O_26  and  C_33
                            x       y       z     vdW  Elec       q    Type
                         _______ _______ _______ _____ _____    ______ ____

>  <TORSDO>
F 8

$$$$
=
 OpenBabel11052415203D

 37 41  0  0  1  0  0  0  0  0999 V2000
  185.6090  179.3020  141.4820 C   0  0  2  0  0  3  0  0  0  0  0  0
  185.6470  177.9320  143.9770 N   0  0  0  0  0  0  0  0  0  0  0  0
  185.2880  178.9920  140.0240 C   0  0  0  0  0  2  0  0  0  0  0  0
  186.8470  178.5810  141.9730 C   0  0  0  0  0  0  0  0  0  0  0  0
  183.7820  178.7310  139.9610 C   0  0  1  0  0  0  0  0  0  0  0  0
  183.3470  178.2520  144.3600 N   0  0  0  0  0  1  0  0  0  0  0  0
  182.0600  179.6640  141.6260 C   0  0  0  0  0  1  0  0  0  0  0  0
  184.5090  178.3810  143.5480 C   0  0  0  0  0  0  0  0  0  0  0  0
  184.4190  178.9390  142.2350 N   0  0  0  0  0  0  0  0  0  0  0  0
  186.8460  177.9680  143.1830 C   0  0  0  0  0  0  0  0  0  0  0  0
  183.2110  177.4440  140.5790 C   0  0  1  0  0  3  0  0  0  0  0  0
  183.2600  178.7490  141.3870 C   0  0  2  0  0  0  0  0  0  0  0  0
  180.6360  177.4250  140.9670 C   0  0  0  0  0  2  0  0  0  0  0  0
  181.8290  177.0880  140.0960 C   0  0  0  0  0  0  0  0  0  0  0  0
  181.7000  176.2850  139.0340 C   0  0  0  0  0  3  0  0  0  0  0  0
  180.2630  175.0770  137.5940 O   0  0  0  0  0  0  0  0  0  0  0  0
  179.1780  176.3960  139.2300 C   0  0  0  0  0  3  0  0  0  0  0  0
  180.3740  175.8620  138.5710 C   0  0  0  0  0  0  0  0  0  0  0  0
  179.2990  177.1480  140.3230 C   0  0  0  0  0  3  0  0  0  0  0  0
  188.0740  177.2850  143.7320 C   0  0  0  0  0  0  0  0  0  0  0  0
  188.2950  176.0890  143.0710 F   0  0  0  0  0  0  0  0  0  0  0  0
  189.1840  178.0930  143.5580 F   0  0  0  0  0  0  0  0  0  0  0  0
  187.9080  177.0160  145.0780 F   0  0  0  0  0  0  0  0  0  0  0  0
  183.7410  180.5140  138.7330 O   0  0  0  0  0  1  0  0  0  0  0  0
  183.0010  179.4740  139.0620 O   0  0  0  0  0  0  0  0  0  0  0  0
  188.1020  178.6630  141.1440 C   0  0  0  0  0  2  0  0  0  0  0  0
  189.3130  176.8450  140.1590 O   0  0  0  0  0  0  0  0  0  0  0  0
  189.5850  176.3980  138.8560 C   0  0  1  0  0  3  0  0  0  0  0  0
  188.0650  178.2220  138.6750 C   0  0  0  0  0  2  0  0  0  0  0  0
  189.0570  177.4270  137.8780 C   0  0  2  0  0  3  0  0  0  0  0  0
  188.1310  177.5970  140.0560 C   0  0  2  0  0  3  0  0  0  0  0  0
  191.0810  176.1800  138.6680 C   0  0  0  0  0  2  0  0  0  0  0  0
  191.3490  174.8480  138.3440 O   0  0  0  0  0  1  0  0  0  0  0  0
  188.4610  176.8180  136.7300 O   0  0  0  0  0  0  0  0  0  0  0  0
  187.1250  176.4080  136.6520 C   0  0  0  0  0  0  0  0  0  0  0  0
  186.7770  175.3300  137.2000 O   0  0  0  0  0  1  0  0  0  0  0  0
  186.1760  177.1680  135.9790 O   0  0  0  0  0  0  0  0  0  0  0  0
  1  3  1  6  0  0  0
  1  4  1  0  0  0  0
  1  9  1  0  0  0  0
  4 10  2  0  0  0  0
  5 25  1  6  0  0  0
  5  3  1  0  0  0  0
  5 11  1  0  0  0  0
  5 12  1  0  0  0  0
  8  2  2  0  0  0  0
  8  6  1  0  0  0  0
  9  8  1  0  0  0  0
 10 20  1  0  0  0  0
 10  2  1  0  0  0  0
 11 14  1  6  0  0  0
 11 12  1  0  0  0  0
 12  7  1  1  0  0  0
 12  9  1  0  0  0  0
 14 13  1  0  0  0  0
 15 14  2  0  0  0  0
 16 18  2  0  0  0  0
 17 19  2  0  0  0  0
 18 15  1  0  0  0  0
 18 17  1  0  0  0  0
 19 13  1  0  0  0  0
 20 23  1  0  0  0  0
 21 20  1  0  0  0  0
 22 20  1  0  0  0  0
 24 25  1  0  0  0  0
 26  4  1  0  0  0  0
 28 32  1  1  0  0  0
 28 27  1  0  0  0  0
 29 31  1  0  0  0  0
 30 34  1  6  0  0  0
 30 29  1  0  0  0  0
 30 28  1  0  0  0  0
 31 27  1  0  0  0  0
 31 26  1  1  0  0  0
 33 32  1  0  0  0  0
 35 34  1  0  0  0  0
 35 36  1  0  0  0  0
 37 35  2  0  0  0  0
M  END
>  <MODEL>
5

>  <REMARK>
 VINA RESULT:      -6.7      2.076      3.058
  Name = 
  8 active torsions:
  status: ('A' for Active; 'I' for Inactive)
    1  A    between atoms: C_3  and  C_30
    2  A    between atoms: C_5  and  C_12
    3  A    between atoms: C_6  and  C_31
    4  A    between atoms: C_11  and  O_26
    5  A    between atoms: C_13  and  C_20
    6  A    between atoms: C_14  and  O_27
    7  A    between atoms: C_20  and  C_36
    8  A    between atoms: O_26  and  C_33
                            x       y       z     vdW  Elec       q    Type
                         _______ _______ _______ _____ _____    ______ ____

>  <TORSDO>
F 8

$$$$
=
 OpenBabel11052415203D

 37 41  0  0  1  0  0  0  0  0999 V2000
  188.8350  178.0530  139.2120 C   0  0  2  0  0  3  0  0  0  0  0  0
  191.0140  176.2430  139.4970 N   0  0  0  0  0  0  0  0  0  0  0  0
  187.3840  178.1590  139.6670 C   0  0  0  0  0  2  0  0  0  0  0  0
  189.0590  176.9190  138.2330 C   0  0  0  0  0  0  0  0  0  0  0  0
  187.4220  178.3640  141.1820 C   0  0  1  0  0  0  0  0  0  0  0  0
  191.6750  177.1270  141.5760 N   0  0  0  0  0  1  0  0  0  0  0  0
  189.3930  179.3870  142.4760 C   0  0  0  0  0  1  0  0  0  0  0  0
  190.7900  177.0810  140.4610 C   0  0  0  0  0  0  0  0  0  0  0  0
  189.6210  177.9020  140.4270 N   0  0  0  0  0  0  0  0  0  0  0  0
  190.1270  176.0950  138.3740 C   0  0  0  0  0  0  0  0  0  0  0  0
  187.8410  177.1990  142.0930 C   0  0  1  0  0  3  0  0  0  0  0  0
  188.8710  178.2360  141.6200 C   0  0  2  0  0  0  0  0  0  0  0  0
  186.0500  177.8790  143.8560 C   0  0  0  0  0  2  0  0  0  0  0  0
  187.4390  177.3660  143.5350 C   0  0  0  0  0  0  0  0  0  0  0  0
  188.3770  177.2810  144.4850 C   0  0  0  0  0  3  0  0  0  0  0  0
  188.9340  177.4560  146.7770 O   0  0  0  0  0  0  0  0  0  0  0  0
  186.6410  177.7310  146.2710 C   0  0  0  0  0  3  0  0  0  0  0  0
  188.0390  177.5010  145.8950 C   0  0  0  0  0  0  0  0  0  0  0  0
  185.7110  177.8740  145.3270 C   0  0  0  0  0  3  0  0  0  0  0  0
  190.4140  174.9870  137.3910 C   0  0  0  0  0  0  0  0  0  0  0  0
  191.6560  174.4310  137.6430 F   0  0  0  0  0  0  0  0  0  0  0  0
  189.4580  173.9930  137.5040 F   0  0  0  0  0  0  0  0  0  0  0  0
  190.4100  175.4830  136.1000 F   0  0  0  0  0  0  0  0  0  0  0  0
  185.6920  179.6520  140.9830 O   0  0  0  0  0  1  0  0  0  0  0  0
  186.7600  179.4720  141.7350 O   0  0  0  0  0  0  0  0  0  0  0  0
  188.1400  176.8050  137.0450 C   0  0  0  0  0  2  0  0  0  0  0  0
  186.7610  174.8500  137.1850 O   0  0  0  0  0  0  0  0  0  0  0  0
  185.4170  174.5400  136.9250 C   0  0  1  0  0  3  0  0  0  0  0  0
  185.6660  176.8910  136.6450 C   0  0  0  0  0  2  0  0  0  0  0  0
  184.7610  175.7480  136.2890 C   0  0  2  0  0  3  0  0  0  0  0  0
  186.7820  176.2330  137.4330 C   0  0  2  0  0  3  0  0  0  0  0  0
  185.3160  173.3200  136.0180 C   0  0  0  0  0  2  0  0  0  0  0  0
  184.7160  172.2530  136.6900 O   0  0  0  0  0  1  0  0  0  0  0  0
  183.4280  175.9480  136.7660 O   0  0  0  0  0  0  0  0  0  0  0  0
  182.8550  175.2520  137.8370 C   0  0  0  0  0  0  0  0  0  0  0  0
  183.0540  175.6550  139.0130 O   0  0  0  0  0  1  0  0  0  0  0  0
  182.0690  174.1250  137.6260 O   0  0  0  0  0  0  0  0  0  0  0  0
  1  3  1  1  0  0  0
  1  9  1  0  0  0  0
  2  8  2  0  0  0  0
  3  5  1  0  0  0  0
  4 10  2  0  0  0  0
  4  1  1  0  0  0  0
  5 12  1  0  0  0  0
  5 25  1  1  0  0  0
  5 11  1  0  0  0  0
  8  6  1  0  0  0  0
  9  8  1  0  0  0  0
  9 12  1  0  0  0  0
 10  2  1  0  0  0  0
 11 14  1  1  0  0  0
 12 11  1  0  0  0  0
 12  7  1  1  0  0  0
 13 19  1  0  0  0  0
 14 13  1  0  0  0  0
 14 15  2  0  0  0  0
 15 18  1  0  0  0  0
 18 17  1  0  0  0  0
 18 16  2  0  0  0  0
 19 17  2  0  0  0  0
 20 22  1  0  0  0  0
 20 21  1  0  0  0  0
 20 10  1  0  0  0  0
 23 20  1  0  0  0  0
 24 25  1  0  0  0  0
 26  4  1  0  0  0  0
 27 31  1  0  0  0  0
 28 32  1  6  0  0  0
 28 27  1  0  0  0  0
 29 31  1  0  0  0  0
 30 29  1  0  0  0  0
 30 34  1  1  0  0  0
 30 28  1  0  0  0  0
 31 26  1  6  0  0  0
 32 33  1  0  0  0  0
 34 35  1  0  0  0  0
 35 36  1  0  0  0  0
 37 35  2  0  0  0  0
M  END
>  <MODEL>
6

>  <REMARK>
 VINA RESULT:      -6.7      4.641      8.262
  Name = 
  8 active torsions:
  status: ('A' for Active; 'I' for Inactive)
    1  A    between atoms: C_3  and  C_30
    2  A    between atoms: C_5  and  C_12
    3  A    between atoms: C_6  and  C_31
    4  A    between atoms: C_11  and  O_26
    5  A    between atoms: C_13  and  C_20
    6  A    between atoms: C_14  and  O_27
    7  A    between atoms: C_20  and  C_36
    8  A    between atoms: O_26  and  C_33
                            x       y       z     vdW  Elec       q    Type
                         _______ _______ _______ _____ _____    ______ ____

>  <TORSDO>
F 8

$$$$
=
 OpenBabel11052415203D

 37 41  0  0  1  0  0  0  0  0999 V2000
  187.6130  176.4370  136.7660 C   0  0  2  0  0  3  0  0  0  0  0  0
  188.0860  173.6320  136.8870 N   0  0  0  0  0  0  0  0  0  0  0  0
  187.2570  177.5680  137.7250 C   0  0  0  0  0  2  0  0  0  0  0  0
  186.4890  175.4340  136.6030 C   0  0  0  0  0  0  0  0  0  0  0  0
  188.4720  177.7600  138.6340 C   0  0  1  0  0  0  0  0  0  0  0  0
  190.3420  173.8860  137.5110 N   0  0  0  0  0  1  0  0  0  0  0  0
  190.8860  177.1380  138.0090 C   0  0  0  0  0  1  0  0  0  0  0  0
  189.0610  174.4270  137.2010 C   0  0  0  0  0  0  0  0  0  0  0  0
  188.8240  175.8330  137.3000 N   0  0  0  0  0  0  0  0  0  0  0  0
  186.7520  174.1040  136.6280 C   0  0  0  0  0  0  0  0  0  0  0  0
  188.8060  176.6910  139.6880 C   0  0  1  0  0  3  0  0  0  0  0  0
  189.4650  176.6610  138.3010 C   0  0  2  0  0  0  0  0  0  0  0  0
  191.2170  176.9410  140.6360 C   0  0  0  0  0  2  0  0  0  0  0  0
  189.7260  177.1670  140.7800 C   0  0  0  0  0  0  0  0  0  0  0  0
  189.2010  177.5660  141.9450 C   0  0  0  0  0  3  0  0  0  0  0  0
  189.5630  178.3130  144.1590 O   0  0  0  0  0  0  0  0  0  0  0  0
  191.5160  178.0290  142.8570 C   0  0  0  0  0  3  0  0  0  0  0  0
  190.0650  177.9760  143.0570 C   0  0  0  0  0  0  0  0  0  0  0  0
  192.0500  177.5800  141.7210 C   0  0  0  0  0  3  0  0  0  0  0  0
  185.6700  173.0740  136.4170 C   0  0  0  0  0  0  0  0  0  0  0  0
  186.2280  171.8530  136.0790 F   0  0  0  0  0  0  0  0  0  0  0  0
  184.9330  172.9140  137.5770 F   0  0  0  0  0  0  0  0  0  0  0  0
  184.8300  173.4700  135.3920 F   0  0  0  0  0  0  0  0  0  0  0  0
  188.7400  179.6490  137.6090 O   0  0  0  0  0  1  0  0  0  0  0  0
  189.0510  179.0350  138.7330 O   0  0  0  0  0  0  0  0  0  0  0  0
  185.1080  175.9490  136.2960 C   0  0  0  0  0  2  0  0  0  0  0  0
  183.4270  175.5750  137.9620 O   0  0  0  0  0  0  0  0  0  0  0  0
  182.4580  176.3550  138.6150 C   0  0  1  0  0  3  0  0  0  0  0  0
  183.7640  177.8270  137.2740 C   0  0  0  0  0  2  0  0  0  0  0  0
  182.4430  177.7290  137.9800 C   0  0  2  0  0  3  0  0  0  0  0  0
  184.4140  176.4830  137.5430 C   0  0  2  0  0  3  0  0  0  0  0  0
  181.0890  175.6920  138.5230 C   0  0  0  0  0  2  0  0  0  0  0  0
  180.5580  175.4780  139.7970 O   0  0  0  0  0  1  0  0  0  0  0  0
  182.2730  178.7660  138.9490 O   0  0  0  0  0  0  0  0  0  0  0  0
  183.3190  179.3860  139.6420 C   0  0  0  0  0  0  0  0  0  0  0  0
  183.6430  178.9620  140.7810 O   0  0  0  0  0  1  0  0  0  0  0  0
  184.0070  180.4630  139.0940 O   0  0  0  0  0  0  0  0  0  0  0  0
  1  9  1  0  0  0  0
  1  3  1  1  0  0  0
  2  8  2  0  0  0  0
  3  5  1  0  0  0  0
  4 10  2  0  0  0  0
  4  1  1  0  0  0  0
  5 25  1  1  0  0  0
  5 11  1  0  0  0  0
  8  9  1  0  0  0  0
  8  6  1  0  0  0  0
  9 12  1  0  0  0  0
 10  2  1  0  0  0  0
 11 14  1  1  0  0  0
 12  7  1  6  0  0  0
 12  5  1  0  0  0  0
 12 11  1  0  0  0  0
 13 14  1  0  0  0  0
 13 19  1  0  0  0  0
 14 15  2  0  0  0  0
 15 18  1  0  0  0  0
 17 18  1  0  0  0  0
 18 16  2  0  0  0  0
 19 17  2  0  0  0  0
 20 10  1  0  0  0  0
 20 22  1  0  0  0  0
 21 20  1  0  0  0  0
 23 20  1  0  0  0  0
 24 25  1  0  0  0  0
 26  4  1  0  0  0  0
 27 28  1  0  0  0  0
 28 32  1  6  0  0  0
 29 31  1  0  0  0  0
 29 30  1  0  0  0  0
 30 28  1  0  0  0  0
 30 34  1  1  0  0  0
 31 26  1  6  0  0  0
 31 27  1  0  0  0  0
 32 33  1  0  0  0  0
 34 35  1  0  0  0  0
 35 36  1  0  0  0  0
 37 35  2  0  0  0  0
M  END
>  <MODEL>
7

>  <REMARK>
 VINA RESULT:      -6.5      4.715      9.060
  Name = 
  8 active torsions:
  status: ('A' for Active; 'I' for Inactive)
    1  A    between atoms: C_3  and  C_30
    2  A    between atoms: C_5  and  C_12
    3  A    between atoms: C_6  and  C_31
    4  A    between atoms: C_11  and  O_26
    5  A    between atoms: C_13  and  C_20
    6  A    between atoms: C_14  and  O_27
    7  A    between atoms: C_20  and  C_36
    8  A    between atoms: O_26  and  C_33
                            x       y       z     vdW  Elec       q    Type
                         _______ _______ _______ _____ _____    ______ ____

>  <TORSDO>
F 8

$$$$
=
 OpenBabel11052415203D

 37 41  0  0  1  0  0  0  0  0999 V2000
  188.8940  176.2190  137.0670 C   0  0  2  0  0  3  0  0  0  0  0  0
  188.2860  178.0010  139.2030 N   0  0  0  0  0  0  0  0  0  0  0  0
  188.5930  174.7770  136.6740 C   0  0  0  0  0  2  0  0  0  0  0  0
  189.7760  176.3170  138.2950 C   0  0  0  0  0  0  0  0  0  0  0  0
  187.0960  174.7200  136.3630 C   0  0  1  0  0  0  0  0  0  0  0  0
  186.2090  178.6270  138.2910 N   0  0  0  0  0  1  0  0  0  0  0  0
  185.6760  176.7240  135.6050 C   0  0  0  0  0  1  0  0  0  0  0  0
  187.4010  177.8500  138.2680 C   0  0  0  0  0  0  0  0  0  0  0  0
  187.6000  176.8560  137.2600 N   0  0  0  0  0  0  0  0  0  0  0  0
  189.4810  177.2020  139.2790 C   0  0  0  0  0  0  0  0  0  0  0  0
  186.0800  174.8400  137.5110 C   0  0  1  0  0  3  0  0  0  0  0  0
  186.5100  176.0780  136.7090 C   0  0  2  0  0  0  0  0  0  0  0  0
  183.5500  175.3390  137.1540 C   0  0  0  0  0  2  0  0  0  0  0  0
  184.6980  174.3510  137.1660 C   0  0  0  0  0  0  0  0  0  0  0  0
  184.4710  173.0340  137.1060 C   0  0  0  0  0  3  0  0  0  0  0  0
  182.9150  171.2760  136.8190 O   0  0  0  0  0  0  0  0  0  0  0  0
  182.0390  173.4550  136.5470 C   0  0  0  0  0  3  0  0  0  0  0  0
  183.1260  172.5150  136.8370 C   0  0  0  0  0  0  0  0  0  0  0  0
  182.2420  174.7670  136.6620 C   0  0  0  0  0  3  0  0  0  0  0  0
  190.3620  177.3680  140.4930 C   0  0  0  0  0  0  0  0  0  0  0  0
  191.5970  177.8720  140.1240 F   0  0  0  0  0  0  0  0  0  0  0  0
  189.7780  178.2480  141.3870 F   0  0  0  0  0  0  0  0  0  0  0  0
  190.5560  176.1470  141.1110 F   0  0  0  0  0  0  0  0  0  0  0  0
  187.6810  173.4860  134.6830 O   0  0  0  0  0  1  0  0  0  0  0  0
  186.6790  174.2240  135.1180 O   0  0  0  0  0  0  0  0  0  0  0  0
  191.0400  175.5010  138.3370 C   0  0  0  0  0  2  0  0  0  0  0  0
  191.9170  175.3330  136.1140 O   0  0  0  0  0  0  0  0  0  0  0  0
  193.1920  175.3290  135.5260 C   0  0  1  0  0  3  0  0  0  0  0  0
  193.4840  175.7790  137.8460 C   0  0  0  0  0  2  0  0  0  0  0  0
  194.2280  175.3060  136.6310 C   0  0  2  0  0  3  0  0  0  0  0  0
  192.0730  176.0060  137.3370 C   0  0  2  0  0  3  0  0  0  0  0  0
  193.3510  174.1280  134.6020 C   0  0  0  0  0  2  0  0  0  0  0  0
  193.6080  172.9690  135.3380 O   0  0  0  0  0  1  0  0  0  0  0  0
  195.3510  176.1380  136.3300 O   0  0  0  0  0  0  0  0  0  0  0  0
  196.6040  175.6650  135.9220 C   0  0  0  0  0  0  0  0  0  0  0  0
  196.7570  175.2640  134.7380 O   0  0  0  0  0  0  0  0  0  0  0  0
  197.6810  175.6280  136.7990 O   0  0  0  0  0  1  0  0  0  0  0  0
  1  3  1  1  0  0  0
  1  9  1  0  0  0  0
  1  4  1  0  0  0  0
  2 10  1  0  0  0  0
  4 26  1  0  0  0  0
  4 10  2  0  0  0  0
  5 25  1  6  0  0  0
  5  3  1  0  0  0  0
  5 12  1  0  0  0  0
  5 11  1  0  0  0  0
  8  6  1  0  0  0  0
  8  2  2  0  0  0  0
  9  8  1  0  0  0  0
 10 20  1  0  0  0  0
 11 14  1  6  0  0  0
 12  7  1  6  0  0  0
 12  9  1  0  0  0  0
 12 11  1  0  0  0  0
 13 14  1  0  0  0  0
 15 14  2  0  0  0  0
 16 18  2  0  0  0  0
 17 19  2  0  0  0  0
 17 18  1  0  0  0  0
 18 15  1  0  0  0  0
 19 13  1  0  0  0  0
 20 23  1  0  0  0  0
 20 22  1  0  0  0  0
 21 20  1  0  0  0  0
 24 25  1  0  0  0  0
 27 31  1  0  0  0  0
 28 32  1  6  0  0  0
 28 27  1  0  0  0  0
 28 30  1  0  0  0  0
 30 34  1  6  0  0  0
 30 29  1  0  0  0  0
 31 29  1  0  0  0  0
 31 26  1  1  0  0  0
 32 33  1  0  0  0  0
 35 34  1  0  0  0  0
 35 37  1  0  0  0  0
 36 35  2  0  0  0  0
M  END
>  <MODEL>
8

>  <REMARK>
 VINA RESULT:      -6.4      5.196      6.892
  Name = 
  8 active torsions:
  status: ('A' for Active; 'I' for Inactive)
    1  A    between atoms: C_3  and  C_30
    2  A    between atoms: C_5  and  C_12
    3  A    between atoms: C_6  and  C_31
    4  A    between atoms: C_11  and  O_26
    5  A    between atoms: C_13  and  C_20
    6  A    between atoms: C_14  and  O_27
    7  A    between atoms: C_20  and  C_36
    8  A    between atoms: O_26  and  C_33
                            x       y       z     vdW  Elec       q    Type
                         _______ _______ _______ _____ _____    ______ ____

>  <TORSDO>
F 8

$$$$
=
 OpenBabel11052415203D

 37 41  0  0  1  0  0  0  0  0999 V2000
  186.5520  178.6240  138.8180 C   0  0  2  0  0  3  0  0  0  0  0  0
  183.7730  178.1710  139.2390 N   0  0  0  0  0  0  0  0  0  0  0  0
  187.8420  177.8110  138.7970 C   0  0  0  0  0  2  0  0  0  0  0  0
  185.9350  178.7040  140.1980 C   0  0  0  0  0  0  0  0  0  0  0  0
  187.7530  176.8950  137.5750 C   0  0  1  0  0  0  0  0  0  0  0  0
  183.3870  177.5140  137.0120 N   0  0  0  0  0  1  0  0  0  0  0  0
  186.3460  177.3750  135.4790 C   0  0  0  0  0  1  0  0  0  0  0  0
  184.2580  177.9210  138.0630 C   0  0  0  0  0  0  0  0  0  0  0  0
  185.6690  177.9900  137.8500 N   0  0  0  0  0  0  0  0  0  0  0  0
  184.6010  178.5200  140.3620 C   0  0  0  0  0  0  0  0  0  0  0  0
  186.7650  175.7170  137.5820 C   0  0  1  0  0  3  0  0  0  0  0  0
  186.3690  177.0720  136.9750 C   0  0  2  0  0  0  0  0  0  0  0  0
  185.9160  174.1040  135.7230 C   0  0  0  0  0  2  0  0  0  0  0  0
  187.0570  174.6600  136.5500 C   0  0  0  0  0  0  0  0  0  0  0  0
  188.2600  174.0730  136.5440 C   0  0  0  0  0  3  0  0  0  0  0  0
  189.6840  172.4230  135.6250 O   0  0  0  0  0  0  0  0  0  0  0  0
  187.5640  172.6160  134.5940 C   0  0  0  0  0  3  0  0  0  0  0  0
  188.5640  172.9940  135.5980 C   0  0  0  0  0  0  0  0  0  0  0  0
  186.3450  173.1540  134.6310 C   0  0  0  0  0  3  0  0  0  0  0  0
  183.9400  178.6450  141.7130 C   0  0  0  0  0  0  0  0  0  0  0  0
  182.5740  178.8190  141.5650 F   0  0  0  0  0  0  0  0  0  0  0  0
  184.1570  177.4970  142.4550 F   0  0  0  0  0  0  0  0  0  0  0  0
  184.4490  179.7350  142.3940 F   0  0  0  0  0  0  0  0  0  0  0  0
  189.4420  178.0470  136.8580 O   0  0  0  0  0  1  0  0  0  0  0  0
  188.7890  176.9250  136.6270 O   0  0  0  0  0  0  0  0  0  0  0  0
  186.8120  179.1080  141.3540 C   0  0  0  0  0  2  0  0  0  0  0  0
  186.7970  177.8990  143.4230 O   0  0  0  0  0  0  0  0  0  0  0  0
  187.7480  177.2350  144.2130 C   0  0  1  0  0  3  0  0  0  0  0  0
  188.8420  177.9080  142.2080 C   0  0  0  0  0  2  0  0  0  0  0  0
  189.1190  177.4810  143.6200 C   0  0  2  0  0  3  0  0  0  0  0  0
  187.3270  177.8970  142.1220 C   0  0  2  0  0  3  0  0  0  0  0  0
  187.6790  177.7220  145.6550 C   0  0  0  0  0  2  0  0  0  0  0  0
  188.6820  177.1290  146.4250 O   0  0  0  0  0  1  0  0  0  0  0  0
  189.9450  176.3160  143.6770 O   0  0  0  0  0  0  0  0  0  0  0  0
  191.3370  176.3350  143.8270 C   0  0  0  0  0  0  0  0  0  0  0  0
  192.0550  176.7460  142.8780 O   0  0  0  0  0  0  0  0  0  0  0  0
  191.9420  175.9080  145.0030 O   0  0  0  0  0  1  0  0  0  0  0  0
  1  3  1  1  0  0  0
  1  4  1  0  0  0  0
  2 10  1  0  0  0  0
  4 10  2  0  0  0  0
  4 26  1  0  0  0  0
  5 25  1  6  0  0  0
  5 11  1  0  0  0  0
  5  3  1  0  0  0  0
  6  8  1  0  0  0  0
  8  2  2  0  0  0  0
  9  8  1  0  0  0  0
  9  1  1  0  0  0  0
 10 20  1  0  0  0  0
 11 14  1  6  0  0  0
 12  7  1  6  0  0  0
 12  5  1  0  0  0  0
 12 11  1  0  0  0  0
 12  9  1  0  0  0  0
 13 14  1  0  0  0  0
 15 14  2  0  0  0  0
 17 19  2  0  0  0  0
 17 18  1  0  0  0  0
 18 16  2  0  0  0  0
 18 15  1  0  0  0  0
 19 13  1  0  0  0  0
 20 23  1  0  0  0  0
 20 22  1  0  0  0  0
 21 20  1  0  0  0  0
 25 24  1  0  0  0  0
 27 28  1  0  0  0  0
 28 32  1  1  0  0  0
 29 30  1  0  0  0  0
 30 34  1  6  0  0  0
 30 28  1  0  0  0  0
 31 26  1  6  0  0  0
 31 29  1  0  0  0  0
 31 27  1  0  0  0  0
 32 33  1  0  0  0  0
 34 35  1  0  0  0  0
 35 37  1  0  0  0  0
 36 35  2  0  0  0  0
M  END
>  <MODEL>
9

>  <REMARK>
 VINA RESULT:      -6.2      3.730      5.281
  Name = 
  8 active torsions:
  status: ('A' for Active; 'I' for Inactive)
    1  A    between atoms: C_3  and  C_30
    2  A    between atoms: C_5  and  C_12
    3  A    between atoms: C_6  and  C_31
    4  A    between atoms: C_11  and  O_26
    5  A    between atoms: C_13  and  C_20
    6  A    between atoms: C_14  and  O_27
    7  A    between atoms: C_20  and  C_36
    8  A    between atoms: O_26  and  C_33
                            x       y       z     vdW  Elec       q    Type
                         _______ _______ _______ _____ _____    ______ ____

>  <TORSDO>
F 8

$$$$
