=
 OpenBabel11052414593D

 55 59  0  0  1  0  0  0  0  0999 V2000
  191.5350  176.8120  143.9600 C   0  0  0  0  0  3  0  0  0  0  0  0
  189.4800  177.8200  145.5870 C   0  0  0  0  0  0  0  0  0  0  0  0
  189.4280  177.9680  144.1960 C   0  0  0  0  0  3  0  0  0  0  0  0
  191.6010  176.6620  145.3490 C   0  0  0  0  0  3  0  0  0  0  0  0
  190.4400  177.4520  143.3750 C   0  0  0  0  0  0  0  0  0  0  0  0
  190.5700  177.1560  146.1570 C   0  0  0  0  0  3  0  0  0  0  0  0
  188.4710  178.3290  146.4090 O   0  0  0  0  0  0  0  0  0  0  0  0
  187.5520  177.4940  147.0950 C   0  0  0  0  0  2  0  0  0  0  0  0
  186.1460  178.0170  146.9070 C   0  0  0  0  0  2  0  0  0  0  0  0
  185.8870  178.2030  145.4220 C   0  0  0  0  0  2  0  0  0  0  0  0
  184.4920  178.7580  145.1530 C   0  0  0  0  0  2  0  0  0  0  0  0
  184.4410  179.5250  143.8470 C   0  0  0  0  0  2  0  0  0  0  0  0
  184.4340  178.5370  142.6850 C   0  0  0  0  0  2  0  0  0  0  0  0
  184.3030  179.2190  141.3230 C   0  0  1  0  0  3  0  0  0  0  0  0
  185.5340  179.2680  140.6610 O   0  0  0  0  0  1  0  0  0  0  0  0
  183.9240  178.2780  138.1420 O   0  0  0  0  0  1  0  0  0  0  0  0
  183.1600  178.7040  140.4250 C   0  0  1  0  0  0  0  0  0  0  0  0
  179.4870  180.9610  138.6640 C   0  0  0  0  0  3  0  0  0  0  0  0
  183.7590  180.4360  138.8340 F   0  0  0  0  0  0  0  0  0  0  0  0
  183.2080  179.1670  138.9470 C   0  0  1  0  0  0  0  0  0  0  0  0
  180.3620  180.9400  137.4760 C   0  0  0  0  0  3  0  0  0  0  0  0
  181.4260  180.1360  137.4130 C   0  0  0  0  0  3  0  0  0  0  0  0
  181.0030  179.4590  139.7440 N   0  0  0  0  0  0  0  0  0  0  0  0
  181.7460  179.1750  138.5270 C   0  0  2  0  0  3  0  0  0  0  0  0
  183.1500  177.3020  140.4590 O   0  0  0  0  0  1  0  0  0  0  0  0
  179.8160  180.2600  139.7520 C   0  0  0  0  0  3  0  0  0  0  0  0
  181.8120  179.2500  140.9320 C   0  0  1  0  0  3  0  0  0  0  0  0
  181.1140  178.3550  141.9200 C   0  0  0  0  0  3  0  0  0  0  0  0
  180.2360  177.5980  141.5490 O   0  0  0  0  0  0  0  0  0  0  0  0
  190.4130  177.6190  141.8870 C   0  0  0  0  0  2  0  0  0  0  0  0
  189.3640  176.7660  141.2290 C   0  0  0  0  0  3  0  0  0  0  0  0
  189.1410  176.7530  139.9130 C   0  0  0  0  0  3  0  0  0  0  0  0
  189.9000  177.5750  138.9130 C   0  0  2  0  0  3  0  0  0  0  0  0
  189.6190  178.2760  136.5810 O   0  0  0  0  0  0  0  0  0  0  0  0
  188.9490  178.0250  137.7960 C   0  0  2  0  0  0  0  0  0  0  0  0
  189.0730  179.3990  137.2500 C   0  0  0  0  0  2  0  0  0  0  0  0
  187.5720  177.3340  137.6540 C   0  0  0  0  0  2  0  0  0  0  0  0
  187.5900  175.9840  136.9230 C   0  0  0  0  0  2  0  0  0  0  0  0
  186.0000  177.1020  135.6520 C   0  0  0  0  0  1  0  0  0  0  0  0
  186.4090  175.7720  136.0780 N   0  0  0  0  0  0  0  0  0  0  0  0
  185.3190  175.2470  136.9030 C   0  0  0  0  0  2  0  0  0  0  0  0
  185.1840  172.8820  137.7400 C   0  0  0  0  0  1  0  0  0  0  0  0
  185.9110  173.3640  135.4260 C   0  0  0  0  0  1  0  0  0  0  0  0
  183.5620  173.6760  136.0640 C   0  0  0  0  0  1  0  0  0  0  0  0
  184.9930  173.7970  136.5410 C   0  0  0  0  0  0  0  0  0  0  0  0
  191.0250  176.8020  138.3830 N   0  0  0  0  0  2  0  0  0  0  0  0
  190.6830  175.4480  138.4900 N   0  0  0  0  0  2  0  0  0  0  0  0
  191.2110  175.3240  136.0910 C   0  0  0  0  0  2  0  0  0  0  0  0
  193.4690  175.8370  136.7710 C   0  0  2  0  0  3  0  0  0  0  0  0
  191.4330  174.7170  137.4740 C   0  0  1  0  0  3  0  0  0  0  0  0
  192.9170  174.8320  137.7640 C   0  0  0  0  0  2  0  0  0  0  0  0
  192.5600  175.7660  135.5660 C   0  0  0  0  0  2  0  0  0  0  0  0
  194.9190  175.5450  136.3930 C   0  0  0  0  0  3  0  0  0  0  0  0
  195.0410  174.2600  135.8500 O   0  0  0  0  0  1  0  0  0  0  0  0
  195.4280  176.5000  135.5140 O   0  0  0  0  0  1  0  0  0  0  0  0
  1  4  1  0  0  0  0
  2  6  1  0  0  0  0
  2  7  1  0  0  0  0
  3  2  2  0  0  0  0
  4  6  2  0  0  0  0
  5  1  2  0  0  0  0
  5  3  1  0  0  0  0
  7  8  1  0  0  0  0
  9  8  1  0  0  0  0
 10  9  1  0  0  0  0
 11 10  1  0  0  0  0
 12 11  1  0  0  0  0
 13 12  1  0  0  0  0
 14 15  1  6  0  0  0
 14 13  1  0  0  0  0
 17 25  1  1  0  0  0
 17 27  1  0  0  0  0
 17 14  1  0  0  0  0
 18 26  2  0  0  0  0
 19 20  1  0  0  0  0
 20 16  1  6  0  0  0
 20 17  1  0  0  0  0
 21 18  1  0  0  0  0
 22 21  2  0  0  0  0
 23 26  1  0  0  0  0
 23 27  1  0  0  0  0
 24 22  1  6  0  0  0
 24 20  1  0  0  0  0
 24 23  1  0  0  0  0
 27 28  1  1  0  0  0
 29 28  2  0  0  0  0
 30  5  1  0  0  0  0
 31 30  1  0  0  0  0
 32 31  2  0  0  0  0
 33 32  1  1  0  0  0
 34 36  1  0  0  0  0
 34 35  1  0  0  0  0
 35 37  1  6  0  0  0
 35 33  1  0  0  0  0
 36 35  1  0  0  0  0
 38 37  1  0  0  0  0
 39 40  1  0  0  0  0
 40 41  1  0  0  0  0
 40 38  1  0  0  0  0
 43 45  1  0  0  0  0
 44 45  1  0  0  0  0
 45 41  1  0  0  0  0
 45 42  1  0  0  0  0
 46 47  1  0  0  0  0
 46 33  1  0  0  0  0
 48 50  1  0  0  0  0
 49 53  1  6  0  0  0
 49 51  1  0  0  0  0
 50 51  1  0  0  0  0
 50 47  1  1  0  0  0
 52 48  1  0  0  0  0
 52 49  1  0  0  0  0
 54 53  1  0  0  0  0
 55 53  1  0  0  0  0
M  END
>  <MODEL>
1

>  <REMARK>
 VINA RESULT:      -7.0      0.000      0.000
  Name = 
  23 active torsions:
  status: ('A' for Active; 'I' for Inactive)
    1  A    between atoms: C_1  and  C_53
    2  A    between atoms: C_2  and  C_28
    3  A    between atoms: C_2  and  C_44
    4  A    between atoms: C_6  and  C_20
    5  A    between atoms: C_7  and  C_20
    6  A    between atoms: C_7  and  C_22
    7  A    between atoms: C_8  and  C_22
    8  A    between atoms: C_8  and  C_35
    9  A    between atoms: C_10  and  C_32
   10  A    between atoms: C_16  and  C_17
   11  A    between atoms: C_16  and  C_26
   12  A    between atoms: C_17  and  C_33
   13  A    between atoms: C_19  and  C_40
   14  A    between atoms: C_19  and  N_45
   15  A    between atoms: C_26  and  N_45
   16  A    between atoms: C_27  and  O_54
   17  A    between atoms: C_33  and  N_36
   18  A    between atoms: C_33  and  C_49
   19  A    between atoms: C_34  and  N_52
   20  A    between atoms: C_35  and  C_43
   21  A    between atoms: N_36  and  N_52
   22  A    between atoms: C_43  and  C_51
   23  A    between atoms: C_51  and  O_54
                            x       y       z     vdW  Elec       q    Type
                         _______ _______ _______ _____ _____    ______ ____

>  <TORSDO>
F 23

$$$$
=
 OpenBabel11052414593D

 55 59  0  0  1  0  0  0  0  0999 V2000
  191.1660  177.7900  143.7760 C   0  0  0  0  0  3  0  0  0  0  0  0
  188.6420  177.3630  144.9280 C   0  0  0  0  0  0  0  0  0  0  0  0
  188.7880  177.4440  143.5390 C   0  0  0  0  0  3  0  0  0  0  0  0
  191.0320  177.7160  145.1660 C   0  0  0  0  0  3  0  0  0  0  0  0
  190.0470  177.6380  142.9540 C   0  0  0  0  0  0  0  0  0  0  0  0
  189.7740  177.4920  145.7370 C   0  0  0  0  0  3  0  0  0  0  0  0
  187.3890  177.1650  145.5150 O   0  0  0  0  0  0  0  0  0  0  0  0
  186.8230  178.0860  146.4340 C   0  0  0  0  0  2  0  0  0  0  0  0
  185.4130  178.4290  146.0120 C   0  0  0  0  0  2  0  0  0  0  0  0
  185.3560  178.4910  144.4960 C   0  0  0  0  0  2  0  0  0  0  0  0
  184.5250  179.6710  144.0050 C   0  0  0  0  0  2  0  0  0  0  0  0
  183.0730  179.2840  143.8020 C   0  0  0  0  0  2  0  0  0  0  0  0
  182.9190  178.6070  142.4440 C   0  0  0  0  0  2  0  0  0  0  0  0
  181.5240  178.7820  141.8460 C   0  0  1  0  0  3  0  0  0  0  0  0
  180.8600  179.8700  142.4200 O   0  0  0  0  0  1  0  0  0  0  0  0
  179.2210  178.1910  139.5010 O   0  0  0  0  0  1  0  0  0  0  0  0
  181.4530  178.7820  140.3050 C   0  0  1  0  0  0  0  0  0  0  0  0
  183.2430  175.7830  137.2250 C   0  0  0  0  0  3  0  0  0  0  0  0
  180.4900  176.5590  140.4450 F   0  0  0  0  0  0  0  0  0  0  0  0
  180.5220  177.7150  139.6760 C   0  0  1  0  0  0  0  0  0  0  0  0
  181.8420  175.3220  137.2400 C   0  0  0  0  0  3  0  0  0  0  0  0
  180.8710  176.0700  137.7680 C   0  0  0  0  0  3  0  0  0  0  0  0
  182.5760  177.6880  138.5080 N   0  0  0  0  0  0  0  0  0  0  0  0
  181.1550  177.4420  138.3210 C   0  0  2  0  0  3  0  0  0  0  0  0
  181.0450  180.0500  139.8670 O   0  0  0  0  0  1  0  0  0  0  0  0
  183.5850  176.9110  137.8540 C   0  0  0  0  0  3  0  0  0  0  0  0
  182.8370  178.4460  139.7190 C   0  0  1  0  0  3  0  0  0  0  0  0
  183.6990  179.6470  139.4380 C   0  0  0  0  0  3  0  0  0  0  0  0
  184.8070  179.7380  139.9310 O   0  0  0  0  0  0  0  0  0  0  0  0
  190.2210  177.7490  141.4710 C   0  0  0  0  0  2  0  0  0  0  0  0
  190.0910  176.4230  140.7730 C   0  0  0  0  0  3  0  0  0  0  0  0
  190.2050  176.2690  139.4520 C   0  0  0  0  0  3  0  0  0  0  0  0
  190.4790  177.3850  138.4860 C   0  0  2  0  0  3  0  0  0  0  0  0
  188.8230  179.1410  138.0600 O   0  0  0  0  0  0  0  0  0  0  0  0
  189.1690  177.7990  137.8010 C   0  0  2  0  0  0  0  0  0  0  0  0
  187.9940  178.1470  138.6370 C   0  0  0  0  0  2  0  0  0  0  0  0
  188.8880  177.3170  136.3580 C   0  0  0  0  0  2  0  0  0  0  0  0
  188.7830  175.7950  136.1850 C   0  0  0  0  0  2  0  0  0  0  0  0
  186.7350  176.5630  135.4040 C   0  0  0  0  0  1  0  0  0  0  0  0
  187.4380  175.3510  135.8010 N   0  0  0  0  0  0  0  0  0  0  0  0
  186.7470  174.8390  136.9850 C   0  0  0  0  0  2  0  0  0  0  0  0
  185.3570  172.9530  137.8920 C   0  0  0  0  0  1  0  0  0  0  0  0
  187.5500  172.5120  136.8370 C   0  0  0  0  0  1  0  0  0  0  0  0
  185.6400  173.1960  135.4550 C   0  0  0  0  0  1  0  0  0  0  0  0
  186.3180  173.3820  136.7950 C   0  0  0  0  0  0  0  0  0  0  0  0
  191.4850  176.9620  137.5110 N   0  0  0  0  0  2  0  0  0  0  0  0
  192.0350  175.7610  137.9770 N   0  0  0  0  0  2  0  0  0  0  0  0
  194.1780  174.5660  138.1470 C   0  0  0  0  0  2  0  0  0  0  0  0
  194.5840  175.3970  135.9180 C   0  0  2  0  0  3  0  0  0  0  0  0
  193.4850  175.9200  138.0180 C   0  0  1  0  0  3  0  0  0  0  0  0
  193.9620  176.5280  136.7150 C   0  0  0  0  0  2  0  0  0  0  0  0
  195.0740  174.3970  136.9390 C   0  0  0  0  0  2  0  0  0  0  0  0
  195.7190  175.8760  135.0170 C   0  0  0  0  0  3  0  0  0  0  0  0
  196.1160  177.1730  135.3650 O   0  0  0  0  0  1  0  0  0  0  0  0
  196.8080  175.0050  135.0460 O   0  0  0  0  0  1  0  0  0  0  0  0
  1  4  1  0  0  0  0
  2  7  1  0  0  0  0
  2  6  1  0  0  0  0
  3  2  2  0  0  0  0
  4  6  2  0  0  0  0
  5  3  1  0  0  0  0
  5  1  2  0  0  0  0
  7  8  1  0  0  0  0
  9  8  1  0  0  0  0
 10  9  1  0  0  0  0
 11 10  1  0  0  0  0
 12 11  1  0  0  0  0
 13 12  1  0  0  0  0
 14 15  1  6  0  0  0
 14 13  1  0  0  0  0
 17 25  1  6  0  0  0
 17 14  1  0  0  0  0
 18 21  1  0  0  0  0
 18 26  2  0  0  0  0
 20 16  1  6  0  0  0
 20 17  1  0  0  0  0
 20 19  1  0  0  0  0
 21 22  2  0  0  0  0
 23 27  1  0  0  0  0
 24 22  1  1  0  0  0
 24 23  1  0  0  0  0
 24 20  1  0  0  0  0
 26 23  1  0  0  0  0
 27 28  1  6  0  0  0
 27 17  1  0  0  0  0
 28 29  2  0  0  0  0
 30  5  1  0  0  0  0
 31 30  1  0  0  0  0
 32 31  2  0  0  0  0
 33 32  1  1  0  0  0
 34 36  1  0  0  0  0
 35 37  1  6  0  0  0
 35 34  1  0  0  0  0
 35 33  1  0  0  0  0
 35 36  1  0  0  0  0
 38 37  1  0  0  0  0
 39 40  1  0  0  0  0
 40 38  1  0  0  0  0
 40 41  1  0  0  0  0
 44 45  1  0  0  0  0
 45 43  1  0  0  0  0
 45 41  1  0  0  0  0
 45 42  1  0  0  0  0
 46 47  1  0  0  0  0
 46 33  1  0  0  0  0
 49 53  1  1  0  0  0
 49 51  1  0  0  0  0
 49 52  1  0  0  0  0
 50 47  1  6  0  0  0
 50 48  1  0  0  0  0
 51 50  1  0  0  0  0
 52 48  1  0  0  0  0
 53 55  1  0  0  0  0
 53 54  1  0  0  0  0
M  END
>  <MODEL>
2

>  <REMARK>
 VINA RESULT:      -6.9      1.767      2.700
  Name = 
  23 active torsions:
  status: ('A' for Active; 'I' for Inactive)
    1  A    between atoms: C_1  and  C_53
    2  A    between atoms: C_2  and  C_28
    3  A    between atoms: C_2  and  C_44
    4  A    between atoms: C_6  and  C_20
    5  A    between atoms: C_7  and  C_20
    6  A    between atoms: C_7  and  C_22
    7  A    between atoms: C_8  and  C_22
    8  A    between atoms: C_8  and  C_35
    9  A    between atoms: C_10  and  C_32
   10  A    between atoms: C_16  and  C_17
   11  A    between atoms: C_16  and  C_26
   12  A    between atoms: C_17  and  C_33
   13  A    between atoms: C_19  and  C_40
   14  A    between atoms: C_19  and  N_45
   15  A    between atoms: C_26  and  N_45
   16  A    between atoms: C_27  and  O_54
   17  A    between atoms: C_33  and  N_36
   18  A    between atoms: C_33  and  C_49
   19  A    between atoms: C_34  and  N_52
   20  A    between atoms: C_35  and  C_43
   21  A    between atoms: N_36  and  N_52
   22  A    between atoms: C_43  and  C_51
   23  A    between atoms: C_51  and  O_54
                            x       y       z     vdW  Elec       q    Type
                         _______ _______ _______ _____ _____    ______ ____

>  <TORSDO>
F 23

$$$$
=
 OpenBabel11052414593D

 55 59  0  0  1  0  0  0  0  0999 V2000
  185.5470  179.0170  144.4240 C   0  0  0  0  0  3  0  0  0  0  0  0
  182.8050  178.8380  143.8510 C   0  0  0  0  0  0  0  0  0  0  0  0
  183.7400  179.0010  142.8230 C   0  0  0  0  0  3  0  0  0  0  0  0
  184.6220  178.8590  145.4610 C   0  0  0  0  0  3  0  0  0  0  0  0
  185.1120  179.0730  143.0980 C   0  0  0  0  0  0  0  0  0  0  0  0
  183.2560  178.7590  145.1710 C   0  0  0  0  0  3  0  0  0  0  0  0
  181.4350  178.7620  143.5810 O   0  0  0  0  0  0  0  0  0  0  0  0
  180.8500  179.3590  142.4350 C   0  0  0  0  0  2  0  0  0  0  0  0
  180.0040  178.3430  141.7030 C   0  0  0  0  0  2  0  0  0  0  0  0
  180.3330  178.4070  140.2210 C   0  0  0  0  0  2  0  0  0  0  0  0
  181.7470  177.9160  139.9300 C   0  0  0  0  0  2  0  0  0  0  0  0
  182.3840  178.6940  138.7960 C   0  0  0  0  0  2  0  0  0  0  0  0
  182.0970  177.9840  137.4770 C   0  0  0  0  0  2  0  0  0  0  0  0
  183.2760  177.1480  136.9810 C   0  0  1  0  0  3  0  0  0  0  0  0
  184.1300  176.8020  138.0320 O   0  0  0  0  0  1  0  0  0  0  0  0
  180.5800  175.2750  136.3710 O   0  0  0  0  0  1  0  0  0  0  0  0
  182.9130  175.9470  136.0840 C   0  0  1  0  0  0  0  0  0  0  0  0
  184.1370  171.4670  136.4360 C   0  0  0  0  0  3  0  0  0  0  0  0
  182.0340  174.8550  138.0650 F   0  0  0  0  0  0  0  0  0  0  0  0
  181.8990  174.9420  136.6860 C   0  0  1  0  0  0  0  0  0  0  0  0
  182.7730  171.4000  136.9940 C   0  0  0  0  0  3  0  0  0  0  0  0
  181.9070  172.4030  136.8320 C   0  0  0  0  0  3  0  0  0  0  0  0
  183.6920  173.7170  135.7570 N   0  0  0  0  0  0  0  0  0  0  0  0
  182.2670  173.6230  136.0250 C   0  0  2  0  0  3  0  0  0  0  0  0
  182.4070  176.4240  134.8660 O   0  0  0  0  0  1  0  0  0  0  0  0
  184.5720  172.5920  135.8620 C   0  0  0  0  0  3  0  0  0  0  0  0
  184.1670  175.0880  135.8290 C   0  0  1  0  0  3  0  0  0  0  0  0
  184.9370  175.4680  134.5940 C   0  0  0  0  0  3  0  0  0  0  0  0
  186.1380  175.6510  134.6510 O   0  0  0  0  0  0  0  0  0  0  0  0
  186.1260  179.2680  142.0140 C   0  0  0  0  0  2  0  0  0  0  0  0
  185.7240  178.6140  140.7210 C   0  0  0  0  0  3  0  0  0  0  0  0
  186.5960  178.2230  139.7890 C   0  0  0  0  0  3  0  0  0  0  0  0
  188.0850  178.3750  139.8980 C   0  0  2  0  0  3  0  0  0  0  0  0
  189.0290  179.4220  137.8930 O   0  0  0  0  0  0  0  0  0  0  0  0
  188.7190  178.1940  138.5120 C   0  0  2  0  0  0  0  0  0  0  0  0
  187.9830  178.6630  137.3120 C   0  0  0  0  0  2  0  0  0  0  0  0
  189.7630  177.0720  138.3010 C   0  0  0  0  0  2  0  0  0  0  0  0
  189.1970  175.7360  137.8020 C   0  0  0  0  0  2  0  0  0  0  0  0
  189.5670  173.6520  136.8470 C   0  0  0  0  0  1  0  0  0  0  0  0
  190.1490  174.9790  136.9810 N   0  0  0  0  0  0  0  0  0  0  0  0
  191.3970  174.8110  137.7270 C   0  0  0  0  0  2  0  0  0  0  0  0
  193.3500  173.8000  136.5120 C   0  0  0  0  0  1  0  0  0  0  0  0
  193.5440  176.0160  137.5920 C   0  0  0  0  0  1  0  0  0  0  0  0
  192.2000  175.7590  135.5550 C   0  0  0  0  0  1  0  0  0  0  0  0
  192.6170  175.0890  136.8460 C   0  0  0  0  0  0  0  0  0  0  0  0
  188.6150  177.4100  140.8620 N   0  0  0  0  0  2  0  0  0  0  0  0
  189.5170  178.0980  141.6840 N   0  0  0  0  0  2  0  0  0  0  0  0
  191.0900  177.7860  143.5490 C   0  0  0  0  0  2  0  0  0  0  0  0
  189.1210  177.8100  144.9440 C   0  0  2  0  0  3  0  0  0  0  0  0
  189.9380  177.1890  142.7440 C   0  0  1  0  0  3  0  0  0  0  0  0
  188.7930  176.9840  143.7150 C   0  0  0  0  0  2  0  0  0  0  0  0
  190.6280  177.9030  144.9850 C   0  0  0  0  0  2  0  0  0  0  0  0
  188.5650  177.1950  146.2250 C   0  0  0  0  0  3  0  0  0  0  0  0
  189.5910  176.6190  146.9850 O   0  0  0  0  0  1  0  0  0  0  0  0
  187.8570  178.1270  146.9840 O   0  0  0  0  0  1  0  0  0  0  0  0
  1  4  1  0  0  0  0
  2  6  1  0  0  0  0
  3  5  1  0  0  0  0
  3  2  2  0  0  0  0
  5  1  2  0  0  0  0
  6  4  2  0  0  0  0
  7  2  1  0  0  0  0
  8  7  1  0  0  0  0
  9  8  1  0  0  0  0
 10  9  1  0  0  0  0
 11 10  1  0  0  0  0
 12 11  1  0  0  0  0
 13 12  1  0  0  0  0
 14 13  1  0  0  0  0
 14 15  1  1  0  0  0
 17 25  1  6  0  0  0
 17 20  1  0  0  0  0
 17 14  1  0  0  0  0
 18 21  1  0  0  0  0
 20 16  1  6  0  0  0
 20 19  1  0  0  0  0
 22 21  2  0  0  0  0
 23 27  1  0  0  0  0
 23 26  1  0  0  0  0
 23 24  1  0  0  0  0
 24 20  1  0  0  0  0
 24 22  1  1  0  0  0
 26 18  2  0  0  0  0
 27 28  1  6  0  0  0
 27 17  1  0  0  0  0
 28 29  2  0  0  0  0
 30  5  1  0  0  0  0
 31 30  1  0  0  0  0
 32 31  2  0  0  0  0
 33 32  1  6  0  0  0
 33 46  1  0  0  0  0
 34 35  1  0  0  0  0
 35 37  1  6  0  0  0
 35 33  1  0  0  0  0
 36 34  1  0  0  0  0
 36 35  1  0  0  0  0
 38 37  1  0  0  0  0
 39 40  1  0  0  0  0
 40 41  1  0  0  0  0
 40 38  1  0  0  0  0
 42 45  1  0  0  0  0
 44 45  1  0  0  0  0
 45 43  1  0  0  0  0
 45 41  1  0  0  0  0
 46 47  1  0  0  0  0
 48 52  1  0  0  0  0
 49 52  1  0  0  0  0
 49 53  1  1  0  0  0
 50 47  1  6  0  0  0
 50 48  1  0  0  0  0
 50 51  1  0  0  0  0
 51 49  1  0  0  0  0
 53 55  1  0  0  0  0
 53 54  1  0  0  0  0
M  END
>  <MODEL>
3

>  <REMARK>
 VINA RESULT:      -6.8      2.587      7.083
  Name = 
  23 active torsions:
  status: ('A' for Active; 'I' for Inactive)
    1  A    between atoms: C_1  and  C_53
    2  A    between atoms: C_2  and  C_28
    3  A    between atoms: C_2  and  C_44
    4  A    between atoms: C_6  and  C_20
    5  A    between atoms: C_7  and  C_20
    6  A    between atoms: C_7  and  C_22
    7  A    between atoms: C_8  and  C_22
    8  A    between atoms: C_8  and  C_35
    9  A    between atoms: C_10  and  C_32
   10  A    between atoms: C_16  and  C_17
   11  A    between atoms: C_16  and  C_26
   12  A    between atoms: C_17  and  C_33
   13  A    between atoms: C_19  and  C_40
   14  A    between atoms: C_19  and  N_45
   15  A    between atoms: C_26  and  N_45
   16  A    between atoms: C_27  and  O_54
   17  A    between atoms: C_33  and  N_36
   18  A    between atoms: C_33  and  C_49
   19  A    between atoms: C_34  and  N_52
   20  A    between atoms: C_35  and  C_43
   21  A    between atoms: N_36  and  N_52
   22  A    between atoms: C_43  and  C_51
   23  A    between atoms: C_51  and  O_54
                            x       y       z     vdW  Elec       q    Type
                         _______ _______ _______ _____ _____    ______ ____

>  <TORSDO>
F 23

$$$$
=
 OpenBabel11052414593D

 55 59  0  0  1  0  0  0  0  0999 V2000
  191.5590  176.7250  143.7320 C   0  0  0  0  0  3  0  0  0  0  0  0
  189.3930  177.8080  145.1530 C   0  0  0  0  0  0  0  0  0  0  0  0
  189.4150  177.8370  143.7550 C   0  0  0  0  0  3  0  0  0  0  0  0
  191.5510  176.6950  145.1300 C   0  0  0  0  0  3  0  0  0  0  0  0
  190.4830  177.2820  143.0370 C   0  0  0  0  0  0  0  0  0  0  0  0
  190.4640  177.2260  145.8360 C   0  0  0  0  0  3  0  0  0  0  0  0
  188.3280  178.3570  145.8730 O   0  0  0  0  0  0  0  0  0  0  0  0
  187.3910  177.5580  146.5770 C   0  0  0  0  0  2  0  0  0  0  0  0
  185.9910  177.8760  146.1050 C   0  0  0  0  0  2  0  0  0  0  0  0
  186.0560  178.3590  144.6670 C   0  0  0  0  0  2  0  0  0  0  0  0
  184.6840  178.3550  144.0020 C   0  0  0  0  0  2  0  0  0  0  0  0
  184.7540  178.8690  142.5780 C   0  0  0  0  0  2  0  0  0  0  0  0
  183.5050  178.4240  141.8220 C   0  0  0  0  0  2  0  0  0  0  0  0
  183.4260  179.0010  140.4090 C   0  0  1  0  0  3  0  0  0  0  0  0
  184.5140  178.5910  139.6330 O   0  0  0  0  0  1  0  0  0  0  0  0
  180.9700  176.7410  140.3430 O   0  0  0  0  0  1  0  0  0  0  0  0
  182.0740  178.8210  139.6890 C   0  0  1  0  0  0  0  0  0  0  0  0
  181.1670  177.7820  135.2410 C   0  0  0  0  0  3  0  0  0  0  0  0
  182.8250  176.6070  139.0380 F   0  0  0  0  0  0  0  0  0  0  0  0
  181.6970  177.3630  139.3260 C   0  0  1  0  0  0  0  0  0  0  0  0
  180.9590  176.4570  135.8560 C   0  0  0  0  0  3  0  0  0  0  0  0
  180.8240  176.3190  137.1770 C   0  0  0  0  0  3  0  0  0  0  0  0
  181.3000  178.7230  137.4360 N   0  0  0  0  0  0  0  0  0  0  0  0
  180.8230  177.5160  138.0910 C   0  0  2  0  0  3  0  0  0  0  0  0
  181.0570  179.3660  140.4850 O   0  0  0  0  0  1  0  0  0  0  0  0
  181.3470  178.8590  136.0110 C   0  0  0  0  0  3  0  0  0  0  0  0
  182.1110  179.5360  138.3250 C   0  0  1  0  0  3  0  0  0  0  0  0
  181.6270  180.9610  138.3590 C   0  0  0  0  0  3  0  0  0  0  0  0
  180.5290  181.2470  137.9210 O   0  0  0  0  0  0  0  0  0  0  0  0
  190.5350  177.3210  141.5410 C   0  0  0  0  0  2  0  0  0  0  0  0
  189.4090  176.5560  140.9030 C   0  0  0  0  0  3  0  0  0  0  0  0
  189.1050  176.6340  139.6050 C   0  0  0  0  0  3  0  0  0  0  0  0
  189.8370  177.4840  138.6090 C   0  0  2  0  0  3  0  0  0  0  0  0
  189.4210  178.4610  136.3990 O   0  0  0  0  0  0  0  0  0  0  0  0
  188.8300  178.1020  137.6280 C   0  0  2  0  0  0  0  0  0  0  0  0
  188.9870  179.5230  137.2310 C   0  0  0  0  0  2  0  0  0  0  0  0
  187.4120  177.4940  137.5210 C   0  0  0  0  0  2  0  0  0  0  0  0
  186.9560  177.1420  136.0980 C   0  0  0  0  0  2  0  0  0  0  0  0
  184.6440  177.2160  136.2970 C   0  0  0  0  0  1  0  0  0  0  0  0
  185.7540  176.3010  136.0710 N   0  0  0  0  0  0  0  0  0  0  0  0
  185.7810  175.3910  137.2170 C   0  0  0  0  0  2  0  0  0  0  0  0
  183.8050  173.8430  137.3370 C   0  0  0  0  0  1  0  0  0  0  0  0
  186.1110  172.9620  137.4850 C   0  0  0  0  0  1  0  0  0  0  0  0
  185.2590  173.8120  135.3470 C   0  0  0  0  0  1  0  0  0  0  0  0
  185.2340  174.0100  136.8470 C   0  0  0  0  0  0  0  0  0  0  0  0
  190.8420  176.6800  137.9110 N   0  0  0  0  0  2  0  0  0  0  0  0
  190.2300  175.4720  137.5530 N   0  0  0  0  0  2  0  0  0  0  0  0
  191.6440  175.3260  135.5450 C   0  0  0  0  0  2  0  0  0  0  0  0
  193.4940  175.4790  137.0880 C   0  0  2  0  0  3  0  0  0  0  0  0
  191.2210  174.6610  136.8530 C   0  0  1  0  0  3  0  0  0  0  0  0
  192.4690  174.5450  137.7040 C   0  0  0  0  0  2  0  0  0  0  0  0
  193.1350  175.5730  135.6230 C   0  0  0  0  0  2  0  0  0  0  0  0
  194.9240  174.9820  137.2800 C   0  0  0  0  0  3  0  0  0  0  0  0
  195.8180  175.7320  136.5060 O   0  0  0  0  0  1  0  0  0  0  0  0
  195.3040  174.9990  138.6220 O   0  0  0  0  0  1  0  0  0  0  0  0
  1  4  1  0  0  0  0
  2  6  1  0  0  0  0
  2  7  1  0  0  0  0
  3  2  2  0  0  0  0
  4  6  2  0  0  0  0
  5  1  2  0  0  0  0
  5  3  1  0  0  0  0
  7  8  1  0  0  0  0
  9  8  1  0  0  0  0
 10  9  1  0  0  0  0
 11 10  1  0  0  0  0
 12 11  1  0  0  0  0
 13 12  1  0  0  0  0
 14 15  1  6  0  0  0
 14 13  1  0  0  0  0
 17 14  1  0  0  0  0
 17 25  1  1  0  0  0
 18 21  1  0  0  0  0
 18 26  2  0  0  0  0
 20 19  1  6  0  0  0
 20 17  1  0  0  0  0
 20 16  1  0  0  0  0
 21 22  2  0  0  0  0
 23 24  1  0  0  0  0
 23 27  1  0  0  0  0
 24 22  1  6  0  0  0
 24 20  1  0  0  0  0
 26 23  1  0  0  0  0
 27 28  1  1  0  0  0
 27 17  1  0  0  0  0
 29 28  2  0  0  0  0
 30  5  1  0  0  0  0
 31 30  1  0  0  0  0
 32 31  2  0  0  0  0
 33 32  1  1  0  0  0
 34 36  1  0  0  0  0
 34 35  1  0  0  0  0
 35 37  1  6  0  0  0
 35 33  1  0  0  0  0
 36 35  1  0  0  0  0
 38 37  1  0  0  0  0
 40 38  1  0  0  0  0
 40 39  1  0  0  0  0
 40 41  1  0  0  0  0
 44 45  1  0  0  0  0
 45 41  1  0  0  0  0
 45 42  1  0  0  0  0
 45 43  1  0  0  0  0
 46 33  1  0  0  0  0
 47 46  1  0  0  0  0
 48 52  1  0  0  0  0
 48 50  1  0  0  0  0
 49 53  1  6  0  0  0
 49 51  1  0  0  0  0
 50 47  1  1  0  0  0
 50 51  1  0  0  0  0
 52 49  1  0  0  0  0
 53 55  1  0  0  0  0
 54 53  1  0  0  0  0
M  END
>  <MODEL>
4

>  <REMARK>
 VINA RESULT:      -6.4      1.547      2.092
  Name = 
  23 active torsions:
  status: ('A' for Active; 'I' for Inactive)
    1  A    between atoms: C_1  and  C_53
    2  A    between atoms: C_2  and  C_28
    3  A    between atoms: C_2  and  C_44
    4  A    between atoms: C_6  and  C_20
    5  A    between atoms: C_7  and  C_20
    6  A    between atoms: C_7  and  C_22
    7  A    between atoms: C_8  and  C_22
    8  A    between atoms: C_8  and  C_35
    9  A    between atoms: C_10  and  C_32
   10  A    between atoms: C_16  and  C_17
   11  A    between atoms: C_16  and  C_26
   12  A    between atoms: C_17  and  C_33
   13  A    between atoms: C_19  and  C_40
   14  A    between atoms: C_19  and  N_45
   15  A    between atoms: C_26  and  N_45
   16  A    between atoms: C_27  and  O_54
   17  A    between atoms: C_33  and  N_36
   18  A    between atoms: C_33  and  C_49
   19  A    between atoms: C_34  and  N_52
   20  A    between atoms: C_35  and  C_43
   21  A    between atoms: N_36  and  N_52
   22  A    between atoms: C_43  and  C_51
   23  A    between atoms: C_51  and  O_54
                            x       y       z     vdW  Elec       q    Type
                         _______ _______ _______ _____ _____    ______ ____

>  <TORSDO>
F 23

$$$$
=
 OpenBabel11052414593D

 55 59  0  0  1  0  0  0  0  0999 V2000
  184.0880  178.9320  145.5390 C   0  0  0  0  0  3  0  0  0  0  0  0
  186.5510  177.7490  144.8970 C   0  0  0  0  0  0  0  0  0  0  0  0
  185.5970  177.9940  143.9040 C   0  0  0  0  0  3  0  0  0  0  0  0
  185.0320  178.6880  146.5410 C   0  0  0  0  0  3  0  0  0  0  0  0
  184.3720  178.6010  144.2120 C   0  0  0  0  0  0  0  0  0  0  0  0
  186.2640  178.1080  146.2170 C   0  0  0  0  0  3  0  0  0  0  0  0
  187.7760  177.1470  144.5930 O   0  0  0  0  0  0  0  0  0  0  0  0
  187.9840  176.3970  143.4080 C   0  0  0  0  0  2  0  0  0  0  0  0
  189.4610  176.3270  143.0980 C   0  0  0  0  0  2  0  0  0  0  0  0
  189.6780  176.7320  141.6490 C   0  0  0  0  0  2  0  0  0  0  0  0
  188.5420  177.6050  141.1270 C   0  0  0  0  0  2  0  0  0  0  0  0
  189.0480  178.6560  140.1590 C   0  0  0  0  0  2  0  0  0  0  0  0
  189.5000  177.9760  138.8700 C   0  0  0  0  0  2  0  0  0  0  0  0
  188.6730  178.3930  137.6550 C   0  0  1  0  0  3  0  0  0  0  0  0
  189.1330  179.5990  137.1190 O   0  0  0  0  0  1  0  0  0  0  0  0
  186.1730  177.2990  135.7310 O   0  0  0  0  0  1  0  0  0  0  0  0
  188.4640  177.3030  136.5840 C   0  0  1  0  0  0  0  0  0  0  0  0
  188.1930  172.6750  137.0340 C   0  0  0  0  0  3  0  0  0  0  0  0
  186.5300  176.5640  137.8510 F   0  0  0  0  0  0  0  0  0  0  0  0
  187.0660  176.6330  136.5720 C   0  0  1  0  0  0  0  0  0  0  0  0
  186.7590  173.0000  136.9120 C   0  0  0  0  0  3  0  0  0  0  0  0
  186.3540  174.1930  136.4720 C   0  0  0  0  0  3  0  0  0  0  0  0
  188.7030  174.9350  136.4370 N   0  0  0  0  0  0  0  0  0  0  0  0
  187.3420  175.2400  136.0280 C   0  0  2  0  0  3  0  0  0  0  0  0
  188.7100  177.8530  135.3180 O   0  0  0  0  0  1  0  0  0  0  0  0
  189.1160  173.6180  136.8210 C   0  0  0  0  0  3  0  0  0  0  0  0
  189.4270  176.1280  136.8410 C   0  0  1  0  0  3  0  0  0  0  0  0
  190.7440  176.2390  136.1220 C   0  0  0  0  0  3  0  0  0  0  0  0
  191.7880  176.0860  136.7270 O   0  0  0  0  0  0  0  0  0  0  0  0
  183.3290  178.8530  143.1670 C   0  0  0  0  0  2  0  0  0  0  0  0
  181.9310  178.7540  143.7110 C   0  0  0  0  0  3  0  0  0  0  0  0
  180.8430  178.6690  142.9420 C   0  0  0  0  0  3  0  0  0  0  0  0
  180.8610  178.6560  141.4410 C   0  0  2  0  0  3  0  0  0  0  0  0
  180.2030  181.0020  141.7040 O   0  0  0  0  0  0  0  0  0  0  0  0
  180.0510  179.8470  140.9110 C   0  0  2  0  0  0  0  0  0  0  0  0
  178.9310  180.3800  141.7250 C   0  0  0  0  0  2  0  0  0  0  0  0
  179.9950  180.1010  139.3860 C   0  0  0  0  0  2  0  0  0  0  0  0
  180.6860  181.3870  138.9110 C   0  0  0  0  0  2  0  0  0  0  0  0
  179.6730  182.1930  136.9830 C   0  0  0  0  0  1  0  0  0  0  0  0
  180.8360  181.4540  137.4520 N   0  0  0  0  0  0  0  0  0  0  0  0
  180.7210  180.1040  136.8980 C   0  0  0  0  0  2  0  0  0  0  0  0
  178.9750  179.9810  135.0950 C   0  0  0  0  0  1  0  0  0  0  0  0
  181.2240  179.0130  134.7450 C   0  0  0  0  0  1  0  0  0  0  0  0
  180.9320  181.4490  134.7980 C   0  0  0  0  0  1  0  0  0  0  0  0
  180.4570  180.1400  135.3910 C   0  0  0  0  0  0  0  0  0  0  0  0
  180.3310  177.3830  140.9480 N   0  0  0  0  0  2  0  0  0  0  0  0
  181.4060  176.6710  140.4020 N   0  0  0  0  0  2  0  0  0  0  0  0
  182.8070  177.3690  138.5040 C   0  0  0  0  0  2  0  0  0  0  0  0
  182.4400  175.1320  137.6750 C   0  0  2  0  0  3  0  0  0  0  0  0
  181.4220  176.9200  138.9640 C   0  0  1  0  0  3  0  0  0  0  0  0
  181.1180  175.6310  138.2270 C   0  0  0  0  0  2  0  0  0  0  0  0
  183.2960  176.3630  137.4850 C   0  0  0  0  0  2  0  0  0  0  0  0
  182.2720  174.3620  136.3690 C   0  0  0  0  0  3  0  0  0  0  0  0
  180.9160  174.1810  136.0700 O   0  0  0  0  0  1  0  0  0  0  0  0
  182.9280  174.9870  135.3090 O   0  0  0  0  0  1  0  0  0  0  0  0
  1  4  1  0  0  0  0
  2  6  1  0  0  0  0
  3  5  1  0  0  0  0
  3  2  2  0  0  0  0
  5  1  2  0  0  0  0
  6  4  2  0  0  0  0
  7  2  1  0  0  0  0
  8  7  1  0  0  0  0
  9  8  1  0  0  0  0
 10  9  1  0  0  0  0
 11 10  1  0  0  0  0
 12 11  1  0  0  0  0
 13 12  1  0  0  0  0
 14 15  1  6  0  0  0
 14 13  1  0  0  0  0
 17 25  1  6  0  0  0
 17 27  1  0  0  0  0
 17 14  1  0  0  0  0
 20 16  1  6  0  0  0
 20 17  1  0  0  0  0
 20 19  1  0  0  0  0
 21 18  1  0  0  0  0
 22 21  2  0  0  0  0
 23 26  1  0  0  0  0
 23 27  1  0  0  0  0
 24 23  1  0  0  0  0
 24 22  1  1  0  0  0
 24 20  1  0  0  0  0
 26 18  2  0  0  0  0
 27 28  1  6  0  0  0
 28 29  2  0  0  0  0
 30 31  1  0  0  0  0
 30  5  1  0  0  0  0
 32 31  2  0  0  0  0
 33 32  1  1  0  0  0
 34 36  1  0  0  0  0
 35 37  1  6  0  0  0
 35 33  1  0  0  0  0
 35 34  1  0  0  0  0
 35 36  1  0  0  0  0
 38 37  1  0  0  0  0
 39 40  1  0  0  0  0
 40 38  1  0  0  0  0
 41 40  1  0  0  0  0
 42 45  1  0  0  0  0
 43 45  1  0  0  0  0
 44 45  1  0  0  0  0
 45 41  1  0  0  0  0
 46 33  1  0  0  0  0
 47 46  1  0  0  0  0
 48 50  1  0  0  0  0
 49 53  1  6  0  0  0
 49 51  1  0  0  0  0
 50 47  1  1  0  0  0
 51 50  1  0  0  0  0
 52 49  1  0  0  0  0
 52 48  1  0  0  0  0
 54 53  1  0  0  0  0
 55 53  1  0  0  0  0
M  END
>  <MODEL>
5

>  <REMARK>
 VINA RESULT:      -6.1      2.357      8.617
  Name = 
  23 active torsions:
  status: ('A' for Active; 'I' for Inactive)
    1  A    between atoms: C_1  and  C_53
    2  A    between atoms: C_2  and  C_28
    3  A    between atoms: C_2  and  C_44
    4  A    between atoms: C_6  and  C_20
    5  A    between atoms: C_7  and  C_20
    6  A    between atoms: C_7  and  C_22
    7  A    between atoms: C_8  and  C_22
    8  A    between atoms: C_8  and  C_35
    9  A    between atoms: C_10  and  C_32
   10  A    between atoms: C_16  and  C_17
   11  A    between atoms: C_16  and  C_26
   12  A    between atoms: C_17  and  C_33
   13  A    between atoms: C_19  and  C_40
   14  A    between atoms: C_19  and  N_45
   15  A    between atoms: C_26  and  N_45
   16  A    between atoms: C_27  and  O_54
   17  A    between atoms: C_33  and  N_36
   18  A    between atoms: C_33  and  C_49
   19  A    between atoms: C_34  and  N_52
   20  A    between atoms: C_35  and  C_43
   21  A    between atoms: N_36  and  N_52
   22  A    between atoms: C_43  and  C_51
   23  A    between atoms: C_51  and  O_54
                            x       y       z     vdW  Elec       q    Type
                         _______ _______ _______ _____ _____    ______ ____

>  <TORSDO>
F 23

$$$$
=
 OpenBabel11052414593D

 55 59  0  0  1  0  0  0  0  0999 V2000
  188.0370  178.5030  140.4130 C   0  0  0  0  0  3  0  0  0  0  0  0
  190.5820  177.4010  139.9810 C   0  0  0  0  0  0  0  0  0  0  0  0
  190.0180  177.4140  141.2620 C   0  0  0  0  0  3  0  0  0  0  0  0
  188.5920  178.4990  139.1300 C   0  0  0  0  0  3  0  0  0  0  0  0
  188.7410  177.9460  141.4830 C   0  0  0  0  0  0  0  0  0  0  0  0
  189.8570  177.9390  138.9150 C   0  0  0  0  0  3  0  0  0  0  0  0
  191.8550  176.8680  139.7550 O   0  0  0  0  0  0  0  0  0  0  0  0
  192.4050  176.7330  138.4540 C   0  0  0  0  0  2  0  0  0  0  0  0
  192.3290  175.2890  138.0140 C   0  0  0  0  0  2  0  0  0  0  0  0
  192.1270  175.2460  136.5080 C   0  0  0  0  0  2  0  0  0  0  0  0
  190.9920  176.1600  136.0600 C   0  0  0  0  0  2  0  0  0  0  0  0
  190.0540  175.4530  135.1010 C   0  0  0  0  0  2  0  0  0  0  0  0
  188.6720  176.0920  135.1890 C   0  0  0  0  0  2  0  0  0  0  0  0
  187.5400  175.0650  135.2010 C   0  0  1  0  0  3  0  0  0  0  0  0
  188.0300  173.7700  135.0060 O   0  0  0  0  0  1  0  0  0  0  0  0
  186.2550  173.0030  137.4900 O   0  0  0  0  0  1  0  0  0  0  0  0
  186.5620  175.1630  136.3890 C   0  0  1  0  0  0  0  0  0  0  0  0
  181.9380  175.7210  136.4240 C   0  0  0  0  0  3  0  0  0  0  0  0
  185.3530  173.2930  135.4250 F   0  0  0  0  0  0  0  0  0  0  0  0
  185.6630  173.9230  136.6230 C   0  0  1  0  0  0  0  0  0  0  0  0
  182.0190  174.2690  136.6740 C   0  0  0  0  0  3  0  0  0  0  0  0
  183.1650  173.6910  137.0390 C   0  0  0  0  0  3  0  0  0  0  0  0
  184.3060  175.8530  136.7370 N   0  0  0  0  0  0  0  0  0  0  0  0
  184.4130  174.5030  137.2650 C   0  0  2  0  0  3  0  0  0  0  0  0
  187.2900  175.4190  137.5600 O   0  0  0  0  0  1  0  0  0  0  0  0
  183.0470  176.4670  136.4390 C   0  0  0  0  0  3  0  0  0  0  0  0
  185.5530  176.3010  136.1410 C   0  0  1  0  0  3  0  0  0  0  0  0
  185.9760  177.6350  136.6930 C   0  0  0  0  0  3  0  0  0  0  0  0
  185.4680  178.0690  137.7090 O   0  0  0  0  0  0  0  0  0  0  0  0
  188.1280  177.9890  142.8490 C   0  0  0  0  0  2  0  0  0  0  0  0
  187.5030  176.6800  143.2440 C   0  0  0  0  0  3  0  0  0  0  0  0
  186.4810  176.5760  144.0960 C   0  0  0  0  0  3  0  0  0  0  0  0
  185.8150  177.7400  144.7720 C   0  0  2  0  0  3  0  0  0  0  0  0
  185.1340  179.8780  143.7870 O   0  0  0  0  0  0  0  0  0  0  0  0
  184.9340  178.4830  143.7580 C   0  0  2  0  0  0  0  0  0  0  0  0
  183.8820  179.4040  144.2530 C   0  0  0  0  0  2  0  0  0  0  0  0
  184.7350  177.8790  142.3480 C   0  0  0  0  0  2  0  0  0  0  0  0
  184.3470  178.8830  141.2540 C   0  0  0  0  0  2  0  0  0  0  0  0
  183.0830  177.1970  140.2780 C   0  0  0  0  0  1  0  0  0  0  0  0
  183.0380  178.6030  140.6540 N   0  0  0  0  0  0  0  0  0  0  0  0
  182.9110  179.3610  139.4080 C   0  0  0  0  0  2  0  0  0  0  0  0
  180.7110  178.5510  138.5060 C   0  0  0  0  0  1  0  0  0  0  0  0
  181.4310  180.8920  138.1660 C   0  0  0  0  0  1  0  0  0  0  0  0
  180.7450  180.1320  140.3960 C   0  0  0  0  0  1  0  0  0  0  0  0
  181.4530  179.7260  139.1220 C   0  0  0  0  0  0  0  0  0  0  0  0
  186.8270  178.6230  145.3550 N   0  0  0  0  0  2  0  0  0  0  0  0
  187.2510  178.0330  146.5530 N   0  0  0  0  0  2  0  0  0  0  0  0
  189.0870  178.0200  148.1900 C   0  0  0  0  0  2  0  0  0  0  0  0
  190.2870  176.7480  146.5260 C   0  0  2  0  0  3  0  0  0  0  0  0
  188.6140  178.4840  146.8140 C   0  0  1  0  0  3  0  0  0  0  0  0
  189.5520  177.8590  145.8010 C   0  0  0  0  0  2  0  0  0  0  0  0
  190.3100  177.1530  147.9820 C   0  0  0  0  0  2  0  0  0  0  0  0
  191.6970  176.5320  145.9850 C   0  0  0  0  0  3  0  0  0  0  0  0
  192.3960  175.6110  146.7760 O   0  0  0  0  0  1  0  0  0  0  0  0
  191.6850  176.1230  144.6520 O   0  0  0  0  0  1  0  0  0  0  0  0
  1  5  1  0  0  0  0
  2  3  1  0  0  0  0
  3  5  2  0  0  0  0
  4  1  2  0  0  0  0
  5 30  1  0  0  0  0
  6  4  1  0  0  0  0
  6  2  2  0  0  0  0
  7  2  1  0  0  0  0
  8  7  1  0  0  0  0
  9  8  1  0  0  0  0
 10  9  1  0  0  0  0
 11 10  1  0  0  0  0
 12 13  1  0  0  0  0
 12 11  1  0  0  0  0
 13 14  1  0  0  0  0
 14 15  1  1  0  0  0
 14 17  1  0  0  0  0
 17 20  1  0  0  0  0
 17 25  1  1  0  0  0
 18 26  2  0  0  0  0
 18 21  1  0  0  0  0
 20 19  1  6  0  0  0
 20 24  1  0  0  0  0
 20 16  1  0  0  0  0
 21 22  2  0  0  0  0
 23 24  1  0  0  0  0
 24 22  1  6  0  0  0
 26 23  1  0  0  0  0
 27 17  1  0  0  0  0
 27 28  1  1  0  0  0
 27 23  1  0  0  0  0
 28 29  2  0  0  0  0
 30 31  1  0  0  0  0
 31 32  2  0  0  0  0
 33 32  1  6  0  0  0
 33 46  1  0  0  0  0
 34 36  1  0  0  0  0
 35 37  1  6  0  0  0
 35 34  1  0  0  0  0
 35 36  1  0  0  0  0
 35 33  1  0  0  0  0
 38 37  1  0  0  0  0
 39 40  1  0  0  0  0
 40 38  1  0  0  0  0
 41 40  1  0  0  0  0
 42 45  1  0  0  0  0
 43 45  1  0  0  0  0
 45 41  1  0  0  0  0
 45 44  1  0  0  0  0
 46 47  1  0  0  0  0
 49 53  1  6  0  0  0
 49 52  1  0  0  0  0
 50 47  1  6  0  0  0
 50 48  1  0  0  0  0
 51 49  1  0  0  0  0
 51 50  1  0  0  0  0
 52 48  1  0  0  0  0
 53 54  1  0  0  0  0
 55 53  1  0  0  0  0
M  END
>  <MODEL>
6

>  <REMARK>
 VINA RESULT:      -6.0      2.881      7.929
  Name = 
  23 active torsions:
  status: ('A' for Active; 'I' for Inactive)
    1  A    between atoms: C_1  and  C_53
    2  A    between atoms: C_2  and  C_28
    3  A    between atoms: C_2  and  C_44
    4  A    between atoms: C_6  and  C_20
    5  A    between atoms: C_7  and  C_20
    6  A    between atoms: C_7  and  C_22
    7  A    between atoms: C_8  and  C_22
    8  A    between atoms: C_8  and  C_35
    9  A    between atoms: C_10  and  C_32
   10  A    between atoms: C_16  and  C_17
   11  A    between atoms: C_16  and  C_26
   12  A    between atoms: C_17  and  C_33
   13  A    between atoms: C_19  and  C_40
   14  A    between atoms: C_19  and  N_45
   15  A    between atoms: C_26  and  N_45
   16  A    between atoms: C_27  and  O_54
   17  A    between atoms: C_33  and  N_36
   18  A    between atoms: C_33  and  C_49
   19  A    between atoms: C_34  and  N_52
   20  A    between atoms: C_35  and  C_43
   21  A    between atoms: N_36  and  N_52
   22  A    between atoms: C_43  and  C_51
   23  A    between atoms: C_51  and  O_54
                            x       y       z     vdW  Elec       q    Type
                         _______ _______ _______ _____ _____    ______ ____

>  <TORSDO>
F 23

$$$$
=
 OpenBabel11052414593D

 55 59  0  0  1  0  0  0  0  0999 V2000
  191.3130  177.2500  143.3150 C   0  0  0  0  0  3  0  0  0  0  0  0
  188.7730  177.5150  144.4810 C   0  0  0  0  0  0  0  0  0  0  0  0
  188.9130  177.0280  143.1760 C   0  0  0  0  0  3  0  0  0  0  0  0
  191.1860  177.7420  144.6170 C   0  0  0  0  0  3  0  0  0  0  0  0
  190.1770  176.8760  142.5930 C   0  0  0  0  0  0  0  0  0  0  0  0
  189.9190  177.8630  145.2010 C   0  0  0  0  0  3  0  0  0  0  0  0
  187.5130  177.6650  145.0680 O   0  0  0  0  0  0  0  0  0  0  0  0
  186.3220  177.7630  144.3040 C   0  0  0  0  0  2  0  0  0  0  0  0
  185.3850  178.7630  144.9420 C   0  0  0  0  0  2  0  0  0  0  0  0
  184.2510  179.0580  143.9760 C   0  0  0  0  0  2  0  0  0  0  0  0
  182.8850  178.8640  144.6250 C   0  0  0  0  0  2  0  0  0  0  0  0
  181.7760  178.8370  143.5920 C   0  0  0  0  0  2  0  0  0  0  0  0
  182.3870  178.6740  142.2040 C   0  0  0  0  0  2  0  0  0  0  0  0
  181.3450  178.3810  141.1250 C   0  0  1  0  0  3  0  0  0  0  0  0
  180.0630  178.7410  141.5490 O   0  0  0  0  0  1  0  0  0  0  0  0
  179.6760  179.1250  138.3310 O   0  0  0  0  0  1  0  0  0  0  0  0
  181.6790  178.9070  139.7140 C   0  0  1  0  0  0  0  0  0  0  0  0
  183.7840  176.7780  136.1460 C   0  0  0  0  0  3  0  0  0  0  0  0
  180.4180  177.0350  138.8220 F   0  0  0  0  0  0  0  0  0  0  0  0
  180.8080  178.3420  138.5640 C   0  0  1  0  0  0  0  0  0  0  0  0
  182.3770  176.6600  135.7150 C   0  0  0  0  0  3  0  0  0  0  0  0
  181.4140  177.3870  136.2860 C   0  0  0  0  0  3  0  0  0  0  0  0
  183.0710  178.2480  137.8930 N   0  0  0  0  0  0  0  0  0  0  0  0
  181.7290  178.4000  137.3560 C   0  0  2  0  0  3  0  0  0  0  0  0
  181.5780  180.3050  139.7120 O   0  0  0  0  0  1  0  0  0  0  0  0
  184.1010  177.5290  137.2050 C   0  0  0  0  0  3  0  0  0  0  0  0
  183.1090  178.4850  139.3260 C   0  0  1  0  0  3  0  0  0  0  0  0
  184.1700  179.4890  139.6870 C   0  0  0  0  0  3  0  0  0  0  0  0
  184.5540  180.3000  138.8660 O   0  0  0  0  0  0  0  0  0  0  0  0
  190.3470  176.3780  141.1910 C   0  0  0  0  0  2  0  0  0  0  0  0
  191.0520  177.3680  140.3060 C   0  0  0  0  0  3  0  0  0  0  0  0
  191.5660  177.0590  139.1140 C   0  0  0  0  0  3  0  0  0  0  0  0
  191.5110  175.6940  138.4910 C   0  0  2  0  0  3  0  0  0  0  0  0
  193.4900  176.6840  137.4360 O   0  0  0  0  0  0  0  0  0  0  0  0
  192.7070  175.5170  137.5450 C   0  0  2  0  0  0  0  0  0  0  0  0
  192.7560  176.3000  136.2860 C   0  0  0  0  0  2  0  0  0  0  0  0
  193.5070  174.1930  137.5810 C   0  0  0  0  0  2  0  0  0  0  0  0
  194.9170  174.2960  138.1770 C   0  0  0  0  0  2  0  0  0  0  0  0
  196.1950  174.7220  136.2850 C   0  0  0  0  0  1  0  0  0  0  0  0
  195.9510  173.7180  137.3100 N   0  0  0  0  0  0  0  0  0  0  0  0
  195.4000  172.5490  136.6230 C   0  0  0  0  0  2  0  0  0  0  0  0
  196.5530  170.7270  135.3320 C   0  0  0  0  0  1  0  0  0  0  0  0
  195.7590  170.3320  137.6410 C   0  0  0  0  0  1  0  0  0  0  0  0
  197.6990  171.7800  137.2430 C   0  0  0  0  0  1  0  0  0  0  0  0
  196.3520  171.3530  136.7030 C   0  0  0  0  0  0  0  0  0  0  0  0
  190.2390  175.5180  137.7890 N   0  0  0  0  0  2  0  0  0  0  0  0
  190.1240  174.1580  137.4740 N   0  0  0  0  0  2  0  0  0  0  0  0
  188.8900  172.5580  136.0720 C   0  0  0  0  0  2  0  0  0  0  0  0
  186.9410  173.3240  137.2720 C   0  0  2  0  0  3  0  0  0  0  0  0
  189.1090  174.0250  136.4340 C   0  0  1  0  0  3  0  0  0  0  0  0
  187.7850  174.5450  136.9550 C   0  0  0  0  0  2  0  0  0  0  0  0
  187.4400  172.2320  136.3550 C   0  0  0  0  0  2  0  0  0  0  0  0
  185.4500  173.5800  137.0760 C   0  0  0  0  0  3  0  0  0  0  0  0
  185.1340  173.6580  135.7140 O   0  0  0  0  0  1  0  0  0  0  0  0
  184.6690  172.6110  137.7050 O   0  0  0  0  0  1  0  0  0  0  0  0
  1  4  1  0  0  0  0
  2  7  1  0  0  0  0
  2  6  1  0  0  0  0
  3  2  2  0  0  0  0
  4  6  2  0  0  0  0
  5  3  1  0  0  0  0
  5  1  2  0  0  0  0
  8  9  1  0  0  0  0
  8  7  1  0  0  0  0
 10 11  1  0  0  0  0
 10  9  1  0  0  0  0
 12 11  1  0  0  0  0
 13 12  1  0  0  0  0
 14 15  1  1  0  0  0
 14 13  1  0  0  0  0
 17 25  1  6  0  0  0
 17 14  1  0  0  0  0
 18 26  2  0  0  0  0
 20 16  1  6  0  0  0
 20 19  1  0  0  0  0
 20 17  1  0  0  0  0
 21 18  1  0  0  0  0
 21 22  2  0  0  0  0
 23 27  1  0  0  0  0
 24 22  1  6  0  0  0
 24 23  1  0  0  0  0
 24 20  1  0  0  0  0
 26 23  1  0  0  0  0
 27 28  1  6  0  0  0
 27 17  1  0  0  0  0
 29 28  2  0  0  0  0
 30  5  1  0  0  0  0
 31 30  1  0  0  0  0
 32 31  2  0  0  0  0
 33 32  1  6  0  0  0
 34 35  1  0  0  0  0
 35 37  1  1  0  0  0
 35 33  1  0  0  0  0
 36 34  1  0  0  0  0
 36 35  1  0  0  0  0
 37 38  1  0  0  0  0
 39 40  1  0  0  0  0
 40 38  1  0  0  0  0
 41 45  1  0  0  0  0
 41 40  1  0  0  0  0
 42 45  1  0  0  0  0
 45 44  1  0  0  0  0
 45 43  1  0  0  0  0
 46 33  1  0  0  0  0
 47 46  1  0  0  0  0
 48 52  1  0  0  0  0
 48 50  1  0  0  0  0
 49 53  1  6  0  0  0
 50 51  1  0  0  0  0
 50 47  1  1  0  0  0
 51 49  1  0  0  0  0
 52 49  1  0  0  0  0
 53 55  1  0  0  0  0
 54 53  1  0  0  0  0
M  END
>  <MODEL>
7

>  <REMARK>
 VINA RESULT:      -6.0      2.620      5.855
  Name = 
  23 active torsions:
  status: ('A' for Active; 'I' for Inactive)
    1  A    between atoms: C_1  and  C_53
    2  A    between atoms: C_2  and  C_28
    3  A    between atoms: C_2  and  C_44
    4  A    between atoms: C_6  and  C_20
    5  A    between atoms: C_7  and  C_20
    6  A    between atoms: C_7  and  C_22
    7  A    between atoms: C_8  and  C_22
    8  A    between atoms: C_8  and  C_35
    9  A    between atoms: C_10  and  C_32
   10  A    between atoms: C_16  and  C_17
   11  A    between atoms: C_16  and  C_26
   12  A    between atoms: C_17  and  C_33
   13  A    between atoms: C_19  and  C_40
   14  A    between atoms: C_19  and  N_45
   15  A    between atoms: C_26  and  N_45
   16  A    between atoms: C_27  and  O_54
   17  A    between atoms: C_33  and  N_36
   18  A    between atoms: C_33  and  C_49
   19  A    between atoms: C_34  and  N_52
   20  A    between atoms: C_35  and  C_43
   21  A    between atoms: N_36  and  N_52
   22  A    between atoms: C_43  and  C_51
   23  A    between atoms: C_51  and  O_54
                            x       y       z     vdW  Elec       q    Type
                         _______ _______ _______ _____ _____    ______ ____

>  <TORSDO>
F 23

$$$$
=
 OpenBabel11052414593D

 55 59  0  0  1  0  0  0  0  0999 V2000
  184.5210  178.8070  144.7330 C   0  0  0  0  0  3  0  0  0  0  0  0
  187.1050  177.7970  144.3060 C   0  0  0  0  0  0  0  0  0  0  0  0
  186.1970  177.9040  143.2480 C   0  0  0  0  0  3  0  0  0  0  0  0
  185.4170  178.6990  145.8000 C   0  0  0  0  0  3  0  0  0  0  0  0
  184.9110  178.4240  143.4480 C   0  0  0  0  0  0  0  0  0  0  0  0
  186.7100  178.2060  145.5830 C   0  0  0  0  0  3  0  0  0  0  0  0
  188.3900  177.2820  144.1110 O   0  0  0  0  0  0  0  0  0  0  0  0
  188.6440  176.1620  143.2770 C   0  0  0  0  0  2  0  0  0  0  0  0
  190.0970  176.1520  142.8620 C   0  0  0  0  0  2  0  0  0  0  0  0
  190.2100  176.7240  141.4590 C   0  0  0  0  0  2  0  0  0  0  0  0
  191.3050  177.7800  141.3610 C   0  0  0  0  0  2  0  0  0  0  0  0
  192.2450  177.5020  140.2050 C   0  0  0  0  0  2  0  0  0  0  0  0
  191.5090  176.6910  139.1440 C   0  0  0  0  0  2  0  0  0  0  0  0
  192.1350  176.8200  137.7550 C   0  0  1  0  0  3  0  0  0  0  0  0
  193.5260  176.6990  137.8130 O   0  0  0  0  0  1  0  0  0  0  0  0
  190.2160  177.2800  135.0610 O   0  0  0  0  0  1  0  0  0  0  0  0
  191.5030  175.9440  136.6540 C   0  0  1  0  0  0  0  0  0  0  0  0
  187.9310  172.9650  136.8800 C   0  0  0  0  0  3  0  0  0  0  0  0
  189.3810  177.0110  137.1570 F   0  0  0  0  0  0  0  0  0  0  0  0
  190.1140  176.4050  136.1440 C   0  0  1  0  0  0  0  0  0  0  0  0
  187.2510  174.1270  136.2760 C   0  0  0  0  0  3  0  0  0  0  0  0
  187.9440  175.1390  135.7500 C   0  0  0  0  0  3  0  0  0  0  0  0
  190.0200  174.0790  136.5470 N   0  0  0  0  0  0  0  0  0  0  0  0
  189.4490  175.1130  135.6990 C   0  0  2  0  0  3  0  0  0  0  0  0
  192.3830  175.8750  135.5640 O   0  0  0  0  0  1  0  0  0  0  0  0
  189.2590  172.9630  137.0210 C   0  0  0  0  0  3  0  0  0  0  0  0
  191.2360  174.5290  137.2020 C   0  0  1  0  0  3  0  0  0  0  0  0
  192.3660  173.5590  136.9870 C   0  0  0  0  0  3  0  0  0  0  0  0
  192.2820  172.6980  136.1320 O   0  0  0  0  0  0  0  0  0  0  0  0
  183.9180  178.5280  142.3320 C   0  0  0  0  0  2  0  0  0  0  0  0
  182.5110  178.7230  142.8270 C   0  0  0  0  0  3  0  0  0  0  0  0
  181.4650  178.9210  142.0210 C   0  0  0  0  0  3  0  0  0  0  0  0
  181.5420  178.9730  140.5230 C   0  0  2  0  0  3  0  0  0  0  0  0
  179.1590  178.4210  140.6760 O   0  0  0  0  0  0  0  0  0  0  0  0
  180.1300  179.1360  139.9450 C   0  0  2  0  0  0  0  0  0  0  0  0
  179.4430  177.9530  139.3690 C   0  0  0  0  0  2  0  0  0  0  0  0
  179.6770  180.5260  139.4410 C   0  0  0  0  0  2  0  0  0  0  0  0
  180.6070  181.1850  138.4120 C   0  0  0  0  0  2  0  0  0  0  0  0
  179.5890  180.4950  136.4420 C   0  0  0  0  0  1  0  0  0  0  0  0
  179.8960  181.6810  137.2290 N   0  0  0  0  0  0  0  0  0  0  0  0
  180.8140  182.4870  136.4230 C   0  0  0  0  0  2  0  0  0  0  0  0
  180.6620  184.7260  135.2930 C   0  0  0  0  0  1  0  0  0  0  0  0
  181.5910  184.5230  137.5760 C   0  0  0  0  0  1  0  0  0  0  0  0
  179.1850  184.2210  137.2000 C   0  0  0  0  0  1  0  0  0  0  0  0
  180.5610  183.9840  136.6160 C   0  0  0  0  0  0  0  0  0  0  0  0
  182.1950  177.7650  140.0160 N   0  0  0  0  0  2  0  0  0  0  0  0
  182.3910  177.9470  138.6410 N   0  0  0  0  0  2  0  0  0  0  0  0
  183.3070  176.6150  136.7860 C   0  0  0  0  0  2  0  0  0  0  0  0
  185.1350  178.1910  136.8290 C   0  0  2  0  0  3  0  0  0  0  0  0
  183.4910  177.0810  138.2280 C   0  0  1  0  0  3  0  0  0  0  0  0
  184.7890  177.8620  138.2690 C   0  0  0  0  0  2  0  0  0  0  0  0
  184.5030  177.1000  135.9960 C   0  0  0  0  0  2  0  0  0  0  0  0
  186.6410  178.2700  136.5950 C   0  0  0  0  0  3  0  0  0  0  0  0
  186.9510  177.9880  135.2590 O   0  0  0  0  0  1  0  0  0  0  0  0
  187.1600  179.5090  136.9680 O   0  0  0  0  0  1  0  0  0  0  0  0
  1  4  1  0  0  0  0
  2  6  1  0  0  0  0
  3  5  1  0  0  0  0
  3  2  2  0  0  0  0
  5  1  2  0  0  0  0
  6  4  2  0  0  0  0
  7  2  1  0  0  0  0
  8  7  1  0  0  0  0
  9  8  1  0  0  0  0
 10  9  1  0  0  0  0
 11 10  1  0  0  0  0
 12 11  1  0  0  0  0
 13 12  1  0  0  0  0
 14 15  1  1  0  0  0
 14 13  1  0  0  0  0
 17 25  1  6  0  0  0
 17 27  1  0  0  0  0
 17 14  1  0  0  0  0
 18 26  2  0  0  0  0
 20 16  1  6  0  0  0
 20 17  1  0  0  0  0
 20 19  1  0  0  0  0
 21 18  1  0  0  0  0
 22 21  2  0  0  0  0
 23 26  1  0  0  0  0
 23 27  1  0  0  0  0
 24 22  1  1  0  0  0
 24 20  1  0  0  0  0
 24 23  1  0  0  0  0
 27 28  1  6  0  0  0
 29 28  2  0  0  0  0
 30 31  1  0  0  0  0
 30  5  1  0  0  0  0
 32 31  2  0  0  0  0
 33 32  1  1  0  0  0
 35 37  1  6  0  0  0
 35 33  1  0  0  0  0
 35 34  1  0  0  0  0
 36 35  1  0  0  0  0
 36 34  1  0  0  0  0
 38 37  1  0  0  0  0
 39 40  1  0  0  0  0
 40 38  1  0  0  0  0
 41 45  1  0  0  0  0
 41 40  1  0  0  0  0
 42 45  1  0  0  0  0
 45 44  1  0  0  0  0
 45 43  1  0  0  0  0
 46 33  1  0  0  0  0
 47 46  1  0  0  0  0
 48 50  1  0  0  0  0
 49 53  1  1  0  0  0
 49 51  1  0  0  0  0
 50 51  1  0  0  0  0
 50 47  1  6  0  0  0
 52 48  1  0  0  0  0
 52 49  1  0  0  0  0
 53 55  1  0  0  0  0
 54 53  1  0  0  0  0
M  END
>  <MODEL>
8

>  <REMARK>
 VINA RESULT:      -6.0      2.372      8.904
  Name = 
  23 active torsions:
  status: ('A' for Active; 'I' for Inactive)
    1  A    between atoms: C_1  and  C_53
    2  A    between atoms: C_2  and  C_28
    3  A    between atoms: C_2  and  C_44
    4  A    between atoms: C_6  and  C_20
    5  A    between atoms: C_7  and  C_20
    6  A    between atoms: C_7  and  C_22
    7  A    between atoms: C_8  and  C_22
    8  A    between atoms: C_8  and  C_35
    9  A    between atoms: C_10  and  C_32
   10  A    between atoms: C_16  and  C_17
   11  A    between atoms: C_16  and  C_26
   12  A    between atoms: C_17  and  C_33
   13  A    between atoms: C_19  and  C_40
   14  A    between atoms: C_19  and  N_45
   15  A    between atoms: C_26  and  N_45
   16  A    between atoms: C_27  and  O_54
   17  A    between atoms: C_33  and  N_36
   18  A    between atoms: C_33  and  C_49
   19  A    between atoms: C_34  and  N_52
   20  A    between atoms: C_35  and  C_43
   21  A    between atoms: N_36  and  N_52
   22  A    between atoms: C_43  and  C_51
   23  A    between atoms: C_51  and  O_54
                            x       y       z     vdW  Elec       q    Type
                         _______ _______ _______ _____ _____    ______ ____

>  <TORSDO>
F 23

$$$$
=
 OpenBabel11052414593D

 55 59  0  0  1  0  0  0  0  0999 V2000
  183.6420  178.7110  141.0780 C   0  0  0  0  0  3  0  0  0  0  0  0
  183.7240  179.1480  143.8490 C   0  0  0  0  0  0  0  0  0  0  0  0
  182.5500  178.7040  143.2310 C   0  0  0  0  0  3  0  0  0  0  0  0
  184.8190  179.1590  141.6830 C   0  0  0  0  0  3  0  0  0  0  0  0
  182.5050  178.4660  141.8510 C   0  0  0  0  0  0  0  0  0  0  0  0
  184.8610  179.3660  143.0670 C   0  0  0  0  0  3  0  0  0  0  0  0
  183.7740  179.3840  145.2260 O   0  0  0  0  0  0  0  0  0  0  0  0
  184.3770  178.4760  146.1340 C   0  0  0  0  0  2  0  0  0  0  0  0
  185.7310  178.9980  146.5570 C   0  0  0  0  0  2  0  0  0  0  0  0
  186.6110  177.8220  146.9450 C   0  0  0  0  0  2  0  0  0  0  0  0
  187.8790  177.7580  146.1010 C   0  0  0  0  0  2  0  0  0  0  0  0
  187.6220  177.1100  144.7560 C   0  0  0  0  0  2  0  0  0  0  0  0
  187.6660  178.1770  143.6670 C   0  0  0  0  0  2  0  0  0  0  0  0
  188.5350  177.7760  142.4750 C   0  0  1  0  0  3  0  0  0  0  0  0
  188.3350  178.6360  141.3910 O   0  0  0  0  0  1  0  0  0  0  0  0
  190.9280  175.6500  141.5260 O   0  0  0  0  0  1  0  0  0  0  0  0
  190.0270  177.5420  142.7860 C   0  0  1  0  0  0  0  0  0  0  0  0
  192.0570  175.8270  146.6110 C   0  0  0  0  0  3  0  0  0  0  0  0
  189.4740  175.2190  143.2180 F   0  0  0  0  0  0  0  0  0  0  0  0
  190.4880  176.0620  142.7850 C   0  0  1  0  0  0  0  0  0  0  0  0
  192.1000  174.6320  145.7460 C   0  0  0  0  0  3  0  0  0  0  0  0
  191.8880  174.7200  144.4310 C   0  0  0  0  0  3  0  0  0  0  0  0
  191.3590  177.1100  144.7160 N   0  0  0  0  0  0  0  0  0  0  0  0
  191.6520  176.0500  143.7640 C   0  0  2  0  0  3  0  0  0  0  0  0
  190.8030  178.2560  141.8610 O   0  0  0  0  0  1  0  0  0  0  0  0
  191.6810  177.0060  146.1080 C   0  0  0  0  0  3  0  0  0  0  0  0
  190.3440  178.0200  144.2150 C   0  0  1  0  0  3  0  0  0  0  0  0
  190.8000  179.4510  144.3030 C   0  0  0  0  0  3  0  0  0  0  0  0
  191.9850  179.7230  144.2480 O   0  0  0  0  0  0  0  0  0  0  0  0
  181.2520  178.0110  141.1670 C   0  0  0  0  0  2  0  0  0  0  0  0
  181.1870  178.4480  139.7300 C   0  0  0  0  0  3  0  0  0  0  0  0
  181.6570  177.7210  138.7150 C   0  0  0  0  0  3  0  0  0  0  0  0
  182.3070  176.3750  138.8600 C   0  0  2  0  0  3  0  0  0  0  0  0
  183.0310  175.2600  136.8010 O   0  0  0  0  0  0  0  0  0  0  0  0
  183.3850  176.2110  137.7800 C   0  0  2  0  0  0  0  0  0  0  0  0
  184.1010  174.9170  137.6640 C   0  0  0  0  0  2  0  0  0  0  0  0
  184.1110  177.4670  137.2420 C   0  0  0  0  0  2  0  0  0  0  0  0
  185.4170  177.8280  137.9630 C   0  0  0  0  0  2  0  0  0  0  0  0
  186.0660  177.4900  135.7590 C   0  0  0  0  0  1  0  0  0  0  0  0
  186.5680  177.9170  137.0570 N   0  0  0  0  0  0  0  0  0  0  0  0
  187.5710  176.9300  137.4590 C   0  0  0  0  0  2  0  0  0  0  0  0
  188.9600  179.0230  137.5330 C   0  0  0  0  0  1  0  0  0  0  0  0
  189.5860  177.1410  136.0550 C   0  0  0  0  0  1  0  0  0  0  0  0
  189.8540  176.9320  138.4850 C   0  0  0  0  0  1  0  0  0  0  0  0
  188.9850  177.5090  137.3880 C   0  0  0  0  0  0  0  0  0  0  0  0
  181.2940  175.3210  138.7740 N   0  0  0  0  0  2  0  0  0  0  0  0
  180.1610  175.8830  138.1720 N   0  0  0  0  0  2  0  0  0  0  0  0
  179.0580  175.0080  136.1550 C   0  0  0  0  0  2  0  0  0  0  0  0
  180.6230  173.1800  136.3420 C   0  0  2  0  0  3  0  0  0  0  0  0
  179.3530  174.7930  137.6370 C   0  0  1  0  0  3  0  0  0  0  0  0
  180.1280  173.4950  137.7400 C   0  0  0  0  0  2  0  0  0  0  0  0
  179.6350  173.8300  135.4010 C   0  0  0  0  0  2  0  0  0  0  0  0
  180.7340  171.6800  136.0860 C   0  0  0  0  0  3  0  0  0  0  0  0
  179.5090  171.0440  136.3270 O   0  0  0  0  0  1  0  0  0  0  0  0
  181.1840  171.4050  134.7960 O   0  0  0  0  0  1  0  0  0  0  0  0
  1  4  2  0  0  0  0
  1  5  1  0  0  0  0
  2  7  1  0  0  0  0
  3  2  1  0  0  0  0
  4  6  1  0  0  0  0
  5  3  2  0  0  0  0
  6  2  2  0  0  0  0
  7  8  1  0  0  0  0
  8  9  1  0  0  0  0
  9 10  1  0  0  0  0
 11 10  1  0  0  0  0
 12 11  1  0  0  0  0
 13 12  1  0  0  0  0
 14 15  1  6  0  0  0
 14 17  1  0  0  0  0
 14 13  1  0  0  0  0
 17 25  1  6  0  0  0
 17 27  1  0  0  0  0
 20 16  1  6  0  0  0
 20 17  1  0  0  0  0
 20 19  1  0  0  0  0
 20 24  1  0  0  0  0
 21 18  1  0  0  0  0
 22 21  2  0  0  0  0
 23 26  1  0  0  0  0
 24 22  1  1  0  0  0
 24 23  1  0  0  0  0
 26 18  2  0  0  0  0
 27 28  1  6  0  0  0
 27 23  1  0  0  0  0
 29 28  2  0  0  0  0
 30  5  1  0  0  0  0
 31 30  1  0  0  0  0
 32 31  2  0  0  0  0
 33 32  1  6  0  0  0
 34 36  1  0  0  0  0
 34 35  1  0  0  0  0
 35 37  1  6  0  0  0
 35 33  1  0  0  0  0
 36 35  1  0  0  0  0
 37 38  1  0  0  0  0
 39 40  1  0  0  0  0
 40 41  1  0  0  0  0
 40 38  1  0  0  0  0
 43 45  1  0  0  0  0
 45 41  1  0  0  0  0
 45 42  1  0  0  0  0
 45 44  1  0  0  0  0
 46 33  1  0  0  0  0
 47 46  1  0  0  0  0
 48 50  1  0  0  0  0
 49 53  1  6  0  0  0
 49 51  1  0  0  0  0
 50 51  1  0  0  0  0
 50 47  1  6  0  0  0
 52 48  1  0  0  0  0
 52 49  1  0  0  0  0
 53 54  1  0  0  0  0
 55 53  1  0  0  0  0
M  END
>  <MODEL>
9

>  <REMARK>
 VINA RESULT:      -6.0      3.287      9.134
  Name = 
  23 active torsions:
  status: ('A' for Active; 'I' for Inactive)
    1  A    between atoms: C_1  and  C_53
    2  A    between atoms: C_2  and  C_28
    3  A    between atoms: C_2  and  C_44
    4  A    between atoms: C_6  and  C_20
    5  A    between atoms: C_7  and  C_20
    6  A    between atoms: C_7  and  C_22
    7  A    between atoms: C_8  and  C_22
    8  A    between atoms: C_8  and  C_35
    9  A    between atoms: C_10  and  C_32
   10  A    between atoms: C_16  and  C_17
   11  A    between atoms: C_16  and  C_26
   12  A    between atoms: C_17  and  C_33
   13  A    between atoms: C_19  and  C_40
   14  A    between atoms: C_19  and  N_45
   15  A    between atoms: C_26  and  N_45
   16  A    between atoms: C_27  and  O_54
   17  A    between atoms: C_33  and  N_36
   18  A    between atoms: C_33  and  C_49
   19  A    between atoms: C_34  and  N_52
   20  A    between atoms: C_35  and  C_43
   21  A    between atoms: N_36  and  N_52
   22  A    between atoms: C_43  and  C_51
   23  A    between atoms: C_51  and  O_54
                            x       y       z     vdW  Elec       q    Type
                         _______ _______ _______ _____ _____    ______ ____

>  <TORSDO>
F 23

$$$$
