=
 OpenBabel11052413413D

 27 31  0  0  1  0  0  0  0  0999 V2000
  187.4220  178.5180  142.2220 C   0  0  2  0  0  3  0  0  0  0  0  0
  186.9870  177.0360  144.0350 N   0  0  2  0  0  0  0  0  0  0  0  0
  188.7600  177.8110  142.4930 C   0  0  1  0  0  3  0  0  0  0  0  0
  189.9450  177.1150  147.1160 C   0  0  0  0  0  3  0  0  0  0  0  0
  192.2260  176.7570  147.9080 N   0  0  0  0  0  1  0  0  0  0  0  0
  186.8970  178.0010  145.1460 C   0  0  0  0  0  2  0  0  0  0  0  0
  190.7380  176.4970  144.5080 C   0  0  0  0  0  3  0  0  0  0  0  0
  190.8980  176.6920  139.4640 C   0  0  0  0  0  1  0  0  0  0  0  0
  191.6720  176.4740  145.5470 C   0  0  0  0  0  3  0  0  0  0  0  0
  189.4360  178.6630  139.5690 N   0  0  0  0  0  2  0  0  0  0  0  0
  188.4020  176.8480  143.6310 C   0  0  1  0  0  3  0  0  0  0  0  0
  186.3770  177.6050  142.8260 C   0  0  1  0  0  3  0  0  0  0  0  0
  191.2760  176.7850  146.8500 C   0  0  0  0  0  0  0  0  0  0  0  0
  189.0090  177.1500  146.0780 C   0  0  0  0  0  0  0  0  0  0  0  0
  187.1230  179.0030  140.8670 N   0  0  0  0  0  2  0  0  0  0  0  0
  189.4030  176.8370  144.7640 C   0  0  0  0  0  0  0  0  0  0  0  0
  190.1720  177.6740  140.3650 C   0  0  1  0  0  3  0  0  0  0  0  0
  187.5800  177.4500  146.3860 C   0  0  0  0  0  2  0  0  0  0  0  0
  188.2590  178.0830  138.9090 C   0  0  0  0  0  2  0  0  0  0  0  0
  187.0940  177.9250  139.8860 C   0  0  0  0  0  2  0  0  0  0  0  0
  189.2930  176.9250  141.3650 C   0  0  0  0  0  2  0  0  0  0  0  0
  182.4530  179.2570  143.3430 C   0  0  0  0  0  3  0  0  0  0  0  0
  185.0090  178.2120  143.0300 C   0  0  0  0  0  0  0  0  0  0  0  0
  184.0930  178.1230  142.0270 N   0  0  0  0  0  0  0  0  0  0  0  0
  182.8370  178.6290  142.1560 C   0  0  0  0  0  3  0  0  0  0  0  0
  183.3700  179.3530  144.3890 C   0  0  0  0  0  3  0  0  0  0  0  0
  184.6540  178.8280  144.2390 C   0  0  0  0  0  3  0  0  0  0  0  0
  1 15  1  6  0  0  0
  1  3  1  0  0  0  0
  1 12  1  0  0  0  0
  2  6  1  1  0  0  0
  3 21  1  6  0  0  0
  3 11  1  0  0  0  0
  6 18  1  0  0  0  0
  7 16  2  0  0  0  0
  7  9  1  0  0  0  0
  9 13  2  0  0  0  0
 10 17  1  0  0  0  0
 11  2  1  0  0  0  0
 11 16  1  1  0  0  0
 12 23  1  1  0  0  0
 12  2  1  0  0  0  0
 13  4  1  0  0  0  0
 13  5  1  0  0  0  0
 14 18  1  0  0  0  0
 14  4  2  0  0  0  0
 16 14  1  0  0  0  0
 17  8  1  6  0  0  0
 17 21  1  0  0  0  0
 19 10  1  0  0  0  0
 19 20  1  0  0  0  0
 20 15  1  0  0  0  0
 22 26  1  0  0  0  0
 23 27  1  0  0  0  0
 24 25  1  0  0  0  0
 24 23  2  0  0  0  0
 25 22  2  0  0  0  0
 27 26  2  0  0  0  0
M  END
>  <MODEL>
1

>  <REMARK>
 VINA RESULT:     -10.4      0.000      0.000
  Name = 
  1 active torsions:
  status: ('A' for Active; 'I' for Inactive)
    1  A    between atoms: C_9  and  C_15
                            x       y       z     vdW  Elec       q    Type
                         _______ _______ _______ _____ _____    ______ ____

>  <TORSDO>
F 1

$$$$
=
 OpenBabel11052413413D

 27 31  0  0  1  0  0  0  0  0999 V2000
  189.2320  176.7370  142.5470 C   0  0  2  0  0  3  0  0  0  0  0  0
  188.0900  178.3720  143.8470 N   0  0  2  0  0  0  0  0  0  0  0  0
  188.2370  177.3960  141.5780 C   0  0  1  0  0  3  0  0  0  0  0  0
  183.8510  178.3850  143.3220 C   0  0  0  0  0  3  0  0  0  0  0  0
  181.8620  178.6910  141.9400 N   0  0  0  0  0  1  0  0  0  0  0  0
  187.2240  177.5000  144.6620 C   0  0  0  0  0  2  0  0  0  0  0  0
  185.4820  178.7620  141.0840 C   0  0  0  0  0  3  0  0  0  0  0  0
  189.4160  178.1740  137.9720 C   0  0  0  0  0  1  0  0  0  0  0  0
  184.0920  178.8190  140.9540 C   0  0  0  0  0  3  0  0  0  0  0  0
  190.1440  176.2900  139.3710 N   0  0  0  0  0  2  0  0  0  0  0  0
  187.5710  178.4590  142.4600 C   0  0  1  0  0  3  0  0  0  0  0  0
  189.4040  177.7430  143.6640 C   0  0  1  0  0  3  0  0  0  0  0  0
  183.2770  178.6280  142.0720 C   0  0  0  0  0  0  0  0  0  0  0  0
  185.2400  178.3160  143.4560 C   0  0  0  0  0  0  0  0  0  0  0  0
  190.4800  176.1640  142.0210 N   0  0  0  0  0  2  0  0  0  0  0  0
  186.0660  178.5080  142.3320 C   0  0  0  0  0  0  0  0  0  0  0  0
  189.0990  177.3000  139.1720 C   0  0  1  0  0  3  0  0  0  0  0  0
  185.8400  178.1110  144.8070 C   0  0  0  0  0  2  0  0  0  0  0  0
  191.3960  176.8740  139.8700 C   0  0  0  0  0  2  0  0  0  0  0  0
  191.3170  177.1640  141.3690 C   0  0  0  0  0  2  0  0  0  0  0  0
  188.8490  178.1650  140.4060 C   0  0  0  0  0  2  0  0  0  0  0  0
  191.3050  176.2750  147.2170 C   0  0  0  0  0  3  0  0  0  0  0  0
  190.0410  177.2210  144.9300 C   0  0  0  0  0  0  0  0  0  0  0  0
  191.2380  176.5770  144.8480 N   0  0  0  0  0  0  0  0  0  0  0  0
  191.8740  176.1030  145.9530 C   0  0  0  0  0  3  0  0  0  0  0  0
  190.0830  176.9380  147.3290 C   0  0  0  0  0  3  0  0  0  0  0  0
  189.4450  177.4180  146.1840 C   0  0  0  0  0  3  0  0  0  0  0  0
  1 15  1  6  0  0  0
  1 12  1  0  0  0  0
  2  6  1  1  0  0  0
  3 21  1  6  0  0  0
  3 11  1  0  0  0  0
  3  1  1  0  0  0  0
  4 14  1  0  0  0  0
  5 13  1  0  0  0  0
  6 18  1  0  0  0  0
  7 16  1  0  0  0  0
  9  7  2  0  0  0  0
  9 13  1  0  0  0  0
 10 19  1  0  0  0  0
 11 16  1  1  0  0  0
 11  2  1  0  0  0  0
 12  2  1  0  0  0  0
 12 23  1  1  0  0  0
 13  4  2  0  0  0  0
 14 18  1  0  0  0  0
 16 14  2  0  0  0  0
 17  8  1  6  0  0  0
 17 10  1  0  0  0  0
 17 21  1  0  0  0  0
 19 20  1  0  0  0  0
 20 15  1  0  0  0  0
 22 26  1  0  0  0  0
 23 27  1  0  0  0  0
 24 23  2  0  0  0  0
 24 25  1  0  0  0  0
 25 22  2  0  0  0  0
 27 26  2  0  0  0  0
M  END
>  <MODEL>
2

>  <REMARK>
 VINA RESULT:     -10.1      1.556      5.928
  Name = 
  1 active torsions:
  status: ('A' for Active; 'I' for Inactive)
    1  A    between atoms: C_9  and  C_15
                            x       y       z     vdW  Elec       q    Type
                         _______ _______ _______ _____ _____    ______ ____

>  <TORSDO>
F 1

$$$$
=
 OpenBabel11052413413D

 27 31  0  0  1  0  0  0  0  0999 V2000
  185.7660  179.0070  141.9310 C   0  0  2  0  0  3  0  0  0  0  0  0
  184.9790  177.7270  143.7780 N   0  0  2  0  0  0  0  0  0  0  0  0
  187.0310  178.4330  142.5900 C   0  0  1  0  0  3  0  0  0  0  0  0
  187.1270  178.3810  147.4120 C   0  0  0  0  0  3  0  0  0  0  0  0
  189.1720  178.2810  148.7420 N   0  0  0  0  0  1  0  0  0  0  0  0
  184.5920  178.8100  144.7010 C   0  0  0  0  0  2  0  0  0  0  0  0
  188.5330  177.5110  145.1580 C   0  0  0  0  0  3  0  0  0  0  0  0
  189.8620  177.1100  140.3020 C   0  0  0  0  0  1  0  0  0  0  0  0
  189.1980  177.6780  146.3750 C   0  0  0  0  0  3  0  0  0  0  0  0
  188.3380  178.9730  139.8090 N   0  0  0  0  0  2  0  0  0  0  0  0
  186.4550  177.5910  143.7350 C   0  0  1  0  0  3  0  0  0  0  0  0
  184.6460  178.1020  142.3970 C   0  0  1  0  0  3  0  0  0  0  0  0
  188.4950  178.1150  147.5010 C   0  0  0  0  0  0  0  0  0  0  0  0
  186.4590  178.2260  146.1930 C   0  0  0  0  0  0  0  0  0  0  0  0
  185.7740  179.3040  140.4910 N   0  0  0  0  0  2  0  0  0  0  0  0
  187.1630  177.7860  145.0570 C   0  0  0  0  0  0  0  0  0  0  0  0
  188.9070  178.1400  140.8760 C   0  0  1  0  0  3  0  0  0  0  0  0
  184.9870  178.4600  146.1260 C   0  0  0  0  0  2  0  0  0  0  0  0
  187.3730  178.2370  138.9820 C   0  0  0  0  0  2  0  0  0  0  0  0
  186.0190  178.1160  139.6810 C   0  0  0  0  0  2  0  0  0  0  0  0
  187.8480  177.4570  141.7400 C   0  0  0  0  0  2  0  0  0  0  0  0
  180.6590  179.5470  141.7620 C   0  0  0  0  0  3  0  0  0  0  0  0
  183.2460  178.6330  142.2030 C   0  0  0  0  0  0  0  0  0  0  0  0
  182.7360  178.7000  140.9420 N   0  0  0  0  0  0  0  0  0  0  0  0
  181.4740  179.1470  140.7020 C   0  0  0  0  0  3  0  0  0  0  0  0
  181.1540  179.4790  143.0640 C   0  0  0  0  0  3  0  0  0  0  0  0
  182.4510  179.0180  143.2920 C   0  0  0  0  0  3  0  0  0  0  0  0
  1 15  1  6  0  0  0
  1 12  1  0  0  0  0
  1  3  1  0  0  0  0
  2  6  1  1  0  0  0
  3 21  1  6  0  0  0
  3 11  1  0  0  0  0
  4 13  1  0  0  0  0
  6 18  1  0  0  0  0
  7  9  1  0  0  0  0
  9 13  2  0  0  0  0
 10 17  1  0  0  0  0
 11  2  1  0  0  0  0
 11 16  1  1  0  0  0
 12 23  1  1  0  0  0
 12  2  1  0  0  0  0
 13  5  1  0  0  0  0
 14  4  2  0  0  0  0
 16  7  2  0  0  0  0
 16 14  1  0  0  0  0
 17  8  1  6  0  0  0
 17 21  1  0  0  0  0
 18 14  1  0  0  0  0
 19 20  1  0  0  0  0
 19 10  1  0  0  0  0
 20 15  1  0  0  0  0
 22 26  1  0  0  0  0
 23 27  1  0  0  0  0
 24 23  2  0  0  0  0
 25 24  1  0  0  0  0
 25 22  2  0  0  0  0
 26 27  2  0  0  0  0
M  END
>  <MODEL>
3

>  <REMARK>
 VINA RESULT:      -9.6      1.525      2.234
  Name = 
  1 active torsions:
  status: ('A' for Active; 'I' for Inactive)
    1  A    between atoms: C_9  and  C_15
                            x       y       z     vdW  Elec       q    Type
                         _______ _______ _______ _____ _____    ______ ____

>  <TORSDO>
F 1

$$$$
=
 OpenBabel11052413413D

 27 31  0  0  1  0  0  0  0  0999 V2000
  190.2280  177.6840  143.3560 C   0  0  2  0  0  3  0  0  0  0  0  0
  188.4280  176.9190  141.9970 N   0  0  2  0  0  0  0  0  0  0  0  0
  188.9950  177.7050  144.2740 C   0  0  1  0  0  3  0  0  0  0  0  0
  184.8670  179.2550  142.3200 C   0  0  0  0  0  3  0  0  0  0  0  0
  182.9840  180.1280  143.6060 N   0  0  0  0  0  1  0  0  0  0  0  0
  188.2210  178.1040  141.1450 C   0  0  0  0  0  2  0  0  0  0  0  0
  185.9260  178.0930  144.6310 C   0  0  0  0  0  3  0  0  0  0  0  0
  189.3990  176.4900  147.9290 C   0  0  0  0  0  1  0  0  0  0  0  0
  184.7310  178.8150  144.6960 C   0  0  0  0  0  3  0  0  0  0  0  0
  191.1020  177.6280  146.5730 N   0  0  0  0  0  2  0  0  0  0  0  0
  187.8910  177.1640  143.3580 C   0  0  1  0  0  3  0  0  0  0  0  0
  189.8630  176.7240  142.2450 C   0  0  1  0  0  3  0  0  0  0  0  0
  184.2030  179.3980  143.5410 C   0  0  0  0  0  0  0  0  0  0  0  0
  186.0690  178.5440  142.2530 C   0  0  0  0  0  0  0  0  0  0  0  0
  191.5620  177.4870  143.9420 N   0  0  0  0  0  2  0  0  0  0  0  0
  186.6040  177.9550  143.4130 C   0  0  0  0  0  0  0  0  0  0  0  0
  189.6660  177.3660  146.7190 C   0  0  1  0  0  3  0  0  0  0  0  0
  186.7370  178.3530  140.9330 C   0  0  0  0  0  2  0  0  0  0  0  0
  191.8440  176.4390  146.1320 C   0  0  0  0  0  2  0  0  0  0  0  0
  191.6810  176.2060  144.6300 C   0  0  0  0  0  2  0  0  0  0  0  0
  189.0320  176.7530  145.4710 C   0  0  0  0  0  2  0  0  0  0  0  0
  192.2520  176.8800  138.6860 C   0  0  0  0  0  3  0  0  0  0  0  0
  190.7340  176.7790  141.0130 C   0  0  0  0  0  0  0  0  0  0  0  0
  190.2980  176.1820  139.8690 N   0  0  0  0  0  0  0  0  0  0  0  0
  191.0240  176.2160  138.7200 C   0  0  0  0  0  3  0  0  0  0  0  0
  192.7180  177.5080  139.8420 C   0  0  0  0  0  3  0  0  0  0  0  0
  191.9590  177.4630  141.0120 C   0  0  0  0  0  3  0  0  0  0  0  0
  1 15  1  1  0  0  0
  1  3  1  0  0  0  0
  2  6  1  6  0  0  0
  2 12  1  0  0  0  0
  2 11  1  0  0  0  0
  3 21  1  1  0  0  0
  4 13  1  0  0  0  0
  7  9  1  0  0  0  0
 10 17  1  0  0  0  0
 11 16  1  6  0  0  0
 11  3  1  0  0  0  0
 12 23  1  6  0  0  0
 12  1  1  0  0  0  0
 13  5  1  0  0  0  0
 13  9  2  0  0  0  0
 14  4  2  0  0  0  0
 14 16  1  0  0  0  0
 15 20  1  0  0  0  0
 16  7  2  0  0  0  0
 17  8  1  1  0  0  0
 18  6  1  0  0  0  0
 18 14  1  0  0  0  0
 19 10  1  0  0  0  0
 20 19  1  0  0  0  0
 21 17  1  0  0  0  0
 22 25  2  0  0  0  0
 22 26  1  0  0  0  0
 24 23  2  0  0  0  0
 25 24  1  0  0  0  0
 26 27  2  0  0  0  0
 27 23  1  0  0  0  0
M  END
>  <MODEL>
4

>  <REMARK>
 VINA RESULT:      -9.6      1.638      6.766
  Name = 
  1 active torsions:
  status: ('A' for Active; 'I' for Inactive)
    1  A    between atoms: C_9  and  C_15
                            x       y       z     vdW  Elec       q    Type
                         _______ _______ _______ _____ _____    ______ ____

>  <TORSDO>
F 1

$$$$
=
 OpenBabel11052413413D

 27 31  0  0  1  0  0  0  0  0999 V2000
  187.6230  177.4750  142.3840 C   0  0  2  0  0  3  0  0  0  0  0  0
  189.8950  178.1430  142.6320 N   0  0  2  0  0  0  0  0  0  0  0  0
  187.8280  177.6470  143.8980 C   0  0  1  0  0  3  0  0  0  0  0  0
  192.0090  176.0680  145.7090 C   0  0  0  0  0  3  0  0  0  0  0  0
  192.3540  175.4830  148.0550 N   0  0  0  0  0  1  0  0  0  0  0  0
  190.5750  176.8640  142.3530 C   0  0  0  0  0  2  0  0  0  0  0  0
  189.6920  177.4770  146.3870 C   0  0  0  0  0  3  0  0  0  0  0  0
  185.0130  179.3290  145.9590 C   0  0  0  0  0  1  0  0  0  0  0  0
  190.4370  176.8370  147.3810 C   0  0  0  0  0  3  0  0  0  0  0  0
  184.7210  177.9250  143.9640 N   0  0  0  0  0  2  0  0  0  0  0  0
  189.2850  178.1160  143.9840 C   0  0  1  0  0  3  0  0  0  0  0  0
  188.7280  178.2920  141.7520 C   0  0  1  0  0  3  0  0  0  0  0  0
  191.5940  176.1310  147.0420 C   0  0  0  0  0  0  0  0  0  0  0  0
  191.2620  176.6970  144.7100 C   0  0  0  0  0  0  0  0  0  0  0  0
  186.2850  177.6790  141.8090 N   0  0  0  0  0  2  0  0  0  0  0  0
  190.0960  177.4100  145.0470 C   0  0  0  0  0  0  0  0  0  0  0  0
  185.6360  178.2820  145.0540 C   0  0  1  0  0  3  0  0  0  0  0  0
  191.7480  176.6690  143.3000 C   0  0  0  0  0  2  0  0  0  0  0  0
  184.5900  179.0000  142.9720 C   0  0  0  0  0  2  0  0  0  0  0  0
  185.7900  179.0330  142.0250 C   0  0  0  0  0  2  0  0  0  0  0  0
  187.0060  178.7510  144.5670 C   0  0  0  0  0  2  0  0  0  0  0  0
  189.5130  177.6210  137.5890 C   0  0  0  0  0  3  0  0  0  0  0  0
  188.9960  178.0210  140.2910 C   0  0  0  0  0  0  0  0  0  0  0  0
  188.7870  179.0180  139.3860 N   0  0  0  0  0  0  0  0  0  0  0  0
  189.0300  178.8440  138.0590 C   0  0  0  0  0  3  0  0  0  0  0  0
  189.7430  176.5870  138.4960 C   0  0  0  0  0  3  0  0  0  0  0  0
  189.4880  176.7820  139.8540 C   0  0  0  0  0  3  0  0  0  0  0  0
  1 15  1  6  0  0  0
  1  3  1  0  0  0  0
  2  6  1  6  0  0  0
  2 11  1  0  0  0  0
  3 11  1  0  0  0  0
  3 21  1  6  0  0  0
  4 13  1  0  0  0  0
  6 18  1  0  0  0  0
  7  9  1  0  0  0  0
 10 17  1  0  0  0  0
 11 16  1  1  0  0  0
 12 23  1  6  0  0  0
 12  1  1  0  0  0  0
 12  2  1  0  0  0  0
 13  9  2  0  0  0  0
 13  5  1  0  0  0  0
 14 16  1  0  0  0  0
 14  4  2  0  0  0  0
 15 20  1  0  0  0  0
 16  7  2  0  0  0  0
 17  8  1  6  0  0  0
 18 14  1  0  0  0  0
 19 10  1  0  0  0  0
 20 19  1  0  0  0  0
 21 17  1  0  0  0  0
 22 25  2  0  0  0  0
 22 26  1  0  0  0  0
 24 23  2  0  0  0  0
 25 24  1  0  0  0  0
 26 27  2  0  0  0  0
 27 23  1  0  0  0  0
M  END
>  <MODEL>
5

>  <REMARK>
 VINA RESULT:      -9.3      1.431      4.932
  Name = 
  1 active torsions:
  status: ('A' for Active; 'I' for Inactive)
    1  A    between atoms: C_9  and  C_15
                            x       y       z     vdW  Elec       q    Type
                         _______ _______ _______ _____ _____    ______ ____

>  <TORSDO>
F 1

$$$$
=
 OpenBabel11052413413D

 27 31  0  0  1  0  0  0  0  0999 V2000
  188.0970  177.1310  143.0000 C   0  0  2  0  0  3  0  0  0  0  0  0
  186.5980  178.8240  143.7480 N   0  0  2  0  0  0  0  0  0  0  0  0
  187.4290  177.6690  141.7240 C   0  0  1  0  0  3  0  0  0  0  0  0
  182.7110  178.6290  141.9890 C   0  0  0  0  0  3  0  0  0  0  0  0
  181.2230  178.7420  140.0560 N   0  0  0  0  0  1  0  0  0  0  0  0
  185.5390  177.9890  144.3440 C   0  0  0  0  0  2  0  0  0  0  0  0
  184.9330  178.8820  140.3120 C   0  0  0  0  0  3  0  0  0  0  0  0
  189.6250  178.1900  138.5760 C   0  0  0  0  0  1  0  0  0  0  0  0
  183.6450  178.8740  139.7700 C   0  0  0  0  0  3  0  0  0  0  0  0
  189.9230  176.4590  140.2920 N   0  0  0  0  0  2  0  0  0  0  0  0
  186.5180  178.7750  142.2680 C   0  0  1  0  0  3  0  0  0  0  0  0
  187.9150  178.2330  144.0220 C   0  0  1  0  0  3  0  0  0  0  0  0
  182.5340  178.7450  140.6080 C   0  0  0  0  0  0  0  0  0  0  0  0
  183.9970  178.6250  142.5350 C   0  0  0  0  0  0  0  0  0  0  0  0
  189.4520  176.5650  142.9230 N   0  0  0  0  0  2  0  0  0  0  0  0
  185.1190  178.7550  141.6950 C   0  0  0  0  0  0  0  0  0  0  0  0
  188.9730  177.4070  139.7010 C   0  0  1  0  0  3  0  0  0  0  0  0
  184.1680  178.5570  144.0160 C   0  0  0  0  0  2  0  0  0  0  0  0
  190.9610  177.1300  141.0850 C   0  0  0  0  0  2  0  0  0  0  0  0
  190.4340  177.5400  142.4610 C   0  0  0  0  0  2  0  0  0  0  0  0
  188.3550  178.3620  140.7210 C   0  0  0  0  0  2  0  0  0  0  0  0
  188.6840  177.1270  148.0930 C   0  0  0  0  0  3  0  0  0  0  0  0
  188.1500  177.8420  145.4610 C   0  0  0  0  0  0  0  0  0  0  0  0
  189.2590  177.1180  145.7750 N   0  0  0  0  0  0  0  0  0  0  0  0
  189.5390  176.7540  147.0550 C   0  0  0  0  0  3  0  0  0  0  0  0
  187.5450  177.8780  147.8000 C   0  0  0  0  0  3  0  0  0  0  0  0
  187.2730  178.2420  146.4810 C   0  0  0  0  0  3  0  0  0  0  0  0
  1 15  1  6  0  0  0
  1 12  1  0  0  0  0
  2 12  1  0  0  0  0
  2  6  1  1  0  0  0
  3 21  1  6  0  0  0
  3 11  1  0  0  0  0
  3  1  1  0  0  0  0
  4 14  1  0  0  0  0
  5 13  1  0  0  0  0
  7 16  1  0  0  0  0
  9  7  2  0  0  0  0
  9 13  1  0  0  0  0
 10 19  1  0  0  0  0
 11 16  1  1  0  0  0
 11  2  1  0  0  0  0
 12 23  1  1  0  0  0
 13  4  2  0  0  0  0
 14 18  1  0  0  0  0
 16 14  2  0  0  0  0
 17  8  1  6  0  0  0
 17 10  1  0  0  0  0
 17 21  1  0  0  0  0
 18  6  1  0  0  0  0
 19 20  1  0  0  0  0
 20 15  1  0  0  0  0
 23 24  2  0  0  0  0
 23 27  1  0  0  0  0
 24 25  1  0  0  0  0
 25 22  2  0  0  0  0
 26 22  1  0  0  0  0
 27 26  2  0  0  0  0
M  END
>  <MODEL>
6

>  <REMARK>
 VINA RESULT:      -8.7      1.769      5.973
  Name = 
  1 active torsions:
  status: ('A' for Active; 'I' for Inactive)
    1  A    between atoms: C_9  and  C_15
                            x       y       z     vdW  Elec       q    Type
                         _______ _______ _______ _____ _____    ______ ____

>  <TORSDO>
F 1

$$$$
=
 OpenBabel11052413413D

 27 31  0  0  1  0  0  0  0  0999 V2000
  186.9290  177.4860  142.8430 C   0  0  2  0  0  3  0  0  0  0  0  0
  186.4010  179.0730  141.1490 N   0  0  2  0  0  0  0  0  0  0  0  0
  188.1870  177.5670  141.9630 C   0  0  1  0  0  3  0  0  0  0  0  0
  187.4810  177.8520  137.2010 C   0  0  0  0  0  3  0  0  0  0  0  0
  189.1490  177.2350  135.5280 N   0  0  0  0  0  1  0  0  0  0  0  0
  185.4750  178.2760  140.3230 C   0  0  0  0  0  2  0  0  0  0  0  0
  189.4730  177.9860  139.1580 C   0  0  0  0  0  3  0  0  0  0  0  0
  191.6510  177.5680  143.6950 C   0  0  0  0  0  1  0  0  0  0  0  0
  189.8060  177.6450  137.8440 C   0  0  0  0  0  3  0  0  0  0  0  0
  189.6310  176.4080  144.4740 N   0  0  0  0  0  2  0  0  0  0  0  0
  187.7990  178.6290  140.9280 C   0  0  1  0  0  3  0  0  0  0  0  0
  186.1870  178.7770  142.5710 C   0  0  1  0  0  3  0  0  0  0  0  0
  188.8090  177.5770  136.8660 C   0  0  0  0  0  0  0  0  0  0  0  0
  187.1420  178.1820  138.5160 C   0  0  0  0  0  0  0  0  0  0  0  0
  187.0630  177.1270  144.2630 N   0  0  0  0  0  2  0  0  0  0  0  0
  188.1420  178.2530  139.5040 C   0  0  0  0  0  0  0  0  0  0  0  0
  190.2890  177.0180  143.3140 C   0  0  1  0  0  3  0  0  0  0  0  0
  185.7290  178.5280  138.8460 C   0  0  0  0  0  2  0  0  0  0  0  0
  189.1810  177.4100  145.4500 C   0  0  0  0  0  2  0  0  0  0  0  0
  187.8830  178.0810  145.0010 C   0  0  0  0  0  2  0  0  0  0  0  0
  189.4490  178.1030  142.6420 C   0  0  0  0  0  2  0  0  0  0  0  0
  182.0690  178.8180  143.7660 C   0  0  0  0  0  3  0  0  0  0  0  0
  184.7450  178.8150  143.0180 C   0  0  0  0  0  0  0  0  0  0  0  0
  183.7630  178.6280  142.0940 N   0  0  0  0  0  0  0  0  0  0  0  0
  182.4470  178.6280  142.4360 C   0  0  0  0  0  3  0  0  0  0  0  0
  183.0550  179.0030  144.7350 C   0  0  0  0  0  3  0  0  0  0  0  0
  184.4010  179.0000  144.3660 C   0  0  0  0  0  3  0  0  0  0  0  0
  1 15  1  1  0  0  0
  2  6  1  6  0  0  0
  2 12  1  0  0  0  0
  3 21  1  1  0  0  0
  3  1  1  0  0  0  0
  4 14  1  0  0  0  0
  5 13  1  0  0  0  0
  7 16  1  0  0  0  0
  9  7  2  0  0  0  0
 10 19  1  0  0  0  0
 11 16  1  6  0  0  0
 11  2  1  0  0  0  0
 11  3  1  0  0  0  0
 12  1  1  0  0  0  0
 12 23  1  6  0  0  0
 13  4  2  0  0  0  0
 13  9  1  0  0  0  0
 14 18  1  0  0  0  0
 14 16  2  0  0  0  0
 15 20  1  0  0  0  0
 17  8  1  1  0  0  0
 17 10  1  0  0  0  0
 18  6  1  0  0  0  0
 20 19  1  0  0  0  0
 21 17  1  0  0  0  0
 22 26  1  0  0  0  0
 23 27  1  0  0  0  0
 24 25  1  0  0  0  0
 24 23  2  0  0  0  0
 25 22  2  0  0  0  0
 27 26  2  0  0  0  0
M  END
>  <MODEL>
7

>  <REMARK>
 VINA RESULT:      -8.6      1.609      5.534
  Name = 
  1 active torsions:
  status: ('A' for Active; 'I' for Inactive)
    1  A    between atoms: C_9  and  C_15
                            x       y       z     vdW  Elec       q    Type
                         _______ _______ _______ _____ _____    ______ ____

>  <TORSDO>
F 1

$$$$
=
 OpenBabel11052413413D

 27 31  0  0  1  0  0  0  0  0999 V2000
  183.5890  177.9640  141.1470 C   0  0  2  0  0  3  0  0  0  0  0  0
  185.6250  179.0620  141.7140 N   0  0  2  0  0  0  0  0  0  0  0  0
  183.4280  178.3720  142.6200 C   0  0  1  0  0  3  0  0  0  0  0  0
  187.2970  177.8400  145.4500 C   0  0  0  0  0  3  0  0  0  0  0  0
  187.2020  177.6470  147.8820 N   0  0  0  0  0  1  0  0  0  0  0  0
  186.5330  177.9040  141.7940 C   0  0  0  0  0  2  0  0  0  0  0  0
  184.7030  178.8800  145.4160 C   0  0  0  0  0  3  0  0  0  0  0  0
  180.0080  179.7730  143.7800 C   0  0  0  0  0  1  0  0  0  0  0  0
  185.2980  178.5260  146.6290 C   0  0  0  0  0  3  0  0  0  0  0  0
  180.3770  178.0850  142.0340 N   0  0  0  0  0  2  0  0  0  0  0  0
  184.7430  179.1060  142.9060 C   0  0  1  0  0  3  0  0  0  0  0  0
  184.6710  178.8770  140.6120 C   0  0  1  0  0  3  0  0  0  0  0  0
  186.5940  178.0040  146.6460 C   0  0  0  0  0  0  0  0  0  0  0  0
  186.7020  178.1820  144.2320 C   0  0  0  0  0  0  0  0  0  0  0  0
  182.3960  177.8410  140.2960 N   0  0  0  0  0  2  0  0  0  0  0  0
  185.3970  178.7090  144.2110 C   0  0  0  0  0  0  0  0  0  0  0  0
  180.9660  178.7450  143.2050 C   0  0  1  0  0  3  0  0  0  0  0  0
  187.4850  178.0540  142.9690 C   0  0  0  0  0  2  0  0  0  0  0  0
  180.3070  178.9750  140.8680 C   0  0  0  0  0  2  0  0  0  0  0  0
  181.6670  179.0990  140.1800 C   0  0  0  0  0  2  0  0  0  0  0  0
  182.3230  179.3870  142.9200 C   0  0  0  0  0  2  0  0  0  0  0  0
  186.5190  177.6860  136.9300 C   0  0  0  0  0  3  0  0  0  0  0  0
  185.2910  178.4660  139.2980 C   0  0  0  0  0  0  0  0  0  0  0  0
  186.6320  178.6230  139.1240 N   0  0  0  0  0  0  0  0  0  0  0  0
  187.2550  178.2510  137.9730 C   0  0  0  0  0  3  0  0  0  0  0  0
  185.1450  177.5060  137.0860 C   0  0  0  0  0  3  0  0  0  0  0  0
  184.5230  177.8930  138.2740 C   0  0  0  0  0  3  0  0  0  0  0  0
  1 15  1  6  0  0  0
  1  3  1  0  0  0  0
  2  6  1  1  0  0  0
  2 11  1  0  0  0  0
  3 11  1  0  0  0  0
  3 21  1  6  0  0  0
  4 13  1  0  0  0  0
  6 18  1  0  0  0  0
  7  9  1  0  0  0  0
  9 13  2  0  0  0  0
 10 17  1  0  0  0  0
 11 16  1  1  0  0  0
 12 23  1  6  0  0  0
 12  1  1  0  0  0  0
 12  2  1  0  0  0  0
 13  5  1  0  0  0  0
 14  4  2  0  0  0  0
 16 14  1  0  0  0  0
 16  7  2  0  0  0  0
 17  8  1  6  0  0  0
 18 14  1  0  0  0  0
 19 10  1  0  0  0  0
 20 15  1  0  0  0  0
 20 19  1  0  0  0  0
 21 17  1  0  0  0  0
 22 26  2  0  0  0  0
 22 25  1  0  0  0  0
 24 23  1  0  0  0  0
 25 24  2  0  0  0  0
 26 27  1  0  0  0  0
 27 23  2  0  0  0  0
M  END
>  <MODEL>
8

>  <REMARK>
 VINA RESULT:      -8.5      2.614      6.142
  Name = 
  1 active torsions:
  status: ('A' for Active; 'I' for Inactive)
    1  A    between atoms: C_9  and  C_15
                            x       y       z     vdW  Elec       q    Type
                         _______ _______ _______ _____ _____    ______ ____

>  <TORSDO>
F 1

$$$$
=
 OpenBabel11052413413D

 27 31  0  0  1  0  0  0  0  0999 V2000
  185.1430  179.0240  140.0060 C   0  0  2  0  0  3  0  0  0  0  0  0
  183.7750  177.8760  141.5810 N   0  0  2  0  0  0  0  0  0  0  0  0
  186.0930  178.6240  141.1460 C   0  0  1  0  0  3  0  0  0  0  0  0
  184.3920  179.0630  145.6370 C   0  0  0  0  0  3  0  0  0  0  0  0
  185.7980  179.2640  147.6230 N   0  0  0  0  0  1  0  0  0  0  0  0
  183.0320  179.0110  142.1580 C   0  0  0  0  0  2  0  0  0  0  0  0
  186.5670  178.0890  144.1770 C   0  0  0  0  0  3  0  0  0  0  0  0
  189.6210  177.3130  140.2300 C   0  0  0  0  0  1  0  0  0  0  0  0
  186.7250  178.4310  145.5230 C   0  0  0  0  0  3  0  0  0  0  0  0
  188.3190  178.9870  138.9900 N   0  0  0  0  0  2  0  0  0  0  0  0
  185.1660  177.8570  142.0960 C   0  0  1  0  0  3  0  0  0  0  0  0
  183.9660  178.0830  140.1390 C   0  0  1  0  0  3  0  0  0  0  0  0
  185.6380  178.9200  146.2520 C   0  0  0  0  0  0  0  0  0  0  0  0
  184.2320  178.7340  144.2890 C   0  0  0  0  0  0  0  0  0  0  0  0
  185.6740  179.1750  138.6430 N   0  0  0  0  0  2  0  0  0  0  0  0
  185.3240  178.2400  143.5510 C   0  0  0  0  0  0  0  0  0  0  0  0
  188.4820  178.3150  140.2840 C   0  0  1  0  0  3  0  0  0  0  0  0
  182.8820  178.8390  143.6610 C   0  0  0  0  0  2  0  0  0  0  0  0
  187.7590  178.0960  137.9650 C   0  0  0  0  0  2  0  0  0  0  0  0
  186.2480  177.9360  138.1320 C   0  0  0  0  0  2  0  0  0  0  0  0
  187.2050  177.6380  140.7800 C   0  0  0  0  0  2  0  0  0  0  0  0
  180.3680  179.1410  138.0580 C   0  0  0  0  0  3  0  0  0  0  0  0
  182.7190  178.4750  139.3830 C   0  0  0  0  0  0  0  0  0  0  0  0
  181.6720  177.6060  139.3410 N   0  0  0  0  0  0  0  0  0  0  0  0
  180.5130  177.9090  138.6970 C   0  0  0  0  0  3  0  0  0  0  0  0
  181.4230  180.0540  138.0930 C   0  0  0  0  0  3  0  0  0  0  0  0
  182.6040  179.7270  138.7600 C   0  0  0  0  0  3  0  0  0  0  0  0
  1 15  1  6  0  0  0
  1 12  1  0  0  0  0
  1  3  1  0  0  0  0
  2 11  1  0  0  0  0
  2  6  1  1  0  0  0
  3 21  1  6  0  0  0
  3 11  1  0  0  0  0
  4 13  1  0  0  0  0
  6 18  1  0  0  0  0
  7  9  1  0  0  0  0
  9 13  2  0  0  0  0
 10 17  1  0  0  0  0
 11 16  1  1  0  0  0
 12 23  1  1  0  0  0
 12  2  1  0  0  0  0
 13  5  1  0  0  0  0
 14  4  2  0  0  0  0
 16  7  2  0  0  0  0
 16 14  1  0  0  0  0
 17  8  1  6  0  0  0
 17 21  1  0  0  0  0
 18 14  1  0  0  0  0
 19 20  1  0  0  0  0
 19 10  1  0  0  0  0
 20 15  1  0  0  0  0
 22 26  2  0  0  0  0
 22 25  1  0  0  0  0
 24 23  1  0  0  0  0
 25 24  2  0  0  0  0
 26 27  1  0  0  0  0
 27 23  2  0  0  0  0
M  END
>  <MODEL>
9

>  <REMARK>
 VINA RESULT:      -8.4      2.749      4.407
  Name = 
  1 active torsions:
  status: ('A' for Active; 'I' for Inactive)
    1  A    between atoms: C_9  and  C_15
                            x       y       z     vdW  Elec       q    Type
                         _______ _______ _______ _____ _____    ______ ____

>  <TORSDO>
F 1

$$$$
