=
 OpenBabel11052415123D

 55 59  0  0  1  0  0  0  0  0999 V2000
  189.0340  177.5980  136.1190 C   0  0  0  0  0  2  0  0  0  0  0  0
  186.2700  176.9460  136.2910 C   0  0  0  0  0  0  0  0  0  0  0  0
  186.6610  178.2120  137.0050 C   0  0  2  0  0  3  0  0  0  0  0  0
  188.6520  176.2070  136.6030 C   0  0  0  0  0  2  0  0  0  0  0  0
  188.1090  178.6680  136.7280 C   0  0  0  0  0  2  0  0  0  0  0  0
  185.0370  176.7960  135.9240 N   0  0  0  0  0  0  0  0  0  0  0  0
  187.2760  175.8480  136.0510 C   0  0  0  0  0  2  0  0  0  0  0  0
  184.6120  175.6530  135.2890 O   0  0  0  0  0  0  0  0  0  0  0  0
  184.2020  174.5260  136.0430 C   0  0  0  0  0  2  0  0  0  0  0  0
  182.7210  174.5270  136.1580 C   0  0  0  0  0  0  0  0  0  0  0  0
  182.0380  173.8130  135.3750 O   0  0  0  0  0  0  0  0  0  0  0  0
  182.1070  175.3320  137.1190 O   0  0  0  0  0  0  0  0  0  0  0  0
  181.2810  177.2830  135.3000 O   0  0  0  0  0  0  0  0  0  0  0  0
  180.8720  176.4630  136.7240 P   0  0  1  0  0  0  0  0  0  0  0  0
  179.5730  175.7200  136.5040 O   0  0  0  0  0  1  0  0  0  0  0  0
  181.4460  179.9870  140.2210 C   0  0  0  0  0  2  0  0  0  0  0  0
  180.6820  177.6560  138.0930 C   0  0  1  0  0  0  0  0  0  0  0  0
  180.1550  181.0410  138.2580 C   0  0  0  0  0  2  0  0  0  0  0  0
  182.9010  178.6120  137.8230 O   0  0  0  0  0  1  0  0  0  0  0  0
  181.5340  178.9080  137.7910 C   0  0  2  0  0  3  0  0  0  0  0  0
  181.0230  177.5530  140.5940 C   0  0  0  0  0  3  0  0  0  0  0  0
  181.6240  181.4320  138.1410 C   0  0  0  0  0  2  0  0  0  0  0  0
  180.5120  178.9480  140.8300 C   0  0  1  0  0  3  0  0  0  0  0  0
  181.2360  180.0880  138.7170 C   0  0  0  0  0  0  0  0  0  0  0  0
  179.3330  178.0120  138.1730 O   0  0  0  0  0  1  0  0  0  0  0  0
  181.0980  176.9850  139.3800 C   0  0  0  0  0  3  0  0  0  0  0  0
  180.3420  179.2040  142.2910 C   0  0  0  0  0  0  0  0  0  0  0  0
  180.0360  180.5130  142.7670 N   0  0  0  0  0  1  0  0  0  0  0  0
  180.4460  178.2510  143.1100 O   0  0  0  0  0  0  0  0  0  0  0  0
  186.4380  178.0420  138.4990 C   0  0  0  0  0  2  0  0  0  0  0  0
  187.6000  178.5320  139.2400 N   0  0  0  0  0  2  0  0  0  0  0  0
  187.5350  178.1060  140.6430 C   0  0  1  0  0  3  0  0  0  0  0  0
  188.9270  177.9710  141.2830 C   0  0  1  0  0  3  0  0  0  0  0  0
  187.8000  176.9180  143.2440 C   0  0  0  0  0  3  0  0  0  0  0  0
  188.6050  177.1840  145.5110 C   0  0  0  0  0  3  0  0  0  0  0  0
  189.7740  178.2560  143.6790 C   0  0  0  0  0  0  0  0  0  0  0  0
  189.6500  177.9840  145.0450 C   0  0  0  0  0  3  0  0  0  0  0  0
  187.6790  176.6540  144.6130 C   0  0  0  0  0  3  0  0  0  0  0  0
  188.8440  177.7160  142.7660 C   0  0  0  0  0  0  0  0  0  0  0  0
  190.8200  179.0610  143.2400 O   0  0  0  0  0  1  0  0  0  0  0  0
  189.7500  176.8860  140.5860 C   0  0  0  0  0  2  0  0  0  0  0  0
  191.0880  177.4310  140.1070 C   0  0  0  0  0  2  0  0  0  0  0  0
  191.2670  177.1360  138.7260 O   0  0  0  0  0  0  0  0  0  0  0  0
  192.3200  176.3380  138.2740 C   0  0  0  0  0  0  0  0  0  0  0  0
  192.0240  175.0120  137.6690 C   0  0  0  0  0  1  0  0  0  0  0  0
  193.5160  176.7250  138.3760 O   0  0  0  0  0  0  0  0  0  0  0  0
  186.6090  179.0110  141.4620 C   0  0  0  0  0  2  0  0  0  0  0  0
  185.1870  178.4710  141.4730 C   0  0  0  0  0  2  0  0  0  0  0  0
  184.3340  179.2460  142.4710 C   0  0  0  0  0  2  0  0  0  0  0  0
  184.1270  178.4250  143.7380 C   0  0  0  0  0  2  0  0  0  0  0  0
  185.4280  178.8140  146.5280 C   0  0  0  0  0  0  0  0  0  0  0  0
  186.1910  178.5140  147.5250 N   0  0  0  0  0  2  0  0  0  0  0  0
  185.5820  179.6170  145.2850 C   0  0  0  0  0  2  0  0  0  0  0  0
  184.2180  179.3030  144.9830 C   0  0  2  0  0  3  0  0  0  0  0  0
  184.0660  178.5090  146.1490 O   0  0  0  0  0  0  0  0  0  0  0  0
  1  4  1  0  0  0  0
  1  5  1  0  0  0  0
  2  3  1  0  0  0  0
  3 30  1  1  0  0  0
  5  3  1  0  0  0  0
  6  2  2  0  0  0  0
  7  2  1  0  0  0  0
  7  4  1  0  0  0  0
  8  6  1  0  0  0  0
  8  9  1  0  0  0  0
  9 10  1  0  0  0  0
 10 12  1  0  0  0  0
 11 10  2  0  0  0  0
 14 13  2  6  0  0  0
 14 12  1  0  0  0  0
 14 17  1  0  0  0  0
 15 14  1  0  0  0  0
 16 23  1  0  0  0  0
 17 25  1  1  0  0  0
 17 26  1  0  0  0  0
 18 24  1  0  0  0  0
 20 19  1  1  0  0  0
 20 17  1  0  0  0  0
 20 24  1  0  0  0  0
 21 23  1  0  0  0  0
 22 18  1  0  0  0  0
 22 24  1  0  0  0  0
 23 27  1  1  0  0  0
 24 16  1  0  0  0  0
 26 21  2  0  0  0  0
 27 28  1  0  0  0  0
 27 29  2  0  0  0  0
 30 31  1  0  0  0  0
 31 32  1  0  0  0  0
 32 33  1  0  0  0  0
 32 47  1  1  0  0  0
 33 41  1  6  0  0  0
 33 39  1  0  0  0  0
 34 38  1  0  0  0  0
 36 37  2  0  0  0  0
 37 35  1  0  0  0  0
 38 35  2  0  0  0  0
 39 34  2  0  0  0  0
 39 36  1  0  0  0  0
 40 36  1  0  0  0  0
 42 41  1  0  0  0  0
 43 42  1  0  0  0  0
 44 46  2  0  0  0  0
 44 43  1  0  0  0  0
 45 44  1  0  0  0  0
 47 48  1  0  0  0  0
 48 49  1  0  0  0  0
 49 50  1  0  0  0  0
 51 52  2  0  0  0  0
 53 51  1  0  0  0  0
 54 50  1  6  0  0  0
 54 53  1  0  0  0  0
 54 55  1  0  0  0  0
 55 51  1  0  0  0  0
M  END
>  <MODEL>
1

>  <REMARK>
 VINA RESULT:      -7.0      0.000      0.000
  Name = 
  21 active torsions:
  status: ('A' for Active; 'I' for Inactive)
    1  A    between atoms: C_1  and  C_29
    2  A    between atoms: C_2  and  N_28
    3  A    between atoms: C_2  and  C_31
    4  A    between atoms: C_4  and  O_40
    5  A    between atoms: C_6  and  P_20
    6  A    between atoms: C_8  and  O_22
    7  A    between atoms: C_8  and  C_35
    8  A    between atoms: C_13  and  C_48
    9  A    between atoms: C_13  and  C_52
   10  A    between atoms: C_19  and  O_40
   11  A    between atoms: C_19  and  C_45
   12  A    between atoms: P_20  and  O_22
   13  A    between atoms: C_26  and  C_49
   14  A    between atoms: N_28  and  C_33
   15  A    between atoms: C_33  and  C_34
   16  A    between atoms: C_33  and  C_49
   17  A    between atoms: C_34  and  C_52
   18  A    between atoms: C_35  and  O_51
   19  A    between atoms: C_39  and  C_48
   20  A    between atoms: C_45  and  C_49
   21  A    between atoms: O_51  and  N_54
                            x       y       z     vdW  Elec       q    Type
                         _______ _______ _______ _____ _____    ______ ____

>  <TORSDO>
F 21

$$$$
=
 OpenBabel11052415123D

 55 59  0  0  1  0  0  0  0  0999 V2000
  185.8470  178.0780  145.2970 C   0  0  0  0  0  2  0  0  0  0  0  0
  184.4980  178.4180  142.8150 C   0  0  0  0  0  0  0  0  0  0  0  0
  185.8960  177.8730  142.6990 C   0  0  2  0  0  3  0  0  0  0  0  0
  185.2320  179.4360  144.9930 C   0  0  0  0  0  2  0  0  0  0  0  0
  186.5360  177.4920  144.0500 C   0  0  0  0  0  2  0  0  0  0  0  0
  183.6620  178.1950  141.8510 N   0  0  0  0  0  0  0  0  0  0  0  0
  184.0870  179.2540  144.0020 C   0  0  0  0  0  2  0  0  0  0  0  0
  182.3780  178.6850  141.8870 O   0  0  0  0  0  0  0  0  0  0  0  0
  181.6210  178.7970  140.6940 C   0  0  0  0  0  2  0  0  0  0  0  0
  180.9420  177.5030  140.4240 C   0  0  0  0  0  0  0  0  0  0  0  0
  179.8480  177.2470  140.9950 O   0  0  0  0  0  0  0  0  0  0  0  0
  181.5350  176.5840  139.5550 O   0  0  0  0  0  0  0  0  0  0  0  0
  179.5870  176.4590  137.5590 O   0  0  0  0  0  1  0  0  0  0  0  0
  181.2470  176.6000  137.8590 P   0  0  1  0  0  0  0  0  0  0  0  0
  181.7380  177.9110  137.2860 O   0  0  0  0  0  0  0  0  0  0  0  0
  183.0060  172.1520  136.4080 C   0  0  0  0  0  2  0  0  0  0  0  0
  182.1370  175.2080  137.0810 C   0  0  1  0  0  0  0  0  0  0  0  0
  181.3730  172.9740  134.5940 C   0  0  0  0  0  2  0  0  0  0  0  0
  180.8340  173.4930  138.2090 O   0  0  0  0  0  1  0  0  0  0  0  0
  181.1770  174.0060  136.9530 C   0  0  2  0  0  3  0  0  0  0  0  0
  184.2630  173.9490  137.6060 C   0  0  0  0  0  3  0  0  0  0  0  0
  180.6430  171.9840  135.4940 C   0  0  0  0  0  2  0  0  0  0  0  0
  184.1970  173.1030  136.3640 C   0  0  1  0  0  3  0  0  0  0  0  0
  181.7160  172.8840  136.0640 C   0  0  0  0  0  0  0  0  0  0  0  0
  182.5530  175.6160  135.8110 O   0  0  0  0  0  1  0  0  0  0  0  0
  183.3480  174.8790  137.9210 C   0  0  0  0  0  3  0  0  0  0  0  0
  185.4630  172.3310  136.1860 C   0  0  0  0  0  0  0  0  0  0  0  0
  185.7250  171.6380  134.9680 N   0  0  0  0  0  1  0  0  0  0  0  0
  186.3190  172.3120  137.1120 O   0  0  0  0  0  0  0  0  0  0  0  0
  186.7720  178.8740  141.9630 C   0  0  0  0  0  2  0  0  0  0  0  0
  187.2430  178.2980  140.7040 N   0  0  0  0  0  2  0  0  0  0  0  0
  188.5120  177.5880  140.9050 C   0  0  1  0  0  3  0  0  0  0  0  0
  189.0810  177.0170  139.5940 C   0  0  1  0  0  3  0  0  0  0  0  0
  187.3440  176.3490  137.9310 C   0  0  0  0  0  3  0  0  0  0  0  0
  186.5350  177.8500  136.2140 C   0  0  0  0  0  3  0  0  0  0  0  0
  188.2280  178.6010  137.7760 C   0  0  0  0  0  0  0  0  0  0  0  0
  187.3910  178.8470  136.6830 C   0  0  0  0  0  3  0  0  0  0  0  0
  186.5130  176.6010  136.8350 C   0  0  0  0  0  3  0  0  0  0  0  0
  188.2050  177.3410  138.4110 C   0  0  0  0  0  0  0  0  0  0  0  0
  189.0770  179.6080  138.2210 O   0  0  0  0  0  1  0  0  0  0  0  0
  190.5150  177.4950  139.3630 C   0  0  0  0  0  2  0  0  0  0  0  0
  191.4260  176.3400  138.9740 C   0  0  0  0  0  2  0  0  0  0  0  0
  190.6710  175.3210  138.3280 O   0  0  0  0  0  0  0  0  0  0  0  0
  191.1940  174.5770  137.2680 C   0  0  0  0  0  0  0  0  0  0  0  0
  190.4150  173.4310  136.7260 C   0  0  0  0  0  1  0  0  0  0  0  0
  192.3160  174.8610  136.7680 O   0  0  0  0  0  0  0  0  0  0  0  0
  189.5320  178.4580  141.6460 C   0  0  0  0  0  2  0  0  0  0  0  0
  190.1860  177.6850  142.7810 C   0  0  0  0  0  2  0  0  0  0  0  0
  190.5710  178.6310  143.9120 C   0  0  0  0  0  2  0  0  0  0  0  0
  189.8270  178.2590  145.1890 C   0  0  0  0  0  2  0  0  0  0  0  0
  191.5520  176.5870  147.1530 C   0  0  0  0  0  0  0  0  0  0  0  0
  192.4090  176.3950  148.0990 N   0  0  0  0  0  2  0  0  0  0  0  0
  190.0740  176.7480  147.0830 C   0  0  0  0  0  2  0  0  0  0  0  0
  190.2130  176.8600  145.6620 C   0  0  2  0  0  3  0  0  0  0  0  0
  191.6250  176.7390  145.7160 O   0  0  0  0  0  0  0  0  0  0  0  0
  2  7  1  0  0  0  0
  3 30  1  1  0  0  0
  3  2  1  0  0  0  0
  3  5  1  0  0  0  0
  4  1  1  0  0  0  0
  5  1  1  0  0  0  0
  6  8  1  0  0  0  0
  6  2  2  0  0  0  0
  7  4  1  0  0  0  0
  9  8  1  0  0  0  0
 10  9  1  0  0  0  0
 10 11  2  0  0  0  0
 12 10  1  0  0  0  0
 13 14  1  0  0  0  0
 14 15  2  6  0  0  0
 14 12  1  0  0  0  0
 17 25  1  6  0  0  0
 17 14  1  0  0  0  0
 17 26  1  0  0  0  0
 18 22  1  0  0  0  0
 18 24  1  0  0  0  0
 20 17  1  0  0  0  0
 20 19  1  1  0  0  0
 21 26  2  0  0  0  0
 22 24  1  0  0  0  0
 23 27  1  1  0  0  0
 23 16  1  0  0  0  0
 23 21  1  0  0  0  0
 24 16  1  0  0  0  0
 24 20  1  0  0  0  0
 27 29  2  0  0  0  0
 28 27  1  0  0  0  0
 31 32  1  0  0  0  0
 31 30  1  0  0  0  0
 32 47  1  6  0  0  0
 33 41  1  6  0  0  0
 33 32  1  0  0  0  0
 34 39  1  0  0  0  0
 35 37  2  0  0  0  0
 35 38  1  0  0  0  0
 36 40  1  0  0  0  0
 36 39  2  0  0  0  0
 37 36  1  0  0  0  0
 38 34  2  0  0  0  0
 39 33  1  0  0  0  0
 42 41  1  0  0  0  0
 43 42  1  0  0  0  0
 44 43  1  0  0  0  0
 45 44  1  0  0  0  0
 46 44  2  0  0  0  0
 47 48  1  0  0  0  0
 48 49  1  0  0  0  0
 49 50  1  0  0  0  0
 51 52  2  0  0  0  0
 53 51  1  0  0  0  0
 54 50  1  1  0  0  0
 54 55  1  0  0  0  0
 54 53  1  0  0  0  0
 55 51  1  0  0  0  0
M  END
>  <MODEL>
2

>  <REMARK>
 VINA RESULT:      -6.6      2.241      6.446
  Name = 
  21 active torsions:
  status: ('A' for Active; 'I' for Inactive)
    1  A    between atoms: C_1  and  C_29
    2  A    between atoms: C_2  and  N_28
    3  A    between atoms: C_2  and  C_31
    4  A    between atoms: C_4  and  O_40
    5  A    between atoms: C_6  and  P_20
    6  A    between atoms: C_8  and  O_22
    7  A    between atoms: C_8  and  C_35
    8  A    between atoms: C_13  and  C_48
    9  A    between atoms: C_13  and  C_52
   10  A    between atoms: C_19  and  O_40
   11  A    between atoms: C_19  and  C_45
   12  A    between atoms: P_20  and  O_22
   13  A    between atoms: C_26  and  C_49
   14  A    between atoms: N_28  and  C_33
   15  A    between atoms: C_33  and  C_34
   16  A    between atoms: C_33  and  C_49
   17  A    between atoms: C_34  and  C_52
   18  A    between atoms: C_35  and  O_51
   19  A    between atoms: C_39  and  C_48
   20  A    between atoms: C_45  and  C_49
   21  A    between atoms: O_51  and  N_54
                            x       y       z     vdW  Elec       q    Type
                         _______ _______ _______ _____ _____    ______ ____

>  <TORSDO>
F 21

$$$$
=
 OpenBabel11052415123D

 55 59  0  0  1  0  0  0  0  0999 V2000
  183.2340  179.1900  143.1500 C   0  0  0  0  0  2  0  0  0  0  0  0
  184.6060  178.5320  140.7460 C   0  0  0  0  0  0  0  0  0  0  0  0
  183.1160  178.3210  140.6960 C   0  0  2  0  0  3  0  0  0  0  0  0
  184.4160  178.2350  143.2350 C   0  0  0  0  0  2  0  0  0  0  0  0
  182.3610  178.8790  141.9200 C   0  0  0  0  0  2  0  0  0  0  0  0
  185.2470  178.7010  139.6330 N   0  0  0  0  0  0  0  0  0  0  0  0
  185.3510  178.4950  142.0570 C   0  0  0  0  0  2  0  0  0  0  0  0
  186.6100  178.8750  139.6110 O   0  0  0  0  0  0  0  0  0  0  0  0
  187.4450  177.9090  138.9970 C   0  0  0  0  0  2  0  0  0  0  0  0
  188.8520  178.3860  139.0320 C   0  0  0  0  0  0  0  0  0  0  0  0
  189.4350  178.6770  137.9530 O   0  0  0  0  0  0  0  0  0  0  0  0
  189.5120  178.4870  140.2580 O   0  0  0  0  0  0  0  0  0  0  0  0
  190.3670  175.8460  139.9550 O   0  0  0  0  0  0  0  0  0  0  0  0
  190.6030  177.2810  140.8210 P   0  0  1  0  0  0  0  0  0  0  0  0
  192.0220  177.7570  140.6020 O   0  0  0  0  0  1  0  0  0  0  0  0
  189.6310  177.6080  145.7130 C   0  0  0  0  0  2  0  0  0  0  0  0
  190.3140  176.9860  142.6000 C   0  0  1  0  0  0  0  0  0  0  0  0
  187.5080  176.7250  144.5540 C   0  0  0  0  0  2  0  0  0  0  0  0
  189.7160  179.2920  143.0830 O   0  0  0  0  0  1  0  0  0  0  0  0
  189.2430  177.9750  143.1060 C   0  0  2  0  0  3  0  0  0  0  0  0
  191.7880  176.9300  144.6500 C   0  0  0  0  0  3  0  0  0  0  0  0
  187.3460  178.2220  144.7920 C   0  0  0  0  0  2  0  0  0  0  0  0
  190.6770  176.5080  145.5710 C   0  0  1  0  0  3  0  0  0  0  0  0
  188.7110  177.6400  144.5000 C   0  0  0  0  0  0  0  0  0  0  0  0
  189.8530  175.6750  142.7510 O   0  0  0  0  0  1  0  0  0  0  0  0
  191.6240  177.1410  143.3350 C   0  0  0  0  0  3  0  0  0  0  0  0
  191.2180  176.1390  146.9130 C   0  0  0  0  0  0  0  0  0  0  0  0
  192.5880  176.3720  147.2320 N   0  0  0  0  0  1  0  0  0  0  0  0
  190.4510  175.6380  147.7800 O   0  0  0  0  0  0  0  0  0  0  0  0
  182.8180  176.8410  140.5210 C   0  0  0  0  0  2  0  0  0  0  0  0
  182.4330  176.5670  139.1360 N   0  0  0  0  0  2  0  0  0  0  0  0
  181.3620  177.4760  138.7100 C   0  0  1  0  0  3  0  0  0  0  0  0
  181.6110  178.0620  137.3090 C   0  0  1  0  0  3  0  0  0  0  0  0
  181.8030  180.3300  138.3310 C   0  0  0  0  0  3  0  0  0  0  0  0
  180.9170  182.3180  137.2730 C   0  0  0  0  0  3  0  0  0  0  0  0
  180.6710  180.1620  136.1940 C   0  0  0  0  0  0  0  0  0  0  0  0
  180.4600  181.5450  136.2040 C   0  0  0  0  0  3  0  0  0  0  0  0
  181.5860  181.7120  138.3370 C   0  0  0  0  0  3  0  0  0  0  0  0
  181.3520  179.5460  137.2640 C   0  0  0  0  0  0  0  0  0  0  0  0
  180.2010  179.4120  135.1210 O   0  0  0  0  0  1  0  0  0  0  0  0
  183.0240  177.7370  136.8200 C   0  0  0  0  0  2  0  0  0  0  0  0
  183.0140  177.2830  135.3670 C   0  0  0  0  0  2  0  0  0  0  0  0
  184.0440  176.3260  135.1500 O   0  0  0  0  0  0  0  0  0  0  0  0
  185.3960  176.6690  135.2300 C   0  0  0  0  0  0  0  0  0  0  0  0
  186.3070  175.8530  136.0770 C   0  0  0  0  0  1  0  0  0  0  0  0
  185.8520  177.6590  134.5970 O   0  0  0  0  0  0  0  0  0  0  0  0
  179.9850  176.8140  138.8220 C   0  0  0  0  0  2  0  0  0  0  0  0
  180.1090  175.2990  138.8650 C   0  0  0  0  0  2  0  0  0  0  0  0
  179.3480  174.6720  137.7030 C   0  0  0  0  0  2  0  0  0  0  0  0
  180.1460  174.8100  136.4120 C   0  0  0  0  0  2  0  0  0  0  0  0
  182.7090  173.0700  136.5910 C   0  0  0  0  0  0  0  0  0  0  0  0
  183.9210  172.7890  136.9340 N   0  0  0  0  0  2  0  0  0  0  0  0
  181.3640  172.8490  137.1880 C   0  0  0  0  0  2  0  0  0  0  0  0
  180.8100  173.4900  136.0330 C   0  0  2  0  0  3  0  0  0  0  0  0
  182.0880  173.7360  135.4670 O   0  0  0  0  0  0  0  0  0  0  0  0
  1  4  1  0  0  0  0
  2  7  1  0  0  0  0
  3 30  1  1  0  0  0
  3  2  1  0  0  0  0
  3  5  1  0  0  0  0
  5  1  1  0  0  0  0
  6  2  2  0  0  0  0
  7  4  1  0  0  0  0
  8  6  1  0  0  0  0
  9 10  1  0  0  0  0
  9  8  1  0  0  0  0
 10 12  1  0  0  0  0
 11 10  2  0  0  0  0
 12 14  1  0  0  0  0
 14 13  2  6  0  0  0
 14 17  1  0  0  0  0
 15 14  1  0  0  0  0
 17 25  1  1  0  0  0
 17 20  1  0  0  0  0
 17 26  1  0  0  0  0
 18 22  1  0  0  0  0
 20 19  1  1  0  0  0
 20 24  1  0  0  0  0
 21 23  1  0  0  0  0
 23 16  1  0  0  0  0
 23 27  1  1  0  0  0
 24 18  1  0  0  0  0
 24 22  1  0  0  0  0
 24 16  1  0  0  0  0
 26 21  2  0  0  0  0
 27 28  1  0  0  0  0
 27 29  2  0  0  0  0
 31 30  1  0  0  0  0
 32 47  1  6  0  0  0
 32 31  1  0  0  0  0
 33 41  1  1  0  0  0
 33 32  1  0  0  0  0
 34 38  1  0  0  0  0
 35 38  2  0  0  0  0
 36 37  2  0  0  0  0
 36 39  1  0  0  0  0
 37 35  1  0  0  0  0
 39 33  1  0  0  0  0
 39 34  2  0  0  0  0
 40 36  1  0  0  0  0
 42 41  1  0  0  0  0
 43 44  1  0  0  0  0
 43 42  1  0  0  0  0
 44 45  1  0  0  0  0
 46 44  2  0  0  0  0
 47 48  1  0  0  0  0
 49 48  1  0  0  0  0
 50 49  1  0  0  0  0
 51 52  2  0  0  0  0
 51 53  1  0  0  0  0
 54 50  1  1  0  0  0
 54 53  1  0  0  0  0
 55 54  1  0  0  0  0
 55 51  1  0  0  0  0
M  END
>  <MODEL>
3

>  <REMARK>
 VINA RESULT:      -6.1      3.050      9.601
  Name = 
  21 active torsions:
  status: ('A' for Active; 'I' for Inactive)
    1  A    between atoms: C_1  and  C_29
    2  A    between atoms: C_2  and  N_28
    3  A    between atoms: C_2  and  C_31
    4  A    between atoms: C_4  and  O_40
    5  A    between atoms: C_6  and  P_20
    6  A    between atoms: C_8  and  O_22
    7  A    between atoms: C_8  and  C_35
    8  A    between atoms: C_13  and  C_48
    9  A    between atoms: C_13  and  C_52
   10  A    between atoms: C_19  and  O_40
   11  A    between atoms: C_19  and  C_45
   12  A    between atoms: P_20  and  O_22
   13  A    between atoms: C_26  and  C_49
   14  A    between atoms: N_28  and  C_33
   15  A    between atoms: C_33  and  C_34
   16  A    between atoms: C_33  and  C_49
   17  A    between atoms: C_34  and  C_52
   18  A    between atoms: C_35  and  O_51
   19  A    between atoms: C_39  and  C_48
   20  A    between atoms: C_45  and  C_49
   21  A    between atoms: O_51  and  N_54
                            x       y       z     vdW  Elec       q    Type
                         _______ _______ _______ _____ _____    ______ ____

>  <TORSDO>
F 21

$$$$
=
 OpenBabel11052415123D

 55 59  0  0  1  0  0  0  0  0999 V2000
  182.8680  179.3170  143.2550 C   0  0  0  0  0  2  0  0  0  0  0  0
  184.2990  178.5490  140.9180 C   0  0  0  0  0  0  0  0  0  0  0  0
  182.8060  178.3900  140.8190 C   0  0  2  0  0  3  0  0  0  0  0  0
  184.0110  178.3240  143.4050 C   0  0  0  0  0  2  0  0  0  0  0  0
  182.0280  179.0060  142.0010 C   0  0  0  0  0  2  0  0  0  0  0  0
  184.9850  178.6670  139.8260 N   0  0  0  0  0  0  0  0  0  0  0  0
  184.9950  178.5200  142.2560 C   0  0  0  0  0  2  0  0  0  0  0  0
  186.3540  178.7920  139.8490 O   0  0  0  0  0  0  0  0  0  0  0  0
  187.1630  177.9490  139.0460 C   0  0  0  0  0  2  0  0  0  0  0  0
  188.4540  178.6310  138.7700 C   0  0  0  0  0  0  0  0  0  0  0  0
  188.7070  179.0280  137.6000 O   0  0  0  0  0  0  0  0  0  0  0  0
  189.3740  178.8060  139.8060 O   0  0  0  0  0  0  0  0  0  0  0  0
  189.5620  176.0250  139.9530 O   0  0  0  0  0  0  0  0  0  0  0  0
  190.1170  177.4810  140.6130 P   0  0  1  0  0  0  0  0  0  0  0  0
  191.6160  177.5640  140.4240 O   0  0  0  0  0  1  0  0  0  0  0  0
  189.3290  176.5680  145.4640 C   0  0  0  0  0  2  0  0  0  0  0  0
  189.7100  177.5500  142.3920 C   0  0  1  0  0  0  0  0  0  0  0  0
  191.5670  177.8250  145.2610 C   0  0  0  0  0  2  0  0  0  0  0  0
  190.4360  175.2750  142.8440 O   0  0  0  0  0  1  0  0  0  0  0  0
  190.6670  176.6170  143.1640 C   0  0  2  0  0  3  0  0  0  0  0  0
  187.6140  177.1580  143.7460 C   0  0  0  0  0  3  0  0  0  0  0  0
  191.8570  176.3350  145.4010 C   0  0  0  0  0  2  0  0  0  0  0  0
  188.2500  177.5600  145.0480 C   0  0  1  0  0  3  0  0  0  0  0  0
  190.6130  176.8060  144.6810 C   0  0  0  0  0  0  0  0  0  0  0  0
  189.8850  178.8670  142.8250 O   0  0  0  0  0  1  0  0  0  0  0  0
  188.2630  177.1540  142.5720 C   0  0  0  0  0  3  0  0  0  0  0  0
  187.2190  177.6760  146.1220 C   0  0  0  0  0  0  0  0  0  0  0  0
  187.5140  178.3550  147.3410 N   0  0  0  0  0  1  0  0  0  0  0  0
  186.0690  177.1900  145.9410 O   0  0  0  0  0  0  0  0  0  0  0  0
  182.4610  176.9170  140.6700 C   0  0  0  0  0  2  0  0  0  0  0  0
  182.3590  176.5670  139.2540 N   0  0  0  0  0  2  0  0  0  0  0  0
  181.2560  177.2990  138.6190 C   0  0  1  0  0  3  0  0  0  0  0  0
  181.6750  177.9640  137.2960 C   0  0  1  0  0  3  0  0  0  0  0  0
  181.8880  180.2520  138.2680 C   0  0  0  0  0  3  0  0  0  0  0  0
  180.7830  182.1840  137.3160 C   0  0  0  0  0  3  0  0  0  0  0  0
  180.5030  180.0040  136.2940 C   0  0  0  0  0  0  0  0  0  0  0  0
  180.2310  181.3760  136.3200 C   0  0  0  0  0  3  0  0  0  0  0  0
  181.6080  181.6230  138.2910 C   0  0  0  0  0  3  0  0  0  0  0  0
  181.3420  179.4340  137.2740 C   0  0  0  0  0  0  0  0  0  0  0  0
  179.9370  179.2190  135.2950 O   0  0  0  0  0  1  0  0  0  0  0  0
  183.1590  177.7330  137.0110 C   0  0  0  0  0  2  0  0  0  0  0  0
  183.3600  176.5920  136.0220 C   0  0  0  0  0  2  0  0  0  0  0  0
  184.3850  175.7220  136.4870 O   0  0  0  0  0  0  0  0  0  0  0  0
  185.4210  175.2940  135.6530 C   0  0  0  0  0  0  0  0  0  0  0  0
  186.6570  176.1150  135.5440 C   0  0  0  0  0  1  0  0  0  0  0  0
  185.3220  174.2250  134.9910 O   0  0  0  0  0  0  0  0  0  0  0  0
  180.0160  176.4150  138.4540 C   0  0  0  0  0  2  0  0  0  0  0  0
  180.2350  175.0450  139.0750 C   0  0  0  0  0  2  0  0  0  0  0  0
  179.2090  174.0520  138.5430 C   0  0  0  0  0  2  0  0  0  0  0  0
  179.2150  174.0510  137.0190 C   0  0  0  0  0  2  0  0  0  0  0  0
  180.7280  171.5380  136.0100 C   0  0  0  0  0  0  0  0  0  0  0  0
  181.7620  170.8270  135.7070 N   0  0  0  0  0  2  0  0  0  0  0  0
  179.8940  171.7230  137.2280 C   0  0  0  0  0  2  0  0  0  0  0  0
  179.0910  172.6330  136.4690 C   0  0  2  0  0  3  0  0  0  0  0  0
  179.8960  172.4910  135.3100 O   0  0  0  0  0  0  0  0  0  0  0  0
  1  4  1  0  0  0  0
  2  7  1  0  0  0  0
  3 30  1  1  0  0  0
  3  2  1  0  0  0  0
  3  5  1  0  0  0  0
  5  1  1  0  0  0  0
  6  8  1  0  0  0  0
  6  2  2  0  0  0  0
  7  4  1  0  0  0  0
  9  8  1  0  0  0  0
 10  9  1  0  0  0  0
 10 12  1  0  0  0  0
 11 10  2  0  0  0  0
 12 14  1  0  0  0  0
 14 13  2  6  0  0  0
 14 17  1  0  0  0  0
 15 14  1  0  0  0  0
 17 26  1  0  0  0  0
 17 25  1  1  0  0  0
 17 20  1  0  0  0  0
 18 22  1  0  0  0  0
 20 19  1  1  0  0  0
 20 24  1  0  0  0  0
 21 23  1  0  0  0  0
 23 16  1  0  0  0  0
 23 27  1  1  0  0  0
 24 18  1  0  0  0  0
 24 22  1  0  0  0  0
 24 16  1  0  0  0  0
 26 21  2  0  0  0  0
 27 28  1  0  0  0  0
 29 27  2  0  0  0  0
 31 30  1  0  0  0  0
 32 47  1  6  0  0  0
 32 31  1  0  0  0  0
 33 41  1  1  0  0  0
 33 32  1  0  0  0  0
 34 38  1  0  0  0  0
 35 38  2  0  0  0  0
 36 37  2  0  0  0  0
 36 39  1  0  0  0  0
 37 35  1  0  0  0  0
 39 33  1  0  0  0  0
 39 34  2  0  0  0  0
 40 36  1  0  0  0  0
 42 43  1  0  0  0  0
 42 41  1  0  0  0  0
 44 43  1  0  0  0  0
 45 44  1  0  0  0  0
 46 44  2  0  0  0  0
 47 48  1  0  0  0  0
 49 48  1  0  0  0  0
 50 49  1  0  0  0  0
 51 53  1  0  0  0  0
 52 51  2  0  0  0  0
 54 50  1  1  0  0  0
 54 53  1  0  0  0  0
 55 51  1  0  0  0  0
 55 54  1  0  0  0  0
M  END
>  <MODEL>
4

>  <REMARK>
 VINA RESULT:      -6.0      2.750      9.533
  Name = 
  21 active torsions:
  status: ('A' for Active; 'I' for Inactive)
    1  A    between atoms: C_1  and  C_29
    2  A    between atoms: C_2  and  N_28
    3  A    between atoms: C_2  and  C_31
    4  A    between atoms: C_4  and  O_40
    5  A    between atoms: C_6  and  P_20
    6  A    between atoms: C_8  and  O_22
    7  A    between atoms: C_8  and  C_35
    8  A    between atoms: C_13  and  C_48
    9  A    between atoms: C_13  and  C_52
   10  A    between atoms: C_19  and  O_40
   11  A    between atoms: C_19  and  C_45
   12  A    between atoms: P_20  and  O_22
   13  A    between atoms: C_26  and  C_49
   14  A    between atoms: N_28  and  C_33
   15  A    between atoms: C_33  and  C_34
   16  A    between atoms: C_33  and  C_49
   17  A    between atoms: C_34  and  C_52
   18  A    between atoms: C_35  and  O_51
   19  A    between atoms: C_39  and  C_48
   20  A    between atoms: C_45  and  C_49
   21  A    between atoms: O_51  and  N_54
                            x       y       z     vdW  Elec       q    Type
                         _______ _______ _______ _____ _____    ______ ____

>  <TORSDO>
F 21

$$$$
=
 OpenBabel11052415123D

 55 59  0  0  1  0  0  0  0  0999 V2000
  191.3500  176.3800  144.6350 C   0  0  0  0  0  2  0  0  0  0  0  0
  188.7630  177.3420  143.9450 C   0  0  0  0  0  0  0  0  0  0  0  0
  189.3780  176.4150  142.9310 C   0  0  2  0  0  3  0  0  0  0  0  0
  191.1120  177.8820  144.6590 C   0  0  0  0  0  2  0  0  0  0  0  0
  190.6770  175.7340  143.4090 C   0  0  0  0  0  2  0  0  0  0  0  0
  187.4750  177.4720  143.9680 N   0  0  0  0  0  0  0  0  0  0  0  0
  189.6260  178.1470  144.8850 C   0  0  0  0  0  2  0  0  0  0  0  0
  186.8540  178.3200  144.8550 O   0  0  0  0  0  0  0  0  0  0  0  0
  185.5850  177.9900  145.3910 C   0  0  0  0  0  2  0  0  0  0  0  0
  184.5240  178.5470  144.5120 C   0  0  0  0  0  0  0  0  0  0  0  0
  183.9060  179.5860  144.8690 O   0  0  0  0  0  0  0  0  0  0  0  0
  184.2160  177.9010  143.3130 O   0  0  0  0  0  0  0  0  0  0  0  0
  185.4800  180.0080  141.9870 O   0  0  0  0  0  1  0  0  0  0  0  0
  184.6590  178.5420  141.7790 P   0  0  1  0  0  0  0  0  0  0  0  0
  185.5760  177.5630  141.0790 O   0  0  0  0  0  0  0  0  0  0  0  0
  180.8700  178.3000  138.5280 C   0  0  0  0  0  2  0  0  0  0  0  0
  183.1550  178.8110  140.7780 C   0  0  1  0  0  0  0  0  0  0  0  0
  179.9950  177.4800  140.8070 C   0  0  0  0  0  2  0  0  0  0  0  0
  183.3790  176.7340  139.5340 O   0  0  0  0  0  1  0  0  0  0  0  0
  182.5460  177.4410  140.4080 C   0  0  2  0  0  3  0  0  0  0  0  0
  182.6510  180.0490  138.6350 C   0  0  0  0  0  3  0  0  0  0  0  0
  180.3310  176.2650  139.9490 C   0  0  0  0  0  2  0  0  0  0  0  0
  181.1720  179.7840  138.7030 C   0  0  1  0  0  3  0  0  0  0  0  0
  181.1380  177.5380  139.8190 C   0  0  0  0  0  0  0  0  0  0  0  0
  182.2460  179.5370  141.5510 O   0  0  0  0  0  1  0  0  0  0  0  0
  183.5270  179.6160  139.5550 C   0  0  0  0  0  3  0  0  0  0  0  0
  180.4480  180.5790  137.6670 C   0  0  0  0  0  0  0  0  0  0  0  0
  180.8610  181.9070  137.3510 N   0  0  0  0  0  1  0  0  0  0  0  0
  179.4760  180.0640  137.0490 O   0  0  0  0  0  0  0  0  0  0  0  0
  189.6230  177.1710  141.6360 C   0  0  0  0  0  2  0  0  0  0  0  0
  190.4640  176.3750  140.7420 N   0  0  0  0  0  2  0  0  0  0  0  0
  190.3670  176.8730  139.3640 C   0  0  1  0  0  3  0  0  0  0  0  0
  191.2000  176.0380  138.3770 C   0  0  1  0  0  3  0  0  0  0  0  0
  190.5770  176.8340  136.0950 C   0  0  0  0  0  3  0  0  0  0  0  0
  189.1840  175.5430  134.5960 C   0  0  0  0  0  3  0  0  0  0  0  0
  189.7230  174.6760  136.7940 C   0  0  0  0  0  0  0  0  0  0  0  0
  189.0810  174.5380  135.5590 C   0  0  0  0  0  3  0  0  0  0  0  0
  189.9290  176.6920  134.8640 C   0  0  0  0  0  3  0  0  0  0  0  0
  190.4830  175.8330  137.0670 C   0  0  0  0  0  0  0  0  0  0  0  0
  189.6010  173.6640  137.7400 O   0  0  0  0  0  1  0  0  0  0  0  0
  192.5790  176.6610  138.1550 C   0  0  0  0  0  2  0  0  0  0  0  0
  193.6870  175.6360  138.3570 C   0  0  0  0  0  2  0  0  0  0  0  0
  193.5490  174.5800  137.4140 O   0  0  0  0  0  0  0  0  0  0  0  0
  193.8970  174.7420  136.0710 C   0  0  0  0  0  0  0  0  0  0  0  0
  193.0550  174.1140  135.0180 C   0  0  0  0  0  1  0  0  0  0  0  0
  194.9150  175.4080  135.7410 O   0  0  0  0  0  0  0  0  0  0  0  0
  188.9090  177.0110  138.9160 C   0  0  0  0  0  2  0  0  0  0  0  0
  188.5750  178.4550  138.5760 C   0  0  0  0  0  2  0  0  0  0  0  0
  187.6730  178.5150  137.3500 C   0  0  0  0  0  2  0  0  0  0  0  0
  186.3920  177.7270  137.5960 C   0  0  0  0  0  2  0  0  0  0  0  0
  184.6630  175.3330  136.6440 C   0  0  0  0  0  0  0  0  0  0  0  0
  183.6850  174.4920  136.6950 N   0  0  0  0  0  2  0  0  0  0  0  0
  184.8800  176.6630  136.0120 C   0  0  0  0  0  2  0  0  0  0  0  0
  186.2080  176.6350  136.5470 C   0  0  2  0  0  3  0  0  0  0  0  0
  186.0050  175.3820  137.1810 O   0  0  0  0  0  0  0  0  0  0  0  0
  1  4  1  0  0  0  0
  2  6  2  0  0  0  0
  2  7  1  0  0  0  0
  3 30  1  6  0  0  0
  3  5  1  0  0  0  0
  3  2  1  0  0  0  0
  4  7  1  0  0  0  0
  5  1  1  0  0  0  0
  6  8  1  0  0  0  0
  8  9  1  0  0  0  0
 10 11  2  0  0  0  0
 10  9  1  0  0  0  0
 12 10  1  0  0  0  0
 14 15  2  6  0  0  0
 14 13  1  0  0  0  0
 14 12  1  0  0  0  0
 16 23  1  0  0  0  0
 16 24  1  0  0  0  0
 17 25  1  1  0  0  0
 17 14  1  0  0  0  0
 20 19  1  6  0  0  0
 20 17  1  0  0  0  0
 21 23  1  0  0  0  0
 21 26  2  0  0  0  0
 22 18  1  0  0  0  0
 23 27  1  6  0  0  0
 24 22  1  0  0  0  0
 24 20  1  0  0  0  0
 24 18  1  0  0  0  0
 26 17  1  0  0  0  0
 28 27  1  0  0  0  0
 29 27  2  0  0  0  0
 31 30  1  0  0  0  0
 32 47  1  6  0  0  0
 32 31  1  0  0  0  0
 33 41  1  6  0  0  0
 33 32  1  0  0  0  0
 34 39  1  0  0  0  0
 35 38  1  0  0  0  0
 35 37  2  0  0  0  0
 36 39  2  0  0  0  0
 36 40  1  0  0  0  0
 37 36  1  0  0  0  0
 38 34  2  0  0  0  0
 39 33  1  0  0  0  0
 41 42  1  0  0  0  0
 43 42  1  0  0  0  0
 44 43  1  0  0  0  0
 45 44  1  0  0  0  0
 46 44  2  0  0  0  0
 48 47  1  0  0  0  0
 49 50  1  0  0  0  0
 49 48  1  0  0  0  0
 51 52  2  0  0  0  0
 51 55  1  0  0  0  0
 53 54  1  0  0  0  0
 53 51  1  0  0  0  0
 54 55  1  0  0  0  0
 54 50  1  1  0  0  0
M  END
>  <MODEL>
5

>  <REMARK>
 VINA RESULT:      -5.7      2.441      6.993
  Name = 
  21 active torsions:
  status: ('A' for Active; 'I' for Inactive)
    1  A    between atoms: C_1  and  C_29
    2  A    between atoms: C_2  and  N_28
    3  A    between atoms: C_2  and  C_31
    4  A    between atoms: C_4  and  O_40
    5  A    between atoms: C_6  and  P_20
    6  A    between atoms: C_8  and  O_22
    7  A    between atoms: C_8  and  C_35
    8  A    between atoms: C_13  and  C_48
    9  A    between atoms: C_13  and  C_52
   10  A    between atoms: C_19  and  O_40
   11  A    between atoms: C_19  and  C_45
   12  A    between atoms: P_20  and  O_22
   13  A    between atoms: C_26  and  C_49
   14  A    between atoms: N_28  and  C_33
   15  A    between atoms: C_33  and  C_34
   16  A    between atoms: C_33  and  C_49
   17  A    between atoms: C_34  and  C_52
   18  A    between atoms: C_35  and  O_51
   19  A    between atoms: C_39  and  C_48
   20  A    between atoms: C_45  and  C_49
   21  A    between atoms: O_51  and  N_54
                            x       y       z     vdW  Elec       q    Type
                         _______ _______ _______ _____ _____    ______ ____

>  <TORSDO>
F 21

$$$$
=
 OpenBabel11052415123D

 55 59  0  0  1  0  0  0  0  0999 V2000
  182.9940  179.2550  142.9300 C   0  0  0  0  0  2  0  0  0  0  0  0
  184.3910  178.6280  140.5320 C   0  0  0  0  0  0  0  0  0  0  0  0
  182.8970  178.4600  140.4500 C   0  0  2  0  0  3  0  0  0  0  0  0
  184.1480  178.2670  143.0080 C   0  0  0  0  0  2  0  0  0  0  0  0
  182.1350  179.0030  141.6760 C   0  0  0  0  0  2  0  0  0  0  0  0
  185.0560  178.8110  139.4360 N   0  0  0  0  0  0  0  0  0  0  0  0
  185.1100  178.5350  141.8540 C   0  0  0  0  0  2  0  0  0  0  0  0
  186.4240  178.9490  139.4420 O   0  0  0  0  0  0  0  0  0  0  0  0
  187.2410  178.0080  138.7680 C   0  0  0  0  0  2  0  0  0  0  0  0
  188.6100  178.5660  138.6210 C   0  0  0  0  0  0  0  0  0  0  0  0
  189.0490  178.8340  137.4700 O   0  0  0  0  0  0  0  0  0  0  0  0
  189.3950  178.7700  139.7570 O   0  0  0  0  0  0  0  0  0  0  0  0
  189.5940  175.9950  139.9890 O   0  0  0  0  0  0  0  0  0  0  0  0
  190.1370  177.4730  140.6100 P   0  0  1  0  0  0  0  0  0  0  0  0
  191.6370  177.5570  140.4310 O   0  0  0  0  0  1  0  0  0  0  0  0
  189.2230  176.6790  145.4590 C   0  0  0  0  0  2  0  0  0  0  0  0
  189.7140  177.5940  142.3830 C   0  0  1  0  0  0  0  0  0  0  0  0
  191.5520  177.7620  145.2730 C   0  0  0  0  0  2  0  0  0  0  0  0
  190.2610  175.2750  142.8690 O   0  0  0  0  0  1  0  0  0  0  0  0
  190.5890  176.6000  143.1770 C   0  0  2  0  0  3  0  0  0  0  0  0
  187.5780  177.3760  143.7130 C   0  0  0  0  0  3  0  0  0  0  0  0
  191.7270  176.2550  145.4330 C   0  0  0  0  0  2  0  0  0  0  0  0
  188.2270  177.7440  145.0190 C   0  0  1  0  0  3  0  0  0  0  0  0
  190.5310  176.8100  144.6910 C   0  0  0  0  0  0  0  0  0  0  0  0
  189.9830  178.8990  142.8030 O   0  0  0  0  0  1  0  0  0  0  0  0
  188.2400  177.3090  142.5480 C   0  0  0  0  0  3  0  0  0  0  0  0
  187.1950  177.9500  146.0790 C   0  0  0  0  0  0  0  0  0  0  0  0
  187.5220  177.7710  147.4550 N   0  0  0  0  0  1  0  0  0  0  0  0
  186.0290  178.3080  145.7560 O   0  0  0  0  0  0  0  0  0  0  0  0
  182.5630  176.9930  140.2270 C   0  0  0  0  0  2  0  0  0  0  0  0
  183.1010  176.5460  138.9430 N   0  0  0  0  0  2  0  0  0  0  0  0
  182.0160  176.1220  138.0490 C   0  0  1  0  0  3  0  0  0  0  0  0
  182.5390  175.5570  136.7170 C   0  0  1  0  0  3  0  0  0  0  0  0
  183.9110  173.6660  137.5920 C   0  0  0  0  0  3  0  0  0  0  0  0
  186.2990  173.5100  137.2350 C   0  0  0  0  0  3  0  0  0  0  0  0
  185.0630  175.3950  136.3440 C   0  0  0  0  0  0  0  0  0  0  0  0
  186.2700  174.7110  136.5230 C   0  0  0  0  0  3  0  0  0  0  0  0
  185.1220  172.9890  137.7710 C   0  0  0  0  0  3  0  0  0  0  0  0
  183.8700  174.8680  136.8790 C   0  0  0  0  0  0  0  0  0  0  0  0
  185.0610  176.5920  135.6370 O   0  0  0  0  0  1  0  0  0  0  0  0
  181.5120  174.6220  136.0750 C   0  0  0  0  0  2  0  0  0  0  0  0
  182.0440  174.0230  134.7810 C   0  0  0  0  0  2  0  0  0  0  0  0
  181.5260  172.7090  134.6050 O   0  0  0  0  0  0  0  0  0  0  0  0
  182.0660  171.6100  135.2780 C   0  0  0  0  0  0  0  0  0  0  0  0
  181.4580  171.1700  136.5620 C   0  0  0  0  0  1  0  0  0  0  0  0
  183.0600  170.9890  134.8120 O   0  0  0  0  0  0  0  0  0  0  0  0
  181.0570  175.1540  138.7500 C   0  0  0  0  0  2  0  0  0  0  0  0
  179.6090  175.5380  138.4920 C   0  0  0  0  0  2  0  0  0  0  0  0
  179.3800  177.0040  138.8390 C   0  0  0  0  0  2  0  0  0  0  0  0
  179.6400  177.8830  137.6220 C   0  0  0  0  0  2  0  0  0  0  0  0
  180.7030  180.7420  138.1910 C   0  0  0  0  0  0  0  0  0  0  0  0
  181.6010  181.6490  138.3810 N   0  0  0  0  0  2  0  0  0  0  0  0
  179.9640  180.2180  137.0110 C   0  0  0  0  0  2  0  0  0  0  0  0
  179.2760  179.3380  137.9060 C   0  0  2  0  0  3  0  0  0  0  0  0
  179.9950  179.8060  139.0360 O   0  0  0  0  0  0  0  0  0  0  0  0
  1  4  1  0  0  0  0
  2  7  1  0  0  0  0
  3 30  1  1  0  0  0
  3  2  1  0  0  0  0
  3  5  1  0  0  0  0
  5  1  1  0  0  0  0
  6  8  1  0  0  0  0
  6  2  2  0  0  0  0
  7  4  1  0  0  0  0
  9  8  1  0  0  0  0
 10  9  1  0  0  0  0
 10 12  1  0  0  0  0
 11 10  2  0  0  0  0
 12 14  1  0  0  0  0
 14 13  2  6  0  0  0
 14 17  1  0  0  0  0
 15 14  1  0  0  0  0
 17 26  1  0  0  0  0
 17 25  1  1  0  0  0
 17 20  1  0  0  0  0
 18 22  1  0  0  0  0
 20 19  1  1  0  0  0
 20 24  1  0  0  0  0
 21 23  1  0  0  0  0
 23 16  1  0  0  0  0
 23 27  1  1  0  0  0
 24 18  1  0  0  0  0
 24 22  1  0  0  0  0
 24 16  1  0  0  0  0
 26 21  2  0  0  0  0
 27 28  1  0  0  0  0
 29 27  2  0  0  0  0
 31 30  1  0  0  0  0
 32 47  1  1  0  0  0
 32 31  1  0  0  0  0
 33 41  1  1  0  0  0
 33 39  1  0  0  0  0
 33 32  1  0  0  0  0
 34 38  1  0  0  0  0
 35 38  2  0  0  0  0
 36 37  2  0  0  0  0
 36 39  1  0  0  0  0
 37 35  1  0  0  0  0
 39 34  2  0  0  0  0
 40 36  1  0  0  0  0
 42 41  1  0  0  0  0
 43 42  1  0  0  0  0
 43 44  1  0  0  0  0
 44 45  1  0  0  0  0
 46 44  2  0  0  0  0
 48 47  1  0  0  0  0
 48 49  1  0  0  0  0
 50 49  1  0  0  0  0
 51 52  2  0  0  0  0
 51 55  1  0  0  0  0
 53 54  1  0  0  0  0
 53 51  1  0  0  0  0
 54 50  1  6  0  0  0
 54 55  1  0  0  0  0
M  END
>  <MODEL>
6

>  <REMARK>
 VINA RESULT:      -5.7      2.661      9.050
  Name = 
  21 active torsions:
  status: ('A' for Active; 'I' for Inactive)
    1  A    between atoms: C_1  and  C_29
    2  A    between atoms: C_2  and  N_28
    3  A    between atoms: C_2  and  C_31
    4  A    between atoms: C_4  and  O_40
    5  A    between atoms: C_6  and  P_20
    6  A    between atoms: C_8  and  O_22
    7  A    between atoms: C_8  and  C_35
    8  A    between atoms: C_13  and  C_48
    9  A    between atoms: C_13  and  C_52
   10  A    between atoms: C_19  and  O_40
   11  A    between atoms: C_19  and  C_45
   12  A    between atoms: P_20  and  O_22
   13  A    between atoms: C_26  and  C_49
   14  A    between atoms: N_28  and  C_33
   15  A    between atoms: C_33  and  C_34
   16  A    between atoms: C_33  and  C_49
   17  A    between atoms: C_34  and  C_52
   18  A    between atoms: C_35  and  O_51
   19  A    between atoms: C_39  and  C_48
   20  A    between atoms: C_45  and  C_49
   21  A    between atoms: O_51  and  N_54
                            x       y       z     vdW  Elec       q    Type
                         _______ _______ _______ _____ _____    ______ ____

>  <TORSDO>
F 21

$$$$
=
 OpenBabel11052415123D

 55 59  0  0  1  0  0  0  0  0999 V2000
  189.6810  177.7600  142.8840 C   0  0  0  0  0  2  0  0  0  0  0  0
  188.4050  178.1410  140.3690 C   0  0  0  0  0  0  0  0  0  0  0  0
  187.6970  178.7790  141.5350 C   0  0  2  0  0  3  0  0  0  0  0  0
  189.3860  176.5330  142.0340 C   0  0  0  0  0  2  0  0  0  0  0  0
  188.5020  178.7510  142.8510 C   0  0  0  0  0  2  0  0  0  0  0  0
  188.1880  178.6070  139.1810 N   0  0  0  0  0  0  0  0  0  0  0  0
  189.3090  176.9500  140.5680 C   0  0  0  0  0  2  0  0  0  0  0  0
  188.7860  178.0540  138.0730 O   0  0  0  0  0  0  0  0  0  0  0  0
  188.0130  177.3380  137.1260 C   0  0  0  0  0  2  0  0  0  0  0  0
  188.7650  177.2540  135.8460 C   0  0  0  0  0  0  0  0  0  0  0  0
  189.4210  178.2530  135.4470 O   0  0  0  0  0  0  0  0  0  0  0  0
  188.7190  176.0760  135.0990 O   0  0  0  0  0  0  0  0  0  0  0  0
  187.8700  174.4940  137.2370 O   0  0  0  0  0  1  0  0  0  0  0  0
  188.8030  174.5180  135.8250 P   0  0  1  0  0  0  0  0  0  0  0  0
  188.2560  173.4910  134.8590 O   0  0  0  0  0  0  0  0  0  0  0  0
  193.7850  174.1850  136.0600 C   0  0  0  0  0  2  0  0  0  0  0  0
  190.5420  174.1300  136.2260 C   0  0  1  0  0  0  0  0  0  0  0  0
  193.0200  175.7640  137.9450 C   0  0  0  0  0  2  0  0  0  0  0  0
  191.4650  175.6810  134.5980 O   0  0  0  0  0  1  0  0  0  0  0  0
  191.4100  175.3800  135.9630 C   0  0  2  0  0  3  0  0  0  0  0  0
  192.1810  172.3590  135.4790 C   0  0  0  0  0  3  0  0  0  0  0  0
  193.4960  176.6070  136.7660 C   0  0  0  0  0  2  0  0  0  0  0  0
  193.2590  172.8030  136.4290 C   0  0  1  0  0  3  0  0  0  0  0  0
  192.8260  175.2710  136.5280 C   0  0  0  0  0  0  0  0  0  0  0  0
  190.6080  173.7880  137.5790 O   0  0  0  0  0  1  0  0  0  0  0  0
  190.9790  172.9500  135.3910 C   0  0  0  0  0  3  0  0  0  0  0  0
  194.3800  171.8160  136.4480 C   0  0  0  0  0  0  0  0  0  0  0  0
  194.1530  170.4670  136.8490 N   0  0  0  0  0  1  0  0  0  0  0  0
  195.5340  172.1730  136.0830 O   0  0  0  0  0  0  0  0  0  0  0  0
  186.3420  178.1170  141.7300 C   0  0  0  0  0  2  0  0  0  0  0  0
  185.2820  178.9840  141.2160 N   0  0  0  0  0  2  0  0  0  0  0  0
  184.1110  178.9450  142.0990 C   0  0  1  0  0  3  0  0  0  0  0  0
  182.9120  178.2260  141.4550 C   0  0  1  0  0  3  0  0  0  0  0  0
  181.3210  179.7770  140.3190 C   0  0  0  0  0  3  0  0  0  0  0  0
  179.3660  180.6820  141.4230 C   0  0  0  0  0  3  0  0  0  0  0  0
  180.8490  179.1860  142.6220 C   0  0  0  0  0  0  0  0  0  0  0  0
  179.7030  179.9870  142.5860 C   0  0  0  0  0  3  0  0  0  0  0  0
  180.1750  180.5790  140.2910 C   0  0  0  0  0  3  0  0  0  0  0  0
  181.6670  179.0750  141.4780 C   0  0  0  0  0  0  0  0  0  0  0  0
  181.1670  178.5090  143.7950 O   0  0  0  0  0  1  0  0  0  0  0  0
  183.2420  177.7750  140.0310 C   0  0  0  0  0  2  0  0  0  0  0  0
  182.6840  176.3860  139.7500 C   0  0  0  0  0  2  0  0  0  0  0  0
  182.7170  176.1240  138.3520 O   0  0  0  0  0  0  0  0  0  0  0  0
  182.9480  174.8410  137.8490 C   0  0  0  0  0  0  0  0  0  0  0  0
  184.3440  174.4010  137.5860 C   0  0  0  0  0  1  0  0  0  0  0  0
  181.9900  174.0560  137.6130 O   0  0  0  0  0  0  0  0  0  0  0  0
  184.4610  178.3650  143.4730 C   0  0  0  0  0  2  0  0  0  0  0  0
  184.3850  179.4330  144.5530 C   0  0  0  0  0  2  0  0  0  0  0  0
  185.1040  178.9640  145.8120 C   0  0  0  0  0  2  0  0  0  0  0  0
  186.4620  178.3710  145.4560 C   0  0  0  0  0  2  0  0  0  0  0  0
  188.6160  177.9130  147.6420 C   0  0  0  0  0  0  0  0  0  0  0  0
  189.6690  178.1900  148.3360 N   0  0  0  0  0  2  0  0  0  0  0  0
  187.1590  178.1810  147.7810 C   0  0  0  0  0  2  0  0  0  0  0  0
  186.9680  177.4520  146.5640 C   0  0  2  0  0  3  0  0  0  0  0  0
  188.3570  177.2160  146.4010 O   0  0  0  0  0  0  0  0  0  0  0  0
  2  7  1  0  0  0  0
  2  3  1  0  0  0  0
  3 30  1  1  0  0  0
  3  5  1  0  0  0  0
  4  1  1  0  0  0  0
  5  1  1  0  0  0  0
  6  2  2  0  0  0  0
  7  4  1  0  0  0  0
  8  6  1  0  0  0  0
  9  8  1  0  0  0  0
 10  9  1  0  0  0  0
 11 10  2  0  0  0  0
 12 14  1  0  0  0  0
 12 10  1  0  0  0  0
 14 15  2  6  0  0  0
 14 17  1  0  0  0  0
 14 13  1  0  0  0  0
 16 23  1  0  0  0  0
 16 24  1  0  0  0  0
 17 25  1  1  0  0  0
 20 19  1  6  0  0  0
 20 17  1  0  0  0  0
 20 24  1  0  0  0  0
 21 23  1  0  0  0  0
 22 18  1  0  0  0  0
 23 27  1  6  0  0  0
 24 22  1  0  0  0  0
 24 18  1  0  0  0  0
 26 21  2  0  0  0  0
 26 17  1  0  0  0  0
 27 28  1  0  0  0  0
 29 27  2  0  0  0  0
 31 30  1  0  0  0  0
 31 32  1  0  0  0  0
 32 47  1  1  0  0  0
 33 41  1  6  0  0  0
 33 39  1  0  0  0  0
 33 32  1  0  0  0  0
 34 39  1  0  0  0  0
 35 37  2  0  0  0  0
 36 40  1  0  0  0  0
 37 36  1  0  0  0  0
 38 34  2  0  0  0  0
 38 35  1  0  0  0  0
 39 36  2  0  0  0  0
 42 41  1  0  0  0  0
 43 42  1  0  0  0  0
 44 43  1  0  0  0  0
 45 44  1  0  0  0  0
 46 44  2  0  0  0  0
 47 48  1  0  0  0  0
 48 49  1  0  0  0  0
 50 49  1  0  0  0  0
 51 53  1  0  0  0  0
 51 52  2  0  0  0  0
 54 50  1  6  0  0  0
 54 53  1  0  0  0  0
 55 54  1  0  0  0  0
 55 51  1  0  0  0  0
M  END
>  <MODEL>
7

>  <REMARK>
 VINA RESULT:      -5.6      2.979      9.095
  Name = 
  21 active torsions:
  status: ('A' for Active; 'I' for Inactive)
    1  A    between atoms: C_1  and  C_29
    2  A    between atoms: C_2  and  N_28
    3  A    between atoms: C_2  and  C_31
    4  A    between atoms: C_4  and  O_40
    5  A    between atoms: C_6  and  P_20
    6  A    between atoms: C_8  and  O_22
    7  A    between atoms: C_8  and  C_35
    8  A    between atoms: C_13  and  C_48
    9  A    between atoms: C_13  and  C_52
   10  A    between atoms: C_19  and  O_40
   11  A    between atoms: C_19  and  C_45
   12  A    between atoms: P_20  and  O_22
   13  A    between atoms: C_26  and  C_49
   14  A    between atoms: N_28  and  C_33
   15  A    between atoms: C_33  and  C_34
   16  A    between atoms: C_33  and  C_49
   17  A    between atoms: C_34  and  C_52
   18  A    between atoms: C_35  and  O_51
   19  A    between atoms: C_39  and  C_48
   20  A    between atoms: C_45  and  C_49
   21  A    between atoms: O_51  and  N_54
                            x       y       z     vdW  Elec       q    Type
                         _______ _______ _______ _____ _____    ______ ____

>  <TORSDO>
F 21

$$$$
=
 OpenBabel11052415123D

 55 59  0  0  1  0  0  0  0  0999 V2000
  189.0350  177.8480  135.0850 C   0  0  0  0  0  2  0  0  0  0  0  0
  186.9090  176.3480  136.2350 C   0  0  0  0  0  0  0  0  0  0  0  0
  187.3810  177.5080  137.0700 C   0  0  2  0  0  3  0  0  0  0  0  0
  189.2040  176.3410  135.2100 C   0  0  0  0  0  2  0  0  0  0  0  0
  188.3790  178.4360  136.3480 C   0  0  0  0  0  2  0  0  0  0  0  0
  185.7100  175.8950  136.4210 N   0  0  0  0  0  0  0  0  0  0  0  0
  187.8260  175.6860  135.2360 C   0  0  0  0  0  2  0  0  0  0  0  0
  185.2280  174.8240  135.7070 O   0  0  0  0  0  0  0  0  0  0  0  0
  185.1610  173.5390  136.3020 C   0  0  0  0  0  2  0  0  0  0  0  0
  183.7470  173.2310  136.6400 C   0  0  0  0  0  0  0  0  0  0  0  0
  183.2500  172.1300  136.2800 O   0  0  0  0  0  0  0  0  0  0  0  0
  182.9870  174.1730  137.3360 O   0  0  0  0  0  0  0  0  0  0  0  0
  181.9700  175.1900  134.9430 O   0  0  0  0  0  0  0  0  0  0  0  0
  181.6880  175.0330  136.6050 P   0  0  1  0  0  0  0  0  0  0  0  0
  180.4040  174.2620  136.8130 O   0  0  0  0  0  1  0  0  0  0  0  0
  180.2510  179.2050  138.9530 C   0  0  0  0  0  2  0  0  0  0  0  0
  181.5520  176.6870  137.3680 C   0  0  1  0  0  0  0  0  0  0  0  0
  181.7080  177.8520  140.5900 C   0  0  0  0  0  2  0  0  0  0  0  0
  179.3140  176.3120  138.2400 O   0  0  0  0  0  1  0  0  0  0  0  0
  180.6340  176.5950  138.6060 C   0  0  2  0  0  3  0  0  0  0  0  0
  180.8550  178.9690  136.5400 C   0  0  0  0  0  3  0  0  0  0  0  0
  180.2410  177.5970  140.9180 C   0  0  0  0  0  2  0  0  0  0  0  0
  181.1830  179.6580  137.8350 C   0  0  1  0  0  3  0  0  0  0  0  0
  180.6710  177.8430  139.4890 C   0  0  0  0  0  0  0  0  0  0  0  0
  182.8310  177.0890  137.7590 O   0  0  0  0  0  1  0  0  0  0  0  0
  181.0180  177.6520  136.3370 C   0  0  0  0  0  3  0  0  0  0  0  0
  181.1070  181.1410  137.6750 C   0  0  0  0  0  0  0  0  0  0  0  0
  180.2060  181.7240  136.7360 N   0  0  0  0  0  1  0  0  0  0  0  0
  181.8290  181.8860  138.3930 O   0  0  0  0  0  0  0  0  0  0  0  0
  187.9840  176.9890  138.3650 C   0  0  0  0  0  2  0  0  0  0  0  0
  188.5280  178.1000  139.1460 N   0  0  0  0  0  2  0  0  0  0  0  0
  188.3330  177.8660  140.5820 C   0  0  1  0  0  3  0  0  0  0  0  0
  189.6590  177.8510  141.3610 C   0  0  1  0  0  3  0  0  0  0  0  0
  188.4600  176.8340  143.2990 C   0  0  0  0  0  3  0  0  0  0  0  0
  188.9540  177.4200  145.5940 C   0  0  0  0  0  3  0  0  0  0  0  0
  190.1780  178.4730  143.7870 C   0  0  0  0  0  0  0  0  0  0  0  0
  189.9320  178.3140  145.1550 C   0  0  0  0  0  3  0  0  0  0  0  0
  188.2170  176.6820  144.6680 C   0  0  0  0  0  3  0  0  0  0  0  0
  189.4380  177.7250  142.8470 C   0  0  0  0  0  0  0  0  0  0  0  0
  191.1520  179.3750  143.3730 O   0  0  0  0  0  1  0  0  0  0  0  0
  190.5860  176.7480  140.8490 C   0  0  0  0  0  2  0  0  0  0  0  0
  192.0490  177.1300  141.0250 C   0  0  0  0  0  2  0  0  0  0  0  0
  192.5740  177.6230  139.7980 O   0  0  0  0  0  0  0  0  0  0  0  0
  192.7190  176.8030  138.6770 C   0  0  0  0  0  0  0  0  0  0  0  0
  191.8420  175.6110  138.5270 C   0  0  0  0  0  1  0  0  0  0  0  0
  193.5830  177.0570  137.7950 O   0  0  0  0  0  0  0  0  0  0  0  0
  187.3230  178.8500  141.1800 C   0  0  0  0  0  2  0  0  0  0  0  0
  185.9360  178.6350  140.5920 C   0  0  0  0  0  2  0  0  0  0  0  0
  184.8800  179.2850  141.4770 C   0  0  0  0  0  2  0  0  0  0  0  0
  185.3880  179.4020  142.9090 C   0  0  0  0  0  2  0  0  0  0  0  0
  184.8160  178.6060  145.8530 C   0  0  0  0  0  0  0  0  0  0  0  0
  184.9400  178.6690  147.1360 N   0  0  0  0  0  2  0  0  0  0  0  0
  183.9210  179.2370  144.8450 C   0  0  0  0  0  2  0  0  0  0  0  0
  184.6110  178.4800  143.8440 C   0  0  2  0  0  3  0  0  0  0  0  0
  185.4920  177.8940  144.7890 O   0  0  0  0  0  0  0  0  0  0  0  0
  1  4  1  0  0  0  0
  1  5  1  0  0  0  0
  2  6  2  0  0  0  0
  2  3  1  0  0  0  0
  3 30  1  1  0  0  0
  4  7  1  0  0  0  0
  5  3  1  0  0  0  0
  7  2  1  0  0  0  0
  8  9  1  0  0  0  0
  8  6  1  0  0  0  0
  9 10  1  0  0  0  0
 10 12  1  0  0  0  0
 11 10  2  0  0  0  0
 14 13  2  6  0  0  0
 14 15  1  0  0  0  0
 14 12  1  0  0  0  0
 14 17  1  0  0  0  0
 16 24  1  0  0  0  0
 17 25  1  1  0  0  0
 17 20  1  0  0  0  0
 18 22  1  0  0  0  0
 20 19  1  6  0  0  0
 20 24  1  0  0  0  0
 21 23  1  0  0  0  0
 23 27  1  6  0  0  0
 23 16  1  0  0  0  0
 24 18  1  0  0  0  0
 24 22  1  0  0  0  0
 26 21  2  0  0  0  0
 26 17  1  0  0  0  0
 27 29  2  0  0  0  0
 28 27  1  0  0  0  0
 30 31  1  0  0  0  0
 31 32  1  0  0  0  0
 32 47  1  1  0  0  0
 32 33  1  0  0  0  0
 33 41  1  6  0  0  0
 33 39  1  0  0  0  0
 34 38  1  0  0  0  0
 36 37  2  0  0  0  0
 37 35  1  0  0  0  0
 38 35  2  0  0  0  0
 39 34  2  0  0  0  0
 39 36  1  0  0  0  0
 40 36  1  0  0  0  0
 41 42  1  0  0  0  0
 43 42  1  0  0  0  0
 44 43  1  0  0  0  0
 45 44  1  0  0  0  0
 46 44  2  0  0  0  0
 48 47  1  0  0  0  0
 48 49  1  0  0  0  0
 49 50  1  0  0  0  0
 51 52  2  0  0  0  0
 53 51  1  0  0  0  0
 54 50  1  6  0  0  0
 54 55  1  0  0  0  0
 54 53  1  0  0  0  0
 55 51  1  0  0  0  0
M  END
>  <MODEL>
8

>  <REMARK>
 VINA RESULT:      -5.6      1.612      2.327
  Name = 
  21 active torsions:
  status: ('A' for Active; 'I' for Inactive)
    1  A    between atoms: C_1  and  C_29
    2  A    between atoms: C_2  and  N_28
    3  A    between atoms: C_2  and  C_31
    4  A    between atoms: C_4  and  O_40
    5  A    between atoms: C_6  and  P_20
    6  A    between atoms: C_8  and  O_22
    7  A    between atoms: C_8  and  C_35
    8  A    between atoms: C_13  and  C_48
    9  A    between atoms: C_13  and  C_52
   10  A    between atoms: C_19  and  O_40
   11  A    between atoms: C_19  and  C_45
   12  A    between atoms: P_20  and  O_22
   13  A    between atoms: C_26  and  C_49
   14  A    between atoms: N_28  and  C_33
   15  A    between atoms: C_33  and  C_34
   16  A    between atoms: C_33  and  C_49
   17  A    between atoms: C_34  and  C_52
   18  A    between atoms: C_35  and  O_51
   19  A    between atoms: C_39  and  C_48
   20  A    between atoms: C_45  and  C_49
   21  A    between atoms: O_51  and  N_54
                            x       y       z     vdW  Elec       q    Type
                         _______ _______ _______ _____ _____    ______ ____

>  <TORSDO>
F 21

$$$$
=
 OpenBabel11052415123D

 55 59  0  0  1  0  0  0  0  0999 V2000
  183.5270  179.2590  144.0150 C   0  0  0  0  0  2  0  0  0  0  0  0
  184.4470  178.9190  141.3440 C   0  0  0  0  0  0  0  0  0  0  0  0
  182.9580  178.7870  141.5160 C   0  0  2  0  0  3  0  0  0  0  0  0
  184.6370  178.2500  143.7600 C   0  0  0  0  0  2  0  0  0  0  0  0
  182.4490  179.1830  142.9180 C   0  0  0  0  0  2  0  0  0  0  0  0
  184.9130  179.2280  140.1760 N   0  0  0  0  0  0  0  0  0  0  0  0
  185.3870  178.6460  142.4920 C   0  0  0  0  0  2  0  0  0  0  0  0
  186.2640  179.3410  139.9490 O   0  0  0  0  0  0  0  0  0  0  0  0
  187.0910  178.1910  139.9660 C   0  0  0  0  0  2  0  0  0  0  0  0
  188.5040  178.6010  139.7570 C   0  0  0  0  0  0  0  0  0  0  0  0
  188.9050  178.8670  138.5910 O   0  0  0  0  0  0  0  0  0  0  0  0
  189.3690  178.6700  140.8500 O   0  0  0  0  0  0  0  0  0  0  0  0
  190.0340  175.9990  140.3850 O   0  0  0  0  0  0  0  0  0  0  0  0
  190.4450  177.3900  141.2570 P   0  0  1  0  0  0  0  0  0  0  0  0
  191.8560  177.7960  140.8940 O   0  0  0  0  0  1  0  0  0  0  0  0
  189.9750  177.6030  146.2280 C   0  0  0  0  0  2  0  0  0  0  0  0
  190.3350  177.0530  143.0490 C   0  0  1  0  0  0  0  0  0  0  0  0
  187.7390  176.7580  145.2700 C   0  0  0  0  0  2  0  0  0  0  0  0
  189.8050  179.3500  143.6440 O   0  0  0  0  0  1  0  0  0  0  0  0
  189.3270  178.0350  143.6840 C   0  0  2  0  0  3  0  0  0  0  0  0
  192.0080  176.9410  144.9370 C   0  0  0  0  0  3  0  0  0  0  0  0
  187.6120  178.2500  145.5590 C   0  0  0  0  0  2  0  0  0  0  0  0
  190.9930  176.5030  145.9550 C   0  0  1  0  0  3  0  0  0  0  0  0
  188.9370  177.6680  145.1170 C   0  0  0  0  0  0  0  0  0  0  0  0
  189.8830  175.7410  143.2140 O   0  0  0  0  0  1  0  0  0  0  0  0
  191.7130  177.1860  143.6510 C   0  0  0  0  0  3  0  0  0  0  0  0
  191.6640  176.0990  147.2270 C   0  0  0  0  0  0  0  0  0  0  0  0
  192.0500  177.0800  148.1870 N   0  0  0  0  0  1  0  0  0  0  0  0
  191.8710  174.8770  147.4650 O   0  0  0  0  0  0  0  0  0  0  0  0
  182.5320  177.3670  141.1810 C   0  0  0  0  0  2  0  0  0  0  0  0
  182.0440  177.3010  139.8030 N   0  0  0  0  0  2  0  0  0  0  0  0
  180.9430  178.2500  139.6000 C   0  0  1  0  0  3  0  0  0  0  0  0
  181.2040  179.2120  138.4280 C   0  0  1  0  0  3  0  0  0  0  0  0
  179.7010  178.5590  136.5460 C   0  0  0  0  0  3  0  0  0  0  0  0
  180.4860  177.3340  134.6120 C   0  0  0  0  0  3  0  0  0  0  0  0
  182.0320  177.9120  136.3870 C   0  0  0  0  0  0  0  0  0  0  0  0
  181.7740  177.3120  135.1500 C   0  0  0  0  0  3  0  0  0  0  0  0
  179.4490  177.9540  135.3100 C   0  0  0  0  0  3  0  0  0  0  0  0
  180.9880  178.5460  137.0930 C   0  0  0  0  0  0  0  0  0  0  0  0
  183.3220  177.8730  136.9050 O   0  0  0  0  0  1  0  0  0  0  0  0
  180.3520  180.4760  138.5550 C   0  0  0  0  0  2  0  0  0  0  0  0
  181.1590  181.7210  138.2130 C   0  0  0  0  0  2  0  0  0  0  0  0
  180.8360  182.1640  136.9000 O   0  0  0  0  0  0  0  0  0  0  0  0
  180.8380  183.5190  136.5590 C   0  0  0  0  0  0  0  0  0  0  0  0
  179.8640  184.0200  135.5530 C   0  0  0  0  0  1  0  0  0  0  0  0
  181.6550  184.3200  137.0900 O   0  0  0  0  0  0  0  0  0  0  0  0
  179.5980  177.5290  139.4660 C   0  0  0  0  0  2  0  0  0  0  0  0
  179.3530  176.6050  140.6500 C   0  0  0  0  0  2  0  0  0  0  0  0
  179.0910  175.1840  140.1660 C   0  0  0  0  0  2  0  0  0  0  0  0
  179.3170  175.0870  138.6620 C   0  0  0  0  0  2  0  0  0  0  0  0
  180.4490  172.9880  136.6770 C   0  0  0  0  0  0  0  0  0  0  0  0
  180.4500  172.2420  135.6240 N   0  0  0  0  0  2  0  0  0  0  0  0
  180.9430  174.3530  137.0050 C   0  0  0  0  0  2  0  0  0  0  0  0
  180.4700  174.1400  138.3400 C   0  0  2  0  0  3  0  0  0  0  0  0
  179.9660  172.8500  138.0330 O   0  0  0  0  0  0  0  0  0  0  0  0
  2  3  1  0  0  0  0
  2  7  1  0  0  0  0
  3 30  1  1  0  0  0
  3  5  1  0  0  0  0
  4  1  1  0  0  0  0
  5  1  1  0  0  0  0
  6  2  2  0  0  0  0
  7  4  1  0  0  0  0
  8  9  1  0  0  0  0
  8  6  1  0  0  0  0
 10  9  1  0  0  0  0
 10 12  1  0  0  0  0
 11 10  2  0  0  0  0
 12 14  1  0  0  0  0
 14 13  2  6  0  0  0
 14 17  1  0  0  0  0
 15 14  1  0  0  0  0
 17 25  1  1  0  0  0
 17 26  1  0  0  0  0
 17 20  1  0  0  0  0
 18 22  1  0  0  0  0
 20 19  1  1  0  0  0
 20 24  1  0  0  0  0
 21 23  1  0  0  0  0
 23 16  1  0  0  0  0
 23 27  1  1  0  0  0
 24 18  1  0  0  0  0
 24 22  1  0  0  0  0
 24 16  1  0  0  0  0
 26 21  2  0  0  0  0
 27 29  2  0  0  0  0
 27 28  1  0  0  0  0
 31 30  1  0  0  0  0
 32 47  1  6  0  0  0
 32 31  1  0  0  0  0
 33 41  1  1  0  0  0
 33 32  1  0  0  0  0
 34 39  1  0  0  0  0
 35 37  2  0  0  0  0
 35 38  1  0  0  0  0
 36 40  1  0  0  0  0
 36 39  2  0  0  0  0
 37 36  1  0  0  0  0
 38 34  2  0  0  0  0
 39 33  1  0  0  0  0
 42 41  1  0  0  0  0
 43 42  1  0  0  0  0
 44 43  1  0  0  0  0
 44 46  2  0  0  0  0
 45 44  1  0  0  0  0
 47 48  1  0  0  0  0
 49 48  1  0  0  0  0
 50 49  1  0  0  0  0
 51 53  1  0  0  0  0
 51 55  1  0  0  0  0
 52 51  2  0  0  0  0
 53 54  1  0  0  0  0
 54 50  1  6  0  0  0
 55 54  1  0  0  0  0
M  END
>  <MODEL>
9

>  <REMARK>
 VINA RESULT:      -5.5      3.269     10.305
  Name = 
  21 active torsions:
  status: ('A' for Active; 'I' for Inactive)
    1  A    between atoms: C_1  and  C_29
    2  A    between atoms: C_2  and  N_28
    3  A    between atoms: C_2  and  C_31
    4  A    between atoms: C_4  and  O_40
    5  A    between atoms: C_6  and  P_20
    6  A    between atoms: C_8  and  O_22
    7  A    between atoms: C_8  and  C_35
    8  A    between atoms: C_13  and  C_48
    9  A    between atoms: C_13  and  C_52
   10  A    between atoms: C_19  and  O_40
   11  A    between atoms: C_19  and  C_45
   12  A    between atoms: P_20  and  O_22
   13  A    between atoms: C_26  and  C_49
   14  A    between atoms: N_28  and  C_33
   15  A    between atoms: C_33  and  C_34
   16  A    between atoms: C_33  and  C_49
   17  A    between atoms: C_34  and  C_52
   18  A    between atoms: C_35  and  O_51
   19  A    between atoms: C_39  and  C_48
   20  A    between atoms: C_45  and  C_49
   21  A    between atoms: O_51  and  N_54
                            x       y       z     vdW  Elec       q    Type
                         _______ _______ _______ _____ _____    ______ ____

>  <TORSDO>
F 21

$$$$
