=
 OpenBabel11052413053D

 31 35  0  0  1  0  0  0  0  0999 V2000
  185.5370  178.6980  143.8780 C   0  0  0  0  0  0  0  0  0  0  0  0
  189.0380  177.3110  143.8110 C   0  0  0  0  0  0  0  0  0  0  0  0
  189.4940  177.2510  145.1610 C   0  0  0  0  0  0  0  0  0  0  0  0
  189.1110  176.7980  138.5720 O   0  0  0  0  0  0  0  0  0  0  0  0
  190.2220  176.4170  139.0300 C   0  0  0  0  0  0  0  0  0  0  0  0
  189.3490  177.9030  147.6080 C   0  0  1  0  0  3  0  0  0  0  0  0
  187.7490  177.7750  143.4080 C   0  0  0  0  0  0  0  0  0  0  0  0
  185.2260  178.6830  142.5200 C   0  0  0  0  0  3  0  0  0  0  0  0
  188.5890  177.5640  146.3330 C   0  0  0  0  0  2  0  0  0  0  0  0
  189.5490  176.9000  141.4510 C   0  0  0  0  0  0  0  0  0  0  0  0
  184.6280  179.1480  144.7770 F   0  0  0  0  0  0  0  0  0  0  0  0
  191.5930  176.3950  144.3890 N   0  0  0  0  0  0  0  0  0  0  0  0
  188.3730  178.0280  148.7570 C   0  0  0  0  0  1  0  0  0  0  0  0
  188.3130  177.3420  141.1090 N   0  0  0  0  0  0  0  0  0  0  0  0
  189.9320  176.8800  142.7980 C   0  0  0  0  0  0  0  0  0  0  0  0
  190.4680  176.4540  140.4430 N   0  0  0  0  0  2  0  0  0  0  0  0
  186.7860  178.2500  144.3150 C   0  0  0  0  0  3  0  0  0  0  0  0
  190.3370  176.7900  147.8970 C   0  0  0  0  0  2  0  0  0  0  0  0
  187.4180  177.7730  142.0290 C   0  0  0  0  0  0  0  0  0  0  0  0
  186.1650  178.2220  141.5980 C   0  0  0  0  0  3  0  0  0  0  0  0
  191.1740  176.4400  143.1280 N   0  0  0  0  0  0  0  0  0  0  0  0
  190.7990  176.7690  145.4190 C   0  0  0  0  0  0  0  0  0  0  0  0
  191.3930  176.7610  146.8020 C   0  0  0  0  0  2  0  0  0  0  0  0
  193.3480  175.0790  136.4080 C   0  0  0  0  0  0  0  0  0  0  0  0
  192.4350  176.7070  137.9420 C   0  0  0  0  0  3  0  0  0  0  0  0
  190.0600  173.8850  137.5520 O   0  0  0  0  0  1  0  0  0  0  0  0
  194.6340  174.5520  135.3450 Cl  0  0  0  0  0  0  0  0  0  0  0  0
  193.4620  176.2880  137.0950 C   0  0  0  0  0  3  0  0  0  0  0  0
  191.1770  174.7020  137.4190 C   0  0  0  0  0  0  0  0  0  0  0  0
  191.2820  175.9260  138.1180 C   0  0  0  0  0  0  0  0  0  0  0  0
  192.2090  174.2900  136.5710 C   0  0  0  0  0  3  0  0  0  0  0  0
  1 17  1  0  0  0  0
  1 11  1  0  0  0  0
  2  3  1  0  0  0  0
  3 22  2  0  0  0  0
  3  9  1  0  0  0  0
  4  5  2  0  0  0  0
  5 16  1  0  0  0  0
  6 18  1  0  0  0  0
  6 13  1  1  0  0  0
  7  2  1  0  0  0  0
  7 17  2  0  0  0  0
  8  1  2  0  0  0  0
  9  6  1  0  0  0  0
 10 15  1  0  0  0  0
 12 22  1  0  0  0  0
 14 10  2  0  0  0  0
 14 19  1  0  0  0  0
 15 21  1  0  0  0  0
 15  2  2  0  0  0  0
 16 10  1  0  0  0  0
 19  7  1  0  0  0  0
 20 19  2  0  0  0  0
 20  8  1  0  0  0  0
 21 12  2  0  0  0  0
 22 23  1  0  0  0  0
 23 18  1  0  0  0  0
 24 31  2  0  0  0  0
 24 28  1  0  0  0  0
 25 30  1  0  0  0  0
 27 24  1  0  0  0  0
 28 25  2  0  0  0  0
 29 26  1  0  0  0  0
 29 30  2  0  0  0  0
 30  5  1  0  0  0  0
 31 29  1  0  0  0  0
M  END
>  <MODEL>
1

>  <REMARK>
 VINA RESULT:     -10.9      0.000      0.000
  Name = 
  1 active torsions:
  status: ('A' for Active; 'I' for Inactive)
    1  A    between atoms: C_9  and  C_22
                            x       y       z     vdW  Elec       q    Type
                         _______ _______ _______ _____ _____    ______ ____

>  <TORSDO>
F 1

$$$$
=
 OpenBabel11052413053D

 31 35  0  0  1  0  0  0  0  0999 V2000
  190.4310  177.2700  142.1540 C   0  0  0  0  0  0  0  0  0  0  0  0
  186.9730  178.2450  143.2840 C   0  0  0  0  0  0  0  0  0  0  0  0
  186.9510  178.1470  144.7080 C   0  0  0  0  0  0  0  0  0  0  0  0
  185.2470  179.1480  138.3930 O   0  0  0  0  0  0  0  0  0  0  0  0
  184.3020  179.3610  139.2010 C   0  0  0  0  0  0  0  0  0  0  0  0
  187.8980  177.3300  146.9140 C   0  0  1  0  0  3  0  0  0  0  0  0
  188.1100  177.9650  142.4680 C   0  0  0  0  0  0  0  0  0  0  0  0
  190.3060  177.4260  140.7750 C   0  0  0  0  0  3  0  0  0  0  0  0
  188.1970  177.8510  145.5150 C   0  0  0  0  0  2  0  0  0  0  0  0
  185.7270  178.7740  141.2430 C   0  0  0  0  0  0  0  0  0  0  0  0
  191.6080  176.8610  142.6860 F   0  0  0  0  0  0  0  0  0  0  0  0
  184.6510  178.8120  144.6940 N   0  0  0  0  0  0  0  0  0  0  0  0
  189.1880  177.2300  147.6990 C   0  0  0  0  0  1  0  0  0  0  0  0
  186.8310  178.5060  140.5030 N   0  0  0  0  0  0  0  0  0  0  0  0
  185.7760  178.6460  142.6380 C   0  0  0  0  0  0  0  0  0  0  0  0
  184.5070  179.1870  140.6100 N   0  0  0  0  0  2  0  0  0  0  0  0
  189.3430  177.5360  142.9890 C   0  0  0  0  0  3  0  0  0  0  0  0
  186.9550  178.2960  147.6040 C   0  0  0  0  0  2  0  0  0  0  0  0
  187.9990  178.1120  141.0610 C   0  0  0  0  0  0  0  0  0  0  0  0
  189.0920  177.8450  140.2300 C   0  0  0  0  0  3  0  0  0  0  0  0
  184.6640  178.9130  143.3690 N   0  0  0  0  0  0  0  0  0  0  0  0
  185.7530  178.4540  145.3940 C   0  0  0  0  0  0  0  0  0  0  0  0
  185.6140  178.2870  146.8830 C   0  0  0  0  0  2  0  0  0  0  0  0
  180.4820  180.7160  137.7840 C   0  0  0  0  0  0  0  0  0  0  0  0
  182.6730  181.1660  138.6980 C   0  0  0  0  0  3  0  0  0  0  0  0
  182.2410  177.5130  138.2240 O   0  0  0  0  0  1  0  0  0  0  0  0
  178.9310  181.2890  137.2100 Cl  0  0  0  0  0  0  0  0  0  0  0  0
  181.4360  181.6250  138.2400 C   0  0  0  0  0  3  0  0  0  0  0  0
  182.0010  178.8820  138.2400 C   0  0  0  0  0  0  0  0  0  0  0  0
  182.9740  179.7950  138.7050 C   0  0  0  0  0  0  0  0  0  0  0  0
  180.7640  179.3490  137.7850 C   0  0  0  0  0  3  0  0  0  0  0  0
  1 11  1  0  0  0  0
  1 17  1  0  0  0  0
  2  3  1  0  0  0  0
  3 22  2  0  0  0  0
  3  9  1  0  0  0  0
  4  5  2  0  0  0  0
  5 16  1  0  0  0  0
  6 18  1  0  0  0  0
  6 13  1  1  0  0  0
  7 17  2  0  0  0  0
  7  2  1  0  0  0  0
  8  1  2  0  0  0  0
  9  6  1  0  0  0  0
 10 15  1  0  0  0  0
 12 22  1  0  0  0  0
 14 19  1  0  0  0  0
 14 10  2  0  0  0  0
 15  2  2  0  0  0  0
 15 21  1  0  0  0  0
 16 10  1  0  0  0  0
 19  7  1  0  0  0  0
 20  8  1  0  0  0  0
 20 19  2  0  0  0  0
 21 12  2  0  0  0  0
 22 23  1  0  0  0  0
 23 18  1  0  0  0  0
 24 31  2  0  0  0  0
 24 28  1  0  0  0  0
 25 30  1  0  0  0  0
 26 29  1  0  0  0  0
 27 24  1  0  0  0  0
 28 25  2  0  0  0  0
 29 30  2  0  0  0  0
 30  5  1  0  0  0  0
 31 29  1  0  0  0  0
M  END
>  <MODEL>
2

>  <REMARK>
 VINA RESULT:     -10.9      4.884      7.391
  Name = 
  1 active torsions:
  status: ('A' for Active; 'I' for Inactive)
    1  A    between atoms: C_9  and  C_22
                            x       y       z     vdW  Elec       q    Type
                         _______ _______ _______ _____ _____    ______ ____

>  <TORSDO>
F 1

$$$$
=
 OpenBabel11052413053D

 31 35  0  0  1  0  0  0  0  0999 V2000
  186.9310  178.1660  147.7410 C   0  0  0  0  0  0  0  0  0  0  0  0
  187.5910  177.6080  144.0760 C   0  0  0  0  0  0  0  0  0  0  0  0
  188.9480  177.1840  143.9510 C   0  0  0  0  0  0  0  0  0  0  0  0
  182.7060  178.9370  142.6320 O   0  0  0  0  0  0  0  0  0  0  0  0
  183.3690  178.6510  141.5990 C   0  0  0  0  0  0  0  0  0  0  0  0
  191.3060  176.9200  144.8470 C   0  0  1  0  0  3  0  0  0  0  0  0
  186.9460  177.9160  145.3110 C   0  0  0  0  0  0  0  0  0  0  0  0
  185.5920  178.5530  147.7070 C   0  0  0  0  0  3  0  0  0  0  0  0
  189.8150  176.8920  145.1570 C   0  0  0  0  0  2  0  0  0  0  0  0
  185.4920  178.1360  142.9300 C   0  0  0  0  0  0  0  0  0  0  0  0
  187.5850  178.0920  148.9260 F   0  0  0  0  0  0  0  0  0  0  0  0
  188.6710  177.0750  141.5760 N   0  0  0  0  0  0  0  0  0  0  0  0
  192.0800  176.4500  146.0590 C   0  0  0  0  0  1  0  0  0  0  0  0
  184.9130  178.4130  144.1250 N   0  0  0  0  0  0  0  0  0  0  0  0
  186.8330  177.7340  142.8840 C   0  0  0  0  0  0  0  0  0  0  0  0
  184.7430  178.2520  141.7120 N   0  0  0  0  0  2  0  0  0  0  0  0
  187.5990  177.8520  146.5550 C   0  0  0  0  0  3  0  0  0  0  0  0
  191.5780  175.9940  143.6770 C   0  0  0  0  0  2  0  0  0  0  0  0
  185.5860  178.3180  145.2950 C   0  0  0  0  0  0  0  0  0  0  0  0
  184.9230  178.6300  146.4870 C   0  0  0  0  0  3  0  0  0  0  0  0
  187.4040  177.4640  141.6820 N   0  0  0  0  0  0  0  0  0  0  0  0
  189.4610  176.9110  142.6620 C   0  0  0  0  0  0  0  0  0  0  0  0
  190.9040  176.5500  142.4320 C   0  0  0  0  0  2  0  0  0  0  0  0
  181.4660  178.7920  137.7520 C   0  0  0  0  0  0  0  0  0  0  0  0
  181.5430  178.0170  140.0390 C   0  0  0  0  0  3  0  0  0  0  0  0
  184.4730  180.1860  139.3530 O   0  0  0  0  0  1  0  0  0  0  0  0
  180.6740  178.8360  136.1910 Cl  0  0  0  0  0  0  0  0  0  0  0  0
  180.9100  178.0510  138.7950 C   0  0  0  0  0  3  0  0  0  0  0  0
  183.2930  179.4680  139.1960 C   0  0  0  0  0  0  0  0  0  0  0  0
  182.7380  178.7200  140.2590 C   0  0  0  0  0  0  0  0  0  0  0  0
  182.6530  179.4970  137.9530 C   0  0  0  0  0  3  0  0  0  0  0  0
  1 11  1  0  0  0  0
  2  7  1  0  0  0  0
  3  2  1  0  0  0  0
  3  9  1  0  0  0  0
  5 16  1  0  0  0  0
  5  4  2  0  0  0  0
  6  9  1  0  0  0  0
  6 13  1  1  0  0  0
  7 17  1  0  0  0  0
  8  1  1  0  0  0  0
 10 14  2  0  0  0  0
 12 21  2  0  0  0  0
 12 22  1  0  0  0  0
 14 19  1  0  0  0  0
 15 10  1  0  0  0  0
 15  2  2  0  0  0  0
 16 10  1  0  0  0  0
 17  1  2  0  0  0  0
 18  6  1  0  0  0  0
 19  7  2  0  0  0  0
 19 20  1  0  0  0  0
 20  8  2  0  0  0  0
 21 15  1  0  0  0  0
 22  3  2  0  0  0  0
 23 22  1  0  0  0  0
 23 18  1  0  0  0  0
 24 31  2  0  0  0  0
 24 28  1  0  0  0  0
 25 30  1  0  0  0  0
 27 24  1  0  0  0  0
 28 25  2  0  0  0  0
 29 26  1  0  0  0  0
 29 30  2  0  0  0  0
 30  5  1  0  0  0  0
 31 29  1  0  0  0  0
M  END
>  <MODEL>
3

>  <REMARK>
 VINA RESULT:     -10.5      4.430      6.922
  Name = 
  1 active torsions:
  status: ('A' for Active; 'I' for Inactive)
    1  A    between atoms: C_9  and  C_22
                            x       y       z     vdW  Elec       q    Type
                         _______ _______ _______ _____ _____    ______ ____

>  <TORSDO>
F 1

$$$$
=
 OpenBabel11052413053D

 31 35  0  0  1  0  0  0  0  0999 V2000
  191.6620  177.2900  141.1050 C   0  0  0  0  0  0  0  0  0  0  0  0
  188.4250  177.7550  142.9730 C   0  0  0  0  0  0  0  0  0  0  0  0
  188.7100  177.5790  144.3610 C   0  0  0  0  0  0  0  0  0  0  0  0
  185.6310  178.6890  138.6100 O   0  0  0  0  0  0  0  0  0  0  0  0
  184.8570  178.7370  139.6040 C   0  0  0  0  0  0  0  0  0  0  0  0
  190.1800  176.7740  146.2630 C   0  0  1  0  0  3  0  0  0  0  0  0
  189.3920  177.6660  141.9280 C   0  0  0  0  0  0  0  0  0  0  0  0
  191.2370  177.5010  139.7940 C   0  0  0  0  0  3  0  0  0  0  0  0
  190.1210  177.4020  144.8780 C   0  0  0  0  0  2  0  0  0  0  0  0
  186.7310  178.2290  141.2690 C   0  0  0  0  0  0  0  0  0  0  0  0
  192.9620  177.0060  141.3580 F   0  0  0  0  0  0  0  0  0  0  0  0
  186.3970  177.9470  144.8570 N   0  0  0  0  0  0  0  0  0  0  0  0
  191.6070  176.7970  146.7650 C   0  0  0  0  0  1  0  0  0  0  0  0
  187.6810  178.1430  140.3050 N   0  0  0  0  0  0  0  0  0  0  0  0
  187.0830  178.0350  142.6120 C   0  0  0  0  0  0  0  0  0  0  0  0
  185.3670  178.5160  140.9270 N   0  0  0  0  0  2  0  0  0  0  0  0
  190.7480  177.3700  142.1580 C   0  0  0  0  0  3  0  0  0  0  0  0
  189.2970  177.5740  147.2010 C   0  0  0  0  0  2  0  0  0  0  0  0
  188.9770  177.8720  140.5870 C   0  0  0  0  0  0  0  0  0  0  0  0
  189.8970  177.7900  139.5370 C   0  0  0  0  0  3  0  0  0  0  0  0
  186.1230  178.1180  143.5680 N   0  0  0  0  0  0  0  0  0  0  0  0
  187.6530  177.6950  145.2930 C   0  0  0  0  0  0  0  0  0  0  0  0
  187.8460  177.4320  146.7630 C   0  0  0  0  0  2  0  0  0  0  0  0
  180.6570  179.4720  139.0950 C   0  0  0  0  0  0  0  0  0  0  0  0
  182.4850  178.0040  139.6780 C   0  0  0  0  0  3  0  0  0  0  0  0
  183.8100  181.3340  138.7190 O   0  0  0  0  0  1  0  0  0  0  0  0
  178.9400  179.7510  138.8940 Cl  0  0  0  0  0  0  0  0  0  0  0  0
  181.1160  178.2250  139.5180 C   0  0  0  0  0  3  0  0  0  0  0  0
  182.9390  180.2850  138.9910 C   0  0  0  0  0  0  0  0  0  0  0  0
  183.4140  179.0240  139.4180 C   0  0  0  0  0  0  0  0  0  0  0  0
  181.5660  180.4980  138.8330 C   0  0  0  0  0  3  0  0  0  0  0  0
  1 11  1  0  0  0  0
  1 17  1  0  0  0  0
  2  3  1  0  0  0  0
  3  9  1  0  0  0  0
  3 22  2  0  0  0  0
  4  5  2  0  0  0  0
  5 16  1  0  0  0  0
  6 13  1  1  0  0  0
  6 18  1  0  0  0  0
  7 17  2  0  0  0  0
  7  2  1  0  0  0  0
  8  1  2  0  0  0  0
  9  6  1  0  0  0  0
 10 15  1  0  0  0  0
 12 22  1  0  0  0  0
 14 19  1  0  0  0  0
 14 10  2  0  0  0  0
 15  2  2  0  0  0  0
 15 21  1  0  0  0  0
 16 10  1  0  0  0  0
 19  7  1  0  0  0  0
 20  8  1  0  0  0  0
 20 19  2  0  0  0  0
 21 12  2  0  0  0  0
 22 23  1  0  0  0  0
 23 18  1  0  0  0  0
 24 28  1  0  0  0  0
 26 29  1  0  0  0  0
 27 24  1  0  0  0  0
 28 25  2  0  0  0  0
 29 30  2  0  0  0  0
 30  5  1  0  0  0  0
 30 25  1  0  0  0  0
 31 29  1  0  0  0  0
 31 24  2  0  0  0  0
M  END
>  <MODEL>
4

>  <REMARK>
 VINA RESULT:     -10.2      4.554      7.198
  Name = 
  1 active torsions:
  status: ('A' for Active; 'I' for Inactive)
    1  A    between atoms: C_9  and  C_22
                            x       y       z     vdW  Elec       q    Type
                         _______ _______ _______ _____ _____    ______ ____

>  <TORSDO>
F 1

$$$$
=
 OpenBabel11052413053D

 31 35  0  0  1  0  0  0  0  0999 V2000
  186.1040  178.0470  145.9920 C   0  0  0  0  0  0  0  0  0  0  0  0
  186.8270  178.2390  142.3020 C   0  0  0  0  0  0  0  0  0  0  0  0
  188.2170  177.9660  142.1290 C   0  0  0  0  0  0  0  0  0  0  0  0
  181.8480  179.3810  141.0270 O   0  0  0  0  0  0  0  0  0  0  0  0
  182.5390  179.3510  139.9720 C   0  0  0  0  0  0  0  0  0  0  0  0
  190.5850  177.7470  143.0090 C   0  0  1  0  0  3  0  0  0  0  0  0
  186.1520  178.2550  143.5590 C   0  0  0  0  0  0  0  0  0  0  0  0
  184.7360  178.3150  146.0020 C   0  0  0  0  0  3  0  0  0  0  0  0
  189.1020  177.5320  143.2780 C   0  0  0  0  0  2  0  0  0  0  0  0
  184.6940  178.7860  141.2290 C   0  0  0  0  0  0  0  0  0  0  0  0
  186.7570  177.8120  147.1560 F   0  0  0  0  0  0  0  0  0  0  0  0
  187.9610  178.2770  139.7690 N   0  0  0  0  0  0  0  0  0  0  0  0
  191.3930  177.1300  144.1300 C   0  0  0  0  0  1  0  0  0  0  0  0
  184.0870  178.7840  142.4420 N   0  0  0  0  0  0  0  0  0  0  0  0
  186.0660  178.5180  141.1380 C   0  0  0  0  0  0  0  0  0  0  0  0
  183.9420  179.0600  140.0380 N   0  0  0  0  0  2  0  0  0  0  0  0
  186.8020  178.0190  144.7830 C   0  0  0  0  0  3  0  0  0  0  0  0
  190.9450  177.0820  141.6950 C   0  0  0  0  0  2  0  0  0  0  0  0
  184.7610  178.5330  143.5890 C   0  0  0  0  0  0  0  0  0  0  0  0
  184.0670  178.5590  144.8030 C   0  0  0  0  0  3  0  0  0  0  0  0
  186.6640  178.5260  139.9180 N   0  0  0  0  0  0  0  0  0  0  0  0
  188.7580  177.9830  140.8220 C   0  0  0  0  0  0  0  0  0  0  0  0
  190.2290  177.7990  140.5600 C   0  0  0  0  0  2  0  0  0  0  0  0
  180.7060  180.2090  136.1850 C   0  0  0  0  0  0  0  0  0  0  0  0
  181.4900  180.9190  138.3570 C   0  0  0  0  0  3  0  0  0  0  0  0
  182.1120  177.2880  137.9270 O   0  0  0  0  0  1  0  0  0  0  0  0
  179.9570  180.5800  134.6470 Cl  0  0  0  0  0  0  0  0  0  0  0  0
  180.8930  181.2170  137.1310 C   0  0  0  0  0  3  0  0  0  0  0  0
  181.7170  178.5990  137.6900 C   0  0  0  0  0  0  0  0  0  0  0  0
  181.9100  179.6130  138.6560 C   0  0  0  0  0  0  0  0  0  0  0  0
  181.1170  178.9050  136.4640 C   0  0  0  0  0  3  0  0  0  0  0  0
  1  8  1  0  0  0  0
  1 11  1  0  0  0  0
  2  7  1  0  0  0  0
  3  2  1  0  0  0  0
  3  9  1  0  0  0  0
  5 16  1  0  0  0  0
  5  4  2  0  0  0  0
  6  9  1  0  0  0  0
  6 13  1  1  0  0  0
  7 19  2  0  0  0  0
  7 17  1  0  0  0  0
 10 14  2  0  0  0  0
 12 21  2  0  0  0  0
 12 22  1  0  0  0  0
 14 19  1  0  0  0  0
 15 10  1  0  0  0  0
 15  2  2  0  0  0  0
 16 10  1  0  0  0  0
 17  1  2  0  0  0  0
 18  6  1  0  0  0  0
 19 20  1  0  0  0  0
 20  8  2  0  0  0  0
 21 15  1  0  0  0  0
 22  3  2  0  0  0  0
 23 22  1  0  0  0  0
 23 18  1  0  0  0  0
 24 31  2  0  0  0  0
 24 28  1  0  0  0  0
 25 30  1  0  0  0  0
 27 24  1  0  0  0  0
 28 25  2  0  0  0  0
 29 26  1  0  0  0  0
 29 30  2  0  0  0  0
 30  5  1  0  0  0  0
 31 29  1  0  0  0  0
M  END
>  <MODEL>
5

>  <REMARK>
 VINA RESULT:     -10.1      4.890      7.530
  Name = 
  1 active torsions:
  status: ('A' for Active; 'I' for Inactive)
    1  A    between atoms: C_9  and  C_22
                            x       y       z     vdW  Elec       q    Type
                         _______ _______ _______ _____ _____    ______ ____

>  <TORSDO>
F 1

$$$$
=
 OpenBabel11052413053D

 31 35  0  0  1  0  0  0  0  0999 V2000
  183.8470  179.2120  139.3040 C   0  0  0  0  0  0  0  0  0  0  0  0
  187.4070  178.0190  139.6020 C   0  0  0  0  0  0  0  0  0  0  0  0
  187.9140  177.8690  138.2770 C   0  0  0  0  0  0  0  0  0  0  0  0
  187.3270  177.9860  144.8660 O   0  0  0  0  0  0  0  0  0  0  0  0
  188.4610  177.5970  144.4770 C   0  0  0  0  0  0  0  0  0  0  0  0
  187.6050  177.6410  135.7700 C   0  0  1  0  0  3  0  0  0  0  0  0
  186.0890  178.4630  139.9220 C   0  0  0  0  0  0  0  0  0  0  0  0
  183.4990  179.3260  140.6490 C   0  0  0  0  0  3  0  0  0  0  0  0
  187.1250  178.2960  137.0580 C   0  0  0  0  0  2  0  0  0  0  0  0
  187.8520  177.8350  142.0040 C   0  0  0  0  0  0  0  0  0  0  0  0
  182.9440  179.5170  138.3410 F   0  0  0  0  0  0  0  0  0  0  0  0
  189.9990  177.1210  139.1850 N   0  0  0  0  0  0  0  0  0  0  0  0
  186.8780  178.2550  134.5940 C   0  0  0  0  0  1  0  0  0  0  0  0
  186.5930  178.2670  142.2670 N   0  0  0  0  0  0  0  0  0  0  0  0
  188.2780  177.7010  140.6760 C   0  0  0  0  0  0  0  0  0  0  0  0
  188.7510  177.5120  143.0740 N   0  0  0  0  0  2  0  0  0  0  0  0
  185.1280  178.7840  138.9470 C   0  0  0  0  0  3  0  0  0  0  0  0
  189.0960  177.8780  135.6290 C   0  0  0  0  0  2  0  0  0  0  0  0
  185.7140  178.5780  141.2860 C   0  0  0  0  0  0  0  0  0  0  0  0
  184.4300  179.0080  141.6360 C   0  0  0  0  0  3  0  0  0  0  0  0
  189.5380  177.2640  140.4240 N   0  0  0  0  0  0  0  0  0  0  0  0
  189.2440  177.4190  138.1030 C   0  0  0  0  0  0  0  0  0  0  0  0
  189.8270  177.1430  136.7430 C   0  0  0  0  0  2  0  0  0  0  0  0
  191.5500  176.4980  147.2500 C   0  0  0  0  0  0  0  0  0  0  0  0
  190.7510  176.7830  144.9880 C   0  0  0  0  0  3  0  0  0  0  0  0
  188.0850  177.7310  147.3860 O   0  0  0  0  0  1  0  0  0  0  0  0
  192.8220  176.0460  148.3630 Cl  0  0  0  0  0  0  0  0  0  0  0  0
  191.7670  176.4220  145.8740 C   0  0  0  0  0  3  0  0  0  0  0  0
  189.2960  177.3010  146.8570 C   0  0  0  0  0  0  0  0  0  0  0  0
  189.5050  177.2260  145.4610 C   0  0  0  0  0  0  0  0  0  0  0  0
  190.3180  176.9360  147.7380 C   0  0  0  0  0  3  0  0  0  0  0  0
  1  8  1  0  0  0  0
  2  7  1  0  0  0  0
  2 15  1  0  0  0  0
  3  2  2  0  0  0  0
  5  4  2  0  0  0  0
  5 30  1  0  0  0  0
  6 13  1  6  0  0  0
  6  9  1  0  0  0  0
  7 19  2  0  0  0  0
  8 20  2  0  0  0  0
  9  3  1  0  0  0  0
 10 14  2  0  0  0  0
 10 16  1  0  0  0  0
 11  1  1  0  0  0  0
 12 21  1  0  0  0  0
 15 10  1  0  0  0  0
 16  5  1  0  0  0  0
 17  1  2  0  0  0  0
 17  7  1  0  0  0  0
 18  6  1  0  0  0  0
 18 23  1  0  0  0  0
 19 20  1  0  0  0  0
 19 14  1  0  0  0  0
 21 15  2  0  0  0  0
 22  3  1  0  0  0  0
 22 12  2  0  0  0  0
 23 22  1  0  0  0  0
 24 31  1  0  0  0  0
 24 27  1  0  0  0  0
 25 30  2  0  0  0  0
 25 28  1  0  0  0  0
 28 24  2  0  0  0  0
 29 26  1  0  0  0  0
 29 31  2  0  0  0  0
 30 29  1  0  0  0  0
M  END
>  <MODEL>
6

>  <REMARK>
 VINA RESULT:      -9.5      4.020      7.903
  Name = 
  1 active torsions:
  status: ('A' for Active; 'I' for Inactive)
    1  A    between atoms: C_9  and  C_22
                            x       y       z     vdW  Elec       q    Type
                         _______ _______ _______ _____ _____    ______ ____

>  <TORSDO>
F 1

$$$$
=
 OpenBabel11052413053D

 31 35  0  0  1  0  0  0  0  0999 V2000
  185.4290  178.2440  146.5150 C   0  0  0  0  0  0  0  0  0  0  0  0
  185.4710  178.2820  142.7490 C   0  0  0  0  0  0  0  0  0  0  0  0
  184.1450  178.5810  142.3150 C   0  0  0  0  0  0  0  0  0  0  0  0
  190.6060  177.1630  142.4430 O   0  0  0  0  0  0  0  0  0  0  0  0
  190.1450  177.2640  141.2740 C   0  0  0  0  0  0  0  0  0  0  0  0
  181.6470  178.7730  142.7090 C   0  0  1  0  0  3  0  0  0  0  0  0
  185.8770  178.1830  144.1140 C   0  0  0  0  0  0  0  0  0  0  0  0
  186.7670  177.9610  146.7860 C   0  0  0  0  0  3  0  0  0  0  0  0
  183.0450  178.9540  143.2850 C   0  0  0  0  0  2  0  0  0  0  0  0
  187.7780  177.7770  142.1000 C   0  0  0  0  0  0  0  0  0  0  0  0
  184.5530  178.4160  147.5340 F   0  0  0  0  0  0  0  0  0  0  0  0
  184.8760  178.4090  140.0420 N   0  0  0  0  0  0  0  0  0  0  0  0
  180.6280  179.3310  143.6770 C   0  0  0  0  0  1  0  0  0  0  0  0
  188.1260  177.6990  143.4090 N   0  0  0  0  0  0  0  0  0  0  0  0
  186.4530  178.0650  141.7490 C   0  0  0  0  0  0  0  0  0  0  0  0
  188.7570  177.5670  141.0720 N   0  0  0  0  0  2  0  0  0  0  0  0
  184.9910  178.3530  145.1930 C   0  0  0  0  0  3  0  0  0  0  0  0
  181.5610  179.5200  141.3920 C   0  0  0  0  0  2  0  0  0  0  0  0
  187.2330  177.8880  144.4080 C   0  0  0  0  0  0  0  0  0  0  0  0
  187.6650  177.7820  145.7340 C   0  0  0  0  0  3  0  0  0  0  0  0
  186.1150  178.1370  140.4360 N   0  0  0  0  0  0  0  0  0  0  0  0
  183.8810  178.6480  140.9270 C   0  0  0  0  0  0  0  0  0  0  0  0
  182.4940  178.8640  140.3840 C   0  0  0  0  0  2  0  0  0  0  0  0
  192.7850  176.7400  137.9290 C   0  0  0  0  0  0  0  0  0  0  0  0
  192.4080  177.2830  140.2530 C   0  0  0  0  0  3  0  0  0  0  0  0
  189.1790  176.4720  138.6170 O   0  0  0  0  0  1  0  0  0  0  0  0
  193.8780  176.5310  136.5780 Cl  0  0  0  0  0  0  0  0  0  0  0  0
  193.2820  177.1170  139.1770 C   0  0  0  0  0  3  0  0  0  0  0  0
  190.5350  176.6920  138.8310 C   0  0  0  0  0  0  0  0  0  0  0  0
  191.0280  177.0750  140.0990 C   0  0  0  0  0  0  0  0  0  0  0  0
  191.4160  176.5290  137.7580 C   0  0  0  0  0  3  0  0  0  0  0  0
  1  8  1  0  0  0  0
  1 11  1  0  0  0  0
  2  7  1  0  0  0  0
  3  2  1  0  0  0  0
  3  9  1  0  0  0  0
  5  4  2  0  0  0  0
  6  9  1  0  0  0  0
  6 13  1  1  0  0  0
  7 19  2  0  0  0  0
  7 17  1  0  0  0  0
 10 14  2  0  0  0  0
 12 21  2  0  0  0  0
 12 22  1  0  0  0  0
 14 19  1  0  0  0  0
 15 10  1  0  0  0  0
 15  2  2  0  0  0  0
 16  5  1  0  0  0  0
 16 10  1  0  0  0  0
 17  1  2  0  0  0  0
 18  6  1  0  0  0  0
 19 20  1  0  0  0  0
 20  8  2  0  0  0  0
 21 15  1  0  0  0  0
 22  3  2  0  0  0  0
 23 22  1  0  0  0  0
 23 18  1  0  0  0  0
 24 28  1  0  0  0  0
 26 29  1  0  0  0  0
 27 24  1  0  0  0  0
 28 25  2  0  0  0  0
 29 30  2  0  0  0  0
 30 25  1  0  0  0  0
 30  5  1  0  0  0  0
 31 24  2  0  0  0  0
 31 29  1  0  0  0  0
M  END
>  <MODEL>
7

>  <REMARK>
 VINA RESULT:      -9.3      2.260      5.283
  Name = 
  1 active torsions:
  status: ('A' for Active; 'I' for Inactive)
    1  A    between atoms: C_9  and  C_22
                            x       y       z     vdW  Elec       q    Type
                         _______ _______ _______ _____ _____    ______ ____

>  <TORSDO>
F 1

$$$$
=
 OpenBabel11052413053D

 31 35  0  0  1  0  0  0  0  0999 V2000
  183.9310  179.0160  141.8790 C   0  0  0  0  0  0  0  0  0  0  0  0
  187.4190  177.8730  142.7210 C   0  0  0  0  0  0  0  0  0  0  0  0
  187.5150  177.8210  144.1440 C   0  0  0  0  0  0  0  0  0  0  0  0
  188.8790  177.4560  137.6800 O   0  0  0  0  0  0  0  0  0  0  0  0
  189.8570  177.1440  138.4110 C   0  0  0  0  0  0  0  0  0  0  0  0
  186.6970  178.4200  146.4690 C   0  0  1  0  0  3  0  0  0  0  0  0
  186.2490  178.2540  141.9980 C   0  0  0  0  0  0  0  0  0  0  0  0
  183.9830  179.0020  140.4860 C   0  0  0  0  0  3  0  0  0  0  0  0
  186.3180  178.0520  145.0410 C   0  0  0  0  0  2  0  0  0  0  0  0
  188.5500  177.5380  140.5740 C   0  0  0  0  0  0  0  0  0  0  0  0
  182.7910  179.3870  142.5110 F   0  0  0  0  0  0  0  0  0  0  0  0
  189.7960  177.1240  143.9420 N   0  0  0  0  0  0  0  0  0  0  0  0
  185.4510  178.4580  147.3260 C   0  0  0  0  0  1  0  0  0  0  0  0
  187.4160  177.9000  139.9240 N   0  0  0  0  0  0  0  0  0  0  0  0
  188.5730  177.5210  141.9750 C   0  0  0  0  0  0  0  0  0  0  0  0
  189.7270  177.1740  139.8390 N   0  0  0  0  0  2  0  0  0  0  0  0
  185.0530  178.6460  142.6250 C   0  0  0  0  0  3  0  0  0  0  0  0
  187.6530  177.3720  147.0050 C   0  0  0  0  0  2  0  0  0  0  0  0
  186.2860  178.2530  140.5800 C   0  0  0  0  0  0  0  0  0  0  0  0
  185.1590  178.6230  139.8390 C   0  0  0  0  0  3  0  0  0  0  0  0
  189.7150  177.1620  142.6160 N   0  0  0  0  0  0  0  0  0  0  0  0
  188.7390  177.4250  144.7310 C   0  0  0  0  0  0  0  0  0  0  0  0
  188.9550  177.4340  146.2210 C   0  0  0  0  0  2  0  0  0  0  0  0
  193.5500  175.9590  136.5670 C   0  0  0  0  0  0  0  0  0  0  0  0
  191.1600  176.3030  136.4720 C   0  0  0  0  0  3  0  0  0  0  0  0
  192.4220  177.2110  139.8390 O   0  0  0  0  0  1  0  0  0  0  0  0
  195.0440  175.4720  135.7970 Cl  0  0  0  0  0  0  0  0  0  0  0  0
  192.3510  175.9140  135.8550 C   0  0  0  0  0  3  0  0  0  0  0  0
  192.3690  176.7850  138.5170 C   0  0  0  0  0  0  0  0  0  0  0  0
  191.1490  176.7420  137.8050 C   0  0  0  0  0  0  0  0  0  0  0  0
  193.5580  176.3930  137.8930 C   0  0  0  0  0  3  0  0  0  0  0  0
  1 11  1  0  0  0  0
  1 17  1  0  0  0  0
  2  3  1  0  0  0  0
  3 22  2  0  0  0  0
  3  9  1  0  0  0  0
  4  5  2  0  0  0  0
  5 16  1  0  0  0  0
  6 18  1  0  0  0  0
  6 13  1  1  0  0  0
  7 17  2  0  0  0  0
  7  2  1  0  0  0  0
  8  1  2  0  0  0  0
  9  6  1  0  0  0  0
 10 15  1  0  0  0  0
 12 22  1  0  0  0  0
 14 10  2  0  0  0  0
 14 19  1  0  0  0  0
 15 21  1  0  0  0  0
 15  2  2  0  0  0  0
 16 10  1  0  0  0  0
 19  7  1  0  0  0  0
 20  8  1  0  0  0  0
 20 19  2  0  0  0  0
 21 12  2  0  0  0  0
 22 23  1  0  0  0  0
 23 18  1  0  0  0  0
 24 31  1  0  0  0  0
 25 30  2  0  0  0  0
 27 24  1  0  0  0  0
 28 25  1  0  0  0  0
 28 24  2  0  0  0  0
 29 26  1  0  0  0  0
 30  5  1  0  0  0  0
 30 29  1  0  0  0  0
 31 29  2  0  0  0  0
M  END
>  <MODEL>
8

>  <REMARK>
 VINA RESULT:      -9.2      1.597      2.274
  Name = 
  1 active torsions:
  status: ('A' for Active; 'I' for Inactive)
    1  A    between atoms: C_9  and  C_22
                            x       y       z     vdW  Elec       q    Type
                         _______ _______ _______ _____ _____    ______ ____

>  <TORSDO>
F 1

$$$$
=
 OpenBabel11052413053D

 31 35  0  0  1  0  0  0  0  0999 V2000
  191.1320  176.9360  145.4120 C   0  0  0  0  0  0  0  0  0  0  0  0
  189.2540  177.5420  142.2050 C   0  0  0  0  0  0  0  0  0  0  0  0
  190.1960  177.4390  141.1380 C   0  0  0  0  0  0  0  0  0  0  0  0
  184.6340  178.2440  144.6310 O   0  0  0  0  0  0  0  0  0  0  0  0
  184.4640  178.3850  143.3900 C   0  0  0  0  0  0  0  0  0  0  0  0
  192.5650  177.4010  140.2350 C   0  0  1  0  0  3  0  0  0  0  0  0
  189.5680  177.3690  143.5860 C   0  0  0  0  0  0  0  0  0  0  0  0
  190.1010  177.0510  146.3420 C   0  0  0  0  0  3  0  0  0  0  0  0
  191.6270  177.0020  141.3660 C   0  0  0  0  0  2  0  0  0  0  0  0
  186.9280  177.9470  142.8580 C   0  0  0  0  0  0  0  0  0  0  0  0
  192.3940  176.6690  145.8280 F   0  0  0  0  0  0  0  0  0  0  0  0
  188.4470  177.9340  139.5780 N   0  0  0  0  0  0  0  0  0  0  0  0
  193.9240  176.7770  140.4650 C   0  0  0  0  0  1  0  0  0  0  0  0
  187.2660  177.7690  144.1600 N   0  0  0  0  0  0  0  0  0  0  0  0
  187.9100  177.8410  141.8640 C   0  0  0  0  0  0  0  0  0  0  0  0
  185.5730  178.2450  142.4900 N   0  0  0  0  0  2  0  0  0  0  0  0
  190.8670  177.0950  144.0500 C   0  0  0  0  0  3  0  0  0  0  0  0
  191.9900  176.9020  138.9240 C   0  0  0  0  0  2  0  0  0  0  0  0
  188.5320  177.4890  144.5480 C   0  0  0  0  0  0  0  0  0  0  0  0
  188.8040  177.3280  145.9100 C   0  0  0  0  0  3  0  0  0  0  0  0
  187.5610  178.0250  140.5650 N   0  0  0  0  0  0  0  0  0  0  0  0
  189.7470  177.6350  139.8110 C   0  0  0  0  0  0  0  0  0  0  0  0
  190.6880  177.6370  138.6370 C   0  0  0  0  0  2  0  0  0  0  0  0
  180.5380  179.3020  141.9120 C   0  0  0  0  0  0  0  0  0  0  0  0
  182.0960  179.0430  143.7410 C   0  0  0  0  0  3  0  0  0  0  0  0
  183.8040  178.3200  140.5290 O   0  0  0  0  0  1  0  0  0  0  0  0
  178.9310  179.6800  141.3310 Cl  0  0  0  0  0  0  0  0  0  0  0  0
  180.8130  179.3450  143.2790 C   0  0  0  0  0  3  0  0  0  0  0  0
  182.8320  178.6570  141.4640 C   0  0  0  0  0  0  0  0  0  0  0  0
  183.1210  178.6960  142.8470 C   0  0  0  0  0  0  0  0  0  0  0  0
  181.5440  178.9590  141.0090 C   0  0  0  0  0  3  0  0  0  0  0  0
  1 11  1  0  0  0  0
  1  8  1  0  0  0  0
  2  7  1  0  0  0  0
  3  9  1  0  0  0  0
  3  2  2  0  0  0  0
  5  4  2  0  0  0  0
  6 13  1  1  0  0  0
  6  9  1  0  0  0  0
  7 17  1  0  0  0  0
  7 19  2  0  0  0  0
 10 14  2  0  0  0  0
 12 22  2  0  0  0  0
 12 21  1  0  0  0  0
 14 19  1  0  0  0  0
 15  2  1  0  0  0  0
 15 10  1  0  0  0  0
 16 10  1  0  0  0  0
 16  5  1  0  0  0  0
 17  1  2  0  0  0  0
 18  6  1  0  0  0  0
 19 20  1  0  0  0  0
 20  8  2  0  0  0  0
 21 15  2  0  0  0  0
 22  3  1  0  0  0  0
 23 18  1  0  0  0  0
 23 22  1  0  0  0  0
 24 28  1  0  0  0  0
 26 29  1  0  0  0  0
 27 24  1  0  0  0  0
 28 25  2  0  0  0  0
 29 30  2  0  0  0  0
 30  5  1  0  0  0  0
 30 25  1  0  0  0  0
 31 29  1  0  0  0  0
 31 24  2  0  0  0  0
M  END
>  <MODEL>
9

>  <REMARK>
 VINA RESULT:      -9.0      4.435      8.291
  Name = 
  1 active torsions:
  status: ('A' for Active; 'I' for Inactive)
    1  A    between atoms: C_9  and  C_22
                            x       y       z     vdW  Elec       q    Type
                         _______ _______ _______ _____ _____    ______ ____

>  <TORSDO>
F 1

$$$$
