=
 OpenBabel11052414033D

 34 37  0  0  1  0  0  0  0  0999 V2000
  182.7070  177.0680  136.2080 C   0  0  1  0  0  3  0  0  0  0  0  0
  184.5100  175.2910  136.8020 C   0  0  2  0  0  3  0  0  0  0  0  0
  188.6220  174.8990  135.2950 C   0  0  0  0  0  2  0  0  0  0  0  0
  184.9780  177.7820  137.0430 C   0  0  1  0  0  3  0  0  0  0  0  0
  186.7990  177.1010  134.9090 O   0  0  0  0  0  1  0  0  0  0  0  0
  180.6430  177.5140  137.5520 C   0  0  0  0  0  1  0  0  0  0  0  0
  183.9350  174.2260  135.8770 C   0  0  0  0  0  1  0  0  0  0  0  0
  186.6270  176.0730  137.7180 O   0  0  0  0  0  0  0  0  0  0  0  0
  190.0100  173.5490  136.6070 C   0  0  0  0  0  1  0  0  0  0  0  0
  188.7450  174.2610  136.5990 N   0  0  0  0  0  0  0  0  0  0  0  0
  184.2020  176.7030  136.2550 C   0  0  2  0  0  3  0  0  0  0  0  0
  189.3240  176.2560  135.2440 C   0  0  0  0  0  2  0  0  0  0  0  0
  187.3110  177.6850  136.0230 N   0  0  0  0  0  0  0  0  0  0  0  0
  181.9810  176.1760  135.4150 O   0  0  0  0  0  1  0  0  0  0  0  0
  186.4490  173.7400  137.3640 C   0  0  0  0  0  2  0  0  0  0  0  0
  184.3480  178.0180  138.4400 C   0  0  2  0  0  3  0  0  0  0  0  0
  182.1210  177.1690  137.6130 C   0  0  2  0  0  3  0  0  0  0  0  0
  186.0330  175.1210  136.8720 C   0  0  1  0  0  3  0  0  0  0  0  0
  188.7540  177.3450  136.1840 C   0  0  1  0  0  3  0  0  0  0  0  0
  186.4540  177.3700  137.1890 C   0  0  1  0  0  3  0  0  0  0  0  0
  182.8450  178.2780  138.3630 C   0  0  0  0  0  2  0  0  0  0  0  0
  187.7020  173.2440  136.6450 C   0  0  0  0  0  2  0  0  0  0  0  0
  189.2900  177.2990  137.6310 C   0  0  0  0  0  3  0  0  0  0  0  0
  189.1490  178.6490  138.3080 C   0  0  0  0  0  1  0  0  0  0  0  0
  190.7550  176.8910  137.6870 C   0  0  0  0  0  1  0  0  0  0  0  0
  184.2640  180.3290  139.1210 O   0  0  0  0  0  1  0  0  0  0  0  0
  185.0040  179.1510  139.2420 C   0  0  1  0  0  3  0  0  0  0  0  0
  184.5140  178.6010  142.9720 C   0  0  0  0  0  0  0  0  0  0  0  0
  185.8020  178.2430  143.3810 C   0  0  0  0  0  3  0  0  0  0  0  0
  185.2910  178.8080  140.6800 C   0  0  0  0  0  0  0  0  0  0  0  0
  186.8360  178.1580  142.4430 C   0  0  0  0  0  3  0  0  0  0  0  0
  184.2590  178.8760  141.6260 C   0  0  0  0  0  3  0  0  0  0  0  0
  186.5820  178.4460  141.0990 C   0  0  0  0  0  3  0  0  0  0  0  0
  183.4140  178.6870  143.9690 C   0  0  0  0  0  1  0  0  0  0  0  0
  1 14  1  6  0  0  0
  1 11  1  0  0  0  0
  1 17  1  0  0  0  0
  2  7  1  6  0  0  0
  2 18  1  0  0  0  0
  3 10  1  0  0  0  0
  4 20  1  0  0  0  0
  4 16  1  0  0  0  0
  5 13  1  0  0  0  0
  6 17  1  0  0  0  0
 10  9  1  0  0  0  0
 10 22  1  0  0  0  0
 11  2  1  0  0  0  0
 11  4  1  0  0  0  0
 12  3  1  0  0  0  0
 12 19  1  0  0  0  0
 13 19  1  0  0  0  0
 13 20  1  0  0  0  0
 16 27  1  0  0  0  0
 17 21  1  0  0  0  0
 18 15  1  0  0  0  0
 18  8  1  0  0  0  0
 19 23  1  0  0  0  0
 20  8  1  0  0  0  0
 21 16  1  0  0  0  0
 22 15  1  0  0  0  0
 23 25  1  0  0  0  0
 23 24  1  0  0  0  0
 26 27  1  0  0  0  0
 27 30  1  0  0  0  0
 28 29  1  0  0  0  0
 28 34  1  0  0  0  0
 30 33  2  0  0  0  0
 30 32  1  0  0  0  0
 31 29  2  0  0  0  0
 32 28  2  0  0  0  0
 33 31  1  0  0  0  0
M  END
>  <MODEL>
1

>  <REMARK>
 VINA RESULT:      -7.4      0.000      0.000
  Name = 
  3 active torsions:
  status: ('A' for Active; 'I' for Inactive)
    1  A    between atoms: C_12  and  C_28
    2  A    between atoms: C_13  and  C_29
    3  A    between atoms: C_21  and  C_28
                            x       y       z     vdW  Elec       q    Type
                         _______ _______ _______ _____ _____    ______ ____

>  <TORSDO>
F 3

$$$$
=
 OpenBabel11052414033D

 34 37  0  0  1  0  0  0  0  0999 V2000
  182.6490  177.1330  136.1420 C   0  0  1  0  0  3  0  0  0  0  0  0
  184.4330  175.3410  136.7520 C   0  0  2  0  0  3  0  0  0  0  0  0
  188.5540  174.9140  135.2800 C   0  0  0  0  0  2  0  0  0  0  0  0
  184.9190  177.8280  136.9950 C   0  0  1  0  0  3  0  0  0  0  0  0
  186.7530  177.1300  134.8770 O   0  0  0  0  0  1  0  0  0  0  0  0
  180.5780  177.5960  137.4690 C   0  0  0  0  0  1  0  0  0  0  0  0
  183.8560  174.2800  135.8240 C   0  0  0  0  0  1  0  0  0  0  0  0
  186.5480  176.1060  137.6860 O   0  0  0  0  0  0  0  0  0  0  0  0
  189.9200  173.5530  136.6040 C   0  0  0  0  0  1  0  0  0  0  0  0
  188.6610  174.2760  136.5850 N   0  0  0  0  0  0  0  0  0  0  0  0
  184.1410  176.7550  136.2010 C   0  0  2  0  0  3  0  0  0  0  0  0
  189.2670  176.2640  135.2340 C   0  0  0  0  0  2  0  0  0  0  0  0
  187.2600  177.7100  135.9960 N   0  0  0  0  0  0  0  0  0  0  0  0
  181.9230  176.2450  135.3440 O   0  0  0  0  0  1  0  0  0  0  0  0
  186.3540  173.7740  137.3310 C   0  0  0  0  0  2  0  0  0  0  0  0
  184.2800  178.0700  138.3870 C   0  0  2  0  0  3  0  0  0  0  0  0
  182.0530  177.2390  137.5420 C   0  0  2  0  0  3  0  0  0  0  0  0
  185.9540  175.1580  136.8350 C   0  0  1  0  0  3  0  0  0  0  0  0
  188.6980  177.3590  136.1690 C   0  0  1  0  0  3  0  0  0  0  0  0
  186.3910  177.4040  137.1540 C   0  0  1  0  0  3  0  0  0  0  0  0
  182.7790  178.3420  138.2970 C   0  0  0  0  0  2  0  0  0  0  0  0
  187.6090  173.2680  136.6240 C   0  0  0  0  0  2  0  0  0  0  0  0
  189.2220  177.3100  137.6200 C   0  0  0  0  0  3  0  0  0  0  0  0
  189.0890  178.6620  138.2940 C   0  0  0  0  0  1  0  0  0  0  0  0
  190.6820  176.8880  137.6880 C   0  0  0  0  0  1  0  0  0  0  0  0
  184.1750  180.3640  139.1190 O   0  0  0  0  0  1  0  0  0  0  0  0
  184.9380  179.1980  139.1930 C   0  0  1  0  0  3  0  0  0  0  0  0
  186.9250  178.1690  142.2680 C   0  0  0  0  0  0  0  0  0  0  0  0
  185.9230  178.0740  143.2380 C   0  0  0  0  0  3  0  0  0  0  0  0
  185.2730  178.8310  140.6150 C   0  0  0  0  0  0  0  0  0  0  0  0
  184.5960  178.3630  142.9050 C   0  0  0  0  0  3  0  0  0  0  0  0
  186.6010  178.5520  140.9630 C   0  0  0  0  0  3  0  0  0  0  0  0
  184.2710  178.7330  141.5960 C   0  0  0  0  0  3  0  0  0  0  0  0
  188.3360  177.8660  142.6230 C   0  0  0  0  0  1  0  0  0  0  0  0
  1 14  1  6  0  0  0
  1 11  1  0  0  0  0
  1 17  1  0  0  0  0
  2  7  1  6  0  0  0
  2 18  1  0  0  0  0
  3 10  1  0  0  0  0
  4 20  1  0  0  0  0
  4 16  1  0  0  0  0
  5 13  1  0  0  0  0
  6 17  1  0  0  0  0
 10  9  1  0  0  0  0
 10 22  1  0  0  0  0
 11  2  1  0  0  0  0
 11  4  1  0  0  0  0
 12  3  1  0  0  0  0
 12 19  1  0  0  0  0
 13 19  1  0  0  0  0
 13 20  1  0  0  0  0
 16 27  1  0  0  0  0
 17 21  1  0  0  0  0
 18 15  1  0  0  0  0
 18  8  1  0  0  0  0
 19 23  1  0  0  0  0
 20  8  1  0  0  0  0
 21 16  1  0  0  0  0
 22 15  1  0  0  0  0
 23 25  1  0  0  0  0
 23 24  1  0  0  0  0
 26 27  1  0  0  0  0
 27 30  1  0  0  0  0
 28 34  1  0  0  0  0
 28 29  1  0  0  0  0
 30 32  1  0  0  0  0
 30 33  2  0  0  0  0
 31 29  2  0  0  0  0
 32 28  2  0  0  0  0
 33 31  1  0  0  0  0
M  END
>  <MODEL>
2

>  <REMARK>
 VINA RESULT:      -7.4      0.302      1.218
  Name = 
  3 active torsions:
  status: ('A' for Active; 'I' for Inactive)
    1  A    between atoms: C_12  and  C_28
    2  A    between atoms: C_13  and  C_29
    3  A    between atoms: C_21  and  C_28
                            x       y       z     vdW  Elec       q    Type
                         _______ _______ _______ _____ _____    ______ ____

>  <TORSDO>
F 3

$$$$
=
 OpenBabel11052414033D

 34 37  0  0  1  0  0  0  0  0999 V2000
  180.7480  179.1160  141.4700 C   0  0  1  0  0  3  0  0  0  0  0  0
  180.9460  176.8450  140.2180 C   0  0  2  0  0  3  0  0  0  0  0  0
  181.8690  176.0810  135.9880 C   0  0  0  0  0  2  0  0  0  0  0  0
  182.8430  178.5440  140.1860 C   0  0  1  0  0  3  0  0  0  0  0  0
  182.0450  178.5830  137.4120 O   0  0  0  0  0  1  0  0  0  0  0  0
  180.7960  179.3840  143.9580 C   0  0  0  0  0  1  0  0  0  0  0  0
  179.4430  176.6700  140.0530 C   0  0  0  0  0  1  0  0  0  0  0  0
  183.0550  176.3310  139.1120 O   0  0  0  0  0  0  0  0  0  0  0  0
  182.5560  173.8940  135.5250 C   0  0  0  0  0  1  0  0  0  0  0  0
  182.3430  174.8470  136.5990 N   0  0  0  0  0  0  0  0  0  0  0  0
  181.3120  178.3460  140.2620 C   0  0  2  0  0  3  0  0  0  0  0  0
  183.0170  176.9670  135.5030 C   0  0  0  0  0  2  0  0  0  0  0  0
  183.3410  178.2960  137.7000 N   0  0  0  0  0  0  0  0  0  0  0  0
  179.3530  179.0520  141.5180 O   0  0  0  0  0  1  0  0  0  0  0  0
  181.3320  174.7300  138.8560 C   0  0  0  0  0  2  0  0  0  0  0  0
  183.5220  178.1800  141.5320 C   0  0  2  0  0  3  0  0  0  0  0  0
  181.3720  178.6280  142.7740 C   0  0  2  0  0  3  0  0  0  0  0  0
  181.6570  176.2090  139.0170 C   0  0  1  0  0  3  0  0  0  0  0  0
  183.9650  177.5030  136.6030 C   0  0  1  0  0  3  0  0  0  0  0  0
  183.4300  177.6900  139.0480 C   0  0  1  0  0  3  0  0  0  0  0  0
  182.8710  178.8860  142.7200 C   0  0  0  0  0  2  0  0  0  0  0  0
  181.2260  174.3370  137.3840 C   0  0  0  0  0  2  0  0  0  0  0  0
  185.0940  176.5340  137.0140 C   0  0  0  0  0  3  0  0  0  0  0  0
  186.2750  177.2890  137.5940 C   0  0  0  0  0  1  0  0  0  0  0  0
  185.5930  175.7040  135.8410 C   0  0  0  0  0  1  0  0  0  0  0  0
  185.3080  179.7530  141.1460 O   0  0  0  0  0  1  0  0  0  0  0  0
  185.0330  178.4500  141.5660 C   0  0  1  0  0  3  0  0  0  0  0  0
  185.6690  178.2350  145.3090 C   0  0  0  0  0  0  0  0  0  0  0  0
  186.9190  177.6120  145.3520 C   0  0  0  0  0  3  0  0  0  0  0  0
  185.6910  178.1300  142.8820 C   0  0  0  0  0  0  0  0  0  0  0  0
  187.5570  177.2380  144.1650 C   0  0  0  0  0  3  0  0  0  0  0  0
  185.0550  178.4870  144.0790 C   0  0  0  0  0  3  0  0  0  0  0  0
  186.9480  177.5030  142.9340 C   0  0  0  0  0  3  0  0  0  0  0  0
  184.9890  178.6280  146.5710 C   0  0  0  0  0  1  0  0  0  0  0  0
  1 14  1  1  0  0  0
  1 17  1  0  0  0  0
  2  7  1  6  0  0  0
  2 11  1  0  0  0  0
  3 10  1  0  0  0  0
  4 11  1  0  0  0  0
  4 16  1  0  0  0  0
  5 13  1  0  0  0  0
  9 10  1  0  0  0  0
 10 22  1  0  0  0  0
 11  1  1  0  0  0  0
 12  3  1  0  0  0  0
 12 19  1  0  0  0  0
 13 20  1  0  0  0  0
 15 18  1  0  0  0  0
 16 27  1  0  0  0  0
 16 21  1  0  0  0  0
 17  6  1  0  0  0  0
 18  8  1  0  0  0  0
 18  2  1  0  0  0  0
 19 23  1  0  0  0  0
 19 13  1  0  0  0  0
 20  8  1  0  0  0  0
 20  4  1  0  0  0  0
 21 17  1  0  0  0  0
 22 15  1  0  0  0  0
 23 24  1  0  0  0  0
 25 23  1  0  0  0  0
 26 27  1  0  0  0  0
 27 30  1  0  0  0  0
 28 29  1  0  0  0  0
 28 34  1  0  0  0  0
 30 33  2  0  0  0  0
 30 32  1  0  0  0  0
 31 29  2  0  0  0  0
 32 28  2  0  0  0  0
 33 31  1  0  0  0  0
M  END
>  <MODEL>
3

>  <REMARK>
 VINA RESULT:      -7.1      2.815      4.861
  Name = 
  3 active torsions:
  status: ('A' for Active; 'I' for Inactive)
    1  A    between atoms: C_12  and  C_28
    2  A    between atoms: C_13  and  C_29
    3  A    between atoms: C_21  and  C_28
                            x       y       z     vdW  Elec       q    Type
                         _______ _______ _______ _____ _____    ______ ____

>  <TORSDO>
F 3

$$$$
=
 OpenBabel11052414033D

 34 37  0  0  1  0  0  0  0  0999 V2000
  186.0810  177.5090  136.4660 C   0  0  1  0  0  3  0  0  0  0  0  0
  187.2580  175.1900  136.5080 C   0  0  2  0  0  3  0  0  0  0  0  0
  191.0180  173.9520  134.5950 C   0  0  0  0  0  2  0  0  0  0  0  0
  188.4770  177.3060  137.2290 C   0  0  1  0  0  3  0  0  0  0  0  0
  189.9580  176.6230  134.8470 O   0  0  0  0  0  1  0  0  0  0  0  0
  184.2820  178.2270  138.0510 C   0  0  0  0  0  1  0  0  0  0  0  0
  186.3640  174.5860  135.4320 C   0  0  0  0  0  1  0  0  0  0  0  0
  189.5300  175.0780  137.3790 O   0  0  0  0  0  0  0  0  0  0  0  0
  191.9460  171.9880  135.4630 C   0  0  0  0  0  1  0  0  0  0  0  0
  190.9630  173.0260  135.7180 N   0  0  0  0  0  0  0  0  0  0  0  0
  187.3910  176.7170  136.3020 C   0  0  2  0  0  3  0  0  0  0  0  0
  192.1040  175.0130  134.7720 C   0  0  0  0  0  2  0  0  0  0  0  0
  190.6460  176.7570  136.0110 N   0  0  0  0  0  0  0  0  0  0  0  0
  185.1000  177.0780  135.5690 O   0  0  0  0  0  1  0  0  0  0  0  0
  188.6330  173.0490  136.5540 C   0  0  0  0  0  2  0  0  0  0  0  0
  187.9770  177.3920  138.6950 C   0  0  2  0  0  3  0  0  0  0  0  0
  185.5820  177.4550  137.9060 C   0  0  2  0  0  3  0  0  0  0  0  0
  188.6550  174.5650  136.4050 C   0  0  1  0  0  3  0  0  0  0  0  0
  191.9160  175.9770  135.9680 C   0  0  1  0  0  3  0  0  0  0  0  0
  189.7560  176.4530  137.1540 C   0  0  1  0  0  3  0  0  0  0  0  0
  186.6270  178.0960  138.8070 C   0  0  0  0  0  2  0  0  0  0  0  0
  189.6580  172.3820  135.6390 C   0  0  0  0  0  2  0  0  0  0  0  0
  192.4390  175.4440  137.3190 C   0  0  0  0  0  3  0  0  0  0  0  0
  192.7220  176.5820  138.2810 C   0  0  0  0  0  1  0  0  0  0  0  0
  193.7140  174.6290  137.1590 C   0  0  0  0  0  1  0  0  0  0  0  0
  188.7160  179.4340  139.7390 O   0  0  0  0  0  1  0  0  0  0  0  0
  188.9660  178.0640  139.6570 C   0  0  1  0  0  3  0  0  0  0  0  0
  188.1250  177.1380  143.2480 C   0  0  0  0  0  0  0  0  0  0  0  0
  189.1890  176.2960  143.5840 C   0  0  0  0  0  3  0  0  0  0  0  0
  189.0430  177.4200  141.0170 C   0  0  0  0  0  0  0  0  0  0  0  0
  190.1770  176.0050  142.6380 C   0  0  0  0  0  3  0  0  0  0  0  0
  188.0490  177.6930  141.9680 C   0  0  0  0  0  3  0  0  0  0  0  0
  190.1080  176.5720  141.3620 C   0  0  0  0  0  3  0  0  0  0  0  0
  187.0720  177.4420  144.2520 C   0  0  0  0  0  1  0  0  0  0  0  0
  1 14  1  6  0  0  0
  1 17  1  0  0  0  0
  2  7  1  6  0  0  0
  3 12  1  0  0  0  0
  3 10  1  0  0  0  0
  4 16  1  0  0  0  0
  5 13  1  0  0  0  0
  9 10  1  0  0  0  0
 11  1  1  0  0  0  0
 11  2  1  0  0  0  0
 11  4  1  0  0  0  0
 12 19  1  0  0  0  0
 13 20  1  0  0  0  0
 16 21  1  0  0  0  0
 16 27  1  0  0  0  0
 17  6  1  0  0  0  0
 17 21  1  0  0  0  0
 18  2  1  0  0  0  0
 18 15  1  0  0  0  0
 18  8  1  0  0  0  0
 19 13  1  0  0  0  0
 19 23  1  0  0  0  0
 20  4  1  0  0  0  0
 20  8  1  0  0  0  0
 22 10  1  0  0  0  0
 22 15  1  0  0  0  0
 23 24  1  0  0  0  0
 25 23  1  0  0  0  0
 27 26  1  0  0  0  0
 27 30  1  0  0  0  0
 28 29  1  0  0  0  0
 28 34  1  0  0  0  0
 30 33  2  0  0  0  0
 30 32  1  0  0  0  0
 31 29  2  0  0  0  0
 32 28  2  0  0  0  0
 33 31  1  0  0  0  0
M  END
>  <MODEL>
4

>  <REMARK>
 VINA RESULT:      -6.8      2.363      3.476
  Name = 
  3 active torsions:
  status: ('A' for Active; 'I' for Inactive)
    1  A    between atoms: C_12  and  C_28
    2  A    between atoms: C_13  and  C_29
    3  A    between atoms: C_21  and  C_28
                            x       y       z     vdW  Elec       q    Type
                         _______ _______ _______ _____ _____    ______ ____

>  <TORSDO>
F 3

$$$$
=
 OpenBabel11052414033D

 34 37  0  0  1  0  0  0  0  0999 V2000
  189.4860  177.7180  137.1090 C   0  0  1  0  0  3  0  0  0  0  0  0
  190.1570  175.2430  136.6780 C   0  0  2  0  0  3  0  0  0  0  0  0
  193.9110  173.6290  135.0550 C   0  0  0  0  0  2  0  0  0  0  0  0
  191.5950  176.7720  138.1210 C   0  0  1  0  0  3  0  0  0  0  0  0
  193.3610  176.3370  135.8790 O   0  0  0  0  0  1  0  0  0  0  0  0
  187.5800  178.4500  138.5570 C   0  0  0  0  0  1  0  0  0  0  0  0
  189.3970  175.1420  135.3620 C   0  0  0  0  0  1  0  0  0  0  0  0
  192.1430  174.3860  137.7990 O   0  0  0  0  0  0  0  0  0  0  0  0
  194.2480  171.3520  135.4720 C   0  0  0  0  0  1  0  0  0  0  0  0
  193.4540  172.5040  135.8600 N   0  0  0  0  0  0  0  0  0  0  0  0
  190.6230  176.6970  136.9220 C   0  0  2  0  0  3  0  0  0  0  0  0
  195.1240  174.3260  135.6690 C   0  0  0  0  0  2  0  0  0  0  0  0
  193.8150  176.0230  137.1200 N   0  0  0  0  0  0  0  0  0  0  0  0
  188.6400  177.7600  135.9980 O   0  0  0  0  0  1  0  0  0  0  0  0
  191.0530  172.8860  136.3290 C   0  0  0  0  0  2  0  0  0  0  0  0
  190.8380  176.6250  139.4660 C   0  0  2  0  0  3  0  0  0  0  0  0
  188.7070  177.4450  138.3920 C   0  0  2  0  0  3  0  0  0  0  0  0
  191.3980  174.3440  136.6080 C   0  0  1  0  0  3  0  0  0  0  0  0
  194.8920  174.9960  137.0460 C   0  0  1  0  0  3  0  0  0  0  0  0
  192.6720  175.6800  137.9960 C   0  0  1  0  0  3  0  0  0  0  0  0
  189.6550  177.5860  139.5740 C   0  0  0  0  0  2  0  0  0  0  0  0
  192.0910  172.2290  135.4220 C   0  0  0  0  0  2  0  0  0  0  0  0
  195.0200  174.0480  138.2580 C   0  0  0  0  0  3  0  0  0  0  0  0
  195.5020  174.7970  139.4850 C   0  0  0  0  0  1  0  0  0  0  0  0
  195.9860  172.9040  137.9910 C   0  0  0  0  0  1  0  0  0  0  0  0
  192.7840  177.6640  140.4390 O   0  0  0  0  0  1  0  0  0  0  0  0
  191.7260  176.7940  140.7070 C   0  0  1  0  0  3  0  0  0  0  0  0
  189.0030  176.9760  143.3560 C   0  0  0  0  0  0  0  0  0  0  0  0
  189.5240  177.9280  144.2370 C   0  0  0  0  0  3  0  0  0  0  0  0
  190.9780  177.1800  141.9560 C   0  0  0  0  0  0  0  0  0  0  0  0
  190.7740  178.5030  143.9880 C   0  0  0  0  0  3  0  0  0  0  0  0
  189.7300  176.6000  142.2230 C   0  0  0  0  0  3  0  0  0  0  0  0
  191.4950  178.1350  142.8480 C   0  0  0  0  0  3  0  0  0  0  0  0
  187.6760  176.3620  143.6230 C   0  0  0  0  0  1  0  0  0  0  0  0
  1 14  1  6  0  0  0
  1 17  1  0  0  0  0
  2  7  1  6  0  0  0
  2 11  1  0  0  0  0
  3 12  1  0  0  0  0
  3 10  1  0  0  0  0
  4 16  1  0  0  0  0
  5 13  1  0  0  0  0
  8 20  1  0  0  0  0
  9 10  1  0  0  0  0
 11  1  1  0  0  0  0
 11  4  1  0  0  0  0
 12 19  1  0  0  0  0
 13 20  1  0  0  0  0
 15 18  1  0  0  0  0
 16 21  1  0  0  0  0
 16 27  1  0  0  0  0
 17  6  1  0  0  0  0
 17 21  1  0  0  0  0
 18  2  1  0  0  0  0
 18  8  1  0  0  0  0
 19 13  1  0  0  0  0
 19 23  1  0  0  0  0
 20  4  1  0  0  0  0
 22 10  1  0  0  0  0
 22 15  1  0  0  0  0
 23 24  1  0  0  0  0
 25 23  1  0  0  0  0
 26 27  1  0  0  0  0
 27 30  1  0  0  0  0
 28 34  1  0  0  0  0
 28 29  1  0  0  0  0
 30 32  1  0  0  0  0
 30 33  2  0  0  0  0
 31 29  2  0  0  0  0
 32 28  2  0  0  0  0
 33 31  1  0  0  0  0
M  END
>  <MODEL>
5

>  <REMARK>
 VINA RESULT:      -6.7      4.002      6.161
  Name = 
  3 active torsions:
  status: ('A' for Active; 'I' for Inactive)
    1  A    between atoms: C_12  and  C_28
    2  A    between atoms: C_13  and  C_29
    3  A    between atoms: C_21  and  C_28
                            x       y       z     vdW  Elec       q    Type
                         _______ _______ _______ _____ _____    ______ ____

>  <TORSDO>
F 3

$$$$
=
 OpenBabel11052414033D

 34 37  0  0  1  0  0  0  0  0999 V2000
  188.1080  178.1370  138.8200 C   0  0  1  0  0  3  0  0  0  0  0  0
  188.4000  175.7100  137.9310 C   0  0  2  0  0  3  0  0  0  0  0  0
  191.0250  174.2240  134.7320 C   0  0  0  0  0  2  0  0  0  0  0  0
  190.3920  177.0670  138.7520 C   0  0  1  0  0  3  0  0  0  0  0  0
  191.0220  176.8410  135.9440 O   0  0  0  0  0  1  0  0  0  0  0  0
  187.0340  178.7400  140.9980 C   0  0  0  0  0  1  0  0  0  0  0  0
  187.1520  175.7530  137.0600 C   0  0  0  0  0  1  0  0  0  0  0  0
  190.6230  174.7200  138.0220 O   0  0  0  0  0  0  0  0  0  0  0  0
  191.3820  171.9120  134.7660 C   0  0  0  0  0  1  0  0  0  0  0  0
  190.8900  173.0290  135.5530 N   0  0  0  0  0  0  0  0  0  0  0  0
  189.0030  177.1260  138.0780 C   0  0  2  0  0  3  0  0  0  0  0  0
  192.4200  174.8400  134.8310 C   0  0  0  0  0  2  0  0  0  0  0  0
  191.9390  176.3970  136.8420 N   0  0  0  0  0  0  0  0  0  0  0  0
  186.8760  178.3010  138.1820 O   0  0  0  0  0  1  0  0  0  0  0  0
  188.9360  173.3900  137.0300 C   0  0  0  0  0  2  0  0  0  0  0  0
  190.2670  176.7930  140.2730 C   0  0  2  0  0  3  0  0  0  0  0  0
  187.9300  177.7440  140.2830 C   0  0  2  0  0  3  0  0  0  0  0  0
  189.4440  174.8080  137.2610 C   0  0  1  0  0  3  0  0  0  0  0  0
  192.8270  175.3690  136.2270 C   0  0  1  0  0  3  0  0  0  0  0  0
  191.2560  175.9800  138.0870 C   0  0  1  0  0  3  0  0  0  0  0  0
  189.2940  177.7520  140.9570 C   0  0  0  0  0  2  0  0  0  0  0  0
  189.4570  172.8160  135.7140 C   0  0  0  0  0  2  0  0  0  0  0  0
  193.4020  174.3020  137.1820 C   0  0  0  0  0  3  0  0  0  0  0  0
  194.3180  174.9310  138.2140 C   0  0  0  0  0  1  0  0  0  0  0  0
  194.1890  173.2320  136.4390 C   0  0  0  0  0  1  0  0  0  0  0  0
  192.5400  177.5910  140.3360 O   0  0  0  0  0  1  0  0  0  0  0  0
  191.6030  176.8230  141.0290 C   0  0  1  0  0  3  0  0  0  0  0  0
  191.5540  176.6400  144.8270 C   0  0  0  0  0  0  0  0  0  0  0  0
  191.2170  177.9510  145.1730 C   0  0  0  0  0  3  0  0  0  0  0  0
  191.4890  177.2360  142.4730 C   0  0  0  0  0  0  0  0  0  0  0  0
  191.0230  178.9110  144.1750 C   0  0  0  0  0  3  0  0  0  0  0  0
  191.6960  176.2850  143.4820 C   0  0  0  0  0  3  0  0  0  0  0  0
  191.1520  178.5530  142.8290 C   0  0  0  0  0  3  0  0  0  0  0  0
  191.7650  175.6210  145.8880 C   0  0  0  0  0  1  0  0  0  0  0  0
  1 14  1  6  0  0  0
  1 17  1  0  0  0  0
  2  7  1  6  0  0  0
  2 11  1  0  0  0  0
  3 12  1  0  0  0  0
  3 10  1  0  0  0  0
  4 16  1  0  0  0  0
  5 13  1  0  0  0  0
  8 20  1  0  0  0  0
  9 10  1  0  0  0  0
 10 22  1  0  0  0  0
 11  4  1  0  0  0  0
 11  1  1  0  0  0  0
 12 19  1  0  0  0  0
 13 20  1  0  0  0  0
 15 18  1  0  0  0  0
 16 21  1  0  0  0  0
 16 27  1  0  0  0  0
 17 21  1  0  0  0  0
 17  6  1  0  0  0  0
 18  2  1  0  0  0  0
 18  8  1  0  0  0  0
 19 13  1  0  0  0  0
 19 23  1  0  0  0  0
 20  4  1  0  0  0  0
 22 15  1  0  0  0  0
 23 24  1  0  0  0  0
 25 23  1  0  0  0  0
 26 27  1  0  0  0  0
 27 30  1  0  0  0  0
 28 29  1  0  0  0  0
 28 34  1  0  0  0  0
 30 33  2  0  0  0  0
 30 32  1  0  0  0  0
 31 29  2  0  0  0  0
 32 28  2  0  0  0  0
 33 31  1  0  0  0  0
M  END
>  <MODEL>
6

>  <REMARK>
 VINA RESULT:      -6.6      3.525      5.583
  Name = 
  3 active torsions:
  status: ('A' for Active; 'I' for Inactive)
    1  A    between atoms: C_12  and  C_28
    2  A    between atoms: C_13  and  C_29
    3  A    between atoms: C_21  and  C_28
                            x       y       z     vdW  Elec       q    Type
                         _______ _______ _______ _____ _____    ______ ____

>  <TORSDO>
F 3

$$$$
=
 OpenBabel11052414033D

 34 37  0  0  1  0  0  0  0  0999 V2000
  182.9970  178.3120  138.1410 C   0  0  1  0  0  3  0  0  0  0  0  0
  184.4940  176.2370  137.6740 C   0  0  2  0  0  3  0  0  0  0  0  0
  187.9880  175.8750  135.0300 C   0  0  0  0  0  2  0  0  0  0  0  0
  185.4950  178.4370  138.4740 C   0  0  1  0  0  3  0  0  0  0  0  0
  186.6060  178.2820  135.8140 O   0  0  0  0  0  1  0  0  0  0  0  0
  181.4280  178.5340  140.0780 C   0  0  0  0  0  1  0  0  0  0  0  0
  183.5210  175.6110  136.6830 C   0  0  0  0  0  1  0  0  0  0  0  0
  186.8770  176.4180  138.1440 O   0  0  0  0  0  0  0  0  0  0  0  0
  189.3400  174.0150  135.4580 C   0  0  0  0  0  1  0  0  0  0  0  0
  188.2760  174.8360  136.0080 N   0  0  0  0  0  0  0  0  0  0  0  0
  184.3590  177.7770  137.6610 C   0  0  2  0  0  3  0  0  0  0  0  0
  188.9170  177.0800  135.1730 C   0  0  0  0  0  2  0  0  0  0  0  0
  187.4650  178.4030  136.8580 N   0  0  0  0  0  0  0  0  0  0  0  0
  181.9460  177.8220  137.3630 O   0  0  0  0  0  1  0  0  0  0  0  0
  186.1580  174.3690  137.2030 C   0  0  0  0  0  2  0  0  0  0  0  0
  185.2610  178.2750  139.9980 C   0  0  2  0  0  3  0  0  0  0  0  0
  182.7810  178.0150  139.6210 C   0  0  2  0  0  3  0  0  0  0  0  0
  185.9270  175.8740  137.2620 C   0  0  1  0  0  3  0  0  0  0  0  0
  188.8080  177.8610  136.5050 C   0  0  1  0  0  3  0  0  0  0  0  0
  186.8520  177.8280  138.0770 C   0  0  1  0  0  3  0  0  0  0  0  0
  183.8640  178.7230  140.4220 C   0  0  0  0  0  2  0  0  0  0  0  0
  187.0880  173.9910  136.0530 C   0  0  0  0  0  2  0  0  0  0  0  0
  189.6400  177.2790  137.6680 C   0  0  0  0  0  3  0  0  0  0  0  0
  189.8900  178.3260  138.7360 C   0  0  0  0  0  1  0  0  0  0  0  0
  190.9870  176.7480  137.2000 C   0  0  0  0  0  1  0  0  0  0  0  0
  185.7240  180.1030  141.4990 O   0  0  0  0  0  1  0  0  0  0  0  0
  186.2970  178.9960  140.8720 C   0  0  1  0  0  3  0  0  0  0  0  0
  188.9870  176.8130  142.4410 C   0  0  0  0  0  0  0  0  0  0  0  0
  188.3570  176.3780  143.6110 C   0  0  0  0  0  3  0  0  0  0  0  0
  187.0140  178.1020  141.8490 C   0  0  0  0  0  0  0  0  0  0  0  0
  187.0600  176.8080  143.9090 C   0  0  0  0  0  3  0  0  0  0  0  0
  188.3200  177.6760  141.5670 C   0  0  0  0  0  3  0  0  0  0  0  0
  186.3880  177.6600  143.0270 C   0  0  0  0  0  3  0  0  0  0  0  0
  190.3670  176.3600  142.1270 C   0  0  0  0  0  1  0  0  0  0  0  0
  1 14  1  6  0  0  0
  1 17  1  0  0  0  0
  2  7  1  6  0  0  0
  3 12  1  0  0  0  0
  3 10  1  0  0  0  0
  4 16  1  0  0  0  0
  5 13  1  0  0  0  0
  9 10  1  0  0  0  0
 10 22  1  0  0  0  0
 11  2  1  0  0  0  0
 11  1  1  0  0  0  0
 11  4  1  0  0  0  0
 12 19  1  0  0  0  0
 13 20  1  0  0  0  0
 15 18  1  0  0  0  0
 16 21  1  0  0  0  0
 16 27  1  0  0  0  0
 17  6  1  0  0  0  0
 17 21  1  0  0  0  0
 18  2  1  0  0  0  0
 18  8  1  0  0  0  0
 19 13  1  0  0  0  0
 19 23  1  0  0  0  0
 20  8  1  0  0  0  0
 20  4  1  0  0  0  0
 22 15  1  0  0  0  0
 23 24  1  0  0  0  0
 25 23  1  0  0  0  0
 27 26  1  0  0  0  0
 27 30  1  0  0  0  0
 28 29  1  0  0  0  0
 29 31  2  0  0  0  0
 30 33  2  0  0  0  0
 32 30  1  0  0  0  0
 32 28  2  0  0  0  0
 33 31  1  0  0  0  0
 34 28  1  0  0  0  0
M  END
>  <MODEL>
7

>  <REMARK>
 VINA RESULT:      -6.5      1.531      2.380
  Name = 
  3 active torsions:
  status: ('A' for Active; 'I' for Inactive)
    1  A    between atoms: C_12  and  C_28
    2  A    between atoms: C_13  and  C_29
    3  A    between atoms: C_21  and  C_28
                            x       y       z     vdW  Elec       q    Type
                         _______ _______ _______ _____ _____    ______ ____

>  <TORSDO>
F 3

$$$$
=
 OpenBabel11052414033D

 34 37  0  0  1  0  0  0  0  0999 V2000
  183.8480  179.2240  139.2790 C   0  0  1  0  0  3  0  0  0  0  0  0
  184.7980  177.1910  137.9660 C   0  0  2  0  0  3  0  0  0  0  0  0
  188.1020  177.0580  135.0680 C   0  0  0  0  0  2  0  0  0  0  0  0
  186.3010  178.6520  139.4110 C   0  0  1  0  0  3  0  0  0  0  0  0
  187.3430  179.2480  136.7850 O   0  0  0  0  0  1  0  0  0  0  0  0
  182.3780  179.0600  141.2980 C   0  0  0  0  0  1  0  0  0  0  0  0
  183.7030  177.2120  136.9080 C   0  0  0  0  0  1  0  0  0  0  0  0
  187.1540  176.6440  138.2560 O   0  0  0  0  0  0  0  0  0  0  0  0
  188.9630  174.9190  134.6770 C   0  0  0  0  0  1  0  0  0  0  0  0
  188.1290  175.6940  135.5780 N   0  0  0  0  0  0  0  0  0  0  0  0
  185.0400  178.6140  138.5200 C   0  0  2  0  0  3  0  0  0  0  0  0
  189.2950  177.8820  135.5520 C   0  0  0  0  0  2  0  0  0  0  0  0
  188.2050  178.7760  137.7230 N   0  0  0  0  0  0  0  0  0  0  0  0
  182.7090  179.3070  138.4740 O   0  0  0  0  0  1  0  0  0  0  0  0
  185.9610  175.3070  136.7090 C   0  0  0  0  0  2  0  0  0  0  0  0
  186.0340  177.9940  140.7890 C   0  0  2  0  0  3  0  0  0  0  0  0
  183.5650  178.4570  140.5670 C   0  0  2  0  0  3  0  0  0  0  0  0
  186.1000  176.6940  137.3260 C   0  0  1  0  0  3  0  0  0  0  0  0
  189.3770  178.1160  137.0800 C   0  0  1  0  0  3  0  0  0  0  0  0
  187.4710  177.9440  138.7020 C   0  0  1  0  0  3  0  0  0  0  0  0
  184.7860  178.5540  141.4690 C   0  0  0  0  0  2  0  0  0  0  0  0
  186.7730  175.1830  135.4210 C   0  0  0  0  0  2  0  0  0  0  0  0
  190.0430  176.9740  137.8770 C   0  0  0  0  0  3  0  0  0  0  0  0
  190.5060  177.4570  139.2370 C   0  0  0  0  0  1  0  0  0  0  0  0
  191.2440  176.3900  137.1470 C   0  0  0  0  0  1  0  0  0  0  0  0
  187.9450  179.2540  141.5450 O   0  0  0  0  0  1  0  0  0  0  0  0
  187.2130  178.0860  141.7680 C   0  0  1  0  0  3  0  0  0  0  0  0
  185.2840  178.3900  145.0310 C   0  0  0  0  0  0  0  0  0  0  0  0
  186.1190  177.7100  145.9220 C   0  0  0  0  0  3  0  0  0  0  0  0
  186.8310  177.9260  143.2160 C   0  0  0  0  0  0  0  0  0  0  0  0
  187.3070  177.1290  145.4650 C   0  0  0  0  0  3  0  0  0  0  0  0
  185.6360  178.4920  143.6830 C   0  0  0  0  0  3  0  0  0  0  0  0
  187.6640  177.2440  144.1180 C   0  0  0  0  0  3  0  0  0  0  0  0
  184.0200  179.0030  145.5170 C   0  0  0  0  0  1  0  0  0  0  0  0
  1 14  1  6  0  0  0
  1 17  1  0  0  0  0
  2  7  1  6  0  0  0
  2 11  1  0  0  0  0
  3 12  1  0  0  0  0
  3 10  1  0  0  0  0
  4 16  1  0  0  0  0
  5 13  1  0  0  0  0
  8 20  1  0  0  0  0
  9 10  1  0  0  0  0
 11  1  1  0  0  0  0
 11  4  1  0  0  0  0
 12 19  1  0  0  0  0
 13 20  1  0  0  0  0
 15 18  1  0  0  0  0
 16 21  1  0  0  0  0
 16 27  1  0  0  0  0
 17  6  1  0  0  0  0
 17 21  1  0  0  0  0
 18  2  1  0  0  0  0
 18  8  1  0  0  0  0
 19 13  1  0  0  0  0
 19 23  1  0  0  0  0
 20  4  1  0  0  0  0
 22 10  1  0  0  0  0
 22 15  1  0  0  0  0
 23 24  1  0  0  0  0
 25 23  1  0  0  0  0
 26 27  1  0  0  0  0
 27 30  1  0  0  0  0
 28 34  1  0  0  0  0
 28 29  1  0  0  0  0
 30 32  1  0  0  0  0
 30 33  2  0  0  0  0
 31 29  2  0  0  0  0
 32 28  2  0  0  0  0
 33 31  1  0  0  0  0
M  END
>  <MODEL>
8

>  <REMARK>
 VINA RESULT:      -6.5      1.723      2.777
  Name = 
  3 active torsions:
  status: ('A' for Active; 'I' for Inactive)
    1  A    between atoms: C_12  and  C_28
    2  A    between atoms: C_13  and  C_29
    3  A    between atoms: C_21  and  C_28
                            x       y       z     vdW  Elec       q    Type
                         _______ _______ _______ _____ _____    ______ ____

>  <TORSDO>
F 3

$$$$
=
 OpenBabel11052414033D

 34 37  0  0  1  0  0  0  0  0999 V2000
  181.0710  179.8230  137.1220 C   0  0  1  0  0  3  0  0  0  0  0  0
  180.3420  177.4120  137.7710 C   0  0  2  0  0  3  0  0  0  0  0  0
  181.1400  173.6190  135.6950 C   0  0  0  0  0  2  0  0  0  0  0  0
  182.7890  177.9920  137.3690 C   0  0  1  0  0  3  0  0  0  0  0  0
  182.2930  176.2070  135.1550 O   0  0  0  0  0  1  0  0  0  0  0  0
  181.0520  181.7870  138.6730 C   0  0  0  0  0  1  0  0  0  0  0  0
  178.9310  177.5630  137.2200 C   0  0  0  0  0  1  0  0  0  0  0  0
  182.0850  175.7440  138.1080 O   0  0  0  0  0  0  0  0  0  0  0  0
  180.8280  171.7100  137.0100 C   0  0  0  0  0  1  0  0  0  0  0  0
  180.9780  173.1530  137.0650 N   0  0  0  0  0  0  0  0  0  0  0  0
  181.3260  178.3100  136.9870 C   0  0  2  0  0  3  0  0  0  0  0  0
  182.5910  173.5410  135.2230 C   0  0  0  0  0  2  0  0  0  0  0  0
  183.3070  175.9020  136.0060 N   0  0  0  0  0  0  0  0  0  0  0  0
  179.7900  180.1720  136.6860 O   0  0  0  0  0  1  0  0  0  0  0  0
  179.8570  174.9730  138.3150 C   0  0  0  0  0  2  0  0  0  0  0  0
  183.1400  178.5630  138.7670 C   0  0  2  0  0  3  0  0  0  0  0  0
  181.3220  180.2970  138.5500 C   0  0  2  0  0  3  0  0  0  0  0  0
  180.7870  175.9530  137.6100 C   0  0  1  0  0  3  0  0  0  0  0  0
  183.5960  174.4400  135.9830 C   0  0  1  0  0  3  0  0  0  0  0  0
  183.0230  176.4700  137.3430 C   0  0  1  0  0  3  0  0  0  0  0  0
  182.7810  180.0420  138.8970 C   0  0  0  0  0  2  0  0  0  0  0  0
  179.6960  173.6810  137.5170 C   0  0  0  0  0  2  0  0  0  0  0  0
  184.1520  173.8320  137.2880 C   0  0  0  0  0  3  0  0  0  0  0  0
  185.5380  174.3680  137.5920 C   0  0  0  0  0  1  0  0  0  0  0  0
  184.2360  172.3140  137.2230 C   0  0  0  0  0  1  0  0  0  0  0  0
  185.4310  179.2420  138.4490 O   0  0  0  0  0  1  0  0  0  0  0  0
  184.6100  178.3750  139.1710 C   0  0  1  0  0  3  0  0  0  0  0  0
  183.9870  178.6370  142.9130 C   0  0  0  0  0  0  0  0  0  0  0  0
  185.2890  178.6920  143.4180 C   0  0  0  0  0  3  0  0  0  0  0  0
  184.8610  178.4600  140.6540 C   0  0  0  0  0  0  0  0  0  0  0  0
  186.3810  178.6230  142.5460 C   0  0  0  0  0  3  0  0  0  0  0  0
  183.7740  178.5160  141.5370 C   0  0  0  0  0  3  0  0  0  0  0  0
  186.1670  178.5150  141.1690 C   0  0  0  0  0  3  0  0  0  0  0  0
  182.8270  178.7060  143.8400 C   0  0  0  0  0  1  0  0  0  0  0  0
  1 14  1  1  0  0  0
  1 17  1  0  0  0  0
  2  7  1  6  0  0  0
  3 10  1  0  0  0  0
  4 16  1  0  0  0  0
  5 13  1  0  0  0  0
  9 10  1  0  0  0  0
 10 22  1  0  0  0  0
 11  1  1  0  0  0  0
 11  4  1  0  0  0  0
 11  2  1  0  0  0  0
 12  3  1  0  0  0  0
 12 19  1  0  0  0  0
 13 20  1  0  0  0  0
 16 21  1  0  0  0  0
 16 27  1  0  0  0  0
 17  6  1  0  0  0  0
 17 21  1  0  0  0  0
 18  2  1  0  0  0  0
 18  8  1  0  0  0  0
 18 15  1  0  0  0  0
 19 13  1  0  0  0  0
 19 23  1  0  0  0  0
 20  4  1  0  0  0  0
 20  8  1  0  0  0  0
 22 15  1  0  0  0  0
 23 24  1  0  0  0  0
 25 23  1  0  0  0  0
 26 27  1  0  0  0  0
 27 30  1  0  0  0  0
 28 29  1  0  0  0  0
 28 34  1  0  0  0  0
 30 33  2  0  0  0  0
 30 32  1  0  0  0  0
 31 29  2  0  0  0  0
 32 28  2  0  0  0  0
 33 31  1  0  0  0  0
M  END
>  <MODEL>
9

>  <REMARK>
 VINA RESULT:      -6.0      2.848      4.838
  Name = 
  3 active torsions:
  status: ('A' for Active; 'I' for Inactive)
    1  A    between atoms: C_12  and  C_28
    2  A    between atoms: C_13  and  C_29
    3  A    between atoms: C_21  and  C_28
                            x       y       z     vdW  Elec       q    Type
                         _______ _______ _______ _____ _____    ______ ____

>  <TORSDO>
F 3

$$$$
