=
 OpenBabel11052413013D

 31 35  0  0  1  0  0  0  0  0999 V2000
  186.0490  178.1560  144.3240 C   0  0  0  0  0  0  0  0  0  0  0  0
  186.9950  177.9650  145.3800 C   0  0  0  0  0  0  0  0  0  0  0  0
  189.4560  177.4360  146.0550 C   0  0  0  0  0  2  0  0  0  0  0  0
  186.3860  177.8810  142.9230 C   0  0  0  0  0  0  0  0  0  0  0  0
  188.3160  177.2820  145.0610 C   0  0  0  0  0  2  0  0  0  0  0  0
  183.6240  178.8570  143.7560 C   0  0  0  0  0  0  0  0  0  0  0  0
  185.3350  178.7500  146.9850 C   0  0  0  0  0  3  0  0  0  0  0  0
  189.1780  176.6380  147.2230 N   0  0  0  0  0  0  0  0  0  0  0  0
  184.0160  178.5710  142.4960 C   0  0  0  0  0  0  0  0  0  0  0  0
  184.6900  178.6430  144.7040 C   0  0  0  0  0  0  0  0  0  0  0  0
  188.2850  176.9960  148.0730 C   0  0  0  0  0  3  0  0  0  0  0  0
  184.3150  178.3050  141.1530 C   0  0  0  0  0  2  0  0  0  0  0  0
  185.3290  178.1070  142.0990 C   0  0  0  0  0  0  0  0  0  0  0  0
  184.4210  178.9050  146.0040 N   0  0  0  0  0  0  0  0  0  0  0  0
  186.6130  178.2810  146.7180 C   0  0  0  0  0  0  0  0  0  0  0  0
  187.5330  178.2780  147.9050 C   0  0  0  0  0  2  0  0  0  0  0  0
  188.3880  177.9960  141.3230 C   0  0  0  0  0  0  0  0  0  0  0  0
  187.9070  178.9270  140.6250 O   0  0  0  0  0  0  0  0  0  0  0  0
  189.6640  177.4620  140.9910 N   0  0  0  0  0  1  0  0  0  0  0  0
  187.6750  177.4650  142.4470 N   0  0  0  0  0  2  0  0  0  0  0  0
  182.2500  179.3550  144.1030 C   0  0  0  0  0  2  0  0  0  0  0  0
  180.0350  178.1470  144.2410 C   0  0  0  0  0  1  0  0  0  0  0  0
  181.1290  178.6570  143.3200 C   0  0  1  0  0  3  0  0  0  0  0  0
  180.5340  179.5400  142.2290 C   0  0  0  0  0  2  0  0  0  0  0  0
  180.9460  177.0820  139.3870 C   0  0  0  0  0  0  0  0  0  0  0  0
  181.3420  179.2680  138.5450 C   0  0  0  0  0  3  0  0  0  0  0  0
  180.8520  175.6190  139.1450 C   0  0  0  0  0  1  0  0  0  0  0  0
  180.7110  177.5940  140.6650 C   0  0  0  0  0  3  0  0  0  0  0  0
  181.1140  179.8180  139.8090 C   0  0  0  0  0  3  0  0  0  0  0  0
  180.7980  178.9730  140.8760 C   0  0  0  0  0  0  0  0  0  0  0  0
  181.2540  177.9230  138.3620 N   0  0  0  0  0  0  0  0  0  0  0  0
  1 10  1  0  0  0  0
  1  2  2  0  0  0  0
  2 15  1  0  0  0  0
  3  8  1  0  0  0  0
  4  1  1  0  0  0  0
  5  2  1  0  0  0  0
  5  3  1  0  0  0  0
  6 21  1  0  0  0  0
  6 10  1  0  0  0  0
  8 11  2  0  0  0  0
  9  6  2  0  0  0  0
 10 14  2  0  0  0  0
 12 13  1  0  0  0  0
 12  9  1  0  0  0  0
 13  9  1  0  0  0  0
 13  4  2  0  0  0  0
 14  7  1  0  0  0  0
 15  7  2  0  0  0  0
 15 16  1  0  0  0  0
 16 11  1  0  0  0  0
 17 20  1  0  0  0  0
 18 17  2  0  0  0  0
 19 17  1  0  0  0  0
 20  4  1  0  0  0  0
 23 21  1  0  0  0  0
 23 22  1  1  0  0  0
 24 23  1  0  0  0  0
 25 28  1  0  0  0  0
 26 29  2  0  0  0  0
 27 25  1  0  0  0  0
 28 30  2  0  0  0  0
 29 30  1  0  0  0  0
 30 24  1  0  0  0  0
 31 26  1  0  0  0  0
 31 25  2  0  0  0  0
M  END
>  <MODEL>
1

>  <REMARK>
 VINA RESULT:      -9.9      0.000      0.000
  Name = 
  5 active torsions:
  status: ('A' for Active; 'I' for Inactive)
    1  A    between atoms: C_3  and  C_9
    2  A    between atoms: C_3  and  C_22
    3  A    between atoms: C_9  and  C_23
    4  A    between atoms: C_12  and  N_25
    5  A    between atoms: C_15  and  C_23
                            x       y       z     vdW  Elec       q    Type
                         _______ _______ _______ _____ _____    ______ ____

>  <TORSDO>
F 5

$$$$
=
 OpenBabel11052413013D

 31 35  0  0  1  0  0  0  0  0999 V2000
  187.0070  178.1050  142.0000 C   0  0  0  0  0  0  0  0  0  0  0  0
  187.9550  177.8820  140.9530 C   0  0  0  0  0  0  0  0  0  0  0  0
  188.7210  178.4430  138.5260 C   0  0  0  0  0  2  0  0  0  0  0  0
  185.7880  178.8920  141.7860 C   0  0  0  0  0  0  0  0  0  0  0  0
  187.5940  178.3100  139.5380 C   0  0  0  0  0  2  0  0  0  0  0  0
  186.4300  177.6130  144.4740 C   0  0  0  0  0  0  0  0  0  0  0  0
  189.3480  176.6190  142.5070 C   0  0  0  0  0  3  0  0  0  0  0  0
  189.1770  177.1290  138.1480 N   0  0  0  0  0  0  0  0  0  0  0  0
  185.3300  178.3420  144.1860 C   0  0  0  0  0  0  0  0  0  0  0  0
  187.3030  177.4970  143.3310 C   0  0  0  0  0  0  0  0  0  0  0  0
  189.8800  176.4160  138.9520 C   0  0  0  0  0  3  0  0  0  0  0  0
  184.1550  179.0810  144.0000 C   0  0  0  0  0  2  0  0  0  0  0  0
  185.0240  178.9500  142.9080 C   0  0  0  0  0  0  0  0  0  0  0  0
  188.4470  176.7940  143.4970 N   0  0  0  0  0  0  0  0  0  0  0  0
  189.1370  177.1330  141.2360 C   0  0  0  0  0  0  0  0  0  0  0  0
  190.2890  176.9430  140.2920 C   0  0  0  0  0  2  0  0  0  0  0  0
  184.2020  179.4550  139.8490 C   0  0  0  0  0  0  0  0  0  0  0  0
  183.2700  178.7160  140.2630 O   0  0  0  0  0  0  0  0  0  0  0  0
  184.0240  180.1970  138.6490 N   0  0  0  0  0  1  0  0  0  0  0  0
  185.4380  179.5630  140.5660 N   0  0  0  0  0  2  0  0  0  0  0  0
  186.7020  177.0220  145.8280 C   0  0  0  0  0  2  0  0  0  0  0  0
  186.2340  178.7030  147.6540 C   0  0  0  0  0  1  0  0  0  0  0  0
  187.3060  178.0210  146.8230 C   0  0  1  0  0  3  0  0  0  0  0  0
  188.3560  177.3890  147.7300 C   0  0  0  0  0  2  0  0  0  0  0  0
  191.2030  177.8990  145.2950 C   0  0  0  0  0  0  0  0  0  0  0  0
  191.7740  176.1060  146.7440 C   0  0  0  0  0  3  0  0  0  0  0  0
  191.5640  178.7880  144.1600 C   0  0  0  0  0  1  0  0  0  0  0  0
  189.9770  178.0610  145.9440 C   0  0  0  0  0  3  0  0  0  0  0  0
  190.5580  176.2370  147.4180 C   0  0  0  0  0  3  0  0  0  0  0  0
  189.6530  177.2210  147.0120 C   0  0  0  0  0  0  0  0  0  0  0  0
  192.0690  176.9330  145.7040 N   0  0  0  0  0  0  0  0  0  0  0  0
  1 10  1  0  0  0  0
  2 15  2  0  0  0  0
  2  1  1  0  0  0  0
  3  5  1  0  0  0  0
  4  1  2  0  0  0  0
  4 13  1  0  0  0  0
  5  2  1  0  0  0  0
  6 21  1  0  0  0  0
  7 14  2  0  0  0  0
  8  3  1  0  0  0  0
  8 11  2  0  0  0  0
  9  6  1  0  0  0  0
 10 14  1  0  0  0  0
 10  6  2  0  0  0  0
 11 16  1  0  0  0  0
 12  9  1  0  0  0  0
 13 12  1  0  0  0  0
 13  9  2  0  0  0  0
 15  7  1  0  0  0  0
 16 15  1  0  0  0  0
 17 18  2  0  0  0  0
 17 20  1  0  0  0  0
 19 17  1  0  0  0  0
 20  4  1  0  0  0  0
 21 23  1  0  0  0  0
 23 22  1  1  0  0  0
 23 24  1  0  0  0  0
 25 31  2  0  0  0  0
 25 28  1  0  0  0  0
 26 29  2  0  0  0  0
 27 25  1  0  0  0  0
 28 30  2  0  0  0  0
 30 29  1  0  0  0  0
 30 24  1  0  0  0  0
 31 26  1  0  0  0  0
M  END
>  <MODEL>
2

>  <REMARK>
 VINA RESULT:      -9.8      2.776      7.755
  Name = 
  5 active torsions:
  status: ('A' for Active; 'I' for Inactive)
    1  A    between atoms: C_3  and  C_9
    2  A    between atoms: C_3  and  C_22
    3  A    between atoms: C_9  and  C_23
    4  A    between atoms: C_12  and  N_25
    5  A    between atoms: C_15  and  C_23
                            x       y       z     vdW  Elec       q    Type
                         _______ _______ _______ _____ _____    ______ ____

>  <TORSDO>
F 5

$$$$
=
 OpenBabel11052413013D

 31 35  0  0  1  0  0  0  0  0999 V2000
  187.3160  178.2060  139.1660 C   0  0  0  0  0  0  0  0  0  0  0  0
  187.6350  177.9190  137.8010 C   0  0  0  0  0  0  0  0  0  0  0  0
  186.8600  177.9360  135.3130 C   0  0  0  0  0  2  0  0  0  0  0  0
  185.9660  178.6060  139.5780 C   0  0  0  0  0  0  0  0  0  0  0  0
  186.5030  177.8410  136.7880 C   0  0  0  0  0  2  0  0  0  0  0  0
  188.2410  178.3080  141.5800 C   0  0  0  0  0  0  0  0  0  0  0  0
  189.9460  177.4880  138.4510 C   0  0  0  0  0  3  0  0  0  0  0  0
  187.4870  176.7080  134.8970 N   0  0  0  0  0  0  0  0  0  0  0  0
  186.9710  178.6610  141.8710 C   0  0  0  0  0  0  0  0  0  0  0  0
  188.4160  178.0780  140.1660 C   0  0  0  0  0  0  0  0  0  0  0  0
  188.6890  176.4250  135.2490 C   0  0  0  0  0  3  0  0  0  0  0  0
  185.6860  179.0330  142.2870 C   0  0  0  0  0  2  0  0  0  0  0  0
  185.8880  178.8020  140.9200 C   0  0  0  0  0  0  0  0  0  0  0  0
  189.6540  177.7260  139.7470 N   0  0  0  0  0  0  0  0  0  0  0  0
  188.9750  177.5650  137.4630 C   0  0  0  0  0  0  0  0  0  0  0  0
  189.4970  177.3830  136.0660 C   0  0  0  0  0  2  0  0  0  0  0  0
  183.5780  178.1650  138.7480 C   0  0  0  0  0  0  0  0  0  0  0  0
  183.3170  177.3140  139.6380 O   0  0  0  0  0  0  0  0  0  0  0  0
  182.5870  178.4930  137.7830 N   0  0  0  0  0  1  0  0  0  0  0  0
  184.8560  178.8130  138.6910 N   0  0  0  0  0  2  0  0  0  0  0  0
  189.3280  178.1970  142.6110 C   0  0  0  0  0  2  0  0  0  0  0  0
  189.6860  175.7190  142.9510 C   0  0  0  0  0  1  0  0  0  0  0  0
  189.1520  177.0030  143.5600 C   0  0  1  0  0  3  0  0  0  0  0  0
  189.7810  177.2410  144.9280 C   0  0  0  0  0  2  0  0  0  0  0  0
  186.4840  178.2530  146.4780 C   0  0  0  0  0  0  0  0  0  0  0  0
  188.0960  178.0620  148.2120 C   0  0  0  0  0  3  0  0  0  0  0  0
  185.0880  178.5400  146.0590 C   0  0  0  0  0  1  0  0  0  0  0  0
  187.4410  177.9030  145.5220 C   0  0  0  0  0  3  0  0  0  0  0  0
  189.0810  177.7090  147.2870 C   0  0  0  0  0  3  0  0  0  0  0  0
  188.7490  177.6320  145.9320 C   0  0  0  0  0  0  0  0  0  0  0  0
  186.8290  178.3250  147.7930 N   0  0  0  0  0  0  0  0  0  0  0  0
  1  4  2  0  0  0  0
  1 10  1  0  0  0  0
  2  1  1  0  0  0  0
  3  5  1  0  0  0  0
  4 13  1  0  0  0  0
  5  2  1  0  0  0  0
  6  9  1  0  0  0  0
  6 21  1  0  0  0  0
  7 14  2  0  0  0  0
  8 11  2  0  0  0  0
  8  3  1  0  0  0  0
  9 12  1  0  0  0  0
 10  6  2  0  0  0  0
 11 16  1  0  0  0  0
 13  9  2  0  0  0  0
 13 12  1  0  0  0  0
 14 10  1  0  0  0  0
 15  2  2  0  0  0  0
 15  7  1  0  0  0  0
 16 15  1  0  0  0  0
 17 18  2  0  0  0  0
 19 17  1  0  0  0  0
 20 17  1  0  0  0  0
 20  4  1  0  0  0  0
 21 23  1  0  0  0  0
 23 22  1  6  0  0  0
 23 24  1  0  0  0  0
 24 30  1  0  0  0  0
 25 31  1  0  0  0  0
 27 25  1  0  0  0  0
 28 30  1  0  0  0  0
 28 25  2  0  0  0  0
 29 26  1  0  0  0  0
 30 29  2  0  0  0  0
 31 26  2  0  0  0  0
M  END
>  <MODEL>
3

>  <REMARK>
 VINA RESULT:      -9.0      3.153      8.517
  Name = 
  5 active torsions:
  status: ('A' for Active; 'I' for Inactive)
    1  A    between atoms: C_3  and  C_9
    2  A    between atoms: C_3  and  C_22
    3  A    between atoms: C_9  and  C_23
    4  A    between atoms: C_12  and  N_25
    5  A    between atoms: C_15  and  C_23
                            x       y       z     vdW  Elec       q    Type
                         _______ _______ _______ _____ _____    ______ ____

>  <TORSDO>
F 5

$$$$
=
 OpenBabel11052413013D

 31 35  0  0  1  0  0  0  0  0999 V2000
  184.9050  178.5840  141.3010 C   0  0  0  0  0  0  0  0  0  0  0  0
  183.6780  178.9360  140.6550 C   0  0  0  0  0  0  0  0  0  0  0  0
  182.4540  179.5080  138.4260 C   0  0  0  0  0  2  0  0  0  0  0  0
  186.1860  178.5900  140.5860 C   0  0  0  0  0  0  0  0  0  0  0  0
  183.7340  179.5120  139.2480 C   0  0  0  0  0  2  0  0  0  0  0  0
  185.9890  177.8620  143.5360 C   0  0  0  0  0  0  0  0  0  0  0  0
  182.4800  178.5040  142.7350 C   0  0  0  0  0  3  0  0  0  0  0  0
  181.5580  180.5130  138.9400 N   0  0  0  0  0  0  0  0  0  0  0  0
  187.1230  177.9030  142.8050 C   0  0  0  0  0  0  0  0  0  0  0  0
  184.8350  178.2140  142.7450 C   0  0  0  0  0  0  0  0  0  0  0  0
  180.9360  180.3420  140.0500 C   0  0  0  0  0  3  0  0  0  0  0  0
  188.3580  177.9120  142.1430 C   0  0  0  0  0  2  0  0  0  0  0  0
  187.2180  178.2490  141.4020 C   0  0  0  0  0  0  0  0  0  0  0  0
  183.6330  178.2000  143.3670 N   0  0  0  0  0  0  0  0  0  0  0  0
  182.4620  178.8800  141.3990 C   0  0  0  0  0  0  0  0  0  0  0  0
  181.0870  179.0720  140.8280 C   0  0  0  0  0  2  0  0  0  0  0  0
  187.1770  178.1600  138.2590 C   0  0  0  0  0  0  0  0  0  0  0  0
  187.8560  177.1630  138.6200 O   0  0  0  0  0  0  0  0  0  0  0  0
  187.2260  178.5830  136.9020 N   0  0  0  0  0  1  0  0  0  0  0  0
  186.3550  178.8760  139.1890 N   0  0  0  0  0  2  0  0  0  0  0  0
  185.9530  177.4760  144.9870 C   0  0  0  0  0  2  0  0  0  0  0  0
  186.0670  179.4490  146.5620 C   0  0  0  0  0  1  0  0  0  0  0  0
  186.8520  178.3450  145.8760 C   0  0  1  0  0  3  0  0  0  0  0  0
  187.6290  177.5310  146.9050 C   0  0  0  0  0  2  0  0  0  0  0  0
  190.9030  177.9850  145.0710 C   0  0  0  0  0  0  0  0  0  0  0  0
  191.2820  176.5580  146.9310 C   0  0  0  0  0  3  0  0  0  0  0  0
  191.4350  178.7060  143.8860 C   0  0  0  0  0  1  0  0  0  0  0  0
  189.5500  178.0940  145.4040 C   0  0  0  0  0  3  0  0  0  0  0  0
  189.9370  176.6410  147.2960 C   0  0  0  0  0  3  0  0  0  0  0  0
  189.0660  177.4140  146.5240 C   0  0  0  0  0  0  0  0  0  0  0  0
  191.7340  177.2260  145.8350 N   0  0  0  0  0  0  0  0  0  0  0  0
  1 10  1  0  0  0  0
  2  1  2  0  0  0  0
  2 15  1  0  0  0  0
  3  8  1  0  0  0  0
  3  5  1  0  0  0  0
  4  1  1  0  0  0  0
  4 13  2  0  0  0  0
  5  2  1  0  0  0  0
  6 21  1  0  0  0  0
  7 14  1  0  0  0  0
  8 11  2  0  0  0  0
  9  6  2  0  0  0  0
 10 14  2  0  0  0  0
 10  6  1  0  0  0  0
 11 16  1  0  0  0  0
 12  9  1  0  0  0  0
 13 12  1  0  0  0  0
 13  9  1  0  0  0  0
 15  7  2  0  0  0  0
 16 15  1  0  0  0  0
 17 18  2  0  0  0  0
 17 20  1  0  0  0  0
 19 17  1  0  0  0  0
 20  4  1  0  0  0  0
 21 23  1  0  0  0  0
 23 22  1  1  0  0  0
 23 24  1  0  0  0  0
 25 28  2  0  0  0  0
 25 31  1  0  0  0  0
 26 29  1  0  0  0  0
 27 25  1  0  0  0  0
 28 30  1  0  0  0  0
 30 24  1  0  0  0  0
 30 29  2  0  0  0  0
 31 26  2  0  0  0  0
M  END
>  <MODEL>
4

>  <REMARK>
 VINA RESULT:      -8.9      2.029      7.846
  Name = 
  5 active torsions:
  status: ('A' for Active; 'I' for Inactive)
    1  A    between atoms: C_3  and  C_9
    2  A    between atoms: C_3  and  C_22
    3  A    between atoms: C_9  and  C_23
    4  A    between atoms: C_12  and  N_25
    5  A    between atoms: C_15  and  C_23
                            x       y       z     vdW  Elec       q    Type
                         _______ _______ _______ _____ _____    ______ ____

>  <TORSDO>
F 5

$$$$
=
 OpenBabel11052413013D

 31 35  0  0  1  0  0  0  0  0999 V2000
  190.3570  177.0120  138.7250 C   0  0  0  0  0  0  0  0  0  0  0  0
  191.0300  176.5760  137.5400 C   0  0  0  0  0  0  0  0  0  0  0  0
  190.9020  176.1440  134.9730 C   0  0  0  0  0  2  0  0  0  0  0  0
  188.9180  177.2940  138.7380 C   0  0  0  0  0  0  0  0  0  0  0  0
  190.1980  176.2150  136.3190 C   0  0  0  0  0  2  0  0  0  0  0  0
  190.6390  177.5690  141.2360 C   0  0  0  0  0  0  0  0  0  0  0  0
  193.1350  176.5330  138.7730 C   0  0  0  0  0  3  0  0  0  0  0  0
  191.7170  174.9570  134.9270 N   0  0  0  0  0  0  0  0  0  0  0  0
  189.3100  177.7980  141.1600 C   0  0  0  0  0  0  0  0  0  0  0  0
  191.1800  177.1640  139.9610 C   0  0  0  0  0  0  0  0  0  0  0  0
  192.8130  174.8790  135.5910 C   0  0  0  0  0  3  0  0  0  0  0  0
  187.9350  178.0630  141.1960 C   0  0  0  0  0  2  0  0  0  0  0  0
  188.4910  177.6680  139.9730 C   0  0  0  0  0  0  0  0  0  0  0  0
  192.5090  176.9140  139.9060 N   0  0  0  0  0  0  0  0  0  0  0  0
  192.4380  176.3480  137.5870 C   0  0  0  0  0  0  0  0  0  0  0  0
  193.3050  176.0360  136.4020 C   0  0  0  0  0  2  0  0  0  0  0  0
  187.5580  178.3410  136.8310 C   0  0  0  0  0  0  0  0  0  0  0  0
  187.8690  179.5260  137.1230 O   0  0  0  0  0  0  0  0  0  0  0  0
  186.7020  178.0970  135.7220 N   0  0  0  0  0  1  0  0  0  0  0  0
  188.0500  177.2330  137.5950 N   0  0  0  0  0  2  0  0  0  0  0  0
  191.4390  177.7410  142.4950 C   0  0  0  0  0  2  0  0  0  0  0  0
  191.6830  175.5840  143.7880 C   0  0  0  0  0  1  0  0  0  0  0  0
  190.9260  176.8950  143.6680 C   0  0  1  0  0  3  0  0  0  0  0  0
  190.9550  177.6460  144.9940 C   0  0  0  0  0  2  0  0  0  0  0  0
  187.2130  177.7820  145.5180 C   0  0  0  0  0  0  0  0  0  0  0  0
  188.2450  177.3730  147.6170 C   0  0  0  0  0  3  0  0  0  0  0  0
  185.9750  177.9770  144.7210 C   0  0  0  0  0  1  0  0  0  0  0  0
  188.4600  177.8170  144.8880 C   0  0  0  0  0  3  0  0  0  0  0  0
  189.5100  177.4020  147.0250 C   0  0  0  0  0  3  0  0  0  0  0  0
  189.6160  177.6280  145.6510 C   0  0  0  0  0  0  0  0  0  0  0  0
  187.1330  177.5620  146.8580 N   0  0  0  0  0  0  0  0  0  0  0  0
  1  4  2  0  0  0  0
  1 10  1  0  0  0  0
  2 15  2  0  0  0  0
  2  1  1  0  0  0  0
  3  5  1  0  0  0  0
  4 13  1  0  0  0  0
  5  2  1  0  0  0  0
  6 21  1  0  0  0  0
  7 14  2  0  0  0  0
  8  3  1  0  0  0  0
  8 11  2  0  0  0  0
  9 12  1  0  0  0  0
  9  6  1  0  0  0  0
 10  6  2  0  0  0  0
 11 16  1  0  0  0  0
 13  9  2  0  0  0  0
 13 12  1  0  0  0  0
 14 10  1  0  0  0  0
 15  7  1  0  0  0  0
 16 15  1  0  0  0  0
 17 18  2  0  0  0  0
 17 20  1  0  0  0  0
 19 17  1  0  0  0  0
 20  4  1  0  0  0  0
 21 23  1  0  0  0  0
 23 22  1  1  0  0  0
 23 24  1  0  0  0  0
 24 30  1  0  0  0  0
 25 31  1  0  0  0  0
 27 25  1  0  0  0  0
 28 25  2  0  0  0  0
 28 30  1  0  0  0  0
 29 26  1  0  0  0  0
 30 29  2  0  0  0  0
 31 26  2  0  0  0  0
M  END
>  <MODEL>
5

>  <REMARK>
 VINA RESULT:      -8.7      4.223      9.250
  Name = 
  5 active torsions:
  status: ('A' for Active; 'I' for Inactive)
    1  A    between atoms: C_3  and  C_9
    2  A    between atoms: C_3  and  C_22
    3  A    between atoms: C_9  and  C_23
    4  A    between atoms: C_12  and  N_25
    5  A    between atoms: C_15  and  C_23
                            x       y       z     vdW  Elec       q    Type
                         _______ _______ _______ _____ _____    ______ ____

>  <TORSDO>
F 5

$$$$
=
 OpenBabel11052413013D

 31 35  0  0  1  0  0  0  0  0999 V2000
  188.4820  177.5530  143.5680 C   0  0  0  0  0  0  0  0  0  0  0  0
  189.2010  177.1860  144.7490 C   0  0  0  0  0  0  0  0  0  0  0  0
  189.1070  176.6180  147.2910 C   0  0  0  0  0  2  0  0  0  0  0  0
  187.0620  177.9170  143.6080 C   0  0  0  0  0  0  0  0  0  0  0  0
  188.5240  177.3620  146.1000 C   0  0  0  0  0  2  0  0  0  0  0  0
  188.6580  177.9330  141.0150 C   0  0  0  0  0  0  0  0  0  0  0  0
  191.2000  176.8260  143.3980 C   0  0  0  0  0  3  0  0  0  0  0  0
  190.3420  177.2480  147.6850 N   0  0  0  0  0  0  0  0  0  0  0  0
  187.3550  178.2610  141.1440 C   0  0  0  0  0  0  0  0  0  0  0  0
  189.2390  177.5600  142.2820 C   0  0  0  0  0  0  0  0  0  0  0  0
  191.4080  177.1160  146.9820 C   0  0  0  0  0  3  0  0  0  0  0  0
  186.0010  178.6210  141.1630 C   0  0  0  0  0  2  0  0  0  0  0  0
  186.5950  178.2540  142.3770 C   0  0  0  0  0  0  0  0  0  0  0  0
  190.5440  177.2000  142.2800 N   0  0  0  0  0  0  0  0  0  0  0  0
  190.5740  176.8140  144.6370 C   0  0  0  0  0  0  0  0  0  0  0  0
  191.4170  176.2640  145.7510 C   0  0  0  0  0  2  0  0  0  0  0  0
  185.1840  178.8070  145.1120 C   0  0  0  0  0  0  0  0  0  0  0  0
  184.8940  179.7700  144.3530 O   0  0  0  0  0  0  0  0  0  0  0  0
  184.4570  178.6280  146.3210 N   0  0  0  0  0  1  0  0  0  0  0  0
  186.2310  177.8880  144.7790 N   0  0  0  0  0  2  0  0  0  0  0  0
  189.3880  177.9420  139.7020 C   0  0  0  0  0  2  0  0  0  0  0  0
  189.0560  179.0350  137.4490 C   0  0  0  0  0  1  0  0  0  0  0  0
  188.4640  178.0990  138.4870 C   0  0  1  0  0  3  0  0  0  0  0  0
  188.0980  176.7630  137.8490 C   0  0  0  0  0  2  0  0  0  0  0  0
  184.4800  177.4090  136.9620 C   0  0  0  0  0  0  0  0  0  0  0  0
  185.6080  176.6770  135.0050 C   0  0  0  0  0  3  0  0  0  0  0  0
  183.2290  177.8720  137.6170 C   0  0  0  0  0  1  0  0  0  0  0  0
  185.6570  177.3010  137.7060 C   0  0  0  0  0  3  0  0  0  0  0  0
  186.8050  176.5560  135.7140 C   0  0  0  0  0  3  0  0  0  0  0  0
  186.8270  176.8690  137.0760 C   0  0  0  0  0  0  0  0  0  0  0  0
  184.4800  177.0970  135.6380 N   0  0  0  0  0  0  0  0  0  0  0  0
  1  4  1  0  0  0  0
  1  2  2  0  0  0  0
  2  5  1  0  0  0  0
  3  8  1  0  0  0  0
  4 20  1  0  0  0  0
  5  3  1  0  0  0  0
  6  9  2  0  0  0  0
  6 10  1  0  0  0  0
  7 15  2  0  0  0  0
  9 12  1  0  0  0  0
  9 13  1  0  0  0  0
 10  1  1  0  0  0  0
 11  8  2  0  0  0  0
 12 13  1  0  0  0  0
 13  4  2  0  0  0  0
 14 10  2  0  0  0  0
 14  7  1  0  0  0  0
 15  2  1  0  0  0  0
 15 16  1  0  0  0  0
 16 11  1  0  0  0  0
 17 19  1  0  0  0  0
 18 17  2  0  0  0  0
 20 17  1  0  0  0  0
 21  6  1  0  0  0  0
 23 22  1  6  0  0  0
 23 21  1  0  0  0  0
 24 23  1  0  0  0  0
 25 27  1  0  0  0  0
 25 28  1  0  0  0  0
 26 31  1  0  0  0  0
 26 29  2  0  0  0  0
 29 30  1  0  0  0  0
 30 28  2  0  0  0  0
 30 24  1  0  0  0  0
 31 25  2  0  0  0  0
M  END
>  <MODEL>
6

>  <REMARK>
 VINA RESULT:      -8.6      2.913      5.599
  Name = 
  5 active torsions:
  status: ('A' for Active; 'I' for Inactive)
    1  A    between atoms: C_3  and  C_9
    2  A    between atoms: C_3  and  C_22
    3  A    between atoms: C_9  and  C_23
    4  A    between atoms: C_12  and  N_25
    5  A    between atoms: C_15  and  C_23
                            x       y       z     vdW  Elec       q    Type
                         _______ _______ _______ _____ _____    ______ ____

>  <TORSDO>
F 5

$$$$
=
 OpenBabel11052413013D

 31 35  0  0  1  0  0  0  0  0999 V2000
  187.1950  177.9500  143.3610 C   0  0  0  0  0  0  0  0  0  0  0  0
  188.5900  177.6350  143.3510 C   0  0  0  0  0  0  0  0  0  0  0  0
  190.6530  176.7530  144.6760 C   0  0  0  0  0  2  0  0  0  0  0  0
  186.4060  177.9330  144.5980 C   0  0  0  0  0  0  0  0  0  0  0  0
  189.3100  177.4650  144.6800 C   0  0  0  0  0  2  0  0  0  0  0  0
  185.1770  178.6740  141.9130 C   0  0  0  0  0  0  0  0  0  0  0  0
  188.6270  177.9640  140.9340 C   0  0  0  0  0  3  0  0  0  0  0  0
  191.6490  177.6230  144.1020 N   0  0  0  0  0  0  0  0  0  0  0  0
  184.5300  178.6420  143.0980 C   0  0  0  0  0  0  0  0  0  0  0  0
  186.5650  178.3080  142.0560 C   0  0  0  0  0  0  0  0  0  0  0  0
  191.6810  177.8530  142.8400 C   0  0  0  0  0  3  0  0  0  0  0  0
  183.7630  178.6410  144.2690 C   0  0  0  0  0  2  0  0  0  0  0  0
  185.1140  178.2890  144.3750 C   0  0  0  0  0  0  0  0  0  0  0  0
  187.3190  178.2940  140.9320 N   0  0  0  0  0  0  0  0  0  0  0  0
  189.2920  177.6410  142.1080 C   0  0  0  0  0  0  0  0  0  0  0  0
  190.7110  177.1890  141.9130 C   0  0  0  0  0  2  0  0  0  0  0  0
  186.7120  178.2530  147.1260 C   0  0  0  0  0  0  0  0  0  0  0  0
  186.0560  179.3260  147.1720 O   0  0  0  0  0  0  0  0  0  0  0  0
  187.2760  177.7270  148.3210 N   0  0  0  0  0  1  0  0  0  0  0  0
  186.9010  177.5500  145.8910 N   0  0  0  0  0  2  0  0  0  0  0  0
  184.5100  179.0300  140.6150 C   0  0  0  0  0  2  0  0  0  0  0  0
  182.6780  177.3360  140.2180 C   0  0  0  0  0  1  0  0  0  0  0  0
  184.0590  177.8090  139.8020 C   0  0  1  0  0  3  0  0  0  0  0  0
  184.1050  178.0520  138.2980 C   0  0  0  0  0  2  0  0  0  0  0  0
  187.6700  177.6980  137.0910 C   0  0  0  0  0  0  0  0  0  0  0  0
  186.5350  175.6540  136.6730 C   0  0  0  0  0  3  0  0  0  0  0  0
  188.9180  178.5010  137.0260 C   0  0  0  0  0  1  0  0  0  0  0  0
  186.5120  178.2530  137.6410 C   0  0  0  0  0  3  0  0  0  0  0  0
  185.3570  176.1730  137.2150 C   0  0  0  0  0  3  0  0  0  0  0  0
  185.3470  177.4830  137.6990 C   0  0  0  0  0  0  0  0  0  0  0  0
  187.6580  176.4200  136.6220 N   0  0  0  0  0  0  0  0  0  0  0  0
  1  4  1  0  0  0  0
  2  1  1  0  0  0  0
  2  5  1  0  0  0  0
  3  5  1  0  0  0  0
  4 20  1  0  0  0  0
  6 10  1  0  0  0  0
  6  9  2  0  0  0  0
  7 15  1  0  0  0  0
  8  3  1  0  0  0  0
  9 12  1  0  0  0  0
  9 13  1  0  0  0  0
 10  1  2  0  0  0  0
 11  8  2  0  0  0  0
 12 13  1  0  0  0  0
 13  4  2  0  0  0  0
 14  7  2  0  0  0  0
 14 10  1  0  0  0  0
 15  2  2  0  0  0  0
 16 15  1  0  0  0  0
 16 11  1  0  0  0  0
 17 18  2  0  0  0  0
 17 19  1  0  0  0  0
 20 17  1  0  0  0  0
 21  6  1  0  0  0  0
 23 22  1  1  0  0  0
 23 21  1  0  0  0  0
 24 23  1  0  0  0  0
 25 28  1  0  0  0  0
 26 29  2  0  0  0  0
 27 25  1  0  0  0  0
 28 30  2  0  0  0  0
 29 30  1  0  0  0  0
 30 24  1  0  0  0  0
 31 26  1  0  0  0  0
 31 25  2  0  0  0  0
M  END
>  <MODEL>
7

>  <REMARK>
 VINA RESULT:      -8.6      2.949      5.222
  Name = 
  5 active torsions:
  status: ('A' for Active; 'I' for Inactive)
    1  A    between atoms: C_3  and  C_9
    2  A    between atoms: C_3  and  C_22
    3  A    between atoms: C_9  and  C_23
    4  A    between atoms: C_12  and  N_25
    5  A    between atoms: C_15  and  C_23
                            x       y       z     vdW  Elec       q    Type
                         _______ _______ _______ _____ _____    ______ ____

>  <TORSDO>
F 5

$$$$
=
 OpenBabel11052413013D

 31 35  0  0  1  0  0  0  0  0999 V2000
  187.6230  177.9980  142.7190 C   0  0  0  0  0  0  0  0  0  0  0  0
  186.6220  178.3520  143.6790 C   0  0  0  0  0  0  0  0  0  0  0  0
  185.9430  178.5040  146.1900 C   0  0  0  0  0  2  0  0  0  0  0  0
  188.8530  177.3000  143.1050 C   0  0  0  0  0  0  0  0  0  0  0  0
  186.7530  177.8220  145.0990 C   0  0  0  0  0  2  0  0  0  0  0  0
  188.2640  178.0480  140.2130 C   0  0  0  0  0  0  0  0  0  0  0  0
  185.3050  179.3780  141.9000 C   0  0  0  0  0  3  0  0  0  0  0  0
  184.5550  178.1400  146.0470 N   0  0  0  0  0  0  0  0  0  0  0  0
  189.3630  177.3990  140.6550 C   0  0  0  0  0  0  0  0  0  0  0  0
  187.3630  178.3620  141.2950 C   0  0  0  0  0  0  0  0  0  0  0  0
  183.8370  178.6280  145.1010 C   0  0  0  0  0  3  0  0  0  0  0  0
  190.5400  176.7240  141.0020 C   0  0  0  0  0  2  0  0  0  0  0  0
  189.6440  177.0430  142.0310 C   0  0  0  0  0  0  0  0  0  0  0  0
  186.2250  179.0230  140.9780 N   0  0  0  0  0  0  0  0  0  0  0  0
  185.4610  179.0570  143.2410 C   0  0  0  0  0  0  0  0  0  0  0  0
  184.4030  179.6270  144.1410 C   0  0  0  0  0  2  0  0  0  0  0  0
  190.3780  177.4130  145.1670 C   0  0  0  0  0  0  0  0  0  0  0  0
  191.2040  178.2020  144.6380 O   0  0  0  0  0  0  0  0  0  0  0  0
  190.5910  176.9680  146.5000 N   0  0  0  0  0  1  0  0  0  0  0  0
  189.2240  176.9550  144.4500 N   0  0  0  0  0  2  0  0  0  0  0  0
  188.0380  178.4070  138.7720 C   0  0  0  0  0  2  0  0  0  0  0  0
  186.1270  177.3640  137.4900 C   0  0  0  0  0  1  0  0  0  0  0  0
  187.5800  177.2240  137.9100 C   0  0  1  0  0  3  0  0  0  0  0  0
  188.4650  177.0080  136.6870 C   0  0  0  0  0  2  0  0  0  0  0  0
  191.8270  175.5430  137.6040 C   0  0  0  0  0  0  0  0  0  0  0  0
  190.3150  173.7530  137.2180 C   0  0  0  0  0  3  0  0  0  0  0  0
  193.1900  176.0050  137.9750 C   0  0  0  0  0  1  0  0  0  0  0  0
  190.8280  176.4760  137.3200 C   0  0  0  0  0  3  0  0  0  0  0  0
  189.2890  174.6550  136.9280 C   0  0  0  0  0  3  0  0  0  0  0  0
  189.5500  176.0260  136.9770 C   0  0  0  0  0  0  0  0  0  0  0  0
  191.5520  174.2110  137.5480 N   0  0  0  0  0  0  0  0  0  0  0  0
  1  4  1  0  0  0  0
  1  2  2  0  0  0  0
  2  5  1  0  0  0  0
  4 20  1  0  0  0  0
  5  3  1  0  0  0  0
  6  9  2  0  0  0  0
  6 10  1  0  0  0  0
  7 15  2  0  0  0  0
  8  3  1  0  0  0  0
  9 12  1  0  0  0  0
  9 13  1  0  0  0  0
 10  1  1  0  0  0  0
 11  8  2  0  0  0  0
 12 13  1  0  0  0  0
 13  4  2  0  0  0  0
 14 10  2  0  0  0  0
 14  7  1  0  0  0  0
 15  2  1  0  0  0  0
 15 16  1  0  0  0  0
 16 11  1  0  0  0  0
 17 19  1  0  0  0  0
 18 17  2  0  0  0  0
 20 17  1  0  0  0  0
 21  6  1  0  0  0  0
 23 22  1  6  0  0  0
 23 21  1  0  0  0  0
 24 30  1  0  0  0  0
 24 23  1  0  0  0  0
 25 27  1  0  0  0  0
 26 31  2  0  0  0  0
 28 25  2  0  0  0  0
 29 30  2  0  0  0  0
 29 26  1  0  0  0  0
 30 28  1  0  0  0  0
 31 25  1  0  0  0  0
M  END
>  <MODEL>
8

>  <REMARK>
 VINA RESULT:      -8.5      3.343      7.097
  Name = 
  5 active torsions:
  status: ('A' for Active; 'I' for Inactive)
    1  A    between atoms: C_3  and  C_9
    2  A    between atoms: C_3  and  C_22
    3  A    between atoms: C_9  and  C_23
    4  A    between atoms: C_12  and  N_25
    5  A    between atoms: C_15  and  C_23
                            x       y       z     vdW  Elec       q    Type
                         _______ _______ _______ _____ _____    ______ ____

>  <TORSDO>
F 5

$$$$
=
 OpenBabel11052413013D

 31 35  0  0  1  0  0  0  0  0999 V2000
  187.2030  177.9810  143.3320 C   0  0  0  0  0  0  0  0  0  0  0  0
  188.5960  177.6560  143.3020 C   0  0  0  0  0  0  0  0  0  0  0  0
  190.6700  176.7530  144.5950 C   0  0  0  0  0  2  0  0  0  0  0  0
  186.4310  177.9640  144.5790 C   0  0  0  0  0  0  0  0  0  0  0  0
  189.3310  177.4750  144.6200 C   0  0  0  0  0  2  0  0  0  0  0  0
  185.1710  178.7260  141.9140 C   0  0  0  0  0  0  0  0  0  0  0  0
  188.6030  177.9950  140.8860 C   0  0  0  0  0  3  0  0  0  0  0  0
  191.6640  177.6180  144.0130 N   0  0  0  0  0  0  0  0  0  0  0  0
  184.5400  178.6930  143.1070 C   0  0  0  0  0  0  0  0  0  0  0  0
  186.5580  178.3490  142.0370 C   0  0  0  0  0  0  0  0  0  0  0  0
  191.6800  177.8530  142.7510 C   0  0  0  0  0  3  0  0  0  0  0  0
  183.7880  178.6920  144.2890 C   0  0  0  0  0  2  0  0  0  0  0  0
  185.1390  178.3310  144.3750 C   0  0  0  0  0  0  0  0  0  0  0  0
  187.2970  178.3350  140.9030 N   0  0  0  0  0  0  0  0  0  0  0  0
  189.2810  177.6620  142.0500 C   0  0  0  0  0  0  0  0  0  0  0  0
  190.6940  177.2010  141.8340 C   0  0  0  0  0  2  0  0  0  0  0  0
  186.7440  178.2530  147.1100 C   0  0  0  0  0  0  0  0  0  0  0  0
  186.0660  179.3120  147.1750 O   0  0  0  0  0  0  0  0  0  0  0  0
  187.3240  177.7200  148.2940 N   0  0  0  0  0  1  0  0  0  0  0  0
  186.9400  177.5720  145.8640 N   0  0  0  0  0  2  0  0  0  0  0  0
  184.4900  179.0920  140.6260 C   0  0  0  0  0  2  0  0  0  0  0  0
  182.6360  177.4190  140.2440 C   0  0  0  0  0  1  0  0  0  0  0  0
  184.0180  177.8780  139.8150 C   0  0  1  0  0  3  0  0  0  0  0  0
  184.0510  178.1250  138.3110 C   0  0  0  0  0  2  0  0  0  0  0  0
  186.3540  175.6440  136.6280 C   0  0  0  0  0  0  0  0  0  0  0  0
  187.5560  177.6640  136.9690 C   0  0  0  0  0  3  0  0  0  0  0  0
  186.3210  174.2500  136.1150 C   0  0  0  0  0  1  0  0  0  0  0  0
  185.2160  176.1970  137.2180 C   0  0  0  0  0  3  0  0  0  0  0  0
  186.4380  178.2530  137.5660 C   0  0  0  0  0  3  0  0  0  0  0  0
  185.2610  177.5110  137.6920 C   0  0  0  0  0  0  0  0  0  0  0  0
  187.4910  176.3830  136.5160 N   0  0  0  0  0  0  0  0  0  0  0  0
  1  4  1  0  0  0  0
  2  1  1  0  0  0  0
  2  5  1  0  0  0  0
  3  5  1  0  0  0  0
  4 20  1  0  0  0  0
  6 10  1  0  0  0  0
  6  9  2  0  0  0  0
  7 14  2  0  0  0  0
  7 15  1  0  0  0  0
  8  3  1  0  0  0  0
  9 12  1  0  0  0  0
  9 13  1  0  0  0  0
 10  1  2  0  0  0  0
 11  8  2  0  0  0  0
 12 13  1  0  0  0  0
 13  4  2  0  0  0  0
 14 10  1  0  0  0  0
 15  2  2  0  0  0  0
 16 15  1  0  0  0  0
 16 11  1  0  0  0  0
 17 18  2  0  0  0  0
 17 19  1  0  0  0  0
 20 17  1  0  0  0  0
 21  6  1  0  0  0  0
 23 22  1  1  0  0  0
 23 21  1  0  0  0  0
 24 23  1  0  0  0  0
 25 28  1  0  0  0  0
 26 29  2  0  0  0  0
 27 25  1  0  0  0  0
 28 30  2  0  0  0  0
 29 30  1  0  0  0  0
 30 24  1  0  0  0  0
 31 25  2  0  0  0  0
 31 26  1  0  0  0  0
M  END
>  <MODEL>
9

>  <REMARK>
 VINA RESULT:      -8.4      3.084      5.029
  Name = 
  5 active torsions:
  status: ('A' for Active; 'I' for Inactive)
    1  A    between atoms: C_3  and  C_9
    2  A    between atoms: C_3  and  C_22
    3  A    between atoms: C_9  and  C_23
    4  A    between atoms: C_12  and  N_25
    5  A    between atoms: C_15  and  C_23
                            x       y       z     vdW  Elec       q    Type
                         _______ _______ _______ _____ _____    ______ ____

>  <TORSDO>
F 5

$$$$
