=
 OpenBabel11052415383D

 34 38  0  0  0  0  0  0  0  0999 V2000
  186.5750  178.1540  144.0490 C   0  0  0  0  0  0  0  0  0  0  0  0
  187.7630  177.6950  147.5370 C   0  0  0  0  0  3  0  0  0  0  0  0
  185.7340  178.3280  146.6990 C   0  0  0  0  0  3  0  0  0  0  0  0
  186.0720  178.4980  141.5830 C   0  0  0  0  0  0  0  0  0  0  0  0
  187.0330  177.9820  142.6100 C   0  0  0  0  0  2  0  0  0  0  0  0
  184.3960  178.8790  143.3230 C   0  0  0  0  0  0  0  0  0  0  0  0
  183.0800  179.2580  143.5590 O   0  0  0  0  0  1  0  0  0  0  0  0
  184.8400  178.8650  141.9220 C   0  0  0  0  0  3  0  0  0  0  0  0
  184.8370  178.6320  145.6850 C   0  0  0  0  0  0  0  0  0  0  0  0
  185.2410  178.5600  144.3350 C   0  0  0  0  0  0  0  0  0  0  0  0
  183.5490  179.0100  146.0540 O   0  0  0  0  0  1  0  0  0  0  0  0
  189.1520  177.2730  147.7320 C   0  0  0  0  0  3  0  0  0  0  0  0
  190.1000  177.0080  146.8370 C   0  0  0  0  0  0  0  0  0  0  0  0
  189.9190  177.0970  145.3860 C   0  0  0  0  0  3  0  0  0  0  0  0
  187.0460  177.9420  146.4400 C   0  0  0  0  0  0  0  0  0  0  0  0
  188.8470  177.4400  144.6810 C   0  0  0  0  0  3  0  0  0  0  0  0
  187.4850  177.8460  145.0970 C   0  0  0  0  0  0  0  0  0  0  0  0
  191.4350  176.5940  147.3270 C   0  0  0  0  0  0  0  0  0  0  0  0
  192.1860  175.4670  146.6970 C   0  0  0  0  0  1  0  0  0  0  0  0
  191.9660  177.1980  148.2980 O   0  0  0  0  0  0  0  0  0  0  0  0
  186.4800  178.4710  140.1340 C   0  0  0  0  0  2  0  0  0  0  0  0
  190.1080  177.6220  140.5650 C   0  0  0  0  0  2  0  0  0  0  0  0
  188.0720  177.8340  138.4450 C   0  0  0  0  0  2  0  0  0  0  0  0
  191.9670  176.2170  137.5680 C   0  0  0  0  0  0  0  0  0  0  0  0
  191.6730  176.6750  138.8590 C   0  0  0  0  0  3  0  0  0  0  0  0
  190.4100  177.1940  139.1580 C   0  0  0  0  0  0  0  0  0  0  0  0
  189.7100  176.7840  136.8690 C   0  0  0  0  0  3  0  0  0  0  0  0
  189.4150  177.2280  138.1610 C   0  0  0  0  0  0  0  0  0  0  0  0
  190.9780  176.2760  136.5750 C   0  0  0  0  0  3  0  0  0  0  0  0
  187.7660  177.8070  139.8780 N   0  0  0  0  0  0  0  0  0  0  0  0
  188.8390  178.4680  140.6270 C   0  0  0  0  0  2  0  0  0  0  0  0
  193.3020  175.6780  137.2630 C   0  0  0  0  0  0  0  0  0  0  0  0
  194.1890  176.4180  136.7570 O   0  0  0  0  0  0  0  0  0  0  0  0
  193.5990  174.3480  137.5300 O   0  0  0  0  0  1  0  0  0  0  0  0
  1 10  1  0  0  0  0
  1 17  2  0  0  0  0
  2 12  1  0  0  0  0
  4  8  2  0  0  0  0
  4  5  1  0  0  0  0
  5  1  1  0  0  0  0
  6  7  1  0  0  0  0
  6 10  2  0  0  0  0
  8  6  1  0  0  0  0
  9 11  1  0  0  0  0
  9  3  2  0  0  0  0
 10  9  1  0  0  0  0
 13 18  1  0  0  0  0
 13 12  2  0  0  0  0
 14 13  1  0  0  0  0
 15  3  1  0  0  0  0
 15  2  2  0  0  0  0
 16 17  1  0  0  0  0
 16 14  2  0  0  0  0
 17 15  1  0  0  0  0
 18 20  2  0  0  0  0
 19 18  1  0  0  0  0
 21  4  1  0  0  0  0
 22 31  1  0  0  0  0
 23 30  1  0  0  0  0
 24 25  1  0  0  0  0
 25 26  2  0  0  0  0
 26 22  1  0  0  0  0
 27 28  2  0  0  0  0
 28 23  1  0  0  0  0
 28 26  1  0  0  0  0
 29 27  1  0  0  0  0
 29 24  2  0  0  0  0
 30 21  1  0  0  0  0
 30 31  1  0  0  0  0
 32 34  1  0  0  0  0
 32 24  1  0  0  0  0
 33 32  2  0  0  0  0
M  END
>  <MODEL>
1

>  <REMARK>
 VINA RESULT:     -12.1      0.000      0.000
  Name = 
  4 active torsions:
  status: ('A' for Active; 'I' for Inactive)
    1  A    between atoms: C_3  and  C_25
    2  A    between atoms: C_7  and  C_11
    3  A    between atoms: C_8  and  C_18
    4  A    between atoms: C_18  and  N_30
                            x       y       z     vdW  Elec       q    Type
                         _______ _______ _______ _____ _____    ______ ____

>  <TORSDO>
F 4

$$$$
=
 OpenBabel11052415383D

 34 38  0  0  1  0  0  0  0  0999 V2000
  187.9810  177.7530  145.0010 C   0  0  1  0  0  3  0  0  0  0  0  0
  184.4990  178.5400  146.0220 C   0  0  0  0  0  3  0  0  0  0  0  0
  186.3830  178.1400  147.2510 C   0  0  0  0  0  3  0  0  0  0  0  0
  190.2380  177.1200  144.0230 C   0  0  0  0  0  0  0  0  0  0  0  0
  188.8490  177.6180  143.7620 C   0  0  0  0  0  3  0  0  0  0  0  0
  189.8660  177.3060  146.4320 C   0  0  0  0  0  0  0  0  0  0  0  0
  190.4700  177.1980  147.6800 O   0  0  0  0  0  1  0  0  0  0  0  0
  190.7090  177.0260  145.2620 C   0  0  0  0  0  3  0  0  0  0  0  0
  187.7270  177.8390  147.4210 C   0  0  0  0  0  0  0  0  0  0  0  0
  188.5550  177.6300  146.2970 C   0  0  0  0  0  0  0  0  0  0  0  0
  188.2080  177.7480  148.7240 O   0  0  0  0  0  1  0  0  0  0  0  0
  183.5090  178.7440  144.9620 C   0  0  0  0  0  3  0  0  0  0  0  0
  183.6500  178.7000  143.6400 C   0  0  0  0  0  0  0  0  0  0  0  0
  184.9110  178.4190  142.9490 C   0  0  0  0  0  3  0  0  0  0  0  0
  185.8000  178.2510  145.9920 C   0  0  0  0  0  0  0  0  0  0  0  0
  186.1140  178.1580  143.4460 C   0  0  0  0  0  3  0  0  0  0  0  0
  186.6020  178.0600  144.8390 C   0  0  0  0  0  0  0  0  0  0  0  0
  182.4580  178.9510  142.7960 C   0  0  0  0  0  0  0  0  0  0  0  0
  182.4320  178.5850  141.3480 C   0  0  0  0  0  1  0  0  0  0  0  0
  181.4320  179.4860  143.2960 O   0  0  0  0  0  0  0  0  0  0  0  0
  191.1410  176.8510  142.8490 C   0  0  0  0  0  2  0  0  0  0  0  0
  190.7040  176.4020  139.1500 C   0  0  0  0  0  2  0  0  0  0  0  0
  189.4040  177.7340  141.4360 C   0  0  0  0  0  2  0  0  0  0  0  0
  187.4780  177.6480  137.5840 C   0  0  0  0  0  0  0  0  0  0  0  0
  188.7440  177.0680  137.7480 C   0  0  0  0  0  3  0  0  0  0  0  0
  189.3750  177.0820  138.9950 C   0  0  0  0  0  0  0  0  0  0  0  0
  187.4640  178.2470  139.9380 C   0  0  0  0  0  3  0  0  0  0  0  0
  188.7200  177.6560  140.1020 C   0  0  0  0  0  0  0  0  0  0  0  0
  186.8440  178.2380  138.6870 C   0  0  0  0  0  3  0  0  0  0  0  0
  190.4400  176.7050  141.5650 N   0  0  0  0  0  0  0  0  0  0  0  0
  191.3880  176.8130  140.4520 C   0  0  0  0  0  2  0  0  0  0  0  0
  186.8250  177.6330  136.2650 C   0  0  0  0  0  0  0  0  0  0  0  0
  187.5070  177.7690  135.2140 O   0  0  0  0  0  0  0  0  0  0  0  0
  185.4490  177.4670  136.1660 O   0  0  0  0  0  1  0  0  0  0  0  0
  1  5  1  6  0  0  0
  1 10  1  0  0  0  0
  3  9  1  0  0  0  0
  4  8  1  0  0  0  0
  5  4  2  0  0  0  0
  6  7  1  0  0  0  0
  8  6  2  0  0  0  0
  9 11  1  0  0  0  0
 10  6  1  0  0  0  0
 10  9  2  0  0  0  0
 12  2  2  0  0  0  0
 13 12  1  0  0  0  0
 14 16  1  0  0  0  0
 14 13  2  0  0  0  0
 15  2  1  0  0  0  0
 15  3  2  0  0  0  0
 16 17  2  0  0  0  0
 17  1  1  0  0  0  0
 17 15  1  0  0  0  0
 18 20  2  0  0  0  0
 18 13  1  0  0  0  0
 19 18  1  0  0  0  0
 21  4  1  0  0  0  0
 22 31  1  0  0  0  0
 23 30  1  0  0  0  0
 24 25  2  0  0  0  0
 24 29  1  0  0  0  0
 25 26  1  0  0  0  0
 26 22  1  0  0  0  0
 26 28  2  0  0  0  0
 27 28  1  0  0  0  0
 28 23  1  0  0  0  0
 29 27  2  0  0  0  0
 30 21  1  0  0  0  0
 31 30  1  0  0  0  0
 32 24  1  0  0  0  0
 33 32  2  0  0  0  0
 34 32  1  0  0  0  0
M  END
>  <MODEL>
2

>  <REMARK>
 VINA RESULT:     -11.6      2.365      5.727
  Name = 
  4 active torsions:
  status: ('A' for Active; 'I' for Inactive)
    1  A    between atoms: C_3  and  C_25
    2  A    between atoms: C_7  and  C_11
    3  A    between atoms: C_8  and  C_18
    4  A    between atoms: C_18  and  N_30
                            x       y       z     vdW  Elec       q    Type
                         _______ _______ _______ _____ _____    ______ ____

>  <TORSDO>
F 4

$$$$
=
 OpenBabel11052415383D

 34 38  0  0  1  0  0  0  0  0999 V2000
  188.4810  177.6930  145.0230 C   0  0  1  0  0  3  0  0  0  0  0  0
  191.5850  176.8640  143.1620 C   0  0  0  0  0  3  0  0  0  0  0  0
  191.1360  176.9350  145.4010 C   0  0  0  0  0  3  0  0  0  0  0  0
  186.2640  178.4130  146.0310 C   0  0  0  0  0  0  0  0  0  0  0  0
  187.0190  178.0340  144.7940 C   0  0  0  0  0  3  0  0  0  0  0  0
  188.1770  177.7710  147.4110 C   0  0  0  0  0  0  0  0  0  0  0  0
  188.6220  177.6040  148.7180 O   0  0  0  0  0  1  0  0  0  0  0  0
  186.7960  178.2410  147.2360 C   0  0  0  0  0  3  0  0  0  0  0  0
  190.3290  177.1410  146.5110 C   0  0  0  0  0  0  0  0  0  0  0  0
  188.9830  177.5340  146.3460 C   0  0  0  0  0  0  0  0  0  0  0  0
  190.8970  176.9530  147.7660 O   0  0  0  0  0  1  0  0  0  0  0  0
  191.5350  176.9150  141.6990 C   0  0  0  0  0  3  0  0  0  0  0  0
  190.5240  177.2130  140.8870 C   0  0  0  0  0  0  0  0  0  0  0  0
  189.1770  177.5730  141.3370 C   0  0  0  0  0  3  0  0  0  0  0  0
  190.6680  177.1000  144.1000 C   0  0  0  0  0  0  0  0  0  0  0  0
  188.6910  177.6810  142.5690 C   0  0  0  0  0  3  0  0  0  0  0  0
  189.3190  177.4810  143.8940 C   0  0  0  0  0  0  0  0  0  0  0  0
  190.7620  177.1830  139.4250 C   0  0  0  0  0  0  0  0  0  0  0  0
  189.7020  177.5800  138.4500 C   0  0  0  0  0  1  0  0  0  0  0  0
  191.8800  176.8160  138.9750 O   0  0  0  0  0  0  0  0  0  0  0  0
  184.8360  178.8720  145.8940 C   0  0  0  0  0  2  0  0  0  0  0  0
  184.4520  178.8750  142.1630 C   0  0  0  0  0  2  0  0  0  0  0  0
  182.8030  178.9210  144.6060 C   0  0  0  0  0  2  0  0  0  0  0  0
  180.9550  178.4650  140.7420 C   0  0  0  0  0  0  0  0  0  0  0  0
  182.3440  178.6240  140.8400 C   0  0  0  0  0  3  0  0  0  0  0  0
  182.9560  178.7640  142.0890 C   0  0  0  0  0  0  0  0  0  0  0  0
  180.7880  178.5690  143.1630 C   0  0  0  0  0  3  0  0  0  0  0  0
  182.1740  178.7140  143.2590 C   0  0  0  0  0  0  0  0  0  0  0  0
  180.1820  178.4390  141.9110 C   0  0  0  0  0  3  0  0  0  0  0  0
  184.2320  178.5910  144.5840 N   0  0  0  0  0  0  0  0  0  0  0  0
  184.9040  179.3640  143.5370 C   0  0  0  0  0  2  0  0  0  0  0  0
  180.3210  178.3230  139.4220 C   0  0  0  0  0  0  0  0  0  0  0  0
  180.1360  177.1810  138.9210 O   0  0  0  0  0  1  0  0  0  0  0  0
  179.9170  179.4490  138.7140 O   0  0  0  0  0  0  0  0  0  0  0  0
  1  5  1  6  0  0  0
  1 10  1  0  0  0  0
  2 15  1  0  0  0  0
  3  9  1  0  0  0  0
  4  8  1  0  0  0  0
  5  4  2  0  0  0  0
  6  7  1  0  0  0  0
  8  6  2  0  0  0  0
  9 11  1  0  0  0  0
 10  9  2  0  0  0  0
 10  6  1  0  0  0  0
 12  2  2  0  0  0  0
 13 14  2  0  0  0  0
 13 12  1  0  0  0  0
 14 16  1  0  0  0  0
 15  3  2  0  0  0  0
 16 17  2  0  0  0  0
 17 15  1  0  0  0  0
 17  1  1  0  0  0  0
 18 13  1  0  0  0  0
 19 18  1  0  0  0  0
 20 18  2  0  0  0  0
 21  4  1  0  0  0  0
 22 31  1  0  0  0  0
 24 25  2  0  0  0  0
 24 29  1  0  0  0  0
 25 26  1  0  0  0  0
 26 22  1  0  0  0  0
 26 28  2  0  0  0  0
 27 28  1  0  0  0  0
 28 23  1  0  0  0  0
 29 27  2  0  0  0  0
 30 23  1  0  0  0  0
 30 21  1  0  0  0  0
 31 30  1  0  0  0  0
 32 24  1  0  0  0  0
 33 32  1  0  0  0  0
 34 32  2  0  0  0  0
M  END
>  <MODEL>
3

>  <REMARK>
 VINA RESULT:     -11.2      2.712      7.923
  Name = 
  4 active torsions:
  status: ('A' for Active; 'I' for Inactive)
    1  A    between atoms: C_3  and  C_25
    2  A    between atoms: C_7  and  C_11
    3  A    between atoms: C_8  and  C_18
    4  A    between atoms: C_18  and  N_30
                            x       y       z     vdW  Elec       q    Type
                         _______ _______ _______ _____ _____    ______ ____

>  <TORSDO>
F 4

$$$$
=
 OpenBabel11052415383D

 34 38  0  0  1  0  0  0  0  0999 V2000
  184.1640  178.7290  141.5400 C   0  0  1  0  0  3  0  0  0  0  0  0
  185.0570  178.2680  137.9650 C   0  0  0  0  0  3  0  0  0  0  0  0
  183.0360  178.5190  139.0010 C   0  0  0  0  0  3  0  0  0  0  0  0
  183.8410  178.9160  144.0520 C   0  0  0  0  0  0  0  0  0  0  0  0
  184.8040  178.9140  142.9050 C   0  0  0  0  0  3  0  0  0  0  0  0
  181.9600  178.9330  142.4890 C   0  0  0  0  0  0  0  0  0  0  0  0
  180.5760  179.0220  142.3880 O   0  0  0  0  0  1  0  0  0  0  0  0
  182.5290  178.9730  143.8430 C   0  0  0  0  0  3  0  0  0  0  0  0
  182.2030  178.6920  140.0970 C   0  0  0  0  0  0  0  0  0  0  0  0
  182.7500  178.7920  141.3950 C   0  0  0  0  0  0  0  0  0  0  0  0
  180.8330  178.7550  139.8640 O   0  0  0  0  0  1  0  0  0  0  0  0
  186.4770  178.1360  137.6310 C   0  0  0  0  0  3  0  0  0  0  0  0
  187.5480  178.1590  138.4190 C   0  0  0  0  0  0  0  0  0  0  0  0
  187.5030  178.3340  139.8730 C   0  0  0  0  0  3  0  0  0  0  0  0
  184.4200  178.4400  139.1240 C   0  0  0  0  0  0  0  0  0  0  0  0
  186.4610  178.4930  140.6800 C   0  0  0  0  0  3  0  0  0  0  0  0
  185.0070  178.5490  140.4090 C   0  0  0  0  0  0  0  0  0  0  0  0
  188.8830  178.0000  137.7980 C   0  0  0  0  0  0  0  0  0  0  0  0
  190.0190  177.3660  138.5340 C   0  0  0  0  0  1  0  0  0  0  0  0
  189.0840  178.4020  136.6210 O   0  0  0  0  0  0  0  0  0  0  0  0
  184.3850  178.9860  145.4540 C   0  0  0  0  0  2  0  0  0  0  0  0
  187.6200  177.2310  144.7270 C   0  0  0  0  0  2  0  0  0  0  0  0
  186.1790  178.4770  146.9760 C   0  0  0  0  0  2  0  0  0  0  0  0
  190.2540  177.1690  147.4590 C   0  0  0  0  0  0  0  0  0  0  0  0
  189.5960  176.9740  146.2370 C   0  0  0  0  0  3  0  0  0  0  0  0
  188.2770  177.4020  146.0660 C   0  0  0  0  0  0  0  0  0  0  0  0
  188.2640  178.2460  148.3430 C   0  0  0  0  0  3  0  0  0  0  0  0
  187.6150  178.0620  147.1190 C   0  0  0  0  0  0  0  0  0  0  0  0
  189.5800  177.8070  148.5100 C   0  0  0  0  0  3  0  0  0  0  0  0
  185.8120  178.6510  145.5670 N   0  0  0  0  0  0  0  0  0  0  0  0
  186.1080  177.4240  144.8220 C   0  0  0  0  0  2  0  0  0  0  0  0
  191.6420  176.7090  147.6310 C   0  0  0  0  0  0  0  0  0  0  0  0
  192.3460  177.1440  148.5820 O   0  0  0  0  0  1  0  0  0  0  0  0
  192.1910  175.7900  146.7450 O   0  0  0  0  0  0  0  0  0  0  0  0
  1  5  1  6  0  0  0
  2 15  1  0  0  0  0
  3 15  2  0  0  0  0
  3  9  1  0  0  0  0
  4 21  1  0  0  0  0
  5  4  2  0  0  0  0
  6  8  2  0  0  0  0
  7  6  1  0  0  0  0
  8  4  1  0  0  0  0
  9 10  2  0  0  0  0
 10  1  1  0  0  0  0
 10  6  1  0  0  0  0
 11  9  1  0  0  0  0
 12  2  2  0  0  0  0
 12 13  1  0  0  0  0
 13 14  2  0  0  0  0
 14 16  1  0  0  0  0
 15 17  1  0  0  0  0
 17 16  2  0  0  0  0
 17  1  1  0  0  0  0
 18 13  1  0  0  0  0
 18 19  1  0  0  0  0
 20 18  2  0  0  0  0
 21 30  1  0  0  0  0
 22 31  1  0  0  0  0
 22 26  1  0  0  0  0
 23 28  1  0  0  0  0
 24 32  1  0  0  0  0
 24 29  1  0  0  0  0
 25 24  2  0  0  0  0
 26 25  1  0  0  0  0
 26 28  2  0  0  0  0
 27 29  2  0  0  0  0
 28 27  1  0  0  0  0
 30 23  1  0  0  0  0
 31 30  1  0  0  0  0
 32 33  1  0  0  0  0
 34 32  2  0  0  0  0
M  END
>  <MODEL>
4

>  <REMARK>
 VINA RESULT:     -11.2      2.398      7.853
  Name = 
  4 active torsions:
  status: ('A' for Active; 'I' for Inactive)
    1  A    between atoms: C_3  and  C_25
    2  A    between atoms: C_7  and  C_11
    3  A    between atoms: C_8  and  C_18
    4  A    between atoms: C_18  and  N_30
                            x       y       z     vdW  Elec       q    Type
                         _______ _______ _______ _____ _____    ______ ____

>  <TORSDO>
F 4

$$$$
=
 OpenBabel11052415383D

 34 38  0  0  1  0  0  0  0  0999 V2000
  184.1010  178.6810  141.8280 C   0  0  1  0  0  3  0  0  0  0  0  0
  185.3180  178.2630  138.3450 C   0  0  0  0  0  3  0  0  0  0  0  0
  183.2070  178.4390  139.2000 C   0  0  0  0  0  3  0  0  0  0  0  0
  183.5510  178.8490  144.3020 C   0  0  0  0  0  0  0  0  0  0  0  0
  184.6110  178.8840  143.2440 C   0  0  0  0  0  3  0  0  0  0  0  0
  181.8160  178.8040  142.5800 C   0  0  0  0  0  0  0  0  0  0  0  0
  180.4440  178.8450  142.3580 O   0  0  0  0  0  1  0  0  0  0  0  0
  182.2620  178.8600  143.9790 C   0  0  0  0  0  3  0  0  0  0  0  0
  182.2760  178.5800  140.2190 C   0  0  0  0  0  0  0  0  0  0  0  0
  182.7030  178.6950  141.5590 C   0  0  0  0  0  0  0  0  0  0  0  0
  180.9300  178.5940  139.8660 O   0  0  0  0  0  1  0  0  0  0  0  0
  186.7660  178.1820  138.1360 C   0  0  0  0  0  3  0  0  0  0  0  0
  187.7630  178.2410  139.0160 C   0  0  0  0  0  0  0  0  0  0  0  0
  187.5850  178.4100  140.4600 C   0  0  0  0  0  3  0  0  0  0  0  0
  184.5770  178.4090  139.4440 C   0  0  0  0  0  0  0  0  0  0  0  0
  186.4700  178.5290  141.1730 C   0  0  0  0  0  3  0  0  0  0  0  0
  185.0450  178.5350  140.7750 C   0  0  0  0  0  0  0  0  0  0  0  0
  189.1520  178.1310  138.5140 C   0  0  0  0  0  0  0  0  0  0  0  0
  190.2270  177.4790  139.3210 C   0  0  0  0  0  1  0  0  0  0  0  0
  189.4530  178.5930  137.3810 O   0  0  0  0  0  0  0  0  0  0  0  0
  183.9690  178.9340  145.7460 C   0  0  0  0  0  2  0  0  0  0  0  0
  187.0890  178.1230  147.6630 C   0  0  0  0  0  2  0  0  0  0  0  0
  186.1570  178.4280  144.8820 C   0  0  0  0  0  2  0  0  0  0  0  0
  190.1140  176.9340  145.7000 C   0  0  0  0  0  0  0  0  0  0  0  0
  189.2740  177.3070  146.7580 C   0  0  0  0  0  3  0  0  0  0  0  0
  187.9850  177.7860  146.5050 C   0  0  0  0  0  0  0  0  0  0  0  0
  188.3570  177.5030  144.1220 C   0  0  0  0  0  3  0  0  0  0  0  0
  187.5160  177.8630  145.1790 C   0  0  0  0  0  0  0  0  0  0  0  0
  189.6470  177.0350  144.3820 C   0  0  0  0  0  3  0  0  0  0  0  0
  185.2660  178.3080  146.0400 N   0  0  0  0  0  0  0  0  0  0  0  0
  185.8830  178.9410  147.2090 C   0  0  0  0  0  2  0  0  0  0  0  0
  191.4720  176.4370  145.9770 C   0  0  0  0  0  0  0  0  0  0  0  0
  192.0890  175.7540  145.1160 O   0  0  0  0  0  0  0  0  0  0  0  0
  192.0870  176.7180  147.1900 O   0  0  0  0  0  1  0  0  0  0  0  0
  1  5  1  6  0  0  0
  2 15  1  0  0  0  0
  3 15  2  0  0  0  0
  3  9  1  0  0  0  0
  4 21  1  0  0  0  0
  5  4  2  0  0  0  0
  6  8  2  0  0  0  0
  7  6  1  0  0  0  0
  8  4  1  0  0  0  0
  9 10  2  0  0  0  0
 10  1  1  0  0  0  0
 10  6  1  0  0  0  0
 11  9  1  0  0  0  0
 12  2  2  0  0  0  0
 12 13  1  0  0  0  0
 13 14  2  0  0  0  0
 14 16  1  0  0  0  0
 15 17  1  0  0  0  0
 17 16  2  0  0  0  0
 17  1  1  0  0  0  0
 18 13  1  0  0  0  0
 18 19  1  0  0  0  0
 20 18  2  0  0  0  0
 21 30  1  0  0  0  0
 23 28  1  0  0  0  0
 23 30  1  0  0  0  0
 24 32  1  0  0  0  0
 24 25  1  0  0  0  0
 26 25  2  0  0  0  0
 26 22  1  0  0  0  0
 27 29  1  0  0  0  0
 27 28  2  0  0  0  0
 28 26  1  0  0  0  0
 29 24  2  0  0  0  0
 30 31  1  0  0  0  0
 31 22  1  0  0  0  0
 32 34  1  0  0  0  0
 33 32  2  0  0  0  0
M  END
>  <MODEL>
5

>  <REMARK>
 VINA RESULT:     -11.1      2.448      7.168
  Name = 
  4 active torsions:
  status: ('A' for Active; 'I' for Inactive)
    1  A    between atoms: C_3  and  C_25
    2  A    between atoms: C_7  and  C_11
    3  A    between atoms: C_8  and  C_18
    4  A    between atoms: C_18  and  N_30
                            x       y       z     vdW  Elec       q    Type
                         _______ _______ _______ _____ _____    ______ ____

>  <TORSDO>
F 4

$$$$
=
 OpenBabel11052415383D

 34 38  0  0  1  0  0  0  0  0999 V2000
  189.0160  177.5890  144.2320 C   0  0  1  0  0  3  0  0  0  0  0  0
  191.2940  177.1130  141.3380 C   0  0  0  0  0  3  0  0  0  0  0  0
  191.5840  176.7310  143.5720 C   0  0  0  0  0  3  0  0  0  0  0  0
  187.2970  178.1200  146.0240 C   0  0  0  0  0  0  0  0  0  0  0  0
  187.5890  177.9910  144.5610 C   0  0  0  0  0  3  0  0  0  0  0  0
  189.4910  177.1810  146.5570 C   0  0  0  0  0  0  0  0  0  0  0  0
  190.3120  176.7450  147.5910 O   0  0  0  0  0  1  0  0  0  0  0  0
  188.1680  177.6980  146.9350 C   0  0  0  0  0  3  0  0  0  0  0  0
  191.1890  176.7180  144.9020 C   0  0  0  0  0  0  0  0  0  0  0  0
  189.8960  177.1550  145.2630 C   0  0  0  0  0  0  0  0  0  0  0  0
  192.1090  176.2690  145.8440 O   0  0  0  0  0  1  0  0  0  0  0  0
  190.7870  177.4620  140.0090 C   0  0  0  0  0  3  0  0  0  0  0  0
  189.5980  177.9340  139.6430 C   0  0  0  0  0  0  0  0  0  0  0  0
  188.4970  178.2140  140.5680 C   0  0  0  0  0  3  0  0  0  0  0  0
  190.7430  177.1650  142.5510 C   0  0  0  0  0  0  0  0  0  0  0  0
  188.4360  178.0750  141.8870 C   0  0  0  0  0  3  0  0  0  0  0  0
  189.4330  177.6000  142.8720 C   0  0  0  0  0  0  0  0  0  0  0  0
  189.3580  178.2000  138.2060 C   0  0  0  0  0  0  0  0  0  0  0  0
  189.9150  177.3140  137.1410 C   0  0  0  0  0  1  0  0  0  0  0  0
  188.6680  179.1950  137.8550 O   0  0  0  0  0  0  0  0  0  0  0  0
  185.9420  178.6180  146.4500 C   0  0  0  0  0  2  0  0  0  0  0  0
  182.7060  179.2820  144.6730 C   0  0  0  0  0  2  0  0  0  0  0  0
  185.3680  178.1220  144.1660 C   0  0  0  0  0  2  0  0  0  0  0  0
  182.5950  178.7060  140.9220 C   0  0  0  0  0  0  0  0  0  0  0  0
  182.2220  179.0390  142.2310 C   0  0  0  0  0  3  0  0  0  0  0  0
  183.1160  178.8610  143.2910 C   0  0  0  0  0  0  0  0  0  0  0  0
  184.7820  178.0300  141.7330 C   0  0  0  0  0  3  0  0  0  0  0  0
  184.4120  178.3740  143.0360 C   0  0  0  0  0  0  0  0  0  0  0  0
  183.8800  178.2000  140.6800 C   0  0  0  0  0  3  0  0  0  0  0  0
  185.0360  178.9390  145.3370 N   0  0  0  0  0  0  0  0  0  0  0  0
  183.6440  178.7030  145.7290 C   0  0  0  0  0  2  0  0  0  0  0  0
  181.6430  178.8920  139.8140 C   0  0  0  0  0  0  0  0  0  0  0  0
  181.8880  178.4100  138.6750 O   0  0  0  0  0  0  0  0  0  0  0  0
  180.4640  179.5990  140.0140 O   0  0  0  0  0  1  0  0  0  0  0  0
  1  5  1  6  0  0  0
  1 10  1  0  0  0  0
  2 15  1  0  0  0  0
  3  9  1  0  0  0  0
  4 21  1  0  0  0  0
  4  8  1  0  0  0  0
  5  4  2  0  0  0  0
  6  8  2  0  0  0  0
  6  7  1  0  0  0  0
  9 10  2  0  0  0  0
  9 11  1  0  0  0  0
 10  6  1  0  0  0  0
 12  2  2  0  0  0  0
 13 12  1  0  0  0  0
 13 14  2  0  0  0  0
 14 16  1  0  0  0  0
 15 17  1  0  0  0  0
 15  3  2  0  0  0  0
 16 17  2  0  0  0  0
 17  1  1  0  0  0  0
 18 13  1  0  0  0  0
 19 18  1  0  0  0  0
 20 18  2  0  0  0  0
 22 31  1  0  0  0  0
 23 30  1  0  0  0  0
 24 25  1  0  0  0  0
 25 26  2  0  0  0  0
 26 22  1  0  0  0  0
 27 28  2  0  0  0  0
 28 26  1  0  0  0  0
 28 23  1  0  0  0  0
 29 24  2  0  0  0  0
 29 27  1  0  0  0  0
 30 31  1  0  0  0  0
 30 21  1  0  0  0  0
 32 34  1  0  0  0  0
 32 24  1  0  0  0  0
 33 32  2  0  0  0  0
M  END
>  <MODEL>
6

>  <REMARK>
 VINA RESULT:     -10.7      2.723      7.958
  Name = 
  4 active torsions:
  status: ('A' for Active; 'I' for Inactive)
    1  A    between atoms: C_3  and  C_25
    2  A    between atoms: C_7  and  C_11
    3  A    between atoms: C_8  and  C_18
    4  A    between atoms: C_18  and  N_30
                            x       y       z     vdW  Elec       q    Type
                         _______ _______ _______ _____ _____    ______ ____

>  <TORSDO>
F 4

$$$$
=
 OpenBabel11052415383D

 34 38  0  0  0  0  0  0  0  0999 V2000
  188.6220  177.8730  141.1430 C   0  0  0  0  0  0  0  0  0  0  0  0
  188.0920  177.7310  144.8150 C   0  0  0  0  0  3  0  0  0  0  0  0
  189.9500  177.3610  143.5390 C   0  0  0  0  0  3  0  0  0  0  0  0
  188.6680  177.9310  138.6040 C   0  0  0  0  0  0  0  0  0  0  0  0
  187.8980  178.2260  139.8550 C   0  0  0  0  0  2  0  0  0  0  0  0
  190.6520  177.4050  139.9330 C   0  0  0  0  0  0  0  0  0  0  0  0
  192.0020  177.0800  139.8670 O   0  0  0  0  0  1  0  0  0  0  0  0
  189.9530  177.5990  138.6550 C   0  0  0  0  0  3  0  0  0  0  0  0
  190.6520  177.2690  142.3450 C   0  0  0  0  0  0  0  0  0  0  0  0
  190.0000  177.5150  141.1180 C   0  0  0  0  0  0  0  0  0  0  0  0
  191.9980  176.9250  142.4130 O   0  0  0  0  0  1  0  0  0  0  0  0
  186.7490  178.0290  145.3200 C   0  0  0  0  0  3  0  0  0  0  0  0
  185.6410  178.3620  144.6630 C   0  0  0  0  0  0  0  0  0  0  0  0
  185.5520  178.5020  143.2070 C   0  0  0  0  0  3  0  0  0  0  0  0
  188.5990  177.6960  143.5830 C   0  0  0  0  0  0  0  0  0  0  0  0
  186.4850  178.3360  142.2760 C   0  0  0  0  0  3  0  0  0  0  0  0
  187.9130  177.9620  142.3720 C   0  0  0  0  0  0  0  0  0  0  0  0
  184.4070  178.6110  145.4430 C   0  0  0  0  0  0  0  0  0  0  0  0
  183.1060  178.9150  144.7750 C   0  0  0  0  0  1  0  0  0  0  0  0
  184.4370  178.5700  146.7020 O   0  0  0  0  0  0  0  0  0  0  0  0
  187.9950  178.1460  137.2740 C   0  0  0  0  0  2  0  0  0  0  0  0
  184.5360  176.7070  137.1000 C   0  0  0  0  0  2  0  0  0  0  0  0
  187.3360  175.8350  137.4030 C   0  0  0  0  0  2  0  0  0  0  0  0
  184.1980  172.9320  136.8730 C   0  0  0  0  0  0  0  0  0  0  0  0
  183.8870  174.2970  136.9340 C   0  0  0  0  0  3  0  0  0  0  0  0
  184.8970  175.2490  137.0970 C   0  0  0  0  0  0  0  0  0  0  0  0
  186.5530  173.4730  137.1230 C   0  0  0  0  0  3  0  0  0  0  0  0
  186.2410  174.8350  137.1700 C   0  0  0  0  0  0  0  0  0  0  0  0
  185.5370  172.5270  136.9690 C   0  0  0  0  0  3  0  0  0  0  0  0
  186.9340  177.1760  136.9670 N   0  0  0  0  0  0  0  0  0  0  0  0
  185.6860  177.5610  137.6300 C   0  0  0  0  0  2  0  0  0  0  0  0
  183.1260  171.9380  136.7070 C   0  0  0  0  0  0  0  0  0  0  0  0
  183.3770  170.7060  136.7990 O   0  0  0  0  0  1  0  0  0  0  0  0
  181.8240  172.3470  136.4470 O   0  0  0  0  0  0  0  0  0  0  0  0
  1 17  2  0  0  0  0
  2 12  1  0  0  0  0
  3 15  1  0  0  0  0
  4  8  2  0  0  0  0
  4  5  1  0  0  0  0
  5  1  1  0  0  0  0
  6 10  2  0  0  0  0
  7  6  1  0  0  0  0
  8  6  1  0  0  0  0
  9 11  1  0  0  0  0
  9  3  2  0  0  0  0
 10  1  1  0  0  0  0
 10  9  1  0  0  0  0
 13 12  2  0  0  0  0
 13 18  1  0  0  0  0
 14 13  1  0  0  0  0
 15  2  2  0  0  0  0
 16 17  1  0  0  0  0
 16 14  2  0  0  0  0
 17 15  1  0  0  0  0
 18 20  2  0  0  0  0
 19 18  1  0  0  0  0
 21  4  1  0  0  0  0
 22 31  1  0  0  0  0
 24 25  2  0  0  0  0
 24 29  1  0  0  0  0
 25 26  1  0  0  0  0
 26 22  1  0  0  0  0
 26 28  2  0  0  0  0
 27 28  1  0  0  0  0
 28 23  1  0  0  0  0
 29 27  2  0  0  0  0
 30 21  1  0  0  0  0
 30 23  1  0  0  0  0
 30 31  1  0  0  0  0
 32 33  1  0  0  0  0
 32 24  1  0  0  0  0
 34 32  2  0  0  0  0
M  END
>  <MODEL>
7

>  <REMARK>
 VINA RESULT:     -10.4      4.026      6.654
  Name = 
  4 active torsions:
  status: ('A' for Active; 'I' for Inactive)
    1  A    between atoms: C_3  and  C_25
    2  A    between atoms: C_7  and  C_11
    3  A    between atoms: C_8  and  C_18
    4  A    between atoms: C_18  and  N_30
                            x       y       z     vdW  Elec       q    Type
                         _______ _______ _______ _____ _____    ______ ____

>  <TORSDO>
F 4

$$$$
=
 OpenBabel11052415383D

 34 38  0  0  0  0  0  0  0  0999 V2000
  184.8510  178.4790  142.4220 C   0  0  0  0  0  0  0  0  0  0  0  0
  185.2510  178.3690  146.1120 C   0  0  0  0  0  3  0  0  0  0  0  0
  183.4270  178.7770  144.7980 C   0  0  0  0  0  3  0  0  0  0  0  0
  184.8950  178.6030  139.8860 C   0  0  0  0  0  0  0  0  0  0  0  0
  185.6300  178.2410  141.1390 C   0  0  0  0  0  2  0  0  0  0  0  0
  182.8510  178.9750  141.1760 C   0  0  0  0  0  0  0  0  0  0  0  0
  181.4940  179.2640  141.0830 O   0  0  0  0  0  1  0  0  0  0  0  0
  183.5990  178.8940  139.9130 C   0  0  0  0  0  3  0  0  0  0  0  0
  182.7640  178.9350  143.5900 C   0  0  0  0  0  0  0  0  0  0  0  0
  183.4650  178.7980  142.3720 C   0  0  0  0  0  0  0  0  0  0  0  0
  181.4060  179.2350  143.6330 O   0  0  0  0  0  1  0  0  0  0  0  0
  186.5840  178.0740  146.6430 C   0  0  0  0  0  3  0  0  0  0  0  0
  187.7230  177.8220  146.0040 C   0  0  0  0  0  0  0  0  0  0  0  0
  187.8670  177.7900  144.5460 C   0  0  0  0  0  3  0  0  0  0  0  0
  184.7850  178.4790  144.8680 C   0  0  0  0  0  0  0  0  0  0  0  0
  186.9620  177.9960  143.5970 C   0  0  0  0  0  3  0  0  0  0  0  0
  185.5200  178.3210  143.6670 C   0  0  0  0  0  0  0  0  0  0  0  0
  188.9370  177.5520  146.8090 C   0  0  0  0  0  0  0  0  0  0  0  0
  190.1930  177.0370  146.1850 C   0  0  0  0  0  1  0  0  0  0  0  0
  188.9280  177.7560  148.0530 O   0  0  0  0  0  0  0  0  0  0  0  0
  185.6190  178.5040  138.5690 C   0  0  0  0  0  2  0  0  0  0  0  0
  189.2160  177.6110  139.1470 C   0  0  0  0  0  2  0  0  0  0  0  0
  186.9850  176.9530  137.3360 C   0  0  0  0  0  2  0  0  0  0  0  0
  190.6660  174.7230  137.1550 C   0  0  0  0  0  0  0  0  0  0  0  0
  190.5350  175.7880  138.0560 C   0  0  0  0  0  3  0  0  0  0  0  0
  189.3430  176.5140  138.1300 C   0  0  0  0  0  0  0  0  0  0  0  0
  188.3860  175.0980  136.4050 C   0  0  0  0  0  3  0  0  0  0  0  0
  188.2540  176.1510  137.3140 C   0  0  0  0  0  0  0  0  0  0  0  0
  189.5840  174.3830  136.3300 C   0  0  0  0  0  3  0  0  0  0  0  0
  186.8300  177.6720  138.6040 N   0  0  0  0  0  0  0  0  0  0  0  0
  188.0120  178.5020  138.8520 C   0  0  0  0  0  2  0  0  0  0  0  0
  191.9280  173.9690  137.0810 C   0  0  0  0  0  0  0  0  0  0  0  0
  192.0010  172.9110  136.4000 O   0  0  0  0  0  0  0  0  0  0  0  0
  193.0530  174.4170  137.7630 O   0  0  0  0  0  1  0  0  0  0  0  0
  1 17  2  0  0  0  0
  2 12  1  0  0  0  0
  3 15  1  0  0  0  0
  4  8  2  0  0  0  0
  4  5  1  0  0  0  0
  5  1  1  0  0  0  0
  6 10  2  0  0  0  0
  7  6  1  0  0  0  0
  8  6  1  0  0  0  0
  9 11  1  0  0  0  0
  9  3  2  0  0  0  0
 10  1  1  0  0  0  0
 10  9  1  0  0  0  0
 13 12  2  0  0  0  0
 13 18  1  0  0  0  0
 14 13  1  0  0  0  0
 15  2  2  0  0  0  0
 16 17  1  0  0  0  0
 16 14  2  0  0  0  0
 17 15  1  0  0  0  0
 18 20  2  0  0  0  0
 19 18  1  0  0  0  0
 21 30  1  0  0  0  0
 21  4  1  0  0  0  0
 23 30  1  0  0  0  0
 24 25  1  0  0  0  0
 25 26  2  0  0  0  0
 26 22  1  0  0  0  0
 27 28  2  0  0  0  0
 28 23  1  0  0  0  0
 28 26  1  0  0  0  0
 29 27  1  0  0  0  0
 29 24  2  0  0  0  0
 30 31  1  0  0  0  0
 31 22  1  0  0  0  0
 32 24  1  0  0  0  0
 32 34  1  0  0  0  0
 33 32  2  0  0  0  0
M  END
>  <MODEL>
8

>  <REMARK>
 VINA RESULT:     -10.3      1.603      2.452
  Name = 
  4 active torsions:
  status: ('A' for Active; 'I' for Inactive)
    1  A    between atoms: C_3  and  C_25
    2  A    between atoms: C_7  and  C_11
    3  A    between atoms: C_8  and  C_18
    4  A    between atoms: C_18  and  N_30
                            x       y       z     vdW  Elec       q    Type
                         _______ _______ _______ _____ _____    ______ ____

>  <TORSDO>
F 4

$$$$
=
 OpenBabel11052415383D

 34 38  0  0  1  0  0  0  0  0999 V2000
  188.4500  177.8750  141.2390 C   0  0  0  0  0  0  0  0  0  0  0  0
  190.0730  177.3840  144.5430 C   0  0  0  0  0  3  0  0  0  0  0  0
  190.9070  177.2910  142.4180 C   0  0  0  0  0  3  0  0  0  0  0  0
  187.0630  178.1460  139.1290 C   0  0  0  0  0  0  0  0  0  0  0  0
  187.1180  178.2660  140.6210 C   0  0  0  0  0  3  0  0  0  0  0  0
  189.4650  177.6950  139.0630 C   0  0  0  0  0  0  0  0  0  0  0  0
  190.5550  177.5010  138.2220 O   0  0  0  0  0  1  0  0  0  0  0  0
  188.1650  177.9290  138.4190 C   0  0  0  0  0  3  0  0  0  0  0  0
  190.8220  177.3620  141.0340 C   0  0  0  0  0  0  0  0  0  0  0  0
  189.5860  177.6470  140.4130 C   0  0  2  0  0  3  0  0  0  0  0  0
  191.9840  177.1370  140.3030 O   0  0  0  0  0  1  0  0  0  0  0  0
  189.2360  177.5160  145.7370 C   0  0  0  0  0  3  0  0  0  0  0  0
  187.9410  177.8000  145.8490 C   0  0  0  0  0  0  0  0  0  0  0  0
  187.0470  178.0500  144.7160 C   0  0  0  0  0  3  0  0  0  0  0  0
  189.8040  177.4960  143.2420 C   0  0  0  0  0  0  0  0  0  0  0  0
  187.3030  178.0470  143.4130 C   0  0  0  0  0  3  0  0  0  0  0  0
  188.5500  177.7980  142.6560 C   0  0  0  0  0  0  0  0  0  0  0  0
  187.3500  177.8710  147.2050 C   0  0  0  0  0  0  0  0  0  0  0  0
  188.1330  177.5010  148.4220 C   0  0  0  0  0  1  0  0  0  0  0  0
  186.1570  178.2510  147.3540 O   0  0  0  0  0  0  0  0  0  0  0  0
  185.7550  178.4080  138.4310 C   0  0  0  0  0  2  0  0  0  0  0  0
  182.1210  178.2460  139.3470 C   0  0  0  0  0  2  0  0  0  0  0  0
  184.7300  178.9060  140.5510 C   0  0  0  0  0  2  0  0  0  0  0  0
  181.1950  178.6840  143.0030 C   0  0  0  0  0  0  0  0  0  0  0  0
  181.1030  178.4730  141.6200 C   0  0  0  0  0  3  0  0  0  0  0  0
  182.2440  178.5340  140.8160 C   0  0  0  0  0  0  0  0  0  0  0  0
  183.5930  179.0030  142.7800 C   0  0  0  0  0  3  0  0  0  0  0  0
  183.5000  178.7790  141.4040 C   0  0  0  0  0  0  0  0  0  0  0  0
  182.4460  178.9500  143.5770 C   0  0  0  0  0  3  0  0  0  0  0  0
  184.5670  178.2060  139.2740 N   0  0  0  0  0  0  0  0  0  0  0  0
  183.3680  178.6940  138.5880 C   0  0  0  0  0  2  0  0  0  0  0  0
  179.9860  178.6230  143.8400 C   0  0  0  0  0  0  0  0  0  0  0  0
  179.6800  177.5600  144.4430 O   0  0  0  0  0  1  0  0  0  0  0  0
  179.1700  179.7390  143.9750 O   0  0  0  0  0  0  0  0  0  0  0  0
  1 17  2  0  0  0  0
  2 12  1  0  0  0  0
  3 15  1  0  0  0  0
  4  5  2  0  0  0  0
  5  1  1  0  0  0  0
  7  6  1  0  0  0  0
  8  6  2  0  0  0  0
  8  4  1  0  0  0  0
  9  3  2  0  0  0  0
 10  6  1  6  0  0  0
 10  9  1  0  0  0  0
 10  1  1  0  0  0  0
 11  9  1  0  0  0  0
 12 13  2  0  0  0  0
 13 18  1  0  0  0  0
 14 13  1  0  0  0  0
 15  2  2  0  0  0  0
 16 14  2  0  0  0  0
 17 15  1  0  0  0  0
 17 16  1  0  0  0  0
 18 20  2  0  0  0  0
 18 19  1  0  0  0  0
 21  4  1  0  0  0  0
 21 30  1  0  0  0  0
 22 26  1  0  0  0  0
 23 28  1  0  0  0  0
 24 29  1  0  0  0  0
 24 32  1  0  0  0  0
 25 24  2  0  0  0  0
 26 28  2  0  0  0  0
 26 25  1  0  0  0  0
 27 29  2  0  0  0  0
 28 27  1  0  0  0  0
 30 23  1  0  0  0  0
 31 30  1  0  0  0  0
 31 22  1  0  0  0  0
 32 34  2  0  0  0  0
 32 33  1  0  0  0  0
M  END
>  <MODEL>
9

>  <REMARK>
 VINA RESULT:     -10.2      2.495      7.818
  Name = 
  4 active torsions:
  status: ('A' for Active; 'I' for Inactive)
    1  A    between atoms: C_3  and  C_25
    2  A    between atoms: C_7  and  C_11
    3  A    between atoms: C_8  and  C_18
    4  A    between atoms: C_18  and  N_30
                            x       y       z     vdW  Elec       q    Type
                         _______ _______ _______ _____ _____    ______ ____

>  <TORSDO>
F 4

$$$$
