=
 OpenBabel11052415133D

 55 56  0  0  1  0  0  0  0  0999 V2000
  184.6310  178.4490  137.1110 O   0  0  0  0  0  0  0  0  0  0  0  0
  184.5650  176.2490  136.3130 N   0  0  0  0  0  0  0  0  0  0  0  0
  183.9270  177.4480  136.8060 C   0  0  0  0  0  0  0  0  0  0  0  0
  185.9250  176.3460  135.7520 C   0  0  2  0  0  3  0  0  0  0  0  0
  186.1150  175.3710  134.5940 C   0  0  0  0  0  1  0  0  0  0  0  0
  186.4930  175.9910  138.0600 O   0  0  0  0  0  1  0  0  0  0  0  0
  187.0440  176.2330  136.8010 C   0  0  2  0  0  3  0  0  0  0  0  0
  187.9340  177.4720  136.8560 C   0  0  0  0  0  2  0  0  0  0  0  0
  187.8590  178.1180  138.2300 C   0  0  0  0  0  2  0  0  0  0  0  0
  189.2450  178.2030  138.8490 C   0  0  0  0  0  2  0  0  0  0  0  0
  189.6450  176.8590  139.4560 C   0  0  1  0  0  3  0  0  0  0  0  0
  190.8040  175.2120  137.9800 C   0  0  0  0  0  3  0  0  0  0  0  0
  193.2010  175.3050  137.5880 C   0  0  0  0  0  0  0  0  0  0  0  0
  192.1350  176.9350  139.0400 C   0  0  0  0  0  3  0  0  0  0  0  0
  193.2840  176.4250  138.4280 C   0  0  0  0  0  3  0  0  0  0  0  0
  191.9540  174.7020  137.3680 C   0  0  0  0  0  3  0  0  0  0  0  0
  190.8900  176.3280  138.8170 C   0  0  0  0  0  0  0  0  0  0  0  0
  194.3820  174.7840  136.9610 N   0  0  0  0  0  0  0  0  0  0  0  0
  195.4130  175.6080  136.6550 O   0  0  0  0  0  1  0  0  0  0  0  0
  194.4870  173.4200  136.6570 N   0  0  0  0  0  1  0  0  0  0  0  0
  188.8480  177.2570  141.6470 N   0  0  0  0  0  0  0  0  0  0  0  0
  189.8340  176.9840  140.8930 N   0  0  0  0  0  0  0  0  0  0  0  0
  190.2630  177.6070  143.6030 C   0  0  0  0  0  3  0  0  0  0  0  0
  188.0490  177.4180  145.3000 C   0  0  0  0  0  0  0  0  0  0  0  0
  187.8830  177.2850  143.9190 C   0  0  0  0  0  3  0  0  0  0  0  0
  190.4270  177.7420  144.9840 C   0  0  0  0  0  3  0  0  0  0  0  0
  188.9920  177.3790  143.0640 C   0  0  0  0  0  0  0  0  0  0  0  0
  186.9760  177.3290  146.1220 F   0  0  0  0  0  0  0  0  0  0  0  0
  189.3210  177.6490  145.8330 C   0  0  0  0  0  3  0  0  0  0  0  0
  183.8640  174.9640  136.3620 C   0  0  0  0  0  2  0  0  0  0  0  0
  184.8740  173.0480  137.6090 C   0  0  0  0  0  1  0  0  0  0  0  0
  184.0220  174.2970  137.7210 C   0  0  0  0  0  2  0  0  0  0  0  0
  182.4320  177.5710  136.9550 C   0  0  2  0  0  3  0  0  0  0  0  0
  182.6510  178.0240  134.5970 O   0  0  0  0  0  1  0  0  0  0  0  0
  181.7240  177.8770  135.6320 C   0  0  1  0  0  3  0  0  0  0  0  0
  179.3970  177.0090  135.3990 O   0  0  0  0  0  1  0  0  0  0  0  0
  180.7610  176.7890  135.2760 C   0  0  0  0  0  0  0  0  0  0  0  0
  181.1800  175.6720  134.8720 O   0  0  0  0  0  0  0  0  0  0  0  0
  182.0570  178.5810  138.0430 C   0  0  0  0  0  2  0  0  0  0  0  0
  181.4590  177.9310  139.2960 C   0  0  2  0  0  0  0  0  0  0  0  0
  179.2310  177.1920  138.5400 O   0  0  0  0  0  1  0  0  0  0  0  0
  180.5430  176.7760  138.7940 C   0  0  2  0  0  3  0  0  0  0  0  0
  180.5620  175.5170  139.6770 C   0  0  1  0  0  3  0  0  0  0  0  0
  179.6120  175.6140  140.8610 C   0  0  0  0  0  1  0  0  0  0  0  0
  180.6230  174.2480  137.6600 O   0  0  0  0  0  0  0  0  0  0  0  0
  180.2680  174.2960  138.8670 C   0  0  0  0  0  0  0  0  0  0  0  0
  179.5810  173.2250  139.4260 O   0  0  0  0  0  1  0  0  0  0  0  0
  180.6370  179.0410  139.9910 C   0  0  0  0  0  2  0  0  0  0  0  0
  180.1000  178.6370  141.2150 O   0  0  0  0  0  0  0  0  0  0  0  0
  180.4760  179.6380  142.1080 C   0  0  0  0  0  2  0  0  0  0  0  0
  179.2720  180.4900  142.4490 C   0  0  0  0  0  1  0  0  0  0  0  0
  182.5510  177.4690  140.0830 O   0  0  0  0  0  0  0  0  0  0  0  0
  183.4190  178.5180  140.4270 C   0  0  0  0  0  2  0  0  0  0  0  0
  184.3130  178.0930  141.5780 C   0  0  0  0  0  2  0  0  0  0  0  0
  185.6570  178.7870  141.4810 C   0  0  0  0  0  1  0  0  0  0  0  0
  2 30  1  0  0  0  0
  2  3  1  0  0  0  0
  3 33  1  0  0  0  0
  3  1  2  0  0  0  0
  4  5  1  6  0  0  0
  4  2  1  0  0  0  0
  4  7  1  0  0  0  0
  7  8  1  0  0  0  0
  7  6  1  1  0  0  0
  8  9  1  0  0  0  0
  9 10  1  0  0  0  0
 11 10  1  6  0  0  0
 11 22  1  0  0  0  0
 12 17  1  0  0  0  0
 13 15  2  0  0  0  0
 15 14  1  0  0  0  0
 16 13  1  0  0  0  0
 16 12  2  0  0  0  0
 17 14  2  0  0  0  0
 17 11  1  0  0  0  0
 18 13  1  0  0  0  0
 19 18  1  0  0  0  0
 20 18  1  0  0  0  0
 21 27  1  0  0  0  0
 22 21  2  0  0  0  0
 23 26  1  0  0  0  0
 24 29  1  0  0  0  0
 24 28  1  0  0  0  0
 25 24  2  0  0  0  0
 26 29  2  0  0  0  0
 27 23  2  0  0  0  0
 27 25  1  0  0  0  0
 30 32  1  0  0  0  0
 31 32  1  0  0  0  0
 33 39  1  1  0  0  0
 35 34  1  6  0  0  0
 35 33  1  0  0  0  0
 37 36  1  0  0  0  0
 37 35  1  0  0  0  0
 38 37  2  0  0  0  0
 40 39  1  6  0  0  0
 40 48  1  0  0  0  0
 40 52  1  0  0  0  0
 42 41  1  1  0  0  0
 42 40  1  0  0  0  0
 42 43  1  0  0  0  0
 43 44  1  1  0  0  0
 45 46  2  0  0  0  0
 46 47  1  0  0  0  0
 46 43  1  0  0  0  0
 48 49  1  0  0  0  0
 49 50  1  0  0  0  0
 50 51  1  0  0  0  0
 52 53  1  0  0  0  0
 53 54  1  0  0  0  0
 55 54  1  0  0  0  0
M  END
>  <MODEL>
1

>  <REMARK>
 VINA RESULT:      -5.2      0.000      0.000
  Name = 
  26 active torsions:
  status: ('A' for Active; 'I' for Inactive)
    1  A    between atoms: C_1  and  C_30
    2  A    between atoms: N_2  and  C_44
    3  A    between atoms: C_6  and  C_8
    4  A    between atoms: C_6  and  O_20
    5  A    between atoms: C_6  and  C_38
    6  A    between atoms: C_6  and  C_46
    7  A    between atoms: C_7  and  C_8
    8  A    between atoms: C_7  and  C_23
    9  A    between atoms: C_7  and  C_43
   10  A    between atoms: N_10  and  C_32
   11  A    between atoms: C_11  and  C_29
   12  A    between atoms: C_11  and  C_38
   13  A    between atoms: C_12  and  O_14
   14  A    between atoms: O_14  and  C_46
   15  A    between atoms: C_16  and  N_17
   16  A    between atoms: C_16  and  C_26
   17  A    between atoms: N_17  and  C_37
   18  A    between atoms: C_19  and  C_45
   19  A    between atoms: C_19  and  C_49
   20  A    between atoms: O_20  and  C_30
   21  A    between atoms: C_26  and  C_45
   22  A    between atoms: N_28  and  C_33
   23  A    between atoms: C_33  and  C_49
   24  A    between atoms: C_33  and  C_52
   25  A    between atoms: C_35  and  C_43
   26  A    between atoms: C_37  and  C_40
                            x       y       z     vdW  Elec       q    Type
                         _______ _______ _______ _____ _____    ______ ____

>  <TORSDO>
F 26

$$$$
=
 OpenBabel11052415133D

 55 56  0  0  1  0  0  0  0  0999 V2000
  184.7740  177.9570  136.2600 O   0  0  0  0  0  0  0  0  0  0  0  0
  184.4420  175.6570  136.5380 N   0  0  0  0  0  0  0  0  0  0  0  0
  183.9760  177.0240  136.5470 C   0  0  0  0  0  0  0  0  0  0  0  0
  185.6610  175.3250  135.7790 C   0  0  2  0  0  3  0  0  0  0  0  0
  185.5210  173.9820  135.0680 C   0  0  0  0  0  1  0  0  0  0  0  0
  186.6530  175.7250  137.9310 O   0  0  0  0  0  1  0  0  0  0  0  0
  186.9560  175.4180  136.6030 C   0  0  2  0  0  3  0  0  0  0  0  0
  187.9410  176.4440  136.0480 C   0  0  0  0  0  2  0  0  0  0  0  0
  188.0840  177.6150  137.0060 C   0  0  0  0  0  2  0  0  0  0  0  0
  189.5380  177.7830  137.4200 C   0  0  0  0  0  2  0  0  0  0  0  0
  189.9430  176.6950  138.4140 C   0  0  1  0  0  3  0  0  0  0  0  0
  191.2370  174.9650  137.1600 C   0  0  0  0  0  3  0  0  0  0  0  0
  193.6630  174.8580  137.2570 C   0  0  0  0  0  0  0  0  0  0  0  0
  192.4630  176.5630  138.5050 C   0  0  0  0  0  3  0  0  0  0  0  0
  193.6660  175.9620  138.1230 C   0  0  0  0  0  3  0  0  0  0  0  0
  192.4410  174.3640  136.7790 C   0  0  0  0  0  3  0  0  0  0  0  0
  191.2430  176.0650  138.0230 C   0  0  0  0  0  0  0  0  0  0  0  0
  194.8990  174.2440  136.8670 N   0  0  0  0  0  0  0  0  0  0  0  0
  194.9510  172.9140  136.6120 O   0  0  0  0  0  1  0  0  0  0  0  0
  196.0680  175.0070  136.7420 N   0  0  0  0  0  1  0  0  0  0  0  0
  189.4130  176.6860  140.7190 N   0  0  0  0  0  0  0  0  0  0  0  0
  190.0340  177.2410  139.7580 N   0  0  0  0  0  0  0  0  0  0  0  0
  188.4560  176.8850  142.9530 C   0  0  0  0  0  3  0  0  0  0  0  0
  190.6230  178.4380  143.7970 C   0  0  0  0  0  0  0  0  0  0  0  0
  190.5710  177.9680  142.4820 C   0  0  0  0  0  3  0  0  0  0  0  0
  188.5100  177.3550  144.2690 C   0  0  0  0  0  3  0  0  0  0  0  0
  189.4850  177.1880  142.0550 C   0  0  0  0  0  0  0  0  0  0  0  0
  191.6740  179.1880  144.2060 F   0  0  0  0  0  0  0  0  0  0  0  0
  189.5930  178.1300  144.6910 C   0  0  0  0  0  3  0  0  0  0  0  0
  183.7040  174.6190  137.2630 C   0  0  0  0  0  2  0  0  0  0  0  0
  182.3950  172.5060  136.9970 C   0  0  0  0  0  1  0  0  0  0  0  0
  182.8520  173.7830  136.3190 C   0  0  0  0  0  2  0  0  0  0  0  0
  182.5500  177.3950  136.8680 C   0  0  2  0  0  3  0  0  0  0  0  0
  182.2000  176.6440  134.6040 O   0  0  0  0  0  1  0  0  0  0  0  0
  181.6450  177.4090  135.6330 C   0  0  1  0  0  3  0  0  0  0  0  0
  179.2250  177.7550  136.1300 O   0  0  0  0  0  1  0  0  0  0  0  0
  180.2860  176.8770  135.9610 C   0  0  0  0  0  0  0  0  0  0  0  0
  180.0990  175.6380  136.0900 O   0  0  0  0  0  0  0  0  0  0  0  0
  182.4740  178.7160  137.6390 C   0  0  0  0  0  2  0  0  0  0  0  0
  181.5830  178.6420  138.8840 C   0  0  2  0  0  0  0  0  0  0  0  0
  183.7340  179.5270  139.7030 O   0  0  0  0  0  1  0  0  0  0  0  0
  182.4010  179.2780  140.0470 C   0  0  2  0  0  3  0  0  0  0  0  0
  182.3070  178.5200  141.3820 C   0  0  1  0  0  3  0  0  0  0  0  0
  183.6290  178.4840  142.1320 C   0  0  0  0  0  1  0  0  0  0  0  0
  180.9520  178.5480  143.3430 O   0  0  0  0  0  1  0  0  0  0  0  0
  181.2300  179.0950  142.2440 C   0  0  0  0  0  0  0  0  0  0  0  0
  180.5120  180.2100  141.8280 O   0  0  0  0  0  0  0  0  0  0  0  0
  181.3320  177.1360  139.1300 C   0  0  0  0  0  2  0  0  0  0  0  0
  179.9900  176.8380  139.3730 O   0  0  0  0  0  0  0  0  0  0  0  0
  180.0250  175.7420  140.2330 C   0  0  0  0  0  2  0  0  0  0  0  0
  180.2470  174.4780  139.4300 C   0  0  0  0  0  1  0  0  0  0  0  0
  180.3940  179.3640  138.5850 O   0  0  0  0  0  0  0  0  0  0  0  0
  180.6480  180.4400  137.7170 C   0  0  0  0  0  2  0  0  0  0  0  0
  179.5780  181.5020  137.8830 C   0  0  0  0  0  2  0  0  0  0  0  0
  180.1050  182.8520  137.4390 C   0  0  0  0  0  1  0  0  0  0  0  0
  1  3  2  0  0  0  0
  2  3  1  0  0  0  0
  2 30  1  0  0  0  0
  3 33  1  0  0  0  0
  4  5  1  1  0  0  0
  4  2  1  0  0  0  0
  4  7  1  0  0  0  0
  7  6  1  1  0  0  0
  8  7  1  0  0  0  0
  8  9  1  0  0  0  0
  9 10  1  0  0  0  0
 11 10  1  6  0  0  0
 11 22  1  0  0  0  0
 12 17  1  0  0  0  0
 13 15  2  0  0  0  0
 15 14  1  0  0  0  0
 16 12  2  0  0  0  0
 16 13  1  0  0  0  0
 17 11  1  0  0  0  0
 17 14  2  0  0  0  0
 18 13  1  0  0  0  0
 19 18  1  0  0  0  0
 20 18  1  0  0  0  0
 21 27  1  0  0  0  0
 22 21  2  0  0  0  0
 23 26  1  0  0  0  0
 24 28  1  0  0  0  0
 24 29  1  0  0  0  0
 25 24  2  0  0  0  0
 26 29  2  0  0  0  0
 27 25  1  0  0  0  0
 27 23  2  0  0  0  0
 32 31  1  0  0  0  0
 32 30  1  0  0  0  0
 33 39  1  6  0  0  0
 35 34  1  6  0  0  0
 35 37  1  0  0  0  0
 35 33  1  0  0  0  0
 37 38  2  0  0  0  0
 37 36  1  0  0  0  0
 40 39  1  6  0  0  0
 40 48  1  0  0  0  0
 40 42  1  0  0  0  0
 42 41  1  6  0  0  0
 42 43  1  0  0  0  0
 43 44  1  1  0  0  0
 43 46  1  0  0  0  0
 46 45  1  0  0  0  0
 47 46  2  0  0  0  0
 48 49  1  0  0  0  0
 49 50  1  0  0  0  0
 51 50  1  0  0  0  0
 52 40  1  0  0  0  0
 53 54  1  0  0  0  0
 53 52  1  0  0  0  0
 55 54  1  0  0  0  0
M  END
>  <MODEL>
2

>  <REMARK>
 VINA RESULT:      -4.7      1.633      3.165
  Name = 
  26 active torsions:
  status: ('A' for Active; 'I' for Inactive)
    1  A    between atoms: C_1  and  C_30
    2  A    between atoms: N_2  and  C_44
    3  A    between atoms: C_6  and  C_8
    4  A    between atoms: C_6  and  O_20
    5  A    between atoms: C_6  and  C_38
    6  A    between atoms: C_6  and  C_46
    7  A    between atoms: C_7  and  C_8
    8  A    between atoms: C_7  and  C_23
    9  A    between atoms: C_7  and  C_43
   10  A    between atoms: N_10  and  C_32
   11  A    between atoms: C_11  and  C_29
   12  A    between atoms: C_11  and  C_38
   13  A    between atoms: C_12  and  O_14
   14  A    between atoms: O_14  and  C_46
   15  A    between atoms: C_16  and  N_17
   16  A    between atoms: C_16  and  C_26
   17  A    between atoms: N_17  and  C_37
   18  A    between atoms: C_19  and  C_45
   19  A    between atoms: C_19  and  C_49
   20  A    between atoms: O_20  and  C_30
   21  A    between atoms: C_26  and  C_45
   22  A    between atoms: N_28  and  C_33
   23  A    between atoms: C_33  and  C_49
   24  A    between atoms: C_33  and  C_52
   25  A    between atoms: C_35  and  C_43
   26  A    between atoms: C_37  and  C_40
                            x       y       z     vdW  Elec       q    Type
                         _______ _______ _______ _____ _____    ______ ____

>  <TORSDO>
F 26

$$$$
=
 OpenBabel11052415133D

 55 56  0  0  1  0  0  0  0  0999 V2000
  186.4130  176.7910  143.6870 O   0  0  0  0  0  0  0  0  0  0  0  0
  187.7690  178.0810  142.2810 N   0  0  0  0  0  0  0  0  0  0  0  0
  186.5150  177.8020  142.9400 C   0  0  0  0  0  0  0  0  0  0  0  0
  189.0040  177.4820  142.8190 C   0  0  2  0  0  3  0  0  0  0  0  0
  190.0030  178.5580  143.2380 C   0  0  0  0  0  1  0  0  0  0  0  0
  190.1290  175.3640  142.6680 O   0  0  0  0  0  1  0  0  0  0  0  0
  189.6370  176.4220  141.9020 C   0  0  2  0  0  3  0  0  0  0  0  0
  190.7500  176.9850  141.0230 C   0  0  0  0  0  2  0  0  0  0  0  0
  190.6340  176.4450  139.6080 C   0  0  0  0  0  2  0  0  0  0  0  0
  191.9020  176.7440  138.8230 C   0  0  0  0  0  2  0  0  0  0  0  0
  191.7660  176.2610  137.3790 C   0  0  1  0  0  3  0  0  0  0  0  0
  191.9390  173.9760  136.3860 C   0  0  0  0  0  3  0  0  0  0  0  0
  193.8930  172.5720  136.7300 C   0  0  0  0  0  0  0  0  0  0  0  0
  193.7850  174.7840  137.7290 C   0  0  0  0  0  3  0  0  0  0  0  0
  194.4690  173.5840  137.5110 C   0  0  0  0  0  3  0  0  0  0  0  0
  192.6240  172.7770  136.1690 C   0  0  0  0  0  3  0  0  0  0  0  0
  192.5160  174.9830  137.1650 C   0  0  0  0  0  0  0  0  0  0  0  0
  194.5980  171.3430  136.5080 N   0  0  0  0  0  0  0  0  0  0  0  0
  195.9020  171.2300  136.8570 O   0  0  0  0  0  1  0  0  0  0  0  0
  193.9500  170.2430  135.9290 N   0  0  0  0  0  1  0  0  0  0  0  0
  189.8450  176.7750  136.0980 N   0  0  0  0  0  0  0  0  0  0  0  0
  190.3650  176.0850  137.0300 N   0  0  0  0  0  0  0  0  0  0  0  0
  187.8220  177.6850  135.0850 C   0  0  0  0  0  3  0  0  0  0  0  0
  186.4430  175.3030  135.5780 C   0  0  0  0  0  0  0  0  0  0  0  0
  187.7800  175.4300  135.9670 C   0  0  0  0  0  3  0  0  0  0  0  0
  186.4860  177.5570  134.6960 C   0  0  0  0  0  3  0  0  0  0  0  0
  188.4750  176.6240  135.7210 C   0  0  0  0  0  0  0  0  0  0  0  0
  185.7760  174.1480  135.8150 F   0  0  0  0  0  0  0  0  0  0  0  0
  185.7960  176.3670  134.9410 C   0  0  0  0  0  3  0  0  0  0  0  0
  187.8100  178.9550  141.1060 C   0  0  0  0  0  2  0  0  0  0  0  0
  188.2060  178.6070  138.6630 C   0  0  0  0  0  1  0  0  0  0  0  0
  187.3510  178.2220  139.8540 C   0  0  0  0  0  2  0  0  0  0  0  0
  185.3040  178.6890  142.7930 C   0  0  2  0  0  3  0  0  0  0  0  0
  184.0410  180.5100  143.7410 O   0  0  0  0  0  1  0  0  0  0  0  0
  185.1900  179.7330  143.9080 C   0  0  1  0  0  3  0  0  0  0  0  0
  186.3260  178.8740  145.9560 O   0  0  0  0  0  1  0  0  0  0  0  0
  185.1480  179.0780  145.2510 C   0  0  0  0  0  0  0  0  0  0  0  0
  184.0520  178.7050  145.7460 O   0  0  0  0  0  0  0  0  0  0  0  0
  184.0190  177.8670  142.6560 C   0  0  0  0  0  2  0  0  0  0  0  0
  183.2210  178.1940  141.3880 C   0  0  2  0  0  0  0  0  0  0  0  0
  181.7220  178.8010  143.2490 O   0  0  0  0  0  1  0  0  0  0  0  0
  181.9040  178.8740  141.8640 C   0  0  2  0  0  3  0  0  0  0  0  0
  180.6420  178.4130  141.1160 C   0  0  1  0  0  3  0  0  0  0  0  0
  179.7850  177.4620  141.9370 C   0  0  0  0  0  1  0  0  0  0  0  0
  179.0250  179.4560  139.7070 O   0  0  0  0  0  0  0  0  0  0  0  0
  179.8360  179.5870  140.6610 C   0  0  0  0  0  0  0  0  0  0  0  0
  179.9960  180.8300  141.2640 O   0  0  0  0  0  1  0  0  0  0  0  0
  182.9400  176.8330  140.7090 C   0  0  0  0  0  2  0  0  0  0  0  0
  183.0410  176.8870  139.3170 O   0  0  0  0  0  0  0  0  0  0  0  0
  182.6120  175.6330  138.8880 C   0  0  0  0  0  2  0  0  0  0  0  0
  181.3840  175.7900  138.0170 C   0  0  0  0  0  1  0  0  0  0  0  0
  184.0350  179.0540  140.5980 O   0  0  0  0  0  0  0  0  0  0  0  0
  183.2680  180.0370  139.9500 C   0  0  0  0  0  2  0  0  0  0  0  0
  183.3830  179.8740  138.4460 C   0  0  0  0  0  2  0  0  0  0  0  0
  182.0050  179.8260  137.8170 C   0  0  0  0  0  1  0  0  0  0  0  0
  2  4  1  0  0  0  0
  2  3  1  0  0  0  0
  3  1  2  0  0  0  0
  4  5  1  6  0  0  0
  7  6  1  1  0  0  0
  7  4  1  0  0  0  0
  8  7  1  0  0  0  0
  9  8  1  0  0  0  0
 10  9  1  0  0  0  0
 11 10  1  1  0  0  0
 12 17  1  0  0  0  0
 13 15  2  0  0  0  0
 15 14  1  0  0  0  0
 16 12  2  0  0  0  0
 16 13  1  0  0  0  0
 17 11  1  0  0  0  0
 17 14  2  0  0  0  0
 18 13  1  0  0  0  0
 18 19  1  0  0  0  0
 20 18  1  0  0  0  0
 21 22  2  0  0  0  0
 22 11  1  0  0  0  0
 23 27  1  0  0  0  0
 24 28  1  0  0  0  0
 24 25  1  0  0  0  0
 26 29  1  0  0  0  0
 26 23  2  0  0  0  0
 27 25  2  0  0  0  0
 27 21  1  0  0  0  0
 29 24  2  0  0  0  0
 30  2  1  0  0  0  0
 31 32  1  0  0  0  0
 32 30  1  0  0  0  0
 33 39  1  1  0  0  0
 33  3  1  0  0  0  0
 33 35  1  0  0  0  0
 35 34  1  6  0  0  0
 35 37  1  0  0  0  0
 37 38  2  0  0  0  0
 37 36  1  0  0  0  0
 40 48  1  6  0  0  0
 40 42  1  0  0  0  0
 40 39  1  0  0  0  0
 42 41  1  1  0  0  0
 43 42  1  0  0  0  0
 43 44  1  1  0  0  0
 45 46  2  0  0  0  0
 46 43  1  0  0  0  0
 46 47  1  0  0  0  0
 49 48  1  0  0  0  0
 50 49  1  0  0  0  0
 51 50  1  0  0  0  0
 52 40  1  0  0  0  0
 53 52  1  0  0  0  0
 54 53  1  0  0  0  0
 55 54  1  0  0  0  0
M  END
>  <MODEL>
3

>  <REMARK>
 VINA RESULT:      -4.3      3.005      6.580
  Name = 
  26 active torsions:
  status: ('A' for Active; 'I' for Inactive)
    1  A    between atoms: C_1  and  C_30
    2  A    between atoms: N_2  and  C_44
    3  A    between atoms: C_6  and  C_8
    4  A    between atoms: C_6  and  O_20
    5  A    between atoms: C_6  and  C_38
    6  A    between atoms: C_6  and  C_46
    7  A    between atoms: C_7  and  C_8
    8  A    between atoms: C_7  and  C_23
    9  A    between atoms: C_7  and  C_43
   10  A    between atoms: N_10  and  C_32
   11  A    between atoms: C_11  and  C_29
   12  A    between atoms: C_11  and  C_38
   13  A    between atoms: C_12  and  O_14
   14  A    between atoms: O_14  and  C_46
   15  A    between atoms: C_16  and  N_17
   16  A    between atoms: C_16  and  C_26
   17  A    between atoms: N_17  and  C_37
   18  A    between atoms: C_19  and  C_45
   19  A    between atoms: C_19  and  C_49
   20  A    between atoms: O_20  and  C_30
   21  A    between atoms: C_26  and  C_45
   22  A    between atoms: N_28  and  C_33
   23  A    between atoms: C_33  and  C_49
   24  A    between atoms: C_33  and  C_52
   25  A    between atoms: C_35  and  C_43
   26  A    between atoms: C_37  and  C_40
                            x       y       z     vdW  Elec       q    Type
                         _______ _______ _______ _____ _____    ______ ____

>  <TORSDO>
F 26

$$$$
=
 OpenBabel11052415133D

 55 56  0  0  1  0  0  0  0  0999 V2000
  183.9670  177.9210  137.1330 O   0  0  0  0  0  0  0  0  0  0  0  0
  185.2110  175.9720  136.7660 N   0  0  0  0  0  0  0  0  0  0  0  0
  184.0340  176.6650  137.2340 C   0  0  0  0  0  0  0  0  0  0  0  0
  186.0920  176.6430  135.7930 C   0  0  2  0  0  3  0  0  0  0  0  0
  186.3930  175.7360  134.6030 C   0  0  0  0  0  1  0  0  0  0  0  0
  188.3550  176.2550  136.5040 O   0  0  0  0  0  1  0  0  0  0  0  0
  187.3680  177.2390  136.4110 C   0  0  2  0  0  3  0  0  0  0  0  0
  187.1290  177.8600  137.7850 C   0  0  0  0  0  2  0  0  0  0  0  0
  188.4470  178.2710  138.4180 C   0  0  0  0  0  2  0  0  0  0  0  0
  188.5800  177.6600  139.8040 C   0  0  0  0  0  2  0  0  0  0  0  0
  190.0500  177.4230  140.1480 C   0  0  1  0  0  3  0  0  0  0  0  0
  189.1310  176.9130  142.4140 C   0  0  0  0  0  3  0  0  0  0  0  0
  190.5440  176.8780  144.3920 C   0  0  0  0  0  0  0  0  0  0  0  0
  191.4980  177.3870  142.2170 C   0  0  0  0  0  3  0  0  0  0  0  0
  191.6500  177.2060  143.5950 C   0  0  0  0  0  3  0  0  0  0  0  0
  189.2840  176.7330  143.7920 C   0  0  0  0  0  3  0  0  0  0  0  0
  190.2360  177.2410  141.6220 C   0  0  0  0  0  0  0  0  0  0  0  0
  190.7030  176.6930  145.8060 N   0  0  0  0  0  0  0  0  0  0  0  0
  189.6950  177.0110  146.6540 O   0  0  0  0  0  1  0  0  0  0  0  0
  191.8980  176.1820  146.3290 N   0  0  0  0  0  1  0  0  0  0  0  0
  191.4470  176.4110  138.5310 N   0  0  0  0  0  0  0  0  0  0  0  0
  190.5620  176.2670  139.4310 N   0  0  0  0  0  0  0  0  0  0  0  0
  193.3530  175.0360  137.8780 C   0  0  0  0  0  3  0  0  0  0  0  0
  191.6960  173.3690  136.3630 C   0  0  0  0  0  0  0  0  0  0  0  0
  191.1520  174.4590  137.0490 C   0  0  0  0  0  3  0  0  0  0  0  0
  193.8970  173.9460  137.1920 C   0  0  0  0  0  3  0  0  0  0  0  0
  191.9800  175.2970  137.8110 C   0  0  0  0  0  0  0  0  0  0  0  0
  190.8940  172.5610  135.6310 F   0  0  0  0  0  0  0  0  0  0  0  0
  193.0690  173.1130  136.4360 C   0  0  0  0  0  3  0  0  0  0  0  0
  185.5130  174.6200  137.2430 C   0  0  0  0  0  2  0  0  0  0  0  0
  184.4390  173.2180  135.4750 C   0  0  0  0  0  1  0  0  0  0  0  0
  184.3800  173.6540  136.9250 C   0  0  0  0  0  2  0  0  0  0  0  0
  182.8500  175.9460  137.8300 C   0  0  2  0  0  3  0  0  0  0  0  0
  181.9640  176.1310  135.5950 O   0  0  0  0  0  1  0  0  0  0  0  0
  181.6050  176.0080  136.9400 C   0  0  1  0  0  3  0  0  0  0  0  0
  179.4340  174.8010  136.7150 O   0  0  0  0  0  0  0  0  0  0  0  0
  180.7620  174.7850  137.1140 C   0  0  0  0  0  0  0  0  0  0  0  0
  181.2490  173.7410  137.6250 O   0  0  0  0  0  1  0  0  0  0  0  0
  182.5530  176.4350  139.2510 C   0  0  0  0  0  2  0  0  0  0  0  0
  181.5750  177.6140  139.2960 C   0  0  2  0  0  0  0  0  0  0  0  0
  183.2340  179.4140  139.5920 O   0  0  0  0  0  1  0  0  0  0  0  0
  182.2210  178.6840  140.2240 C   0  0  2  0  0  3  0  0  0  0  0  0
  182.6960  178.1450  141.5850 C   0  0  1  0  0  3  0  0  0  0  0  0
  184.2080  178.1890  141.7400 C   0  0  0  0  0  1  0  0  0  0  0  0
  180.7750  178.9480  142.7470 O   0  0  0  0  0  0  0  0  0  0  0  0
  182.0310  178.8770  142.7060 C   0  0  0  0  0  0  0  0  0  0  0  0
  182.7890  179.5040  143.6880 O   0  0  0  0  0  1  0  0  0  0  0  0
  180.2700  177.0510  139.9070 C   0  0  0  0  0  2  0  0  0  0  0  0
  180.3600  175.6960  140.2310 O   0  0  0  0  0  0  0  0  0  0  0  0
  179.2880  175.4700  141.0910 C   0  0  0  0  0  2  0  0  0  0  0  0
  179.3230  174.0370  141.5780 C   0  0  0  0  0  1  0  0  0  0  0  0
  181.4130  178.0680  137.9570 O   0  0  0  0  0  0  0  0  0  0  0  0
  180.4610  179.0980  137.8730 C   0  0  0  0  0  2  0  0  0  0  0  0
  180.8520  180.0760  136.7810 C   0  0  0  0  0  2  0  0  0  0  0  0
  179.6240  180.5310  136.0200 C   0  0  0  0  0  1  0  0  0  0  0  0
  1  3  2  0  0  0  0
  2  3  1  0  0  0  0
  2 30  1  0  0  0  0
  3 33  1  0  0  0  0
  4  5  1  6  0  0  0
  4  7  1  0  0  0  0
  4  2  1  0  0  0  0
  7  6  1  1  0  0  0
  7  8  1  0  0  0  0
  8  9  1  0  0  0  0
  9 10  1  0  0  0  0
 11 10  1  1  0  0  0
 11 17  1  0  0  0  0
 12 16  1  0  0  0  0
 13 18  1  0  0  0  0
 14 15  2  0  0  0  0
 15 13  1  0  0  0  0
 16 13  2  0  0  0  0
 17 14  1  0  0  0  0
 17 12  2  0  0  0  0
 18 20  1  0  0  0  0
 18 19  1  0  0  0  0
 21 22  2  0  0  0  0
 22 11  1  0  0  0  0
 24 29  2  0  0  0  0
 24 25  1  0  0  0  0
 25 27  2  0  0  0  0
 26 23  2  0  0  0  0
 27 23  1  0  0  0  0
 27 21  1  0  0  0  0
 28 24  1  0  0  0  0
 29 26  1  0  0  0  0
 31 32  1  0  0  0  0
 32 30  1  0  0  0  0
 33 39  1  1  0  0  0
 35 34  1  6  0  0  0
 35 37  1  0  0  0  0
 35 33  1  0  0  0  0
 36 37  2  0  0  0  0
 37 38  1  0  0  0  0
 40 39  1  6  0  0  0
 40 48  1  0  0  0  0
 40 42  1  0  0  0  0
 42 41  1  6  0  0  0
 42 43  1  0  0  0  0
 43 44  1  1  0  0  0
 43 46  1  0  0  0  0
 46 45  2  0  0  0  0
 46 47  1  0  0  0  0
 48 49  1  0  0  0  0
 49 50  1  0  0  0  0
 50 51  1  0  0  0  0
 52 40  1  0  0  0  0
 53 52  1  0  0  0  0
 54 53  1  0  0  0  0
 55 54  1  0  0  0  0
M  END
>  <MODEL>
4

>  <REMARK>
 VINA RESULT:      -4.2      2.783      5.510
  Name = 
  26 active torsions:
  status: ('A' for Active; 'I' for Inactive)
    1  A    between atoms: C_1  and  C_30
    2  A    between atoms: N_2  and  C_44
    3  A    between atoms: C_6  and  C_8
    4  A    between atoms: C_6  and  O_20
    5  A    between atoms: C_6  and  C_38
    6  A    between atoms: C_6  and  C_46
    7  A    between atoms: C_7  and  C_8
    8  A    between atoms: C_7  and  C_23
    9  A    between atoms: C_7  and  C_43
   10  A    between atoms: N_10  and  C_32
   11  A    between atoms: C_11  and  C_29
   12  A    between atoms: C_11  and  C_38
   13  A    between atoms: C_12  and  O_14
   14  A    between atoms: O_14  and  C_46
   15  A    between atoms: C_16  and  N_17
   16  A    between atoms: C_16  and  C_26
   17  A    between atoms: N_17  and  C_37
   18  A    between atoms: C_19  and  C_45
   19  A    between atoms: C_19  and  C_49
   20  A    between atoms: O_20  and  C_30
   21  A    between atoms: C_26  and  C_45
   22  A    between atoms: N_28  and  C_33
   23  A    between atoms: C_33  and  C_49
   24  A    between atoms: C_33  and  C_52
   25  A    between atoms: C_35  and  C_43
   26  A    between atoms: C_37  and  C_40
                            x       y       z     vdW  Elec       q    Type
                         _______ _______ _______ _____ _____    ______ ____

>  <TORSDO>
F 26

$$$$
=
 OpenBabel11052415133D

 55 56  0  0  1  0  0  0  0  0999 V2000
  185.7350  179.0860  139.0390 O   0  0  0  0  0  0  0  0  0  0  0  0
  185.8250  177.8700  137.0410 N   0  0  0  0  0  0  0  0  0  0  0  0
  185.1200  178.3810  138.1940 C   0  0  0  0  0  0  0  0  0  0  0  0
  187.0800  178.5230  136.6270 C   0  0  2  0  0  3  0  0  0  0  0  0
  187.3250  178.3500  135.1310 C   0  0  0  0  0  1  0  0  0  0  0  0
  189.4020  177.9050  136.6380 O   0  0  0  0  0  1  0  0  0  0  0  0
  188.3020  178.1220  137.4700 C   0  0  2  0  0  3  0  0  0  0  0  0
  188.0520  176.8840  138.3280 C   0  0  0  0  0  2  0  0  0  0  0  0
  188.3830  177.1710  139.7830 C   0  0  0  0  0  2  0  0  0  0  0  0
  189.4600  178.2410  139.8770 C   0  0  0  0  0  2  0  0  0  0  0  0
  190.8040  177.6190  140.2520 C   0  0  1  0  0  3  0  0  0  0  0  0
  190.5250  176.1190  142.2300 C   0  0  0  0  0  3  0  0  0  0  0  0
  191.0500  176.8600  144.4850 C   0  0  0  0  0  0  0  0  0  0  0  0
  191.3380  178.3700  142.6040 C   0  0  0  0  0  3  0  0  0  0  0  0
  191.4160  178.1150  143.9760 C   0  0  0  0  0  3  0  0  0  0  0  0
  190.6040  175.8650  143.6030 C   0  0  0  0  0  3  0  0  0  0  0  0
  190.8910  177.3710  141.7260 C   0  0  0  0  0  0  0  0  0  0  0  0
  191.1320  176.6010  145.8940 N   0  0  0  0  0  0  0  0  0  0  0  0
  190.2520  177.1780  146.7470 O   0  0  0  0  0  1  0  0  0  0  0  0
  192.1200  175.7500  146.4070 N   0  0  0  0  0  1  0  0  0  0  0  0
  191.7100  176.3700  138.4600 N   0  0  0  0  0  0  0  0  0  0  0  0
  191.0130  176.3780  139.5220 N   0  0  0  0  0  0  0  0  0  0  0  0
  190.8630  174.5140  137.1230 C   0  0  0  0  0  3  0  0  0  0  0  0
  193.4440  173.4760  136.8370 C   0  0  0  0  0  0  0  0  0  0  0  0
  193.2390  174.6460  137.5750 C   0  0  0  0  0  3  0  0  0  0  0  0
  191.0690  173.3450  136.3850 C   0  0  0  0  0  3  0  0  0  0  0  0
  191.9450  175.1690  137.7200 C   0  0  0  0  0  0  0  0  0  0  0  0
  194.6940  172.9750  136.6970 F   0  0  0  0  0  0  0  0  0  0  0  0
  192.3580  172.8260  136.2410 C   0  0  0  0  0  3  0  0  0  0  0  0
  185.2910  176.7300  136.2930 C   0  0  0  0  0  2  0  0  0  0  0  0
  186.5680  174.5850  136.4240 C   0  0  0  0  0  1  0  0  0  0  0  0
  186.4070  175.8960  135.6800 C   0  0  0  0  0  2  0  0  0  0  0  0
  183.6530  178.1270  138.4280 C   0  0  2  0  0  3  0  0  0  0  0  0
  181.7840  179.5040  139.0780 O   0  0  0  0  0  1  0  0  0  0  0  0
  183.0460  179.0590  139.4810 C   0  0  1  0  0  3  0  0  0  0  0  0
  181.6720  178.1910  141.3730 O   0  0  0  0  0  0  0  0  0  0  0  0
  182.9230  178.3670  140.8010 C   0  0  0  0  0  0  0  0  0  0  0  0
  183.9500  177.9480  141.4000 O   0  0  0  0  0  1  0  0  0  0  0  0
  183.3840  176.6550  138.7550 C   0  0  0  0  0  2  0  0  0  0  0  0
  182.1080  176.1110  138.1010 C   0  0  2  0  0  0  0  0  0  0  0  0
  183.7120  174.2380  138.0400 O   0  0  0  0  0  1  0  0  0  0  0  0
  182.3980  174.6230  137.7470 C   0  0  2  0  0  3  0  0  0  0  0  0
  182.0130  174.2220  136.3120 C   0  0  1  0  0  3  0  0  0  0  0  0
  183.2200  173.8840  135.4520 C   0  0  0  0  0  1  0  0  0  0  0  0
  180.2570  172.9290  135.3490 O   0  0  0  0  0  0  0  0  0  0  0  0
  181.0400  173.0880  136.3220 C   0  0  0  0  0  0  0  0  0  0  0  0
  180.9720  172.2240  137.4090 O   0  0  0  0  0  1  0  0  0  0  0  0
  181.8950  176.9630  136.8280 C   0  0  0  0  0  2  0  0  0  0  0  0
  180.5900  177.4420  136.7040 O   0  0  0  0  0  0  0  0  0  0  0  0
  180.5870  178.1400  135.4980 C   0  0  0  0  0  2  0  0  0  0  0  0
  179.2390  178.8010  135.3010 C   0  0  0  0  0  1  0  0  0  0  0  0
  181.0610  176.2590  139.0530 O   0  0  0  0  0  0  0  0  0  0  0  0
  180.5200  175.0150  139.4230 C   0  0  0  0  0  2  0  0  0  0  0  0
  179.5230  175.2000  140.5510 C   0  0  0  0  0  2  0  0  0  0  0  0
  179.3910  173.9190  141.3500 C   0  0  0  0  0  1  0  0  0  0  0  0
  2  3  1  0  0  0  0
  3 33  1  0  0  0  0
  3  1  2  0  0  0  0
  4  5  1  6  0  0  0
  4  2  1  0  0  0  0
  4  7  1  0  0  0  0
  7  6  1  6  0  0  0
  7  8  1  0  0  0  0
  8  9  1  0  0  0  0
  9 10  1  0  0  0  0
 11 10  1  1  0  0  0
 11 17  1  0  0  0  0
 12 16  1  0  0  0  0
 13 18  1  0  0  0  0
 14 15  2  0  0  0  0
 15 13  1  0  0  0  0
 16 13  2  0  0  0  0
 17 12  2  0  0  0  0
 17 14  1  0  0  0  0
 18 20  1  0  0  0  0
 18 19  1  0  0  0  0
 21 22  2  0  0  0  0
 22 11  1  0  0  0  0
 23 27  1  0  0  0  0
 24 25  1  0  0  0  0
 25 27  2  0  0  0  0
 26 23  2  0  0  0  0
 27 21  1  0  0  0  0
 28 24  1  0  0  0  0
 29 26  1  0  0  0  0
 29 24  2  0  0  0  0
 30  2  1  0  0  0  0
 32 30  1  0  0  0  0
 32 31  1  0  0  0  0
 33 39  1  1  0  0  0
 33 35  1  0  0  0  0
 35 34  1  6  0  0  0
 35 37  1  0  0  0  0
 37 36  2  0  0  0  0
 37 38  1  0  0  0  0
 40 48  1  6  0  0  0
 40 39  1  0  0  0  0
 40 52  1  0  0  0  0
 42 41  1  6  0  0  0
 42 40  1  0  0  0  0
 43 44  1  6  0  0  0
 43 46  1  0  0  0  0
 43 42  1  0  0  0  0
 45 46  2  0  0  0  0
 46 47  1  0  0  0  0
 49 48  1  0  0  0  0
 50 49  1  0  0  0  0
 51 50  1  0  0  0  0
 52 53  1  0  0  0  0
 53 54  1  0  0  0  0
 54 55  1  0  0  0  0
M  END
>  <MODEL>
5

>  <REMARK>
 VINA RESULT:      -4.1      2.995      5.817
  Name = 
  26 active torsions:
  status: ('A' for Active; 'I' for Inactive)
    1  A    between atoms: C_1  and  C_30
    2  A    between atoms: N_2  and  C_44
    3  A    between atoms: C_6  and  C_8
    4  A    between atoms: C_6  and  O_20
    5  A    between atoms: C_6  and  C_38
    6  A    between atoms: C_6  and  C_46
    7  A    between atoms: C_7  and  C_8
    8  A    between atoms: C_7  and  C_23
    9  A    between atoms: C_7  and  C_43
   10  A    between atoms: N_10  and  C_32
   11  A    between atoms: C_11  and  C_29
   12  A    between atoms: C_11  and  C_38
   13  A    between atoms: C_12  and  O_14
   14  A    between atoms: O_14  and  C_46
   15  A    between atoms: C_16  and  N_17
   16  A    between atoms: C_16  and  C_26
   17  A    between atoms: N_17  and  C_37
   18  A    between atoms: C_19  and  C_45
   19  A    between atoms: C_19  and  C_49
   20  A    between atoms: O_20  and  C_30
   21  A    between atoms: C_26  and  C_45
   22  A    between atoms: N_28  and  C_33
   23  A    between atoms: C_33  and  C_49
   24  A    between atoms: C_33  and  C_52
   25  A    between atoms: C_35  and  C_43
   26  A    between atoms: C_37  and  C_40
                            x       y       z     vdW  Elec       q    Type
                         _______ _______ _______ _____ _____    ______ ____

>  <TORSDO>
F 26

$$$$
=
 OpenBabel11052415133D

 55 56  0  0  1  0  0  0  0  0999 V2000
  187.5530  175.6860  143.1820 O   0  0  0  0  0  0  0  0  0  0  0  0
  189.1750  177.2870  143.7140 N   0  0  0  0  0  0  0  0  0  0  0  0
  187.8050  176.8380  143.6300 C   0  0  0  0  0  0  0  0  0  0  0  0
  190.2550  176.2840  143.7180 C   0  0  2  0  0  3  0  0  0  0  0  0
  191.0230  176.3030  145.0360 C   0  0  0  0  0  1  0  0  0  0  0  0
  192.4270  176.8750  142.8790 O   0  0  0  0  0  1  0  0  0  0  0  0
  191.1870  176.3630  142.4960 C   0  0  2  0  0  3  0  0  0  0  0  0
  190.6080  177.2030  141.3610 C   0  0  0  0  0  2  0  0  0  0  0  0
  190.5270  176.3850  140.0840 C   0  0  0  0  0  2  0  0  0  0  0  0
  191.6230  176.8060  139.1170 C   0  0  0  0  0  2  0  0  0  0  0  0
  191.3710  176.2160  137.7300 C   0  0  1  0  0  3  0  0  0  0  0  0
  192.6010  174.0980  137.2410 C   0  0  0  0  0  3  0  0  0  0  0  0
  194.8290  174.1030  136.2700 C   0  0  0  0  0  0  0  0  0  0  0  0
  193.6890  176.2000  136.7270 C   0  0  0  0  0  3  0  0  0  0  0  0
  194.8060  175.5060  136.2530 C   0  0  0  0  0  3  0  0  0  0  0  0
  193.7190  173.4050  136.7670 C   0  0  0  0  0  3  0  0  0  0  0  0
  192.5810  175.4950  137.2230 C   0  0  0  0  0  0  0  0  0  0  0  0
  195.9770  173.3950  135.7820 N   0  0  0  0  0  0  0  0  0  0  0  0
  196.0280  172.0430  135.8580 O   0  0  0  0  0  1  0  0  0  0  0  0
  197.0590  174.0870  135.2220 N   0  0  0  0  0  1  0  0  0  0  0  0
  189.5440  175.1170  136.7060 N   0  0  0  0  0  0  0  0  0  0  0  0
  190.2280  175.3170  137.7580 N   0  0  0  0  0  0  0  0  0  0  0  0
  188.5670  172.9510  136.1560 C   0  0  0  0  0  3  0  0  0  0  0  0
  186.0970  173.7440  137.1990 C   0  0  0  0  0  0  0  0  0  0  0  0
  187.1790  174.6300  137.2150 C   0  0  0  0  0  3  0  0  0  0  0  0
  187.4850  172.0660  136.1420 C   0  0  0  0  0  3  0  0  0  0  0  0
  188.4200  174.2350  136.6920 C   0  0  0  0  0  0  0  0  0  0  0  0
  184.9010  174.1270  137.7070 F   0  0  0  0  0  0  0  0  0  0  0  0
  186.2510  172.4610  136.6640 C   0  0  0  0  0  3  0  0  0  0  0  0
  189.4810  178.7170  143.8070 C   0  0  0  0  0  2  0  0  0  0  0  0
  191.7030  179.7310  144.3360 C   0  0  0  0  0  1  0  0  0  0  0  0
  190.5030  178.9960  144.8990 C   0  0  0  0  0  2  0  0  0  0  0  0
  186.6430  177.6860  144.0800 C   0  0  2  0  0  3  0  0  0  0  0  0
  186.9780  176.3660  146.0690 O   0  0  0  0  0  1  0  0  0  0  0  0
  186.2440  177.4280  145.5360 C   0  0  1  0  0  3  0  0  0  0  0  0
  187.5720  178.7170  147.2090 O   0  0  0  0  0  1  0  0  0  0  0  0
  186.4660  178.6470  146.3740 C   0  0  0  0  0  0  0  0  0  0  0  0
  185.6510  179.6070  146.3330 O   0  0  0  0  0  0  0  0  0  0  0  0
  185.4460  177.5450  143.1340 C   0  0  0  0  0  2  0  0  0  0  0  0
  185.1010  178.8420  142.3940 C   0  0  2  0  0  0  0  0  0  0  0  0
  183.6780  177.1280  141.3370 O   0  0  0  0  0  1  0  0  0  0  0  0
  183.9140  178.5030  141.4460 C   0  0  2  0  0  3  0  0  0  0  0  0
  183.9980  179.1600  140.0580 C   0  0  1  0  0  3  0  0  0  0  0  0
  184.3710  178.1740  138.9610 C   0  0  0  0  0  1  0  0  0  0  0  0
  181.6630  179.5540  140.3350 O   0  0  0  0  0  1  0  0  0  0  0  0
  182.7190  179.8590  139.7230 C   0  0  0  0  0  0  0  0  0  0  0  0
  182.6820  180.8210  138.7210 O   0  0  0  0  0  0  0  0  0  0  0  0
  186.3710  179.2180  141.5950 C   0  0  0  0  0  2  0  0  0  0  0  0
  186.9110  178.1400  140.8900 O   0  0  0  0  0  0  0  0  0  0  0  0
  187.8650  178.7140  140.0520 C   0  0  0  0  0  2  0  0  0  0  0  0
  187.9120  177.9520  138.7450 C   0  0  0  0  0  1  0  0  0  0  0  0
  184.7600  179.8050  143.3850 O   0  0  0  0  0  0  0  0  0  0  0  0
  183.3680  179.9530  143.5030 C   0  0  0  0  0  2  0  0  0  0  0  0
  182.8330  178.9960  144.5530 C   0  0  0  0  0  2  0  0  0  0  0  0
  181.4000  178.6180  144.2370 C   0  0  0  0  0  1  0  0  0  0  0  0
  1  3  2  0  0  0  0
  2  4  1  0  0  0  0
  2 30  1  0  0  0  0
  3  2  1  0  0  0  0
  3 33  1  0  0  0  0
  4  5  1  1  0  0  0
  7  6  1  1  0  0  0
  7  4  1  0  0  0  0
  8  7  1  0  0  0  0
  9  8  1  0  0  0  0
 10  9  1  0  0  0  0
 11 22  1  0  0  0  0
 11 10  1  1  0  0  0
 13 16  1  0  0  0  0
 14 17  2  0  0  0  0
 15 13  2  0  0  0  0
 15 14  1  0  0  0  0
 16 12  2  0  0  0  0
 17 12  1  0  0  0  0
 17 11  1  0  0  0  0
 18 19  1  0  0  0  0
 18 13  1  0  0  0  0
 20 18  1  0  0  0  0
 21 22  2  0  0  0  0
 23 27  1  0  0  0  0
 24 25  1  0  0  0  0
 24 28  1  0  0  0  0
 26 23  2  0  0  0  0
 26 29  1  0  0  0  0
 27 21  1  0  0  0  0
 27 25  2  0  0  0  0
 29 24  2  0  0  0  0
 30 32  1  0  0  0  0
 31 32  1  0  0  0  0
 33 39  1  6  0  0  0
 33 35  1  0  0  0  0
 35 34  1  1  0  0  0
 35 37  1  0  0  0  0
 37 36  1  0  0  0  0
 38 37  2  0  0  0  0
 40 48  1  6  0  0  0
 40 39  1  0  0  0  0
 40 52  1  0  0  0  0
 42 41  1  6  0  0  0
 42 40  1  0  0  0  0
 43 44  1  6  0  0  0
 43 42  1  0  0  0  0
 46 43  1  0  0  0  0
 46 45  1  0  0  0  0
 47 46  2  0  0  0  0
 49 48  1  0  0  0  0
 50 49  1  0  0  0  0
 51 50  1  0  0  0  0
 52 53  1  0  0  0  0
 53 54  1  0  0  0  0
 55 54  1  0  0  0  0
M  END
>  <MODEL>
6

>  <REMARK>
 VINA RESULT:      -3.7      3.336      7.531
  Name = 
  26 active torsions:
  status: ('A' for Active; 'I' for Inactive)
    1  A    between atoms: C_1  and  C_30
    2  A    between atoms: N_2  and  C_44
    3  A    between atoms: C_6  and  C_8
    4  A    between atoms: C_6  and  O_20
    5  A    between atoms: C_6  and  C_38
    6  A    between atoms: C_6  and  C_46
    7  A    between atoms: C_7  and  C_8
    8  A    between atoms: C_7  and  C_23
    9  A    between atoms: C_7  and  C_43
   10  A    between atoms: N_10  and  C_32
   11  A    between atoms: C_11  and  C_29
   12  A    between atoms: C_11  and  C_38
   13  A    between atoms: C_12  and  O_14
   14  A    between atoms: O_14  and  C_46
   15  A    between atoms: C_16  and  N_17
   16  A    between atoms: C_16  and  C_26
   17  A    between atoms: N_17  and  C_37
   18  A    between atoms: C_19  and  C_45
   19  A    between atoms: C_19  and  C_49
   20  A    between atoms: O_20  and  C_30
   21  A    between atoms: C_26  and  C_45
   22  A    between atoms: N_28  and  C_33
   23  A    between atoms: C_33  and  C_49
   24  A    between atoms: C_33  and  C_52
   25  A    between atoms: C_35  and  C_43
   26  A    between atoms: C_37  and  C_40
                            x       y       z     vdW  Elec       q    Type
                         _______ _______ _______ _____ _____    ______ ____

>  <TORSDO>
F 26

$$$$
=
 OpenBabel11052415133D

 55 56  0  0  1  0  0  0  0  0999 V2000
  184.4190  179.1120  137.8940 O   0  0  0  0  0  0  0  0  0  0  0  0
  184.3630  177.0240  136.8400 N   0  0  0  0  0  0  0  0  0  0  0  0
  183.7290  178.1210  137.5330 C   0  0  0  0  0  0  0  0  0  0  0  0
  185.6560  177.2560  136.1720 C   0  0  2  0  0  3  0  0  0  0  0  0
  185.7420  176.4920  134.8540 C   0  0  0  0  0  1  0  0  0  0  0  0
  186.6970  177.6390  138.3040 O   0  0  0  0  0  1  0  0  0  0  0  0
  186.8790  177.0070  137.0730 C   0  0  2  0  0  3  0  0  0  0  0  0
  188.1870  177.4740  136.4400 C   0  0  0  0  0  2  0  0  0  0  0  0
  189.3280  176.5560  136.8440 C   0  0  0  0  0  2  0  0  0  0  0  0
  189.3880  176.4230  138.3580 C   0  0  0  0  0  2  0  0  0  0  0  0
  190.5160  177.2820  138.9280 C   0  0  1  0  0  3  0  0  0  0  0  0
  189.1250  177.7410  140.9500 C   0  0  0  0  0  3  0  0  0  0  0  0
  190.0730  177.7320  143.1890 C   0  0  0  0  0  0  0  0  0  0  0  0
  191.4830  177.2840  141.2610 C   0  0  0  0  0  3  0  0  0  0  0  0
  191.3290  177.4300  142.6430 C   0  0  0  0  0  3  0  0  0  0  0  0
  188.9720  177.8870  142.3320 C   0  0  0  0  0  3  0  0  0  0  0  0
  190.3780  177.4390  140.4100 C   0  0  0  0  0  0  0  0  0  0  0  0
  189.9180  177.8810  144.6070 N   0  0  0  0  0  0  0  0  0  0  0  0
  191.0060  177.9070  145.4140 O   0  0  0  0  0  1  0  0  0  0  0  0
  188.6440  178.0030  145.1780 N   0  0  0  0  0  1  0  0  0  0  0  0
  192.0720  176.3450  137.4130 N   0  0  0  0  0  0  0  0  0  0  0  0
  191.8110  176.7040  138.6040 N   0  0  0  0  0  0  0  0  0  0  0  0
  193.9240  176.1450  135.8370 C   0  0  0  0  0  3  0  0  0  0  0  0
  195.2390  174.3520  137.5340 C   0  0  0  0  0  0  0  0  0  0  0  0
  193.9980  174.8820  137.9030 C   0  0  0  0  0  3  0  0  0  0  0  0
  195.1640  175.6160  135.4700 C   0  0  0  0  0  3  0  0  0  0  0  0
  193.3360  175.7810  137.0540 C   0  0  0  0  0  0  0  0  0  0  0  0
  195.8760  173.4860  138.3560 F   0  0  0  0  0  0  0  0  0  0  0  0
  195.8220  174.7210  136.3170 C   0  0  0  0  0  3  0  0  0  0  0  0
  183.7200  175.7080  136.7930 C   0  0  0  0  0  2  0  0  0  0  0  0
  184.4120  173.3890  137.4180 C   0  0  0  0  0  1  0  0  0  0  0  0
  184.2180  174.8070  137.9150 C   0  0  0  0  0  2  0  0  0  0  0  0
  182.2520  178.1480  137.8320 C   0  0  2  0  0  3  0  0  0  0  0  0
  182.1410  177.8440  135.4440 O   0  0  0  0  0  1  0  0  0  0  0  0
  181.3870  178.1870  136.5690 C   0  0  1  0  0  3  0  0  0  0  0  0
  178.9450  177.7590  136.8450 O   0  0  0  0  0  1  0  0  0  0  0  0
  180.2270  177.2510  136.6860 C   0  0  0  0  0  0  0  0  0  0  0  0
  180.4050  176.0050  136.6470 O   0  0  0  0  0  0  0  0  0  0  0  0
  181.8950  179.2850  138.7960 C   0  0  0  0  0  2  0  0  0  0  0  0
  181.5800  178.8010  140.2160 C   0  0  2  0  0  0  0  0  0  0  0  0
  183.8270  179.7990  140.3960 O   0  0  0  0  0  1  0  0  0  0  0  0
  182.7260  179.3330  141.1240 C   0  0  2  0  0  3  0  0  0  0  0  0
  183.1680  178.3600  142.2300 C   0  0  1  0  0  3  0  0  0  0  0  0
  184.6630  178.0830  142.2080 C   0  0  0  0  0  1  0  0  0  0  0  0
  183.5540  179.5180  144.2780 O   0  0  0  0  0  1  0  0  0  0  0  0
  182.7460  178.8570  143.5750 C   0  0  0  0  0  0  0  0  0  0  0  0
  181.4780  178.5720  144.0670 O   0  0  0  0  0  0  0  0  0  0  0  0
  181.5900  177.2560  140.1420 C   0  0  0  0  0  2  0  0  0  0  0  0
  180.5340  176.6690  140.8420 O   0  0  0  0  0  0  0  0  0  0  0  0
  179.8670  175.9010  139.8900 C   0  0  0  0  0  2  0  0  0  0  0  0
  180.3270  174.4630  139.9900 C   0  0  0  0  0  1  0  0  0  0  0  0
  180.3070  179.3350  140.5610 O   0  0  0  0  0  0  0  0  0  0  0  0
  180.4060  180.6690  140.9920 C   0  0  0  0  0  2  0  0  0  0  0  0
  179.2320  181.4720  140.4640 C   0  0  0  0  0  2  0  0  0  0  0  0
  179.5710  182.0670  139.1120 C   0  0  0  0  0  1  0  0  0  0  0  0
  2  3  1  0  0  0  0
  3 33  1  0  0  0  0
  3  1  2  0  0  0  0
  4  5  1  6  0  0  0
  4  2  1  0  0  0  0
  4  7  1  0  0  0  0
  7  6  1  1  0  0  0
  8  9  1  0  0  0  0
  8  7  1  0  0  0  0
  9 10  1  0  0  0  0
 11 10  1  1  0  0  0
 11 17  1  0  0  0  0
 12 16  1  0  0  0  0
 13 18  1  0  0  0  0
 14 15  2  0  0  0  0
 15 13  1  0  0  0  0
 16 13  2  0  0  0  0
 17 12  2  0  0  0  0
 17 14  1  0  0  0  0
 18 20  1  0  0  0  0
 18 19  1  0  0  0  0
 21 22  2  0  0  0  0
 22 11  1  0  0  0  0
 23 27  1  0  0  0  0
 24 25  1  0  0  0  0
 24 28  1  0  0  0  0
 26 23  2  0  0  0  0
 26 29  1  0  0  0  0
 27 21  1  0  0  0  0
 27 25  2  0  0  0  0
 29 24  2  0  0  0  0
 30  2  1  0  0  0  0
 30 32  1  0  0  0  0
 31 32  1  0  0  0  0
 33 39  1  1  0  0  0
 35 34  1  6  0  0  0
 35 37  1  0  0  0  0
 35 33  1  0  0  0  0
 37 36  1  0  0  0  0
 38 37  2  0  0  0  0
 40 39  1  6  0  0  0
 40 52  1  0  0  0  0
 40 42  1  0  0  0  0
 42 41  1  6  0  0  0
 42 43  1  0  0  0  0
 43 44  1  1  0  0  0
 43 46  1  0  0  0  0
 46 47  2  0  0  0  0
 46 45  1  0  0  0  0
 48 40  1  0  0  0  0
 48 49  1  0  0  0  0
 50 51  1  0  0  0  0
 50 49  1  0  0  0  0
 52 53  1  0  0  0  0
 54 53  1  0  0  0  0
 55 54  1  0  0  0  0
M  END
>  <MODEL>
7

>  <REMARK>
 VINA RESULT:      -3.7      2.765      5.645
  Name = 
  26 active torsions:
  status: ('A' for Active; 'I' for Inactive)
    1  A    between atoms: C_1  and  C_30
    2  A    between atoms: N_2  and  C_44
    3  A    between atoms: C_6  and  C_8
    4  A    between atoms: C_6  and  O_20
    5  A    between atoms: C_6  and  C_38
    6  A    between atoms: C_6  and  C_46
    7  A    between atoms: C_7  and  C_8
    8  A    between atoms: C_7  and  C_23
    9  A    between atoms: C_7  and  C_43
   10  A    between atoms: N_10  and  C_32
   11  A    between atoms: C_11  and  C_29
   12  A    between atoms: C_11  and  C_38
   13  A    between atoms: C_12  and  O_14
   14  A    between atoms: O_14  and  C_46
   15  A    between atoms: C_16  and  N_17
   16  A    between atoms: C_16  and  C_26
   17  A    between atoms: N_17  and  C_37
   18  A    between atoms: C_19  and  C_45
   19  A    between atoms: C_19  and  C_49
   20  A    between atoms: O_20  and  C_30
   21  A    between atoms: C_26  and  C_45
   22  A    between atoms: N_28  and  C_33
   23  A    between atoms: C_33  and  C_49
   24  A    between atoms: C_33  and  C_52
   25  A    between atoms: C_35  and  C_43
   26  A    between atoms: C_37  and  C_40
                            x       y       z     vdW  Elec       q    Type
                         _______ _______ _______ _____ _____    ______ ____

>  <TORSDO>
F 26

$$$$
=
 OpenBabel11052415133D

 55 56  0  0  1  0  0  0  0  0999 V2000
  187.3620  178.1340  138.1480 O   0  0  0  0  0  0  0  0  0  0  0  0
  188.7540  176.3340  137.5990 N   0  0  0  0  0  0  0  0  0  0  0  0
  187.4920  177.0340  137.5440 C   0  0  0  0  0  0  0  0  0  0  0  0
  189.9710  177.0870  137.9500 C   0  0  2  0  0  3  0  0  0  0  0  0
  191.2290  176.2750  137.6540 C   0  0  0  0  0  1  0  0  0  0  0  0
  189.8260  179.0440  139.3380 O   0  0  0  0  0  1  0  0  0  0  0  0
  189.9650  177.6560  139.3800 C   0  0  2  0  0  3  0  0  0  0  0  0
  191.2170  177.2860  140.1710 C   0  0  0  0  0  2  0  0  0  0  0  0
  190.9170  177.2680  141.6610 C   0  0  0  0  0  2  0  0  0  0  0  0
  189.5640  177.9080  141.9340 C   0  0  0  0  0  2  0  0  0  0  0  0
  188.8230  177.1470  143.0320 C   0  0  1  0  0  3  0  0  0  0  0  0
  190.8750  176.2040  144.0990 C   0  0  0  0  0  3  0  0  0  0  0  0
  191.3700  176.5460  146.4540 C   0  0  0  0  0  0  0  0  0  0  0  0
  189.3530  177.4860  145.4790 C   0  0  0  0  0  3  0  0  0  0  0  0
  190.1870  177.2880  146.5830 C   0  0  0  0  0  3  0  0  0  0  0  0
  191.7080  176.0060  145.2040 C   0  0  0  0  0  3  0  0  0  0  0  0
  189.6960  176.9440  144.2310 C   0  0  0  0  0  0  0  0  0  0  0  0
  192.2240  176.3450  147.5890 N   0  0  0  0  0  0  0  0  0  0  0  0
  192.0860  177.1180  148.6930 O   0  0  0  0  0  1  0  0  0  0  0  0
  193.2090  175.3480  147.5740 N   0  0  0  0  0  1  0  0  0  0  0  0
  186.6780  177.2440  144.0260 N   0  0  0  0  0  0  0  0  0  0  0  0
  187.6090  177.8530  143.4110 N   0  0  0  0  0  0  0  0  0  0  0  0
  185.3410  178.3420  145.7440 C   0  0  0  0  0  3  0  0  0  0  0  0
  183.2720  178.7910  143.9170 C   0  0  0  0  0  0  0  0  0  0  0  0
  184.4350  178.1320  143.5080 C   0  0  0  0  0  3  0  0  0  0  0  0
  184.1780  179.0020  146.1520 C   0  0  0  0  0  3  0  0  0  0  0  0
  185.4750  177.9050  144.4220 C   0  0  0  0  0  0  0  0  0  0  0  0
  182.2710  179.0100  143.0310 F   0  0  0  0  0  0  0  0  0  0  0  0
  183.1440  179.2270  145.2400 C   0  0  0  0  0  3  0  0  0  0  0  0
  188.8190  174.9010  137.2980 C   0  0  0  0  0  2  0  0  0  0  0  0
  190.4560  173.6420  135.8910 C   0  0  0  0  0  1  0  0  0  0  0  0
  189.3280  174.6540  135.8850 C   0  0  0  0  0  2  0  0  0  0  0  0
  186.3080  176.5150  136.7690 C   0  0  2  0  0  3  0  0  0  0  0  0
  185.2720  176.6020  134.5940 O   0  0  0  0  0  1  0  0  0  0  0  0
  186.5050  176.5970  135.2520 C   0  0  1  0  0  3  0  0  0  0  0  0
  188.6230  177.7420  134.6020 O   0  0  0  0  0  0  0  0  0  0  0  0
  187.2660  177.8280  134.8780 C   0  0  0  0  0  0  0  0  0  0  0  0
  186.6850  178.9450  134.8160 O   0  0  0  0  0  1  0  0  0  0  0  0
  185.0080  177.1970  137.2070 C   0  0  0  0  0  2  0  0  0  0  0  0
  183.9140  176.2070  137.6250 C   0  0  2  0  0  0  0  0  0  0  0  0
  182.3330  175.9730  139.5030 O   0  0  0  0  0  1  0  0  0  0  0  0
  183.5250  176.5760  139.0870 C   0  0  2  0  0  3  0  0  0  0  0  0
  183.5120  178.0850  139.3810 C   0  0  1  0  0  3  0  0  0  0  0  0
  182.1490  178.5850  139.8340 C   0  0  0  0  0  1  0  0  0  0  0  0
  185.0560  177.5400  141.1140 O   0  0  0  0  0  1  0  0  0  0  0  0
  184.5610  178.4390  140.3850 C   0  0  0  0  0  0  0  0  0  0  0  0
  184.9740  179.7570  140.5410 O   0  0  0  0  0  0  0  0  0  0  0  0
  184.5680  174.8070  137.5520 C   0  0  0  0  0  2  0  0  0  0  0  0
  183.6790  173.8100  137.1440 O   0  0  0  0  0  0  0  0  0  0  0  0
  184.2890  172.6190  137.5320 C   0  0  0  0  0  2  0  0  0  0  0  0
  184.9270  171.9620  136.3270 C   0  0  0  0  0  1  0  0  0  0  0  0
  182.8380  176.3690  136.7080 O   0  0  0  0  0  0  0  0  0  0  0  0
  182.6760  177.7130  136.3340 C   0  0  0  0  0  2  0  0  0  0  0  0
  181.4700  177.8560  135.4250 C   0  0  0  0  0  2  0  0  0  0  0  0
  180.6780  176.5640  135.3990 C   0  0  0  0  0  1  0  0  0  0  0  0
  2  4  1  0  0  0  0
  3  2  1  0  0  0  0
  3  1  2  0  0  0  0
  4  5  1  1  0  0  0
  4  7  1  0  0  0  0
  7  6  1  6  0  0  0
  7  8  1  0  0  0  0
  8  9  1  0  0  0  0
  9 10  1  0  0  0  0
 11 10  1  6  0  0  0
 11 22  1  0  0  0  0
 11 17  1  0  0  0  0
 12 17  2  0  0  0  0
 12 16  1  0  0  0  0
 13 15  1  0  0  0  0
 13 18  1  0  0  0  0
 14 15  2  0  0  0  0
 16 13  2  0  0  0  0
 17 14  1  0  0  0  0
 18 19  1  0  0  0  0
 20 18  1  0  0  0  0
 21 27  1  0  0  0  0
 22 21  2  0  0  0  0
 23 26  1  0  0  0  0
 24 29  1  0  0  0  0
 25 24  2  0  0  0  0
 25 27  1  0  0  0  0
 27 23  2  0  0  0  0
 28 24  1  0  0  0  0
 29 26  2  0  0  0  0
 30  2  1  0  0  0  0
 32 31  1  0  0  0  0
 32 30  1  0  0  0  0
 33 39  1  6  0  0  0
 33  3  1  0  0  0  0
 35 34  1  6  0  0  0
 35 33  1  0  0  0  0
 36 37  2  0  0  0  0
 37 35  1  0  0  0  0
 38 37  1  0  0  0  0
 40 39  1  6  0  0  0
 40 42  1  0  0  0  0
 42 43  1  0  0  0  0
 42 41  1  6  0  0  0
 43 44  1  1  0  0  0
 43 46  1  0  0  0  0
 46 47  2  0  0  0  0
 46 45  1  0  0  0  0
 48 40  1  0  0  0  0
 49 50  1  0  0  0  0
 49 48  1  0  0  0  0
 51 50  1  0  0  0  0
 52 40  1  0  0  0  0
 53 52  1  0  0  0  0
 54 53  1  0  0  0  0
 55 54  1  0  0  0  0
M  END
>  <MODEL>
8

>  <REMARK>
 VINA RESULT:      -3.7      3.148      6.292
  Name = 
  26 active torsions:
  status: ('A' for Active; 'I' for Inactive)
    1  A    between atoms: C_1  and  C_30
    2  A    between atoms: N_2  and  C_44
    3  A    between atoms: C_6  and  C_8
    4  A    between atoms: C_6  and  O_20
    5  A    between atoms: C_6  and  C_38
    6  A    between atoms: C_6  and  C_46
    7  A    between atoms: C_7  and  C_8
    8  A    between atoms: C_7  and  C_23
    9  A    between atoms: C_7  and  C_43
   10  A    between atoms: N_10  and  C_32
   11  A    between atoms: C_11  and  C_29
   12  A    between atoms: C_11  and  C_38
   13  A    between atoms: C_12  and  O_14
   14  A    between atoms: O_14  and  C_46
   15  A    between atoms: C_16  and  N_17
   16  A    between atoms: C_16  and  C_26
   17  A    between atoms: N_17  and  C_37
   18  A    between atoms: C_19  and  C_45
   19  A    between atoms: C_19  and  C_49
   20  A    between atoms: O_20  and  C_30
   21  A    between atoms: C_26  and  C_45
   22  A    between atoms: N_28  and  C_33
   23  A    between atoms: C_33  and  C_49
   24  A    between atoms: C_33  and  C_52
   25  A    between atoms: C_35  and  C_43
   26  A    between atoms: C_37  and  C_40
                            x       y       z     vdW  Elec       q    Type
                         _______ _______ _______ _____ _____    ______ ____

>  <TORSDO>
F 26

$$$$
=
 OpenBabel11052415133D

 55 56  0  0  1  0  0  0  0  0999 V2000
  185.4380  179.7570  140.0730 O   0  0  0  0  0  0  0  0  0  0  0  0
  186.2290  178.1790  141.6110 N   0  0  0  0  0  0  0  0  0  0  0  0
  185.1650  178.9310  140.9860 C   0  0  0  0  0  0  0  0  0  0  0  0
  187.5120  178.0380  140.9010 C   0  0  2  0  0  3  0  0  0  0  0  0
  188.5790  178.9490  141.5010 C   0  0  0  0  0  1  0  0  0  0  0  0
  186.8850  177.0220  138.8150 O   0  0  0  0  0  1  0  0  0  0  0  0
  187.4030  178.1910  139.3740 C   0  0  2  0  0  3  0  0  0  0  0  0
  188.7370  178.5320  138.7150 C   0  0  0  0  0  2  0  0  0  0  0  0
  189.2500  177.3480  137.9130 C   0  0  0  0  0  2  0  0  0  0  0  0
  189.3920  177.7250  136.4460 C   0  0  0  0  0  2  0  0  0  0  0  0
  189.8960  176.5350  135.6320 C   0  0  1  0  0  3  0  0  0  0  0  0
  192.2970  176.6950  136.3000 C   0  0  0  0  0  3  0  0  0  0  0  0
  193.4440  174.8620  137.4110 C   0  0  0  0  0  0  0  0  0  0  0  0
  191.1080  174.6410  136.7810 C   0  0  0  0  0  3  0  0  0  0  0  0
  192.2630  174.1070  137.3590 C   0  0  0  0  0  3  0  0  0  0  0  0
  193.4520  176.1590  136.8770 C   0  0  0  0  0  3  0  0  0  0  0  0
  191.1220  175.9390  136.2500 C   0  0  0  0  0  0  0  0  0  0  0  0
  194.6280  174.3110  138.0040 N   0  0  0  0  0  0  0  0  0  0  0  0
  194.6790  172.9990  138.3350 O   0  0  0  0  0  1  0  0  0  0  0  0
  195.7470  175.1190  138.2490 N   0  0  0  0  0  1  0  0  0  0  0  0
  187.7770  175.6320  136.1700 N   0  0  0  0  0  0  0  0  0  0  0  0
  188.8560  175.5260  135.5070 N   0  0  0  0  0  0  0  0  0  0  0  0
  186.2910  174.2670  134.8000 C   0  0  0  0  0  3  0  0  0  0  0  0
  185.1260  173.1530  137.0850 C   0  0  0  0  0  0  0  0  0  0  0  0
  186.1420  174.1050  137.2120 C   0  0  0  0  0  3  0  0  0  0  0  0
  185.2750  173.3150  134.6740 C   0  0  0  0  0  3  0  0  0  0  0  0
  186.7290  174.6660  136.0670 C   0  0  0  0  0  0  0  0  0  0  0  0
  184.5640  172.6120  138.1910 F   0  0  0  0  0  0  0  0  0  0  0  0
  184.6940  172.7570  135.8150 C   0  0  0  0  0  3  0  0  0  0  0  0
  186.0250  177.5600  142.9230 C   0  0  0  0  0  2  0  0  0  0  0  0
  187.4660  177.1310  144.9200 C   0  0  0  0  0  1  0  0  0  0  0  0
  186.9240  178.1880  143.9780 C   0  0  0  0  0  2  0  0  0  0  0  0
  183.7160  178.7580  141.3650 C   0  0  2  0  0  3  0  0  0  0  0  0
  184.1780  179.9200  143.4260 O   0  0  0  0  0  1  0  0  0  0  0  0
  183.4810  178.8420  142.8760 C   0  0  1  0  0  3  0  0  0  0  0  0
  181.2460  179.8520  142.4230 O   0  0  0  0  0  0  0  0  0  0  0  0
  182.0250  178.9920  143.1830 C   0  0  0  0  0  0  0  0  0  0  0  0
  181.5020  178.3460  144.1300 O   0  0  0  0  0  1  0  0  0  0  0  0
  183.1310  177.4730  140.7720 C   0  0  0  0  0  2  0  0  0  0  0  0
  182.0690  177.7290  139.6970 C   0  0  2  0  0  0  0  0  0  0  0  0
  183.4210  175.8740  138.7940 O   0  0  0  0  0  1  0  0  0  0  0  0
  182.4550  176.8380  138.4800 C   0  0  2  0  0  3  0  0  0  0  0  0
  182.8480  177.6200  137.2150 C   0  0  1  0  0  3  0  0  0  0  0  0
  184.2310  177.2540  136.7010 C   0  0  0  0  0  1  0  0  0  0  0  0
  181.5570  178.3960  135.3670 O   0  0  0  0  0  0  0  0  0  0  0  0
  181.8240  177.4400  136.1410 C   0  0  0  0  0  0  0  0  0  0  0  0
  181.1430  176.2350  136.0090 O   0  0  0  0  0  1  0  0  0  0  0  0
  182.1780  179.2320  139.3520 C   0  0  0  0  0  2  0  0  0  0  0  0
  180.9580  179.7950  138.9730 O   0  0  0  0  0  0  0  0  0  0  0  0
  181.1500  181.1690  139.1070 C   0  0  0  0  0  2  0  0  0  0  0  0
  179.9590  181.9040  138.5310 C   0  0  0  0  0  1  0  0  0  0  0  0
  180.8120  177.3760  140.2640 O   0  0  0  0  0  0  0  0  0  0  0  0
  180.1280  176.4460  139.4630 C   0  0  0  0  0  2  0  0  0  0  0  0
  179.8310  175.1930  140.2660 C   0  0  0  0  0  2  0  0  0  0  0  0
  179.2370  174.1250  139.3690 C   0  0  0  0  0  1  0  0  0  0  0  0
  1  3  2  0  0  0  0
  2 30  1  0  0  0  0
  3 33  1  0  0  0  0
  3  2  1  0  0  0  0
  4  5  1  1  0  0  0
  4  2  1  0  0  0  0
  7  6  1  6  0  0  0
  7  4  1  0  0  0  0
  8  7  1  0  0  0  0
  9  8  1  0  0  0  0
 10  9  1  0  0  0  0
 11 17  1  0  0  0  0
 11 10  1  1  0  0  0
 12 16  1  0  0  0  0
 13 18  1  0  0  0  0
 14 15  2  0  0  0  0
 15 13  1  0  0  0  0
 16 13  2  0  0  0  0
 17 12  2  0  0  0  0
 17 14  1  0  0  0  0
 18 20  1  0  0  0  0
 18 19  1  0  0  0  0
 22 11  1  0  0  0  0
 22 21  2  0  0  0  0
 23 27  1  0  0  0  0
 24 25  1  0  0  0  0
 24 28  1  0  0  0  0
 26 23  2  0  0  0  0
 26 29  1  0  0  0  0
 27 21  1  0  0  0  0
 27 25  2  0  0  0  0
 29 24  2  0  0  0  0
 30 32  1  0  0  0  0
 32 31  1  0  0  0  0
 33 39  1  1  0  0  0
 33 35  1  0  0  0  0
 35 37  1  0  0  0  0
 35 34  1  6  0  0  0
 36 37  2  0  0  0  0
 37 38  1  0  0  0  0
 40 48  1  6  0  0  0
 40 52  1  0  0  0  0
 40 39  1  0  0  0  0
 42 41  1  1  0  0  0
 42 40  1  0  0  0  0
 43 44  1  6  0  0  0
 43 42  1  0  0  0  0
 45 46  2  0  0  0  0
 46 43  1  0  0  0  0
 47 46  1  0  0  0  0
 49 50  1  0  0  0  0
 49 48  1  0  0  0  0
 51 50  1  0  0  0  0
 53 52  1  0  0  0  0
 53 54  1  0  0  0  0
 55 54  1  0  0  0  0
M  END
>  <MODEL>
9

>  <REMARK>
 VINA RESULT:      -3.5      2.334      5.922
  Name = 
  26 active torsions:
  status: ('A' for Active; 'I' for Inactive)
    1  A    between atoms: C_1  and  C_30
    2  A    between atoms: N_2  and  C_44
    3  A    between atoms: C_6  and  C_8
    4  A    between atoms: C_6  and  O_20
    5  A    between atoms: C_6  and  C_38
    6  A    between atoms: C_6  and  C_46
    7  A    between atoms: C_7  and  C_8
    8  A    between atoms: C_7  and  C_23
    9  A    between atoms: C_7  and  C_43
   10  A    between atoms: N_10  and  C_32
   11  A    between atoms: C_11  and  C_29
   12  A    between atoms: C_11  and  C_38
   13  A    between atoms: C_12  and  O_14
   14  A    between atoms: O_14  and  C_46
   15  A    between atoms: C_16  and  N_17
   16  A    between atoms: C_16  and  C_26
   17  A    between atoms: N_17  and  C_37
   18  A    between atoms: C_19  and  C_45
   19  A    between atoms: C_19  and  C_49
   20  A    between atoms: O_20  and  C_30
   21  A    between atoms: C_26  and  C_45
   22  A    between atoms: N_28  and  C_33
   23  A    between atoms: C_33  and  C_49
   24  A    between atoms: C_33  and  C_52
   25  A    between atoms: C_35  and  C_43
   26  A    between atoms: C_37  and  C_40
                            x       y       z     vdW  Elec       q    Type
                         _______ _______ _______ _____ _____    ______ ____

>  <TORSDO>
F 26

$$$$
