=
 OpenBabel11052415163D

 37 43  0  0  1  0  0  0  0  0999 V2000
  182.1110  178.3940  137.4810 O   0  0  0  0  0  0  0  0  0  0  0  0
  179.8250  173.9640  136.9650 C   0  0  0  0  0  2  0  0  0  0  0  0
  188.5590  177.9140  135.6900 O   0  0  0  0  0  0  0  0  0  0  0  0
  186.0170  174.6510  137.0070 C   0  0  1  0  0  3  0  0  0  0  0  0
  179.8790  178.3900  138.4150 C   0  0  0  0  0  1  0  0  0  0  0  0
  180.7840  173.9580  135.7630 C   0  0  2  0  0  0  0  0  0  0  0  0
  180.3850  175.1220  134.8450 C   0  0  0  0  0  2  0  0  0  0  0  0
  180.6480  172.6340  134.9880 C   0  0  0  0  0  2  0  0  0  0  0  0
  186.6890  175.8470  136.3100 C   0  0  1  0  0  3  0  0  0  0  0  0
  182.3360  175.7430  136.0700 C   0  0  1  0  0  3  0  0  0  0  0  0
  184.2240  179.3950  139.5660 S   0  0  0  0  0  0  0  0  0  0  0  0
  186.6460  177.1350  137.1680 C   0  0  2  0  0  3  0  0  0  0  0  0
  183.7060  176.4070  136.1490 C   0  0  0  0  0  2  0  0  0  0  0  0
  181.3600  170.4670  135.6060 O   0  0  0  0  0  0  0  0  0  0  0  0
  188.1340  175.5490  135.9030 C   0  0  0  0  0  2  0  0  0  0  0  0
  180.8130  177.8710  137.3280 C   0  0  1  0  0  3  0  0  0  0  0  0
  179.8980  171.4620  137.1690 C   0  0  0  0  0  2  0  0  0  0  0  0
  180.7100  171.4530  135.9120 C   0  0  0  0  0  0  0  0  0  0  0  0
  185.2890  177.7360  137.6330 C   0  0  2  0  0  3  0  0  0  0  0  0
  185.5370  178.2660  139.0430 C   0  0  0  0  0  2  0  0  0  0  0  0
  184.1710  173.1580  136.3310 C   0  0  0  0  0  2  0  0  0  0  0  0
  183.0600  178.0120  139.6720 C   0  0  0  0  0  2  0  0  0  0  0  0
  185.4890  173.7590  135.8940 C   0  0  2  0  0  3  0  0  0  0  0  0
  187.5380  178.2240  136.5930 C   0  0  0  0  0  0  0  0  0  0  0  0
  180.2470  178.0880  135.9100 C   0  0  2  0  0  3  0  0  0  0  0  0
  181.5570  176.0890  134.8390 C   0  0  2  0  0  3  0  0  0  0  0  0
  186.6290  173.2800  136.7550 C   0  0  0  0  0  2  0  0  0  0  0  0
  184.0310  176.8300  137.5890 C   0  0  1  0  0  3  0  0  0  0  0  0
  188.6230  176.6680  135.0070 C   0  0  0  0  0  2  0  0  0  0  0  0
  182.2250  174.2420  136.2480 C   0  0  2  0  0  3  0  0  0  0  0  0
  187.4190  179.4150  136.9850 O   0  0  0  0  0  0  0  0  0  0  0  0
  181.1610  177.5710  134.7900 C   0  0  0  0  0  2  0  0  0  0  0  0
  180.0930  172.7860  137.9020 C   0  0  0  0  0  2  0  0  0  0  0  0
  182.7850  177.4540  138.2820 C   0  0  2  0  0  3  0  0  0  0  0  0
  183.1710  173.5810  135.4520 O   0  0  0  0  0  0  0  0  0  0  0  0
  179.9680  179.5610  135.6360 C   0  0  0  0  0  2  0  0  0  0  0  0
  180.9340  180.0950  134.5940 C   0  0  0  0  0  1  0  0  0  0  0  0
  1 34  1  0  0  0  0
  2 33  1  0  0  0  0
  3 24  1  0  0  0  0
  4 27  1  6  0  0  0
  6  7  1  6  0  0  0
  6 30  1  0  0  0  0
  6  2  1  0  0  0  0
  8  6  1  0  0  0  0
  8 18  1  0  0  0  0
  9 15  1  1  0  0  0
  9  4  1  0  0  0  0
  9 12  1  0  0  0  0
 10 13  1  6  0  0  0
 10 30  1  0  0  0  0
 11 22  1  0  0  0  0
 12 24  1  6  0  0  0
 12 19  1  0  0  0  0
 14 18  2  0  0  0  0
 16  1  1  0  0  0  0
 16  5  1  1  0  0  0
 17 33  1  0  0  0  0
 18 17  1  0  0  0  0
 19 20  1  1  0  0  0
 20 11  1  0  0  0  0
 23 21  1  1  0  0  0
 23 27  1  0  0  0  0
 23  4  1  0  0  0  0
 24 31  2  0  0  0  0
 25 36  1  6  0  0  0
 25 16  1  0  0  0  0
 26 32  1  1  0  0  0
 26  7  1  0  0  0  0
 26 10  1  0  0  0  0
 28 13  1  6  0  0  0
 28 19  1  0  0  0  0
 28 34  1  0  0  0  0
 29  3  1  0  0  0  0
 29 15  1  0  0  0  0
 30 35  1  6  0  0  0
 32 25  1  0  0  0  0
 34 22  1  1  0  0  0
 35 21  1  0  0  0  0
 37 36  1  0  0  0  0
M  END
>  <MODEL>
1

>  <REMARK>
 VINA RESULT:      -5.9      0.000      0.000
  Name = 
  1 active torsions:
  status: ('A' for Active; 'I' for Inactive)
    1  A    between atoms: C_11  and  C_26
                            x       y       z     vdW  Elec       q    Type
                         _______ _______ _______ _____ _____    ______ ____

>  <TORSDO>
F 1

$$$$
=
 OpenBabel11052415163D

 37 43  0  0  1  0  0  0  0  0999 V2000
  186.3770  177.0170  136.7410 O   0  0  0  0  0  0  0  0  0  0  0  0
  181.6760  178.7090  137.1400 C   0  0  0  0  0  2  0  0  0  0  0  0
  189.1930  176.5040  142.8100 O   0  0  0  0  0  0  0  0  0  0  0  0
  185.8600  179.0720  141.7410 C   0  0  1  0  0  3  0  0  0  0  0  0
  185.4000  177.5490  134.5940 C   0  0  0  0  0  1  0  0  0  0  0  0
  181.7890  177.8160  138.3860 C   0  0  2  0  0  0  0  0  0  0  0  0
  182.0330  176.3780  137.9070 C   0  0  0  0  0  2  0  0  0  0  0  0
  180.4760  177.8630  139.1890 C   0  0  0  0  0  2  0  0  0  0  0  0
  186.8470  177.9220  142.0120 C   0  0  1  0  0  3  0  0  0  0  0  0
  184.0950  177.2880  138.6890 C   0  0  1  0  0  3  0  0  0  0  0  0
  189.1290  178.4600  137.1370 S   0  0  0  0  0  0  0  0  0  0  0  0
  188.0600  177.9430  141.0500 C   0  0  2  0  0  3  0  0  0  0  0  0
  185.4110  177.1510  139.4460 C   0  0  0  0  0  2  0  0  0  0  0  0
  179.5920  179.6250  140.4930 O   0  0  0  0  0  0  0  0  0  0  0  0
  187.3400  177.9060  143.4610 C   0  0  0  0  0  2  0  0  0  0  0  0
  185.1770  177.0250  136.0060 C   0  0  1  0  0  3  0  0  0  0  0  0
  180.0180  180.2320  138.2530 C   0  0  0  0  0  2  0  0  0  0  0  0
  180.0210  179.2770  139.4060 C   0  0  0  0  0  0  0  0  0  0  0  0
  187.8550  177.8560  139.5110 C   0  0  2  0  0  3  0  0  0  0  0  0
  188.9110  178.7780  138.9050 C   0  0  0  0  0  2  0  0  0  0  0  0
  183.4480  179.1020  141.2200 C   0  0  0  0  0  2  0  0  0  0  0  0
  187.4940  179.1610  136.7960 C   0  0  0  0  0  2  0  0  0  0  0  0
  184.4930  178.5610  142.1710 C   0  0  2  0  0  3  0  0  0  0  0  0
  189.1470  176.9780  141.4950 C   0  0  0  0  0  0  0  0  0  0  0  0
  184.4600  175.6590  136.0230 C   0  0  2  0  0  3  0  0  0  0  0  0
  183.4150  175.9850  138.4020 C   0  0  2  0  0  3  0  0  0  0  0  0
  185.1540  179.6670  142.9530 C   0  0  0  0  0  2  0  0  0  0  0  0
  186.4470  178.1640  138.9380 C   0  0  1  0  0  3  0  0  0  0  0  0
  188.0880  176.6100  143.6990 C   0  0  0  0  0  2  0  0  0  0  0  0
  183.0300  178.2300  139.2100 C   0  0  2  0  0  3  0  0  0  0  0  0
  190.0710  176.6520  140.7030 O   0  0  0  0  0  0  0  0  0  0  0  0
  184.2140  175.1030  137.4340 C   0  0  0  0  0  2  0  0  0  0  0  0
  181.3510  180.1550  137.5140 C   0  0  0  0  0  2  0  0  0  0  0  0
  186.4110  178.2680  137.3850 C   0  0  2  0  0  3  0  0  0  0  0  0
  182.8220  178.0270  140.5830 O   0  0  0  0  0  0  0  0  0  0  0  0
  185.2380  174.6070  135.2420 C   0  0  0  0  0  2  0  0  0  0  0  0
  185.8090  173.5650  136.1850 C   0  0  0  0  0  1  0  0  0  0  0  0
  1 34  1  0  0  0  0
  2 33  1  0  0  0  0
  3 29  1  0  0  0  0
  4  9  1  0  0  0  0
  4 23  1  0  0  0  0
  4 27  1  1  0  0  0
  6  2  1  6  0  0  0
  6  8  1  0  0  0  0
  6 30  1  0  0  0  0
  7  6  1  0  0  0  0
  7 26  1  0  0  0  0
  8 18  1  0  0  0  0
  9 15  1  1  0  0  0
 10 30  1  0  0  0  0
 10 13  1  1  0  0  0
 11 20  1  0  0  0  0
 12 24  1  1  0  0  0
 12  9  1  0  0  0  0
 15 29  1  0  0  0  0
 16  5  1  6  0  0  0
 16 25  1  0  0  0  0
 16  1  1  0  0  0  0
 17 18  1  0  0  0  0
 18 14  2  0  0  0  0
 19 20  1  6  0  0  0
 19 12  1  0  0  0  0
 22 11  1  0  0  0  0
 23 21  1  6  0  0  0
 23 27  1  0  0  0  0
 24  3  1  0  0  0  0
 25 36  1  6  0  0  0
 25 32  1  0  0  0  0
 26 32  1  6  0  0  0
 26 10  1  0  0  0  0
 28 13  1  6  0  0  0
 28 19  1  0  0  0  0
 30 35  1  1  0  0  0
 31 24  2  0  0  0  0
 33 17  1  0  0  0  0
 34 22  1  6  0  0  0
 34 28  1  0  0  0  0
 35 21  1  0  0  0  0
 36 37  1  0  0  0  0
M  END
>  <MODEL>
2

>  <REMARK>
 VINA RESULT:      -5.9      3.162      6.265
  Name = 
  1 active torsions:
  status: ('A' for Active; 'I' for Inactive)
    1  A    between atoms: C_11  and  C_26
                            x       y       z     vdW  Elec       q    Type
                         _______ _______ _______ _____ _____    ______ ____

>  <TORSDO>
F 1

$$$$
=
 OpenBabel11052415163D

 37 43  0  0  1  0  0  0  0  0999 V2000
  182.9220  179.2770  139.3620 O   0  0  0  0  0  0  0  0  0  0  0  0
  179.4820  175.7410  138.4710 C   0  0  0  0  0  2  0  0  0  0  0  0
  188.4170  178.1670  135.6750 O   0  0  0  0  0  0  0  0  0  0  0  0
  185.4700  175.1980  136.8390 C   0  0  1  0  0  3  0  0  0  0  0  0
  181.0470  179.4040  140.8850 C   0  0  0  0  0  1  0  0  0  0  0  0
  180.1020  175.9280  137.0760 C   0  0  2  0  0  0  0  0  0  0  0  0
  179.8280  177.3720  136.6350 C   0  0  0  0  0  2  0  0  0  0  0  0
  179.4440  174.9610  136.0740 C   0  0  0  0  0  2  0  0  0  0  0  0
  186.2580  176.4020  136.2920 C   0  0  1  0  0  3  0  0  0  0  0  0
  182.1010  177.2020  137.3390 C   0  0  1  0  0  3  0  0  0  0  0  0
  185.6460  179.1630  140.9040 S   0  0  0  0  0  0  0  0  0  0  0  0
  186.7590  177.3440  137.4150 C   0  0  2  0  0  3  0  0  0  0  0  0
  183.5780  177.5380  137.1690 C   0  0  0  0  0  2  0  0  0  0  0  0
  179.6740  172.6160  135.8980 O   0  0  0  0  0  0  0  0  0  0  0  0
  187.4370  175.9770  135.4140 C   0  0  0  0  0  2  0  0  0  0  0  0
  181.5330  179.0820  139.4780 C   0  0  1  0  0  3  0  0  0  0  0  0
  178.9310  173.3330  138.0190 C   0  0  0  0  0  2  0  0  0  0  0  0
  179.3990  173.5620  136.6160 C   0  0  0  0  0  0  0  0  0  0  0  0
  185.7550  178.0160  138.3950 C   0  0  2  0  0  3  0  0  0  0  0  0
  186.4540  178.0240  139.7530 C   0  0  0  0  0  2  0  0  0  0  0  0
  183.1900  174.3660  136.3960 C   0  0  0  0  0  2  0  0  0  0  0  0
  184.2120  178.0610  141.0060 C   0  0  0  0  0  2  0  0  0  0  0  0
  184.4830  174.8130  135.7490 C   0  0  2  0  0  3  0  0  0  0  0  0
  187.7510  178.3680  136.8880 C   0  0  0  0  0  0  0  0  0  0  0  0
  180.7340  179.8310  138.3920 C   0  0  2  0  0  3  0  0  0  0  0  0
  181.1810  178.0540  136.5210 C   0  0  2  0  0  3  0  0  0  0  0  0
  185.6200  173.8830  136.0860 C   0  0  0  0  0  2  0  0  0  0  0  0
  184.3270  177.4230  138.5050 C   0  0  1  0  0  3  0  0  0  0  0  0
  187.9870  177.2060  134.7180 C   0  0  0  0  0  2  0  0  0  0  0  0
  181.6380  175.7700  137.1650 C   0  0  2  0  0  3  0  0  0  0  0  0
  188.0480  179.3790  137.5790 O   0  0  0  0  0  0  0  0  0  0  0  0
  181.1940  179.5250  136.9590 C   0  0  0  0  0  2  0  0  0  0  0  0
  179.6350  174.3030  138.9640 C   0  0  0  0  0  2  0  0  0  0  0  0
  183.4860  178.0250  139.6680 C   0  0  2  0  0  3  0  0  0  0  0  0
  182.1640  175.2220  135.9860 O   0  0  0  0  0  0  0  0  0  0  0  0
  180.8030  181.3420  138.5860 C   0  0  0  0  0  2  0  0  0  0  0  0
  180.7700  182.0470  137.2430 C   0  0  0  0  0  1  0  0  0  0  0  0
  1 16  1  0  0  0  0
  1 34  1  0  0  0  0
  2 33  1  0  0  0  0
  3 24  1  0  0  0  0
  4 27  1  6  0  0  0
  6  8  1  6  0  0  0
  6 30  1  0  0  0  0
  6  2  1  0  0  0  0
  7  6  1  0  0  0  0
  8 18  1  0  0  0  0
  9 15  1  1  0  0  0
  9  4  1  0  0  0  0
  9 12  1  0  0  0  0
 10 13  1  6  0  0  0
 11 22  1  0  0  0  0
 12 24  1  6  0  0  0
 12 19  1  0  0  0  0
 14 18  2  0  0  0  0
 16  5  1  1  0  0  0
 17 33  1  0  0  0  0
 18 17  1  0  0  0  0
 19 28  1  0  0  0  0
 19 20  1  1  0  0  0
 20 11  1  0  0  0  0
 23 27  1  1  0  0  0
 23 21  1  0  0  0  0
 23  4  1  0  0  0  0
 24 31  2  0  0  0  0
 25 36  1  1  0  0  0
 25 16  1  0  0  0  0
 26  7  1  1  0  0  0
 26 32  1  0  0  0  0
 26 10  1  0  0  0  0
 28 13  1  6  0  0  0
 28 34  1  0  0  0  0
 29 15  1  0  0  0  0
 29  3  1  0  0  0  0
 30 35  1  6  0  0  0
 30 10  1  0  0  0  0
 32 25  1  0  0  0  0
 34 22  1  1  0  0  0
 35 21  1  0  0  0  0
 37 36  1  0  0  0  0
M  END
>  <MODEL>
3

>  <REMARK>
 VINA RESULT:      -5.5      1.585      2.058
  Name = 
  1 active torsions:
  status: ('A' for Active; 'I' for Inactive)
    1  A    between atoms: C_11  and  C_26
                            x       y       z     vdW  Elec       q    Type
                         _______ _______ _______ _____ _____    ______ ____

>  <TORSDO>
F 1

$$$$
=
 OpenBabel11052415163D

 37 43  0  0  1  0  0  0  0  0999 V2000
  187.0760  176.1440  136.4130 O   0  0  0  0  0  0  0  0  0  0  0  0
  189.7230  176.5620  140.6500 C   0  0  0  0  0  2  0  0  0  0  0  0
  181.3620  179.6300  136.8790 O   0  0  0  0  0  0  0  0  0  0  0  0
  183.6990  178.0860  140.1970 C   0  0  1  0  0  3  0  0  0  0  0  0
  188.9840  174.6570  136.4630 C   0  0  0  0  0  1  0  0  0  0  0  0
  189.1110  177.9670  140.5280 C   0  0  2  0  0  0  0  0  0  0  0  0
  189.6510  178.5990  139.2380 C   0  0  0  0  0  2  0  0  0  0  0  0
  189.5350  178.8320  141.7300 C   0  0  0  0  0  2  0  0  0  0  0  0
  183.1480  178.7880  138.9420 C   0  0  1  0  0  3  0  0  0  0  0  0
  187.4110  177.8720  138.8580 C   0  0  1  0  0  3  0  0  0  0  0  0
  184.4310  174.5910  135.7790 S   0  0  0  0  0  0  0  0  0  0  0  0
  182.8770  177.8000  137.7810 C   0  0  2  0  0  3  0  0  0  0  0  0
  186.0240  178.0810  138.2590 C   0  0  0  0  0  2  0  0  0  0  0  0
  188.8410  178.6900  143.9840 O   0  0  0  0  0  0  0  0  0  0  0  0
  181.8820  179.5970  139.2350 C   0  0  0  0  0  2  0  0  0  0  0  0
  188.4030  176.0070  136.8650 C   0  0  1  0  0  3  0  0  0  0  0  0
  189.7750  176.6870  143.1570 C   0  0  0  0  0  2  0  0  0  0  0  0
  189.3190  178.1070  143.0260 C   0  0  0  0  0  0  0  0  0  0  0  0
  184.0220  176.9230  137.2000 C   0  0  2  0  0  3  0  0  0  0  0  0
  183.3800  175.5760  136.8740 C   0  0  0  0  0  2  0  0  0  0  0  0
  185.7560  178.4210  141.5180 C   0  0  0  0  0  2  0  0  0  0  0  0
  185.6210  174.3460  137.1210 C   0  0  0  0  0  2  0  0  0  0  0  0
  184.5580  179.1180  140.9110 C   0  0  2  0  0  3  0  0  0  0  0  0
  182.0910  178.4570  136.6570 C   0  0  0  0  0  0  0  0  0  0  0  0
  189.3010  177.1870  136.4390 C   0  0  2  0  0  3  0  0  0  0  0  0
  188.4560  178.8000  138.3210 C   0  0  2  0  0  3  0  0  0  0  0  0
  183.2700  178.6550  141.5430 C   0  0  0  0  0  2  0  0  0  0  0  0
  185.3080  176.7390  138.0460 C   0  0  1  0  0  3  0  0  0  0  0  0
  181.5650  180.4500  138.0240 C   0  0  0  0  0  2  0  0  0  0  0  0
  187.5770  177.8520  140.3630 C   0  0  2  0  0  3  0  0  0  0  0  0
  182.0200  177.9070  135.5260 O   0  0  0  0  0  0  0  0  0  0  0  0
  188.7460  178.5640  136.8330 C   0  0  0  0  0  2  0  0  0  0  0  0
  189.3040  175.8790  141.9510 C   0  0  0  0  0  2  0  0  0  0  0  0
  186.2860  175.6700  137.4770 C   0  0  2  0  0  3  0  0  0  0  0  0
  186.9180  178.9460  140.9450 O   0  0  0  0  0  0  0  0  0  0  0  0
  189.5370  177.1980  134.9330 C   0  0  0  0  0  2  0  0  0  0  0  0
  190.9210  176.6650  134.6130 C   0  0  0  0  0  1  0  0  0  0  0  0
  1 16  1  0  0  0  0
  1 34  1  0  0  0  0
  2 33  1  0  0  0  0
  3 29  1  0  0  0  0
  4 23  1  0  0  0  0
  4 27  1  1  0  0  0
  6  7  1  6  0  0  0
  6  2  1  0  0  0  0
  6  8  1  0  0  0  0
  8 18  1  0  0  0  0
  9 15  1  1  0  0  0
  9  4  1  0  0  0  0
 10 13  1  1  0  0  0
 10 30  1  0  0  0  0
 11 20  1  0  0  0  0
 11 22  1  0  0  0  0
 12 24  1  6  0  0  0
 12  9  1  0  0  0  0
 16  5  1  6  0  0  0
 18 17  1  0  0  0  0
 18 14  2  0  0  0  0
 19 20  1  1  0  0  0
 19 12  1  0  0  0  0
 19 28  1  0  0  0  0
 23 21  1  1  0  0  0
 23 27  1  0  0  0  0
 24  3  1  0  0  0  0
 25 36  1  6  0  0  0
 25 32  1  0  0  0  0
 25 16  1  0  0  0  0
 26 32  1  6  0  0  0
 26 10  1  0  0  0  0
 26  7  1  0  0  0  0
 28 13  1  6  0  0  0
 29 15  1  0  0  0  0
 30  6  1  0  0  0  0
 30 35  1  1  0  0  0
 31 24  2  0  0  0  0
 33 17  1  0  0  0  0
 34 22  1  6  0  0  0
 34 28  1  0  0  0  0
 35 21  1  0  0  0  0
 37 36  1  0  0  0  0
M  END
>  <MODEL>
4

>  <REMARK>
 VINA RESULT:      -4.8      3.074      8.291
  Name = 
  1 active torsions:
  status: ('A' for Active; 'I' for Inactive)
    1  A    between atoms: C_11  and  C_26
                            x       y       z     vdW  Elec       q    Type
                         _______ _______ _______ _____ _____    ______ ____

>  <TORSDO>
F 1

$$$$
=
 OpenBabel11052415163D

 37 43  0  0  1  0  0  0  0  0999 V2000
  180.1670  174.4880  137.8220 O   0  0  0  0  0  0  0  0  0  0  0  0
  184.7020  172.7290  136.6120 C   0  0  0  0  0  2  0  0  0  0  0  0
  180.4350  181.1100  138.8630 O   0  0  0  0  0  0  0  0  0  0  0  0
  183.7590  178.3330  139.1650 C   0  0  1  0  0  3  0  0  0  0  0  0
  180.2350  172.0700  137.7550 C   0  0  0  0  0  1  0  0  0  0  0  0
  184.7050  174.0980  135.9120 C   0  0  2  0  0  0  0  0  0  0  0  0
  183.5880  174.0850  134.8600 C   0  0  0  0  0  2  0  0  0  0  0  0
  186.0560  174.3270  135.2100 C   0  0  0  0  0  2  0  0  0  0  0  0
  182.5580  179.2030  138.7520 C   0  0  1  0  0  3  0  0  0  0  0  0
  182.8490  175.3410  136.7490 C   0  0  1  0  0  3  0  0  0  0  0  0
  179.0160  175.5270  140.5440 S   0  0  0  0  0  0  0  0  0  0  0  0
  181.2470  178.7780  139.4580 C   0  0  2  0  0  3  0  0  0  0  0  0
  182.1270  176.5390  137.3540 C   0  0  0  0  0  2  0  0  0  0  0  0
  188.1720  174.7740  136.1630 O   0  0  0  0  0  0  0  0  0  0  0  0
  182.8090  180.6940  138.9900 C   0  0  0  0  0  2  0  0  0  0  0  0
  180.7480  173.3810  137.1730 C   0  0  1  0  0  3  0  0  0  0  0  0
  187.1910  172.7730  136.9400 C   0  0  0  0  0  2  0  0  0  0  0  0
  187.2050  174.0320  136.1300 C   0  0  0  0  0  0  0  0  0  0  0  0
  180.6890  177.3350  139.2960 C   0  0  2  0  0  3  0  0  0  0  0  0
  180.1060  176.9670  140.6590 C   0  0  0  0  0  2  0  0  0  0  0  0
  185.3460  176.9690  137.8580 C   0  0  0  0  0  2  0  0  0  0  0  0
  180.4430  174.4580  140.2240 C   0  0  0  0  0  2  0  0  0  0  0  0
  184.7050  178.3340  137.9740 C   0  0  2  0  0  3  0  0  0  0  0  0
  180.1400  179.8000  139.2520 C   0  0  0  0  0  0  0  0  0  0  0  0
  180.5980  173.4450  135.6400 C   0  0  2  0  0  3  0  0  0  0  0  0
  182.5730  175.1300  135.2930 C   0  0  2  0  0  3  0  0  0  0  0  0
  185.1110  179.0290  139.2490 C   0  0  0  0  0  2  0  0  0  0  0  0
  181.6470  176.2300  138.7800 C   0  0  1  0  0  3  0  0  0  0  0  0
  181.6980  181.4810  138.3240 C   0  0  0  0  0  2  0  0  0  0  0  0
  184.3460  175.2030  136.9330 C   0  0  2  0  0  3  0  0  0  0  0  0
  178.9430  179.5010  139.5070 O   0  0  0  0  0  0  0  0  0  0  0  0
  181.1110  174.7530  135.0180 C   0  0  0  0  0  2  0  0  0  0  0  0
  185.8380  172.6160  137.6280 C   0  0  0  0  0  2  0  0  0  0  0  0
  181.0540  174.7940  138.8710 C   0  0  2  0  0  3  0  0  0  0  0  0
  184.9930  176.4100  136.6270 O   0  0  0  0  0  0  0  0  0  0  0  0
  179.1470  173.2680  135.2090 C   0  0  0  0  0  2  0  0  0  0  0  0
  178.9410  171.8930  134.6010 C   0  0  0  0  0  1  0  0  0  0  0  0
  1 34  1  0  0  0  0
  2 33  1  0  0  0  0
  3 24  1  0  0  0  0
  4 27  1  1  0  0  0
  6  7  1  6  0  0  0
  6  2  1  0  0  0  0
  6 30  1  0  0  0  0
  8  6  1  0  0  0  0
  8 18  1  0  0  0  0
  9 15  1  1  0  0  0
  9  4  1  0  0  0  0
  9 12  1  0  0  0  0
 10 30  1  0  0  0  0
 10 13  1  6  0  0  0
 11 20  1  0  0  0  0
 12 24  1  6  0  0  0
 16  5  1  1  0  0  0
 16  1  1  0  0  0  0
 17 33  1  0  0  0  0
 18 14  2  0  0  0  0
 18 17  1  0  0  0  0
 19 12  1  0  0  0  0
 19 20  1  1  0  0  0
 22 11  1  0  0  0  0
 23 21  1  1  0  0  0
 23  4  1  0  0  0  0
 23 27  1  0  0  0  0
 24 31  2  0  0  0  0
 25 36  1  1  0  0  0
 25 16  1  0  0  0  0
 26  7  1  1  0  0  0
 26 10  1  0  0  0  0
 28 13  1  6  0  0  0
 28 34  1  0  0  0  0
 28 19  1  0  0  0  0
 29  3  1  0  0  0  0
 29 15  1  0  0  0  0
 30 35  1  6  0  0  0
 32 26  1  0  0  0  0
 32 25  1  0  0  0  0
 34 22  1  1  0  0  0
 35 21  1  0  0  0  0
 37 36  1  0  0  0  0
M  END
>  <MODEL>
5

>  <REMARK>
 VINA RESULT:      -4.7      2.443      5.760
  Name = 
  1 active torsions:
  status: ('A' for Active; 'I' for Inactive)
    1  A    between atoms: C_11  and  C_26
                            x       y       z     vdW  Elec       q    Type
                         _______ _______ _______ _____ _____    ______ ____

>  <TORSDO>
F 1

$$$$
=
 OpenBabel11052415163D

 37 43  0  0  1  0  0  0  0  0999 V2000
  181.2630  174.1250  137.2250 O   0  0  0  0  0  0  0  0  0  0  0  0
  180.5070  179.0060  138.0760 C   0  0  0  0  0  2  0  0  0  0  0  0
  187.8320  172.8190  136.8140 O   0  0  0  0  0  0  0  0  0  0  0  0
  185.9350  176.6610  136.1140 C   0  0  1  0  0  3  0  0  0  0  0  0
  178.9310  174.7440  137.0560 C   0  0  0  0  0  1  0  0  0  0  0  0
  181.7760  178.7420  138.9040 C   0  0  2  0  0  0  0  0  0  0  0  0
  181.4160  177.7230  139.9940 C   0  0  0  0  0  2  0  0  0  0  0  0
  182.2520  180.0460  139.5690 C   0  0  0  0  0  2  0  0  0  0  0  0
  186.4660  175.3220  136.6560 C   0  0  1  0  0  3  0  0  0  0  0  0
  182.6210  176.6040  138.2650 C   0  0  1  0  0  3  0  0  0  0  0  0
  182.2330  172.6040  134.6640 S   0  0  0  0  0  0  0  0  0  0  0  0
  185.8090  174.1010  135.9660 C   0  0  2  0  0  3  0  0  0  0  0  0
  183.6660  175.5930  137.8080 C   0  0  0  0  0  2  0  0  0  0  0  0
  183.2550  181.9430  138.5800 O   0  0  0  0  0  0  0  0  0  0  0  0
  187.9890  175.2130  136.5530 C   0  0  0  0  0  2  0  0  0  0  0  0
  180.2710  174.9800  137.7400 C   0  0  1  0  0  3  0  0  0  0  0  0
  181.1550  181.3960  137.6540 C   0  0  0  0  0  2  0  0  0  0  0  0
  182.3090  181.1730  138.5800 C   0  0  0  0  0  0  0  0  0  0  0  0
  184.2680  173.8960  136.0110 C   0  0  2  0  0  3  0  0  0  0  0  0
  183.8910  173.3290  134.6440 C   0  0  0  0  0  2  0  0  0  0  0  0
  184.8700  178.5940  137.2180 C   0  0  0  0  0  2  0  0  0  0  0  0
  181.5000  174.2530  134.8210 C   0  0  0  0  0  2  0  0  0  0  0  0
  186.0550  177.6540  137.2600 C   0  0  2  0  0  3  0  0  0  0  0  0
  186.5260  172.8060  136.3140 C   0  0  0  0  0  0  0  0  0  0  0  0
  180.1690  174.9150  139.2780 C   0  0  2  0  0  3  0  0  0  0  0  0
  182.2300  176.4730  139.7050 C   0  0  2  0  0  3  0  0  0  0  0  0
  186.9300  177.8120  136.0430 C   0  0  0  0  0  2  0  0  0  0  0  0
  183.3760  175.1090  136.3790 C   0  0  1  0  0  3  0  0  0  0  0  0
  188.4380  173.9960  137.3350 C   0  0  0  0  0  2  0  0  0  0  0  0
  182.8500  178.0800  138.0090 C   0  0  2  0  0  3  0  0  0  0  0  0
  185.9800  171.6950  136.0800 O   0  0  0  0  0  0  0  0  0  0  0  0
  181.5030  175.1550  140.0010 C   0  0  0  0  0  2  0  0  0  0  0  0
  180.7470  180.0740  137.0090 C   0  0  0  0  0  2  0  0  0  0  0  0
  181.8540  174.8530  136.1750 C   0  0  2  0  0  3  0  0  0  0  0  0
  184.1440  178.4530  138.4030 O   0  0  0  0  0  0  0  0  0  0  0  0
  179.6250  173.5700  139.7480 C   0  0  0  0  0  2  0  0  0  0  0  0
  179.5130  173.5470  141.2600 C   0  0  0  0  0  1  0  0  0  0  0  0
  1 16  1  0  0  0  0
  3 29  1  0  0  0  0
  4 27  1  6  0  0  0
  4  9  1  0  0  0  0
  4 23  1  0  0  0  0
  6  2  1  6  0  0  0
  6  8  1  0  0  0  0
  6  7  1  0  0  0  0
  9 15  1  6  0  0  0
 10 13  1  1  0  0  0
 10 26  1  0  0  0  0
 11 22  1  0  0  0  0
 12 19  1  0  0  0  0
 12 24  1  1  0  0  0
 12  9  1  0  0  0  0
 15 29  1  0  0  0  0
 16  5  1  6  0  0  0
 16 25  1  0  0  0  0
 17 18  1  0  0  0  0
 18 14  2  0  0  0  0
 18  8  1  0  0  0  0
 19 20  1  6  0  0  0
 19 28  1  0  0  0  0
 20 11  1  0  0  0  0
 21 23  1  0  0  0  0
 21 35  1  0  0  0  0
 23 27  1  6  0  0  0
 24  3  1  0  0  0  0
 25 36  1  6  0  0  0
 25 32  1  0  0  0  0
 26  7  1  6  0  0  0
 26 32  1  0  0  0  0
 28 13  1  1  0  0  0
 30 10  1  0  0  0  0
 30 35  1  1  0  0  0
 30  6  1  0  0  0  0
 31 24  2  0  0  0  0
 33 17  1  0  0  0  0
 33  2  1  0  0  0  0
 34 22  1  6  0  0  0
 34 28  1  0  0  0  0
 34  1  1  0  0  0  0
 36 37  1  0  0  0  0
M  END
>  <MODEL>
6

>  <REMARK>
 VINA RESULT:      -4.4      2.497      5.969
  Name = 
  1 active torsions:
  status: ('A' for Active; 'I' for Inactive)
    1  A    between atoms: C_11  and  C_26
                            x       y       z     vdW  Elec       q    Type
                         _______ _______ _______ _____ _____    ______ ____

>  <TORSDO>
F 1

$$$$
=
 OpenBabel11052415163D

 37 43  0  0  1  0  0  0  0  0999 V2000
  186.6930  176.6910  137.1810 O   0  0  0  0  0  0  0  0  0  0  0  0
  181.9370  178.0520  136.3720 C   0  0  0  0  0  2  0  0  0  0  0  0
  188.0930  176.8940  143.7390 O   0  0  0  0  0  0  0  0  0  0  0  0
  184.9500  179.1080  141.7210 C   0  0  1  0  0  3  0  0  0  0  0  0
  186.1960  176.9680  134.8300 C   0  0  0  0  0  1  0  0  0  0  0  0
  181.8150  177.2760  137.6930 C   0  0  2  0  0  0  0  0  0  0  0  0
  182.2390  175.8260  137.4210 C   0  0  0  0  0  2  0  0  0  0  0  0
  180.3540  177.2910  138.1800 C   0  0  0  0  0  2  0  0  0  0  0  0
  185.9120  178.0610  142.3120 C   0  0  1  0  0  3  0  0  0  0  0  0
  184.0190  176.9490  138.5440 C   0  0  1  0  0  3  0  0  0  0  0  0
  189.2010  178.3640  138.0280 S   0  0  0  0  0  0  0  0  0  0  0  0
  187.3080  178.0930  141.6420 C   0  0  2  0  0  3  0  0  0  0  0  0
  185.1360  176.9750  139.5820 C   0  0  0  0  0  2  0  0  0  0  0  0
  179.1040  179.0830  139.0810 O   0  0  0  0  0  0  0  0  0  0  0  0
  186.0670  178.2020  143.8290 C   0  0  0  0  0  2  0  0  0  0  0  0
  185.6900  176.5470  136.2030 C   0  0  1  0  0  3  0  0  0  0  0  0
  179.9900  179.5330  136.9400 C   0  0  0  0  0  2  0  0  0  0  0  0
  179.7860  178.6800  138.1530 C   0  0  0  0  0  0  0  0  0  0  0  0
  187.4600  177.8640  140.1120 C   0  0  2  0  0  3  0  0  0  0  0  0
  188.5730  178.8100  139.6650 C   0  0  0  0  0  2  0  0  0  0  0  0
  182.7200  178.9130  140.6830 C   0  0  0  0  0  2  0  0  0  0  0  0
  187.6500  178.9100  137.2700 C   0  0  0  0  0  2  0  0  0  0  0  0
  183.5520  178.5330  141.8880 C   0  0  2  0  0  3  0  0  0  0  0  0
  188.3180  177.2520  142.4070 C   0  0  0  0  0  0  0  0  0  0  0  0
  185.0640  175.1380  136.1950 C   0  0  2  0  0  3  0  0  0  0  0  0
  183.4930  175.5800  138.2440 C   0  0  2  0  0  3  0  0  0  0  0  0
  183.9590  179.7460  142.6850 C   0  0  0  0  0  2  0  0  0  0  0  0
  186.2030  178.0180  139.2170 C   0  0  1  0  0  3  0  0  0  0  0  0
  186.8120  176.9900  144.3510 C   0  0  0  0  0  2  0  0  0  0  0  0
  182.8140  177.8490  138.7250 C   0  0  2  0  0  3  0  0  0  0  0  0
  189.4130  176.9330  141.8720 O   0  0  0  0  0  0  0  0  0  0  0  0
  184.5370  174.6830  137.5650 C   0  0  0  0  0  2  0  0  0  0  0  0
  181.4580  179.4960  136.5230 C   0  0  0  0  0  2  0  0  0  0  0  0
  186.5120  177.9890  137.6920 C   0  0  2  0  0  3  0  0  0  0  0  0
  182.3140  177.7450  140.0320 O   0  0  0  0  0  0  0  0  0  0  0  0
  186.0540  174.0860  135.7100 C   0  0  0  0  0  2  0  0  0  0  0  0
  186.6850  173.3720  136.8900 C   0  0  0  0  0  1  0  0  0  0  0  0
  1 34  1  0  0  0  0
  2 33  1  0  0  0  0
  3 29  1  0  0  0  0
  4 23  1  0  0  0  0
  4  9  1  0  0  0  0
  4 27  1  1  0  0  0
  6  2  1  6  0  0  0
  6  8  1  0  0  0  0
  6 30  1  0  0  0  0
  7  6  1  0  0  0  0
  9 15  1  1  0  0  0
 10 30  1  0  0  0  0
 10 13  1  1  0  0  0
 11 20  1  0  0  0  0
 12  9  1  0  0  0  0
 12 24  1  1  0  0  0
 15 29  1  0  0  0  0
 16  5  1  6  0  0  0
 16  1  1  0  0  0  0
 17 18  1  0  0  0  0
 18  8  1  0  0  0  0
 18 14  2  0  0  0  0
 19 20  1  6  0  0  0
 19 12  1  0  0  0  0
 22 11  1  0  0  0  0
 23 21  1  6  0  0  0
 23 27  1  0  0  0  0
 24  3  1  0  0  0  0
 25 36  1  1  0  0  0
 25 16  1  0  0  0  0
 25 32  1  0  0  0  0
 26  7  1  6  0  0  0
 26 10  1  0  0  0  0
 28 13  1  6  0  0  0
 28 19  1  0  0  0  0
 30 35  1  1  0  0  0
 31 24  2  0  0  0  0
 32 26  1  0  0  0  0
 33 17  1  0  0  0  0
 34 22  1  1  0  0  0
 34 28  1  0  0  0  0
 35 21  1  0  0  0  0
 36 37  1  0  0  0  0
M  END
>  <MODEL>
7

>  <REMARK>
 VINA RESULT:      -3.7      2.897      6.292
  Name = 
  1 active torsions:
  status: ('A' for Active; 'I' for Inactive)
    1  A    between atoms: C_11  and  C_26
                            x       y       z     vdW  Elec       q    Type
                         _______ _______ _______ _____ _____    ______ ____

>  <TORSDO>
F 1

$$$$
=
 OpenBabel11052415163D

 37 43  0  0  1  0  0  0  0  0999 V2000
  187.5090  177.7010  137.1160 O   0  0  0  0  0  0  0  0  0  0  0  0
  192.1670  176.1180  136.1550 C   0  0  0  0  0  2  0  0  0  0  0  0
  183.2390  172.5260  137.1060 O   0  0  0  0  0  0  0  0  0  0  0  0
  187.0820  172.6800  135.0920 C   0  0  1  0  0  3  0  0  0  0  0  0
  189.0560  179.5290  136.7710 C   0  0  0  0  0  1  0  0  0  0  0  0
  191.6170  174.9600  137.0030 C   0  0  2  0  0  0  0  0  0  0  0  0
  191.2830  175.5190  138.3930 C   0  0  0  0  0  2  0  0  0  0  0  0
  192.6820  173.8580  137.1440 C   0  0  0  0  0  2  0  0  0  0  0  0
  185.8960  172.6880  136.0740 C   0  0  1  0  0  3  0  0  0  0  0  0
  189.2540  175.2460  137.1680 C   0  0  1  0  0  3  0  0  0  0  0  0
  184.9960  177.9610  135.2650 S   0  0  0  0  0  0  0  0  0  0  0  0
  184.9760  173.9180  135.8820 C   0  0  2  0  0  3  0  0  0  0  0  0
  187.7870  174.8400  137.0920 C   0  0  0  0  0  2  0  0  0  0  0  0
  193.4730  172.3350  135.5200 O   0  0  0  0  0  0  0  0  0  0  0  0
  185.0640  171.4060  135.9940 C   0  0  0  0  0  2  0  0  0  0  0  0
  188.8410  178.1180  137.3030 C   0  0  1  0  0  3  0  0  0  0  0  0
  193.7100  174.5960  134.8870 C   0  0  0  0  0  2  0  0  0  0  0  0
  193.2780  173.5020  135.8130 C   0  0  0  0  0  0  0  0  0  0  0  0
  185.5390  175.3620  136.0220 C   0  0  2  0  0  3  0  0  0  0  0  0
  184.8170  176.1870  134.9580 C   0  0  0  0  0  2  0  0  0  0  0  0
  189.5240  172.5910  135.4380 C   0  0  0  0  0  2  0  0  0  0  0  0
  186.7510  177.8720  134.8270 C   0  0  0  0  0  2  0  0  0  0  0  0
  188.2070  171.9400  135.7990 C   0  0  2  0  0  3  0  0  0  0  0  0
  183.6800  173.7780  136.6640 C   0  0  0  0  0  0  0  0  0  0  0  0
  189.3160  177.9580  138.7610 C   0  0  2  0  0  3  0  0  0  0  0  0
  189.7790  175.3880  138.5630 C   0  0  2  0  0  3  0  0  0  0  0  0
  187.5480  171.3190  134.5940 C   0  0  0  0  0  2  0  0  0  0  0  0
  187.0740  175.5630  135.9400 C   0  0  1  0  0  3  0  0  0  0  0  0
  184.0930  171.3900  137.1560 C   0  0  0  0  0  2  0  0  0  0  0  0
  190.2880  174.4570  136.3920 C   0  0  2  0  0  3  0  0  0  0  0  0
  182.9410  174.7800  136.8560 O   0  0  0  0  0  0  0  0  0  0  0  0
  189.1200  176.5440  139.3280 C   0  0  0  0  0  2  0  0  0  0  0  0
  192.6040  175.6410  134.7710 C   0  0  0  0  0  2  0  0  0  0  0  0
  187.5070  177.0560  135.8660 C   0  0  2  0  0  3  0  0  0  0  0  0
  190.1170  173.0800  136.6050 O   0  0  0  0  0  0  0  0  0  0  0  0
  188.6050  178.9310  139.6940 C   0  0  0  0  0  2  0  0  0  0  0  0
  188.2730  178.2530  141.0100 C   0  0  0  0  0  1  0  0  0  0  0  0
  1 16  1  0  0  0  0
  3 29  1  0  0  0  0
  4 27  1  6  0  0  0
  4 23  1  0  0  0  0
  4  9  1  0  0  0  0
  6  2  1  6  0  0  0
  6  8  1  0  0  0  0
  6  7  1  0  0  0  0
  9 15  1  6  0  0  0
 10 13  1  1  0  0  0
 10 26  1  0  0  0  0
 12 19  1  0  0  0  0
 12  9  1  0  0  0  0
 12 24  1  1  0  0  0
 14 18  2  0  0  0  0
 15 29  1  0  0  0  0
 16  5  1  1  0  0  0
 16 25  1  0  0  0  0
 17 18  1  0  0  0  0
 18  8  1  0  0  0  0
 19 20  1  6  0  0  0
 20 11  1  0  0  0  0
 21 23  1  0  0  0  0
 21 35  1  0  0  0  0
 22 11  1  0  0  0  0
 23 27  1  6  0  0  0
 24 31  2  0  0  0  0
 24  3  1  0  0  0  0
 25 32  1  0  0  0  0
 25 36  1  1  0  0  0
 26  7  1  6  0  0  0
 26 32  1  0  0  0  0
 28 19  1  0  0  0  0
 28 13  1  1  0  0  0
 30 35  1  1  0  0  0
 30  6  1  0  0  0  0
 30 10  1  0  0  0  0
 33 17  1  0  0  0  0
 33  2  1  0  0  0  0
 34 22  1  6  0  0  0
 34 28  1  0  0  0  0
 34  1  1  0  0  0  0
 36 37  1  0  0  0  0
M  END
>  <MODEL>
8

>  <REMARK>
 VINA RESULT:      -3.3      3.397      8.213
  Name = 
  1 active torsions:
  status: ('A' for Active; 'I' for Inactive)
    1  A    between atoms: C_11  and  C_26
                            x       y       z     vdW  Elec       q    Type
                         _______ _______ _______ _____ _____    ______ ____

>  <TORSDO>
F 1

$$$$
=
 OpenBabel11052415163D

 37 43  0  0  1  0  0  0  0  0999 V2000
  186.7100  174.2450  136.3340 O   0  0  0  0  0  0  0  0  0  0  0  0
  189.2890  176.4830  140.0030 C   0  0  0  0  0  2  0  0  0  0  0  0
  181.0970  177.6720  135.0030 O   0  0  0  0  0  0  0  0  0  0  0  0
  183.3240  177.7500  138.7300 C   0  0  1  0  0  3  0  0  0  0  0  0
  188.5710  172.9060  137.1070 C   0  0  0  0  0  1  0  0  0  0  0  0
  188.7230  177.6930  139.2430 C   0  0  2  0  0  0  0  0  0  0  0  0
  189.3050  177.6630  137.8230 C   0  0  0  0  0  2  0  0  0  0  0  0
  189.1500  178.9990  139.9370 C   0  0  0  0  0  2  0  0  0  0  0  0
  182.8180  177.8200  137.2770 C   0  0  1  0  0  3  0  0  0  0  0  0
  187.0520  176.8850  137.7440 C   0  0  1  0  0  3  0  0  0  0  0  0
  184.0310  172.6230  136.3880 S   0  0  0  0  0  0  0  0  0  0  0  0
  182.5380  176.4190  136.6790 C   0  0  2  0  0  3  0  0  0  0  0  0
  185.6840  176.8260  137.0740 C   0  0  0  0  0  2  0  0  0  0  0  0
  188.4110  179.9050  141.9900 O   0  0  0  0  0  0  0  0  0  0  0  0
  181.5720  178.6970  137.1350 C   0  0  0  0  0  2  0  0  0  0  0  0
  188.0240  174.3020  136.8380 C   0  0  1  0  0  3  0  0  0  0  0  0
  189.2990  177.7260  142.1850 C   0  0  0  0  0  2  0  0  0  0  0  0
  188.8890  178.9420  141.4130 C   0  0  0  0  0  0  0  0  0  0  0  0
  183.6670  175.3530  136.5910 C   0  0  2  0  0  3  0  0  0  0  0  0
  182.9900  174.0160  136.8890 C   0  0  0  0  0  2  0  0  0  0  0  0
  185.3660  178.6070  139.8190 C   0  0  0  0  0  2  0  0  0  0  0  0
  185.1890  172.9890  137.7320 C   0  0  0  0  0  2  0  0  0  0  0  0
  184.2010  178.9770  138.9270 C   0  0  2  0  0  3  0  0  0  0  0  0
  181.7940  176.5120  135.3570 C   0  0  0  0  0  0  0  0  0  0  0  0
  188.9640  175.1450  135.9530 C   0  0  2  0  0  3  0  0  0  0  0  0
  188.1350  177.4500  136.8780 C   0  0  2  0  0  3  0  0  0  0  0  0
  182.8880  178.8740  139.6600 C   0  0  0  0  0  2  0  0  0  0  0  0
  184.9310  175.5470  137.4680 C   0  0  1  0  0  3  0  0  0  0  0  0
  181.3040  178.9160  135.6600 C   0  0  0  0  0  2  0  0  0  0  0  0
  187.1900  177.5440  139.1010 C   0  0  2  0  0  3  0  0  0  0  0  0
  181.7270  175.5110  134.5940 O   0  0  0  0  0  0  0  0  0  0  0  0
  188.4450  176.5620  135.6660 C   0  0  0  0  0  2  0  0  0  0  0  0
  188.8260  176.4700  141.4600 C   0  0  0  0  0  2  0  0  0  0  0  0
  185.8860  174.3180  137.4720 C   0  0  2  0  0  3  0  0  0  0  0  0
  186.5530  178.7950  139.1070 O   0  0  0  0  0  0  0  0  0  0  0  0
  189.2290  174.4700  134.6120 C   0  0  0  0  0  2  0  0  0  0  0  0
  190.6170  173.8600  134.5940 C   0  0  0  0  0  1  0  0  0  0  0  0
  1 16  1  0  0  0  0
  1 34  1  0  0  0  0
  2 33  1  0  0  0  0
  3 24  1  0  0  0  0
  3 29  1  0  0  0  0
  4 23  1  0  0  0  0
  4 27  1  1  0  0  0
  6  7  1  6  0  0  0
  6  8  1  0  0  0  0
  6  2  1  0  0  0  0
  8 18  1  0  0  0  0
  9 15  1  1  0  0  0
  9  4  1  0  0  0  0
 10 13  1  6  0  0  0
 10 30  1  0  0  0  0
 11 20  1  0  0  0  0
 11 22  1  0  0  0  0
 12 24  1  6  0  0  0
 12  9  1  0  0  0  0
 16  5  1  6  0  0  0
 18 14  2  0  0  0  0
 18 17  1  0  0  0  0
 19 12  1  0  0  0  0
 19 20  1  1  0  0  0
 19 28  1  0  0  0  0
 23 27  1  1  0  0  0
 23 21  1  0  0  0  0
 25 36  1  6  0  0  0
 25 16  1  0  0  0  0
 26 32  1  6  0  0  0
 26 10  1  0  0  0  0
 26  7  1  0  0  0  0
 28 13  1  6  0  0  0
 28 34  1  0  0  0  0
 29 15  1  0  0  0  0
 30 35  1  6  0  0  0
 30  6  1  0  0  0  0
 31 24  2  0  0  0  0
 32 25  1  0  0  0  0
 33 17  1  0  0  0  0
 34 22  1  6  0  0  0
 35 21  1  0  0  0  0
 37 36  1  0  0  0  0
M  END
>  <MODEL>
9

>  <REMARK>
 VINA RESULT:      -3.1      2.688      8.039
  Name = 
  1 active torsions:
  status: ('A' for Active; 'I' for Inactive)
    1  A    between atoms: C_11  and  C_26
                            x       y       z     vdW  Elec       q    Type
                         _______ _______ _______ _____ _____    ______ ____

>  <TORSDO>
F 1

$$$$
