=
 OpenBabel11052415073D

 55 62  0  0  1  0  0  0  0  0999 V2000
  190.9800  177.2340  141.9260 C   0  0  0  0  0  3  0  0  0  0  0  0
  188.2860  177.7260  142.5070 C   0  0  0  0  0  0  0  0  0  0  0  0
  188.6600  177.2620  141.2410 C   0  0  0  0  0  3  0  0  0  0  0  0
  190.6110  177.7020  143.1860 C   0  0  0  0  0  3  0  0  0  0  0  0
  190.0080  177.0030  140.9480 C   0  0  0  0  0  0  0  0  0  0  0  0
  189.2650  177.9460  143.4760 C   0  0  0  0  0  3  0  0  0  0  0  0
  190.4520  176.5880  139.5800 C   0  0  0  0  0  2  0  0  0  0  0  0
  189.3090  176.0680  138.7250 C   0  0  0  0  0  2  0  0  0  0  0  0
  187.0610  173.9710  135.4570 C   0  0  0  0  0  2  0  0  0  0  0  0
  186.6740  171.7350  134.6440 O   0  0  0  0  0  0  0  0  0  0  0  0
  188.7330  173.1650  137.0890 C   0  0  2  0  0  3  0  0  0  0  0  0
  188.1950  172.0800  136.3570 O   0  0  0  0  0  0  0  0  0  0  0  0
  187.2660  172.5120  135.4360 C   0  0  0  0  0  0  0  0  0  0  0  0
  187.8960  174.4100  136.6680 C   0  0  1  0  0  3  0  0  0  0  0  0
  190.7870  174.5900  137.3620 C   0  0  2  0  0  3  0  0  0  0  0  0
  190.2080  173.3290  136.7230 C   0  0  0  0  0  2  0  0  0  0  0  0
  188.7480  175.5740  136.3310 N   0  0  0  0  0  0  0  0  0  0  0  0
  189.8270  175.7870  137.3160 C   0  0  1  0  0  3  0  0  0  0  0  0
  193.2690  174.8190  137.5550 C   0  0  0  0  0  3  0  0  0  0  0  0
  194.6300  175.6410  135.7160 C   0  0  0  0  0  0  0  0  0  0  0  0
  192.2210  175.4190  135.4530 C   0  0  0  0  0  3  0  0  0  0  0  0
  193.4720  175.7640  134.9300 C   0  0  0  0  0  3  0  0  0  0  0  0
  194.5190  175.1650  137.0310 C   0  0  0  0  0  3  0  0  0  0  0  0
  192.1150  174.9420  136.7680 C   0  0  0  0  0  0  0  0  0  0  0  0
  195.9480  176.0030  135.1700 C   0  0  0  0  0  0  0  0  0  0  0  0
  196.2460  177.2130  134.9670 O   0  0  0  0  0  1  0  0  0  0  0  0
  196.8840  175.0130  134.8770 O   0  0  0  0  0  0  0  0  0  0  0  0
  188.0160  176.8360  136.0880 C   0  0  1  0  0  3  0  0  0  0  0  0
  186.9410  177.0610  137.1390 C   0  0  0  0  0  1  0  0  0  0  0  0
  189.5480  178.1510  134.8510 O   0  0  0  0  0  0  0  0  0  0  0  0
  188.9530  179.1600  136.8820 C   0  0  0  0  0  1  0  0  0  0  0  0
  188.8790  178.0610  135.8700 C   0  0  0  0  0  0  0  0  0  0  0  0
  186.8460  177.9450  142.8470 C   0  0  0  0  0  2  0  0  0  0  0  0
  186.5420  177.6220  144.3050 C   0  0  0  0  0  2  0  0  0  0  0  0
  185.4960  178.5920  144.8260 C   0  0  0  0  0  2  0  0  0  0  0  0
  184.7330  179.2400  143.6720 C   0  0  0  0  0  2  0  0  0  0  0  0
  183.2800  178.7790  143.6420 C   0  0  0  0  0  2  0  0  0  0  0  0
  180.7850  179.6100  142.5370 O   0  0  0  0  0  0  0  0  0  0  0  0
  181.5630  178.9480  141.7980 C   0  0  0  0  0  0  0  0  0  0  0  0
  182.8570  178.5720  142.2670 N   0  0  0  0  0  2  0  0  0  0  0  0
  182.7620  180.4000  139.1930 S   0  0  0  0  0  0  0  0  0  0  0  0
  182.8490  177.9360  138.0110 C   0  0  2  0  0  3  0  0  0  0  0  0
  181.2000  179.4970  139.2690 C   0  0  1  0  0  0  0  0  0  0  0  0
  179.7890  177.9880  140.5390 O   0  0  0  0  0  0  0  0  0  0  0  0
  182.3330  177.0960  136.8410 C   0  0  0  0  0  2  0  0  0  0  0  0
  184.0230  179.8230  139.7780 O   0  0  0  0  0  0  0  0  0  0  0  0
  180.7310  176.6430  138.8020 C   0  0  0  0  0  2  0  0  0  0  0  0
  182.9060  181.7130  138.4730 O   0  0  0  0  0  0  0  0  0  0  0  0
  182.1470  176.6040  138.2510 C   0  0  2  0  0  0  0  0  0  0  0  0
  181.1060  178.4980  140.4460 C   0  0  2  0  0  0  0  0  0  0  0  0
  180.0200  180.4290  139.0500 C   0  0  0  0  0  1  0  0  0  0  0  0
  180.7940  177.0460  140.2680 C   0  0  1  0  0  3  0  0  0  0  0  0
  181.9890  179.2080  138.0550 C   0  0  1  0  0  3  0  0  0  0  0  0
  184.0770  175.3090  137.6660 O   0  0  0  0  0  1  0  0  0  0  0  0
  183.0600  175.4430  138.6210 C   0  0  0  0  0  2  0  0  0  0  0  0
  1  4  1  0  0  0  0
  2 33  1  0  0  0  0
  2  6  1  0  0  0  0
  3  2  2  0  0  0  0
  4  6  2  0  0  0  0
  5  3  1  0  0  0  0
  5  1  2  0  0  0  0
  7  5  1  0  0  0  0
  8  7  1  0  0  0  0
 10 13  2  0  0  0  0
 11 16  1  6  0  0  0
 12 11  1  0  0  0  0
 13  9  1  0  0  0  0
 13 12  1  0  0  0  0
 14  9  1  6  0  0  0
 14 11  1  0  0  0  0
 15 24  1  6  0  0  0
 16 15  1  0  0  0  0
 17 14  1  0  0  0  0
 17 18  1  0  0  0  0
 18 15  1  0  0  0  0
 18  8  1  1  0  0  0
 20 23  2  0  0  0  0
 21 24  1  0  0  0  0
 22 21  2  0  0  0  0
 22 20  1  0  0  0  0
 23 19  1  0  0  0  0
 24 19  2  0  0  0  0
 25 20  1  0  0  0  0
 26 25  1  0  0  0  0
 27 25  2  0  0  0  0
 28 17  1  0  0  0  0
 28 29  1  1  0  0  0
 30 32  2  0  0  0  0
 32 28  1  0  0  0  0
 32 31  1  0  0  0  0
 33 34  1  0  0  0  0
 34 35  1  0  0  0  0
 36 35  1  0  0  0  0
 37 36  1  0  0  0  0
 39 40  1  0  0  0  0
 39 38  2  0  0  0  0
 40 37  1  0  0  0  0
 41 43  1  0  0  0  0
 41 46  2  0  0  0  0
 42 45  1  6  0  0  0
 42 53  1  0  0  0  0
 42 49  1  0  0  0  0
 43 51  1  6  0  0  0
 43 50  1  0  0  0  0
 45 49  1  0  0  0  0
 48 41  2  0  0  0  0
 49 55  1  1  0  0  0
 49 47  1  0  0  0  0
 50 44  1  0  0  0  0
 50 39  1  1  0  0  0
 52 47  1  6  0  0  0
 52 50  1  0  0  0  0
 52 44  1  0  0  0  0
 53 41  1  1  0  0  0
 53 43  1  0  0  0  0
 54 55  1  0  0  0  0
M  END
>  <MODEL>
1

>  <REMARK>
 VINA RESULT:      -7.0      0.000      0.000
  Name = 
  15 active torsions:
  status: ('A' for Active; 'I' for Inactive)
    1  A    between atoms: C_2  and  C_28
    2  A    between atoms: C_2  and  C_44
    3  A    between atoms: C_8  and  N_22
    4  A    between atoms: C_8  and  C_35
    5  A    between atoms: C_10  and  C_32
    6  A    between atoms: C_19  and  C_40
    7  A    between atoms: C_19  and  N_45
    8  A    between atoms: C_20  and  C_42
    9  A    between atoms: C_25  and  C_38
   10  A    between atoms: C_27  and  C_54
   11  A    between atoms: C_28  and  C_49
   12  A    between atoms: C_33  and  C_52
   13  A    between atoms: C_35  and  C_43
   14  A    between atoms: C_43  and  C_51
   15  A    between atoms: C_51  and  C_54
                            x       y       z     vdW  Elec       q    Type
                         _______ _______ _______ _____ _____    ______ ____

>  <TORSDO>
F 15

$$$$
=
 OpenBabel11052415073D

 55 62  0  0  1  0  0  0  0  0999 V2000
  185.0620  177.8130  136.8810 C   0  0  0  0  0  3  0  0  0  0  0  0
  187.5020  176.5900  136.2590 C   0  0  0  0  0  0  0  0  0  0  0  0
  186.4340  176.5270  135.3580 C   0  0  0  0  0  3  0  0  0  0  0  0
  186.1230  177.8730  137.7830 C   0  0  0  0  0  3  0  0  0  0  0  0
  185.2110  177.1480  135.6600 C   0  0  0  0  0  0  0  0  0  0  0  0
  187.3430  177.2630  137.4710 C   0  0  0  0  0  3  0  0  0  0  0  0
  184.0220  177.0280  134.7590 C   0  0  0  0  0  2  0  0  0  0  0  0
  183.4960  175.6050  134.6690 C   0  0  0  0  0  2  0  0  0  0  0  0
  181.3880  171.7600  135.6120 C   0  0  0  0  0  2  0  0  0  0  0  0
  179.1520  170.8580  135.6510 O   0  0  0  0  0  0  0  0  0  0  0  0
  180.5400  174.0320  135.1390 C   0  0  2  0  0  3  0  0  0  0  0  0
  179.4670  173.1130  135.2250 O   0  0  0  0  0  0  0  0  0  0  0  0
  179.9210  171.8410  135.4950 C   0  0  0  0  0  0  0  0  0  0  0  0
  181.8360  173.1700  135.2050 C   0  0  1  0  0  3  0  0  0  0  0  0
  181.6830  175.9130  136.3560 C   0  0  2  0  0  3  0  0  0  0  0  0
  180.4530  175.0080  136.3130 C   0  0  0  0  0  2  0  0  0  0  0  0
  182.8240  173.7100  136.1680 N   0  0  0  0  0  0  0  0  0  0  0  0
  182.9910  175.1720  136.0430 C   0  0  1  0  0  3  0  0  0  0  0  0
  182.6480  176.1670  138.6470 C   0  0  0  0  0  3  0  0  0  0  0  0
  181.9520  177.9530  140.1430 C   0  0  0  0  0  0  0  0  0  0  0  0
  180.9900  177.7770  137.9160 C   0  0  0  0  0  3  0  0  0  0  0  0
  181.0800  178.4290  139.1510 C   0  0  0  0  0  3  0  0  0  0  0  0
  182.7360  176.8180  139.8830 C   0  0  0  0  0  3  0  0  0  0  0  0
  181.7760  176.6440  137.6580 C   0  0  0  0  0  0  0  0  0  0  0  0
  182.0490  178.6340  141.4450 C   0  0  0  0  0  0  0  0  0  0  0  0
  181.0920  179.3370  141.8720 O   0  0  0  0  0  0  0  0  0  0  0  0
  183.1990  178.5040  142.2230 O   0  0  0  0  0  1  0  0  0  0  0  0
  184.1420  173.0390  136.1560 C   0  0  1  0  0  3  0  0  0  0  0  0
  184.7090  172.9650  134.7480 C   0  0  0  0  0  1  0  0  0  0  0  0
  184.7880  174.3520  138.0160 O   0  0  0  0  0  0  0  0  0  0  0  0
  186.5850  173.1400  137.1210 C   0  0  0  0  0  1  0  0  0  0  0  0
  185.1490  173.5580  137.1600 C   0  0  0  0  0  0  0  0  0  0  0  0
  188.8270  175.9850  135.9190 C   0  0  0  0  0  2  0  0  0  0  0  0
  189.6200  175.5940  137.1600 C   0  0  0  0  0  2  0  0  0  0  0  0
  190.8100  176.5250  137.3100 C   0  0  0  0  0  2  0  0  0  0  0  0
  191.2450  176.6190  138.7700 C   0  0  0  0  0  2  0  0  0  0  0  0
  190.3500  177.5730  139.5540 C   0  0  0  0  0  2  0  0  0  0  0  0
  188.4810  178.6690  141.4090 O   0  0  0  0  0  0  0  0  0  0  0  0
  189.0420  177.5820  141.7140 C   0  0  0  0  0  0  0  0  0  0  0  0
  189.9260  176.9440  140.7940 N   0  0  0  0  0  2  0  0  0  0  0  0
  191.0360  178.4110  144.0960 S   0  0  0  0  0  0  0  0  0  0  0  0
  188.8540  178.4550  145.7420 C   0  0  2  0  0  3  0  0  0  0  0  0
  190.0420  176.9050  144.0320 C   0  0  1  0  0  0  0  0  0  0  0  0
  188.2340  175.7130  142.9400 O   0  0  0  0  0  0  0  0  0  0  0  0
  188.2230  177.8400  146.9930 C   0  0  0  0  0  2  0  0  0  0  0  0
  190.4370  179.7530  143.7740 O   0  0  0  0  0  0  0  0  0  0  0  0
  187.3060  176.4960  144.9990 C   0  0  0  0  0  2  0  0  0  0  0  0
  192.4690  178.4170  144.5550 O   0  0  0  0  0  0  0  0  0  0  0  0
  187.4600  177.8390  145.6960 C   0  0  2  0  0  0  0  0  0  0  0  0
  188.8320  176.9890  143.0710 C   0  0  2  0  0  0  0  0  0  0  0  0
  190.9240  175.6720  143.9360 C   0  0  0  0  0  1  0  0  0  0  0  0
  187.4240  176.7150  143.4980 C   0  0  1  0  0  3  0  0  0  0  0  0
  190.0390  177.5570  145.3570 C   0  0  1  0  0  3  0  0  0  0  0  0
  185.0850  178.1510  145.6050 O   0  0  0  0  0  1  0  0  0  0  0  0
  186.3080  178.8340  145.6610 C   0  0  0  0  0  2  0  0  0  0  0  0
  1  4  1  0  0  0  0
  2  6  1  0  0  0  0
  3  5  1  0  0  0  0
  3  2  2  0  0  0  0
  5  1  2  0  0  0  0
  6  4  2  0  0  0  0
  7  5  1  0  0  0  0
  8  7  1  0  0  0  0
 11 14  1  0  0  0  0
 11 12  1  0  0  0  0
 11 16  1  1  0  0  0
 12 13  1  0  0  0  0
 13  9  1  0  0  0  0
 13 10  2  0  0  0  0
 14  9  1  1  0  0  0
 14 17  1  0  0  0  0
 15 24  1  1  0  0  0
 16 15  1  0  0  0  0
 18  8  1  6  0  0  0
 18 17  1  0  0  0  0
 18 15  1  0  0  0  0
 19 23  1  0  0  0  0
 20 25  1  0  0  0  0
 21 22  2  0  0  0  0
 22 20  1  0  0  0  0
 23 20  2  0  0  0  0
 24 21  1  0  0  0  0
 24 19  2  0  0  0  0
 25 26  2  0  0  0  0
 25 27  1  0  0  0  0
 28 29  1  6  0  0  0
 28 17  1  0  0  0  0
 28 32  1  0  0  0  0
 31 32  1  0  0  0  0
 32 30  2  0  0  0  0
 33  2  1  0  0  0  0
 33 34  1  0  0  0  0
 34 35  1  0  0  0  0
 35 36  1  0  0  0  0
 36 37  1  0  0  0  0
 37 40  1  0  0  0  0
 38 39  2  0  0  0  0
 40 39  1  0  0  0  0
 41 48  2  0  0  0  0
 42 45  1  1  0  0  0
 43 51  1  6  0  0  0
 43 41  1  0  0  0  0
 43 53  1  0  0  0  0
 44 50  1  0  0  0  0
 44 52  1  0  0  0  0
 46 41  2  0  0  0  0
 47 49  1  0  0  0  0
 49 55  1  6  0  0  0
 49 42  1  0  0  0  0
 49 45  1  0  0  0  0
 50 39  1  6  0  0  0
 50 52  1  0  0  0  0
 50 43  1  0  0  0  0
 52 47  1  1  0  0  0
 53 41  1  6  0  0  0
 53 42  1  0  0  0  0
 54 55  1  0  0  0  0
M  END
>  <MODEL>
2

>  <REMARK>
 VINA RESULT:      -6.6      3.606      9.348
  Name = 
  15 active torsions:
  status: ('A' for Active; 'I' for Inactive)
    1  A    between atoms: C_2  and  C_28
    2  A    between atoms: C_2  and  C_44
    3  A    between atoms: C_8  and  N_22
    4  A    between atoms: C_8  and  C_35
    5  A    between atoms: C_10  and  C_32
    6  A    between atoms: C_19  and  C_40
    7  A    between atoms: C_19  and  N_45
    8  A    between atoms: C_20  and  C_42
    9  A    between atoms: C_25  and  C_38
   10  A    between atoms: C_27  and  C_54
   11  A    between atoms: C_28  and  C_49
   12  A    between atoms: C_33  and  C_52
   13  A    between atoms: C_35  and  C_43
   14  A    between atoms: C_43  and  C_51
   15  A    between atoms: C_51  and  C_54
                            x       y       z     vdW  Elec       q    Type
                         _______ _______ _______ _____ _____    ______ ____

>  <TORSDO>
F 15

$$$$
=
 OpenBabel11052415073D

 55 62  0  0  1  0  0  0  0  0999 V2000
  183.9930  177.9640  139.4630 C   0  0  0  0  0  3  0  0  0  0  0  0
  183.7310  178.5100  142.1970 C   0  0  0  0  0  0  0  0  0  0  0  0
  182.9440  177.5200  141.5980 C   0  0  0  0  0  3  0  0  0  0  0  0
  184.7750  178.9540  140.0560 C   0  0  0  0  0  3  0  0  0  0  0  0
  183.0790  177.2340  140.2300 C   0  0  0  0  0  0  0  0  0  0  0  0
  184.6450  179.2260  141.4210 C   0  0  0  0  0  3  0  0  0  0  0  0
  182.1940  176.2440  139.5400 C   0  0  0  0  0  2  0  0  0  0  0  0
  181.4930  176.8290  138.3260 C   0  0  0  0  0  2  0  0  0  0  0  0
  179.3590  174.0400  135.5350 C   0  0  0  0  0  2  0  0  0  0  0  0
  178.9420  171.6800  135.2670 O   0  0  0  0  0  0  0  0  0  0  0  0
  180.9110  173.6250  137.4130 C   0  0  2  0  0  3  0  0  0  0  0  0
  180.3780  172.4050  136.9340 O   0  0  0  0  0  0  0  0  0  0  0  0
  179.5150  172.6170  135.8810 C   0  0  0  0  0  0  0  0  0  0  0  0
  180.1400  174.7460  136.6510 C   0  0  1  0  0  3  0  0  0  0  0  0
  182.9930  175.0350  137.4560 C   0  0  2  0  0  3  0  0  0  0  0  0
  182.4080  173.6670  137.1080 C   0  0  0  0  0  2  0  0  0  0  0  0
  181.0470  175.7760  136.0940 N   0  0  0  0  0  0  0  0  0  0  0  0
  182.0770  176.2030  137.0620 C   0  0  1  0  0  3  0  0  0  0  0  0
  184.6030  176.2710  135.9980 C   0  0  0  0  0  3  0  0  0  0  0  0
  186.9060  175.5420  135.7200 C   0  0  0  0  0  0  0  0  0  0  0  0
  185.3970  174.3050  137.1740 C   0  0  0  0  0  3  0  0  0  0  0  0
  186.6620  174.4750  136.6000 C   0  0  0  0  0  3  0  0  0  0  0  0
  185.8690  176.4390  135.4240 C   0  0  0  0  0  3  0  0  0  0  0  0
  184.3620  175.2060  136.8770 C   0  0  0  0  0  0  0  0  0  0  0  0
  188.2350  175.7230  135.1130 C   0  0  0  0  0  0  0  0  0  0  0  0
  188.5660  176.8370  134.6200 O   0  0  0  0  0  0  0  0  0  0  0  0
  189.1440  174.6660  135.0820 O   0  0  0  0  0  1  0  0  0  0  0  0
  180.3730  176.9530  135.5070 C   0  0  1  0  0  3  0  0  0  0  0  0
  179.0680  177.2550  136.2260 C   0  0  0  0  0  1  0  0  0  0  0  0
  182.2390  178.1220  134.6370 O   0  0  0  0  0  0  0  0  0  0  0  0
  180.9120  179.4750  136.0170 C   0  0  0  0  0  1  0  0  0  0  0  0
  181.2370  178.1840  135.3350 C   0  0  0  0  0  0  0  0  0  0  0  0
  183.6380  178.7780  143.6650 C   0  0  0  0  0  2  0  0  0  0  0  0
  184.8180  179.5940  144.1790 C   0  0  0  0  0  2  0  0  0  0  0  0
  185.1780  179.1280  145.5790 C   0  0  0  0  0  2  0  0  0  0  0  0
  185.6580  177.6790  145.5620 C   0  0  0  0  0  2  0  0  0  0  0  0
  187.1560  177.5890  145.8370 C   0  0  0  0  0  2  0  0  0  0  0  0
  187.1500  176.6180  143.1550 O   0  0  0  0  0  0  0  0  0  0  0  0
  187.9070  177.5880  143.4260 C   0  0  0  0  0  0  0  0  0  0  0  0
  187.8950  178.1700  144.7280 N   0  0  0  0  0  2  0  0  0  0  0  0
  190.8100  176.2240  143.2100 S   0  0  0  0  0  0  0  0  0  0  0  0
  190.5700  176.4310  140.4950 C   0  0  2  0  0  3  0  0  0  0  0  0
  190.3810  177.8830  142.6390 C   0  0  1  0  0  0  0  0  0  0  0  0
  188.6100  179.4640  142.1440 O   0  0  0  0  0  0  0  0  0  0  0  0
  191.1810  177.0430  139.2320 C   0  0  0  0  0  2  0  0  0  0  0  0
  189.9380  175.0420  142.8880 O   0  0  0  0  0  0  0  0  0  0  0  0
  189.3630  178.6890  140.0130 C   0  0  0  0  0  2  0  0  0  0  0  0
  192.0870  175.9260  143.9480 O   0  0  0  0  0  0  0  0  0  0  0  0
  189.7300  177.2870  139.5520 C   0  0  2  0  0  0  0  0  0  0  0  0
  188.8680  178.0950  142.3970 C   0  0  2  0  0  0  0  0  0  0  0  0
  191.1150  178.9440  143.4420 C   0  0  0  0  0  1  0  0  0  0  0  0
  188.3040  178.5790  141.0990 C   0  0  1  0  0  3  0  0  0  0  0  0
  191.2300  177.1340  141.6900 C   0  0  1  0  0  3  0  0  0  0  0  0
  187.7920  177.3860  138.1470 O   0  0  0  0  0  1  0  0  0  0  0  0
  188.7670  176.5190  138.6580 C   0  0  0  0  0  2  0  0  0  0  0  0
  1  4  2  0  0  0  0
  1  5  1  0  0  0  0
  2 33  1  0  0  0  0
  3  2  1  0  0  0  0
  4  6  1  0  0  0  0
  5  3  2  0  0  0  0
  6  2  2  0  0  0  0
  7  5  1  0  0  0  0
  8  7  1  0  0  0  0
  9 13  1  0  0  0  0
 10 13  2  0  0  0  0
 11 16  1  6  0  0  0
 12 11  1  0  0  0  0
 13 12  1  0  0  0  0
 14  9  1  6  0  0  0
 14 11  1  0  0  0  0
 15 24  1  6  0  0  0
 16 15  1  0  0  0  0
 17 14  1  0  0  0  0
 17 18  1  0  0  0  0
 18 15  1  0  0  0  0
 18  8  1  1  0  0  0
 19 24  1  0  0  0  0
 20 22  2  0  0  0  0
 22 21  1  0  0  0  0
 23 20  1  0  0  0  0
 23 19  2  0  0  0  0
 24 21  2  0  0  0  0
 25 20  1  0  0  0  0
 26 25  2  0  0  0  0
 27 25  1  0  0  0  0
 28 17  1  0  0  0  0
 28 29  1  1  0  0  0
 30 32  2  0  0  0  0
 32 28  1  0  0  0  0
 32 31  1  0  0  0  0
 33 34  1  0  0  0  0
 34 35  1  0  0  0  0
 36 35  1  0  0  0  0
 36 37  1  0  0  0  0
 38 39  2  0  0  0  0
 39 40  1  0  0  0  0
 40 37  1  0  0  0  0
 41 48  2  0  0  0  0
 42 45  1  6  0  0  0
 42 53  1  0  0  0  0
 43 41  1  0  0  0  0
 43 51  1  1  0  0  0
 44 50  1  0  0  0  0
 45 49  1  0  0  0  0
 46 41  2  0  0  0  0
 49 55  1  6  0  0  0
 49 47  1  0  0  0  0
 49 42  1  0  0  0  0
 50 43  1  0  0  0  0
 50 39  1  1  0  0  0
 52 47  1  6  0  0  0
 52 44  1  0  0  0  0
 52 50  1  0  0  0  0
 53 43  1  0  0  0  0
 53 41  1  1  0  0  0
 54 55  1  0  0  0  0
M  END
>  <MODEL>
3

>  <REMARK>
 VINA RESULT:      -6.5      3.726      7.637
  Name = 
  15 active torsions:
  status: ('A' for Active; 'I' for Inactive)
    1  A    between atoms: C_2  and  C_28
    2  A    between atoms: C_2  and  C_44
    3  A    between atoms: C_8  and  N_22
    4  A    between atoms: C_8  and  C_35
    5  A    between atoms: C_10  and  C_32
    6  A    between atoms: C_19  and  C_40
    7  A    between atoms: C_19  and  N_45
    8  A    between atoms: C_20  and  C_42
    9  A    between atoms: C_25  and  C_38
   10  A    between atoms: C_27  and  C_54
   11  A    between atoms: C_28  and  C_49
   12  A    between atoms: C_33  and  C_52
   13  A    between atoms: C_35  and  C_43
   14  A    between atoms: C_43  and  C_51
   15  A    between atoms: C_51  and  C_54
                            x       y       z     vdW  Elec       q    Type
                         _______ _______ _______ _____ _____    ______ ____

>  <TORSDO>
F 15

$$$$
=
 OpenBabel11052415073D

 55 62  0  0  1  0  0  0  0  0999 V2000
  185.3670  177.3290  134.6690 C   0  0  0  0  0  3  0  0  0  0  0  0
  183.9000  176.8490  137.0050 C   0  0  0  0  0  0  0  0  0  0  0  0
  185.1690  177.4330  137.0780 C   0  0  0  0  0  3  0  0  0  0  0  0
  184.1040  176.7420  134.5940 C   0  0  0  0  0  3  0  0  0  0  0  0
  185.9050  177.6860  135.9080 C   0  0  0  0  0  0  0  0  0  0  0  0
  183.3710  176.5040  135.7600 C   0  0  0  0  0  3  0  0  0  0  0  0
  187.2980  178.2300  135.9550 C   0  0  0  0  0  2  0  0  0  0  0  0
  188.3160  177.2890  135.3310 C   0  0  0  0  0  2  0  0  0  0  0  0
  191.9640  175.0450  136.6650 C   0  0  0  0  0  2  0  0  0  0  0  0
  193.4870  173.3670  135.8390 O   0  0  0  0  0  0  0  0  0  0  0  0
  190.4930  174.7810  134.6970 C   0  0  2  0  0  3  0  0  0  0  0  0
  191.6140  173.9230  134.5940 O   0  0  0  0  0  0  0  0  0  0  0  0
  192.4420  174.0520  135.6880 C   0  0  0  0  0  0  0  0  0  0  0  0
  190.7610  175.6720  135.9470 C   0  0  1  0  0  3  0  0  0  0  0  0
  188.0200  174.8180  135.1520 C   0  0  2  0  0  3  0  0  0  0  0  0
  189.2330  173.9330  134.8700 C   0  0  0  0  0  2  0  0  0  0  0  0
  189.5870  175.7480  136.8470 N   0  0  0  0  0  0  0  0  0  0  0  0
  188.3270  175.9770  136.1120 C   0  0  1  0  0  3  0  0  0  0  0  0
  186.2250  173.1240  134.7560 C   0  0  0  0  0  3  0  0  0  0  0  0
  184.6340  172.5080  136.4880 C   0  0  0  0  0  0  0  0  0  0  0  0
  186.3720  174.1470  136.9480 C   0  0  0  0  0  3  0  0  0  0  0  0
  185.2690  173.3980  137.3700 C   0  0  0  0  0  3  0  0  0  0  0  0
  185.1210  172.3760  135.1790 C   0  0  0  0  0  3  0  0  0  0  0  0
  186.8570  174.0110  135.6390 C   0  0  0  0  0  0  0  0  0  0  0  0
  183.4720  171.7190  136.9270 C   0  0  0  0  0  0  0  0  0  0  0  0
  183.4760  170.4610  136.8200 O   0  0  0  0  0  0  0  0  0  0  0  0
  182.3570  172.3530  137.4720 O   0  0  0  0  0  1  0  0  0  0  0  0
  189.7140  176.7100  137.9630 C   0  0  1  0  0  3  0  0  0  0  0  0
  188.4180  176.8180  138.7480 C   0  0  0  0  0  1  0  0  0  0  0  0
  190.8630  175.7130  139.7770 O   0  0  0  0  0  0  0  0  0  0  0  0
  192.1770  177.3040  138.6630 C   0  0  0  0  0  1  0  0  0  0  0  0
  190.9200  176.5180  138.8580 C   0  0  0  0  0  0  0  0  0  0  0  0
  183.0840  176.6340  138.2400 C   0  0  0  0  0  2  0  0  0  0  0  0
  183.7770  177.1640  139.4900 C   0  0  0  0  0  2  0  0  0  0  0  0
  184.0280  178.6530  139.3300 C   0  0  0  0  0  2  0  0  0  0  0  0
  184.6580  179.2360  140.5940 C   0  0  0  0  0  2  0  0  0  0  0  0
  186.1590  178.9700  140.6360 C   0  0  0  0  0  2  0  0  0  0  0  0
  188.8140  178.5740  141.5990 O   0  0  0  0  0  0  0  0  0  0  0  0
  187.8660  178.1070  142.2860 C   0  0  0  0  0  0  0  0  0  0  0  0
  186.5130  178.3420  141.8980 N   0  0  0  0  0  2  0  0  0  0  0  0
  190.8340  178.1230  143.5210 S   0  0  0  0  0  0  0  0  0  0  0  0
  189.6720  178.0580  145.9940 C   0  0  2  0  0  3  0  0  0  0  0  0
  189.6170  176.8040  143.7220 C   0  0  1  0  0  0  0  0  0  0  0  0
  187.3040  176.1210  143.4650 O   0  0  0  0  0  0  0  0  0  0  0  0
  189.5450  177.2560  147.2910 C   0  0  0  0  0  2  0  0  0  0  0  0
  190.4570  179.5660  143.7200 O   0  0  0  0  0  0  0  0  0  0  0  0
  187.5760  176.5230  145.8050 C   0  0  0  0  0  2  0  0  0  0  0  0
  192.2860  177.8500  143.2360 O   0  0  0  0  0  0  0  0  0  0  0  0
  188.3060  177.6440  146.5300 C   0  0  2  0  0  0  0  0  0  0  0  0
  188.1560  177.2510  143.4770 C   0  0  2  0  0  0  0  0  0  0  0  0
  190.0790  175.5270  143.0410 C   0  0  0  0  0  1  0  0  0  0  0  0
  187.0610  177.0610  144.4790 C   0  0  1  0  0  3  0  0  0  0  0  0
  190.3410  177.1340  144.9670 C   0  0  1  0  0  3  0  0  0  0  0  0
  186.9990  178.3130  148.4240 O   0  0  0  0  0  1  0  0  0  0  0  0
  187.5010  178.7530  147.1910 C   0  0  0  0  0  2  0  0  0  0  0  0
  1  5  1  0  0  0  0
  2  3  1  0  0  0  0
  2 33  1  0  0  0  0
  4  1  2  0  0  0  0
  4  6  1  0  0  0  0
  5  7  1  0  0  0  0
  5  3  2  0  0  0  0
  6  2  2  0  0  0  0
  8  7  1  0  0  0  0
 11 16  1  1  0  0  0
 11 14  1  0  0  0  0
 12 11  1  0  0  0  0
 12 13  1  0  0  0  0
 13 10  2  0  0  0  0
 13  9  1  0  0  0  0
 14  9  1  1  0  0  0
 14 17  1  0  0  0  0
 15 24  1  1  0  0  0
 15 18  1  0  0  0  0
 16 15  1  0  0  0  0
 17 28  1  0  0  0  0
 18  8  1  6  0  0  0
 18 17  1  0  0  0  0
 19 23  2  0  0  0  0
 19 24  1  0  0  0  0
 20 25  1  0  0  0  0
 20 22  2  0  0  0  0
 21 22  1  0  0  0  0
 23 20  1  0  0  0  0
 24 21  2  0  0  0  0
 25 27  1  0  0  0  0
 26 25  2  0  0  0  0
 28 29  1  1  0  0  0
 28 32  1  0  0  0  0
 31 32  1  0  0  0  0
 32 30  2  0  0  0  0
 33 34  1  0  0  0  0
 35 34  1  0  0  0  0
 35 36  1  0  0  0  0
 36 37  1  0  0  0  0
 37 40  1  0  0  0  0
 38 39  2  0  0  0  0
 40 39  1  0  0  0  0
 41 46  2  0  0  0  0
 41 43  1  0  0  0  0
 42 49  1  0  0  0  0
 42 45  1  1  0  0  0
 43 51  1  6  0  0  0
 43 53  1  0  0  0  0
 44 50  1  0  0  0  0
 44 52  1  0  0  0  0
 47 49  1  0  0  0  0
 48 41  2  0  0  0  0
 49 55  1  1  0  0  0
 49 45  1  0  0  0  0
 50 39  1  6  0  0  0
 50 43  1  0  0  0  0
 50 52  1  0  0  0  0
 52 47  1  1  0  0  0
 53 41  1  6  0  0  0
 53 42  1  0  0  0  0
 55 54  1  0  0  0  0
M  END
>  <MODEL>
4

>  <REMARK>
 VINA RESULT:      -5.6      3.436      7.993
  Name = 
  15 active torsions:
  status: ('A' for Active; 'I' for Inactive)
    1  A    between atoms: C_2  and  C_28
    2  A    between atoms: C_2  and  C_44
    3  A    between atoms: C_8  and  N_22
    4  A    between atoms: C_8  and  C_35
    5  A    between atoms: C_10  and  C_32
    6  A    between atoms: C_19  and  C_40
    7  A    between atoms: C_19  and  N_45
    8  A    between atoms: C_20  and  C_42
    9  A    between atoms: C_25  and  C_38
   10  A    between atoms: C_27  and  C_54
   11  A    between atoms: C_28  and  C_49
   12  A    between atoms: C_33  and  C_52
   13  A    between atoms: C_35  and  C_43
   14  A    between atoms: C_43  and  C_51
   15  A    between atoms: C_51  and  C_54
                            x       y       z     vdW  Elec       q    Type
                         _______ _______ _______ _____ _____    ______ ____

>  <TORSDO>
F 15

$$$$
=
 OpenBabel11052415073D

 55 62  0  0  1  0  0  0  0  0999 V2000
  186.6370  177.8810  145.4850 C   0  0  0  0  0  3  0  0  0  0  0  0
  184.0670  178.8840  145.0090 C   0  0  0  0  0  0  0  0  0  0  0  0
  184.8370  178.3890  143.9510 C   0  0  0  0  0  3  0  0  0  0  0  0
  185.8740  178.3790  146.5410 C   0  0  0  0  0  3  0  0  0  0  0  0
  186.1220  177.8740  144.1860 C   0  0  0  0  0  0  0  0  0  0  0  0
  184.5900  178.8780  146.3030 C   0  0  0  0  0  3  0  0  0  0  0  0
  187.0050  177.4170  143.0670 C   0  0  0  0  0  2  0  0  0  0  0  0
  187.9740  176.3260  143.4930 C   0  0  0  0  0  2  0  0  0  0  0  0
  191.6890  178.4820  144.7860 C   0  0  0  0  0  2  0  0  0  0  0  0
  192.6400  180.6970  144.7190 O   0  0  0  0  0  0  0  0  0  0  0  0
  189.7890  179.1760  143.3670 C   0  0  2  0  0  3  0  0  0  0  0  0
  190.6500  180.2730  143.6100 O   0  0  0  0  0  0  0  0  0  0  0  0
  191.7200  179.9020  144.3950 C   0  0  0  0  0  0  0  0  0  0  0  0
  190.3230  178.0180  144.2620 C   0  0  1  0  0  3  0  0  0  0  0  0
  189.0690  177.5340  141.6040 C   0  0  2  0  0  3  0  0  0  0  0  0
  189.8520  178.8160  141.8830 C   0  0  0  0  0  2  0  0  0  0  0  0
  190.4470  176.7420  143.5180 N   0  0  0  0  0  0  0  0  0  0  0  0
  189.2610  176.4600  142.6840 C   0  0  1  0  0  3  0  0  0  0  0  0
  190.6580  176.4800  139.9880 C   0  0  0  0  0  3  0  0  0  0  0  0
  190.0250  176.0050  137.6890 C   0  0  0  0  0  0  0  0  0  0  0  0
  188.4220  177.0110  139.2170 C   0  0  0  0  0  3  0  0  0  0  0  0
  188.7430  176.5180  137.9480 C   0  0  0  0  0  3  0  0  0  0  0  0
  190.9790  175.9890  138.7170 C   0  0  0  0  0  3  0  0  0  0  0  0
  189.3770  176.9910  140.2440 C   0  0  0  0  0  0  0  0  0  0  0  0
  190.3690  175.4870  136.3540 C   0  0  0  0  0  0  0  0  0  0  0  0
  190.2060  176.2040  135.3280 O   0  0  0  0  0  0  0  0  0  0  0  0
  190.8840  174.1990  136.2110 O   0  0  0  0  0  1  0  0  0  0  0  0
  190.7850  175.5650  144.3470 C   0  0  1  0  0  3  0  0  0  0  0  0
  192.0540  174.8900  143.8520 C   0  0  0  0  0  1  0  0  0  0  0  0
  189.7670  176.1310  146.4080 O   0  0  0  0  0  0  0  0  0  0  0  0
  192.0520  175.6610  146.6480 C   0  0  0  0  0  1  0  0  0  0  0  0
  190.8000  175.8000  145.8430 C   0  0  0  0  0  0  0  0  0  0  0  0
  182.6730  179.3760  144.7770 C   0  0  0  0  0  2  0  0  0  0  0  0
  182.1380  178.9720  143.4090 C   0  0  0  0  0  2  0  0  0  0  0  0
  180.6580  178.6510  143.5240 C   0  0  0  0  0  2  0  0  0  0  0  0
  179.8470  179.4650  142.5190 C   0  0  0  0  0  2  0  0  0  0  0  0
  179.2440  178.5710  141.4410 C   0  0  0  0  0  2  0  0  0  0  0  0
  180.8720  176.6180  140.1480 O   0  0  0  0  0  0  0  0  0  0  0  0
  180.8140  177.7670  139.6340 C   0  0  0  0  0  0  0  0  0  0  0  0
  179.9550  178.7620  140.1880 N   0  0  0  0  0  2  0  0  0  0  0  0
  183.8310  178.7180  140.2050 S   0  0  0  0  0  0  0  0  0  0  0  0
  184.5790  177.2360  138.0330 C   0  0  2  0  0  3  0  0  0  0  0  0
  182.8790  179.0770  138.7130 C   0  0  1  0  0  0  0  0  0  0  0  0
  180.8990  178.5840  137.4020 O   0  0  0  0  0  0  0  0  0  0  0  0
  185.2250  177.2940  136.6480 C   0  0  0  0  0  2  0  0  0  0  0  0
  183.8770  177.3300  140.7830 O   0  0  0  0  0  0  0  0  0  0  0  0
  182.6890  177.4880  136.2590 C   0  0  0  0  0  2  0  0  0  0  0  0
  184.6870  179.7500  140.8890 O   0  0  0  0  0  0  0  0  0  0  0  0
  183.8580  176.6850  136.8080 C   0  0  2  0  0  0  0  0  0  0  0  0
  181.6940  178.1120  138.4740 C   0  0  2  0  0  0  0  0  0  0  0  0
  182.6020  180.5650  138.5860 C   0  0  0  0  0  1  0  0  0  0  0  0
  181.5100  177.3350  137.2090 C   0  0  1  0  0  3  0  0  0  0  0  0
  184.2770  178.6860  138.4410 C   0  0  1  0  0  3  0  0  0  0  0  0
  183.5510  174.5900  137.9310 O   0  0  0  0  0  1  0  0  0  0  0  0
  183.8440  175.1680  136.6880 C   0  0  0  0  0  2  0  0  0  0  0  0
  1  4  1  0  0  0  0
  2  6  1  0  0  0  0
  3  5  1  0  0  0  0
  3  2  2  0  0  0  0
  5  1  2  0  0  0  0
  6  4  2  0  0  0  0
  7  8  1  0  0  0  0
  7  5  1  0  0  0  0
 11 16  1  6  0  0  0
 11 12  1  0  0  0  0
 11 14  1  0  0  0  0
 12 13  1  0  0  0  0
 13 10  2  0  0  0  0
 13  9  1  0  0  0  0
 14  9  1  6  0  0  0
 15 24  1  6  0  0  0
 15 16  1  0  0  0  0
 15 18  1  0  0  0  0
 17 14  1  0  0  0  0
 17 28  1  0  0  0  0
 18  8  1  1  0  0  0
 18 17  1  0  0  0  0
 19 24  1  0  0  0  0
 20 22  2  0  0  0  0
 20 23  1  0  0  0  0
 21 24  2  0  0  0  0
 22 21  1  0  0  0  0
 23 19  2  0  0  0  0
 25 20  1  0  0  0  0
 26 25  2  0  0  0  0
 27 25  1  0  0  0  0
 28 29  1  6  0  0  0
 28 32  1  0  0  0  0
 32 30  2  0  0  0  0
 32 31  1  0  0  0  0
 33  2  1  0  0  0  0
 34 35  1  0  0  0  0
 34 33  1  0  0  0  0
 36 35  1  0  0  0  0
 37 36  1  0  0  0  0
 39 38  2  0  0  0  0
 39 40  1  0  0  0  0
 40 37  1  0  0  0  0
 41 46  2  0  0  0  0
 41 48  2  0  0  0  0
 42 45  1  6  0  0  0
 42 53  1  0  0  0  0
 43 51  1  6  0  0  0
 43 41  1  0  0  0  0
 44 50  1  0  0  0  0
 45 49  1  0  0  0  0
 47 49  1  0  0  0  0
 49 55  1  6  0  0  0
 49 42  1  0  0  0  0
 50 43  1  0  0  0  0
 50 39  1  1  0  0  0
 52 47  1  6  0  0  0
 52 44  1  0  0  0  0
 52 50  1  0  0  0  0
 53 43  1  0  0  0  0
 53 41  1  1  0  0  0
 55 54  1  0  0  0  0
M  END
>  <MODEL>
5

>  <REMARK>
 VINA RESULT:      -4.9      2.987      6.314
  Name = 
  15 active torsions:
  status: ('A' for Active; 'I' for Inactive)
    1  A    between atoms: C_2  and  C_28
    2  A    between atoms: C_2  and  C_44
    3  A    between atoms: C_8  and  N_22
    4  A    between atoms: C_8  and  C_35
    5  A    between atoms: C_10  and  C_32
    6  A    between atoms: C_19  and  C_40
    7  A    between atoms: C_19  and  N_45
    8  A    between atoms: C_20  and  C_42
    9  A    between atoms: C_25  and  C_38
   10  A    between atoms: C_27  and  C_54
   11  A    between atoms: C_28  and  C_49
   12  A    between atoms: C_33  and  C_52
   13  A    between atoms: C_35  and  C_43
   14  A    between atoms: C_43  and  C_51
   15  A    between atoms: C_51  and  C_54
                            x       y       z     vdW  Elec       q    Type
                         _______ _______ _______ _____ _____    ______ ____

>  <TORSDO>
F 15

$$$$
=
 OpenBabel11052415073D

 55 62  0  0  1  0  0  0  0  0999 V2000
  186.0510  176.4170  135.9570 C   0  0  0  0  0  3  0  0  0  0  0  0
  187.6490  177.5850  137.9370 C   0  0  0  0  0  0  0  0  0  0  0  0
  186.2710  177.8280  137.9100 C   0  0  0  0  0  3  0  0  0  0  0  0
  187.4250  176.1770  135.9790 C   0  0  0  0  0  3  0  0  0  0  0  0
  185.4630  177.2360  136.9250 C   0  0  0  0  0  0  0  0  0  0  0  0
  188.2220  176.7590  136.9690 C   0  0  0  0  0  3  0  0  0  0  0  0
  184.0030  177.5420  136.8150 C   0  0  0  0  0  2  0  0  0  0  0  0
  183.4380  178.1720  138.0770 C   0  0  0  0  0  2  0  0  0  0  0  0
  180.4200  179.9600  140.8730 C   0  0  0  0  0  2  0  0  0  0  0  0
  179.7100  179.7670  143.1690 O   0  0  0  0  0  0  0  0  0  0  0  0
  181.9440  178.0290  141.1070 C   0  0  2  0  0  3  0  0  0  0  0  0
  181.2890  178.2920  142.3340 O   0  0  0  0  0  0  0  0  0  0  0  0
  180.4290  179.3630  142.2200 C   0  0  0  0  0  0  0  0  0  0  0  0
  181.5490  179.2030  140.1610 C   0  0  1  0  0  3  0  0  0  0  0  0
  182.0140  176.4350  139.1630 C   0  0  2  0  0  3  0  0  0  0  0  0
  181.4610  176.6830  140.5650 C   0  0  0  0  0  2  0  0  0  0  0  0
  181.1110  178.7290  138.8270 N   0  0  0  0  0  0  0  0  0  0  0  0
  182.0040  177.6900  138.2770 C   0  0  1  0  0  3  0  0  0  0  0  0
  181.7590  174.8610  137.2380 C   0  0  0  0  0  3  0  0  0  0  0  0
  179.9880  173.1970  137.1660 C   0  0  0  0  0  0  0  0  0  0  0  0
  180.1940  174.6830  139.0800 C   0  0  0  0  0  3  0  0  0  0  0  0
  179.5390  173.6370  138.4220 C   0  0  0  0  0  3  0  0  0  0  0  0
  181.1030  173.8150  136.5790 C   0  0  0  0  0  3  0  0  0  0  0  0
  181.3100  175.2980  138.4920 C   0  0  0  0  0  0  0  0  0  0  0  0
  179.3010  172.0970  136.4680 C   0  0  0  0  0  0  0  0  0  0  0  0
  179.0370  171.0220  137.0730 O   0  0  0  0  0  1  0  0  0  0  0  0
  178.9310  172.2360  135.1310 O   0  0  0  0  0  0  0  0  0  0  0  0
  180.8850  179.7950  137.8280 C   0  0  1  0  0  3  0  0  0  0  0  0
  182.0460  180.7750  137.7950 C   0  0  0  0  0  1  0  0  0  0  0  0
  181.0290  179.8100  135.4650 O   0  0  0  0  0  0  0  0  0  0  0  0
  179.4290  178.2840  136.2450 C   0  0  0  0  0  1  0  0  0  0  0  0
  180.4870  179.3220  136.4460 C   0  0  0  0  0  0  0  0  0  0  0  0
  188.5060  178.1610  139.0190 C   0  0  0  0  0  2  0  0  0  0  0  0
  189.3440  177.0990  139.7200 C   0  0  0  0  0  2  0  0  0  0  0  0
  190.7850  177.2070  139.2520 C   0  0  0  0  0  2  0  0  0  0  0  0
  191.1830  175.9810  138.4340 C   0  0  0  0  0  2  0  0  0  0  0  0
  192.0520  176.3700  137.2420 C   0  0  0  0  0  2  0  0  0  0  0  0
  194.8330  176.6350  136.6690 O   0  0  0  0  0  0  0  0  0  0  0  0
  194.3180  175.4890  136.5610 C   0  0  0  0  0  0  0  0  0  0  0  0
  192.9520  175.2770  136.9110 N   0  0  0  0  0  2  0  0  0  0  0  0
  196.6750  174.2350  138.3530 S   0  0  0  0  0  0  0  0  0  0  0  0
  195.9010  171.7800  137.4330 C   0  0  2  0  0  3  0  0  0  0  0  0
  196.5530  174.1340  136.5540 C   0  0  1  0  0  0  0  0  0  0  0  0
  195.1610  174.4530  134.5940 O   0  0  0  0  0  0  0  0  0  0  0  0
  196.3500  170.5430  136.6530 C   0  0  0  0  0  2  0  0  0  0  0  0
  195.4900  173.9390  139.2310 O   0  0  0  0  0  0  0  0  0  0  0  0
  195.2110  172.0890  134.9410 C   0  0  0  0  0  2  0  0  0  0  0  0
  197.9690  174.5280  139.0630 O   0  0  0  0  0  0  0  0  0  0  0  0
  195.1110  171.2840  136.2270 C   0  0  2  0  0  0  0  0  0  0  0  0
  195.1240  174.3570  136.0060 C   0  0  2  0  0  0  0  0  0  0  0  0
  197.6830  174.8990  135.8860 C   0  0  0  0  0  1  0  0  0  0  0  0
  194.4240  173.3790  135.1160 C   0  0  1  0  0  3  0  0  0  0  0  0
  196.9600  172.8650  137.1900 C   0  0  1  0  0  3  0  0  0  0  0  0
  193.2950  169.9630  135.3910 O   0  0  0  0  0  1  0  0  0  0  0  0
  193.8160  170.5530  136.5510 C   0  0  0  0  0  2  0  0  0  0  0  0
  1  4  2  0  0  0  0
  1  5  1  0  0  0  0
  2 33  1  0  0  0  0
  3  2  1  0  0  0  0
  4  6  1  0  0  0  0
  5  3  2  0  0  0  0
  6  2  2  0  0  0  0
  7  5  1  0  0  0  0
  7  8  1  0  0  0  0
  9 13  1  0  0  0  0
 11 16  1  6  0  0  0
 11 12  1  0  0  0  0
 13 12  1  0  0  0  0
 13 10  2  0  0  0  0
 14  9  1  1  0  0  0
 14 11  1  0  0  0  0
 15 24  1  6  0  0  0
 15 16  1  0  0  0  0
 17 14  1  0  0  0  0
 18  8  1  1  0  0  0
 18 17  1  0  0  0  0
 18 15  1  0  0  0  0
 19 24  1  0  0  0  0
 20 22  2  0  0  0  0
 22 21  1  0  0  0  0
 23 20  1  0  0  0  0
 23 19  2  0  0  0  0
 24 21  2  0  0  0  0
 25 26  1  0  0  0  0
 25 20  1  0  0  0  0
 27 25  2  0  0  0  0
 28 29  1  6  0  0  0
 28 17  1  0  0  0  0
 30 32  2  0  0  0  0
 31 32  1  0  0  0  0
 32 28  1  0  0  0  0
 33 34  1  0  0  0  0
 35 34  1  0  0  0  0
 36 35  1  0  0  0  0
 37 36  1  0  0  0  0
 39 38  2  0  0  0  0
 39 40  1  0  0  0  0
 40 37  1  0  0  0  0
 41 48  2  0  0  0  0
 41 46  2  0  0  0  0
 42 45  1  6  0  0  0
 43 51  1  6  0  0  0
 43 53  1  0  0  0  0
 43 41  1  0  0  0  0
 44 52  1  0  0  0  0
 44 50  1  0  0  0  0
 47 49  1  0  0  0  0
 49 55  1  1  0  0  0
 49 45  1  0  0  0  0
 49 42  1  0  0  0  0
 50 43  1  0  0  0  0
 50 39  1  1  0  0  0
 52 47  1  6  0  0  0
 52 50  1  0  0  0  0
 53 42  1  0  0  0  0
 53 41  1  1  0  0  0
 54 55  1  0  0  0  0
M  END
>  <MODEL>
6

>  <REMARK>
 VINA RESULT:      -4.7      3.586     12.114
  Name = 
  15 active torsions:
  status: ('A' for Active; 'I' for Inactive)
    1  A    between atoms: C_2  and  C_28
    2  A    between atoms: C_2  and  C_44
    3  A    between atoms: C_8  and  N_22
    4  A    between atoms: C_8  and  C_35
    5  A    between atoms: C_10  and  C_32
    6  A    between atoms: C_19  and  C_40
    7  A    between atoms: C_19  and  N_45
    8  A    between atoms: C_20  and  C_42
    9  A    between atoms: C_25  and  C_38
   10  A    between atoms: C_27  and  C_54
   11  A    between atoms: C_28  and  C_49
   12  A    between atoms: C_33  and  C_52
   13  A    between atoms: C_35  and  C_43
   14  A    between atoms: C_43  and  C_51
   15  A    between atoms: C_51  and  C_54
                            x       y       z     vdW  Elec       q    Type
                         _______ _______ _______ _____ _____    ______ ____

>  <TORSDO>
F 15

$$$$
=
 OpenBabel11052415073D

 55 62  0  0  1  0  0  0  0  0999 V2000
  190.5840  176.0520  142.5370 C   0  0  0  0  0  3  0  0  0  0  0  0
  188.6710  177.7880  143.6170 C   0  0  0  0  0  0  0  0  0  0  0  0
  188.9210  177.7840  142.2400 C   0  0  0  0  0  3  0  0  0  0  0  0
  190.3400  176.0570  143.9100 C   0  0  0  0  0  3  0  0  0  0  0  0
  189.8710  176.9080  141.6920 C   0  0  0  0  0  0  0  0  0  0  0  0
  189.3840  176.9230  144.4480 C   0  0  0  0  0  3  0  0  0  0  0  0
  190.2250  176.9380  140.2380 C   0  0  0  0  0  2  0  0  0  0  0  0
  189.8620  175.6490  139.5190 C   0  0  0  0  0  2  0  0  0  0  0  0
  187.1280  174.9000  136.0430 C   0  0  0  0  0  2  0  0  0  0  0  0
  186.4100  173.0780  134.6360 O   0  0  0  0  0  0  0  0  0  0  0  0
  188.8120  173.4730  137.1540 C   0  0  2  0  0  3  0  0  0  0  0  0
  188.0910  172.7270  136.1910 O   0  0  0  0  0  0  0  0  0  0  0  0
  187.1520  173.5100  135.5560 C   0  0  0  0  0  0  0  0  0  0  0  0
  188.1020  174.8580  137.2280 C   0  0  1  0  0  3  0  0  0  0  0  0
  191.0390  174.5470  137.6150 C   0  0  2  0  0  3  0  0  0  0  0  0
  190.2630  173.6090  136.6920 C   0  0  0  0  0  2  0  0  0  0  0  0
  189.0600  175.9870  137.1670 N   0  0  0  0  0  0  0  0  0  0  0  0
  190.2300  175.7800  138.0440 C   0  0  1  0  0  3  0  0  0  0  0  0
  192.5710  176.2920  136.6920 C   0  0  0  0  0  3  0  0  0  0  0  0
  194.7750  175.7400  135.8270 C   0  0  0  0  0  0  0  0  0  0  0  0
  193.3430  173.9950  136.7340 C   0  0  0  0  0  3  0  0  0  0  0  0
  194.5500  174.3910  136.1480 C   0  0  0  0  0  3  0  0  0  0  0  0
  193.7780  176.6880  136.1040 C   0  0  0  0  0  3  0  0  0  0  0  0
  192.3490  174.9460  137.0120 C   0  0  0  0  0  0  0  0  0  0  0  0
  196.0430  176.1620  135.2090 C   0  0  0  0  0  0  0  0  0  0  0  0
  196.2410  177.3740  134.9190 O   0  0  0  0  0  0  0  0  0  0  0  0
  197.0410  175.2250  134.9440 O   0  0  0  0  0  1  0  0  0  0  0  0
  188.4700  177.3220  137.4030 C   0  0  1  0  0  3  0  0  0  0  0  0
  189.4330  178.2250  138.1560 C   0  0  0  0  0  1  0  0  0  0  0  0
  187.0480  178.8870  136.3380 O   0  0  0  0  0  0  0  0  0  0  0  0
  188.2500  177.5900  134.7980 C   0  0  0  0  0  1  0  0  0  0  0  0
  187.8730  177.9980  136.1870 C   0  0  0  0  0  0  0  0  0  0  0  0
  187.6160  178.6730  144.2010 C   0  0  0  0  0  2  0  0  0  0  0  0
  186.4900  177.8790  144.8520 C   0  0  0  0  0  2  0  0  0  0  0  0
  185.2900  177.8570  143.9220 C   0  0  0  0  0  2  0  0  0  0  0  0
  185.0130  179.2500  143.3610 C   0  0  0  0  0  2  0  0  0  0  0  0
  185.2790  179.3050  141.8610 C   0  0  0  0  0  2  0  0  0  0  0  0
  184.9270  179.1840  139.0330 O   0  0  0  0  0  0  0  0  0  0  0  0
  184.1750  178.4700  139.7490 C   0  0  0  0  0  0  0  0  0  0  0  0
  184.3550  178.4260  141.1630 N   0  0  0  0  0  2  0  0  0  0  0  0
  181.3880  179.9850  139.2250 S   0  0  0  0  0  0  0  0  0  0  0  0
  181.2460  178.6420  136.8480 C   0  0  2  0  0  3  0  0  0  0  0  0
  181.6020  178.1990  139.3810 C   0  0  1  0  0  0  0  0  0  0  0  0
  183.1580  176.3410  139.4560 O   0  0  0  0  0  0  0  0  0  0  0  0
  180.4240  177.6470  136.0260 C   0  0  0  0  0  2  0  0  0  0  0  0
  182.3020  180.8040  138.3550 O   0  0  0  0  0  0  0  0  0  0  0  0
  182.1910  176.2530  137.2720 C   0  0  0  0  0  2  0  0  0  0  0  0
  180.2500  180.7260  139.8730 O   0  0  0  0  0  0  0  0  0  0  0  0
  181.8800  177.3730  136.2920 C   0  0  2  0  0  0  0  0  0  0  0  0
  183.0470  177.7120  139.1230 C   0  0  2  0  0  0  0  0  0  0  0  0
  180.8990  177.6710  140.6210 C   0  0  0  0  0  1  0  0  0  0  0  0
  183.3920  176.6650  138.1110 C   0  0  1  0  0  3  0  0  0  0  0  0
  180.6970  178.5910  138.2820 C   0  0  1  0  0  3  0  0  0  0  0  0
  183.5660  176.4310  134.8730 O   0  0  0  0  0  1  0  0  0  0  0  0
  182.7740  177.5690  135.0760 C   0  0  0  0  0  2  0  0  0  0  0  0
  1  4  1  0  0  0  0
  2 33  1  0  0  0  0
  2  6  1  0  0  0  0
  3  2  2  0  0  0  0
  4  6  2  0  0  0  0
  5  3  1  0  0  0  0
  5  1  2  0  0  0  0
  7  5  1  0  0  0  0
  8  7  1  0  0  0  0
 10 13  2  0  0  0  0
 11 16  1  6  0  0  0
 11 14  1  0  0  0  0
 12 11  1  0  0  0  0
 13  9  1  0  0  0  0
 13 12  1  0  0  0  0
 14  9  1  6  0  0  0
 15 24  1  6  0  0  0
 15 18  1  0  0  0  0
 16 15  1  0  0  0  0
 17 14  1  0  0  0  0
 17 28  1  0  0  0  0
 17 18  1  0  0  0  0
 18  8  1  1  0  0  0
 19 24  1  0  0  0  0
 20 23  1  0  0  0  0
 20 22  2  0  0  0  0
 21 24  2  0  0  0  0
 22 21  1  0  0  0  0
 23 19  2  0  0  0  0
 25 20  1  0  0  0  0
 26 25  2  0  0  0  0
 27 25  1  0  0  0  0
 28 29  1  6  0  0  0
 31 32  1  0  0  0  0
 32 30  2  0  0  0  0
 32 28  1  0  0  0  0
 33 34  1  0  0  0  0
 35 34  1  0  0  0  0
 36 35  1  0  0  0  0
 37 36  1  0  0  0  0
 38 39  2  0  0  0  0
 39 40  1  0  0  0  0
 40 37  1  0  0  0  0
 41 43  1  0  0  0  0
 41 48  2  0  0  0  0
 42 45  1  6  0  0  0
 42 53  1  0  0  0  0
 43 51  1  1  0  0  0
 45 49  1  0  0  0  0
 46 41  2  0  0  0  0
 49 55  1  6  0  0  0
 49 42  1  0  0  0  0
 49 47  1  0  0  0  0
 50 43  1  0  0  0  0
 50 44  1  0  0  0  0
 50 39  1  1  0  0  0
 52 47  1  6  0  0  0
 52 50  1  0  0  0  0
 52 44  1  0  0  0  0
 53 41  1  1  0  0  0
 53 43  1  0  0  0  0
 54 55  1  0  0  0  0
M  END
>  <MODEL>
7

>  <REMARK>
 VINA RESULT:      -4.5      1.371      2.052
  Name = 
  15 active torsions:
  status: ('A' for Active; 'I' for Inactive)
    1  A    between atoms: C_2  and  C_28
    2  A    between atoms: C_2  and  C_44
    3  A    between atoms: C_8  and  N_22
    4  A    between atoms: C_8  and  C_35
    5  A    between atoms: C_10  and  C_32
    6  A    between atoms: C_19  and  C_40
    7  A    between atoms: C_19  and  N_45
    8  A    between atoms: C_20  and  C_42
    9  A    between atoms: C_25  and  C_38
   10  A    between atoms: C_27  and  C_54
   11  A    between atoms: C_28  and  C_49
   12  A    between atoms: C_33  and  C_52
   13  A    between atoms: C_35  and  C_43
   14  A    between atoms: C_43  and  C_51
   15  A    between atoms: C_51  and  C_54
                            x       y       z     vdW  Elec       q    Type
                         _______ _______ _______ _____ _____    ______ ____

>  <TORSDO>
F 15

$$$$
=
 OpenBabel11052415073D

 55 62  0  0  1  0  0  0  0  0999 V2000
  184.6440  179.3310  143.4370 C   0  0  0  0  0  3  0  0  0  0  0  0
  182.1820  178.7780  142.2240 C   0  0  0  0  0  0  0  0  0  0  0  0
  183.3620  178.7420  141.4720 C   0  0  0  0  0  3  0  0  0  0  0  0
  183.4700  179.3730  144.1880 C   0  0  0  0  0  3  0  0  0  0  0  0
  184.6000  179.0080  142.0780 C   0  0  0  0  0  0  0  0  0  0  0  0
  182.2410  179.0950  143.5820 C   0  0  0  0  0  3  0  0  0  0  0  0
  185.8690  179.0620  141.2870 C   0  0  0  0  0  2  0  0  0  0  0  0
  187.1060  179.1450  142.1660 C   0  0  0  0  0  2  0  0  0  0  0  0
  189.8810  177.3020  145.1710 C   0  0  0  0  0  2  0  0  0  0  0  0
  192.1740  177.4750  145.8940 O   0  0  0  0  0  0  0  0  0  0  0  0
  190.2820  178.8520  143.2890 C   0  0  2  0  0  3  0  0  0  0  0  0
  191.4640  178.6800  144.0470 O   0  0  0  0  0  0  0  0  0  0  0  0
  191.2610  177.8120  145.0980 C   0  0  0  0  0  0  0  0  0  0  0  0
  189.1630  178.1140  144.0840 C   0  0  1  0  0  3  0  0  0  0  0  0
  189.1820  178.2520  141.1080 C   0  0  2  0  0  3  0  0  0  0  0  0
  190.4860  178.2380  141.9040 C   0  0  0  0  0  2  0  0  0  0  0  0
  188.3430  177.2340  143.2190 N   0  0  0  0  0  0  0  0  0  0  0  0
  187.9530  177.8920  141.9560 C   0  0  1  0  0  3  0  0  0  0  0  0
  188.2060  177.3600  138.9870 C   0  0  0  0  0  3  0  0  0  0  0  0
  189.3730  175.7180  137.6270 C   0  0  0  0  0  0  0  0  0  0  0  0
  190.3910  176.5620  139.6690 C   0  0  0  0  0  3  0  0  0  0  0  0
  190.4410  175.7390  138.5390 C   0  0  0  0  0  3  0  0  0  0  0  0
  188.2560  176.5340  137.8590 C   0  0  0  0  0  3  0  0  0  0  0  0
  189.2730  177.3800  139.8960 C   0  0  0  0  0  0  0  0  0  0  0  0
  189.4210  174.8510  136.4370 C   0  0  0  0  0  0  0  0  0  0  0  0
  190.3800  174.0490  136.2690 O   0  0  0  0  0  1  0  0  0  0  0  0
  188.4020  174.9050  135.4880 O   0  0  0  0  0  0  0  0  0  0  0  0
  187.1610  176.6370  143.8750 C   0  0  1  0  0  3  0  0  0  0  0  0
  187.1850  175.1200  143.7790 C   0  0  0  0  0  1  0  0  0  0  0  0
  187.2740  176.4690  146.2340 O   0  0  0  0  0  0  0  0  0  0  0  0
  186.1030  178.3780  145.5370 C   0  0  0  0  0  1  0  0  0  0  0  0
  186.8770  177.1240  145.2810 C   0  0  0  0  0  0  0  0  0  0  0  0
  180.8660  178.4350  141.6010 C   0  0  0  0  0  2  0  0  0  0  0  0
  180.9710  178.2530  140.0920 C   0  0  0  0  0  2  0  0  0  0  0  0
  179.5890  177.9860  139.5220 C   0  0  0  0  0  2  0  0  0  0  0  0
  179.5310  178.3610  138.0430 C   0  0  0  0  0  2  0  0  0  0  0  0
  179.0210  177.1980  137.1970 C   0  0  0  0  0  2  0  0  0  0  0  0
  180.2590  174.6810  137.7120 O   0  0  0  0  0  0  0  0  0  0  0  0
  180.7410  175.3940  136.7920 C   0  0  0  0  0  0  0  0  0  0  0  0
  180.1180  176.6260  136.4340 N   0  0  0  0  0  2  0  0  0  0  0  0
  183.5460  176.4280  137.9750 S   0  0  0  0  0  0  0  0  0  0  0  0
  184.5490  173.9430  137.4350 C   0  0  2  0  0  3  0  0  0  0  0  0
  183.2580  175.8760  136.2800 C   0  0  1  0  0  0  0  0  0  0  0  0
  181.7550  174.7620  134.7370 O   0  0  0  0  0  0  0  0  0  0  0  0
  185.6020  173.1700  136.6380 C   0  0  0  0  0  2  0  0  0  0  0  0
  183.0420  175.6320  139.1480 O   0  0  0  0  0  0  0  0  0  0  0  0
  183.4710  173.1630  135.1950 C   0  0  0  0  0  2  0  0  0  0  0  0
  184.3700  177.6440  138.3030 O   0  0  0  0  0  0  0  0  0  0  0  0
  184.1490  172.8010  136.5080 C   0  0  2  0  0  0  0  0  0  0  0  0
  182.0080  174.9810  136.1120 C   0  0  2  0  0  0  0  0  0  0  0  0
  183.4320  177.0210  135.2960 C   0  0  0  0  0  1  0  0  0  0  0  0
  182.0510  173.6180  135.4950 C   0  0  1  0  0  3  0  0  0  0  0  0
  184.5170  175.3670  136.8600 C   0  0  1  0  0  3  0  0  0  0  0  0
  183.7630  170.4470  136.2710 O   0  0  0  0  0  1  0  0  0  0  0  0
  183.7830  171.4960  137.2010 C   0  0  0  0  0  2  0  0  0  0  0  0
  1  4  1  0  0  0  0
  2  6  1  0  0  0  0
  3  5  1  0  0  0  0
  3  2  2  0  0  0  0
  5  1  2  0  0  0  0
  6  4  2  0  0  0  0
  7  5  1  0  0  0  0
  7  8  1  0  0  0  0
 11 16  1  6  0  0  0
 11 12  1  0  0  0  0
 11 14  1  0  0  0  0
 12 13  1  0  0  0  0
 13  9  1  0  0  0  0
 13 10  2  0  0  0  0
 14  9  1  1  0  0  0
 15 24  1  6  0  0  0
 15 16  1  0  0  0  0
 15 18  1  0  0  0  0
 17 28  1  0  0  0  0
 17 14  1  0  0  0  0
 18  8  1  1  0  0  0
 18 17  1  0  0  0  0
 19 24  1  0  0  0  0
 20 23  1  0  0  0  0
 20 22  2  0  0  0  0
 21 24  2  0  0  0  0
 22 21  1  0  0  0  0
 23 19  2  0  0  0  0
 25 20  1  0  0  0  0
 26 25  1  0  0  0  0
 27 25  2  0  0  0  0
 28 29  1  1  0  0  0
 28 32  1  0  0  0  0
 32 31  1  0  0  0  0
 32 30  2  0  0  0  0
 33  2  1  0  0  0  0
 34 33  1  0  0  0  0
 35 34  1  0  0  0  0
 36 35  1  0  0  0  0
 37 36  1  0  0  0  0
 39 38  2  0  0  0  0
 40 39  1  0  0  0  0
 40 37  1  0  0  0  0
 41 48  2  0  0  0  0
 41 46  2  0  0  0  0
 42 45  1  6  0  0  0
 43 51  1  6  0  0  0
 43 53  1  0  0  0  0
 43 41  1  0  0  0  0
 44 52  1  0  0  0  0
 44 50  1  0  0  0  0
 47 49  1  0  0  0  0
 49 45  1  0  0  0  0
 49 55  1  1  0  0  0
 49 42  1  0  0  0  0
 50 43  1  0  0  0  0
 50 39  1  1  0  0  0
 52 47  1  6  0  0  0
 52 50  1  0  0  0  0
 53 42  1  0  0  0  0
 53 41  1  1  0  0  0
 54 55  1  0  0  0  0
M  END
>  <MODEL>
8

>  <REMARK>
 VINA RESULT:      -4.4      3.199      7.056
  Name = 
  15 active torsions:
  status: ('A' for Active; 'I' for Inactive)
    1  A    between atoms: C_2  and  C_28
    2  A    between atoms: C_2  and  C_44
    3  A    between atoms: C_8  and  N_22
    4  A    between atoms: C_8  and  C_35
    5  A    between atoms: C_10  and  C_32
    6  A    between atoms: C_19  and  C_40
    7  A    between atoms: C_19  and  N_45
    8  A    between atoms: C_20  and  C_42
    9  A    between atoms: C_25  and  C_38
   10  A    between atoms: C_27  and  C_54
   11  A    between atoms: C_28  and  C_49
   12  A    between atoms: C_33  and  C_52
   13  A    between atoms: C_35  and  C_43
   14  A    between atoms: C_43  and  C_51
   15  A    between atoms: C_51  and  C_54
                            x       y       z     vdW  Elec       q    Type
                         _______ _______ _______ _____ _____    ______ ____

>  <TORSDO>
F 15

$$$$
=
 OpenBabel11052415073D

 55 62  0  0  1  0  0  0  0  0999 V2000
  189.5550  177.8970  135.6680 C   0  0  0  0  0  3  0  0  0  0  0  0
  186.8810  177.0690  135.7430 C   0  0  0  0  0  0  0  0  0  0  0  0
  187.8690  176.2150  135.2410 C   0  0  0  0  0  3  0  0  0  0  0  0
  188.5720  178.7530  136.1640 C   0  0  0  0  0  3  0  0  0  0  0  0
  189.2130  176.6210  135.2110 C   0  0  0  0  0  0  0  0  0  0  0  0
  187.2370  178.3380  136.2030 C   0  0  0  0  0  3  0  0  0  0  0  0
  190.2820  175.7680  134.6030 C   0  0  0  0  0  2  0  0  0  0  0  0
  191.6680  176.3750  134.7410 C   0  0  0  0  0  2  0  0  0  0  0  0
  194.2990  172.8130  135.4540 C   0  0  0  0  0  2  0  0  0  0  0  0
  194.1050  170.4680  135.9790 O   0  0  0  0  0  0  0  0  0  0  0  0
  191.8690  173.1530  135.7440 C   0  0  2  0  0  3  0  0  0  0  0  0
  192.2060  171.7950  135.9570 O   0  0  0  0  0  0  0  0  0  0  0  0
  193.5600  171.5880  135.8070 C   0  0  0  0  0  0  0  0  0  0  0  0
  193.1740  173.8340  135.2340 C   0  0  1  0  0  3  0  0  0  0  0  0
  191.1810  175.2650  136.9220 C   0  0  2  0  0  3  0  0  0  0  0  0
  191.3970  173.7600  137.0650 C   0  0  0  0  0  2  0  0  0  0  0  0
  193.4630  175.1020  135.9430 N   0  0  0  0  0  0  0  0  0  0  0  0
  192.2650  175.9550  136.0820 C   0  0  1  0  0  3  0  0  0  0  0  0
  189.7500  176.1210  138.7850 C   0  0  0  0  0  3  0  0  0  0  0  0
  190.7020  177.2070  140.7410 C   0  0  0  0  0  0  0  0  0  0  0  0
  192.1530  176.3760  138.9740 C   0  0  0  0  0  3  0  0  0  0  0  0
  191.9870  177.0110  140.2100 C   0  0  0  0  0  3  0  0  0  0  0  0
  189.5850  176.7570  140.0200 C   0  0  0  0  0  3  0  0  0  0  0  0
  191.0340  175.9250  138.2570 C   0  0  0  0  0  0  0  0  0  0  0  0
  190.5230  177.8760  142.0400 C   0  0  0  0  0  0  0  0  0  0  0  0
  191.5140  178.0910  142.7910 O   0  0  0  0  0  1  0  0  0  0  0  0
  189.2550  178.2840  142.4510 O   0  0  0  0  0  0  0  0  0  0  0  0
  194.5910  175.8840  135.3940 C   0  0  1  0  0  3  0  0  0  0  0  0
  194.4630  177.3570  135.7450 C   0  0  0  0  0  1  0  0  0  0  0  0
  196.3350  175.2180  136.8500 O   0  0  0  0  0  0  0  0  0  0  0  0
  196.9150  174.9530  134.5940 C   0  0  0  0  0  1  0  0  0  0  0  0
  195.9710  175.3360  135.6890 C   0  0  0  0  0  0  0  0  0  0  0  0
  185.4570  176.6220  135.8360 C   0  0  0  0  0  2  0  0  0  0  0  0
  185.2430  175.6070  136.9520 C   0  0  0  0  0  2  0  0  0  0  0  0
  184.2040  174.5900  136.5120 C   0  0  0  0  0  2  0  0  0  0  0  0
  183.1560  174.3790  137.6020 C   0  0  0  0  0  2  0  0  0  0  0  0
  181.7660  174.7760  137.1170 C   0  0  0  0  0  2  0  0  0  0  0  0
  181.1620  175.6140  139.7760 O   0  0  0  0  0  0  0  0  0  0  0  0
  181.1050  176.4790  138.8610 C   0  0  0  0  0  0  0  0  0  0  0  0
  181.4730  176.1410  137.5250 N   0  0  0  0  0  2  0  0  0  0  0  0
  183.2150  178.8410  139.4160 S   0  0  0  0  0  0  0  0  0  0  0  0
  181.5700  180.4820  137.9760 C   0  0  2  0  0  3  0  0  0  0  0  0
  181.4940  178.8160  139.9650 C   0  0  1  0  0  0  0  0  0  0  0  0
  179.3220  177.7540  139.7810 O   0  0  0  0  0  0  0  0  0  0  0  0
  180.7120  181.7480  138.0310 C   0  0  0  0  0  2  0  0  0  0  0  0
  183.5850  178.4830  138.0030 O   0  0  0  0  0  0  0  0  0  0  0  0
  179.1240  179.7890  138.5440 C   0  0  0  0  0  2  0  0  0  0  0  0
  184.3410  179.3010  140.3010 O   0  0  0  0  0  0  0  0  0  0  0  0
  180.0980  180.4500  137.5800 C   0  0  2  0  0  0  0  0  0  0  0  0
  180.5900  177.8520  139.1610 C   0  0  2  0  0  0  0  0  0  0  0  0
  181.4050  178.7540  141.4800 C   0  0  0  0  0  1  0  0  0  0  0  0
  179.3290  178.2830  138.4810 C   0  0  1  0  0  3  0  0  0  0  0  0
  181.9220  180.1230  139.4260 C   0  0  1  0  0  3  0  0  0  0  0  0
  180.8000  179.6030  135.4520 O   0  0  0  0  0  1  0  0  0  0  0  0
  179.8250  180.3870  136.0840 C   0  0  0  0  0  2  0  0  0  0  0  0
  1  4  1  0  0  0  0
  2 33  1  0  0  0  0
  2  6  1  0  0  0  0
  3  2  2  0  0  0  0
  4  6  2  0  0  0  0
  5  3  1  0  0  0  0
  5  1  2  0  0  0  0
  7  8  1  0  0  0  0
  7  5  1  0  0  0  0
  9 13  1  0  0  0  0
 11 12  1  0  0  0  0
 11 16  1  1  0  0  0
 13 12  1  0  0  0  0
 13 10  2  0  0  0  0
 14  9  1  1  0  0  0
 14 11  1  0  0  0  0
 14 17  1  0  0  0  0
 15 16  1  0  0  0  0
 15 24  1  1  0  0  0
 17 18  1  0  0  0  0
 18  8  1  6  0  0  0
 18 15  1  0  0  0  0
 19 23  1  0  0  0  0
 20 25  1  0  0  0  0
 21 22  2  0  0  0  0
 22 20  1  0  0  0  0
 23 20  2  0  0  0  0
 24 19  2  0  0  0  0
 24 21  1  0  0  0  0
 25 27  2  0  0  0  0
 25 26  1  0  0  0  0
 28 32  1  0  0  0  0
 28 29  1  1  0  0  0
 28 17  1  0  0  0  0
 31 32  1  0  0  0  0
 32 30  2  0  0  0  0
 33 34  1  0  0  0  0
 35 34  1  0  0  0  0
 35 36  1  0  0  0  0
 37 40  1  0  0  0  0
 37 36  1  0  0  0  0
 39 38  2  0  0  0  0
 40 39  1  0  0  0  0
 41 43  1  0  0  0  0
 41 48  2  0  0  0  0
 42 45  1  1  0  0  0
 42 53  1  0  0  0  0
 43 51  1  1  0  0  0
 46 41  2  0  0  0  0
 49 55  1  6  0  0  0
 49 42  1  0  0  0  0
 49 45  1  0  0  0  0
 49 47  1  0  0  0  0
 50 39  1  6  0  0  0
 50 44  1  0  0  0  0
 50 43  1  0  0  0  0
 52 47  1  1  0  0  0
 52 50  1  0  0  0  0
 52 44  1  0  0  0  0
 53 41  1  6  0  0  0
 53 43  1  0  0  0  0
 54 55  1  0  0  0  0
M  END
>  <MODEL>
9

>  <REMARK>
 VINA RESULT:      -4.3      2.616      5.849
  Name = 
  15 active torsions:
  status: ('A' for Active; 'I' for Inactive)
    1  A    between atoms: C_2  and  C_28
    2  A    between atoms: C_2  and  C_44
    3  A    between atoms: C_8  and  N_22
    4  A    between atoms: C_8  and  C_35
    5  A    between atoms: C_10  and  C_32
    6  A    between atoms: C_19  and  C_40
    7  A    between atoms: C_19  and  N_45
    8  A    between atoms: C_20  and  C_42
    9  A    between atoms: C_25  and  C_38
   10  A    between atoms: C_27  and  C_54
   11  A    between atoms: C_28  and  C_49
   12  A    between atoms: C_33  and  C_52
   13  A    between atoms: C_35  and  C_43
   14  A    between atoms: C_43  and  C_51
   15  A    between atoms: C_51  and  C_54
                            x       y       z     vdW  Elec       q    Type
                         _______ _______ _______ _____ _____    ______ ____

>  <TORSDO>
F 15

$$$$
