=
 OpenBabel11052417033D

 32 36  0  0  1  0  0  0  0  0999 V2000
  187.7710  177.8330  143.8170 C   0  0  0  0  0  0  0  0  0  0  0  0
  184.1890  178.7740  140.3740 C   0  0  0  0  0  0  0  0  0  0  0  0
  183.6490  178.0780  138.0040 C   0  0  0  0  0  0  0  0  0  0  0  0
  182.6750  178.0070  136.9080 C   0  0  0  0  0  0  0  0  0  0  0  0
  186.3120  178.5540  141.5290 C   0  0  0  0  0  0  0  0  0  0  0  0
  184.2510  177.9430  142.6600 C   0  0  0  0  0  3  0  0  0  0  0  0
  180.8080  177.9940  134.8240 C   0  0  0  0  0  3  0  0  0  0  0  0
  186.3710  177.7050  143.8050 C   0  0  0  0  0  3  0  0  0  0  0  0
  183.5150  178.2980  141.5220 C   0  0  0  0  0  0  0  0  0  0  0  0
  182.0110  178.2390  141.5820 C   0  0  2  0  0  3  0  0  0  0  0  0
  182.0000  179.3590  139.3830 N   0  0  2  0  0  0  0  0  0  0  0  0
  181.9680  177.2200  134.7270 C   0  0  0  0  0  3  0  0  0  0  0  0
  188.4280  178.3210  142.6810 C   0  0  0  0  0  3  0  0  0  0  0  0
  185.6410  178.0610  142.6690 C   0  0  0  0  0  0  0  0  0  0  0  0
  182.9040  177.2270  135.7670 C   0  0  0  0  0  3  0  0  0  0  0  0
  187.7030  178.6810  141.5410 C   0  0  0  0  0  3  0  0  0  0  0  0
  181.3700  178.3000  140.1940 C   0  0  1  0  0  3  0  0  0  0  0  0
  181.2650  179.5390  138.1900 N   0  0  0  0  0  2  0  0  0  0  0  0
  185.5840  178.9030  140.3910 C   0  0  0  0  0  3  0  0  0  0  0  0
  184.6830  177.3550  137.9820 O   0  0  0  0  0  0  0  0  0  0  0  0
  180.5760  178.7700  135.9640 C   0  0  0  0  0  3  0  0  0  0  0  0
  183.4340  179.0990  139.1060 C   0  0  1  0  0  3  0  0  0  0  0  0
  181.5050  178.7670  137.0090 C   0  0  0  0  0  0  0  0  0  0  0  0
  181.0780  180.1950  143.0660 N   0  0  0  0  0  0  0  0  0  0  0  0
  181.4900  179.3330  142.4120 C   0  0  0  0  0  0  0  0  0  0  0  0
  180.3400  176.3420  140.0530 C   0  0  0  0  0  1  0  0  0  0  0  0
  181.4440  177.0470  139.5720 O   0  0  0  0  0  0  0  0  0  0  0  0
  188.0640  177.4480  146.1680 C   0  0  0  0  0  3  0  0  0  0  0  0
  188.5480  177.4760  144.9660 N   0  0  0  0  0  0  0  0  0  0  0  0
  188.9260  177.0700  147.3210 C   0  0  0  0  0  3  0  0  0  0  0  0
  188.8990  178.1780  148.3520 C   0  0  0  0  0  1  0  0  0  0  0  0
  190.3540  176.8540  146.8570 C   0  0  0  0  0  1  0  0  0  0  0  0
  1 29  1  0  0  0  0
  2 19  2  0  0  0  0
  2  9  1  0  0  0  0
  4 23  1  0  0  0  0
  4  3  1  0  0  0  0
  5 16  2  0  0  0  0
  5 14  1  0  0  0  0
  6 14  1  0  0  0  0
  7 21  1  0  0  0  0
  8  1  1  0  0  0  0
  9 10  1  0  0  0  0
  9  6  2  0  0  0  0
 10 25  1  1  0  0  0
 11 18  1  6  0  0  0
 11 17  1  0  0  0  0
 12  7  2  0  0  0  0
 12 15  1  0  0  0  0
 13  1  2  0  0  0  0
 14  8  2  0  0  0  0
 15  4  2  0  0  0  0
 16 13  1  0  0  0  0
 17 27  1  6  0  0  0
 17 10  1  0  0  0  0
 19  5  1  0  0  0  0
 20  3  2  0  0  0  0
 21 23  2  0  0  0  0
 22  3  1  6  0  0  0
 22 11  1  0  0  0  0
 22  2  1  0  0  0  0
 23 18  1  0  0  0  0
 25 24  3  0  0  0  0
 27 26  1  0  0  0  0
 28 30  1  0  0  0  0
 29 28  2  0  0  0  0
 30 31  1  0  0  0  0
 32 30  1  0  0  0  0
M  END
>  <MODEL>
1

>  <REMARK>
 VINA RESULT:      -7.7      0.000      0.000
  Name = 
  4 active torsions:
  status: ('A' for Active; 'I' for Inactive)
    1  A    between atoms: C_1  and  C_10
    2  A    between atoms: C_2  and  N_24
    3  A    between atoms: C_13  and  C_15
    4  A    between atoms: O_25  and  C_26
                            x       y       z     vdW  Elec       q    Type
                         _______ _______ _______ _____ _____    ______ ____

>  <TORSDO>
F 4

$$$$
=
 OpenBabel11052417033D

 32 36  0  0  1  0  0  0  0  0999 V2000
  189.8470  177.7040  143.3690 C   0  0  0  0  0  0  0  0  0  0  0  0
  192.0950  176.7580  138.9390 C   0  0  0  0  0  0  0  0  0  0  0  0
  194.1540  175.5490  138.1120 C   0  0  0  0  0  0  0  0  0  0  0  0
  194.9020  174.9650  136.9910 C   0  0  0  0  0  0  0  0  0  0  0  0
  191.6230  177.4890  141.2050 C   0  0  0  0  0  0  0  0  0  0  0  0
  189.8950  176.3790  139.9080 C   0  0  0  0  0  3  0  0  0  0  0  0
  196.3230  173.9610  134.8000 C   0  0  0  0  0  3  0  0  0  0  0  0
  189.4310  177.0900  142.1750 C   0  0  0  0  0  3  0  0  0  0  0  0
  190.7750  176.2650  138.8230 C   0  0  0  0  0  0  0  0  0  0  0  0
  190.2620  175.6890  137.5300 C   0  0  2  0  0  3  0  0  0  0  0  0
  192.4090  176.3670  136.5180 N   0  0  2  0  0  0  0  0  0  0  0  0
  196.7270  173.6420  136.1000 C   0  0  0  0  0  3  0  0  0  0  0  0
  191.1510  178.2050  143.4690 C   0  0  0  0  0  3  0  0  0  0  0  0
  190.3110  176.9800  141.0960 C   0  0  0  0  0  0  0  0  0  0  0  0
  196.0190  174.1440  137.1970 C   0  0  0  0  0  3  0  0  0  0  0  0
  192.0370  178.0990  142.3920 C   0  0  0  0  0  3  0  0  0  0  0  0
  191.3940  175.2980  136.5770 C   0  0  1  0  0  3  0  0  0  0  0  0
  193.3320  176.0840  135.4870 N   0  0  0  0  0  2  0  0  0  0  0  0
  192.5050  177.3730  140.1300 C   0  0  0  0  0  3  0  0  0  0  0  0
  194.4510  175.2440  139.3000 O   0  0  0  0  0  0  0  0  0  0  0  0
  195.2070  174.7770  134.5940 C   0  0  0  0  0  3  0  0  0  0  0  0
  193.0910  176.5890  137.8160 C   0  0  1  0  0  3  0  0  0  0  0  0
  194.4910  175.2690  135.6880 C   0  0  0  0  0  0  0  0  0  0  0  0
  188.6660  177.4010  136.3380 N   0  0  0  0  0  0  0  0  0  0  0  0
  189.3690  176.6470  136.8630 C   0  0  0  0  0  0  0  0  0  0  0  0
  191.4180  173.1420  136.0650 C   0  0  0  0  0  1  0  0  0  0  0  0
  191.9470  174.0700  136.9620 O   0  0  0  0  0  0  0  0  0  0  0  0
  187.7880  177.3000  144.5340 C   0  0  0  0  0  3  0  0  0  0  0  0
  188.9700  177.8320  144.4940 N   0  0  0  0  0  0  0  0  0  0  0  0
  186.9230  177.4720  145.7340 C   0  0  0  0  0  3  0  0  0  0  0  0
  185.9250  178.5800  145.4760 C   0  0  0  0  0  1  0  0  0  0  0  0
  187.7680  177.8310  146.9400 C   0  0  0  0  0  1  0  0  0  0  0  0
  1 13  1  0  0  0  0
  1 29  1  0  0  0  0
  2 19  1  0  0  0  0
  3 20  2  0  0  0  0
  4 15  1  0  0  0  0
  4  3  1  0  0  0  0
  5 16  1  0  0  0  0
  6 14  2  0  0  0  0
  7 12  1  0  0  0  0
  8  1  2  0  0  0  0
  9  2  2  0  0  0  0
  9  6  1  0  0  0  0
 10 25  1  6  0  0  0
 10  9  1  0  0  0  0
 11 18  1  6  0  0  0
 11 17  1  0  0  0  0
 11 22  1  0  0  0  0
 12 15  2  0  0  0  0
 14  5  1  0  0  0  0
 14  8  1  0  0  0  0
 16 13  2  0  0  0  0
 17 27  1  1  0  0  0
 17 10  1  0  0  0  0
 18 23  1  0  0  0  0
 19  5  2  0  0  0  0
 21  7  2  0  0  0  0
 21 23  1  0  0  0  0
 22  3  1  1  0  0  0
 22  2  1  0  0  0  0
 23  4  2  0  0  0  0
 24 25  3  0  0  0  0
 26 27  1  0  0  0  0
 28 30  1  0  0  0  0
 29 28  2  0  0  0  0
 30 32  1  0  0  0  0
 31 30  1  0  0  0  0
M  END
>  <MODEL>
2

>  <REMARK>
 VINA RESULT:      -6.9      6.942      9.544
  Name = 
  4 active torsions:
  status: ('A' for Active; 'I' for Inactive)
    1  A    between atoms: C_1  and  C_10
    2  A    between atoms: C_2  and  N_24
    3  A    between atoms: C_13  and  C_15
    4  A    between atoms: O_25  and  C_26
                            x       y       z     vdW  Elec       q    Type
                         _______ _______ _______ _____ _____    ______ ____

>  <TORSDO>
F 4

$$$$
=
 OpenBabel11052417033D

 32 36  0  0  1  0  0  0  0  0999 V2000
  190.0600  178.1160  144.4290 C   0  0  0  0  0  0  0  0  0  0  0  0
  191.1900  177.1350  139.5990 C   0  0  0  0  0  0  0  0  0  0  0  0
  192.9930  175.9140  138.3150 C   0  0  0  0  0  0  0  0  0  0  0  0
  193.4520  175.3210  137.0530 C   0  0  0  0  0  0  0  0  0  0  0  0
  191.2710  177.8810  141.9070 C   0  0  0  0  0  0  0  0  0  0  0  0
  189.2820  176.7690  141.0650 C   0  0  0  0  0  3  0  0  0  0  0  0
  194.3110  174.2990  134.5940 C   0  0  0  0  0  3  0  0  0  0  0  0
  189.3710  177.4950  143.3720 C   0  0  0  0  0  3  0  0  0  0  0  0
  189.8800  176.6450  139.8030 C   0  0  0  0  0  0  0  0  0  0  0  0
  189.0730  176.0630  138.6720 C   0  0  2  0  0  3  0  0  0  0  0  0
  190.9190  176.7280  137.1750 N   0  0  2  0  0  0  0  0  0  0  0  0
  195.0110  173.9860  135.7630 C   0  0  0  0  0  3  0  0  0  0  0  0
  191.3500  178.6130  144.2130 C   0  0  0  0  0  3  0  0  0  0  0  0
  189.9700  177.3760  142.1160 C   0  0  0  0  0  0  0  0  0  0  0  0
  194.5840  174.4980  136.9930 C   0  0  0  0  0  3  0  0  0  0  0  0
  191.9550  178.4970  142.9570 C   0  0  0  0  0  3  0  0  0  0  0  0
  189.9460  175.6620  137.4800 C   0  0  1  0  0  3  0  0  0  0  0  0
  191.5710  176.4350  135.9560 N   0  0  0  0  0  2  0  0  0  0  0  0
  191.8720  177.7560  140.6540 C   0  0  0  0  0  3  0  0  0  0  0  0
  193.5620  175.6160  139.4010 O   0  0  0  0  0  0  0  0  0  0  0  0
  193.1780  175.1160  134.6530 C   0  0  0  0  0  3  0  0  0  0  0  0
  191.8910  176.9560  138.2730 C   0  0  1  0  0  3  0  0  0  0  0  0
  192.7440  175.6170  135.8830 C   0  0  0  0  0  0  0  0  0  0  0  0
  187.2420  177.7710  137.8820 N   0  0  0  0  0  0  0  0  0  0  0  0
  188.0490  177.0190  138.2300 C   0  0  0  0  0  0  0  0  0  0  0  0
  189.8440  173.5020  136.9930 C   0  0  0  0  0  1  0  0  0  0  0  0
  190.5730  174.4350  137.7320 O   0  0  0  0  0  0  0  0  0  0  0  0
  188.3110  177.7720  146.0370 C   0  0  0  0  0  3  0  0  0  0  0  0
  189.4740  178.2540  145.7290 N   0  0  0  0  0  0  0  0  0  0  0  0
  187.7570  177.9520  147.4070 C   0  0  0  0  0  3  0  0  0  0  0  0
  187.6550  176.6040  148.0860 C   0  0  0  0  0  1  0  0  0  0  0  0
  186.3790  178.5810  147.3340 C   0  0  0  0  0  1  0  0  0  0  0  0
  1 29  1  0  0  0  0
  2  9  2  0  0  0  0
  2 19  1  0  0  0  0
  3 20  2  0  0  0  0
  4  3  1  0  0  0  0
  5 14  1  0  0  0  0
  5 16  1  0  0  0  0
  6 14  2  0  0  0  0
  7 21  2  0  0  0  0
  7 12  1  0  0  0  0
  8  1  2  0  0  0  0
  9  6  1  0  0  0  0
 10 25  1  6  0  0  0
 10  9  1  0  0  0  0
 11 18  1  6  0  0  0
 11 17  1  0  0  0  0
 11 22  1  0  0  0  0
 12 15  2  0  0  0  0
 13  1  1  0  0  0  0
 14  8  1  0  0  0  0
 15  4  1  0  0  0  0
 16 13  2  0  0  0  0
 17 27  1  1  0  0  0
 17 10  1  0  0  0  0
 19  5  2  0  0  0  0
 21 23  1  0  0  0  0
 22  3  1  1  0  0  0
 22  2  1  0  0  0  0
 23 18  1  0  0  0  0
 23  4  2  0  0  0  0
 24 25  3  0  0  0  0
 26 27  1  0  0  0  0
 28 30  1  0  0  0  0
 29 28  2  0  0  0  0
 30 31  1  0  0  0  0
 32 30  1  0  0  0  0
M  END
>  <MODEL>
3

>  <REMARK>
 VINA RESULT:      -5.6      5.975      8.289
  Name = 
  4 active torsions:
  status: ('A' for Active; 'I' for Inactive)
    1  A    between atoms: C_1  and  C_10
    2  A    between atoms: C_2  and  N_24
    3  A    between atoms: C_13  and  C_15
    4  A    between atoms: O_25  and  C_26
                            x       y       z     vdW  Elec       q    Type
                         _______ _______ _______ _____ _____    ______ ____

>  <TORSDO>
F 4

$$$$
=
 OpenBabel11052417033D

 32 36  0  0  1  0  0  0  0  0999 V2000
  189.8150  177.1950  137.9540 C   0  0  0  0  0  0  0  0  0  0  0  0
  184.8400  177.8280  138.6030 C   0  0  0  0  0  0  0  0  0  0  0  0
  183.2170  179.7530  138.8290 C   0  0  0  0  0  0  0  0  0  0  0  0
  181.8300  180.2330  138.8150 C   0  0  0  0  0  0  0  0  0  0  0  0
  187.2520  177.8940  138.8630 C   0  0  0  0  0  0  0  0  0  0  0  0
  186.2700  176.6900  136.9960 C   0  0  0  0  0  3  0  0  0  0  0  0
  179.1600  181.0690  138.8780 C   0  0  0  0  0  3  0  0  0  0  0  0
  188.6760  176.7730  137.2450 C   0  0  0  0  0  3  0  0  0  0  0  0
  184.9870  177.0360  137.4410 C   0  0  0  0  0  0  0  0  0  0  0  0
  183.7910  176.4830  136.7110 C   0  0  2  0  0  3  0  0  0  0  0  0
  182.4050  177.4050  138.5330 N   0  0  2  0  0  0  0  0  0  0  0  0
  180.1870  182.0160  138.8150 C   0  0  0  0  0  3  0  0  0  0  0  0
  189.6590  177.9650  139.1120 C   0  0  0  0  0  3  0  0  0  0  0  0
  187.4000  177.1180  137.6940 C   0  0  0  0  0  0  0  0  0  0  0  0
  181.5230  181.6000  138.7850 C   0  0  0  0  0  3  0  0  0  0  0  0
  188.3830  178.3140  139.5670 C   0  0  0  0  0  3  0  0  0  0  0  0
  182.4970  177.2160  137.0720 C   0  0  1  0  0  3  0  0  0  0  0  0
  181.1210  177.8940  138.8630 N   0  0  0  0  0  2  0  0  0  0  0  0
  185.9770  178.2450  139.3080 C   0  0  0  0  0  3  0  0  0  0  0  0
  184.1730  180.5700  138.7180 O   0  0  0  0  0  0  0  0  0  0  0  0
  179.4660  179.7040  138.9050 C   0  0  0  0  0  3  0  0  0  0  0  0
  183.4760  178.2780  139.0720 C   0  0  1  0  0  3  0  0  0  0  0  0
  180.7990  179.2880  138.8620 C   0  0  0  0  0  0  0  0  0  0  0  0
  183.5170  173.9210  137.2190 N   0  0  0  0  0  0  0  0  0  0  0  0
  183.6380  175.0500  136.9950 C   0  0  0  0  0  0  0  0  0  0  0  0
  181.5600  178.1800  135.3110 C   0  0  0  0  0  1  0  0  0  0  0  0
  182.4220  178.4310  136.3790 O   0  0  0  0  0  0  0  0  0  0  0  0
  191.9110  176.0460  138.1690 C   0  0  0  0  0  3  0  0  0  0  0  0
  191.1380  176.8580  137.5200 N   0  0  0  0  0  0  0  0  0  0  0  0
  193.2780  175.7380  137.6660 C   0  0  0  0  0  3  0  0  0  0  0  0
  193.4480  176.3330  136.2850 C   0  0  0  0  0  1  0  0  0  0  0  0
  193.4820  174.2370  137.5940 C   0  0  0  0  0  1  0  0  0  0  0  0
  1 13  1  0  0  0  0
  2 19  1  0  0  0  0
  3 22  1  0  0  0  0
  4  3  1  0  0  0  0
  4 23  1  0  0  0  0
  5 19  2  0  0  0  0
  5 16  1  0  0  0  0
  6  9  1  0  0  0  0
  6 14  2  0  0  0  0
  7 21  1  0  0  0  0
  8 14  1  0  0  0  0
  8  1  2  0  0  0  0
  9  2  2  0  0  0  0
 10 25  1  1  0  0  0
 10 17  1  0  0  0  0
 10  9  1  0  0  0  0
 11 18  1  6  0  0  0
 11 22  1  0  0  0  0
 12  7  2  0  0  0  0
 13 16  2  0  0  0  0
 14  5  1  0  0  0  0
 15 12  1  0  0  0  0
 15  4  2  0  0  0  0
 17 27  1  6  0  0  0
 17 11  1  0  0  0  0
 20  3  2  0  0  0  0
 22  2  1  6  0  0  0
 23 18  1  0  0  0  0
 23 21  2  0  0  0  0
 25 24  3  0  0  0  0
 26 27  1  0  0  0  0
 29  1  1  0  0  0  0
 29 28  2  0  0  0  0
 30 28  1  0  0  0  0
 31 30  1  0  0  0  0
 32 30  1  0  0  0  0
M  END
>  <MODEL>
4

>  <REMARK>
 VINA RESULT:      -5.5      3.999      5.867
  Name = 
  4 active torsions:
  status: ('A' for Active; 'I' for Inactive)
    1  A    between atoms: C_1  and  C_10
    2  A    between atoms: C_2  and  N_24
    3  A    between atoms: C_13  and  C_15
    4  A    between atoms: O_25  and  C_26
                            x       y       z     vdW  Elec       q    Type
                         _______ _______ _______ _____ _____    ______ ____

>  <TORSDO>
F 4

$$$$
=
 OpenBabel11052417033D

 32 36  0  0  1  0  0  0  0  0999 V2000
  181.9120  178.1890  140.0330 C   0  0  0  0  0  0  0  0  0  0  0  0
  185.7150  176.6960  137.0530 C   0  0  0  0  0  0  0  0  0  0  0  0
  188.2420  176.6910  137.1140 C   0  0  0  0  0  0  0  0  0  0  0  0
  189.5100  176.1930  136.5670 C   0  0  0  0  0  0  0  0  0  0  0  0
  184.2090  178.0120  138.4280 C   0  0  0  0  0  0  0  0  0  0  0  0
  183.7600  175.6540  138.0600 C   0  0  0  0  0  3  0  0  0  0  0  0
  191.8920  175.2840  135.4140 C   0  0  0  0  0  3  0  0  0  0  0  0
  182.2690  176.9620  139.4470 C   0  0  0  0  0  3  0  0  0  0  0  0
  184.9070  175.5550  137.2590 C   0  0  0  0  0  0  0  0  0  0  0  0
  185.2010  174.2490  136.5700 C   0  0  2  0  0  3  0  0  0  0  0  0
  186.9890  175.4350  135.3510 N   0  0  2  0  0  0  0  0  0  0  0  0
  191.9200  175.9460  136.6450 C   0  0  0  0  0  3  0  0  0  0  0  0
  182.7100  179.3170  139.8100 C   0  0  0  0  0  3  0  0  0  0  0  0
  183.4110  176.8690  138.6490 C   0  0  0  0  0  0  0  0  0  0  0  0
  190.7300  176.4030  137.2220 C   0  0  0  0  0  3  0  0  0  0  0  0
  183.8540  179.2310  139.0110 C   0  0  0  0  0  3  0  0  0  0  0  0
  186.6360  174.1800  136.0410 C   0  0  1  0  0  3  0  0  0  0  0  0
  188.2300  175.2770  134.6950 N   0  0  0  0  0  2  0  0  0  0  0  0
  185.3540  177.9190  137.6370 C   0  0  0  0  0  3  0  0  0  0  0  0
  188.2150  177.2470  138.2470 O   0  0  0  0  0  0  0  0  0  0  0  0
  190.6740  175.0690  134.7610 C   0  0  0  0  0  3  0  0  0  0  0  0
  186.9940  176.6110  136.2550 C   0  0  1  0  0  3  0  0  0  0  0  0
  189.4850  175.5140  135.3430 C   0  0  0  0  0  0  0  0  0  0  0  0
  183.5160  173.8600  134.5940 N   0  0  0  0  0  0  0  0  0  0  0  0
  184.2590  174.0310  135.4640 C   0  0  0  0  0  0  0  0  0  0  0  0
  187.6660  172.5000  137.0540 C   0  0  0  0  0  1  0  0  0  0  0  0
  187.5220  173.8870  137.0850 O   0  0  0  0  0  0  0  0  0  0  0  0
  180.7980  178.6580  142.1070 C   0  0  0  0  0  3  0  0  0  0  0  0
  180.7480  178.3170  140.8570 N   0  0  0  0  0  0  0  0  0  0  0  0
  179.5500  178.7710  142.9100 C   0  0  0  0  0  3  0  0  0  0  0  0
  179.0480  180.1970  142.8570 C   0  0  0  0  0  1  0  0  0  0  0  0
  179.8220  178.3900  144.3530 C   0  0  0  0  0  1  0  0  0  0  0  0
  1 29  1  0  0  0  0
  2  9  2  0  0  0  0
  2 19  1  0  0  0  0
  3 20  2  0  0  0  0
  4  3  1  0  0  0  0
  4 15  1  0  0  0  0
  5 14  1  0  0  0  0
  5 16  1  0  0  0  0
  6 14  2  0  0  0  0
  7 12  1  0  0  0  0
  8  1  2  0  0  0  0
  9  6  1  0  0  0  0
 10 25  1  6  0  0  0
 10  9  1  0  0  0  0
 11 18  1  1  0  0  0
 11 17  1  0  0  0  0
 11 22  1  0  0  0  0
 12 15  2  0  0  0  0
 13  1  1  0  0  0  0
 14  8  1  0  0  0  0
 16 13  2  0  0  0  0
 17 10  1  0  0  0  0
 17 27  1  1  0  0  0
 18 23  1  0  0  0  0
 19  5  2  0  0  0  0
 21 23  1  0  0  0  0
 21  7  2  0  0  0  0
 22  2  1  1  0  0  0
 22  3  1  0  0  0  0
 23  4  2  0  0  0  0
 24 25  3  0  0  0  0
 26 27  1  0  0  0  0
 28 30  1  0  0  0  0
 29 28  2  0  0  0  0
 30 32  1  0  0  0  0
 31 30  1  0  0  0  0
M  END
>  <MODEL>
5

>  <REMARK>
 VINA RESULT:      -5.3      4.958      7.834
  Name = 
  4 active torsions:
  status: ('A' for Active; 'I' for Inactive)
    1  A    between atoms: C_1  and  C_10
    2  A    between atoms: C_2  and  N_24
    3  A    between atoms: C_13  and  C_15
    4  A    between atoms: O_25  and  C_26
                            x       y       z     vdW  Elec       q    Type
                         _______ _______ _______ _____ _____    ______ ____

>  <TORSDO>
F 4

$$$$
=
 OpenBabel11052417033D

 32 36  0  0  1  0  0  0  0  0999 V2000
  184.9860  178.4240  144.0350 C   0  0  0  0  0  0  0  0  0  0  0  0
  181.8650  178.7440  140.0690 C   0  0  0  0  0  0  0  0  0  0  0  0
  181.0730  180.5220  138.4560 C   0  0  0  0  0  0  0  0  0  0  0  0
  180.4070  180.8640  137.1940 C   0  0  0  0  0  0  0  0  0  0  0  0
  182.9500  179.0760  142.2140 C   0  0  0  0  0  0  0  0  0  0  0  0
  183.8120  177.4130  140.6680 C   0  0  0  0  0  3  0  0  0  0  0  0
  179.0380  181.4560  134.8260 C   0  0  0  0  0  3  0  0  0  0  0  0
  184.9070  177.7590  142.7990 C   0  0  0  0  0  3  0  0  0  0  0  0
  182.8010  177.7340  139.7510 C   0  0  0  0  0  0  0  0  0  0  0  0
  182.6910  176.9320  138.4820 C   0  0  2  0  0  3  0  0  0  0  0  0
  180.5580  178.1050  138.0700 N   0  0  2  0  0  0  0  0  0  0  0  0
  179.7720  182.4530  135.4750 C   0  0  0  0  0  3  0  0  0  0  0  0
  184.0440  179.4120  144.3480 C   0  0  0  0  0  3  0  0  0  0  0  0
  183.8960  178.0810  141.8900 C   0  0  0  0  0  0  0  0  0  0  0  0
  180.4560  182.1590  136.6600 C   0  0  0  0  0  3  0  0  0  0  0  0
  183.0290  179.7380  143.4420 C   0  0  0  0  0  3  0  0  0  0  0  0
  181.7980  177.6100  137.4400 C   0  0  1  0  0  3  0  0  0  0  0  0
  179.6620  178.5390  137.0670 N   0  0  0  0  0  2  0  0  0  0  0  0
  181.9450  179.4030  141.3040 C   0  0  0  0  0  3  0  0  0  0  0  0
  181.7900  181.3760  139.0470 O   0  0  0  0  0  0  0  0  0  0  0  0
  178.9910  180.1620  135.3550 C   0  0  0  0  0  3  0  0  0  0  0  0
  180.8050  179.1640  139.0780 C   0  0  1  0  0  3  0  0  0  0  0  0
  179.6840  179.8660  136.5320 C   0  0  0  0  0  0  0  0  0  0  0  0
  181.7680  174.5280  138.9980 N   0  0  0  0  0  0  0  0  0  0  0  0
  182.1740  175.5870  138.7700 C   0  0  0  0  0  0  0  0  0  0  0  0
  182.8940  178.0810  135.5730 C   0  0  0  0  0  1  0  0  0  0  0  0
  182.5020  178.6330  136.7930 O   0  0  0  0  0  0  0  0  0  0  0  0
  187.1080  177.5060  144.6760 C   0  0  0  0  0  3  0  0  0  0  0  0
  186.0100  178.1180  144.9890 N   0  0  0  0  0  0  0  0  0  0  0  0
  188.1340  177.2150  145.7160 C   0  0  0  0  0  3  0  0  0  0  0  0
  187.6790  177.7850  147.0410 C   0  0  0  0  0  1  0  0  0  0  0  0
  189.4600  177.8410  145.3300 C   0  0  0  0  0  1  0  0  0  0  0  0
  1 13  1  0  0  0  0
  1 29  1  0  0  0  0
  2 19  1  0  0  0  0
  3 20  2  0  0  0  0
  4  3  1  0  0  0  0
  5 16  1  0  0  0  0
  6 14  2  0  0  0  0
  7 21  2  0  0  0  0
  7 12  1  0  0  0  0
  8  1  2  0  0  0  0
  9  2  2  0  0  0  0
  9  6  1  0  0  0  0
 10 25  1  1  0  0  0
 10  9  1  0  0  0  0
 11 18  1  6  0  0  0
 11 22  1  0  0  0  0
 12 15  2  0  0  0  0
 14  5  1  0  0  0  0
 14  8  1  0  0  0  0
 15  4  1  0  0  0  0
 16 13  2  0  0  0  0
 17 27  1  1  0  0  0
 17 11  1  0  0  0  0
 17 10  1  0  0  0  0
 19  5  2  0  0  0  0
 21 23  1  0  0  0  0
 22  3  1  6  0  0  0
 22  2  1  0  0  0  0
 23 18  1  0  0  0  0
 23  4  2  0  0  0  0
 25 24  3  0  0  0  0
 26 27  1  0  0  0  0
 28 29  2  0  0  0  0
 28 30  1  0  0  0  0
 30 31  1  0  0  0  0
 32 30  1  0  0  0  0
M  END
>  <MODEL>
6

>  <REMARK>
 VINA RESULT:      -5.1      2.217      3.628
  Name = 
  4 active torsions:
  status: ('A' for Active; 'I' for Inactive)
    1  A    between atoms: C_1  and  C_10
    2  A    between atoms: C_2  and  N_24
    3  A    between atoms: C_13  and  C_15
    4  A    between atoms: O_25  and  C_26
                            x       y       z     vdW  Elec       q    Type
                         _______ _______ _______ _____ _____    ______ ____

>  <TORSDO>
F 4

$$$$
