=
 OpenBabel11052412593D

 31 35  0  0  1  0  0  0  0  0999 V2000
  184.4050  178.7980  144.3730 C   0  0  0  0  0  0  0  0  0  0  0  0
  187.9690  177.8000  143.6580 C   0  0  0  0  0  0  0  0  0  0  0  0
  188.5660  177.3840  144.8740 C   0  0  0  0  0  0  0  0  0  0  0  0
  187.7910  177.5530  147.2160 C   0  0  0  0  0  3  0  0  0  0  0  0
  186.4630  177.7660  143.4380 C   0  0  1  0  0  3  0  0  0  0  0  0
  183.7600  178.8350  143.0040 C   0  0  0  0  0  2  0  0  0  0  0  0
  187.7340  176.7620  145.9540 C   0  0  0  0  0  2  0  0  0  0  0  0
  188.2300  178.4940  141.2200 C   0  0  1  0  0  3  0  0  0  0  0  0
  183.6960  179.2880  145.4610 O   0  0  0  0  0  1  0  0  0  0  0  0
  190.7440  177.8130  143.9210 C   0  0  0  0  0  3  0  0  0  0  0  0
  188.9110  177.7140  147.9170 C   0  0  0  0  0  3  0  0  0  0  0  0
  186.8870  177.9390  141.0460 N   0  0  0  0  0  2  0  0  0  0  0  0
  188.8150  178.1120  142.5660 C   0  0  0  0  0  0  0  0  0  0  0  0
  185.6600  178.3660  144.5600 C   0  0  0  0  0  3  0  0  0  0  0  0
  190.2390  177.2170  147.5120 C   0  0  0  0  0  3  0  0  0  0  0  0
  186.0700  178.4530  142.1330 C   0  0  1  0  0  3  0  0  0  0  0  0
  184.5940  178.1810  141.8930 C   0  0  0  0  0  2  0  0  0  0  0  0
  190.1630  178.1350  142.7400 N   0  0  0  0  0  0  0  0  0  0  0  0
  189.9690  177.4350  145.0150 C   0  0  0  0  0  0  0  0  0  0  0  0
  190.6910  177.0910  146.2580 C   0  0  0  0  0  3  0  0  0  0  0  0
  189.1240  178.0280  140.0760 C   0  0  0  0  0  2  0  0  0  0  0  0
  189.0530  179.0650  137.8320 C   0  0  0  0  0  1  0  0  0  0  0  0
  188.3790  178.0640  138.7510 C   0  0  1  0  0  3  0  0  0  0  0  0
  185.0210  176.3950  136.7060 C   0  0  0  0  0  0  0  0  0  0  0  0
  188.3970  176.7450  138.1350 N   0  0  0  0  0  2  0  0  0  0  0  0
  186.2680  174.3980  136.1950 C   0  0  0  0  0  3  0  0  0  0  0  0
  183.7680  177.1900  136.6300 C   0  0  0  0  0  1  0  0  0  0  0  0
  186.1060  176.8970  137.3540 N   0  0  0  0  0  0  0  0  0  0  0  0
  187.3710  174.9320  136.8650 C   0  0  0  0  0  3  0  0  0  0  0  0
  187.2730  176.1990  137.4450 C   0  0  0  0  0  0  0  0  0  0  0  0
  185.0830  175.1320  136.1130 C   0  0  0  0  0  3  0  0  0  0  0  0
  1 14  2  0  0  0  0
  1  9  1  0  0  0  0
  2  3  1  0  0  0  0
  3 19  2  0  0  0  0
  3  7  1  0  0  0  0
  4 11  2  0  0  0  0
  5  2  1  0  0  0  0
  5 14  1  1  0  0  0
  6  1  1  0  0  0  0
  7  4  1  0  0  0  0
  8 21  1  6  0  0  0
  8 13  1  0  0  0  0
 10 19  1  0  0  0  0
 12  8  1  0  0  0  0
 12 16  1  0  0  0  0
 13 18  1  0  0  0  0
 13  2  2  0  0  0  0
 15 11  1  0  0  0  0
 16 17  1  6  0  0  0
 16  5  1  0  0  0  0
 17  6  1  0  0  0  0
 18 10  2  0  0  0  0
 19 20  1  0  0  0  0
 20 15  2  0  0  0  0
 23 22  1  6  0  0  0
 23 21  1  0  0  0  0
 24 28  1  0  0  0  0
 25 23  1  0  0  0  0
 26 29  2  0  0  0  0
 27 24  1  0  0  0  0
 28 30  2  0  0  0  0
 29 30  1  0  0  0  0
 30 25  1  0  0  0  0
 31 26  1  0  0  0  0
 31 24  2  0  0  0  0
M  END
>  <MODEL>
1

>  <REMARK>
 VINA RESULT:     -10.1      0.000      0.000
  Name = 
  3 active torsions:
  status: ('A' for Active; 'I' for Inactive)
    1  A    between atoms: N_3  and  C_9
    2  A    between atoms: C_9  and  C_23
    3  A    between atoms: C_15  and  C_23
                            x       y       z     vdW  Elec       q    Type
                         _______ _______ _______ _____ _____    ______ ____

>  <TORSDO>
F 3

$$$$
=
 OpenBabel11052412593D

 31 35  0  0  1  0  0  0  0  0999 V2000
  190.0150  176.9460  140.6140 C   0  0  0  0  0  0  0  0  0  0  0  0
  188.3410  177.8330  143.8730 C   0  0  0  0  0  0  0  0  0  0  0  0
  189.2980  177.7050  144.9110 C   0  0  0  0  0  0  0  0  0  0  0  0
  191.5700  176.7320  144.9310 C   0  0  0  0  0  3  0  0  0  0  0  0
  188.7420  178.0750  142.4250 C   0  0  1  0  0  3  0  0  0  0  0  0
  189.0670  177.4850  139.5640 C   0  0  0  0  0  2  0  0  0  0  0  0
  190.7510  177.9440  144.6380 C   0  0  0  0  0  2  0  0  0  0  0  0
  185.9080  178.0900  143.1610 C   0  0  1  0  0  3  0  0  0  0  0  0
  191.0740  176.1450  140.2110 O   0  0  0  0  0  1  0  0  0  0  0  0
  187.4970  177.4840  146.5060 C   0  0  0  0  0  3  0  0  0  0  0  0
  191.6950  176.2240  146.1550 C   0  0  0  0  0  3  0  0  0  0  0  0
  186.4520  178.7830  141.9920 N   0  0  0  0  0  2  0  0  0  0  0  0
  186.9700  177.8850  144.2240 C   0  0  0  0  0  0  0  0  0  0  0  0
  189.8320  177.1670  141.9230 C   0  0  0  0  0  3  0  0  0  0  0  0
  190.9900  176.7210  147.3500 C   0  0  0  0  0  3  0  0  0  0  0  0
  187.5440  177.9680  141.4850 C   0  0  1  0  0  3  0  0  0  0  0  0
  187.9920  178.4360  140.1090 C   0  0  0  0  0  2  0  0  0  0  0  0
  186.5940  177.6820  145.5140 N   0  0  0  0  0  0  0  0  0  0  0  0
  188.8630  177.4860  146.2360 C   0  0  0  0  0  0  0  0  0  0  0  0
  189.7700  177.2720  147.3820 C   0  0  0  0  0  3  0  0  0  0  0  0
  184.7210  178.8750  143.7090 C   0  0  0  0  0  2  0  0  0  0  0  0
  182.2690  178.6800  143.9570 C   0  0  0  0  0  1  0  0  0  0  0  0
  183.4330  178.4800  143.0060 C   0  0  1  0  0  3  0  0  0  0  0  0
  182.7820  176.8500  139.1120 C   0  0  0  0  0  0  0  0  0  0  0  0
  183.2430  179.3030  141.8190 N   0  0  0  0  0  2  0  0  0  0  0  0
  182.6090  179.0580  138.1670 C   0  0  0  0  0  3  0  0  0  0  0  0
  182.7630  175.3720  138.9540 C   0  0  0  0  0  1  0  0  0  0  0  0
  182.9920  177.3990  140.3380 N   0  0  0  0  0  0  0  0  0  0  0  0
  182.8240  179.6030  139.4340 C   0  0  0  0  0  3  0  0  0  0  0  0
  183.0160  178.7490  140.5230 C   0  0  0  0  0  0  0  0  0  0  0  0
  182.5860  177.6730  138.0000 C   0  0  0  0  0  3  0  0  0  0  0  0
  1 14  2  0  0  0  0
  2 13  2  0  0  0  0
  2  3  1  0  0  0  0
  3 19  2  0  0  0  0
  4 11  2  0  0  0  0
  5 14  1  6  0  0  0
  5  2  1  0  0  0  0
  6 17  1  0  0  0  0
  6  1  1  0  0  0  0
  7  3  1  0  0  0  0
  7  4  1  0  0  0  0
  8 21  1  1  0  0  0
  8 13  1  0  0  0  0
  9  1  1  0  0  0  0
 11 15  1  0  0  0  0
 12  8  1  0  0  0  0
 13 18  1  0  0  0  0
 15 20  2  0  0  0  0
 16 17  1  6  0  0  0
 16 12  1  0  0  0  0
 16  5  1  0  0  0  0
 18 10  2  0  0  0  0
 19 10  1  0  0  0  0
 19 20  1  0  0  0  0
 23 21  1  0  0  0  0
 23 22  1  1  0  0  0
 24 28  1  0  0  0  0
 25 23  1  0  0  0  0
 26 29  2  0  0  0  0
 27 24  1  0  0  0  0
 28 30  2  0  0  0  0
 29 30  1  0  0  0  0
 30 25  1  0  0  0  0
 31 26  1  0  0  0  0
 31 24  2  0  0  0  0
M  END
>  <MODEL>
2

>  <REMARK>
 VINA RESULT:     -10.1      2.810      4.833
  Name = 
  3 active torsions:
  status: ('A' for Active; 'I' for Inactive)
    1  A    between atoms: N_3  and  C_9
    2  A    between atoms: C_9  and  C_23
    3  A    between atoms: C_15  and  C_23
                            x       y       z     vdW  Elec       q    Type
                         _______ _______ _______ _____ _____    ______ ____

>  <TORSDO>
F 3

$$$$
=
 OpenBabel11052412593D

 31 35  0  0  1  0  0  0  0  0999 V2000
  185.2280  178.8440  145.9030 C   0  0  0  0  0  0  0  0  0  0  0  0
  186.8870  178.0360  142.6160 C   0  0  0  0  0  0  0  0  0  0  0  0
  188.1560  177.4650  142.8890 C   0  0  0  0  0  0  0  0  0  0  0  0
  189.4500  177.2830  144.9870 C   0  0  0  0  0  3  0  0  0  0  0  0
  185.7470  178.0000  143.6240 C   0  0  1  0  0  3  0  0  0  0  0  0
  183.7770  179.0600  145.5310 C   0  0  0  0  0  2  0  0  0  0  0  0
  188.3810  176.6780  144.1430 C   0  0  0  0  0  2  0  0  0  0  0  0
  185.2710  179.0740  140.9420 C   0  0  1  0  0  3  0  0  0  0  0  0
  185.6430  179.1590  147.1900 O   0  0  0  0  0  1  0  0  0  0  0  0
  188.8760  178.0720  140.6640 C   0  0  0  0  0  3  0  0  0  0  0  0
  190.7190  177.3680  144.5940 C   0  0  0  0  0  3  0  0  0  0  0  0
  184.2210  178.5200  141.7990 N   0  0  0  0  0  2  0  0  0  0  0  0
  186.6330  178.5180  141.3090 C   0  0  0  0  0  0  0  0  0  0  0  0
  186.1370  178.4180  145.0160 C   0  0  0  0  0  3  0  0  0  0  0  0
  191.2200  176.9630  143.2680 C   0  0  0  0  0  3  0  0  0  0  0  0
  184.5680  178.8560  143.1700 C   0  0  1  0  0  3  0  0  0  0  0  0
  183.4090  178.5890  144.1160 C   0  0  0  0  0  2  0  0  0  0  0  0
  187.6360  178.5460  140.3920 N   0  0  0  0  0  0  0  0  0  0  0  0
  189.1720  177.5270  141.9110 C   0  0  0  0  0  0  0  0  0  0  0  0
  190.5470  177.0260  142.1110 C   0  0  0  0  0  3  0  0  0  0  0  0
  184.9340  178.7950  139.4820 C   0  0  0  0  0  2  0  0  0  0  0  0
  182.7590  179.7180  138.7550 C   0  0  0  0  0  1  0  0  0  0  0  0
  183.4550  178.4910  139.3100 C   0  0  1  0  0  3  0  0  0  0  0  0
  180.3570  175.5810  139.7390 C   0  0  0  0  0  0  0  0  0  0  0  0
  183.2810  177.3720  138.3940 N   0  0  0  0  0  2  0  0  0  0  0  0
  181.1030  174.4300  137.7600 C   0  0  0  0  0  3  0  0  0  0  0  0
  179.4200  175.7050  140.8860 C   0  0  0  0  0  1  0  0  0  0  0  0
  181.3570  176.4890  139.5780 N   0  0  0  0  0  0  0  0  0  0  0  0
  182.1220  175.3730  137.6110 C   0  0  0  0  0  3  0  0  0  0  0  0
  182.2360  176.4100  138.5400 C   0  0  0  0  0  0  0  0  0  0  0  0
  180.2120  174.5320  138.8290 C   0  0  0  0  0  3  0  0  0  0  0  0
  1  9  1  0  0  0  0
  2  3  1  0  0  0  0
  2  5  1  0  0  0  0
  3  7  1  0  0  0  0
  5 14  1  1  0  0  0
  6  1  1  0  0  0  0
  7  4  1  0  0  0  0
  8 21  1  6  0  0  0
  8 13  1  0  0  0  0
  8 12  1  0  0  0  0
 10 19  1  0  0  0  0
 11  4  2  0  0  0  0
 12 16  1  0  0  0  0
 13  2  2  0  0  0  0
 14  1  2  0  0  0  0
 15 11  1  0  0  0  0
 16  5  1  0  0  0  0
 16 17  1  1  0  0  0
 17  6  1  0  0  0  0
 18 10  2  0  0  0  0
 18 13  1  0  0  0  0
 19 20  1  0  0  0  0
 19  3  2  0  0  0  0
 20 15  2  0  0  0  0
 23 22  1  6  0  0  0
 23 21  1  0  0  0  0
 24 27  1  0  0  0  0
 25 30  1  0  0  0  0
 25 23  1  0  0  0  0
 26 31  1  0  0  0  0
 28 24  1  0  0  0  0
 29 26  2  0  0  0  0
 29 30  1  0  0  0  0
 30 28  2  0  0  0  0
 31 24  2  0  0  0  0
M  END
>  <MODEL>
3

>  <REMARK>
 VINA RESULT:     -10.1      2.608      3.939
  Name = 
  3 active torsions:
  status: ('A' for Active; 'I' for Inactive)
    1  A    between atoms: N_3  and  C_9
    2  A    between atoms: C_9  and  C_23
    3  A    between atoms: C_15  and  C_23
                            x       y       z     vdW  Elec       q    Type
                         _______ _______ _______ _____ _____    ______ ____

>  <TORSDO>
F 3

$$$$
=
 OpenBabel11052412593D

 31 35  0  0  1  0  0  0  0  0999 V2000
  184.4560  178.8540  144.3880 C   0  0  0  0  0  0  0  0  0  0  0  0
  187.9880  177.7830  143.6250 C   0  0  0  0  0  0  0  0  0  0  0  0
  188.5910  177.3510  144.8320 C   0  0  0  0  0  0  0  0  0  0  0  0
  187.8500  177.5260  147.1840 C   0  0  0  0  0  3  0  0  0  0  0  0
  186.4800  177.7820  143.4240 C   0  0  1  0  0  3  0  0  0  0  0  0
  183.7930  178.9090  143.0270 C   0  0  0  0  0  2  0  0  0  0  0  0
  187.7600  176.7410  145.9200 C   0  0  0  0  0  2  0  0  0  0  0  0
  188.2330  178.4820  141.1860 C   0  0  1  0  0  3  0  0  0  0  0  0
  183.7700  179.3540  145.4860 O   0  0  0  0  0  1  0  0  0  0  0  0
  190.7650  177.7370  143.8530 C   0  0  0  0  0  3  0  0  0  0  0  0
  188.9810  177.6610  147.8720 C   0  0  0  0  0  3  0  0  0  0  0  0
  186.8770  177.9550  141.0270 N   0  0  0  0  0  2  0  0  0  0  0  0
  188.8270  178.0820  142.5230 C   0  0  0  0  0  0  0  0  0  0  0  0
  185.7030  178.3950  144.5580 C   0  0  0  0  0  3  0  0  0  0  0  0
  190.2930  177.1380  147.4480 C   0  0  0  0  0  3  0  0  0  0  0  0
  186.0840  178.4820  142.1260 C   0  0  1  0  0  3  0  0  0  0  0  0
  184.6000  178.2420  141.9040 C   0  0  0  0  0  2  0  0  0  0  0  0
  190.1770  178.0770  142.6800 N   0  0  0  0  0  0  0  0  0  0  0  0
  189.9970  177.3720  144.9550 C   0  0  0  0  0  0  0  0  0  0  0  0
  190.7270  177.0080  146.1870 C   0  0  0  0  0  3  0  0  0  0  0  0
  189.1030  178.0020  140.0290 C   0  0  0  0  0  2  0  0  0  0  0  0
  188.9870  179.0120  137.7750 C   0  0  0  0  0  1  0  0  0  0  0  0
  188.3310  178.0240  138.7200 C   0  0  1  0  0  3  0  0  0  0  0  0
  191.9100  175.8650  137.8380 C   0  0  0  0  0  0  0  0  0  0  0  0
  188.3330  176.6970  138.1200 N   0  0  0  0  0  2  0  0  0  0  0  0
  190.6330  174.0040  136.9970 C   0  0  0  0  0  3  0  0  0  0  0  0
  193.2180  176.5020  138.1430 C   0  0  0  0  0  1  0  0  0  0  0  0
  190.7530  176.5290  138.1030 N   0  0  0  0  0  0  0  0  0  0  0  0
  189.4570  174.7020  137.2770 C   0  0  0  0  0  3  0  0  0  0  0  0
  189.5340  175.9780  137.8380 C   0  0  0  0  0  0  0  0  0  0  0  0
  191.8700  174.5860  137.2780 C   0  0  0  0  0  3  0  0  0  0  0  0
  1 14  2  0  0  0  0
  1  9  1  0  0  0  0
  2  3  1  0  0  0  0
  3 19  2  0  0  0  0
  3  7  1  0  0  0  0
  4 11  2  0  0  0  0
  5  2  1  0  0  0  0
  5 14  1  1  0  0  0
  6  1  1  0  0  0  0
  7  4  1  0  0  0  0
  8 21  1  6  0  0  0
  8 13  1  0  0  0  0
 10 19  1  0  0  0  0
 12  8  1  0  0  0  0
 12 16  1  0  0  0  0
 13 18  1  0  0  0  0
 13  2  2  0  0  0  0
 15 11  1  0  0  0  0
 16 17  1  6  0  0  0
 16  5  1  0  0  0  0
 17  6  1  0  0  0  0
 18 10  2  0  0  0  0
 19 20  1  0  0  0  0
 20 15  2  0  0  0  0
 23 22  1  6  0  0  0
 23 21  1  0  0  0  0
 24 28  1  0  0  0  0
 24 27  1  0  0  0  0
 25 23  1  0  0  0  0
 26 29  2  0  0  0  0
 26 31  1  0  0  0  0
 29 30  1  0  0  0  0
 30 28  2  0  0  0  0
 30 25  1  0  0  0  0
 31 24  2  0  0  0  0
M  END
>  <MODEL>
4

>  <REMARK>
 VINA RESULT:      -9.9      1.716      2.788
  Name = 
  3 active torsions:
  status: ('A' for Active; 'I' for Inactive)
    1  A    between atoms: N_3  and  C_9
    2  A    between atoms: C_9  and  C_23
    3  A    between atoms: C_15  and  C_23
                            x       y       z     vdW  Elec       q    Type
                         _______ _______ _______ _____ _____    ______ ____

>  <TORSDO>
F 3

$$$$
=
 OpenBabel11052412593D

 31 35  0  0  1  0  0  0  0  0999 V2000
  184.9300  179.3080  143.2450 C   0  0  0  0  0  0  0  0  0  0  0  0
  188.1760  177.6740  144.2440 C   0  0  0  0  0  0  0  0  0  0  0  0
  188.1840  177.5280  145.6530 C   0  0  0  0  0  0  0  0  0  0  0  0
  186.6850  178.4340  147.3990 C   0  0  0  0  0  3  0  0  0  0  0  0
  186.8850  177.7880  143.4460 C   0  0  1  0  0  3  0  0  0  0  0  0
  184.8440  179.0580  141.7540 C   0  0  0  0  0  2  0  0  0  0  0  0
  186.9010  177.3430  146.4050 C   0  0  0  0  0  2  0  0  0  0  0  0
  189.4460  177.6350  142.0340 C   0  0  1  0  0  3  0  0  0  0  0  0
  184.0130  180.1690  143.8330 O   0  0  0  0  0  1  0  0  0  0  0  0
  190.5940  177.3780  145.5980 C   0  0  0  0  0  3  0  0  0  0  0  0
  187.4840  178.6240  148.4460 C   0  0  0  0  0  3  0  0  0  0  0  0
  188.1640  177.2430  141.4460 N   0  0  0  0  0  2  0  0  0  0  0  0
  189.4040  177.5580  143.5490 C   0  0  0  0  0  0  0  0  0  0  0  0
  185.8960  178.7760  144.0040 C   0  0  0  0  0  3  0  0  0  0  0  0
  188.7140  177.8590  148.7180 C   0  0  0  0  0  3  0  0  0  0  0  0
  187.1560  178.1410  141.9850 C   0  0  1  0  0  3  0  0  0  0  0  0
  185.8440  178.0180  141.2280 C   0  0  0  0  0  2  0  0  0  0  0  0
  190.5670  177.4430  144.2440 N   0  0  0  0  0  0  0  0  0  0  0  0
  189.4140  177.4230  146.3360 C   0  0  0  0  0  0  0  0  0  0  0  0
  189.5430  177.3350  147.8050 C   0  0  0  0  0  3  0  0  0  0  0  0
  190.5550  176.7580  141.4660 C   0  0  0  0  0  2  0  0  0  0  0  0
  192.3770  177.5510  139.9940 C   0  0  0  0  0  1  0  0  0  0  0  0
  190.9090  177.1740  140.0470 C   0  0  1  0  0  3  0  0  0  0  0  0
  188.1960  177.4630  136.7600 C   0  0  0  0  0  0  0  0  0  0  0  0
  190.6510  176.0740  139.1280 N   0  0  0  0  0  2  0  0  0  0  0  0
  188.6810  175.1970  136.1030 C   0  0  0  0  0  3  0  0  0  0  0  0
  187.4670  178.7410  136.5510 C   0  0  0  0  0  1  0  0  0  0  0  0
  189.0620  177.3380  137.8010 N   0  0  0  0  0  0  0  0  0  0  0  0
  189.5670  175.0900  137.1760 C   0  0  0  0  0  3  0  0  0  0  0  0
  189.7500  176.1830  138.0260 C   0  0  0  0  0  0  0  0  0  0  0  0
  187.9890  176.3910  135.8900 C   0  0  0  0  0  3  0  0  0  0  0  0
  1  9  1  0  0  0  0
  1 14  2  0  0  0  0
  2  3  1  0  0  0  0
  3 19  2  0  0  0  0
  3  7  1  0  0  0  0
  4 11  2  0  0  0  0
  5 14  1  1  0  0  0
  5  2  1  0  0  0  0
  6  1  1  0  0  0  0
  7  4  1  0  0  0  0
  8 21  1  6  0  0  0
  8 13  1  0  0  0  0
 10 19  1  0  0  0  0
 11 15  1  0  0  0  0
 12 16  1  0  0  0  0
 12  8  1  0  0  0  0
 13 18  1  0  0  0  0
 13  2  2  0  0  0  0
 16 17  1  6  0  0  0
 16  5  1  0  0  0  0
 17  6  1  0  0  0  0
 18 10  2  0  0  0  0
 19 20  1  0  0  0  0
 20 15  2  0  0  0  0
 23 22  1  1  0  0  0
 23 21  1  0  0  0  0
 24 28  1  0  0  0  0
 25 23  1  0  0  0  0
 26 29  2  0  0  0  0
 27 24  1  0  0  0  0
 28 30  2  0  0  0  0
 29 30  1  0  0  0  0
 30 25  1  0  0  0  0
 31 26  1  0  0  0  0
 31 24  2  0  0  0  0
M  END
>  <MODEL>
5

>  <REMARK>
 VINA RESULT:      -9.7      1.754      2.169
  Name = 
  3 active torsions:
  status: ('A' for Active; 'I' for Inactive)
    1  A    between atoms: N_3  and  C_9
    2  A    between atoms: C_9  and  C_23
    3  A    between atoms: C_15  and  C_23
                            x       y       z     vdW  Elec       q    Type
                         _______ _______ _______ _____ _____    ______ ____

>  <TORSDO>
F 3

$$$$
=
 OpenBabel11052412593D

 31 35  0  0  1  0  0  0  0  0999 V2000
  184.8470  178.7370  145.6610 C   0  0  0  0  0  0  0  0  0  0  0  0
  186.5840  178.0770  142.3820 C   0  0  0  0  0  0  0  0  0  0  0  0
  187.8300  177.4610  142.6560 C   0  0  0  0  0  0  0  0  0  0  0  0
  189.0570  177.1270  144.7770 C   0  0  0  0  0  3  0  0  0  0  0  0
  185.4140  178.0120  143.3520 C   0  0  1  0  0  3  0  0  0  0  0  0
  183.4120  179.0090  145.2610 C   0  0  0  0  0  2  0  0  0  0  0  0
  187.9990  176.5970  143.8690 C   0  0  0  0  0  2  0  0  0  0  0  0
  185.0430  179.2500  140.7250 C   0  0  1  0  0  3  0  0  0  0  0  0
  185.2300  178.9670  146.9750 O   0  0  0  0  0  1  0  0  0  0  0  0
  188.6310  178.1770  140.4920 C   0  0  0  0  0  3  0  0  0  0  0  0
  190.3380  177.2020  144.4250 C   0  0  0  0  0  3  0  0  0  0  0  0
  183.9550  178.6730  141.5180 N   0  0  0  0  0  2  0  0  0  0  0  0
  186.3800  178.6400  141.0980 C   0  0  0  0  0  0  0  0  0  0  0  0
  185.7720  178.3390  144.7770 C   0  0  0  0  0  3  0  0  0  0  0  0
  190.8690  176.8620  143.0930 C   0  0  0  0  0  3  0  0  0  0  0  0
  184.2690  178.9220  142.9150 C   0  0  1  0  0  3  0  0  0  0  0  0
  183.0760  178.6290  143.8110 C   0  0  0  0  0  2  0  0  0  0  0  0
  187.4100  178.6960  140.2130 N   0  0  0  0  0  0  0  0  0  0  0  0
  188.8760  177.5530  141.7130 C   0  0  0  0  0  0  0  0  0  0  0  0
  190.2330  177.0080  141.9230 C   0  0  0  0  0  3  0  0  0  0  0  0
  184.7440  179.0640  139.2420 C   0  0  0  0  0  2  0  0  0  0  0  0
  183.1450  177.1840  139.3960 C   0  0  0  0  0  1  0  0  0  0  0  0
  184.5210  177.5970  138.9090 C   0  0  1  0  0  3  0  0  0  0  0  0
  188.0920  176.3000  136.9570 C   0  0  0  0  0  0  0  0  0  0  0  0
  184.6130  177.3950  137.4700 N   0  0  0  0  0  2  0  0  0  0  0  0
  186.9880  176.3350  134.8170 C   0  0  0  0  0  3  0  0  0  0  0  0
  189.3050  176.0580  137.7810 C   0  0  0  0  0  1  0  0  0  0  0  0
  186.9410  176.7190  137.5490 N   0  0  0  0  0  0  0  0  0  0  0  0
  185.8150  176.7630  135.4430 C   0  0  0  0  0  3  0  0  0  0  0  0
  185.8080  176.9520  136.8270 C   0  0  0  0  0  0  0  0  0  0  0  0
  188.1350  176.1010  135.5750 C   0  0  0  0  0  3  0  0  0  0  0  0
  1  9  1  0  0  0  0
  2  3  1  0  0  0  0
  2  5  1  0  0  0  0
  3  7  1  0  0  0  0
  5 14  1  1  0  0  0
  6  1  1  0  0  0  0
  7  4  1  0  0  0  0
  8 21  1  6  0  0  0
  8 13  1  0  0  0  0
  8 12  1  0  0  0  0
 10 19  1  0  0  0  0
 11  4  2  0  0  0  0
 12 16  1  0  0  0  0
 13  2  2  0  0  0  0
 14  1  2  0  0  0  0
 15 11  1  0  0  0  0
 16  5  1  0  0  0  0
 16 17  1  1  0  0  0
 17  6  1  0  0  0  0
 18 10  2  0  0  0  0
 18 13  1  0  0  0  0
 19 20  1  0  0  0  0
 19  3  2  0  0  0  0
 20 15  2  0  0  0  0
 23 21  1  0  0  0  0
 23 22  1  6  0  0  0
 24 28  1  0  0  0  0
 24 27  1  0  0  0  0
 25 23  1  0  0  0  0
 26 29  2  0  0  0  0
 26 31  1  0  0  0  0
 29 30  1  0  0  0  0
 30 25  1  0  0  0  0
 30 28  2  0  0  0  0
 31 24  2  0  0  0  0
M  END
>  <MODEL>
6

>  <REMARK>
 VINA RESULT:      -9.4      1.773      3.277
  Name = 
  3 active torsions:
  status: ('A' for Active; 'I' for Inactive)
    1  A    between atoms: N_3  and  C_9
    2  A    between atoms: C_9  and  C_23
    3  A    between atoms: C_15  and  C_23
                            x       y       z     vdW  Elec       q    Type
                         _______ _______ _______ _____ _____    ______ ____

>  <TORSDO>
F 3

$$$$
=
 OpenBabel11052412593D

 31 35  0  0  1  0  0  0  0  0999 V2000
  184.9570  178.5260  139.8070 C   0  0  0  0  0  0  0  0  0  0  0  0
  188.6570  177.8100  139.8650 C   0  0  0  0  0  0  0  0  0  0  0  0
  189.1100  177.7090  138.5260 C   0  0  0  0  0  0  0  0  0  0  0  0
  187.8760  177.5840  136.3880 C   0  0  0  0  0  3  0  0  0  0  0  0
  187.4030  178.5850  140.2430 C   0  0  1  0  0  3  0  0  0  0  0  0
  184.6600  179.0030  141.2130 C   0  0  0  0  0  2  0  0  0  0  0  0
  188.4370  178.4850  137.4360 C   0  0  0  0  0  2  0  0  0  0  0  0
  189.0820  177.4420  142.3510 C   0  0  1  0  0  3  0  0  0  0  0  0
  183.8970  178.2770  138.9470 O   0  0  0  0  0  1  0  0  0  0  0  0
  191.0200  176.4450  139.2960 C   0  0  0  0  0  3  0  0  0  0  0  0
  188.6380  176.8110  135.6180 C   0  0  0  0  0  3  0  0  0  0  0  0
  188.1900  178.5870  142.5470 N   0  0  0  0  0  2  0  0  0  0  0  0
  189.4840  177.2990  140.8960 C   0  0  0  0  0  0  0  0  0  0  0  0
  186.2040  178.2800  139.3850 C   0  0  0  0  0  3  0  0  0  0  0  0
  190.1000  176.6730  135.7460 C   0  0  0  0  0  3  0  0  0  0  0  0
  187.0260  178.3670  141.7050 C   0  0  1  0  0  3  0  0  0  0  0  0
  185.9070  179.3380  142.0450 C   0  0  0  0  0  2  0  0  0  0  0  0
  190.6140  176.6140  140.5790 N   0  0  0  0  0  0  0  0  0  0  0  0
  190.2840  176.9790  138.2410 C   0  0  0  0  0  0  0  0  0  0  0  0
  190.8100  176.7530  136.8790 C   0  0  0  0  0  3  0  0  0  0  0  0
  190.3040  177.5910  143.2500 C   0  0  0  0  0  2  0  0  0  0  0  0
  191.6800  175.6270  143.8530 C   0  0  0  0  0  1  0  0  0  0  0  0
  190.4310  176.4120  144.2010 C   0  0  1  0  0  3  0  0  0  0  0  0
  187.0590  177.8490  146.3960 C   0  0  0  0  0  0  0  0  0  0  0  0
  190.5180  176.8890  145.5750 N   0  0  0  0  0  2  0  0  0  0  0  0
  188.4330  178.2480  148.3330 C   0  0  0  0  0  3  0  0  0  0  0  0
  185.7340  177.8790  145.7230 C   0  0  0  0  0  1  0  0  0  0  0  0
  188.1520  177.4020  145.7220 N   0  0  0  0  0  0  0  0  0  0  0  0
  189.5430  177.7840  147.6240 C   0  0  0  0  0  3  0  0  0  0  0  0
  189.3840  177.3580  146.3040 C   0  0  0  0  0  0  0  0  0  0  0  0
  187.1810  178.2810  147.7180 C   0  0  0  0  0  3  0  0  0  0  0  0
  1  6  1  0  0  0  0
  2  5  1  0  0  0  0
  2 13  1  0  0  0  0
  3  2  2  0  0  0  0
  4  7  1  0  0  0  0
  5 14  1  6  0  0  0
  5 16  1  0  0  0  0
  6 17  1  0  0  0  0
  7  3  1  0  0  0  0
  8 12  1  0  0  0  0
  8 21  1  1  0  0  0
  9  1  1  0  0  0  0
 10 18  1  0  0  0  0
 11 15  1  0  0  0  0
 11  4  2  0  0  0  0
 13  8  1  0  0  0  0
 14  1  2  0  0  0  0
 15 20  2  0  0  0  0
 16 17  1  1  0  0  0
 16 12  1  0  0  0  0
 18 13  2  0  0  0  0
 19  3  1  0  0  0  0
 19 10  2  0  0  0  0
 20 19  1  0  0  0  0
 21 23  1  0  0  0  0
 23 22  1  6  0  0  0
 23 25  1  0  0  0  0
 24 31  2  0  0  0  0
 25 30  1  0  0  0  0
 27 24  1  0  0  0  0
 28 30  2  0  0  0  0
 28 24  1  0  0  0  0
 29 26  2  0  0  0  0
 30 29  1  0  0  0  0
 31 26  1  0  0  0  0
M  END
>  <MODEL>
7

>  <REMARK>
 VINA RESULT:      -9.3      2.454      7.580
  Name = 
  3 active torsions:
  status: ('A' for Active; 'I' for Inactive)
    1  A    between atoms: N_3  and  C_9
    2  A    between atoms: C_9  and  C_23
    3  A    between atoms: C_15  and  C_23
                            x       y       z     vdW  Elec       q    Type
                         _______ _______ _______ _____ _____    ______ ____

>  <TORSDO>
F 3

$$$$
=
 OpenBabel11052412593D

 31 35  0  0  1  0  0  0  0  0999 V2000
  185.2220  178.8220  145.9420 C   0  0  0  0  0  0  0  0  0  0  0  0
  186.9020  178.0820  142.6490 C   0  0  0  0  0  0  0  0  0  0  0  0
  188.1850  177.5440  142.9170 C   0  0  0  0  0  0  0  0  0  0  0  0
  189.4840  177.3820  145.0140 C   0  0  0  0  0  3  0  0  0  0  0  0
  185.7630  178.0090  143.6570 C   0  0  1  0  0  3  0  0  0  0  0  0
  183.7650  179.0010  145.5710 C   0  0  0  0  0  2  0  0  0  0  0  0
  188.4310  176.7530  144.1660 C   0  0  0  0  0  2  0  0  0  0  0  0
  185.2570  179.0890  140.9830 C   0  0  1  0  0  3  0  0  0  0  0  0
  185.6290  179.1380  147.2310 O   0  0  0  0  0  1  0  0  0  0  0  0
  188.8880  178.1860  140.6970 C   0  0  0  0  0  3  0  0  0  0  0  0
  190.7500  177.5030  144.6220 C   0  0  0  0  0  3  0  0  0  0  0  0
  184.2230  178.5000  141.8350 N   0  0  0  0  0  2  0  0  0  0  0  0
  186.6340  178.5670  141.3460 C   0  0  0  0  0  0  0  0  0  0  0  0
  186.1420  178.4260  145.0520 C   0  0  0  0  0  3  0  0  0  0  0  0
  191.2610  177.1210  143.2920 C   0  0  0  0  0  3  0  0  0  0  0  0
  184.5610  178.8360  143.2080 C   0  0  1  0  0  3  0  0  0  0  0  0
  183.4100  178.5300  144.1530 C   0  0  0  0  0  2  0  0  0  0  0  0
  187.6350  178.6290  140.4290 N   0  0  0  0  0  0  0  0  0  0  0  0
  189.1980  177.6400  141.9400 C   0  0  0  0  0  0  0  0  0  0  0  0
  190.5870  177.1750  142.1360 C   0  0  0  0  0  3  0  0  0  0  0  0
  184.9280  178.8120  139.5200 C   0  0  0  0  0  2  0  0  0  0  0  0
  182.7310  179.5490  138.6580 C   0  0  0  0  0  1  0  0  0  0  0  0
  183.4680  178.4210  139.3530 C   0  0  1  0  0  3  0  0  0  0  0  0
  186.3260  177.3410  136.3670 C   0  0  0  0  0  0  0  0  0  0  0  0
  183.3680  177.2060  138.5570 N   0  0  0  0  0  2  0  0  0  0  0  0
  185.1210  175.3130  135.8840 C   0  0  0  0  0  3  0  0  0  0  0  0
  187.4710  178.2550  136.1160 C   0  0  0  0  0  1  0  0  0  0  0  0
  185.3970  177.6600  137.3080 N   0  0  0  0  0  0  0  0  0  0  0  0
  184.1790  175.6570  136.8550 C   0  0  0  0  0  3  0  0  0  0  0  0
  184.3330  176.8480  137.5680 C   0  0  0  0  0  0  0  0  0  0  0  0
  186.2040  176.1580  135.6360 C   0  0  0  0  0  3  0  0  0  0  0  0
  1  9  1  0  0  0  0
  2  3  1  0  0  0  0
  2  5  1  0  0  0  0
  3  7  1  0  0  0  0
  5 14  1  1  0  0  0
  6  1  1  0  0  0  0
  7  4  1  0  0  0  0
  8 21  1  6  0  0  0
  8 13  1  0  0  0  0
  8 12  1  0  0  0  0
 10 19  1  0  0  0  0
 11  4  2  0  0  0  0
 12 16  1  0  0  0  0
 13  2  2  0  0  0  0
 14  1  2  0  0  0  0
 15 11  1  0  0  0  0
 16  5  1  0  0  0  0
 16 17  1  1  0  0  0
 17  6  1  0  0  0  0
 18 10  2  0  0  0  0
 18 13  1  0  0  0  0
 19 20  1  0  0  0  0
 19  3  2  0  0  0  0
 20 15  2  0  0  0  0
 23 22  1  6  0  0  0
 23 21  1  0  0  0  0
 24 28  1  0  0  0  0
 25 23  1  0  0  0  0
 26 29  2  0  0  0  0
 27 24  1  0  0  0  0
 28 30  2  0  0  0  0
 29 30  1  0  0  0  0
 30 25  1  0  0  0  0
 31 26  1  0  0  0  0
 31 24  2  0  0  0  0
M  END
>  <MODEL>
8

>  <REMARK>
 VINA RESULT:      -9.3      1.740      3.156
  Name = 
  3 active torsions:
  status: ('A' for Active; 'I' for Inactive)
    1  A    between atoms: N_3  and  C_9
    2  A    between atoms: C_9  and  C_23
    3  A    between atoms: C_15  and  C_23
                            x       y       z     vdW  Elec       q    Type
                         _______ _______ _______ _____ _____    ______ ____

>  <TORSDO>
F 3

$$$$
=
 OpenBabel11052412593D

 31 35  0  0  1  0  0  0  0  0999 V2000
  187.8060  178.3720  139.6500 C   0  0  0  0  0  0  0  0  0  0  0  0
  185.0220  178.2200  142.1860 C   0  0  0  0  0  0  0  0  0  0  0  0
  183.7880  178.3260  141.4960 C   0  0  0  0  0  0  0  0  0  0  0  0
  183.2710  178.9040  139.1490 C   0  0  0  0  0  3  0  0  0  0  0  0
  186.2910  177.7220  141.5090 C   0  0  1  0  0  3  0  0  0  0  0  0
  189.0130  177.8620  140.4080 C   0  0  0  0  0  2  0  0  0  0  0  0
  183.6560  177.8160  140.0940 C   0  0  0  0  0  2  0  0  0  0  0  0
  186.3100  178.2750  144.3840 C   0  0  1  0  0  3  0  0  0  0  0  0
  187.9930  178.9270  138.3910 O   0  0  0  0  0  1  0  0  0  0  0  0
  182.7370  179.0530  143.5460 C   0  0  0  0  0  3  0  0  0  0  0  0
  182.1070  179.5440  139.2220 C   0  0  0  0  0  3  0  0  0  0  0  0
  187.2340  177.3510  143.7230 N   0  0  0  0  0  2  0  0  0  0  0  0
  185.0320  178.4430  143.5840 C   0  0  0  0  0  0  0  0  0  0  0  0
  186.5750  178.3630  140.1770 C   0  0  0  0  0  3  0  0  0  0  0  0
  181.0930  179.3350  140.2710 C   0  0  0  0  0  3  0  0  0  0  0  0
  187.5140  177.8990  142.4060 C   0  0  1  0  0  3  0  0  0  0  0  0
  188.6800  177.1830  141.7450 C   0  0  0  0  0  2  0  0  0  0  0  0
  183.9060  178.8760  144.2090 N   0  0  0  0  0  0  0  0  0  0  0  0
  182.6450  178.7900  142.1820 C   0  0  0  0  0  0  0  0  0  0  0  0
  181.3280  179.0030  141.5470 C   0  0  0  0  0  3  0  0  0  0  0  0
  186.0180  177.7780  145.7960 C   0  0  0  0  0  2  0  0  0  0  0  0
  186.0560  179.0030  147.9430 C   0  0  0  0  0  1  0  0  0  0  0  0
  186.9130  178.4660  146.8140 C   0  0  1  0  0  3  0  0  0  0  0  0
  190.7810  177.8780  145.0980 C   0  0  0  0  0  0  0  0  0  0  0  0
  187.8840  177.5180  147.3430 N   0  0  0  0  0  2  0  0  0  0  0  0
  191.3250  176.2380  146.7760 C   0  0  0  0  0  3  0  0  0  0  0  0
  191.1520  178.6660  143.8940 C   0  0  0  0  0  1  0  0  0  0  0  0
  189.5550  178.0390  145.6640 N   0  0  0  0  0  0  0  0  0  0  0  0
  190.0620  176.4190  147.3430 C   0  0  0  0  0  3  0  0  0  0  0  0
  189.1780  177.3350  146.7690 C   0  0  0  0  0  0  0  0  0  0  0  0
  191.6910  176.9710  145.6460 C   0  0  0  0  0  3  0  0  0  0  0  0
  1 14  2  0  0  0  0
  1  6  1  0  0  0  0
  2 13  1  0  0  0  0
  3 19  1  0  0  0  0
  3  2  2  0  0  0  0
  4 11  2  0  0  0  0
  4  7  1  0  0  0  0
  5 14  1  6  0  0  0
  5  2  1  0  0  0  0
  5 16  1  0  0  0  0
  6 17  1  0  0  0  0
  7  3  1  0  0  0  0
  8 21  1  1  0  0  0
  9  1  1  0  0  0  0
 10 18  1  0  0  0  0
 11 15  1  0  0  0  0
 12  8  1  0  0  0  0
 13 18  2  0  0  0  0
 13  8  1  0  0  0  0
 15 20  2  0  0  0  0
 16 17  1  6  0  0  0
 16 12  1  0  0  0  0
 19 10  2  0  0  0  0
 20 19  1  0  0  0  0
 21 23  1  0  0  0  0
 23 25  1  0  0  0  0
 23 22  1  1  0  0  0
 24 31  2  0  0  0  0
 24 28  1  0  0  0  0
 26 29  2  0  0  0  0
 27 24  1  0  0  0  0
 28 30  2  0  0  0  0
 30 25  1  0  0  0  0
 30 29  1  0  0  0  0
 31 26  1  0  0  0  0
M  END
>  <MODEL>
9

>  <REMARK>
 VINA RESULT:      -9.1      3.117      8.130
  Name = 
  3 active torsions:
  status: ('A' for Active; 'I' for Inactive)
    1  A    between atoms: N_3  and  C_9
    2  A    between atoms: C_9  and  C_23
    3  A    between atoms: C_15  and  C_23
                            x       y       z     vdW  Elec       q    Type
                         _______ _______ _______ _____ _____    ______ ____

>  <TORSDO>
F 3

$$$$
