=
 OpenBabel11052414273D

 32 37  0  0  1  0  0  0  0  0999 V2000
  189.2200  177.9770  142.6650 C   0  0  1  0  0  3  0  0  0  0  0  0
  187.0900  177.9510  143.8630 C   0  0  1  0  0  3  0  0  0  0  0  0
  189.9490  179.0450  143.4730 C   0  0  0  0  0  2  0  0  0  0  0  0
  188.2640  177.1540  143.5350 C   0  0  2  0  0  3  0  0  0  0  0  0
  185.6490  178.1000  145.8080 C   0  0  1  0  0  3  0  0  0  0  0  0
  182.6790  178.4740  141.6160 C   0  0  0  0  0  3  0  0  0  0  0  0
  186.3110  178.0550  142.5780 C   0  0  2  0  0  3  0  0  0  0  0  0
  182.8960  179.2560  143.8910 C   0  0  0  0  0  3  0  0  0  0  0  0
  184.2670  178.9810  143.8710 C   0  0  0  0  0  0  0  0  0  0  0  0
  188.6750  176.7530  144.9240 C   0  0  2  0  0  3  0  0  0  0  0  0
  185.0580  179.3290  145.0930 C   0  0  0  0  0  2  0  0  0  0  0  0
  187.4640  176.6000  145.6550 O   0  0  0  0  0  0  0  0  0  0  0  0
  189.5510  177.8140  145.6130 C   0  0  0  0  0  2  0  0  0  0  0  0
  187.1240  179.0030  141.6820 C   0  0  0  0  0  2  0  0  0  0  0  0
  188.5340  178.5610  141.4830 N   0  0  2  0  0  0  0  0  0  0  0  0
  184.8580  178.4460  142.6980 C   0  0  0  0  0  0  0  0  0  0  0  0
  186.4540  177.2060  144.9330 N   0  0  2  0  0  0  0  0  0  0  0  0
  190.6150  178.3900  144.6800 C   0  0  0  0  0  2  0  0  0  0  0  0
  182.1030  179.0030  142.7710 C   0  0  0  0  0  3  0  0  0  0  0  0
  184.0470  178.1960  141.5830 C   0  0  0  0  0  3  0  0  0  0  0  0
  191.6280  177.3170  139.6060 C   0  0  1  0  0  3  0  0  0  0  0  0
  189.1270  175.4270  137.8140 C   0  0  0  0  0  1  0  0  0  0  0  0
  193.1110  177.5030  139.8440 C   0  0  0  0  0  1  0  0  0  0  0  0
  189.4380  177.9340  137.8700 C   0  0  0  0  0  3  0  0  0  0  0  0
  188.6800  177.6650  140.3250 C   0  0  1  0  0  3  0  0  0  0  0  0
  191.4170  176.3690  138.4190 C   0  0  0  0  0  2  0  0  0  0  0  0
  188.8680  178.3920  139.0010 C   0  0  0  0  0  3  0  0  0  0  0  0
  190.9990  176.8390  140.8390 N   0  0  0  0  0  2  0  0  0  0  0  0
  189.5970  176.4720  140.6320 C   0  0  0  0  0  2  0  0  0  0  0  0
  190.0920  176.5900  137.6650 C   0  0  1  0  0  3  0  0  0  0  0  0
  186.3640  178.5520  147.0550 C   0  0  0  0  0  3  0  0  0  0  0  0
  186.0550  179.5940  147.6130 O   0  0  0  0  0  0  0  0  0  0  0  0
  1  3  1  1  0  0  0
  1  4  1  0  0  0  0
  2 17  1  0  0  0  0
  3 18  1  0  0  0  0
  4  2  1  0  0  0  0
  4 10  1  0  0  0  0
  5 31  1  0  0  0  0
  6 19  1  0  0  0  0
  7 16  1  0  0  0  0
  7  2  1  0  0  0  0
  9  8  1  0  0  0  0
  9 11  1  0  0  0  0
 10 13  1  0  0  0  0
 10 12  1  0  0  0  0
 11  5  1  0  0  0  0
 14  7  1  0  0  0  0
 15 14  1  0  0  0  0
 15  1  1  0  0  0  0
 16  9  2  0  0  0  0
 17 12  1  0  0  0  0
 17  5  1  0  0  0  0
 18 13  1  0  0  0  0
 19  8  2  0  0  0  0
 20  6  2  0  0  0  0
 20 16  1  0  0  0  0
 21 23  1  0  0  0  0
 21 28  1  0  0  0  0
 24 27  2  0  0  0  0
 25 29  1  0  0  0  0
 25 15  1  0  0  0  0
 26 21  1  0  0  0  0
 27 25  1  0  0  0  0
 29 28  1  0  0  0  0
 30 22  1  0  0  0  0
 30 24  1  0  0  0  0
 30 26  1  0  0  0  0
 31 32  2  0  0  0  0
M  END
>  <MODEL>
1

>  <REMARK>
 VINA RESULT:     -10.1      0.000      0.000
  Name = 
  2 active torsions:
  status: ('A' for Active; 'I' for Inactive)
    1  A    between atoms: C_6  and  C_13
    2  A    between atoms: C_16  and  N_27
                            x       y       z     vdW  Elec       q    Type
                         _______ _______ _______ _____ _____    ______ ____

>  <TORSDO>
F 2

$$$$
=
 OpenBabel11052414273D

 32 37  0  0  1  0  0  0  0  0999 V2000
  187.5670  178.0290  138.7090 C   0  0  1  0  0  3  0  0  0  0  0  0
  189.3000  177.4380  140.3290 C   0  0  1  0  0  3  0  0  0  0  0  0
  188.3230  179.0820  137.9070 C   0  0  0  0  0  2  0  0  0  0  0  0
  188.4990  176.9260  139.2260 C   0  0  2  0  0  3  0  0  0  0  0  0
  191.5690  177.0340  141.0860 C   0  0  1  0  0  3  0  0  0  0  0  0
  188.5700  177.4670  145.2520 C   0  0  0  0  0  3  0  0  0  0  0  0
  188.3400  177.5840  141.4800 C   0  0  2  0  0  3  0  0  0  0  0  0
  190.7920  177.9340  144.4300 C   0  0  0  0  0  3  0  0  0  0  0  0
  190.3240  177.9200  143.1120 C   0  0  0  0  0  0  0  0  0  0  0  0
  189.6030  176.4080  138.3480 C   0  0  2  0  0  3  0  0  0  0  0  0
  191.3080  178.2250  142.0270 C   0  0  0  0  0  2  0  0  0  0  0  0
  190.6080  175.9310  139.2350 O   0  0  0  0  0  0  0  0  0  0  0  0
  190.2030  177.5000  137.4440 C   0  0  0  0  0  2  0  0  0  0  0  0
  187.4510  178.7850  141.1220 C   0  0  0  0  0  2  0  0  0  0  0  0
  186.7720  178.6430  139.8030 N   0  0  2  0  0  0  0  0  0  0  0  0
  188.9500  177.6810  142.8580 C   0  0  0  0  0  0  0  0  0  0  0  0
  190.3410  176.4400  140.4910 N   0  0  2  0  0  0  0  0  0  0  0  0
  189.1340  178.3910  136.8140 C   0  0  0  0  0  2  0  0  0  0  0  0
  189.9220  177.7060  145.4960 C   0  0  0  0  0  3  0  0  0  0  0  0
  188.0900  177.4510  143.9400 C   0  0  0  0  0  3  0  0  0  0  0  0
  183.2070  179.8770  139.1630 C   0  0  1  0  0  3  0  0  0  0  0  0
  182.4450  176.4300  139.9170 C   0  0  0  0  0  1  0  0  0  0  0  0
  182.6570  181.1840  138.6310 C   0  0  0  0  0  1  0  0  0  0  0  0
  183.4100  178.1830  141.4600 C   0  0  0  0  0  3  0  0  0  0  0  0
  185.4690  177.9690  139.9160 C   0  0  1  0  0  3  0  0  0  0  0  0
  182.0530  178.8900  139.3800 C   0  0  0  0  0  2  0  0  0  0  0  0
  184.7310  178.2620  141.2150 C   0  0  0  0  0  3  0  0  0  0  0  0
  184.2260  179.3730  138.2410 N   0  0  0  0  0  2  0  0  0  0  0  0
  184.6750  178.0270  138.6030 C   0  0  0  0  0  2  0  0  0  0  0  0
  182.3230  177.8380  140.4720 C   0  0  1  0  0  3  0  0  0  0  0  0
  192.6190  177.4220  140.0790 C   0  0  0  0  0  3  0  0  0  0  0  0
  193.7830  177.0800  140.2220 O   0  0  0  0  0  0  0  0  0  0  0  0
  1  3  1  1  0  0  0
  1  4  1  0  0  0  0
  1 15  1  0  0  0  0
  2 17  1  0  0  0  0
  2  7  1  0  0  0  0
  4  2  1  0  0  0  0
  5 11  1  0  0  0  0
  6 19  1  0  0  0  0
  7 16  1  0  0  0  0
  8 19  2  0  0  0  0
  9  8  1  0  0  0  0
 10  4  1  0  0  0  0
 10 12  1  0  0  0  0
 11  9  1  0  0  0  0
 12 17  1  0  0  0  0
 13 10  1  0  0  0  0
 14  7  1  0  0  0  0
 15 25  1  0  0  0  0
 15 14  1  0  0  0  0
 16  9  2  0  0  0  0
 16 20  1  0  0  0  0
 17  5  1  0  0  0  0
 18 13  1  0  0  0  0
 18  3  1  0  0  0  0
 20  6  2  0  0  0  0
 21 26  1  0  0  0  0
 22 30  1  0  0  0  0
 23 21  1  0  0  0  0
 25 27  1  0  0  0  0
 26 30  1  0  0  0  0
 27 24  2  0  0  0  0
 28 29  1  0  0  0  0
 28 21  1  0  0  0  0
 29 25  1  0  0  0  0
 30 24  1  0  0  0  0
 31 32  2  0  0  0  0
 31  5  1  0  0  0  0
M  END
>  <MODEL>
2

>  <REMARK>
 VINA RESULT:      -9.0      2.882      6.917
  Name = 
  2 active torsions:
  status: ('A' for Active; 'I' for Inactive)
    1  A    between atoms: C_6  and  C_13
    2  A    between atoms: C_16  and  N_27
                            x       y       z     vdW  Elec       q    Type
                         _______ _______ _______ _____ _____    ______ ____

>  <TORSDO>
F 2

$$$$
=
 OpenBabel11052414273D

 32 37  0  0  1  0  0  0  0  0999 V2000
  189.4400  177.7740  141.8530 C   0  0  1  0  0  3  0  0  0  0  0  0
  187.5430  177.6270  143.3870 C   0  0  1  0  0  3  0  0  0  0  0  0
  190.3540  178.6800  142.6700 C   0  0  0  0  0  2  0  0  0  0  0  0
  188.5980  176.8550  142.7460 C   0  0  2  0  0  3  0  0  0  0  0  0
  186.4600  177.5170  145.5540 C   0  0  1  0  0  3  0  0  0  0  0  0
  182.8550  178.6280  142.0470 C   0  0  0  0  0  3  0  0  0  0  0  0
  186.5670  177.9530  142.2870 C   0  0  2  0  0  3  0  0  0  0  0  0
  183.4940  179.0400  144.3390 C   0  0  0  0  0  3  0  0  0  0  0  0
  184.8250  178.7290  144.0400 C   0  0  0  0  0  0  0  0  0  0  0  0
  189.2130  176.2310  143.9660 C   0  0  2  0  0  3  0  0  0  0  0  0
  185.8280  178.8590  145.1420 C   0  0  0  0  0  2  0  0  0  0  0  0
  188.1350  176.0040  144.8670 O   0  0  0  0  0  0  0  0  0  0  0  0
  190.2510  177.1450  144.6410 C   0  0  0  0  0  2  0  0  0  0  0  0
  187.2710  179.0030  141.4130 C   0  0  0  0  0  2  0  0  0  0  0  0
  188.6000  178.5540  140.9080 N   0  0  2  0  0  0  0  0  0  0  0  0
  185.1790  178.3660  142.7160 C   0  0  0  0  0  0  0  0  0  0  0  0
  187.0540  176.7450  144.4290 N   0  0  2  0  0  0  0  0  0  0  0  0
  191.1740  177.8260  143.6320 C   0  0  0  0  0  2  0  0  0  0  0  0
  182.5120  178.9890  143.3490 C   0  0  0  0  0  3  0  0  0  0  0  0
  184.1800  178.3160  141.7350 C   0  0  0  0  0  3  0  0  0  0  0  0
  191.2600  176.9510  138.6720 C   0  0  1  0  0  3  0  0  0  0  0  0
  188.3350  175.9930  136.7850 C   0  0  0  0  0  1  0  0  0  0  0  0
  192.7510  176.7530  138.8390 C   0  0  0  0  0  1  0  0  0  0  0  0
  189.2290  178.3210  137.1920 C   0  0  0  0  0  3  0  0  0  0  0  0
  188.4990  177.8450  139.6230 C   0  0  1  0  0  3  0  0  0  0  0  0
  190.7970  176.2780  137.3730 C   0  0  0  0  0  2  0  0  0  0  0  0
  188.8150  178.7110  138.4120 C   0  0  0  0  0  3  0  0  0  0  0  0
  190.5700  176.4400  139.8580 N   0  0  0  0  0  2  0  0  0  0  0  0
  189.1160  176.4410  139.6900 C   0  0  0  0  0  2  0  0  0  0  0  0
  189.5420  176.9130  136.7480 C   0  0  1  0  0  3  0  0  0  0  0  0
  187.3980  177.7480  146.7100 C   0  0  0  0  0  3  0  0  0  0  0  0
  188.1270  178.7270  146.7410 O   0  0  0  0  0  0  0  0  0  0  0  0
  1  3  1  1  0  0  0
  1  4  1  0  0  0  0
  2 17  1  0  0  0  0
  3 18  1  0  0  0  0
  4  2  1  0  0  0  0
  4 10  1  0  0  0  0
  5 31  1  0  0  0  0
  6 19  1  0  0  0  0
  7 16  1  0  0  0  0
  7  2  1  0  0  0  0
  9  8  1  0  0  0  0
  9 11  1  0  0  0  0
 10 13  1  0  0  0  0
 10 12  1  0  0  0  0
 11  5  1  0  0  0  0
 14  7  1  0  0  0  0
 15 14  1  0  0  0  0
 15  1  1  0  0  0  0
 16  9  2  0  0  0  0
 17 12  1  0  0  0  0
 17  5  1  0  0  0  0
 18 13  1  0  0  0  0
 19  8  2  0  0  0  0
 20  6  2  0  0  0  0
 20 16  1  0  0  0  0
 21 23  1  0  0  0  0
 21 28  1  0  0  0  0
 24 27  2  0  0  0  0
 25 29  1  0  0  0  0
 25 15  1  0  0  0  0
 26 21  1  0  0  0  0
 27 25  1  0  0  0  0
 29 28  1  0  0  0  0
 30 22  1  0  0  0  0
 30 24  1  0  0  0  0
 30 26  1  0  0  0  0
 31 32  2  0  0  0  0
M  END
>  <MODEL>
3

>  <REMARK>
 VINA RESULT:      -8.3      1.006      1.032
  Name = 
  2 active torsions:
  status: ('A' for Active; 'I' for Inactive)
    1  A    between atoms: C_6  and  C_13
    2  A    between atoms: C_16  and  N_27
                            x       y       z     vdW  Elec       q    Type
                         _______ _______ _______ _____ _____    ______ ____

>  <TORSDO>
F 2

$$$$
=
 OpenBabel11052414273D

 32 37  0  0  1  0  0  0  0  0999 V2000
  187.5920  178.0330  140.2930 C   0  0  1  0  0  3  0  0  0  0  0  0
  188.6050  177.4830  142.4490 C   0  0  1  0  0  3  0  0  0  0  0  0
  188.6000  179.0650  139.7990 C   0  0  0  0  0  2  0  0  0  0  0  0
  188.2570  176.9440  141.1420 C   0  0  2  0  0  3  0  0  0  0  0  0
  190.4340  177.0970  143.9940 C   0  0  1  0  0  3  0  0  0  0  0  0
  186.1230  177.6420  146.7600 C   0  0  0  0  0  3  0  0  0  0  0  0
  187.2920  177.6610  143.1650 C   0  0  2  0  0  3  0  0  0  0  0  0
  188.4970  178.0850  146.7980 C   0  0  0  0  0  3  0  0  0  0  0  0
  188.5440  178.0370  145.4010 C   0  0  0  0  0  0  0  0  0  0  0  0
  189.6010  176.4020  140.7410 C   0  0  2  0  0  3  0  0  0  0  0  0
  189.8600  178.3120  144.7450 C   0  0  0  0  0  2  0  0  0  0  0  0
  190.2060  175.9460  141.9470 O   0  0  0  0  0  0  0  0  0  0  0  0
  190.5020  177.4680  140.0950 C   0  0  0  0  0  2  0  0  0  0  0  0
  186.6080  178.8530  142.4780 C   0  0  0  0  0  2  0  0  0  0  0  0
  186.4580  178.6770  141.0050 N   0  0  2  0  0  0  0  0  0  0  0  0
  187.3550  177.7930  144.6680 C   0  0  0  0  0  0  0  0  0  0  0  0
  189.5030  176.4890  143.0050 N   0  0  2  0  0  0  0  0  0  0  0  0
  189.7470  178.3440  139.0960 C   0  0  0  0  0  2  0  0  0  0  0  0
  187.2950  177.8860  147.4770 C   0  0  0  0  0  3  0  0  0  0  0  0
  186.1570  177.5930  145.3650 C   0  0  0  0  0  3  0  0  0  0  0  0
  183.3000  179.9620  139.2660 C   0  0  1  0  0  3  0  0  0  0  0  0
  182.3570  176.4910  139.5780 C   0  0  0  0  0  1  0  0  0  0  0  0
  182.9490  181.2930  138.6380 C   0  0  0  0  0  1  0  0  0  0  0  0
  182.7390  178.1700  141.4270 C   0  0  0  0  0  3  0  0  0  0  0  0
  185.1970  178.0080  140.6490 C   0  0  1  0  0  3  0  0  0  0  0  0
  182.1480  178.9740  139.0450 C   0  0  0  0  0  2  0  0  0  0  0  0
  184.0670  178.2510  141.6390 C   0  0  0  0  0  3  0  0  0  0  0  0
  184.5720  179.4900  138.7160 N   0  0  0  0  0  2  0  0  0  0  0  0
  184.8850  178.1270  139.1500 C   0  0  0  0  0  2  0  0  0  0  0  0
  182.0460  177.8750  140.1190 C   0  0  1  0  0  3  0  0  0  0  0  0
  191.7850  177.4570  143.4320 C   0  0  0  0  0  3  0  0  0  0  0  0
  192.0510  178.6090  143.1270 O   0  0  0  0  0  0  0  0  0  0  0  0
  1  3  1  1  0  0  0
  1 15  1  0  0  0  0
  1  4  1  0  0  0  0
  2 17  1  0  0  0  0
  2  7  1  0  0  0  0
  4  2  1  0  0  0  0
  5 11  1  0  0  0  0
  6 19  1  0  0  0  0
  7 16  1  0  0  0  0
  8 19  2  0  0  0  0
  9  8  1  0  0  0  0
 10  4  1  0  0  0  0
 10 12  1  0  0  0  0
 11  9  1  0  0  0  0
 12 17  1  0  0  0  0
 13 10  1  0  0  0  0
 14  7  1  0  0  0  0
 15 14  1  0  0  0  0
 16 20  1  0  0  0  0
 16  9  2  0  0  0  0
 17  5  1  0  0  0  0
 18  3  1  0  0  0  0
 18 13  1  0  0  0  0
 20  6  2  0  0  0  0
 22 30  1  0  0  0  0
 23 21  1  0  0  0  0
 24 27  2  0  0  0  0
 25 15  1  0  0  0  0
 25 27  1  0  0  0  0
 26 21  1  0  0  0  0
 26 30  1  0  0  0  0
 28 29  1  0  0  0  0
 28 21  1  0  0  0  0
 29 25  1  0  0  0  0
 30 24  1  0  0  0  0
 31  5  1  0  0  0  0
 32 31  2  0  0  0  0
M  END
>  <MODEL>
4

>  <REMARK>
 VINA RESULT:      -8.2      2.303      5.817
  Name = 
  2 active torsions:
  status: ('A' for Active; 'I' for Inactive)
    1  A    between atoms: C_6  and  C_13
    2  A    between atoms: C_16  and  N_27
                            x       y       z     vdW  Elec       q    Type
                         _______ _______ _______ _____ _____    ______ ____

>  <TORSDO>
F 2

$$$$
=
 OpenBabel11052414273D

 32 37  0  0  1  0  0  0  0  0999 V2000
  188.7850  177.2730  143.3030 C   0  0  1  0  0  3  0  0  0  0  0  0
  186.8730  178.1760  142.0780 C   0  0  1  0  0  3  0  0  0  0  0  0
  189.1020  176.0690  142.4220 C   0  0  0  0  0  2  0  0  0  0  0  0
  188.2430  178.4520  142.4880 C   0  0  2  0  0  3  0  0  0  0  0  0
  185.5700  178.7120  140.1030 C   0  0  1  0  0  3  0  0  0  0  0  0
  182.4860  179.1800  144.2020 C   0  0  0  0  0  3  0  0  0  0  0  0
  186.0540  178.2800  143.3370 C   0  0  2  0  0  3  0  0  0  0  0  0
  182.5000  178.5360  141.8740 C   0  0  0  0  0  3  0  0  0  0  0  0
  183.8740  178.2770  141.9390 C   0  0  0  0  0  0  0  0  0  0  0  0
  188.8370  178.7670  141.1440 C   0  0  2  0  0  3  0  0  0  0  0  0
  184.5340  177.7460  140.7060 C   0  0  0  0  0  2  0  0  0  0  0  0
  187.8030  179.4120  140.4090 O   0  0  0  0  0  0  0  0  0  0  0  0
  189.2870  177.5060  140.3850 C   0  0  0  0  0  2  0  0  0  0  0  0
  186.4160  177.0370  144.1650 C   0  0  0  0  0  2  0  0  0  0  0  0
  187.8790  176.9060  144.4220 N   0  0  2  0  0  0  0  0  0  0  0  0
  184.5660  178.4690  143.1610 C   0  0  0  0  0  0  0  0  0  0  0  0
  186.6090  179.1780  141.0620 N   0  0  2  0  0  0  0  0  0  0  0  0
  190.0180  176.5110  141.2840 C   0  0  0  0  0  2  0  0  0  0  0  0
  181.8080  178.9870  142.9980 C   0  0  0  0  0  3  0  0  0  0  0  0
  183.8570  178.9250  144.2800 C   0  0  0  0  0  3  0  0  0  0  0  0
  190.8790  176.3910  146.7410 C   0  0  1  0  0  3  0  0  0  0  0  0
  189.4540  179.2890  148.3560 C   0  0  0  0  0  1  0  0  0  0  0  0
  192.0810  175.4750  146.6680 C   0  0  0  0  0  1  0  0  0  0  0  0
  188.4590  176.9740  148.1530 C   0  0  0  0  0  3  0  0  0  0  0  0
  188.2940  177.5980  145.6520 C   0  0  1  0  0  3  0  0  0  0  0  0
  191.0120  177.3110  147.9610 C   0  0  0  0  0  2  0  0  0  0  0  0
  187.9000  176.8740  146.9320 C   0  0  0  0  0  3  0  0  0  0  0  0
  190.7570  177.1260  145.4800 N   0  0  0  0  0  2  0  0  0  0  0  0
  189.7190  178.1570  145.5450 C   0  0  0  0  0  2  0  0  0  0  0  0
  189.6670  177.7960  148.5330 C   0  0  1  0  0  3  0  0  0  0  0  0
  186.1220  178.1150  138.8350 C   0  0  0  0  0  3  0  0  0  0  0  0
  186.1720  178.7670  137.8040 O   0  0  0  0  0  0  0  0  0  0  0  0
  1  3  1  6  0  0  0
  1 15  1  0  0  0  0
  2  4  1  0  0  0  0
  2  7  1  0  0  0  0
  4  1  1  0  0  0  0
  5 11  1  0  0  0  0
  5 17  1  0  0  0  0
  6 20  1  0  0  0  0
  7 14  1  0  0  0  0
  8  9  2  0  0  0  0
  8 19  1  0  0  0  0
  9 16  1  0  0  0  0
 10  4  1  0  0  0  0
 11  9  1  0  0  0  0
 12 17  1  0  0  0  0
 12 10  1  0  0  0  0
 13 10  1  0  0  0  0
 13 18  1  0  0  0  0
 14 15  1  0  0  0  0
 15 25  1  0  0  0  0
 16  7  1  0  0  0  0
 16 20  2  0  0  0  0
 17  2  1  0  0  0  0
 18  3  1  0  0  0  0
 19  6  2  0  0  0  0
 21 26  1  0  0  0  0
 22 30  1  0  0  0  0
 23 21  1  0  0  0  0
 24 30  1  0  0  0  0
 25 27  1  0  0  0  0
 26 30  1  0  0  0  0
 27 24  2  0  0  0  0
 28 29  1  0  0  0  0
 28 21  1  0  0  0  0
 29 25  1  0  0  0  0
 31  5  1  0  0  0  0
 32 31  2  0  0  0  0
M  END
>  <MODEL>
5

>  <REMARK>
 VINA RESULT:      -8.1      2.578      5.847
  Name = 
  2 active torsions:
  status: ('A' for Active; 'I' for Inactive)
    1  A    between atoms: C_6  and  C_13
    2  A    between atoms: C_16  and  N_27
                            x       y       z     vdW  Elec       q    Type
                         _______ _______ _______ _____ _____    ______ ____

>  <TORSDO>
F 2

$$$$
=
 OpenBabel11052414273D

 32 37  0  0  1  0  0  0  0  0999 V2000
  187.2100  177.9560  138.0690 C   0  0  1  0  0  3  0  0  0  0  0  0
  189.1860  177.1100  139.2310 C   0  0  1  0  0  3  0  0  0  0  0  0
  187.8790  178.9590  137.1350 C   0  0  0  0  0  2  0  0  0  0  0  0
  188.1020  176.7380  138.3330 C   0  0  2  0  0  3  0  0  0  0  0  0
  191.5060  176.4330  139.4350 C   0  0  1  0  0  3  0  0  0  0  0  0
  189.6030  176.9880  144.1890 C   0  0  0  0  0  3  0  0  0  0  0  0
  188.5370  177.3040  140.5760 C   0  0  2  0  0  3  0  0  0  0  0  0
  191.6190  177.2540  142.8860 C   0  0  0  0  0  3  0  0  0  0  0  0
  190.8640  177.3510  141.7120 C   0  0  0  0  0  0  0  0  0  0  0  0
  188.9110  176.1470  137.2130 C   0  0  2  0  0  3  0  0  0  0  0  0
  191.6050  177.6000  140.4350 C   0  0  0  0  0  2  0  0  0  0  0  0
  190.0310  175.5250  137.8340 O   0  0  0  0  0  0  0  0  0  0  0  0
  189.4110  177.2090  136.2180 C   0  0  0  0  0  2  0  0  0  0  0  0
  187.7320  178.6080  140.4580 C   0  0  0  0  0  2  0  0  0  0  0  0
  186.7590  178.6000  139.3290 N   0  0  2  0  0  0  0  0  0  0  0  0
  189.4500  177.2710  141.7780 C   0  0  0  0  0  0  0  0  0  0  0  0
  190.1160  176.0010  139.1280 N   0  0  2  0  0  0  0  0  0  0  0  0
  188.3360  178.2370  135.8710 C   0  0  0  0  0  2  0  0  0  0  0  0
  190.9930  177.0710  144.1190 C   0  0  0  0  0  3  0  0  0  0  0  0
  188.8390  177.0850  143.0250 C   0  0  0  0  0  3  0  0  0  0  0  0
  183.2360  180.0760  139.1080 C   0  0  1  0  0  3  0  0  0  0  0  0
  182.3630  176.8150  140.3890 C   0  0  0  0  0  1  0  0  0  0  0  0
  182.7010  181.3610  138.5130 C   0  0  0  0  0  1  0  0  0  0  0  0
  183.6950  178.6320  141.5360 C   0  0  0  0  0  3  0  0  0  0  0  0
  185.4480  178.0640  139.7270 C   0  0  1  0  0  3  0  0  0  0  0  0
  182.0660  179.2270  139.6220 C   0  0  0  0  0  2  0  0  0  0  0  0
  184.9590  178.5630  141.0780 C   0  0  0  0  0  3  0  0  0  0  0  0
  184.0490  179.3830  138.1070 N   0  0  0  0  0  2  0  0  0  0  0  0
  184.4540  178.0500  138.5570 C   0  0  0  0  0  2  0  0  0  0  0  0
  182.4370  178.2810  140.7790 C   0  0  1  0  0  3  0  0  0  0  0  0
  192.3380  176.7530  138.2210 C   0  0  0  0  0  3  0  0  0  0  0  0
  193.5580  176.7570  138.2780 O   0  0  0  0  0  0  0  0  0  0  0  0
  1  3  1  6  0  0  0
  1  4  1  0  0  0  0
  1 15  1  0  0  0  0
  2  7  1  0  0  0  0
  4  2  1  0  0  0  0
  5 11  1  0  0  0  0
  7 16  1  0  0  0  0
  8 19  2  0  0  0  0
  9 16  2  0  0  0  0
  9  8  1  0  0  0  0
 10 12  1  0  0  0  0
 10  4  1  0  0  0  0
 11  9  1  0  0  0  0
 12 17  1  0  0  0  0
 13 10  1  0  0  0  0
 14  7  1  0  0  0  0
 15 25  1  0  0  0  0
 15 14  1  0  0  0  0
 16 20  1  0  0  0  0
 17  2  1  0  0  0  0
 17  5  1  0  0  0  0
 18 13  1  0  0  0  0
 18  3  1  0  0  0  0
 19  6  1  0  0  0  0
 20  6  2  0  0  0  0
 21 26  1  0  0  0  0
 22 30  1  0  0  0  0
 23 21  1  0  0  0  0
 25 27  1  0  0  0  0
 26 30  1  0  0  0  0
 27 24  2  0  0  0  0
 28 29  1  0  0  0  0
 28 21  1  0  0  0  0
 29 25  1  0  0  0  0
 30 24  1  0  0  0  0
 31 32  2  0  0  0  0
 31  5  1  0  0  0  0
M  END
>  <MODEL>
6

>  <REMARK>
 VINA RESULT:      -8.1      3.333      7.556
  Name = 
  2 active torsions:
  status: ('A' for Active; 'I' for Inactive)
    1  A    between atoms: C_6  and  C_13
    2  A    between atoms: C_16  and  N_27
                            x       y       z     vdW  Elec       q    Type
                         _______ _______ _______ _____ _____    ______ ____

>  <TORSDO>
F 2

$$$$
=
 OpenBabel11052414273D

 32 37  0  0  1  0  0  0  0  0999 V2000
  188.3190  177.8620  141.9560 C   0  0  1  0  0  3  0  0  0  0  0  0
  186.4180  178.0180  143.4840 C   0  0  1  0  0  3  0  0  0  0  0  0
  189.2210  178.9280  142.5690 C   0  0  0  0  0  2  0  0  0  0  0  0
  187.4830  177.1400  143.0190 C   0  0  2  0  0  3  0  0  0  0  0  0
  185.3280  178.3480  145.6260 C   0  0  1  0  0  3  0  0  0  0  0  0
  181.7260  178.6700  141.9590 C   0  0  0  0  0  3  0  0  0  0  0  0
  185.4430  178.0980  142.3390 C   0  0  2  0  0  3  0  0  0  0  0  0
  182.3530  179.5560  144.1160 C   0  0  0  0  0  3  0  0  0  0  0  0
  183.6870  179.2030  143.8900 C   0  0  0  0  0  0  0  0  0  0  0  0
  188.1000  176.7890  144.3430 C   0  0  2  0  0  3  0  0  0  0  0  0
  184.6850  179.5690  144.9430 C   0  0  0  0  0  2  0  0  0  0  0  0
  187.0200  176.7430  145.2700 O   0  0  0  0  0  0  0  0  0  0  0  0
  189.1270  177.8340  144.8150 C   0  0  0  0  0  2  0  0  0  0  0  0
  186.1400  178.9510  141.2670 C   0  0  0  0  0  2  0  0  0  0  0  0
  187.4750  178.4210  140.8690 N   0  0  2  0  0  0  0  0  0  0  0  0
  184.0500  178.5770  142.6710 C   0  0  0  0  0  0  0  0  0  0  0  0
  185.9340  177.3660  144.6860 N   0  0  2  0  0  0  0  0  0  0  0  0
  190.0470  178.3000  143.6890 C   0  0  0  0  0  2  0  0  0  0  0  0
  181.3750  179.2900  143.1580 C   0  0  0  0  0  3  0  0  0  0  0  0
  183.0550  178.3140  141.7200 C   0  0  0  0  0  3  0  0  0  0  0  0
  188.6530  178.6200  137.2330 C   0  0  1  0  0  3  0  0  0  0  0  0
  187.4380  175.2200  137.2110 C   0  0  0  0  0  1  0  0  0  0  0  0
  189.4380  179.6640  136.4690 C   0  0  0  0  0  1  0  0  0  0  0  0
  186.1060  177.3460  137.5180 C   0  0  0  0  0  3  0  0  0  0  0  0
  187.3850  177.4600  139.7580 C   0  0  1  0  0  3  0  0  0  0  0  0
  188.3970  177.4090  136.3270 C   0  0  0  0  0  2  0  0  0  0  0  0
  186.2300  177.7240  138.8040 C   0  0  0  0  0  3  0  0  0  0  0  0
  189.3780  178.2740  138.4580 N   0  0  0  0  0  2  0  0  0  0  0  0
  188.7630  177.1440  139.1580 C   0  0  0  0  0  2  0  0  0  0  0  0
  187.1300  176.6110  136.6860 C   0  0  1  0  0  3  0  0  0  0  0  0
  186.2600  178.8240  146.7100 C   0  0  0  0  0  3  0  0  0  0  0  0
  185.9030  179.6640  147.5210 O   0  0  0  0  0  0  0  0  0  0  0  0
  1  3  1  1  0  0  0
  1  4  1  0  0  0  0
  2 17  1  0  0  0  0
  3 18  1  0  0  0  0
  4  2  1  0  0  0  0
  4 10  1  0  0  0  0
  5 31  1  0  0  0  0
  6 19  1  0  0  0  0
  7 16  1  0  0  0  0
  7  2  1  0  0  0  0
  9  8  1  0  0  0  0
  9 11  1  0  0  0  0
 10 13  1  0  0  0  0
 10 12  1  0  0  0  0
 11  5  1  0  0  0  0
 14  7  1  0  0  0  0
 15 14  1  0  0  0  0
 15  1  1  0  0  0  0
 16  9  2  0  0  0  0
 17 12  1  0  0  0  0
 17  5  1  0  0  0  0
 18 13  1  0  0  0  0
 19  8  2  0  0  0  0
 20  6  2  0  0  0  0
 20 16  1  0  0  0  0
 21 28  1  0  0  0  0
 23 21  1  0  0  0  0
 24 27  2  0  0  0  0
 25 15  1  0  0  0  0
 26 30  1  0  0  0  0
 26 21  1  0  0  0  0
 27 25  1  0  0  0  0
 28 29  1  0  0  0  0
 29 25  1  0  0  0  0
 30 22  1  0  0  0  0
 30 24  1  0  0  0  0
 31 32  2  0  0  0  0
M  END
>  <MODEL>
7

>  <REMARK>
 VINA RESULT:      -7.7      1.542      1.970
  Name = 
  2 active torsions:
  status: ('A' for Active; 'I' for Inactive)
    1  A    between atoms: C_6  and  C_13
    2  A    between atoms: C_16  and  N_27
                            x       y       z     vdW  Elec       q    Type
                         _______ _______ _______ _____ _____    ______ ____

>  <TORSDO>
F 2

$$$$
=
 OpenBabel11052414273D

 32 37  0  0  1  0  0  0  0  0999 V2000
  189.3120  177.3030  140.6990 C   0  0  1  0  0  3  0  0  0  0  0  0
  188.4000  177.2880  142.9670 C   0  0  1  0  0  3  0  0  0  0  0  0
  190.5400  178.1780  140.9290 C   0  0  0  0  0  2  0  0  0  0  0  0
  188.9810  176.4490  141.9280 C   0  0  2  0  0  3  0  0  0  0  0  0
  188.5090  177.2800  145.3900 C   0  0  1  0  0  3  0  0  0  0  0  0
  183.6930  178.5030  144.0330 C   0  0  0  0  0  3  0  0  0  0  0  0
  187.0240  177.6410  142.4670 C   0  0  2  0  0  3  0  0  0  0  0  0
  185.3830  178.9290  145.7050 C   0  0  0  0  0  3  0  0  0  0  0  0
  186.3870  178.5430  144.8100 C   0  0  0  0  0  0  0  0  0  0  0  0
  190.0910  175.8190  142.7220 C   0  0  2  0  0  3  0  0  0  0  0  0
  187.8040  178.6440  145.2790 C   0  0  0  0  0  2  0  0  0  0  0  0
  189.5810  175.6670  144.0420 O   0  0  0  0  0  0  0  0  0  0  0  0
  191.3580  176.6920  142.7660 C   0  0  0  0  0  2  0  0  0  0  0  0
  187.2490  178.6350  141.3160 C   0  0  0  0  0  2  0  0  0  0  0  0
  188.1460  178.1070  140.2490 N   0  0  2  0  0  0  0  0  0  0  0  0
  186.0370  178.1340  143.4980 C   0  0  0  0  0  0  0  0  0  0  0  0
  188.4510  176.4540  144.1530 N   0  0  2  0  0  0  0  0  0  0  0  0
  191.6950  177.3030  141.4070 C   0  0  0  0  0  2  0  0  0  0  0  0
  184.0420  178.9080  145.3210 C   0  0  0  0  0  3  0  0  0  0  0  0
  184.6860  178.1160  143.1300 C   0  0  0  0  0  3  0  0  0  0  0  0
  188.6550  177.8670  136.4640 C   0  0  1  0  0  3  0  0  0  0  0  0
  185.9090  175.5440  136.7770 C   0  0  0  0  0  1  0  0  0  0  0  0
  189.7220  178.4130  135.5400 C   0  0  0  0  0  1  0  0  0  0  0  0
  185.8980  178.0330  137.2160 C   0  0  0  0  0  3  0  0  0  0  0  0
  187.4060  177.3770  139.2080 C   0  0  1  0  0  3  0  0  0  0  0  0
  187.6810  176.9960  135.6610 C   0  0  0  0  0  2  0  0  0  0  0  0
  186.4020  178.2330  138.4480 C   0  0  0  0  0  3  0  0  0  0  0  0
  189.2950  177.1440  137.5650 N   0  0  0  0  0  2  0  0  0  0  0  0
  188.3190  176.4430  138.4010 C   0  0  0  0  0  2  0  0  0  0  0  0
  186.2620  176.9260  136.2560 C   0  0  1  0  0  3  0  0  0  0  0  0
  189.8990  177.4860  145.9330 C   0  0  0  0  0  3  0  0  0  0  0  0
  190.1460  177.3000  147.1140 O   0  0  0  0  0  0  0  0  0  0  0  0
  1  3  1  1  0  0  0
  1  4  1  0  0  0  0
  2 17  1  0  0  0  0
  3 18  1  0  0  0  0
  4 10  1  0  0  0  0
  4  2  1  0  0  0  0
  5 31  1  0  0  0  0
  6 19  1  0  0  0  0
  7  2  1  0  0  0  0
  7 16  1  0  0  0  0
  9 11  1  0  0  0  0
  9  8  1  0  0  0  0
 10 13  1  0  0  0  0
 10 12  1  0  0  0  0
 11  5  1  0  0  0  0
 12 17  1  0  0  0  0
 14  7  1  0  0  0  0
 15  1  1  0  0  0  0
 15 14  1  0  0  0  0
 16  9  2  0  0  0  0
 17  5  1  0  0  0  0
 18 13  1  0  0  0  0
 19  8  2  0  0  0  0
 20 16  1  0  0  0  0
 20  6  2  0  0  0  0
 21 28  1  0  0  0  0
 23 21  1  0  0  0  0
 24 27  2  0  0  0  0
 25 15  1  0  0  0  0
 26 30  1  0  0  0  0
 26 21  1  0  0  0  0
 27 25  1  0  0  0  0
 28 29  1  0  0  0  0
 29 25  1  0  0  0  0
 30 22  1  0  0  0  0
 30 24  1  0  0  0  0
 31 32  2  0  0  0  0
M  END
>  <MODEL>
8

>  <REMARK>
 VINA RESULT:      -7.5      2.055      3.072
  Name = 
  2 active torsions:
  status: ('A' for Active; 'I' for Inactive)
    1  A    between atoms: C_6  and  C_13
    2  A    between atoms: C_16  and  N_27
                            x       y       z     vdW  Elec       q    Type
                         _______ _______ _______ _____ _____    ______ ____

>  <TORSDO>
F 2

$$$$
=
 OpenBabel11052414273D

 32 37  0  0  1  0  0  0  0  0999 V2000
  181.7780  177.9220  138.5110 C   0  0  1  0  0  3  0  0  0  0  0  0
  181.8440  178.8720  140.7620 C   0  0  1  0  0  3  0  0  0  0  0  0
  180.5510  177.0280  138.6530 C   0  0  0  0  0  2  0  0  0  0  0  0
  181.6580  179.1960  139.3550 C   0  0  2  0  0  3  0  0  0  0  0  0
  180.9000  179.7320  142.8240 C   0  0  1  0  0  3  0  0  0  0  0  0
  185.8930  178.7770  143.6550 C   0  0  0  0  0  3  0  0  0  0  0  0
  183.3100  178.5560  140.9040 C   0  0  2  0  0  3  0  0  0  0  0  0
  183.7290  178.7490  144.7280 C   0  0  0  0  0  3  0  0  0  0  0  0
  183.0970  178.6480  143.4840 C   0  0  0  0  0  0  0  0  0  0  0  0
  180.3380  179.9100  139.4460 C   0  0  2  0  0  3  0  0  0  0  0  0
  181.6060  178.5290  143.4750 C   0  0  0  0  0  2  0  0  0  0  0  0
  180.3560  180.5930  140.6950 O   0  0  0  0  0  0  0  0  0  0  0  0
  179.1390  178.9460  139.4140 C   0  0  0  0  0  2  0  0  0  0  0  0
  183.5040  177.1960  140.2150 C   0  0  0  0  0  2  0  0  0  0  0  0
  183.0310  177.1790  138.8010 N   0  0  2  0  0  0  0  0  0  0  0  0
  183.8790  178.6050  142.3010 C   0  0  0  0  0  0  0  0  0  0  0  0
  181.3810  180.0600  141.4540 N   0  0  2  0  0  0  0  0  0  0  0  0
  179.2980  177.8490  138.3630 C   0  0  0  0  0  2  0  0  0  0  0  0
  185.1200  178.8150  144.8150 C   0  0  0  0  0  3  0  0  0  0  0  0
  185.2740  178.6750  142.4070 C   0  0  0  0  0  3  0  0  0  0  0  0
  185.8800  175.2060  137.1780 C   0  0  1  0  0  3  0  0  0  0  0  0
  186.3950  178.3580  135.4960 C   0  0  0  0  0  1  0  0  0  0  0  0
  186.2610  173.7420  137.2180 C   0  0  0  0  0  1  0  0  0  0  0  0
  186.6500  177.8500  137.9580 C   0  0  0  0  0  3  0  0  0  0  0  0
  184.0840  177.5810  137.8560 C   0  0  1  0  0  3  0  0  0  0  0  0
  186.8140  175.9500  136.2160 C   0  0  0  0  0  2  0  0  0  0  0  0
  185.4240  177.8810  138.5120 C   0  0  0  0  0  3  0  0  0  0  0  0
  184.4670  175.3260  136.8120 N   0  0  0  0  0  2  0  0  0  0  0  0
  184.0760  176.7190  136.5850 C   0  0  0  0  0  2  0  0  0  0  0  0
  186.9980  177.4430  136.5470 C   0  0  1  0  0  3  0  0  0  0  0  0
  179.4090  179.5460  142.9290 C   0  0  0  0  0  3  0  0  0  0  0  0
  178.9310  178.4570  143.2070 O   0  0  0  0  0  0  0  0  0  0  0  0
  1  3  1  1  0  0  0
  1 15  1  0  0  0  0
  1  4  1  0  0  0  0
  2  7  1  0  0  0  0
  2 17  1  0  0  0  0
  4 10  1  0  0  0  0
  4  2  1  0  0  0  0
  5 31  1  0  0  0  0
  5 11  1  0  0  0  0
  6 19  1  0  0  0  0
  7 16  1  0  0  0  0
  8 19  2  0  0  0  0
  9  8  1  0  0  0  0
 10 12  1  0  0  0  0
 11  9  1  0  0  0  0
 12 17  1  0  0  0  0
 13 10  1  0  0  0  0
 14  7  1  0  0  0  0
 15 14  1  0  0  0  0
 16 20  1  0  0  0  0
 16  9  2  0  0  0  0
 17  5  1  0  0  0  0
 18  3  1  0  0  0  0
 18 13  1  0  0  0  0
 20  6  2  0  0  0  0
 21 23  1  0  0  0  0
 22 30  1  0  0  0  0
 24 27  2  0  0  0  0
 25 27  1  0  0  0  0
 25 15  1  0  0  0  0
 26 30  1  0  0  0  0
 26 21  1  0  0  0  0
 28 21  1  0  0  0  0
 29 28  1  0  0  0  0
 29 25  1  0  0  0  0
 30 24  1  0  0  0  0
 31 32  2  0  0  0  0
M  END
>  <MODEL>
9

>  <REMARK>
 VINA RESULT:      -7.5      4.230      6.783
  Name = 
  2 active torsions:
  status: ('A' for Active; 'I' for Inactive)
    1  A    between atoms: C_6  and  C_13
    2  A    between atoms: C_16  and  N_27
                            x       y       z     vdW  Elec       q    Type
                         _______ _______ _______ _____ _____    ______ ____

>  <TORSDO>
F 2

$$$$
