=
 OpenBabel11052415213D

 37 40  0  0  1  0  0  0  0  0999 V2000
  190.1770  176.8840  140.4990 C   0  0  1  0  0  0  0  0  0  0  0  0
  190.6440  176.5520  139.0540 C   0  0  2  0  0  3  0  0  0  0  0  0
  188.1830  178.9910  137.5910 N   0  0  0  0  0  1  0  0  0  0  0  0
  190.1260  177.5940  138.0520 C   0  0  2  0  0  3  0  0  0  0  0  0
  188.5790  177.6440  137.9720 C   0  0  1  0  0  0  0  0  0  0  0  0
  188.8450  177.6780  140.5040 C   0  0  0  0  0  2  0  0  0  0  0  0
  187.9400  177.3060  139.3310 C   0  0  0  0  0  2  0  0  0  0  0  0
  190.8310  177.5010  136.7040 C   0  0  0  0  0  1  0  0  0  0  0  0
  189.9890  175.6910  141.2040 O   0  0  0  0  0  1  0  0  0  0  0  0
  191.3460  177.6660  141.1560 C   0  0  2  0  0  3  0  0  0  0  0  0
  191.7740  177.3150  142.5520 C   0  0  1  0  0  3  0  0  0  0  0  0
  190.9310  178.4110  142.2810 O   0  0  0  0  0  0  0  0  0  0  0  0
  190.9840  176.2100  143.2500 C   0  0  1  0  0  3  0  0  0  0  0  0
  191.8620  175.3220  143.8740 O   0  0  0  0  0  1  0  0  0  0  0  0
  189.7950  177.9720  146.4960 C   0  0  0  0  0  2  0  0  0  0  0  0
  188.5430  176.6160  144.0100 C   0  0  0  0  0  2  0  0  0  0  0  0
  190.5530  177.3050  145.3790 C   0  0  0  0  0  3  0  0  0  0  0  0
  187.7380  177.8270  144.4560 C   0  0  0  0  0  2  0  0  0  0  0  0
  188.1370  177.5100  148.2810 C   0  0  0  0  0  1  0  0  0  0  0  0
  187.3550  177.7220  145.9350 C   0  0  0  0  0  2  0  0  0  0  0  0
  188.5000  177.2500  146.8350 C   0  0  1  0  0  3  0  0  0  0  0  0
  190.0280  176.7760  144.2550 C   0  0  0  0  0  0  0  0  0  0  0  0
  191.3350  174.7620  137.9430 C   0  0  0  0  0  1  0  0  0  0  0  0
  190.2510  175.2650  138.6650 O   0  0  0  0  0  0  0  0  0  0  0  0
  188.0500  176.6480  136.9360 C   0  0  0  0  0  2  0  0  0  0  0  0
  187.1130  175.7760  137.5020 O   0  0  0  0  0  0  0  0  0  0  0  0
  186.0580  175.7510  136.5880 C   0  0  0  0  0  2  0  0  0  0  0  0
  184.9370  175.0010  137.1490 N   0  0  0  0  0  0  0  0  0  0  0  0
  183.8360  177.1030  138.0760 C   0  0  0  0  0  2  0  0  0  0  0  0
  183.7350  175.8420  137.2360 C   0  0  2  0  0  0  0  0  0  0  0  0
  181.7020  176.0720  138.6040 N   0  0  0  0  0  1  0  0  0  0  0  0
  183.1420  175.8690  138.6400 C   0  0  2  0  0  3  0  0  0  0  0  0
  182.7840  175.7820  136.1940 O   0  0  0  0  0  0  0  0  0  0  0  0
  181.6330  177.5240  135.0510 C   0  0  0  0  0  1  0  0  0  0  0  0
  182.9760  176.9110  135.3890 C   0  0  0  0  0  2  0  0  0  0  0  0
  184.6910  173.7610  136.3970 C   0  0  0  0  0  2  0  0  0  0  0  0
  184.4390  172.5440  137.2850 C   0  0  0  0  0  1  0  0  0  0  0  0
  1  6  1  0  0  0  0
  1 10  1  0  0  0  0
  1  9  1  1  0  0  0
  2 24  1  6  0  0  0
  2  1  1  0  0  0  0
  4  8  1  6  0  0  0
  4  2  1  0  0  0  0
  5  3  1  6  0  0  0
  5  4  1  0  0  0  0
  5  7  1  0  0  0  0
  7  6  1  0  0  0  0
 10 12  1  1  0  0  0
 10 11  1  0  0  0  0
 11 13  1  1  0  0  0
 12 11  1  0  0  0  0
 13 14  1  1  0  0  0
 13 22  1  0  0  0  0
 15 21  1  0  0  0  0
 16 22  1  0  0  0  0
 16 18  1  0  0  0  0
 17 15  1  0  0  0  0
 18 20  1  0  0  0  0
 20 21  1  0  0  0  0
 21 19  1  1  0  0  0
 22 17  2  0  0  0  0
 23 24  1  0  0  0  0
 25 26  1  0  0  0  0
 25  5  1  0  0  0  0
 27 28  1  0  0  0  0
 27 26  1  0  0  0  0
 28 30  1  0  0  0  0
 29 32  1  0  0  0  0
 30 33  1  6  0  0  0
 30 29  1  0  0  0  0
 30 32  1  0  0  0  0
 32 31  1  6  0  0  0
 34 35  1  0  0  0  0
 35 33  1  0  0  0  0
 36 28  1  0  0  0  0
 36 37  1  0  0  0  0
M  END
>  <MODEL>
1

>  <REMARK>
 VINA RESULT:      -6.0      0.000      0.000
  Name = 
  12 active torsions:
  status: ('A' for Active; 'I' for Inactive)
    1  A    between atoms: C_1  and  C_20
    2  A    between atoms: C_3  and  C_21
    3  A    between atoms: C_3  and  C_30
    4  A    between atoms: C_5  and  O_23
    5  A    between atoms: C_6  and  O_8
    6  A    between atoms: C_6  and  N_31
    7  A    between atoms: C_7  and  O_27
    8  A    between atoms: C_7  and  N_31
    9  A    between atoms: O_8  and  C_19
   10  A    between atoms: C_10  and  C_26
   11  A    between atoms: C_10  and  O_27
   12  A    between atoms: C_14  and  N_31
                            x       y       z     vdW  Elec       q    Type
                         _______ _______ _______ _____ _____    ______ ____

>  <TORSDO>
F 12

$$$$
=
 OpenBabel11052415213D

 37 40  0  0  1  0  0  0  0  0999 V2000
  189.7070  175.4660  136.5390 C   0  0  1  0  0  0  0  0  0  0  0  0
  188.2070  175.8700  136.5000 C   0  0  2  0  0  3  0  0  0  0  0  0
  189.0430  179.4490  137.2940 N   0  0  0  0  0  1  0  0  0  0  0  0
  188.0450  177.3950  136.4440 C   0  0  2  0  0  3  0  0  0  0  0  0
  188.6210  178.1140  137.6900 C   0  0  1  0  0  0  0  0  0  0  0  0
  190.5830  176.5740  137.1800 C   0  0  0  0  0  2  0  0  0  0  0  0
  189.8360  177.3580  138.2570 C   0  0  0  0  0  2  0  0  0  0  0  0
  186.6290  177.8130  136.0640 C   0  0  0  0  0  1  0  0  0  0  0  0
  189.8480  174.2960  137.2910 O   0  0  0  0  0  1  0  0  0  0  0  0
  190.1050  175.1600  135.0700 C   0  0  2  0  0  3  0  0  0  0  0  0
  191.4830  174.6400  134.7730 C   0  0  1  0  0  3  0  0  0  0  0  0
  191.1420  175.9970  134.6060 O   0  0  0  0  0  0  0  0  0  0  0  0
  192.4230  174.4810  135.9660 C   0  0  1  0  0  3  0  0  0  0  0  0
  192.4860  173.1390  136.3440 O   0  0  0  0  0  1  0  0  0  0  0  0
  196.0550  174.4310  134.5990 C   0  0  0  0  0  2  0  0  0  0  0  0
  194.1790  176.3770  136.1100 C   0  0  0  0  0  2  0  0  0  0  0  0
  194.6510  174.1290  135.0550 C   0  0  0  0  0  3  0  0  0  0  0  0
  195.0640  177.1100  135.1120 C   0  0  0  0  0  2  0  0  0  0  0  0
  198.3010  175.0370  135.4570 C   0  0  0  0  0  1  0  0  0  0  0  0
  196.5430  176.7860  135.3420 C   0  0  0  0  0  2  0  0  0  0  0  0
  196.8160  175.3000  135.5890 C   0  0  1  0  0  3  0  0  0  0  0  0
  193.7970  174.9880  135.6470 C   0  0  0  0  0  0  0  0  0  0  0  0
  186.5890  174.4480  137.0300 C   0  0  0  0  0  1  0  0  0  0  0  0
  187.5000  175.3450  137.5900 O   0  0  0  0  0  0  0  0  0  0  0  0
  187.5680  178.2240  138.7970 C   0  0  0  0  0  2  0  0  0  0  0  0
  188.0360  177.6770  139.9970 O   0  0  0  0  0  0  0  0  0  0  0  0
  187.7330  178.6380  140.9630 C   0  0  0  0  0  2  0  0  0  0  0  0
  187.0100  178.0160  142.0690 N   0  0  0  0  0  0  0  0  0  0  0  0
  188.0050  176.2220  143.5780 C   0  0  0  0  0  2  0  0  0  0  0  0
  187.9220  177.6830  143.1710 C   0  0  2  0  0  0  0  0  0  0  0  0
  187.9150  177.5210  145.6270 N   0  0  0  0  0  1  0  0  0  0  0  0
  187.1830  177.1960  144.4130 C   0  0  2  0  0  3  0  0  0  0  0  0
  189.0180  178.5340  143.4320 O   0  0  0  0  0  0  0  0  0  0  0  0
  191.3240  178.2720  143.9560 C   0  0  0  0  0  1  0  0  0  0  0  0
  190.1790  177.8430  143.0630 C   0  0  0  0  0  2  0  0  0  0  0  0
  185.8870  178.8560  142.5160 C   0  0  0  0  0  2  0  0  0  0  0  0
  184.5170  178.2230  142.2830 C   0  0  0  0  0  1  0  0  0  0  0  0
  1  6  1  0  0  0  0
  1  9  1  1  0  0  0
  2  1  1  0  0  0  0
  2 24  1  1  0  0  0
  4  8  1  1  0  0  0
  4  2  1  0  0  0  0
  4  5  1  0  0  0  0
  5  3  1  6  0  0  0
  5  7  1  0  0  0  0
  5 25  1  0  0  0  0
  6  7  1  0  0  0  0
 10 12  1  6  0  0  0
 10  1  1  0  0  0  0
 11 10  1  0  0  0  0
 11 13  1  1  0  0  0
 12 11  1  0  0  0  0
 13 14  1  6  0  0  0
 15 17  1  0  0  0  0
 15 21  1  0  0  0  0
 17 22  2  0  0  0  0
 18 20  1  0  0  0  0
 18 16  1  0  0  0  0
 20 21  1  0  0  0  0
 21 19  1  6  0  0  0
 22 13  1  0  0  0  0
 22 16  1  0  0  0  0
 23 24  1  0  0  0  0
 25 26  1  0  0  0  0
 26 27  1  0  0  0  0
 27 28  1  0  0  0  0
 28 36  1  0  0  0  0
 28 30  1  0  0  0  0
 29 32  1  0  0  0  0
 30 33  1  1  0  0  0
 30 29  1  0  0  0  0
 30 32  1  0  0  0  0
 32 31  1  1  0  0  0
 35 33  1  0  0  0  0
 35 34  1  0  0  0  0
 37 36  1  0  0  0  0
M  END
>  <MODEL>
2

>  <REMARK>
 VINA RESULT:      -5.9      3.440      8.360
  Name = 
  12 active torsions:
  status: ('A' for Active; 'I' for Inactive)
    1  A    between atoms: C_1  and  C_20
    2  A    between atoms: C_3  and  C_21
    3  A    between atoms: C_3  and  C_30
    4  A    between atoms: C_5  and  O_23
    5  A    between atoms: C_6  and  O_8
    6  A    between atoms: C_6  and  N_31
    7  A    between atoms: C_7  and  O_27
    8  A    between atoms: C_7  and  N_31
    9  A    between atoms: O_8  and  C_19
   10  A    between atoms: C_10  and  C_26
   11  A    between atoms: C_10  and  O_27
   12  A    between atoms: C_14  and  N_31
                            x       y       z     vdW  Elec       q    Type
                         _______ _______ _______ _____ _____    ______ ____

>  <TORSDO>
F 12

$$$$
=
 OpenBabel11052415213D

 37 40  0  0  1  0  0  0  0  0999 V2000
  189.2050  177.1400  139.7040 C   0  0  1  0  0  0  0  0  0  0  0  0
  189.6460  176.7970  138.2540 C   0  0  2  0  0  3  0  0  0  0  0  0
  187.5050  179.5470  136.8440 N   0  0  0  0  0  1  0  0  0  0  0  0
  189.2650  177.9200  137.2790 C   0  0  2  0  0  3  0  0  0  0  0  0
  187.7350  178.1530  137.1890 C   0  0  1  0  0  0  0  0  0  0  0  0
  187.9760  178.0840  139.7220 C   0  0  0  0  0  2  0  0  0  0  0  0
  187.0470  177.8540  138.5320 C   0  0  0  0  0  2  0  0  0  0  0  0
  189.9700  177.7820  135.9350 C   0  0  0  0  0  1  0  0  0  0  0  0
  188.8710  175.9580  140.3730 O   0  0  0  0  0  1  0  0  0  0  0  0
  190.4500  177.7600  140.3930 C   0  0  2  0  0  3  0  0  0  0  0  0
  190.8300  177.3070  141.7740 C   0  0  1  0  0  3  0  0  0  0  0  0
  190.1150  178.5000  141.5470 O   0  0  0  0  0  0  0  0  0  0  0  0
  189.9200  176.2690  142.4260 C   0  0  1  0  0  3  0  0  0  0  0  0
  190.6670  175.1490  142.7960 O   0  0  0  0  0  1  0  0  0  0  0  0
  189.5040  178.0270  145.8610 C   0  0  0  0  0  2  0  0  0  0  0  0
  187.7160  176.6800  143.7210 C   0  0  0  0  0  2  0  0  0  0  0  0
  189.9860  177.3600  144.6000 C   0  0  0  0  0  3  0  0  0  0  0  0
  187.0360  177.8930  144.3400 C   0  0  0  0  0  2  0  0  0  0  0  0
  188.2910  177.5650  147.9750 C   0  0  0  0  0  1  0  0  0  0  0  0
  186.9980  177.7850  145.8670 C   0  0  0  0  0  2  0  0  0  0  0  0
  188.3160  177.3070  146.4830 C   0  0  1  0  0  3  0  0  0  0  0  0
  189.2180  176.8360  143.6230 C   0  0  0  0  0  0  0  0  0  0  0  0
  190.2120  174.8260  137.4090 C   0  0  0  0  0  1  0  0  0  0  0  0
  189.1100  175.5750  137.8240 O   0  0  0  0  0  0  0  0  0  0  0  0
  187.1050  177.2560  136.1190 C   0  0  0  0  0  2  0  0  0  0  0  0
  186.0730  176.4770  136.6540 O   0  0  0  0  0  0  0  0  0  0  0  0
  185.0960  176.4550  135.6580 C   0  0  0  0  0  2  0  0  0  0  0  0
  183.7860  176.2110  136.2560 N   0  0  0  0  0  0  0  0  0  0  0  0
  183.3670  174.3210  134.6010 C   0  0  0  0  0  2  0  0  0  0  0  0
  183.3580  174.8230  136.0340 C   0  0  2  0  0  0  0  0  0  0  0  0
  181.3010  173.5400  135.6100 N   0  0  0  0  0  1  0  0  0  0  0  0
  182.0520  174.7330  135.2530 C   0  0  2  0  0  3  0  0  0  0  0  0
  183.4790  173.8940  137.0910 O   0  0  0  0  0  0  0  0  0  0  0  0
  185.6550  173.1200  137.6670 C   0  0  0  0  0  1  0  0  0  0  0  0
  184.4750  172.9790  136.7280 C   0  0  0  0  0  2  0  0  0  0  0  0
  183.7730  176.5710  137.6830 C   0  0  0  0  0  2  0  0  0  0  0  0
  183.3060  178.0010  137.9500 C   0  0  0  0  0  1  0  0  0  0  0  0
  1  6  1  0  0  0  0
  1  9  1  1  0  0  0
  1 10  1  0  0  0  0
  2 24  1  6  0  0  0
  2  1  1  0  0  0  0
  4  8  1  6  0  0  0
  4  2  1  0  0  0  0
  5  3  1  6  0  0  0
  5  4  1  0  0  0  0
  5  7  1  0  0  0  0
  7  6  1  0  0  0  0
 10 12  1  1  0  0  0
 10 11  1  0  0  0  0
 11 13  1  1  0  0  0
 12 11  1  0  0  0  0
 13 14  1  1  0  0  0
 13 22  1  0  0  0  0
 15 21  1  0  0  0  0
 16 18  1  0  0  0  0
 17 15  1  0  0  0  0
 18 20  1  0  0  0  0
 20 21  1  0  0  0  0
 21 19  1  1  0  0  0
 22 16  1  0  0  0  0
 22 17  2  0  0  0  0
 23 24  1  0  0  0  0
 25 26  1  0  0  0  0
 25  5  1  0  0  0  0
 27 28  1  0  0  0  0
 27 26  1  0  0  0  0
 28 36  1  0  0  0  0
 29 32  1  0  0  0  0
 29 30  1  0  0  0  0
 30 28  1  0  0  0  0
 30 33  1  1  0  0  0
 32 31  1  1  0  0  0
 32 30  1  0  0  0  0
 35 33  1  0  0  0  0
 35 34  1  0  0  0  0
 36 37  1  0  0  0  0
M  END
>  <MODEL>
3

>  <REMARK>
 VINA RESULT:      -5.9      1.415      2.335
  Name = 
  12 active torsions:
  status: ('A' for Active; 'I' for Inactive)
    1  A    between atoms: C_1  and  C_20
    2  A    between atoms: C_3  and  C_21
    3  A    between atoms: C_3  and  C_30
    4  A    between atoms: C_5  and  O_23
    5  A    between atoms: C_6  and  O_8
    6  A    between atoms: C_6  and  N_31
    7  A    between atoms: C_7  and  O_27
    8  A    between atoms: C_7  and  N_31
    9  A    between atoms: O_8  and  C_19
   10  A    between atoms: C_10  and  C_26
   11  A    between atoms: C_10  and  O_27
   12  A    between atoms: C_14  and  N_31
                            x       y       z     vdW  Elec       q    Type
                         _______ _______ _______ _____ _____    ______ ____

>  <TORSDO>
F 12

$$$$
=
 OpenBabel11052415213D

 37 40  0  0  1  0  0  0  0  0999 V2000
  189.8790  175.6260  136.5140 C   0  0  1  0  0  0  0  0  0  0  0  0
  188.3640  175.9680  136.5720 C   0  0  2  0  0  3  0  0  0  0  0  0
  189.0980  179.5040  137.6220 N   0  0  0  0  0  1  0  0  0  0  0  0
  188.1420  177.4850  136.6480 C   0  0  2  0  0  3  0  0  0  0  0  0
  188.7460  178.1250  137.9240 C   0  0  1  0  0  0  0  0  0  0  0  0
  190.7400  176.7140  137.2070 C   0  0  0  0  0  2  0  0  0  0  0  0
  190.0130  177.3770  138.3750 C   0  0  0  0  0  2  0  0  0  0  0  0
  186.6950  177.8720  136.3640 C   0  0  0  0  0  1  0  0  0  0  0  0
  190.0980  174.4050  137.1600 O   0  0  0  0  0  1  0  0  0  0  0  0
  190.2210  175.4560  135.0090 C   0  0  2  0  0  3  0  0  0  0  0  0
  191.5470  174.8680  134.6170 C   0  0  1  0  0  3  0  0  0  0  0  0
  191.3130  176.2580  134.6110 O   0  0  0  0  0  0  0  0  0  0  0  0
  192.4950  174.5040  135.7580 C   0  0  1  0  0  3  0  0  0  0  0  0
  192.4950  173.1220  135.9510 O   0  0  0  0  0  1  0  0  0  0  0  0
  196.1940  174.3470  134.5940 C   0  0  0  0  0  2  0  0  0  0  0  0
  194.2570  176.3980  135.8710 C   0  0  0  0  0  2  0  0  0  0  0  0
  194.7660  174.0830  134.9930 C   0  0  0  0  0  3  0  0  0  0  0  0
  195.1990  177.0580  134.8760 C   0  0  0  0  0  2  0  0  0  0  0  0
  198.3960  174.9980  135.5300 C   0  0  0  0  0  1  0  0  0  0  0  0
  196.6610  176.7430  135.2060 C   0  0  0  0  0  2  0  0  0  0  0  0
  196.9080  175.2760  135.5640 C   0  0  1  0  0  3  0  0  0  0  0  0
  193.8880  174.9830  135.4800 C   0  0  0  0  0  0  0  0  0  0  0  0
  186.7800  174.4920  137.0520 C   0  0  0  0  0  1  0  0  0  0  0  0
  187.7280  175.3280  137.6440 O   0  0  0  0  0  0  0  0  0  0  0  0
  187.7400  178.1010  139.0800 C   0  0  0  0  0  2  0  0  0  0  0  0
  188.2470  178.7570  140.2060 O   0  0  0  0  0  0  0  0  0  0  0  0
  188.0520  177.8570  141.2550 C   0  0  0  0  0  2  0  0  0  0  0  0
  188.8250  178.2820  142.4200 N   0  0  0  0  0  0  0  0  0  0  0  0
  187.4350  176.4790  143.5610 C   0  0  0  0  0  2  0  0  0  0  0  0
  188.2280  177.7700  143.6610 C   0  0  2  0  0  0  0  0  0  0  0  0
  186.1580  177.9850  144.9740 N   0  0  0  0  0  1  0  0  0  0  0  0
  186.7040  177.8150  143.6380 C   0  0  2  0  0  3  0  0  0  0  0  0
  188.8100  178.1280  144.8970 O   0  0  0  0  0  0  0  0  0  0  0  0
  189.5100  177.1280  146.9400 C   0  0  0  0  0  1  0  0  0  0  0  0
  189.3780  176.9680  145.4400 C   0  0  0  0  0  2  0  0  0  0  0  0
  190.2410  177.9050  142.2910 C   0  0  0  0  0  2  0  0  0  0  0  0
  190.4530  176.4430  141.9000 C   0  0  0  0  0  1  0  0  0  0  0  0
  1  2  1  0  0  0  0
  1  9  1  1  0  0  0
  1  6  1  0  0  0  0
  2  4  1  0  0  0  0
  2 24  1  1  0  0  0
  4  8  1  1  0  0  0
  4  5  1  0  0  0  0
  5  3  1  6  0  0  0
  5  7  1  0  0  0  0
  5 25  1  0  0  0  0
  6  7  1  0  0  0  0
 10 12  1  6  0  0  0
 10  1  1  0  0  0  0
 11 10  1  0  0  0  0
 11 13  1  1  0  0  0
 12 11  1  0  0  0  0
 13 14  1  6  0  0  0
 15 17  1  0  0  0  0
 15 21  1  0  0  0  0
 17 22  2  0  0  0  0
 18 20  1  0  0  0  0
 18 16  1  0  0  0  0
 20 21  1  0  0  0  0
 21 19  1  6  0  0  0
 22 13  1  0  0  0  0
 22 16  1  0  0  0  0
 23 24  1  0  0  0  0
 25 26  1  0  0  0  0
 26 27  1  0  0  0  0
 27 28  1  0  0  0  0
 28 30  1  0  0  0  0
 29 32  1  0  0  0  0
 29 30  1  0  0  0  0
 30 33  1  1  0  0  0
 32 30  1  0  0  0  0
 32 31  1  1  0  0  0
 33 35  1  0  0  0  0
 35 34  1  0  0  0  0
 36 28  1  0  0  0  0
 37 36  1  0  0  0  0
M  END
>  <MODEL>
4

>  <REMARK>
 VINA RESULT:      -5.8      3.420      8.575
  Name = 
  12 active torsions:
  status: ('A' for Active; 'I' for Inactive)
    1  A    between atoms: C_1  and  C_20
    2  A    between atoms: C_3  and  C_21
    3  A    between atoms: C_3  and  C_30
    4  A    between atoms: C_5  and  O_23
    5  A    between atoms: C_6  and  O_8
    6  A    between atoms: C_6  and  N_31
    7  A    between atoms: C_7  and  O_27
    8  A    between atoms: C_7  and  N_31
    9  A    between atoms: O_8  and  C_19
   10  A    between atoms: C_10  and  C_26
   11  A    between atoms: C_10  and  O_27
   12  A    between atoms: C_14  and  N_31
                            x       y       z     vdW  Elec       q    Type
                         _______ _______ _______ _____ _____    ______ ____

>  <TORSDO>
F 12

$$$$
=
 OpenBabel11052415213D

 37 40  0  0  1  0  0  0  0  0999 V2000
  190.1190  176.8930  140.5610 C   0  0  1  0  0  0  0  0  0  0  0  0
  190.5310  176.6050  139.0900 C   0  0  2  0  0  3  0  0  0  0  0  0
  187.9560  179.0180  137.7920 N   0  0  0  0  0  1  0  0  0  0  0  0
  189.9470  177.6570  138.1370 C   0  0  2  0  0  3  0  0  0  0  0  0
  188.3970  177.6730  138.1240 C   0  0  1  0  0  0  0  0  0  0  0  0
  188.7720  177.6550  140.6420 C   0  0  0  0  0  2  0  0  0  0  0  0
  187.8250  177.2890  139.5000 C   0  0  0  0  0  2  0  0  0  0  0  0
  190.5950  177.6100  136.7580 C   0  0  0  0  0  1  0  0  0  0  0  0
  189.9880  175.6800  141.2450 O   0  0  0  0  0  1  0  0  0  0  0  0
  191.2980  177.6870  141.1860 C   0  0  2  0  0  3  0  0  0  0  0  0
  191.7630  177.3450  142.5730 C   0  0  1  0  0  3  0  0  0  0  0  0
  190.9050  178.4330  142.3180 O   0  0  0  0  0  0  0  0  0  0  0  0
  190.9990  176.2370  143.2950 C   0  0  1  0  0  3  0  0  0  0  0  0
  191.8980  175.3710  143.9190 O   0  0  0  0  0  1  0  0  0  0  0  0
  189.8200  177.9870  146.5510 C   0  0  0  0  0  2  0  0  0  0  0  0
  188.5610  176.6460  144.0600 C   0  0  0  0  0  2  0  0  0  0  0  0
  190.5750  177.3230  145.4290 C   0  0  0  0  0  3  0  0  0  0  0  0
  187.7590  177.8580  144.5120 C   0  0  0  0  0  2  0  0  0  0  0  0
  188.1630  177.5230  148.3360 C   0  0  0  0  0  1  0  0  0  0  0  0
  187.3780  177.7470  145.9920 C   0  0  0  0  0  2  0  0  0  0  0  0
  188.5230  177.2680  146.8880 C   0  0  1  0  0  3  0  0  0  0  0  0
  190.0460  176.8010  144.3040 C   0  0  0  0  0  0  0  0  0  0  0  0
  191.2440  174.8270  137.9730 C   0  0  0  0  0  1  0  0  0  0  0  0
  190.1500  175.3180  138.6880 O   0  0  0  0  0  0  0  0  0  0  0  0
  187.8460  176.6880  137.0870 C   0  0  0  0  0  2  0  0  0  0  0  0
  186.7550  177.2330  136.4020 O   0  0  0  0  0  0  0  0  0  0  0  0
  185.6770  176.4150  136.7490 C   0  0  0  0  0  2  0  0  0  0  0  0
  184.4910  177.2340  136.9810 N   0  0  0  0  0  0  0  0  0  0  0  0
  183.4130  176.2310  134.9030 C   0  0  0  0  0  2  0  0  0  0  0  0
  183.3040  176.6260  136.3660 C   0  0  2  0  0  0  0  0  0  0  0  0
  181.2490  177.2960  135.1890 N   0  0  0  0  0  1  0  0  0  0  0  0
  182.6830  177.5120  135.2920 C   0  0  2  0  0  3  0  0  0  0  0  0
  182.3720  175.9600  137.1920 O   0  0  0  0  0  0  0  0  0  0  0  0
  181.3340  173.8260  137.0030 C   0  0  0  0  0  1  0  0  0  0  0  0
  182.6390  174.5880  137.0990 C   0  0  0  0  0  2  0  0  0  0  0  0
  184.2950  177.5000  138.4150 C   0  0  0  0  0  2  0  0  0  0  0  0
  184.4110  178.9770  138.7880 C   0  0  0  0  0  1  0  0  0  0  0  0
  1  6  1  0  0  0  0
  1 10  1  0  0  0  0
  1  9  1  1  0  0  0
  2 24  1  6  0  0  0
  2  1  1  0  0  0  0
  4  8  1  6  0  0  0
  4  2  1  0  0  0  0
  5  3  1  6  0  0  0
  5  4  1  0  0  0  0
  5  7  1  0  0  0  0
  7  6  1  0  0  0  0
 10 12  1  1  0  0  0
 10 11  1  0  0  0  0
 11 13  1  1  0  0  0
 12 11  1  0  0  0  0
 13 14  1  1  0  0  0
 13 22  1  0  0  0  0
 15 21  1  0  0  0  0
 16 22  1  0  0  0  0
 16 18  1  0  0  0  0
 17 15  1  0  0  0  0
 18 20  1  0  0  0  0
 20 21  1  0  0  0  0
 21 19  1  1  0  0  0
 22 17  2  0  0  0  0
 23 24  1  0  0  0  0
 25  5  1  0  0  0  0
 26 27  1  0  0  0  0
 26 25  1  0  0  0  0
 27 28  1  0  0  0  0
 28 36  1  0  0  0  0
 29 32  1  0  0  0  0
 29 30  1  0  0  0  0
 30 28  1  0  0  0  0
 30 33  1  1  0  0  0
 32 31  1  1  0  0  0
 32 30  1  0  0  0  0
 34 35  1  0  0  0  0
 35 33  1  0  0  0  0
 36 37  1  0  0  0  0
M  END
>  <MODEL>
5

>  <REMARK>
 VINA RESULT:      -5.8      1.095      1.937
  Name = 
  12 active torsions:
  status: ('A' for Active; 'I' for Inactive)
    1  A    between atoms: C_1  and  C_20
    2  A    between atoms: C_3  and  C_21
    3  A    between atoms: C_3  and  C_30
    4  A    between atoms: C_5  and  O_23
    5  A    between atoms: C_6  and  O_8
    6  A    between atoms: C_6  and  N_31
    7  A    between atoms: C_7  and  O_27
    8  A    between atoms: C_7  and  N_31
    9  A    between atoms: O_8  and  C_19
   10  A    between atoms: C_10  and  C_26
   11  A    between atoms: C_10  and  O_27
   12  A    between atoms: C_14  and  N_31
                            x       y       z     vdW  Elec       q    Type
                         _______ _______ _______ _____ _____    ______ ____

>  <TORSDO>
F 12

$$$$
=
 OpenBabel11052415213D

 37 40  0  0  1  0  0  0  0  0999 V2000
  189.9730  177.2760  140.9450 C   0  0  1  0  0  0  0  0  0  0  0  0
  190.2090  177.6590  139.4570 C   0  0  2  0  0  3  0  0  0  0  0  0
  186.6600  178.8490  139.0970 N   0  0  0  0  0  1  0  0  0  0  0  0
  189.0710  178.5430  138.9270 C   0  0  2  0  0  3  0  0  0  0  0  0
  187.6920  177.8360  138.9460 C   0  0  1  0  0  0  0  0  0  0  0  0
  188.4640  177.2580  141.3020 C   0  0  0  0  0  2  0  0  0  0  0  0
  187.5900  176.8450  140.1190 C   0  0  0  0  0  2  0  0  0  0  0  0
  189.4270  179.2110  137.6040 C   0  0  0  0  0  1  0  0  0  0  0  0
  190.5020  176.0020  141.1790 O   0  0  0  0  0  1  0  0  0  0  0  0
  190.7780  178.3050  141.7840 C   0  0  2  0  0  3  0  0  0  0  0  0
  191.0380  178.0290  143.2370 C   0  0  1  0  0  3  0  0  0  0  0  0
  190.0030  178.8860  142.8110 O   0  0  0  0  0  0  0  0  0  0  0  0
  190.4470  176.7400  143.8030 C   0  0  1  0  0  3  0  0  0  0  0  0
  191.4640  175.9480  144.3390 O   0  0  0  0  0  1  0  0  0  0  0  0
  186.9210  177.1280  145.3760 C   0  0  0  0  0  2  0  0  0  0  0  0
  189.8790  177.5200  146.2050 C   0  0  0  0  0  2  0  0  0  0  0  0
  188.1200  176.9350  144.4860 C   0  0  0  0  0  3  0  0  0  0  0  0
  189.0420  176.9700  147.3500 C   0  0  0  0  0  2  0  0  0  0  0  0
  185.7330  178.8490  146.7090 C   0  0  0  0  0  1  0  0  0  0  0  0
  187.8180  177.8520  147.6140 C   0  0  0  0  0  2  0  0  0  0  0  0
  187.0920  178.2930  146.3400 C   0  0  1  0  0  3  0  0  0  0  0  0
  189.4150  177.0280  144.8500 C   0  0  0  0  0  0  0  0  0  0  0  0
  191.6360  176.6530  138.0900 C   0  0  0  0  0  1  0  0  0  0  0  0
  190.3630  176.5250  138.6480 O   0  0  0  0  0  0  0  0  0  0  0  0
  187.4550  177.0610  137.6450 C   0  0  0  0  0  2  0  0  0  0  0  0
  186.2390  177.4230  137.0550 O   0  0  0  0  0  0  0  0  0  0  0  0
  185.4450  176.2790  137.1550 C   0  0  0  0  0  2  0  0  0  0  0  0
  185.4480  175.5640  135.8810 N   0  0  0  0  0  0  0  0  0  0  0  0
  186.3030  173.5670  137.2110 C   0  0  0  0  0  2  0  0  0  0  0  0
  185.4280  174.1110  136.0950 C   0  0  2  0  0  0  0  0  0  0  0  0
  186.5820  172.0830  135.3100 N   0  0  0  0  0  1  0  0  0  0  0  0
  186.7630  173.4530  135.7620 C   0  0  2  0  0  3  0  0  0  0  0  0
  184.2920  173.3760  135.6910 O   0  0  0  0  0  0  0  0  0  0  0  0
  183.2590  171.5770  136.8580 C   0  0  0  0  0  1  0  0  0  0  0  0
  183.5680  173.0590  136.8480 C   0  0  0  0  0  2  0  0  0  0  0  0
  184.3460  176.0090  135.0140 C   0  0  0  0  0  2  0  0  0  0  0  0
  183.2270  176.7300  135.7640 C   0  0  0  0  0  1  0  0  0  0  0  0
  1  9  1  1  0  0  0
  1  6  1  0  0  0  0
  1 10  1  0  0  0  0
  2 24  1  6  0  0  0
  2  1  1  0  0  0  0
  4  8  1  6  0  0  0
  4  5  1  0  0  0  0
  4  2  1  0  0  0  0
  5  3  1  1  0  0  0
  5  7  1  0  0  0  0
  7  6  1  0  0  0  0
 10 12  1  1  0  0  0
 10 11  1  0  0  0  0
 11 13  1  6  0  0  0
 12 11  1  0  0  0  0
 13 14  1  1  0  0  0
 13 22  1  0  0  0  0
 15 21  1  0  0  0  0
 16 18  1  0  0  0  0
 17 22  2  0  0  0  0
 17 15  1  0  0  0  0
 18 20  1  0  0  0  0
 21 19  1  1  0  0  0
 21 20  1  0  0  0  0
 22 16  1  0  0  0  0
 23 24  1  0  0  0  0
 25  5  1  0  0  0  0
 26 27  1  0  0  0  0
 26 25  1  0  0  0  0
 28 30  1  0  0  0  0
 28 27  1  0  0  0  0
 30 33  1  6  0  0  0
 30 29  1  0  0  0  0
 32 31  1  6  0  0  0
 32 30  1  0  0  0  0
 32 29  1  0  0  0  0
 33 35  1  0  0  0  0
 35 34  1  0  0  0  0
 36 37  1  0  0  0  0
 36 28  1  0  0  0  0
M  END
>  <MODEL>
6

>  <REMARK>
 VINA RESULT:      -5.6      1.561      2.800
  Name = 
  12 active torsions:
  status: ('A' for Active; 'I' for Inactive)
    1  A    between atoms: C_1  and  C_20
    2  A    between atoms: C_3  and  C_21
    3  A    between atoms: C_3  and  C_30
    4  A    between atoms: C_5  and  O_23
    5  A    between atoms: C_6  and  O_8
    6  A    between atoms: C_6  and  N_31
    7  A    between atoms: C_7  and  O_27
    8  A    between atoms: C_7  and  N_31
    9  A    between atoms: O_8  and  C_19
   10  A    between atoms: C_10  and  C_26
   11  A    between atoms: C_10  and  O_27
   12  A    between atoms: C_14  and  N_31
                            x       y       z     vdW  Elec       q    Type
                         _______ _______ _______ _____ _____    ______ ____

>  <TORSDO>
F 12

$$$$
=
 OpenBabel11052415213D

 37 40  0  0  1  0  0  0  0  0999 V2000
  191.0040  175.6980  137.0670 C   0  0  1  0  0  0  0  0  0  0  0  0
  189.5130  175.7810  136.6360 C   0  0  2  0  0  3  0  0  0  0  0  0
  189.1930  179.2510  138.0500 N   0  0  0  0  0  1  0  0  0  0  0  0
  188.9950  177.2240  136.7120 C   0  0  2  0  0  3  0  0  0  0  0  0
  189.0310  177.8090  138.1470 C   0  0  1  0  0  0  0  0  0  0  0  0
  191.3790  176.8280  138.0600 C   0  0  0  0  0  2  0  0  0  0  0  0
  190.2070  177.2310  138.9540 C   0  0  0  0  0  2  0  0  0  0  0  0
  187.6670  177.4010  135.9840 C   0  0  0  0  0  1  0  0  0  0  0  0
  191.2340  174.4650  137.6850 O   0  0  0  0  0  1  0  0  0  0  0  0
  191.8320  175.7530  135.7540 C   0  0  2  0  0  3  0  0  0  0  0  0
  192.8500  174.6840  135.4800 C   0  0  1  0  0  3  0  0  0  0  0  0
  193.2090  175.9470  135.9930 O   0  0  0  0  0  0  0  0  0  0  0  0
  193.0240  173.6150  136.5580 C   0  0  1  0  0  3  0  0  0  0  0  0
  192.5990  172.3780  136.0700 O   0  0  0  0  0  1  0  0  0  0  0  0
  196.0820  173.9570  138.9220 C   0  0  0  0  0  2  0  0  0  0  0  0
  195.4900  173.0370  136.0250 C   0  0  0  0  0  2  0  0  0  0  0  0
  194.7380  173.9910  138.2420 C   0  0  0  0  0  3  0  0  0  0  0  0
  196.5650  172.1810  136.6790 C   0  0  0  0  0  2  0  0  0  0  0  0
  198.3780  174.8790  138.7600 C   0  0  0  0  0  1  0  0  0  0  0  0
  197.7040  173.0470  137.2270 C   0  0  0  0  0  2  0  0  0  0  0  0
  197.2240  174.2930  137.9750 C   0  0  1  0  0  3  0  0  0  0  0  0
  194.4500  173.5260  137.0100 C   0  0  0  0  0  0  0  0  0  0  0  0
  188.2150  173.9880  136.4960 C   0  0  0  0  0  1  0  0  0  0  0  0
  188.7040  174.9320  137.4020 O   0  0  0  0  0  0  0  0  0  0  0  0
  187.7350  177.4940  138.9010 C   0  0  0  0  0  2  0  0  0  0  0  0
  187.2410  178.6280  139.5540 O   0  0  0  0  0  0  0  0  0  0  0  0
  187.9220  178.6570  140.7720 C   0  0  0  0  0  2  0  0  0  0  0  0
  187.1380  177.9660  141.7930 N   0  0  0  0  0  0  0  0  0  0  0  0
  189.4010  178.0310  142.9610 C   0  0  0  0  0  2  0  0  0  0  0  0
  188.0060  177.4390  142.8540 C   0  0  2  0  0  0  0  0  0  0  0  0
  189.6330  175.6280  143.2200 N   0  0  0  0  0  1  0  0  0  0  0  0
  189.2020  176.6710  142.3020 C   0  0  2  0  0  3  0  0  0  0  0  0
  187.4120  176.8630  143.9990 O   0  0  0  0  0  0  0  0  0  0  0  0
  186.3160  177.7850  145.9000 C   0  0  0  0  0  1  0  0  0  0  0  0
  187.5700  177.7730  145.0520 C   0  0  0  0  0  2  0  0  0  0  0  0
  186.0750  178.8310  142.3280 C   0  0  0  0  0  2  0  0  0  0  0  0
  184.6710  178.2520  142.1620 C   0  0  0  0  0  1  0  0  0  0  0  0
  1  9  1  1  0  0  0
  1  6  1  0  0  0  0
  2  4  1  0  0  0  0
  2  1  1  0  0  0  0
  2 24  1  1  0  0  0
  4  8  1  1  0  0  0
  4  5  1  0  0  0  0
  5  3  1  6  0  0  0
  5 25  1  0  0  0  0
  5  7  1  0  0  0  0
  6  7  1  0  0  0  0
 10 12  1  1  0  0  0
 10  1  1  0  0  0  0
 11 10  1  0  0  0  0
 11 12  1  0  0  0  0
 11 13  1  1  0  0  0
 13 14  1  6  0  0  0
 13 22  1  0  0  0  0
 16 18  1  0  0  0  0
 16 22  1  0  0  0  0
 17 15  1  0  0  0  0
 18 20  1  0  0  0  0
 20 21  1  0  0  0  0
 21 19  1  1  0  0  0
 21 15  1  0  0  0  0
 22 17  2  0  0  0  0
 23 24  1  0  0  0  0
 25 26  1  0  0  0  0
 26 27  1  0  0  0  0
 27 28  1  0  0  0  0
 28 36  1  0  0  0  0
 28 30  1  0  0  0  0
 30 29  1  0  0  0  0
 30 33  1  1  0  0  0
 32 30  1  0  0  0  0
 32 29  1  0  0  0  0
 32 31  1  1  0  0  0
 33 35  1  0  0  0  0
 35 34  1  0  0  0  0
 37 36  1  0  0  0  0
M  END
>  <MODEL>
7

>  <REMARK>
 VINA RESULT:      -5.5      3.477      7.847
  Name = 
  12 active torsions:
  status: ('A' for Active; 'I' for Inactive)
    1  A    between atoms: C_1  and  C_20
    2  A    between atoms: C_3  and  C_21
    3  A    between atoms: C_3  and  C_30
    4  A    between atoms: C_5  and  O_23
    5  A    between atoms: C_6  and  O_8
    6  A    between atoms: C_6  and  N_31
    7  A    between atoms: C_7  and  O_27
    8  A    between atoms: C_7  and  N_31
    9  A    between atoms: O_8  and  C_19
   10  A    between atoms: C_10  and  C_26
   11  A    between atoms: C_10  and  O_27
   12  A    between atoms: C_14  and  N_31
                            x       y       z     vdW  Elec       q    Type
                         _______ _______ _______ _____ _____    ______ ____

>  <TORSDO>
F 12

$$$$
=
 OpenBabel11052415213D

 37 40  0  0  1  0  0  0  0  0999 V2000
  180.7930  177.1540  139.5340 C   0  0  1  0  0  0  0  0  0  0  0  0
  181.0430  178.6860  139.6190 C   0  0  2  0  0  3  0  0  0  0  0  0
  184.6100  178.2680  138.5060 N   0  0  0  0  0  1  0  0  0  0  0  0
  182.3460  179.0740  138.9070 C   0  0  2  0  0  3  0  0  0  0  0  0
  183.6030  178.4260  139.5430 C   0  0  1  0  0  0  0  0  0  0  0  0
  182.1200  176.3620  139.4070 C   0  0  0  0  0  2  0  0  0  0  0  0
  183.2770  177.0440  140.1340 C   0  0  0  0  0  2  0  0  0  0  0  0
  182.4520  180.5770  138.6740 C   0  0  0  0  0  1  0  0  0  0  0  0
  180.1300  176.7340  140.6910 O   0  0  0  0  0  1  0  0  0  0  0  0
  179.8480  176.9430  138.3200 C   0  0  2  0  0  3  0  0  0  0  0  0
  179.6820  175.5650  137.7470 C   0  0  1  0  0  3  0  0  0  0  0  0
  180.5400  176.5190  137.1660 O   0  0  0  0  0  0  0  0  0  0  0  0
  180.5020  174.4530  138.3970 C   0  0  1  0  0  3  0  0  0  0  0  0
  179.6910  173.7010  139.2480 O   0  0  0  0  0  1  0  0  0  0  0  0
  180.9140  171.3780  136.0650 C   0  0  0  0  0  2  0  0  0  0  0  0
  182.4650  173.9610  136.7830 C   0  0  0  0  0  2  0  0  0  0  0  0
  180.5030  172.3980  137.0940 C   0  0  0  0  0  3  0  0  0  0  0  0
  182.5900  173.6220  135.3050 C   0  0  0  0  0  2  0  0  0  0  0  0
  182.7230  169.7710  135.5220 C   0  0  0  0  0  1  0  0  0  0  0  0
  183.0960  172.1890  135.1070 C   0  0  0  0  0  2  0  0  0  0  0  0
  182.4210  171.1670  136.0240 C   0  0  1  0  0  3  0  0  0  0  0  0
  181.1260  173.5630  137.3650 C   0  0  0  0  0  0  0  0  0  0  0  0
  179.9810  180.0170  141.0410 C   0  0  0  0  0  1  0  0  0  0  0  0
  181.0600  179.1360  140.9460 O   0  0  0  0  0  0  0  0  0  0  0  0
  184.1650  179.3050  140.6650 C   0  0  0  0  0  2  0  0  0  0  0  0
  185.5610  179.2230  140.7210 O   0  0  0  0  0  0  0  0  0  0  0  0
  185.8690  179.3950  142.0720 C   0  0  0  0  0  2  0  0  0  0  0  0
  186.1080  178.0940  142.6930 N   0  0  0  0  0  0  0  0  0  0  0  0
  187.9440  176.4110  143.2240 C   0  0  0  0  0  2  0  0  0  0  0  0
  187.5460  177.8000  142.7570 C   0  0  2  0  0  0  0  0  0  0  0  0
  189.4290  177.9810  144.3310 N   0  0  0  0  0  1  0  0  0  0  0  0
  188.0360  177.5900  144.1850 C   0  0  2  0  0  3  0  0  0  0  0  0
  188.4290  178.5290  141.9310 O   0  0  0  0  0  0  0  0  0  0  0  0
  188.5870  178.2310  139.5750 C   0  0  0  0  0  1  0  0  0  0  0  0
  188.8920  177.6530  140.9410 C   0  0  0  0  0  2  0  0  0  0  0  0
  185.4670  178.0040  144.0140 C   0  0  0  0  0  2  0  0  0  0  0  0
  184.2770  178.9460  144.1840 C   0  0  0  0  0  1  0  0  0  0  0  0
  1  2  1  0  0  0  0
  1  9  1  1  0  0  0
  2 24  1  1  0  0  0
  4  8  1  1  0  0  0
  4  5  1  0  0  0  0
  4  2  1  0  0  0  0
  5  3  1  6  0  0  0
  5  7  1  0  0  0  0
  5 25  1  0  0  0  0
  6  1  1  0  0  0  0
  6  7  1  0  0  0  0
 10 12  1  6  0  0  0
 10  1  1  0  0  0  0
 11 10  1  0  0  0  0
 11 13  1  1  0  0  0
 12 11  1  0  0  0  0
 13 14  1  1  0  0  0
 15 17  1  0  0  0  0
 16 22  1  0  0  0  0
 17 22  2  0  0  0  0
 18 16  1  0  0  0  0
 20 18  1  0  0  0  0
 20 21  1  0  0  0  0
 21 19  1  6  0  0  0
 21 15  1  0  0  0  0
 22 13  1  0  0  0  0
 24 23  1  0  0  0  0
 25 26  1  0  0  0  0
 26 27  1  0  0  0  0
 27 28  1  0  0  0  0
 28 30  1  0  0  0  0
 28 36  1  0  0  0  0
 29 32  1  0  0  0  0
 30 33  1  6  0  0  0
 30 29  1  0  0  0  0
 30 32  1  0  0  0  0
 32 31  1  6  0  0  0
 34 35  1  0  0  0  0
 35 33  1  0  0  0  0
 36 37  1  0  0  0  0
M  END
>  <MODEL>
8

>  <REMARK>
 VINA RESULT:      -5.4      3.538     10.047
  Name = 
  12 active torsions:
  status: ('A' for Active; 'I' for Inactive)
    1  A    between atoms: C_1  and  C_20
    2  A    between atoms: C_3  and  C_21
    3  A    between atoms: C_3  and  C_30
    4  A    between atoms: C_5  and  O_23
    5  A    between atoms: C_6  and  O_8
    6  A    between atoms: C_6  and  N_31
    7  A    between atoms: C_7  and  O_27
    8  A    between atoms: C_7  and  N_31
    9  A    between atoms: O_8  and  C_19
   10  A    between atoms: C_10  and  C_26
   11  A    between atoms: C_10  and  O_27
   12  A    between atoms: C_14  and  N_31
                            x       y       z     vdW  Elec       q    Type
                         _______ _______ _______ _____ _____    ______ ____

>  <TORSDO>
F 12

$$$$
=
 OpenBabel11052415213D

 37 40  0  0  1  0  0  0  0  0999 V2000
  187.9860  175.0630  136.6800 C   0  0  1  0  0  0  0  0  0  0  0  0
  188.0330  176.5780  137.0250 C   0  0  2  0  0  3  0  0  0  0  0  0
  191.7920  176.5870  136.9260 N   0  0  0  0  0  1  0  0  0  0  0  0
  189.4300  177.1610  136.7670 C   0  0  2  0  0  3  0  0  0  0  0  0
  190.5310  176.5150  137.6460 C   0  0  1  0  0  0  0  0  0  0  0  0
  189.3770  174.3960  136.8360 C   0  0  0  0  0  2  0  0  0  0  0  0
  190.2120  175.0390  137.9410 C   0  0  0  0  0  2  0  0  0  0  0  0
  189.4280  178.6860  136.7650 C   0  0  0  0  0  1  0  0  0  0  0  0
  187.0850  174.4260  137.5390 O   0  0  0  0  0  1  0  0  0  0  0  0
  187.4350  174.9730  135.2310 C   0  0  2  0  0  3  0  0  0  0  0  0
  185.9490  174.9720  135.0070 C   0  0  1  0  0  3  0  0  0  0  0  0
  186.7080  173.7840  135.0050 O   0  0  0  0  0  0  0  0  0  0  0  0
  185.0710  175.0280  136.2560 C   0  0  1  0  0  3  0  0  0  0  0  0
  184.4260  176.2630  136.3270 O   0  0  0  0  0  1  0  0  0  0  0  0
  181.8190  173.1150  135.3500 C   0  0  0  0  0  2  0  0  0  0  0  0
  184.3000  172.7290  137.1620 C   0  0  0  0  0  2  0  0  0  0  0  0
  182.9400  174.1040  135.5350 C   0  0  0  0  0  3  0  0  0  0  0  0
  183.8500  171.4160  136.5370 C   0  0  0  0  0  2  0  0  0  0  0  0
  180.0260  171.9380  136.5960 C   0  0  0  0  0  1  0  0  0  0  0  0
  182.3690  171.1480  136.8210 C   0  0  0  0  0  2  0  0  0  0  0  0
  181.4750  172.3770  136.6360 C   0  0  1  0  0  3  0  0  0  0  0  0
  184.0620  173.9210  136.2600 C   0  0  0  0  0  0  0  0  0  0  0  0
  186.7350  177.8800  138.2660 C   0  0  0  0  0  1  0  0  0  0  0  0
  187.6410  176.8210  138.3480 O   0  0  0  0  0  0  0  0  0  0  0  0
  190.6670  177.2500  138.9840 C   0  0  0  0  0  2  0  0  0  0  0  0
  190.5580  176.3650  140.0610 O   0  0  0  0  0  0  0  0  0  0  0  0
  190.5510  177.1860  141.1910 C   0  0  0  0  0  2  0  0  0  0  0  0
  189.6800  176.6110  142.2130 N   0  0  0  0  0  0  0  0  0  0  0  0
  191.4970  177.6610  143.6570 C   0  0  0  0  0  2  0  0  0  0  0  0
  190.2460  176.8050  143.5550 C   0  0  2  0  0  0  0  0  0  0  0  0
  191.8420  175.7310  145.0900 N   0  0  0  0  0  1  0  0  0  0  0  0
  191.6100  176.1420  143.7140 C   0  0  2  0  0  3  0  0  0  0  0  0
  189.3980  176.6880  144.6770 O   0  0  0  0  0  0  0  0  0  0  0  0
  188.6660  177.8410  146.6270 C   0  0  0  0  0  1  0  0  0  0  0  0
  189.2870  177.9610  145.2500 C   0  0  0  0  0  2  0  0  0  0  0  0
  188.3110  177.1400  142.1100 C   0  0  0  0  0  2  0  0  0  0  0  0
  188.2460  178.5820  141.6090 C   0  0  0  0  0  1  0  0  0  0  0  0
  1  6  1  0  0  0  0
  1  2  1  0  0  0  0
  1  9  1  1  0  0  0
  2 24  1  1  0  0  0
  4  8  1  1  0  0  0
  4  2  1  0  0  0  0
  4  5  1  0  0  0  0
  5  3  1  6  0  0  0
  5  7  1  0  0  0  0
  5 25  1  0  0  0  0
  6  7  1  0  0  0  0
 10 12  1  1  0  0  0
 10  1  1  0  0  0  0
 11 10  1  0  0  0  0
 11 13  1  1  0  0  0
 12 11  1  0  0  0  0
 13 22  1  0  0  0  0
 13 14  1  6  0  0  0
 15 17  1  0  0  0  0
 15 21  1  0  0  0  0
 17 22  2  0  0  0  0
 18 20  1  0  0  0  0
 18 16  1  0  0  0  0
 21 19  1  6  0  0  0
 21 20  1  0  0  0  0
 22 16  1  0  0  0  0
 23 24  1  0  0  0  0
 25 26  1  0  0  0  0
 26 27  1  0  0  0  0
 27 28  1  0  0  0  0
 28 30  1  0  0  0  0
 29 32  1  0  0  0  0
 30 29  1  0  0  0  0
 30 32  1  0  0  0  0
 30 33  1  1  0  0  0
 32 31  1  1  0  0  0
 33 35  1  0  0  0  0
 35 34  1  0  0  0  0
 36 28  1  0  0  0  0
 37 36  1  0  0  0  0
M  END
>  <MODEL>
9

>  <REMARK>
 VINA RESULT:      -5.4      2.610      8.943
  Name = 
  12 active torsions:
  status: ('A' for Active; 'I' for Inactive)
    1  A    between atoms: C_1  and  C_20
    2  A    between atoms: C_3  and  C_21
    3  A    between atoms: C_3  and  C_30
    4  A    between atoms: C_5  and  O_23
    5  A    between atoms: C_6  and  O_8
    6  A    between atoms: C_6  and  N_31
    7  A    between atoms: C_7  and  O_27
    8  A    between atoms: C_7  and  N_31
    9  A    between atoms: O_8  and  C_19
   10  A    between atoms: C_10  and  C_26
   11  A    between atoms: C_10  and  O_27
   12  A    between atoms: C_14  and  N_31
                            x       y       z     vdW  Elec       q    Type
                         _______ _______ _______ _____ _____    ______ ____

>  <TORSDO>
F 12

$$$$
