=
 OpenBabel11052413333D

 28 31  0  0  1  0  0  0  0  0999 V2000
  185.5010  178.1230  142.7270 C   0  0  1  0  0  3  0  0  0  0  0  0
  181.6080  179.7500  138.2220 C   0  0  0  0  0  2  0  0  0  0  0  0
  180.8530  179.4460  143.4540 O   0  0  0  0  0  0  0  0  0  0  0  0
  181.3820  177.2810  138.8150 C   0  0  2  0  0  3  0  0  0  0  0  0
  182.6180  178.8830  140.3310 C   0  0  2  0  0  3  0  0  0  0  0  0
  180.3820  178.2270  136.7270 C   0  0  0  0  0  0  0  0  0  0  0  0
  182.2810  178.5370  138.8780 C   0  0  2  0  0  3  0  0  0  0  0  0
  180.7750  177.5000  141.1220 O   0  0  0  0  0  0  0  0  0  0  0  0
  180.8640  176.9820  137.4050 C   0  0  0  0  0  2  0  0  0  0  0  0
  183.1150  178.7730  143.1450 C   0  0  0  0  0  0  0  0  0  0  0  0
  183.7280  177.9800  140.8640 C   0  0  0  0  0  2  0  0  0  0  0  0
  180.2400  177.4000  139.8260 C   0  0  0  0  0  2  0  0  0  0  0  0
  184.8720  179.2020  144.9010 C   0  0  0  0  0  2  0  0  0  0  0  0
  181.7370  179.0320  142.6590 C   0  0  0  0  0  0  0  0  0  0  0  0
  183.3980  178.9540  144.6150 C   0  0  0  0  0  2  0  0  0  0  0  0
  179.3410  178.2200  136.0910 O   0  0  0  0  0  0  0  0  0  0  0  0
  181.2290  179.4560  136.7760 C   0  0  0  0  0  2  0  0  0  0  0  0
  181.3660  178.7750  141.2290 C   0  0  1  0  0  3  0  0  0  0  0  0
  185.7030  178.1110  144.2460 C   0  0  0  0  0  2  0  0  0  0  0  0
  184.0680  178.3230  142.2920 C   0  0  0  0  0  0  0  0  0  0  0  0
  186.4910  179.0380  141.9930 C   0  0  0  0  0  2  0  0  0  0  0  0
  187.5590  178.3000  141.3230 N   0  0  0  0  0  0  0  0  0  0  0  0
  186.6720  178.6530  139.1870 O   0  0  0  0  0  0  0  0  0  0  0  0
  187.6060  178.1830  139.8920 C   0  0  0  0  0  0  0  0  0  0  0  0
  188.6800  177.5300  139.2840 O   0  0  0  0  0  0  0  0  0  0  0  0
  189.4220  178.1240  138.2300 C   0  0  0  0  0  1  0  0  0  0  0  0
  188.4170  177.4600  142.1460 C   0  0  0  0  0  2  0  0  0  0  0  0
  189.3800  178.2400  142.7850 O   0  0  0  0  0  1  0  0  0  0  0  0
  1 21  1  6  0  0  0
  1 19  1  0  0  0  0
  4  9  1  6  0  0  0
  4  7  1  0  0  0  0
  4 12  1  0  0  0  0
  5 11  1  1  0  0  0
  5 18  1  0  0  0  0
  6 17  1  0  0  0  0
  6  9  1  0  0  0  0
  7  2  1  1  0  0  0
  7  5  1  0  0  0  0
 10 15  1  0  0  0  0
 11 20  1  0  0  0  0
 12  8  1  0  0  0  0
 14 10  1  0  0  0  0
 14  3  2  0  0  0  0
 15 13  1  0  0  0  0
 16  6  2  0  0  0  0
 17  2  1  0  0  0  0
 18  8  1  1  0  0  0
 18 14  1  0  0  0  0
 19 13  1  0  0  0  0
 20  1  1  0  0  0  0
 20 10  2  0  0  0  0
 22 21  1  0  0  0  0
 22 27  1  0  0  0  0
 23 24  2  0  0  0  0
 24 22  1  0  0  0  0
 25 24  1  0  0  0  0
 26 25  1  0  0  0  0
 27 28  1  0  0  0  0
M  END
>  <MODEL>
1

>  <REMARK>
 VINA RESULT:      -7.4      0.000      0.000
  Name = 
  4 active torsions:
  status: ('A' for Active; 'I' for Inactive)
    1  A    between atoms: C_1  and  C_2
    2  A    between atoms: C_2  and  N_3
    3  A    between atoms: N_3  and  C_7
    4  A    between atoms: O_6  and  C_11
                            x       y       z     vdW  Elec       q    Type
                         _______ _______ _______ _____ _____    ______ ____

>  <TORSDO>
F 4

$$$$
=
 OpenBabel11052413333D

 28 31  0  0  1  0  0  0  0  0999 V2000
  185.6390  178.0740  142.5120 C   0  0  1  0  0  3  0  0  0  0  0  0
  181.6680  179.8090  138.1170 C   0  0  0  0  0  2  0  0  0  0  0  0
  181.0370  179.4790  143.3640 O   0  0  0  0  0  0  0  0  0  0  0  0
  181.4100  177.3400  138.6980 C   0  0  2  0  0  3  0  0  0  0  0  0
  182.7130  178.9060  140.1940 C   0  0  2  0  0  3  0  0  0  0  0  0
  180.3760  178.3190  136.6410 C   0  0  0  0  0  0  0  0  0  0  0  0
  182.3330  178.5780  138.7470 C   0  0  2  0  0  3  0  0  0  0  0  0
  180.8640  177.5530  141.0200 O   0  0  0  0  0  0  0  0  0  0  0  0
  180.8510  177.0610  137.2990 C   0  0  0  0  0  2  0  0  0  0  0  0
  183.2770  178.7660  142.9930 C   0  0  0  0  0  0  0  0  0  0  0  0
  183.8190  177.9790  140.6930 C   0  0  0  0  0  2  0  0  0  0  0  0
  180.2950  177.4720  139.7370 C   0  0  0  0  0  2  0  0  0  0  0  0
  185.0860  179.1480  144.7090 C   0  0  0  0  0  2  0  0  0  0  0  0
  181.8930  179.0540  142.5440 C   0  0  0  0  0  0  0  0  0  0  0  0
  183.6000  178.9300  144.4580 C   0  0  0  0  0  2  0  0  0  0  0  0
  179.3200  178.3370  136.0320 O   0  0  0  0  0  0  0  0  0  0  0  0
  181.2470  179.5330  136.6780 C   0  0  0  0  0  2  0  0  0  0  0  0
  181.4810  178.8150  141.1220 C   0  0  1  0  0  3  0  0  0  0  0  0
  185.8790  178.0470  144.0250 C   0  0  0  0  0  2  0  0  0  0  0  0
  184.2000  178.3040  142.1140 C   0  0  0  0  0  0  0  0  0  0  0  0
  186.6280  178.9760  141.7600 C   0  0  0  0  0  2  0  0  0  0  0  0
  187.6640  178.2230  141.0550 N   0  0  0  0  0  0  0  0  0  0  0  0
  189.0990  178.1740  142.9010 O   0  0  0  0  0  0  0  0  0  0  0  0
  188.8730  177.8160  141.7140 C   0  0  0  0  0  0  0  0  0  0  0  0
  189.8080  177.0370  141.0280 O   0  0  0  0  0  0  0  0  0  0  0  0
  191.1960  177.3310  141.0560 C   0  0  0  0  0  1  0  0  0  0  0  0
  187.5630  178.1340  139.6060 C   0  0  0  0  0  2  0  0  0  0  0  0
  188.4950  178.9830  139.0080 O   0  0  0  0  0  1  0  0  0  0  0  0
  1 21  1  6  0  0  0
  1 19  1  0  0  0  0
  4  9  1  6  0  0  0
  4  7  1  0  0  0  0
  4 12  1  0  0  0  0
  5 11  1  1  0  0  0
  5 18  1  0  0  0  0
  6 17  1  0  0  0  0
  6  9  1  0  0  0  0
  7  2  1  1  0  0  0
  7  5  1  0  0  0  0
 10 15  1  0  0  0  0
 11 20  1  0  0  0  0
 12  8  1  0  0  0  0
 14 10  1  0  0  0  0
 14  3  2  0  0  0  0
 15 13  1  0  0  0  0
 16  6  2  0  0  0  0
 17  2  1  0  0  0  0
 18  8  1  1  0  0  0
 18 14  1  0  0  0  0
 19 13  1  0  0  0  0
 20  1  1  0  0  0  0
 20 10  2  0  0  0  0
 22 24  1  0  0  0  0
 22 21  1  0  0  0  0
 24 23  2  0  0  0  0
 25 26  1  0  0  0  0
 25 24  1  0  0  0  0
 27 22  1  0  0  0  0
 28 27  1  0  0  0  0
M  END
>  <MODEL>
2

>  <REMARK>
 VINA RESULT:      -7.3      0.786      1.529
  Name = 
  4 active torsions:
  status: ('A' for Active; 'I' for Inactive)
    1  A    between atoms: C_1  and  C_2
    2  A    between atoms: C_2  and  N_3
    3  A    between atoms: N_3  and  C_7
    4  A    between atoms: O_6  and  C_11
                            x       y       z     vdW  Elec       q    Type
                         _______ _______ _______ _____ _____    ______ ____

>  <TORSDO>
F 4

$$$$
=
 OpenBabel11052413333D

 28 31  0  0  1  0  0  0  0  0999 V2000
  183.8940  179.0110  142.3760 C   0  0  1  0  0  3  0  0  0  0  0  0
  188.9250  175.5770  143.3760 C   0  0  0  0  0  2  0  0  0  0  0  0
  185.4840  177.6850  146.8040 O   0  0  0  0  0  0  0  0  0  0  0  0
  189.4390  178.0690  143.5340 C   0  0  2  0  0  3  0  0  0  0  0  0
  187.0580  177.2200  143.5650 C   0  0  2  0  0  3  0  0  0  0  0  0
  191.2590  176.3610  143.3590 C   0  0  0  0  0  0  0  0  0  0  0  0
  188.4650  176.9920  143.0040 C   0  0  2  0  0  3  0  0  0  0  0  0
  187.9550  178.6490  145.3220 O   0  0  0  0  0  0  0  0  0  0  0  0
  190.8990  177.7990  143.1530 C   0  0  0  0  0  2  0  0  0  0  0  0
  184.6860  178.3730  144.6690 C   0  0  0  0  0  0  0  0  0  0  0  0
  186.3420  178.3370  142.8080 C   0  0  0  0  0  2  0  0  0  0  0  0
  189.2690  178.2340  145.0450 C   0  0  0  0  0  2  0  0  0  0  0  0
  182.2300  178.7420  144.2330 C   0  0  0  0  0  2  0  0  0  0  0  0
  185.7340  177.8520  145.5810 C   0  0  0  0  0  0  0  0  0  0  0  0
  183.3520  178.7560  145.2610 C   0  0  0  0  0  2  0  0  0  0  0  0
  192.3220  176.0580  143.8740 O   0  0  0  0  0  0  0  0  0  0  0  0
  190.3320  175.3000  142.8610 C   0  0  0  0  0  2  0  0  0  0  0  0
  187.1120  177.5480  145.0740 C   0  0  1  0  0  3  0  0  0  0  0  0
  182.6350  179.5840  143.0330 C   0  0  0  0  0  2  0  0  0  0  0  0
  184.9550  178.5580  143.3530 C   0  0  0  0  0  0  0  0  0  0  0  0
  183.5880  177.9710  141.2890 C   0  0  0  0  0  2  0  0  0  0  0  0
  183.2400  178.5760  140.0050 N   0  0  0  0  0  0  0  0  0  0  0  0
  180.9890  177.9590  140.1500 O   0  0  0  0  0  0  0  0  0  0  0  0
  181.8910  178.5660  139.5120 C   0  0  0  0  0  0  0  0  0  0  0  0
  181.5840  179.2160  138.3150 O   0  0  0  0  0  0  0  0  0  0  0  0
  181.2630  178.5000  137.1330 C   0  0  0  0  0  1  0  0  0  0  0  0
  184.3330  178.9440  139.1150 C   0  0  0  0  0  2  0  0  0  0  0  0
  184.5070  180.3280  139.1190 O   0  0  0  0  0  1  0  0  0  0  0  0
  1 21  1  1  0  0  0
  1 19  1  0  0  0  0
  1 20  1  0  0  0  0
  4  9  1  1  0  0  0
  4 12  1  0  0  0  0
  5 11  1  6  0  0  0
  5 18  1  0  0  0  0
  6 16  2  0  0  0  0
  7  2  1  1  0  0  0
  7  4  1  0  0  0  0
  7  5  1  0  0  0  0
  9  6  1  0  0  0  0
 10 15  1  0  0  0  0
 10 14  1  0  0  0  0
 11 20  1  0  0  0  0
 12  8  1  0  0  0  0
 13 15  1  0  0  0  0
 14  3  2  0  0  0  0
 17  6  1  0  0  0  0
 17  2  1  0  0  0  0
 18  8  1  6  0  0  0
 18 14  1  0  0  0  0
 19 13  1  0  0  0  0
 20 10  2  0  0  0  0
 22 21  1  0  0  0  0
 24 22  1  0  0  0  0
 24 23  2  0  0  0  0
 25 24  1  0  0  0  0
 26 25  1  0  0  0  0
 27 28  1  0  0  0  0
 27 22  1  0  0  0  0
M  END
>  <MODEL>
3

>  <REMARK>
 VINA RESULT:      -6.9      2.399      7.486
  Name = 
  4 active torsions:
  status: ('A' for Active; 'I' for Inactive)
    1  A    between atoms: C_1  and  C_2
    2  A    between atoms: C_2  and  N_3
    3  A    between atoms: N_3  and  C_7
    4  A    between atoms: O_6  and  C_11
                            x       y       z     vdW  Elec       q    Type
                         _______ _______ _______ _____ _____    ______ ____

>  <TORSDO>
F 4

$$$$
=
 OpenBabel11052413333D

 28 31  0  0  1  0  0  0  0  0999 V2000
  188.9990  178.0960  143.3540 C   0  0  1  0  0  3  0  0  0  0  0  0
  187.4810  176.0790  137.7220 C   0  0  0  0  0  2  0  0  0  0  0  0
  192.2390  176.8740  139.9050 O   0  0  0  0  0  0  0  0  0  0  0  0
  187.8980  178.5940  137.7400 C   0  0  2  0  0  3  0  0  0  0  0  0
  188.6240  177.1330  139.6720 C   0  0  2  0  0  3  0  0  0  0  0  0
  186.7730  177.4640  135.8130 C   0  0  0  0  0  0  0  0  0  0  0  0
  187.5650  177.3440  138.5860 C   0  0  2  0  0  3  0  0  0  0  0  0
  190.1730  178.5940  138.4890 O   0  0  0  0  0  0  0  0  0  0  0  0
  186.9770  178.7630  136.5280 C   0  0  0  0  0  2  0  0  0  0  0  0
  190.6970  177.5020  141.6060 C   0  0  0  0  0  0  0  0  0  0  0  0
  188.3940  178.0750  140.8510 C   0  0  0  0  0  2  0  0  0  0  0  0
  189.3730  178.5760  137.3330 C   0  0  0  0  0  2  0  0  0  0  0  0
  191.2460  177.2280  144.0520 C   0  0  0  0  0  2  0  0  0  0  0  0
  191.0610  177.2070  140.1980 C   0  0  0  0  0  0  0  0  0  0  0  0
  191.7870  177.4570  142.6480 C   0  0  0  0  0  2  0  0  0  0  0  0
  186.8070  177.4170  134.5950 O   0  0  0  0  0  0  0  0  0  0  0  0
  186.4540  176.2390  136.6070 C   0  0  0  0  0  2  0  0  0  0  0  0
  190.0470  177.3320  139.1010 C   0  0  1  0  0  3  0  0  0  0  0  0
  190.1580  178.2490  144.3450 C   0  0  0  0  0  2  0  0  0  0  0  0
  189.4300  177.8650  141.9240 C   0  0  0  0  0  0  0  0  0  0  0  0
  187.9230  177.1100  143.8300 C   0  0  0  0  0  2  0  0  0  0  0  0
  186.8510  177.7580  144.5830 N   0  0  0  0  0  0  0  0  0  0  0  0
  185.5340  178.1300  142.6860 O   0  0  0  0  0  0  0  0  0  0  0  0
  185.6510  178.2120  143.9390 C   0  0  0  0  0  0  0  0  0  0  0  0
  184.6190  178.7630  144.7030 O   0  0  0  0  0  0  0  0  0  0  0  0
  183.3280  178.9990  144.1620 C   0  0  0  0  0  1  0  0  0  0  0  0
  187.1440  178.1780  145.9460 C   0  0  0  0  0  2  0  0  0  0  0  0
  187.7270  177.1280  146.6550 O   0  0  0  0  0  1  0  0  0  0  0  0
  1 21  1  1  0  0  0
  1 19  1  0  0  0  0
  3 14  2  0  0  0  0
  4  9  1  6  0  0  0
  4  7  1  0  0  0  0
  5 11  1  1  0  0  0
  6  9  1  0  0  0  0
  6 17  1  0  0  0  0
  7  2  1  6  0  0  0
  7  5  1  0  0  0  0
 10 20  2  0  0  0  0
 10 15  1  0  0  0  0
 11 20  1  0  0  0  0
 12  4  1  0  0  0  0
 12  8  1  0  0  0  0
 13 19  1  0  0  0  0
 14 10  1  0  0  0  0
 15 13  1  0  0  0  0
 16  6  2  0  0  0  0
 17  2  1  0  0  0  0
 18  8  1  1  0  0  0
 18  5  1  0  0  0  0
 18 14  1  0  0  0  0
 20  1  1  0  0  0  0
 21 22  1  0  0  0  0
 22 27  1  0  0  0  0
 23 24  2  0  0  0  0
 24 22  1  0  0  0  0
 24 25  1  0  0  0  0
 26 25  1  0  0  0  0
 27 28  1  0  0  0  0
M  END
>  <MODEL>
4

>  <REMARK>
 VINA RESULT:      -6.8      3.949      6.903
  Name = 
  4 active torsions:
  status: ('A' for Active; 'I' for Inactive)
    1  A    between atoms: C_1  and  C_2
    2  A    between atoms: C_2  and  N_3
    3  A    between atoms: N_3  and  C_7
    4  A    between atoms: O_6  and  C_11
                            x       y       z     vdW  Elec       q    Type
                         _______ _______ _______ _____ _____    ______ ____

>  <TORSDO>
F 4

$$$$
=
 OpenBabel11052413333D

 28 31  0  0  1  0  0  0  0  0999 V2000
  187.4030  178.4430  142.5480 C   0  0  1  0  0  3  0  0  0  0  0  0
  181.8810  177.1970  140.0880 C   0  0  0  0  0  2  0  0  0  0  0  0
  186.5020  178.2900  137.7470 O   0  0  0  0  0  0  0  0  0  0  0  0
  182.2690  179.7070  140.3080 C   0  0  2  0  0  3  0  0  0  0  0  0
  184.1780  178.0640  140.5280 C   0  0  2  0  0  3  0  0  0  0  0  0
  179.9970  178.7650  139.8510 C   0  0  0  0  0  0  0  0  0  0  0  0
  182.6870  178.2990  140.7880 C   0  0  2  0  0  3  0  0  0  0  0  0
  184.2230  179.9080  138.9370 O   0  0  0  0  0  0  0  0  0  0  0  0
  180.7570  179.9420  140.3780 C   0  0  0  0  0  2  0  0  0  0  0  0
  186.9810  178.3970  140.0760 C   0  0  0  0  0  0  0  0  0  0  0  0
  185.0340  178.7530  141.5880 C   0  0  0  0  0  2  0  0  0  0  0  0
  182.8190  179.9690  138.9040 C   0  0  0  0  0  2  0  0  0  0  0  0
  189.2560  177.8010  140.9850 C   0  0  0  0  0  2  0  0  0  0  0  0
  186.0530  178.3970  138.9180 C   0  0  0  0  0  0  0  0  0  0  0  0
  188.4630  178.3360  139.8010 C   0  0  0  0  0  2  0  0  0  0  0  0
  179.0380  178.9280  139.1160 O   0  0  0  0  0  0  0  0  0  0  0  0
  180.3840  177.3920  140.2960 C   0  0  0  0  0  2  0  0  0  0  0  0
  184.5760  178.5560  139.1180 C   0  0  1  0  0  3  0  0  0  0  0  0
  188.8950  178.5920  142.2320 C   0  0  0  0  0  2  0  0  0  0  0  0
  186.5010  178.5170  141.3380 C   0  0  0  0  0  0  0  0  0  0  0  0
  187.0950  177.2480  143.4610 C   0  0  0  0  0  2  0  0  0  0  0  0
  186.9160  177.6310  144.8590 N   0  0  0  0  0  0  0  0  0  0  0  0
  189.0320  176.8670  145.5000 O   0  0  0  0  0  0  0  0  0  0  0  0
  187.9600  177.4440  145.8280 C   0  0  0  0  0  0  0  0  0  0  0  0
  187.7770  177.8880  147.1400 O   0  0  0  0  0  0  0  0  0  0  0  0
  188.7970  177.7740  148.1200 C   0  0  0  0  0  1  0  0  0  0  0  0
  185.5660  177.9510  145.3030 C   0  0  0  0  0  2  0  0  0  0  0  0
  185.3760  179.3330  145.2990 O   0  0  0  0  0  1  0  0  0  0  0  0
  1 21  1  6  0  0  0
  2 17  1  0  0  0  0
  3 14  2  0  0  0  0
  4 12  1  6  0  0  0
  4  9  1  0  0  0  0
  4  7  1  0  0  0  0
  5  7  1  0  0  0  0
  5 11  1  1  0  0  0
  6 17  1  0  0  0  0
  6  9  1  0  0  0  0
  7  2  1  6  0  0  0
  8 18  1  0  0  0  0
 10 20  2  0  0  0  0
 12  8  1  0  0  0  0
 13 19  1  0  0  0  0
 14 10  1  0  0  0  0
 15 10  1  0  0  0  0
 15 13  1  0  0  0  0
 16  6  2  0  0  0  0
 18 14  1  1  0  0  0
 18  5  1  0  0  0  0
 19  1  1  0  0  0  0
 20 11  1  0  0  0  0
 20  1  1  0  0  0  0
 21 22  1  0  0  0  0
 22 27  1  0  0  0  0
 22 24  1  0  0  0  0
 23 24  2  0  0  0  0
 24 25  1  0  0  0  0
 25 26  1  0  0  0  0
 28 27  1  0  0  0  0
M  END
>  <MODEL>
5

>  <REMARK>
 VINA RESULT:      -6.7      2.318      4.913
  Name = 
  4 active torsions:
  status: ('A' for Active; 'I' for Inactive)
    1  A    between atoms: C_1  and  C_2
    2  A    between atoms: C_2  and  N_3
    3  A    between atoms: N_3  and  C_7
    4  A    between atoms: O_6  and  C_11
                            x       y       z     vdW  Elec       q    Type
                         _______ _______ _______ _____ _____    ______ ____

>  <TORSDO>
F 4

$$$$
=
 OpenBabel11052413333D

 28 31  0  0  1  0  0  0  0  0999 V2000
  187.8310  178.0960  144.6760 C   0  0  1  0  0  3  0  0  0  0  0  0
  188.6820  175.9240  138.9610 C   0  0  0  0  0  2  0  0  0  0  0  0
  191.9060  175.8630  143.1620 O   0  0  0  0  0  0  0  0  0  0  0  0
  189.6310  178.2760  139.2260 C   0  0  2  0  0  3  0  0  0  0  0  0
  188.9990  176.8860  141.2410 C   0  0  2  0  0  3  0  0  0  0  0  0
  189.3010  177.2390  136.9740 C   0  0  0  0  0  0  0  0  0  0  0  0
  188.6530  177.2180  139.7860 C   0  0  2  0  0  3  0  0  0  0  0  0
  191.2190  177.8490  140.9670 O   0  0  0  0  0  0  0  0  0  0  0  0
  189.4520  178.5250  137.7250 C   0  0  0  0  0  2  0  0  0  0  0  0
  189.9490  176.9760  143.9360 C   0  0  0  0  0  0  0  0  0  0  0  0
  188.4780  177.9660  142.1870 C   0  0  0  0  0  2  0  0  0  0  0  0
  191.0720  177.8960  139.5700 C   0  0  0  0  0  2  0  0  0  0  0  0
  189.2100  176.8280  146.3420 C   0  0  0  0  0  2  0  0  0  0  0  0
  190.8450  176.4730  142.8650 C   0  0  0  0  0  0  0  0  0  0  0  0
  190.3810  176.7950  145.3700 C   0  0  0  0  0  2  0  0  0  0  0  0
  189.8870  177.0680  135.9180 O   0  0  0  0  0  0  0  0  0  0  0  0
  188.3660  176.1970  137.4960 C   0  0  0  0  0  2  0  0  0  0  0  0
  190.5230  176.7110  141.4200 C   0  0  1  0  0  3  0  0  0  0  0  0
  188.3910  178.0860  146.1020 C   0  0  0  0  0  2  0  0  0  0  0  0
  188.8090  177.6380  143.6190 C   0  0  0  0  0  0  0  0  0  0  0  0
  186.4560  177.4220  144.5620 C   0  0  0  0  0  2  0  0  0  0  0  0
  185.3480  178.3700  144.6500 N   0  0  0  0  0  0  0  0  0  0  0  0
  184.6830  178.0350  142.4330 O   0  0  0  0  0  0  0  0  0  0  0  0
  184.4660  178.5980  143.5400 C   0  0  0  0  0  0  0  0  0  0  0  0
  183.3760  179.4590  143.6850 O   0  0  0  0  0  0  0  0  0  0  0  0
  182.0480  179.0420  143.4100 C   0  0  0  0  0  1  0  0  0  0  0  0
  185.3260  179.2770  145.7900 C   0  0  0  0  0  2  0  0  0  0  0  0
  184.8700  178.6070  146.9250 O   0  0  0  0  0  1  0  0  0  0  0  0
  1 21  1  1  0  0  0
  1 19  1  0  0  0  0
  4  9  1  6  0  0  0
  4 12  1  0  0  0  0
  4  7  1  0  0  0  0
  5 18  1  0  0  0  0
  5 11  1  1  0  0  0
  6 17  1  0  0  0  0
  6  9  1  0  0  0  0
  7  2  1  6  0  0  0
  7  5  1  0  0  0  0
 10 15  1  0  0  0  0
 11 20  1  0  0  0  0
 12  8  1  0  0  0  0
 14  3  2  0  0  0  0
 14 10  1  0  0  0  0
 15 13  1  0  0  0  0
 16  6  2  0  0  0  0
 17  2  1  0  0  0  0
 18  8  1  1  0  0  0
 18 14  1  0  0  0  0
 19 13  1  0  0  0  0
 20 10  2  0  0  0  0
 20  1  1  0  0  0  0
 21 22  1  0  0  0  0
 22 27  1  0  0  0  0
 23 24  2  0  0  0  0
 24 25  1  0  0  0  0
 24 22  1  0  0  0  0
 26 25  1  0  0  0  0
 27 28  1  0  0  0  0
M  END
>  <MODEL>
6

>  <REMARK>
 VINA RESULT:      -6.7      3.814      7.451
  Name = 
  4 active torsions:
  status: ('A' for Active; 'I' for Inactive)
    1  A    between atoms: C_1  and  C_2
    2  A    between atoms: C_2  and  N_3
    3  A    between atoms: N_3  and  C_7
    4  A    between atoms: O_6  and  C_11
                            x       y       z     vdW  Elec       q    Type
                         _______ _______ _______ _____ _____    ______ ____

>  <TORSDO>
F 4

$$$$
=
 OpenBabel11052413333D

 28 31  0  0  1  0  0  0  0  0999 V2000
  190.1890  177.4080  137.4910 C   0  0  1  0  0  3  0  0  0  0  0  0
  190.5100  175.7810  143.4360 C   0  0  0  0  0  2  0  0  0  0  0  0
  186.6110  178.1380  140.7390 O   0  0  0  0  0  0  0  0  0  0  0  0
  191.1900  178.2130  143.0870 C   0  0  2  0  0  3  0  0  0  0  0  0
  189.9890  176.9190  141.2780 C   0  0  2  0  0  3  0  0  0  0  0  0
  191.6640  177.0120  145.2300 C   0  0  0  0  0  0  0  0  0  0  0  0
  190.9980  176.8290  142.4270 C   0  0  2  0  0  3  0  0  0  0  0  0
  189.1550  179.0420  142.1340 O   0  0  0  0  0  0  0  0  0  0  0  0
  192.0520  178.1620  144.3530 C   0  0  0  0  0  2  0  0  0  0  0  0
  188.3360  177.8230  139.1280 C   0  0  0  0  0  0  0  0  0  0  0  0
  190.6370  177.5010  140.0250 C   0  0  0  0  0  2  0  0  0  0  0  0
  189.8310  178.8630  143.3530 C   0  0  0  0  0  2  0  0  0  0  0  0
  187.8140  177.4500  136.6900 C   0  0  0  0  0  2  0  0  0  0  0  0
  187.8300  177.9110  140.5210 C   0  0  0  0  0  0  0  0  0  0  0  0
  187.3670  178.0810  138.0010 C   0  0  0  0  0  2  0  0  0  0  0  0
  191.5690  177.1600  146.4360 O   0  0  0  0  0  0  0  0  0  0  0  0
  191.4680  175.6640  144.6160 C   0  0  0  0  0  2  0  0  0  0  0  0
  188.7620  177.7650  141.6860 C   0  0  1  0  0  3  0  0  0  0  0  0
  189.2400  177.8780  136.3840 C   0  0  0  0  0  2  0  0  0  0  0  0
  189.6490  177.5830  138.8910 C   0  0  0  0  0  0  0  0  0  0  0  0
  190.7680  176.0090  137.2360 C   0  0  0  0  0  2  0  0  0  0  0  0
  192.0040  176.0380  136.4550 N   0  0  0  0  0  0  0  0  0  0  0  0
  193.3140  176.7190  138.2700 O   0  0  0  0  0  0  0  0  0  0  0  0
  193.2640  176.3680  137.0600 C   0  0  0  0  0  0  0  0  0  0  0  0
  194.4340  176.3170  136.2980 O   0  0  0  0  0  0  0  0  0  0  0  0
  195.2810  175.1790  136.2990 C   0  0  0  0  0  1  0  0  0  0  0  0
  191.8860  175.9950  135.0050 C   0  0  0  0  0  2  0  0  0  0  0  0
  190.8630  175.1230  134.6340 O   0  0  0  0  0  1  0  0  0  0  0  0
  1 21  1  6  0  0  0
  1 20  1  0  0  0  0
  2 17  1  0  0  0  0
  4 12  1  1  0  0  0
  4  9  1  0  0  0  0
  5 11  1  6  0  0  0
  5 18  1  0  0  0  0
  5  7  1  0  0  0  0
  6 16  2  0  0  0  0
  7  4  1  0  0  0  0
  7  2  1  1  0  0  0
  8 12  1  0  0  0  0
  9  6  1  0  0  0  0
 10 14  1  0  0  0  0
 13 15  1  0  0  0  0
 14  3  2  0  0  0  0
 15 10  1  0  0  0  0
 17  6  1  0  0  0  0
 18 14  1  6  0  0  0
 18  8  1  0  0  0  0
 19 13  1  0  0  0  0
 19  1  1  0  0  0  0
 20 10  2  0  0  0  0
 20 11  1  0  0  0  0
 22 24  1  0  0  0  0
 22 21  1  0  0  0  0
 24 23  2  0  0  0  0
 25 26  1  0  0  0  0
 25 24  1  0  0  0  0
 27 22  1  0  0  0  0
 28 27  1  0  0  0  0
M  END
>  <MODEL>
7

>  <REMARK>
 VINA RESULT:      -6.2      5.267      9.158
  Name = 
  4 active torsions:
  status: ('A' for Active; 'I' for Inactive)
    1  A    between atoms: C_1  and  C_2
    2  A    between atoms: C_2  and  N_3
    3  A    between atoms: N_3  and  C_7
    4  A    between atoms: O_6  and  C_11
                            x       y       z     vdW  Elec       q    Type
                         _______ _______ _______ _____ _____    ______ ____

>  <TORSDO>
F 4

$$$$
=
 OpenBabel11052413333D

 28 31  0  0  1  0  0  0  0  0999 V2000
  186.5130  177.6840  143.6490 C   0  0  1  0  0  3  0  0  0  0  0  0
  182.7560  180.1210  139.4010 C   0  0  0  0  0  2  0  0  0  0  0  0
  182.0920  179.5260  144.6210 O   0  0  0  0  0  0  0  0  0  0  0  0
  182.2300  177.6630  139.8250 C   0  0  2  0  0  3  0  0  0  0  0  0
  183.6970  178.9780  141.4100 C   0  0  2  0  0  3  0  0  0  0  0  0
  181.3100  178.8800  137.8430 C   0  0  0  0  0  0  0  0  0  0  0  0
  183.2830  178.7870  139.9470 C   0  0  2  0  0  3  0  0  0  0  0  0
  181.7100  177.7850  142.1600 O   0  0  0  0  0  0  0  0  0  0  0  0
  181.6440  177.5380  138.4150 C   0  0  0  0  0  2  0  0  0  0  0  0
  184.2410  178.5980  144.1900 C   0  0  0  0  0  0  0  0  0  0  0  0
  184.6940  177.9060  141.8410 C   0  0  0  0  0  2  0  0  0  0  0  0
  181.1360  177.8500  140.8790 C   0  0  0  0  0  2  0  0  0  0  0  0
  186.0800  178.6690  145.9140 C   0  0  0  0  0  2  0  0  0  0  0  0
  182.8970  179.0640  143.7700 C   0  0  0  0  0  0  0  0  0  0  0  0
  184.5800  178.6310  145.6600 C   0  0  0  0  0  2  0  0  0  0  0  0
  180.2620  179.0520  137.2430 O   0  0  0  0  0  0  0  0  0  0  0  0
  182.3090  179.9860  137.9510 C   0  0  0  0  0  2  0  0  0  0  0  0
  182.4620  178.9630  142.3380 C   0  0  1  0  0  3  0  0  0  0  0  0
  186.7480  177.5340  145.1560 C   0  0  0  0  0  2  0  0  0  0  0  0
  185.1080  178.0960  143.2770 C   0  0  0  0  0  0  0  0  0  0  0  0
  187.5950  178.5200  142.9500 C   0  0  0  0  0  2  0  0  0  0  0  0
  188.7650  177.7310  142.5680 N   0  0  0  0  0  0  0  0  0  0  0  0
  190.0410  178.4610  144.3880 O   0  0  0  0  0  0  0  0  0  0  0  0
  189.9560  177.7200  143.3710 C   0  0  0  0  0  0  0  0  0  0  0  0
  191.0280  176.9000  143.0120 O   0  0  0  0  0  0  0  0  0  0  0  0
  191.6330  176.0080  143.9350 C   0  0  0  0  0  1  0  0  0  0  0  0
  188.7950  177.1780  141.2220 C   0  0  0  0  0  2  0  0  0  0  0  0
  188.2100  178.0720  140.3240 O   0  0  0  0  0  1  0  0  0  0  0  0
  1 21  1  1  0  0  0
  1 19  1  0  0  0  0
  4  9  1  6  0  0  0
  4  7  1  0  0  0  0
  4 12  1  0  0  0  0
  5 11  1  1  0  0  0
  5 18  1  0  0  0  0
  6 17  1  0  0  0  0
  6  9  1  0  0  0  0
  7  2  1  1  0  0  0
  7  5  1  0  0  0  0
 10 15  1  0  0  0  0
 11 20  1  0  0  0  0
 12  8  1  0  0  0  0
 14 10  1  0  0  0  0
 14  3  2  0  0  0  0
 15 13  1  0  0  0  0
 16  6  2  0  0  0  0
 17  2  1  0  0  0  0
 18  8  1  1  0  0  0
 18 14  1  0  0  0  0
 19 13  1  0  0  0  0
 20  1  1  0  0  0  0
 20 10  2  0  0  0  0
 22 21  1  0  0  0  0
 22 24  1  0  0  0  0
 24 23  2  0  0  0  0
 25 24  1  0  0  0  0
 25 26  1  0  0  0  0
 27 22  1  0  0  0  0
 28 27  1  0  0  0  0
M  END
>  <MODEL>
8

>  <REMARK>
 VINA RESULT:      -6.2      1.499      2.534
  Name = 
  4 active torsions:
  status: ('A' for Active; 'I' for Inactive)
    1  A    between atoms: C_1  and  C_2
    2  A    between atoms: C_2  and  N_3
    3  A    between atoms: N_3  and  C_7
    4  A    between atoms: O_6  and  C_11
                            x       y       z     vdW  Elec       q    Type
                         _______ _______ _______ _____ _____    ______ ____

>  <TORSDO>
F 4

$$$$
=
 OpenBabel11052413333D

 28 31  0  0  1  0  0  0  0  0999 V2000
  191.1540  177.4680  140.4410 C   0  0  1  0  0  3  0  0  0  0  0  0
  186.6760  174.9420  137.0280 C   0  0  0  0  0  2  0  0  0  0  0  0
  191.7440  175.9160  135.8450 O   0  0  0  0  0  0  0  0  0  0  0  0
  186.8880  177.4460  136.5980 C   0  0  2  0  0  3  0  0  0  0  0  0
  188.7010  176.1680  137.8110 C   0  0  2  0  0  3  0  0  0  0  0  0
  184.8940  176.1460  135.8280 C   0  0  0  0  0  0  0  0  0  0  0  0
  187.1940  176.2810  137.5680 C   0  0  2  0  0  3  0  0  0  0  0  0
  189.1550  177.5060  135.8270 O   0  0  0  0  0  0  0  0  0  0  0  0
  185.4170  177.5050  136.1740 C   0  0  0  0  0  2  0  0  0  0  0  0
  191.4970  176.7060  138.0770 C   0  0  0  0  0  0  0  0  0  0  0  0
  189.1730  177.2170  138.8160 C   0  0  0  0  0  2  0  0  0  0  0  0
  187.8240  177.3840  135.3900 C   0  0  0  0  0  2  0  0  0  0  0  0
  193.4140  176.6590  139.7140 C   0  0  0  0  0  2  0  0  0  0  0  0
  190.9600  176.2800  136.7610 C   0  0  0  0  0  0  0  0  0  0  0  0
  192.9940  176.7550  138.2540 C   0  0  0  0  0  2  0  0  0  0  0  0
  184.1950  175.9860  134.8420 O   0  0  0  0  0  0  0  0  0  0  0  0
  185.1790  175.0020  136.7450 C   0  0  0  0  0  2  0  0  0  0  0  0
  189.4860  176.3060  136.4870 C   0  0  1  0  0  3  0  0  0  0  0  0
  192.6660  177.7070  140.5230 C   0  0  0  0  0  2  0  0  0  0  0  0
  190.6550  177.1030  139.0630 C   0  0  0  0  0  0  0  0  0  0  0  0
  190.6300  176.5360  141.5430 C   0  0  0  0  0  2  0  0  0  0  0  0
  189.9100  177.2470  142.5960 N   0  0  0  0  0  0  0  0  0  0  0  0
  191.8140  177.5150  143.9290 O   0  0  0  0  0  0  0  0  0  0  0  0
  190.5870  177.7500  143.7590 C   0  0  0  0  0  0  0  0  0  0  0  0
  189.8780  178.4870  144.7110 O   0  0  0  0  0  0  0  0  0  0  0  0
  189.4130  177.9040  145.9180 C   0  0  0  0  0  1  0  0  0  0  0  0
  188.4550  177.1940  142.5720 C   0  0  0  0  0  2  0  0  0  0  0  0
  188.0080  176.0490  143.2310 O   0  0  0  0  0  1  0  0  0  0  0  0
  1 19  1  0  0  0  0
  1 21  1  1  0  0  0
  3 14  2  0  0  0  0
  4 12  1  6  0  0  0
  4  7  1  0  0  0  0
  5 11  1  1  0  0  0
  6  9  1  0  0  0  0
  6 17  1  0  0  0  0
  7  2  1  6  0  0  0
  7  5  1  0  0  0  0
  9  4  1  0  0  0  0
 10 15  1  0  0  0  0
 10 20  2  0  0  0  0
 11 20  1  0  0  0  0
 12  8  1  0  0  0  0
 13 19  1  0  0  0  0
 14 10  1  0  0  0  0
 15 13  1  0  0  0  0
 16  6  2  0  0  0  0
 17  2  1  0  0  0  0
 18  8  1  1  0  0  0
 18 14  1  0  0  0  0
 18  5  1  0  0  0  0
 20  1  1  0  0  0  0
 21 22  1  0  0  0  0
 22 24  1  0  0  0  0
 24 23  2  0  0  0  0
 24 25  1  0  0  0  0
 25 26  1  0  0  0  0
 27 22  1  0  0  0  0
 27 28  1  0  0  0  0
M  END
>  <MODEL>
9

>  <REMARK>
 VINA RESULT:      -5.9      4.802      7.571
  Name = 
  4 active torsions:
  status: ('A' for Active; 'I' for Inactive)
    1  A    between atoms: C_1  and  C_2
    2  A    between atoms: C_2  and  N_3
    3  A    between atoms: N_3  and  C_7
    4  A    between atoms: O_6  and  C_11
                            x       y       z     vdW  Elec       q    Type
                         _______ _______ _______ _____ _____    ______ ____

>  <TORSDO>
F 4

$$$$
