=
 OpenBabel11052414583D

 55 60  0  0  1  0  0  0  0  0999 V2000
  188.5830  177.6300  138.3010 N   0  0  0  0  0  0  0  0  0  0  0  0
  188.4590  176.5560  137.3330 C   0  0  0  0  0  2  0  0  0  0  0  0
  189.7300  176.4710  136.4990 C   0  0  0  0  0  2  0  0  0  0  0  0
  190.1330  174.4610  137.7260 O   0  0  0  0  0  1  0  0  0  0  0  0
  190.3520  175.0700  136.4860 C   0  0  1  0  0  0  0  0  0  0  0  0
  189.5970  174.2560  135.4410 C   0  0  0  0  0  1  0  0  0  0  0  0
  194.0260  174.6150  137.3250 C   0  0  2  0  0  3  0  0  0  0  0  0
  194.6320  174.6210  135.0030 O   0  0  0  0  0  1  0  0  0  0  0  0
  191.8870  175.1110  136.1890 C   0  0  1  0  0  0  0  0  0  0  0  0
  191.8720  172.6800  136.1850 O   0  0  0  0  0  1  0  0  0  0  0  0
  192.4830  173.8080  135.6240 C   0  0  2  0  0  3  0  0  0  0  0  0
  192.9010  176.7530  137.6790 O   0  0  0  0  0  1  0  0  0  0  0  0
  195.1450  175.4510  137.4200 O   0  0  0  0  0  1  0  0  0  0  0  0
  193.9770  173.8690  135.9870 C   0  0  2  0  0  0  0  0  0  0  0  0
  192.1420  176.1260  135.2560 O   0  0  0  0  0  1  0  0  0  0  0  0
  192.7070  175.3830  137.4610 C   0  0  2  0  0  3  0  0  0  0  0  0
  194.6810  172.5020  136.1000 C   0  0  1  0  0  3  0  0  0  0  0  0
  195.8430  172.4520  135.3220 O   0  0  0  0  0  1  0  0  0  0  0  0
  194.9990  172.1400  137.5450 C   0  0  0  0  0  2  0  0  0  0  0  0
  196.3750  171.9610  137.6960 O   0  0  0  0  0  1  0  0  0  0  0  0
  187.2550  178.2060  138.4730 C   0  0  0  0  0  2  0  0  0  0  0  0
  186.2310  177.4340  137.6550 C   0  0  0  0  0  2  0  0  0  0  0  0
  184.9200  177.8820  137.9660 O   0  0  0  0  0  0  0  0  0  0  0  0
  184.7680  179.9540  138.9340 O   0  0  0  0  0  0  0  0  0  0  0  0
  184.3460  178.1350  140.3360 N   0  0  0  0  0  2  0  0  0  0  0  0
  184.6740  178.7050  139.0650 C   0  0  0  0  0  0  0  0  0  0  0  0
  187.4400  178.1140  143.0930 N   0  0  0  0  0  0  0  0  0  0  0  0
  181.6400  178.5850  141.1170 C   0  0  0  0  0  3  0  0  0  0  0  0
  185.6070  178.3130  146.2650 C   0  0  0  0  0  3  0  0  0  0  0  0
  180.3260  178.4230  141.5660 C   0  0  0  0  0  3  0  0  0  0  0  0
  182.4070  178.7560  143.4110 C   0  0  0  0  0  0  0  0  0  0  0  0
  181.0890  178.6050  143.8530 C   0  0  0  0  0  3  0  0  0  0  0  0
  180.0510  178.4300  142.9350 C   0  0  0  0  0  3  0  0  0  0  0  0
  182.6950  178.7370  142.0300 C   0  0  0  0  0  0  0  0  0  0  0  0
  186.4770  178.3920  142.1770 C   0  0  0  0  0  3  0  0  0  0  0  0
  187.9260  177.7320  146.7030 C   0  0  0  0  0  0  0  0  0  0  0  0
  184.8480  178.6320  143.9520 C   0  0  0  0  0  0  0  0  0  0  0  0
  187.1680  178.0700  144.4190 C   0  0  0  0  0  0  0  0  0  0  0  0
  183.4740  179.0250  144.4240 C   0  0  0  0  0  2  0  0  0  0  0  0
  188.1870  177.7670  145.3260 C   0  0  0  0  0  3  0  0  0  0  0  0
  184.1090  178.9450  141.5280 C   0  0  1  0  0  3  0  0  0  0  0  0
  186.6320  178.0100  147.1650 C   0  0  0  0  0  3  0  0  0  0  0  0
  185.1560  178.6330  142.5750 C   0  0  0  0  0  0  0  0  0  0  0  0
  185.8620  178.3400  144.8850 C   0  0  0  0  0  0  0  0  0  0  0  0
  189.0040  177.4050  147.6490 C   0  0  0  0  0  0  0  0  0  0  0  0
  189.1680  178.1510  148.8110 O   0  0  0  0  0  1  0  0  0  0  0  0
  189.7910  176.4500  147.4140 O   0  0  0  0  0  0  0  0  0  0  0  0
  188.9660  177.0130  139.5620 C   0  0  0  0  0  2  0  0  0  0  0  0
  190.3630  177.4720  139.9380 C   0  0  0  0  0  2  0  0  0  0  0  0
  191.1910  176.4090  143.9810 C   0  0  0  0  0  3  0  0  0  0  0  0
  190.6730  177.0980  141.3450 C   0  0  0  0  0  0  0  0  0  0  0  0
  190.1660  175.9510  141.8720 N   0  0  0  0  0  0  0  0  0  0  0  0
  191.7210  177.5900  143.4580 C   0  0  0  0  0  3  0  0  0  0  0  0
  190.4060  175.5920  143.1630 C   0  0  0  0  0  3  0  0  0  0  0  0
  191.4640  177.9400  142.1320 C   0  0  0  0  0  3  0  0  0  0  0  0
  1 21  1  0  0  0  0
  1 48  1  0  0  0  0
  2  1  1  0  0  0  0
  3  2  1  0  0  0  0
  5  6  1  6  0  0  0
  5  3  1  0  0  0  0
  5  4  1  0  0  0  0
  7 13  1  6  0  0  0
  7 16  1  0  0  0  0
  9 15  1  6  0  0  0
  9  5  1  0  0  0  0
  9 16  1  0  0  0  0
 11 14  1  0  0  0  0
 11 10  1  1  0  0  0
 11  9  1  0  0  0  0
 14  8  1  6  0  0  0
 14 17  1  0  0  0  0
 14  7  1  0  0  0  0
 16 12  1  6  0  0  0
 17 18  1  6  0  0  0
 17 19  1  0  0  0  0
 19 20  1  0  0  0  0
 22 23  1  0  0  0  0
 22 21  1  0  0  0  0
 23 26  1  0  0  0  0
 24 26  2  0  0  0  0
 26 25  1  0  0  0  0
 27 38  1  0  0  0  0
 28 30  2  0  0  0  0
 28 34  1  0  0  0  0
 29 42  1  0  0  0  0
 30 33  1  0  0  0  0
 31 32  1  0  0  0  0
 31 39  1  0  0  0  0
 33 32  2  0  0  0  0
 34 31  2  0  0  0  0
 35 43  1  0  0  0  0
 35 27  2  0  0  0  0
 36 42  2  0  0  0  0
 36 45  1  0  0  0  0
 37 39  1  0  0  0  0
 37 44  1  0  0  0  0
 38 44  1  0  0  0  0
 38 40  2  0  0  0  0
 40 36  1  0  0  0  0
 41 25  1  6  0  0  0
 41 34  1  0  0  0  0
 41 43  1  0  0  0  0
 43 37  2  0  0  0  0
 44 29  2  0  0  0  0
 45 46  1  0  0  0  0
 47 45  2  0  0  0  0
 48 49  1  0  0  0  0
 49 51  1  0  0  0  0
 51 52  2  0  0  0  0
 51 55  1  0  0  0  0
 52 54  1  0  0  0  0
 53 50  1  0  0  0  0
 54 50  2  0  0  0  0
 55 53  2  0  0  0  0
M  END
>  <MODEL>
1

>  <REMARK>
 VINA RESULT:      -9.9      0.000      0.000
  Name = 
  15 active torsions:
  status: ('A' for Active; 'I' for Inactive)
    1  A    between atoms: O_4  and  C_37
    2  A    between atoms: O_4  and  C_40
    3  A    between atoms: C_6  and  C_20
    4  A    between atoms: C_8  and  C_22
    5  A    between atoms: C_8  and  N_43
    6  A    between atoms: C_10  and  C_32
    7  A    between atoms: C_11  and  C_29
    8  A    between atoms: N_19  and  C_45
    9  A    between atoms: C_20  and  C_22
   10  A    between atoms: C_27  and  C_54
   11  A    between atoms: C_29  and  C_38
   12  A    between atoms: C_35  and  C_37
   13  A    between atoms: C_35  and  N_43
   14  A    between atoms: N_43  and  C_51
   15  A    between atoms: C_51  and  C_54
                            x       y       z     vdW  Elec       q    Type
                         _______ _______ _______ _____ _____    ______ ____

>  <TORSDO>
F 15

$$$$
=
 OpenBabel11052414583D

 55 60  0  0  1  0  0  0  0  0999 V2000
  190.7850  176.5950  138.4640 N   0  0  0  0  0  0  0  0  0  0  0  0
  189.5300  176.2540  137.8210 C   0  0  0  0  0  2  0  0  0  0  0  0
  188.4850  177.3120  138.1460 C   0  0  0  0  0  2  0  0  0  0  0  0
  187.9020  179.3690  137.0790 O   0  0  0  0  0  1  0  0  0  0  0  0
  187.8950  177.9820  136.9000 C   0  0  1  0  0  0  0  0  0  0  0  0
  188.8320  177.6690  135.7390 C   0  0  0  0  0  1  0  0  0  0  0  0
  184.8080  175.8430  137.4560 C   0  0  2  0  0  3  0  0  0  0  0  0
  183.4270  177.3970  136.2540 O   0  0  0  0  0  1  0  0  0  0  0  0
  186.4340  177.5020  136.6110 C   0  0  1  0  0  0  0  0  0  0  0  0
  185.7650  178.5240  138.7130 O   0  0  0  0  0  1  0  0  0  0  0  0
  185.3340  178.2190  137.4160 C   0  0  2  0  0  3  0  0  0  0  0  0
  186.5340  175.1850  135.8600 O   0  0  0  0  0  1  0  0  0  0  0  0
  184.0820  174.9140  136.7020 O   0  0  0  0  0  1  0  0  0  0  0  0
  184.1560  177.2310  137.4390 C   0  0  2  0  0  0  0  0  0  0  0  0
  186.1530  177.7000  135.2510 O   0  0  0  0  0  1  0  0  0  0  0  0
  186.2440  176.0150  136.9500 C   0  0  2  0  0  3  0  0  0  0  0  0
  183.1880  177.3900  138.6290 C   0  0  1  0  0  3  0  0  0  0  0  0
  182.0780  178.1720  138.2930 O   0  0  0  0  0  1  0  0  0  0  0  0
  182.7380  176.0460  139.1860 C   0  0  0  0  0  2  0  0  0  0  0  0
  181.4140  176.1330  139.6190 O   0  0  0  0  0  1  0  0  0  0  0  0
  190.5930  176.4190  139.8980 C   0  0  0  0  0  2  0  0  0  0  0  0
  191.1600  177.6070  140.6610 C   0  0  0  0  0  2  0  0  0  0  0  0
  191.4140  177.2450  142.0100 O   0  0  0  0  0  0  0  0  0  0  0  0
  190.2660  175.4440  142.8420 O   0  0  0  0  0  0  0  0  0  0  0  0
  189.5560  177.5420  143.5810 N   0  0  0  0  0  2  0  0  0  0  0  0
  190.4170  176.6930  142.8150 C   0  0  0  0  0  0  0  0  0  0  0  0
  185.7590  177.9730  141.9780 N   0  0  0  0  0  0  0  0  0  0  0  0
  189.9950  177.4310  146.3970 C   0  0  0  0  0  3  0  0  0  0  0  0
  183.7480  178.5730  144.9880 C   0  0  0  0  0  3  0  0  0  0  0  0
  190.2110  177.7630  147.7380 C   0  0  0  0  0  3  0  0  0  0  0  0
  187.6070  177.7140  146.7070 C   0  0  0  0  0  0  0  0  0  0  0  0
  187.8290  178.0350  148.0510 C   0  0  0  0  0  3  0  0  0  0  0  0
  189.1280  178.0680  148.5640 C   0  0  0  0  0  3  0  0  0  0  0  0
  188.6970  177.4180  145.8630 C   0  0  0  0  0  0  0  0  0  0  0  0
  186.9460  177.5620  142.4930 C   0  0  0  0  0  3  0  0  0  0  0  0
  182.4300  179.0950  143.0150 C   0  0  0  0  0  0  0  0  0  0  0  0
  186.0670  177.8070  144.7350 C   0  0  0  0  0  0  0  0  0  0  0  0
  184.7190  178.3190  142.7760 C   0  0  0  0  0  0  0  0  0  0  0  0
  186.1960  177.6070  146.2220 C   0  0  0  0  0  2  0  0  0  0  0  0
  183.5190  178.7490  142.2040 C   0  0  0  0  0  3  0  0  0  0  0  0
  188.4760  177.0230  144.4170 C   0  0  1  0  0  3  0  0  0  0  0  0
  182.5520  179.0010  144.4090 C   0  0  0  0  0  3  0  0  0  0  0  0
  187.1420  177.4910  143.8780 C   0  0  0  0  0  0  0  0  0  0  0  0
  184.8440  178.2330  144.1810 C   0  0  0  0  0  0  0  0  0  0  0  0
  181.1730  179.5540  142.4030 C   0  0  0  0  0  0  0  0  0  0  0  0
  180.7760  179.0650  141.1640 O   0  0  0  0  0  0  0  0  0  0  0  0
  180.4470  180.3980  142.9940 O   0  0  0  0  0  1  0  0  0  0  0  0
  191.7610  175.6110  138.0220 C   0  0  0  0  0  2  0  0  0  0  0  0
  193.1560  176.1920  138.1640 C   0  0  0  0  0  2  0  0  0  0  0  0
  196.1180  173.1270  138.1670 C   0  0  0  0  0  3  0  0  0  0  0  0
  194.1750  175.1070  138.1720 C   0  0  0  0  0  0  0  0  0  0  0  0
  195.2110  175.1520  139.0530 N   0  0  0  0  0  0  0  0  0  0  0  0
  195.0620  173.0630  137.2550 C   0  0  0  0  0  3  0  0  0  0  0  0
  196.1750  174.1920  139.0700 C   0  0  0  0  0  3  0  0  0  0  0  0
  194.0820  174.0570  137.2550 C   0  0  0  0  0  3  0  0  0  0  0  0
  1 21  1  0  0  0  0
  2  3  1  0  0  0  0
  2  1  1  0  0  0  0
  5  6  1  6  0  0  0
  5  4  1  0  0  0  0
  5  3  1  0  0  0  0
  7 13  1  6  0  0  0
  9 15  1  6  0  0  0
  9  5  1  0  0  0  0
  9 16  1  0  0  0  0
  9 11  1  0  0  0  0
 11 14  1  0  0  0  0
 11 10  1  1  0  0  0
 14  8  1  6  0  0  0
 14  7  1  0  0  0  0
 14 17  1  0  0  0  0
 16 12  1  6  0  0  0
 16  7  1  0  0  0  0
 17 18  1  6  0  0  0
 17 19  1  0  0  0  0
 19 20  1  0  0  0  0
 21 22  1  0  0  0  0
 22 23  1  0  0  0  0
 23 26  1  0  0  0  0
 26 24  2  0  0  0  0
 26 25  1  0  0  0  0
 27 35  2  0  0  0  0
 27 38  1  0  0  0  0
 28 30  1  0  0  0  0
 30 33  2  0  0  0  0
 31 32  2  0  0  0  0
 32 33  1  0  0  0  0
 34 28  2  0  0  0  0
 34 31  1  0  0  0  0
 35 43  1  0  0  0  0
 36 42  2  0  0  0  0
 37 39  1  0  0  0  0
 38 44  1  0  0  0  0
 39 31  1  0  0  0  0
 40 38  2  0  0  0  0
 40 36  1  0  0  0  0
 41 25  1  6  0  0  0
 41 34  1  0  0  0  0
 42 29  1  0  0  0  0
 43 41  1  0  0  0  0
 43 37  2  0  0  0  0
 44 37  1  0  0  0  0
 44 29  2  0  0  0  0
 45 47  1  0  0  0  0
 45 36  1  0  0  0  0
 46 45  2  0  0  0  0
 48 49  1  0  0  0  0
 48  1  1  0  0  0  0
 49 51  1  0  0  0  0
 50 54  1  0  0  0  0
 51 52  1  0  0  0  0
 52 54  2  0  0  0  0
 53 50  2  0  0  0  0
 55 53  1  0  0  0  0
 55 51  2  0  0  0  0
M  END
>  <MODEL>
2

>  <REMARK>
 VINA RESULT:      -9.8      3.107      7.695
  Name = 
  15 active torsions:
  status: ('A' for Active; 'I' for Inactive)
    1  A    between atoms: O_4  and  C_37
    2  A    between atoms: O_4  and  C_40
    3  A    between atoms: C_6  and  C_20
    4  A    between atoms: C_8  and  C_22
    5  A    between atoms: C_8  and  N_43
    6  A    between atoms: C_10  and  C_32
    7  A    between atoms: C_11  and  C_29
    8  A    between atoms: N_19  and  C_45
    9  A    between atoms: C_20  and  C_22
   10  A    between atoms: C_27  and  C_54
   11  A    between atoms: C_29  and  C_38
   12  A    between atoms: C_35  and  C_37
   13  A    between atoms: C_35  and  N_43
   14  A    between atoms: N_43  and  C_51
   15  A    between atoms: C_51  and  C_54
                            x       y       z     vdW  Elec       q    Type
                         _______ _______ _______ _____ _____    ______ ____

>  <TORSDO>
F 15

$$$$
=
 OpenBabel11052414583D

 55 60  0  0  1  0  0  0  0  0999 V2000
  186.4230  175.3720  136.2480 N   0  0  0  0  0  0  0  0  0  0  0  0
  187.7570  175.6590  135.7550 C   0  0  0  0  0  2  0  0  0  0  0  0
  188.7430  175.6530  136.9150 C   0  0  0  0  0  2  0  0  0  0  0  0
  189.9790  173.6960  137.5130 O   0  0  0  0  0  1  0  0  0  0  0  0
  189.9850  174.7950  136.6470 C   0  0  1  0  0  0  0  0  0  0  0  0
  189.8570  174.2550  135.2270 C   0  0  0  0  0  1  0  0  0  0  0  0
  193.1330  175.8380  138.4950 C   0  0  2  0  0  3  0  0  0  0  0  0
  194.0940  176.7470  136.4920 O   0  0  0  0  0  1  0  0  0  0  0  0
  191.3110  175.6040  136.8420 C   0  0  1  0  0  0  0  0  0  0  0  0
  192.5340  173.5310  136.4940 O   0  0  0  0  0  1  0  0  0  0  0  0
  192.5830  174.9180  136.3090 C   0  0  2  0  0  3  0  0  0  0  0  0
  191.0350  177.0520  138.7830 O   0  0  0  0  0  1  0  0  0  0  0  0
  193.6290  177.0270  139.0410 O   0  0  0  0  0  1  0  0  0  0  0  0
  193.7340  175.5450  137.1150 C   0  0  2  0  0  0  0  0  0  0  0  0
  191.1920  176.8350  136.1810 O   0  0  0  0  0  1  0  0  0  0  0  0
  191.6110  175.8590  138.3270 C   0  0  2  0  0  3  0  0  0  0  0  0
  194.9970  174.6710  137.2460 C   0  0  1  0  0  3  0  0  0  0  0  0
  196.1010  175.2560  136.6170 O   0  0  0  0  0  1  0  0  0  0  0  0
  195.3260  174.3530  138.6990 C   0  0  0  0  0  2  0  0  0  0  0  0
  195.3420  172.9710  138.8900 O   0  0  0  0  0  1  0  0  0  0  0  0
  185.7210  176.6460  136.3490 C   0  0  0  0  0  2  0  0  0  0  0  0
  185.2740  176.8940  137.7810 C   0  0  0  0  0  2  0  0  0  0  0  0
  184.6020  178.1420  137.8730 O   0  0  0  0  0  0  0  0  0  0  0  0
  184.5310  180.1460  138.9810 O   0  0  0  0  0  0  0  0  0  0  0  0
  184.7630  178.2450  140.3170 N   0  0  0  0  0  2  0  0  0  0  0  0
  184.6180  178.8920  139.0490 C   0  0  0  0  0  0  0  0  0  0  0  0
  188.3310  177.8700  142.3920 N   0  0  0  0  0  0  0  0  0  0  0  0
  182.2980  178.7810  141.6490 C   0  0  0  0  0  3  0  0  0  0  0  0
  187.1730  177.9420  145.8730 C   0  0  0  0  0  3  0  0  0  0  0  0
  181.0900  178.6570  142.3420 C   0  0  0  0  0  3  0  0  0  0  0  0
  183.5100  178.7510  143.7490 C   0  0  0  0  0  0  0  0  0  0  0  0
  182.2980  178.6370  144.4370 C   0  0  0  0  0  3  0  0  0  0  0  0
  181.0910  178.5820  143.7360 C   0  0  0  0  0  3  0  0  0  0  0  0
  183.5190  178.8130  142.3400 C   0  0  0  0  0  0  0  0  0  0  0  0
  187.2270  178.2610  141.7060 C   0  0  0  0  0  3  0  0  0  0  0  0
  189.4900  177.2120  145.8030 C   0  0  0  0  0  0  0  0  0  0  0  0
  185.9970  178.4610  143.7810 C   0  0  0  0  0  0  0  0  0  0  0  0
  188.3220  177.7470  143.7410 C   0  0  0  0  0  0  0  0  0  0  0  0
  184.7710  178.8920  144.5420 C   0  0  0  0  0  2  0  0  0  0  0  0
  189.4780  177.3290  144.4060 C   0  0  0  0  0  3  0  0  0  0  0  0
  184.8180  178.9810  141.5780 C   0  0  1  0  0  3  0  0  0  0  0  0
  188.3330  177.5240  146.5300 C   0  0  0  0  0  3  0  0  0  0  0  0
  186.0280  178.5420  142.3740 C   0  0  0  0  0  0  0  0  0  0  0  0
  187.1540  178.0520  144.4740 C   0  0  0  0  0  0  0  0  0  0  0  0
  190.7100  176.7630  146.4930 C   0  0  0  0  0  0  0  0  0  0  0  0
  191.7540  176.1940  145.7740 O   0  0  0  0  0  0  0  0  0  0  0  0
  190.8180  176.8870  147.7430 O   0  0  0  0  0  1  0  0  0  0  0  0
  185.7610  174.5790  135.2230 C   0  0  0  0  0  2  0  0  0  0  0  0
  185.6600  173.1390  135.6930 C   0  0  0  0  0  2  0  0  0  0  0  0
  181.6640  172.2610  136.8850 C   0  0  0  0  0  3  0  0  0  0  0  0
  184.2630  172.8180  136.0930 C   0  0  0  0  0  0  0  0  0  0  0  0
  183.2850  173.7540  135.9610 N   0  0  0  0  0  0  0  0  0  0  0  0
  182.6540  171.2870  137.0270 C   0  0  0  0  0  3  0  0  0  0  0  0
  182.0020  173.5040  136.3430 C   0  0  0  0  0  3  0  0  0  0  0  0
  183.9630  171.5620  136.6290 C   0  0  0  0  0  3  0  0  0  0  0  0
  1 21  1  0  0  0  0
  2  1  1  0  0  0  0
  2  3  1  0  0  0  0
  5  6  1  6  0  0  0
  5  9  1  0  0  0  0
  5  3  1  0  0  0  0
  5  4  1  0  0  0  0
  7 13  1  6  0  0  0
  9 15  1  6  0  0  0
  9 16  1  0  0  0  0
 11 10  1  1  0  0  0
 11  9  1  0  0  0  0
 11 14  1  0  0  0  0
 14  8  1  6  0  0  0
 14 17  1  0  0  0  0
 14  7  1  0  0  0  0
 16  7  1  0  0  0  0
 16 12  1  6  0  0  0
 17 18  1  1  0  0  0
 17 19  1  0  0  0  0
 19 20  1  0  0  0  0
 21 22  1  0  0  0  0
 22 23  1  0  0  0  0
 23 26  1  0  0  0  0
 24 26  2  0  0  0  0
 26 25  1  0  0  0  0
 27 38  1  0  0  0  0
 28 34  2  0  0  0  0
 28 30  1  0  0  0  0
 29 42  1  0  0  0  0
 30 33  2  0  0  0  0
 31 32  2  0  0  0  0
 31 39  1  0  0  0  0
 33 32  1  0  0  0  0
 34 31  1  0  0  0  0
 35 43  1  0  0  0  0
 35 27  2  0  0  0  0
 36 45  1  0  0  0  0
 36 42  2  0  0  0  0
 37 44  1  0  0  0  0
 37 39  1  0  0  0  0
 38 40  2  0  0  0  0
 38 44  1  0  0  0  0
 40 36  1  0  0  0  0
 41 25  1  6  0  0  0
 41 34  1  0  0  0  0
 41 43  1  0  0  0  0
 43 37  2  0  0  0  0
 44 29  2  0  0  0  0
 45 47  1  0  0  0  0
 46 45  2  0  0  0  0
 48 49  1  0  0  0  0
 48  1  1  0  0  0  0
 49 51  1  0  0  0  0
 50 53  1  0  0  0  0
 51 55  1  0  0  0  0
 52 51  2  0  0  0  0
 52 54  1  0  0  0  0
 54 50  2  0  0  0  0
 55 53  2  0  0  0  0
M  END
>  <MODEL>
3

>  <REMARK>
 VINA RESULT:      -9.2      2.544      4.237
  Name = 
  15 active torsions:
  status: ('A' for Active; 'I' for Inactive)
    1  A    between atoms: O_4  and  C_37
    2  A    between atoms: O_4  and  C_40
    3  A    between atoms: C_6  and  C_20
    4  A    between atoms: C_8  and  C_22
    5  A    between atoms: C_8  and  N_43
    6  A    between atoms: C_10  and  C_32
    7  A    between atoms: C_11  and  C_29
    8  A    between atoms: N_19  and  C_45
    9  A    between atoms: C_20  and  C_22
   10  A    between atoms: C_27  and  C_54
   11  A    between atoms: C_29  and  C_38
   12  A    between atoms: C_35  and  C_37
   13  A    between atoms: C_35  and  N_43
   14  A    between atoms: N_43  and  C_51
   15  A    between atoms: C_51  and  C_54
                            x       y       z     vdW  Elec       q    Type
                         _______ _______ _______ _____ _____    ______ ____

>  <TORSDO>
F 15

$$$$
=
 OpenBabel11052414583D

 55 60  0  0  1  0  0  0  0  0999 V2000
  189.8730  177.2190  138.6740 N   0  0  0  0  0  0  0  0  0  0  0  0
  190.9120  176.2150  138.5320 C   0  0  0  0  0  2  0  0  0  0  0  0
  191.7150  176.4860  137.2670 C   0  0  0  0  0  2  0  0  0  0  0  0
  192.0320  174.1250  137.4580 O   0  0  0  0  0  1  0  0  0  0  0  0
  192.4630  175.2530  136.7510 C   0  0  1  0  0  0  0  0  0  0  0  0
  192.0540  175.0590  135.2950 C   0  0  0  0  0  1  0  0  0  0  0  0
  195.8860  174.3250  138.1050 C   0  0  2  0  0  3  0  0  0  0  0  0
  196.9890  175.5230  136.3420 O   0  0  0  0  0  1  0  0  0  0  0  0
  194.0140  175.4000  136.9010 C   0  0  1  0  0  0  0  0  0  0  0  0
  194.2530  173.3280  135.6520 O   0  0  0  0  0  1  0  0  0  0  0  0
  194.8530  174.5650  135.9150 C   0  0  2  0  0  3  0  0  0  0  0  0
  194.4950  175.9960  139.2150 O   0  0  0  0  0  1  0  0  0  0  0  0
  196.8630  174.9580  138.8830 O   0  0  0  0  0  1  0  0  0  0  0  0
  196.2140  174.3870  136.6090 C   0  0  2  0  0  0  0  0  0  0  0  0
  194.3630  176.7450  136.7120 O   0  0  0  0  0  1  0  0  0  0  0  0
  194.4980  174.9470  138.2880 C   0  0  2  0  0  3  0  0  0  0  0  0
  197.0140  173.1420  136.1760 C   0  0  1  0  0  3  0  0  0  0  0  0
  198.3560  173.4490  135.9260 O   0  0  0  0  0  1  0  0  0  0  0  0
  196.9130  172.0130  137.1940 C   0  0  0  0  0  2  0  0  0  0  0  0
  196.8240  170.7880  136.5330 O   0  0  0  0  0  1  0  0  0  0  0  0
  188.5960  176.5150  138.6720 C   0  0  0  0  0  2  0  0  0  0  0  0
  188.1900  176.1560  137.2510 C   0  0  0  0  0  2  0  0  0  0  0  0
  187.7810  177.3210  136.5510 O   0  0  0  0  0  0  0  0  0  0  0  0
  186.9580  179.4350  136.8730 O   0  0  0  0  0  0  0  0  0  0  0  0
  185.7700  177.7060  137.8980 N   0  0  0  0  0  2  0  0  0  0  0  0
  186.8410  178.2000  137.0870 C   0  0  0  0  0  0  0  0  0  0  0  0
  186.5000  178.6500  141.8660 N   0  0  0  0  0  0  0  0  0  0  0  0
  183.1280  177.6700  136.8220 C   0  0  0  0  0  3  0  0  0  0  0  0
  183.0960  178.8290  143.2230 C   0  0  0  0  0  3  0  0  0  0  0  0
  181.8390  177.2920  136.4380 C   0  0  0  0  0  3  0  0  0  0  0  0
  182.3030  178.2620  139.0240 C   0  0  0  0  0  0  0  0  0  0  0  0
  181.0130  177.8920  138.6300 C   0  0  0  0  0  3  0  0  0  0  0  0
  180.7810  177.4000  137.3430 C   0  0  0  0  0  3  0  0  0  0  0  0
  183.3780  178.1440  138.1200 C   0  0  0  0  0  0  0  0  0  0  0  0
  186.2830  178.6130  140.5270 C   0  0  0  0  0  3  0  0  0  0  0  0
  184.6970  178.7990  145.0510 C   0  0  0  0  0  0  0  0  0  0  0  0
  183.8930  178.7130  140.9040 C   0  0  0  0  0  0  0  0  0  0  0  0
  185.4760  178.7040  142.7520 C   0  0  0  0  0  0  0  0  0  0  0  0
  182.4890  178.8630  140.3810 C   0  0  0  0  0  2  0  0  0  0  0  0
  185.7450  178.7280  144.1230 C   0  0  0  0  0  3  0  0  0  0  0  0
  184.7750  178.5820  138.5110 C   0  0  1  0  0  3  0  0  0  0  0  0
  183.3730  178.8530  144.5920 C   0  0  0  0  0  3  0  0  0  0  0  0
  184.9800  178.6180  140.0100 C   0  0  0  0  0  0  0  0  0  0  0  0
  184.1410  178.7490  142.2900 C   0  0  0  0  0  0  0  0  0  0  0  0
  184.9900  178.8160  146.4930 C   0  0  0  0  0  0  0  0  0  0  0  0
  185.8280  179.7880  147.0270 O   0  0  0  0  0  0  0  0  0  0  0  0
  184.4890  177.9470  147.2560 O   0  0  0  0  0  1  0  0  0  0  0  0
  190.0490  177.8170  139.9890 C   0  0  0  0  0  2  0  0  0  0  0  0
  190.4610  176.7410  140.9760 C   0  0  0  0  0  2  0  0  0  0  0  0
  189.2750  177.7550  144.9420 C   0  0  0  0  0  3  0  0  0  0  0  0
  190.0270  177.1010  142.3530 C   0  0  0  0  0  0  0  0  0  0  0  0
  190.6460  178.1150  143.0180 N   0  0  0  0  0  0  0  0  0  0  0  0
  188.6280  176.7120  144.2750 C   0  0  0  0  0  3  0  0  0  0  0  0
  190.2930  178.4540  144.2880 C   0  0  0  0  0  3  0  0  0  0  0  0
  189.0030  176.3810  142.9720 C   0  0  0  0  0  3  0  0  0  0  0  0
  1 48  1  0  0  0  0
  2  1  1  0  0  0  0
  3  2  1  0  0  0  0
  5  6  1  6  0  0  0
  5  9  1  0  0  0  0
  5  3  1  0  0  0  0
  5  4  1  0  0  0  0
  7 16  1  0  0  0  0
  7 13  1  1  0  0  0
  9 15  1  6  0  0  0
  9 16  1  0  0  0  0
 11 10  1  1  0  0  0
 11 14  1  0  0  0  0
 11  9  1  0  0  0  0
 14  8  1  6  0  0  0
 14  7  1  0  0  0  0
 16 12  1  1  0  0  0
 17 18  1  1  0  0  0
 17 14  1  0  0  0  0
 17 19  1  0  0  0  0
 20 19  1  0  0  0  0
 21  1  1  0  0  0  0
 22 21  1  0  0  0  0
 23 26  1  0  0  0  0
 23 22  1  0  0  0  0
 24 26  2  0  0  0  0
 26 25  1  0  0  0  0
 27 38  1  0  0  0  0
 28 34  1  0  0  0  0
 29 42  1  0  0  0  0
 30 28  2  0  0  0  0
 30 33  1  0  0  0  0
 31 39  1  0  0  0  0
 32 31  1  0  0  0  0
 33 32  2  0  0  0  0
 34 41  1  0  0  0  0
 34 31  2  0  0  0  0
 35 27  2  0  0  0  0
 36 45  1  0  0  0  0
 37 44  1  0  0  0  0
 38 40  2  0  0  0  0
 39 37  1  0  0  0  0
 40 36  1  0  0  0  0
 41 25  1  6  0  0  0
 41 43  1  0  0  0  0
 42 36  2  0  0  0  0
 43 35  1  0  0  0  0
 43 37  2  0  0  0  0
 44 38  1  0  0  0  0
 44 29  2  0  0  0  0
 45 46  2  0  0  0  0
 45 47  1  0  0  0  0
 48 49  1  0  0  0  0
 49 51  1  0  0  0  0
 51 55  2  0  0  0  0
 51 52  1  0  0  0  0
 52 54  2  0  0  0  0
 53 50  2  0  0  0  0
 54 50  1  0  0  0  0
 55 53  1  0  0  0  0
M  END
>  <MODEL>
4

>  <REMARK>
 VINA RESULT:      -8.8      2.013      3.128
  Name = 
  15 active torsions:
  status: ('A' for Active; 'I' for Inactive)
    1  A    between atoms: O_4  and  C_37
    2  A    between atoms: O_4  and  C_40
    3  A    between atoms: C_6  and  C_20
    4  A    between atoms: C_8  and  C_22
    5  A    between atoms: C_8  and  N_43
    6  A    between atoms: C_10  and  C_32
    7  A    between atoms: C_11  and  C_29
    8  A    between atoms: N_19  and  C_45
    9  A    between atoms: C_20  and  C_22
   10  A    between atoms: C_27  and  C_54
   11  A    between atoms: C_29  and  C_38
   12  A    between atoms: C_35  and  C_37
   13  A    between atoms: C_35  and  N_43
   14  A    between atoms: N_43  and  C_51
   15  A    between atoms: C_51  and  C_54
                            x       y       z     vdW  Elec       q    Type
                         _______ _______ _______ _____ _____    ______ ____

>  <TORSDO>
F 15

$$$$
=
 OpenBabel11052414583D

 55 60  0  0  1  0  0  0  0  0999 V2000
  186.7410  175.8540  136.0850 N   0  0  0  0  0  0  0  0  0  0  0  0
  186.0960  174.6740  136.6310 C   0  0  0  0  0  2  0  0  0  0  0  0
  184.9730  174.2310  135.7030 C   0  0  0  0  0  2  0  0  0  0  0  0
  184.6890  171.8830  135.3570 O   0  0  0  0  0  1  0  0  0  0  0  0
  184.2770  172.9460  136.1680 C   0  0  1  0  0  0  0  0  0  0  0  0
  184.7720  172.6570  137.5810 C   0  0  0  0  0  1  0  0  0  0  0  0
  180.7460  172.4630  137.4750 C   0  0  2  0  0  3  0  0  0  0  0  0
  179.8920  174.1540  136.0020 O   0  0  0  0  0  1  0  0  0  0  0  0
  182.7180  173.0700  136.1140 C   0  0  1  0  0  0  0  0  0  0  0  0
  182.8640  174.7010  137.9110 O   0  0  0  0  0  1  0  0  0  0  0  0
  182.1360  174.3340  136.7730 C   0  0  2  0  0  3  0  0  0  0  0  0
  181.7860  170.8210  135.9990 O   0  0  0  0  0  1  0  0  0  0  0  0
  179.6010  171.7840  137.0450 O   0  0  0  0  0  1  0  0  0  0  0  0
  180.6890  173.9570  137.1370 C   0  0  2  0  0  0  0  0  0  0  0  0
  182.3100  173.0710  134.7730 O   0  0  0  0  0  1  0  0  0  0  0  0
  182.0280  171.9080  136.8470 C   0  0  2  0  0  3  0  0  0  0  0  0
  180.0760  174.7560  138.3040 C   0  0  1  0  0  3  0  0  0  0  0  0
  178.9790  175.5190  137.8900 O   0  0  0  0  0  1  0  0  0  0  0  0
  179.6820  173.8570  139.4690 C   0  0  0  0  0  2  0  0  0  0  0  0
  180.0030  174.4800  140.6760 O   0  0  0  0  0  1  0  0  0  0  0  0
  186.7720  176.8540  137.1450 C   0  0  0  0  0  2  0  0  0  0  0  0
  185.5660  177.7760  137.0410 C   0  0  0  0  0  2  0  0  0  0  0  0
  184.6470  177.4960  138.0850 O   0  0  0  0  0  0  0  0  0  0  0  0
  184.7490  179.5980  138.9920 O   0  0  0  0  0  0  0  0  0  0  0  0
  183.9550  177.9130  140.4000 N   0  0  0  0  0  2  0  0  0  0  0  0
  184.4540  178.3830  139.1440 C   0  0  0  0  0  0  0  0  0  0  0  0
  187.1210  177.9830  143.0730 N   0  0  0  0  0  0  0  0  0  0  0  0
  181.2780  178.4540  141.2240 C   0  0  0  0  0  3  0  0  0  0  0  0
  185.3760  178.3850  146.2760 C   0  0  0  0  0  3  0  0  0  0  0  0
  179.9740  178.3410  141.7140 C   0  0  0  0  0  3  0  0  0  0  0  0
  182.1090  178.7340  143.4850 C   0  0  0  0  0  0  0  0  0  0  0  0
  180.8000  178.6310  143.9690 C   0  0  0  0  0  3  0  0  0  0  0  0
  179.7360  178.4270  143.0870 C   0  0  0  0  0  3  0  0  0  0  0  0
  182.3590  178.6360  142.1010 C   0  0  0  0  0  0  0  0  0  0  0  0
  186.1380  178.2290  142.1690 C   0  0  0  0  0  3  0  0  0  0  0  0
  187.6950  177.7860  146.6850 C   0  0  0  0  0  0  0  0  0  0  0  0
  184.5610  178.5940  143.9690 C   0  0  0  0  0  0  0  0  0  0  0  0
  186.8830  178.0150  144.4070 C   0  0  0  0  0  0  0  0  0  0  0  0
  183.2070  179.0370  144.4550 C   0  0  0  0  0  2  0  0  0  0  0  0
  187.9210  177.7420  145.3020 C   0  0  0  0  0  3  0  0  0  0  0  0
  183.7630  178.7900  141.5520 C   0  0  1  0  0  3  0  0  0  0  0  0
  186.4180  178.1120  147.1640 C   0  0  0  0  0  3  0  0  0  0  0  0
  184.8320  178.5150  142.5870 C   0  0  0  0  0  0  0  0  0  0  0  0
  185.5950  178.3340  144.8910 C   0  0  0  0  0  0  0  0  0  0  0  0
  188.7920  177.4900  147.6200 C   0  0  0  0  0  0  0  0  0  0  0  0
  188.7030  177.8780  148.9520 O   0  0  0  0  0  1  0  0  0  0  0  0
  189.8240  176.8870  147.2220 O   0  0  0  0  0  0  0  0  0  0  0  0
  188.1150  175.4780  135.7890 C   0  0  0  0  0  2  0  0  0  0  0  0
  188.9790  176.7250  135.7580 C   0  0  0  0  0  2  0  0  0  0  0  0
  192.6950  175.9550  137.6970 C   0  0  0  0  0  3  0  0  0  0  0  0
  190.2780  176.4780  136.4410 C   0  0  0  0  0  0  0  0  0  0  0  0
  191.3770  176.1400  135.7130 N   0  0  0  0  0  0  0  0  0  0  0  0
  191.5790  176.3010  138.4610 C   0  0  0  0  0  3  0  0  0  0  0  0
  192.5730  175.8800  136.3070 C   0  0  0  0  0  3  0  0  0  0  0  0
  190.3610  176.5660  137.8340 C   0  0  0  0  0  3  0  0  0  0  0  0
  1  2  1  0  0  0  0
  1 21  1  0  0  0  0
  3  5  1  0  0  0  0
  3  2  1  0  0  0  0
  4  5  1  0  0  0  0
  5  6  1  1  0  0  0
  7 13  1  6  0  0  0
  9 15  1  6  0  0  0
  9  5  1  0  0  0  0
  9 11  1  0  0  0  0
  9 16  1  0  0  0  0
 11 14  1  0  0  0  0
 11 10  1  1  0  0  0
 14  8  1  6  0  0  0
 14  7  1  0  0  0  0
 14 17  1  0  0  0  0
 16 12  1  6  0  0  0
 16  7  1  0  0  0  0
 17 18  1  6  0  0  0
 17 19  1  0  0  0  0
 19 20  1  0  0  0  0
 22 21  1  0  0  0  0
 22 23  1  0  0  0  0
 23 26  1  0  0  0  0
 24 26  2  0  0  0  0
 26 25  1  0  0  0  0
 27 38  1  0  0  0  0
 28 30  2  0  0  0  0
 28 34  1  0  0  0  0
 29 42  1  0  0  0  0
 30 33  1  0  0  0  0
 31 32  1  0  0  0  0
 31 39  1  0  0  0  0
 33 32  2  0  0  0  0
 34 31  2  0  0  0  0
 35 43  1  0  0  0  0
 35 27  2  0  0  0  0
 36 42  2  0  0  0  0
 36 45  1  0  0  0  0
 37 39  1  0  0  0  0
 37 44  1  0  0  0  0
 38 44  1  0  0  0  0
 38 40  2  0  0  0  0
 40 36  1  0  0  0  0
 41 25  1  6  0  0  0
 41 34  1  0  0  0  0
 41 43  1  0  0  0  0
 43 37  2  0  0  0  0
 44 29  2  0  0  0  0
 45 46  1  0  0  0  0
 47 45  2  0  0  0  0
 48  1  1  0  0  0  0
 49 48  1  0  0  0  0
 49 51  1  0  0  0  0
 50 53  1  0  0  0  0
 51 55  1  0  0  0  0
 52 54  1  0  0  0  0
 52 51  2  0  0  0  0
 54 50  2  0  0  0  0
 55 53  2  0  0  0  0
M  END
>  <MODEL>
5

>  <REMARK>
 VINA RESULT:      -8.6      4.031      7.354
  Name = 
  15 active torsions:
  status: ('A' for Active; 'I' for Inactive)
    1  A    between atoms: O_4  and  C_37
    2  A    between atoms: O_4  and  C_40
    3  A    between atoms: C_6  and  C_20
    4  A    between atoms: C_8  and  C_22
    5  A    between atoms: C_8  and  N_43
    6  A    between atoms: C_10  and  C_32
    7  A    between atoms: C_11  and  C_29
    8  A    between atoms: N_19  and  C_45
    9  A    between atoms: C_20  and  C_22
   10  A    between atoms: C_27  and  C_54
   11  A    between atoms: C_29  and  C_38
   12  A    between atoms: C_35  and  C_37
   13  A    between atoms: C_35  and  N_43
   14  A    between atoms: N_43  and  C_51
   15  A    between atoms: C_51  and  C_54
                            x       y       z     vdW  Elec       q    Type
                         _______ _______ _______ _____ _____    ______ ____

>  <TORSDO>
F 15

$$$$
=
 OpenBabel11052414583D

 55 60  0  0  1  0  0  0  0  0999 V2000
  191.0880  177.1320  138.3420 N   0  0  0  0  0  0  0  0  0  0  0  0
  190.2310  176.8300  137.2100 C   0  0  0  0  0  2  0  0  0  0  0  0
  189.6380  175.4370  137.3760 C   0  0  0  0  0  2  0  0  0  0  0  0
  189.8610  175.5210  134.9980 O   0  0  0  0  0  1  0  0  0  0  0  0
  189.5210  174.6690  136.0550 C   0  0  1  0  0  0  0  0  0  0  0  0
  190.5600  173.5550  136.0920 C   0  0  0  0  0  1  0  0  0  0  0  0
  185.9360  173.9060  137.0440 C   0  0  2  0  0  3  0  0  0  0  0  0
  185.2900  173.6110  134.7510 O   0  0  0  0  0  1  0  0  0  0  0  0
  188.0780  174.1080  135.8270 C   0  0  1  0  0  0  0  0  0  0  0  0
  187.2790  176.4040  135.7630 O   0  0  0  0  0  1  0  0  0  0  0  0
  187.0620  175.1160  135.2570 C   0  0  2  0  0  3  0  0  0  0  0  0
  187.7220  172.2800  137.3990 O   0  0  0  0  0  1  0  0  0  0  0  0
  185.1640  172.7490  137.2070 O   0  0  0  0  0  1  0  0  0  0  0  0
  185.6880  174.5750  135.6870 C   0  0  2  0  0  0  0  0  0  0  0  0
  188.1460  173.0320  134.9300 O   0  0  0  0  0  1  0  0  0  0  0  0
  187.4390  173.6260  137.1390 C   0  0  2  0  0  3  0  0  0  0  0  0
  184.5710  175.6320  135.7980 C   0  0  1  0  0  3  0  0  0  0  0  0
  184.3900  176.3230  134.5960 O   0  0  0  0  0  1  0  0  0  0  0  0
  183.2520  175.0260  136.2610 C   0  0  0  0  0  2  0  0  0  0  0  0
  182.3410  175.0120  135.2040 O   0  0  0  0  0  1  0  0  0  0  0  0
  190.2800  176.9680  139.5450 C   0  0  0  0  0  2  0  0  0  0  0  0
  190.8440  177.8070  140.6820 C   0  0  0  0  0  2  0  0  0  0  0  0
  191.1900  176.9740  141.7780 O   0  0  0  0  0  0  0  0  0  0  0  0
  190.0850  175.2410  142.7930 O   0  0  0  0  0  0  0  0  0  0  0  0
  189.3690  177.3890  143.3670 N   0  0  0  0  0  2  0  0  0  0  0  0
  190.2210  176.4850  142.6540 C   0  0  0  0  0  0  0  0  0  0  0  0
  185.5110  177.8970  141.9420 N   0  0  0  0  0  0  0  0  0  0  0  0
  189.9490  177.3550  146.1600 C   0  0  0  0  0  3  0  0  0  0  0  0
  183.6780  178.6620  145.0270 C   0  0  0  0  0  3  0  0  0  0  0  0
  190.2440  177.7220  147.4760 C   0  0  0  0  0  3  0  0  0  0  0  0
  187.5900  177.7280  146.5790 C   0  0  0  0  0  0  0  0  0  0  0  0
  187.8900  178.0850  147.8980 C   0  0  0  0  0  3  0  0  0  0  0  0
  189.2140  178.0900  148.3440 C   0  0  0  0  0  3  0  0  0  0  0  0
  188.6250  177.3680  145.6920 C   0  0  0  0  0  0  0  0  0  0  0  0
  186.7090  177.4630  142.4100 C   0  0  0  0  0  3  0  0  0  0  0  0
  182.2780  179.1650  143.1060 C   0  0  0  0  0  0  0  0  0  0  0  0
  185.9550  177.8100  144.6850 C   0  0  0  0  0  0  0  0  0  0  0  0
  184.5260  178.3040  142.7790 C   0  0  0  0  0  0  0  0  0  0  0  0
  186.1530  177.6540  146.1690 C   0  0  0  0  0  2  0  0  0  0  0  0
  183.3130  178.7560  142.2530 C   0  0  0  0  0  3  0  0  0  0  0  0
  188.3180  176.9340  144.2730 C   0  0  1  0  0  3  0  0  0  0  0  0
  182.4680  179.1110  144.4940 C   0  0  0  0  0  3  0  0  0  0  0  0
  186.9740  177.4300  143.7860 C   0  0  0  0  0  0  0  0  0  0  0  0
  184.7200  178.2590  144.1780 C   0  0  0  0  0  0  0  0  0  0  0  0
  181.0070  179.6460  142.5420 C   0  0  0  0  0  0  0  0  0  0  0  0
  180.7990  179.6330  141.1680 O   0  0  0  0  0  0  0  0  0  0  0  0
  180.0970  180.0790  143.2990 O   0  0  0  0  0  1  0  0  0  0  0  0
  192.1270  176.1150  138.3620 C   0  0  0  0  0  2  0  0  0  0  0  0
  193.2870  176.5680  137.4960 C   0  0  0  0  0  2  0  0  0  0  0  0
  195.9700  173.3430  136.7450 C   0  0  0  0  0  3  0  0  0  0  0  0
  194.2300  175.4430  137.2550 C   0  0  0  0  0  0  0  0  0  0  0  0
  195.2970  175.6130  136.4270 N   0  0  0  0  0  0  0  0  0  0  0  0
  194.8820  173.1490  137.5990 C   0  0  0  0  0  3  0  0  0  0  0  0
  196.1630  174.5980  136.1620 C   0  0  0  0  0  3  0  0  0  0  0  0
  194.0040  174.2030  137.8590 C   0  0  0  0  0  3  0  0  0  0  0  0
  1 48  1  0  0  0  0
  1 21  1  0  0  0  0
  2  3  1  0  0  0  0
  2  1  1  0  0  0  0
  4  5  1  0  0  0  0
  5  6  1  1  0  0  0
  5  3  1  0  0  0  0
  7 16  1  0  0  0  0
  7 13  1  6  0  0  0
  9 15  1  6  0  0  0
  9  5  1  0  0  0  0
  9 16  1  0  0  0  0
 11 14  1  0  0  0  0
 11 10  1  1  0  0  0
 11  9  1  0  0  0  0
 14  8  1  6  0  0  0
 14 17  1  0  0  0  0
 14  7  1  0  0  0  0
 16 12  1  6  0  0  0
 17 18  1  6  0  0  0
 17 19  1  0  0  0  0
 20 19  1  0  0  0  0
 21 22  1  0  0  0  0
 22 23  1  0  0  0  0
 23 26  1  0  0  0  0
 26 24  2  0  0  0  0
 26 25  1  0  0  0  0
 27 35  2  0  0  0  0
 27 38  1  0  0  0  0
 28 30  1  0  0  0  0
 30 33  2  0  0  0  0
 31 32  2  0  0  0  0
 32 33  1  0  0  0  0
 34 28  2  0  0  0  0
 34 31  1  0  0  0  0
 35 43  1  0  0  0  0
 36 42  2  0  0  0  0
 37 39  1  0  0  0  0
 38 44  1  0  0  0  0
 39 31  1  0  0  0  0
 40 38  2  0  0  0  0
 40 36  1  0  0  0  0
 41 25  1  6  0  0  0
 41 34  1  0  0  0  0
 42 29  1  0  0  0  0
 43 41  1  0  0  0  0
 43 37  2  0  0  0  0
 44 37  1  0  0  0  0
 44 29  2  0  0  0  0
 45 36  1  0  0  0  0
 45 47  1  0  0  0  0
 46 45  2  0  0  0  0
 49 48  1  0  0  0  0
 50 53  1  0  0  0  0
 51 49  1  0  0  0  0
 51 55  1  0  0  0  0
 52 51  2  0  0  0  0
 53 55  2  0  0  0  0
 54 52  1  0  0  0  0
 54 50  2  0  0  0  0
M  END
>  <MODEL>
6

>  <REMARK>
 VINA RESULT:      -8.5      2.771      7.154
  Name = 
  15 active torsions:
  status: ('A' for Active; 'I' for Inactive)
    1  A    between atoms: O_4  and  C_37
    2  A    between atoms: O_4  and  C_40
    3  A    between atoms: C_6  and  C_20
    4  A    between atoms: C_8  and  C_22
    5  A    between atoms: C_8  and  N_43
    6  A    between atoms: C_10  and  C_32
    7  A    between atoms: C_11  and  C_29
    8  A    between atoms: N_19  and  C_45
    9  A    between atoms: C_20  and  C_22
   10  A    between atoms: C_27  and  C_54
   11  A    between atoms: C_29  and  C_38
   12  A    between atoms: C_35  and  C_37
   13  A    between atoms: C_35  and  N_43
   14  A    between atoms: N_43  and  C_51
   15  A    between atoms: C_51  and  C_54
                            x       y       z     vdW  Elec       q    Type
                         _______ _______ _______ _____ _____    ______ ____

>  <TORSDO>
F 15

$$$$
=
 OpenBabel11052414583D

 55 60  0  0  1  0  0  0  0  0999 V2000
  184.3580  175.3010  136.0980 N   0  0  0  0  0  0  0  0  0  0  0  0
  185.1600  174.8050  134.9940 C   0  0  0  0  0  2  0  0  0  0  0  0
  186.6330  175.0680  135.2750 C   0  0  0  0  0  2  0  0  0  0  0  0
  186.5260  173.5740  137.1380 O   0  0  0  0  0  1  0  0  0  0  0  0
  187.3150  173.9260  136.0370 C   0  0  1  0  0  0  0  0  0  0  0  0
  187.3510  172.7230  135.1020 C   0  0  0  0  0  1  0  0  0  0  0  0
  190.3870  176.1470  136.2400 C   0  0  2  0  0  3  0  0  0  0  0  0
  191.1250  175.0660  138.2520 O   0  0  0  0  0  1  0  0  0  0  0  0
  188.7470  174.3200  136.5290 C   0  0  1  0  0  0  0  0  0  0  0  0
  187.7230  176.0870  137.8480 O   0  0  0  0  0  1  0  0  0  0  0  0
  188.7910  175.1820  137.8040 C   0  0  2  0  0  3  0  0  0  0  0  0
  190.2290  174.3520  134.5940 O   0  0  0  0  0  1  0  0  0  0  0  0
  191.7410  176.0210  135.9070 O   0  0  0  0  0  1  0  0  0  0  0  0
  190.1400  175.9180  137.7360 C   0  0  2  0  0  0  0  0  0  0  0  0
  189.4750  173.1500  136.7910 O   0  0  0  0  0  1  0  0  0  0  0  0
  189.5010  175.1540  135.4810 C   0  0  2  0  0  3  0  0  0  0  0  0
  190.2010  177.2510  138.5070 C   0  0  1  0  0  3  0  0  0  0  0  0
  189.5490  178.2790  137.8180 O   0  0  0  0  0  1  0  0  0  0  0  0
  189.6400  177.1240  139.9170 C   0  0  0  0  0  2  0  0  0  0  0  0
  190.5350  177.6760  140.8350 O   0  0  0  0  0  1  0  0  0  0  0  0
  184.5910  176.7380  136.1840 C   0  0  0  0  0  2  0  0  0  0  0  0
  184.6130  177.1860  137.6370 C   0  0  0  0  0  2  0  0  0  0  0  0
  183.7860  178.3270  137.8080 O   0  0  0  0  0  0  0  0  0  0  0  0
  184.1830  180.2570  138.9790 O   0  0  0  0  0  0  0  0  0  0  0  0
  183.3890  178.4480  140.2250 N   0  0  0  0  0  2  0  0  0  0  0  0
  183.7930  179.0600  138.9950 C   0  0  0  0  0  0  0  0  0  0  0  0
  186.9650  178.1940  142.3030 N   0  0  0  0  0  0  0  0  0  0  0  0
  180.8980  178.8350  141.5600 C   0  0  0  0  0  3  0  0  0  0  0  0
  185.7960  178.1290  145.7810 C   0  0  0  0  0  3  0  0  0  0  0  0
  179.6960  178.6380  142.2440 C   0  0  0  0  0  3  0  0  0  0  0  0
  182.1050  178.8130  143.6620 C   0  0  0  0  0  0  0  0  0  0  0  0
  180.8970  178.6260  144.3430 C   0  0  0  0  0  3  0  0  0  0  0  0
  179.6960  178.5310  143.6370 C   0  0  0  0  0  3  0  0  0  0  0  0
  182.1150  178.9090  142.2550 C   0  0  0  0  0  0  0  0  0  0  0  0
  185.8460  178.5480  141.6220 C   0  0  0  0  0  3  0  0  0  0  0  0
  188.1460  177.5110  145.7030 C   0  0  0  0  0  0  0  0  0  0  0  0
  184.6030  178.6410  143.6980 C   0  0  0  0  0  0  0  0  0  0  0  0
  186.9590  178.0390  143.6500 C   0  0  0  0  0  0  0  0  0  0  0  0
  183.3550  178.9950  144.4630 C   0  0  0  0  0  2  0  0  0  0  0  0
  188.1310  177.6600  144.3090 C   0  0  0  0  0  3  0  0  0  0  0  0
  183.4060  179.1560  141.5020 C   0  0  1  0  0  3  0  0  0  0  0  0
  186.9730  177.7510  146.4330 C   0  0  0  0  0  3  0  0  0  0  0  0
  184.6330  178.7560  142.2920 C   0  0  0  0  0  0  0  0  0  0  0  0
  185.7750  178.2710  144.3850 C   0  0  0  0  0  0  0  0  0  0  0  0
  189.3830  177.1050  146.3870 C   0  0  0  0  0  0  0  0  0  0  0  0
  190.6220  177.4630  145.8670 O   0  0  0  0  0  0  0  0  0  0  0  0
  189.3320  176.4260  147.4470 O   0  0  0  0  0  1  0  0  0  0  0  0
  182.9670  175.0980  135.7260 C   0  0  0  0  0  2  0  0  0  0  0  0
  182.3630  174.0270  136.6150 C   0  0  0  0  0  2  0  0  0  0  0  0
  179.5880  175.7950  139.3240 C   0  0  0  0  0  3  0  0  0  0  0  0
  181.3990  174.6290  137.5770 C   0  0  0  0  0  0  0  0  0  0  0  0
  180.0640  174.5950  137.3130 N   0  0  0  0  0  0  0  0  0  0  0  0
  180.9530  175.8390  139.6120 C   0  0  0  0  0  3  0  0  0  0  0  0
  179.1570  175.1600  138.1560 C   0  0  0  0  0  3  0  0  0  0  0  0
  181.8690  175.2530  138.7360 C   0  0  0  0  0  3  0  0  0  0  0  0
  1 21  1  0  0  0  0
  2  3  1  0  0  0  0
  2  1  1  0  0  0  0
  3  5  1  0  0  0  0
  5  6  1  6  0  0  0
  5  9  1  0  0  0  0
  5  4  1  0  0  0  0
  7 13  1  1  0  0  0
  7 14  1  0  0  0  0
  9 15  1  1  0  0  0
  9 11  1  0  0  0  0
 11 10  1  6  0  0  0
 14 11  1  0  0  0  0
 14  8  1  1  0  0  0
 14 17  1  0  0  0  0
 16 12  1  1  0  0  0
 16  7  1  0  0  0  0
 16  9  1  0  0  0  0
 17 18  1  6  0  0  0
 17 19  1  0  0  0  0
 19 20  1  0  0  0  0
 21 22  1  0  0  0  0
 22 23  1  0  0  0  0
 23 26  1  0  0  0  0
 24 26  2  0  0  0  0
 26 25  1  0  0  0  0
 27 38  1  0  0  0  0
 28 30  2  0  0  0  0
 28 34  1  0  0  0  0
 29 42  1  0  0  0  0
 30 33  1  0  0  0  0
 31 32  1  0  0  0  0
 31 39  1  0  0  0  0
 33 32  2  0  0  0  0
 34 31  2  0  0  0  0
 35 43  1  0  0  0  0
 35 27  2  0  0  0  0
 36 45  1  0  0  0  0
 36 42  2  0  0  0  0
 37 44  1  0  0  0  0
 37 39  1  0  0  0  0
 38 40  2  0  0  0  0
 38 44  1  0  0  0  0
 40 36  1  0  0  0  0
 41 25  1  6  0  0  0
 41 34  1  0  0  0  0
 41 43  1  0  0  0  0
 43 37  2  0  0  0  0
 44 29  2  0  0  0  0
 45 47  1  0  0  0  0
 46 45  2  0  0  0  0
 48  1  1  0  0  0  0
 48 49  1  0  0  0  0
 49 51  1  0  0  0  0
 50 53  1  0  0  0  0
 51 55  1  0  0  0  0
 52 51  2  0  0  0  0
 52 54  1  0  0  0  0
 54 50  2  0  0  0  0
 55 53  2  0  0  0  0
M  END
>  <MODEL>
7

>  <REMARK>
 VINA RESULT:      -8.4      2.517      5.257
  Name = 
  15 active torsions:
  status: ('A' for Active; 'I' for Inactive)
    1  A    between atoms: O_4  and  C_37
    2  A    between atoms: O_4  and  C_40
    3  A    between atoms: C_6  and  C_20
    4  A    between atoms: C_8  and  C_22
    5  A    between atoms: C_8  and  N_43
    6  A    between atoms: C_10  and  C_32
    7  A    between atoms: C_11  and  C_29
    8  A    between atoms: N_19  and  C_45
    9  A    between atoms: C_20  and  C_22
   10  A    between atoms: C_27  and  C_54
   11  A    between atoms: C_29  and  C_38
   12  A    between atoms: C_35  and  C_37
   13  A    between atoms: C_35  and  N_43
   14  A    between atoms: N_43  and  C_51
   15  A    between atoms: C_51  and  C_54
                            x       y       z     vdW  Elec       q    Type
                         _______ _______ _______ _____ _____    ______ ____

>  <TORSDO>
F 15

$$$$
=
 OpenBabel11052414583D

 55 60  0  0  1  0  0  0  0  0999 V2000
  186.8700  175.2690  136.5410 N   0  0  0  0  0  0  0  0  0  0  0  0
  187.8590  175.7910  135.6160 C   0  0  0  0  0  2  0  0  0  0  0  0
  189.2080  175.1410  135.8900 C   0  0  0  0  0  2  0  0  0  0  0  0
  191.4310  175.9130  135.4710 O   0  0  0  0  0  1  0  0  0  0  0  0
  190.3010  176.1510  136.2610 C   0  0  1  0  0  0  0  0  0  0  0  0
  189.7740  177.5330  135.8940 C   0  0  0  0  0  1  0  0  0  0  0  0
  191.9340  177.3740  139.4610 C   0  0  2  0  0  3  0  0  0  0  0  0
  190.5930  175.8970  140.7960 O   0  0  0  0  0  1  0  0  0  0  0  0
  190.6940  176.0630  137.7730 C   0  0  1  0  0  0  0  0  0  0  0  0
  189.1330  177.8770  138.2030 O   0  0  0  0  0  1  0  0  0  0  0  0
  189.7010  176.7200  138.7500 C   0  0  2  0  0  3  0  0  0  0  0  0
  193.1220  175.9070  137.9140 O   0  0  0  0  0  1  0  0  0  0  0  0
  192.9450  176.9120  140.3130 O   0  0  0  0  0  1  0  0  0  0  0  0
  190.5360  177.0480  139.9990 C   0  0  2  0  0  0  0  0  0  0  0  0
  190.8050  174.7130  138.1350 O   0  0  0  0  0  1  0  0  0  0  0  0
  192.0290  176.7700  138.0570 C   0  0  2  0  0  3  0  0  0  0  0  0
  190.0010  178.2080  140.8620 C   0  0  1  0  0  3  0  0  0  0  0  0
  188.7060  178.5810  140.4840 O   0  0  0  0  0  1  0  0  0  0  0  0
  190.0420  177.8830  142.3490 C   0  0  0  0  0  2  0  0  0  0  0  0
  191.2520  178.3140  142.8940 O   0  0  0  0  0  1  0  0  0  0  0  0
  185.7180  176.1610  136.4830 C   0  0  0  0  0  2  0  0  0  0  0  0
  185.7920  177.1980  137.5930 C   0  0  0  0  0  2  0  0  0  0  0  0
  184.5000  177.4260  138.1350 O   0  0  0  0  0  0  0  0  0  0  0  0
  184.5910  179.5500  138.9910 O   0  0  0  0  0  0  0  0  0  0  0  0
  183.7820  177.9000  140.4310 N   0  0  0  0  0  2  0  0  0  0  0  0
  184.2960  178.3400  139.1690 C   0  0  0  0  0  0  0  0  0  0  0  0
  186.8860  177.9820  143.1760 N   0  0  0  0  0  0  0  0  0  0  0  0
  181.0960  178.4970  141.1800 C   0  0  0  0  0  3  0  0  0  0  0  0
  185.0730  178.4790  146.3270 C   0  0  0  0  0  3  0  0  0  0  0  0
  179.7790  178.4140  141.6420 C   0  0  0  0  0  3  0  0  0  0  0  0
  181.8780  178.8140  143.4530 C   0  0  0  0  0  0  0  0  0  0  0  0
  180.5570  178.7410  143.9080 C   0  0  0  0  0  3  0  0  0  0  0  0
  179.5100  178.5330  143.0070 C   0  0  0  0  0  3  0  0  0  0  0  0
  182.1590  178.6820  142.0780 C   0  0  0  0  0  0  0  0  0  0  0  0
  185.9290  178.2220  142.2440 C   0  0  0  0  0  3  0  0  0  0  0  0
  187.3740  177.8560  146.8040 C   0  0  0  0  0  0  0  0  0  0  0  0
  184.3160  178.6490  143.9980 C   0  0  0  0  0  0  0  0  0  0  0  0
  186.6180  178.0460  144.5030 C   0  0  0  0  0  0  0  0  0  0  0  0
  182.9570  179.1220  144.4420 C   0  0  0  0  0  2  0  0  0  0  0  0
  187.6300  177.7780  145.4280 C   0  0  0  0  0  3  0  0  0  0  0  0
  183.5770  178.8040  141.5590 C   0  0  1  0  0  3  0  0  0  0  0  0
  186.0910  178.2110  147.2460 C   0  0  0  0  0  3  0  0  0  0  0  0
  184.6180  178.5360  142.6250 C   0  0  0  0  0  0  0  0  0  0  0  0
  185.3240  178.3950  144.9490 C   0  0  0  0  0  0  0  0  0  0  0  0
  188.4440  177.5650  147.7700 C   0  0  0  0  0  0  0  0  0  0  0  0
  189.6130  176.9370  147.3540 O   0  0  0  0  0  0  0  0  0  0  0  0
  188.3110  177.8770  148.9830 O   0  0  0  0  0  1  0  0  0  0  0  0
  186.4570  173.9750  136.0230 C   0  0  0  0  0  2  0  0  0  0  0  0
  186.0280  173.0870  137.1770 C   0  0  0  0  0  2  0  0  0  0  0  0
  182.6250  170.7890  136.0370 C   0  0  0  0  0  3  0  0  0  0  0  0
  184.8370  172.2790  136.8010 C   0  0  0  0  0  0  0  0  0  0  0  0
  184.9810  171.1850  136.0040 N   0  0  0  0  0  0  0  0  0  0  0  0
  182.4570  171.9080  136.8560 C   0  0  0  0  0  3  0  0  0  0  0  0
  183.9110  170.4390  135.6170 C   0  0  0  0  0  3  0  0  0  0  0  0
  183.5680  172.6600  137.2430 C   0  0  0  0  0  3  0  0  0  0  0  0
  2  3  1  0  0  0  0
  2  1  1  0  0  0  0
  3  5  1  0  0  0  0
  4  5  1  0  0  0  0
  5  6  1  6  0  0  0
  5  9  1  0  0  0  0
  7 14  1  0  0  0  0
  7 13  1  1  0  0  0
  9 16  1  0  0  0  0
  9 15  1  1  0  0  0
  9 11  1  0  0  0  0
 11 10  1  6  0  0  0
 11 14  1  0  0  0  0
 14  8  1  1  0  0  0
 14 17  1  0  0  0  0
 16 12  1  1  0  0  0
 16  7  1  0  0  0  0
 17 18  1  6  0  0  0
 17 19  1  0  0  0  0
 19 20  1  0  0  0  0
 21  1  1  0  0  0  0
 21 22  1  0  0  0  0
 22 23  1  0  0  0  0
 23 26  1  0  0  0  0
 24 26  2  0  0  0  0
 26 25  1  0  0  0  0
 27 38  1  0  0  0  0
 28 30  2  0  0  0  0
 28 34  1  0  0  0  0
 29 42  1  0  0  0  0
 30 33  1  0  0  0  0
 31 32  1  0  0  0  0
 31 39  1  0  0  0  0
 33 32  2  0  0  0  0
 34 31  2  0  0  0  0
 35 43  1  0  0  0  0
 35 27  2  0  0  0  0
 36 42  2  0  0  0  0
 36 45  1  0  0  0  0
 37 39  1  0  0  0  0
 37 44  1  0  0  0  0
 38 44  1  0  0  0  0
 38 40  2  0  0  0  0
 40 36  1  0  0  0  0
 41 25  1  6  0  0  0
 41 34  1  0  0  0  0
 41 43  1  0  0  0  0
 43 37  2  0  0  0  0
 44 29  2  0  0  0  0
 45 47  1  0  0  0  0
 46 45  2  0  0  0  0
 48  1  1  0  0  0  0
 48 49  1  0  0  0  0
 50 53  1  0  0  0  0
 51 49  1  0  0  0  0
 51 55  1  0  0  0  0
 52 51  2  0  0  0  0
 53 55  2  0  0  0  0
 54 52  1  0  0  0  0
 54 50  2  0  0  0  0
M  END
>  <MODEL>
8

>  <REMARK>
 VINA RESULT:      -8.3      2.766      5.127
  Name = 
  15 active torsions:
  status: ('A' for Active; 'I' for Inactive)
    1  A    between atoms: O_4  and  C_37
    2  A    between atoms: O_4  and  C_40
    3  A    between atoms: C_6  and  C_20
    4  A    between atoms: C_8  and  C_22
    5  A    between atoms: C_8  and  N_43
    6  A    between atoms: C_10  and  C_32
    7  A    between atoms: C_11  and  C_29
    8  A    between atoms: N_19  and  C_45
    9  A    between atoms: C_20  and  C_22
   10  A    between atoms: C_27  and  C_54
   11  A    between atoms: C_29  and  C_38
   12  A    between atoms: C_35  and  C_37
   13  A    between atoms: C_35  and  N_43
   14  A    between atoms: N_43  and  C_51
   15  A    between atoms: C_51  and  C_54
                            x       y       z     vdW  Elec       q    Type
                         _______ _______ _______ _____ _____    ______ ____

>  <TORSDO>
F 15

$$$$
=
 OpenBabel11052414583D

 55 60  0  0  1  0  0  0  0  0999 V2000
  181.3810  178.1210  138.3670 N   0  0  0  0  0  0  0  0  0  0  0  0
  180.2690  177.3690  137.8160 C   0  0  0  0  0  2  0  0  0  0  0  0
  180.7190  176.6400  136.5570 C   0  0  0  0  0  2  0  0  0  0  0  0
  178.9320  175.2060  137.2370 O   0  0  0  0  0  1  0  0  0  0  0  0
  180.0140  175.2940  136.3540 C   0  0  1  0  0  0  0  0  0  0  0  0
  179.4470  175.2960  134.9400 C   0  0  0  0  0  1  0  0  0  0  0  0
  181.5990  171.9490  135.5110 C   0  0  2  0  0  3  0  0  0  0  0  0
  183.4430  172.3680  136.9900 O   0  0  0  0  0  1  0  0  0  0  0  0
  180.9780  174.0850  136.5900 C   0  0  1  0  0  0  0  0  0  0  0  0
  182.3010  174.8730  134.7080 O   0  0  0  0  0  1  0  0  0  0  0  0
  182.3700  174.2170  135.9430 C   0  0  2  0  0  3  0  0  0  0  0  0
  179.6190  172.0910  136.9320 O   0  0  0  0  0  1  0  0  0  0  0  0
  181.6560  170.6860  136.1110 O   0  0  0  0  0  1  0  0  0  0  0  0
  182.8660  172.7700  135.7780 C   0  0  2  0  0  0  0  0  0  0  0  0
  181.1720  173.9220  137.9700 O   0  0  0  0  0  1  0  0  0  0  0  0
  180.4110  172.7810  136.0070 C   0  0  2  0  0  3  0  0  0  0  0  0
  183.8990  172.5550  134.6540 C   0  0  1  0  0  3  0  0  0  0  0  0
  184.8940  173.5390  134.6690 O   0  0  0  0  0  1  0  0  0  0  0  0
  184.5290  171.1690  134.7130 C   0  0  0  0  0  2  0  0  0  0  0  0
  185.7820  171.2440  135.3230 O   0  0  0  0  0  1  0  0  0  0  0  0
  182.5480  177.2470  138.3320 C   0  0  0  0  0  2  0  0  0  0  0  0
  183.5940  177.7950  137.3740 C   0  0  0  0  0  2  0  0  0  0  0  0
  184.8080  178.0420  138.0660 O   0  0  0  0  0  0  0  0  0  0  0  0
  184.6330  180.0430  139.1690 O   0  0  0  0  0  0  0  0  0  0  0  0
  185.1280  178.1840  140.4920 N   0  0  0  0  0  2  0  0  0  0  0  0
  184.8380  178.8020  139.2350 C   0  0  0  0  0  0  0  0  0  0  0  0
  188.7060  177.7810  142.5450 N   0  0  0  0  0  0  0  0  0  0  0  0
  182.6820  178.7710  141.8360 C   0  0  0  0  0  3  0  0  0  0  0  0
  187.5760  177.9110  146.0330 C   0  0  0  0  0  3  0  0  0  0  0  0
  181.4770  178.6740  142.5390 C   0  0  0  0  0  3  0  0  0  0  0  0
  183.9090  178.7490  143.9260 C   0  0  0  0  0  0  0  0  0  0  0  0
  182.7000  178.6620  144.6250 C   0  0  0  0  0  3  0  0  0  0  0  0
  181.4870  178.6160  143.9340 C   0  0  0  0  0  3  0  0  0  0  0  0
  183.9090  178.7940  142.5170 C   0  0  0  0  0  0  0  0  0  0  0  0
  187.6020  178.1790  141.8620 C   0  0  0  0  0  3  0  0  0  0  0  0
  189.8810  177.1470  145.9550 C   0  0  0  0  0  0  0  0  0  0  0  0
  186.3920  178.4230  143.9440 C   0  0  0  0  0  0  0  0  0  0  0  0
  188.7060  177.6740  143.8960 C   0  0  0  0  0  0  0  0  0  0  0  0
  185.1780  178.8810  144.7090 C   0  0  0  0  0  2  0  0  0  0  0  0
  189.8600  177.2470  144.5580 C   0  0  0  0  0  3  0  0  0  0  0  0
  185.2030  178.9340  141.7430 C   0  0  1  0  0  3  0  0  0  0  0  0
  188.7340  177.4850  146.6870 C   0  0  0  0  0  3  0  0  0  0  0  0
  186.4130  178.4870  142.5360 C   0  0  0  0  0  0  0  0  0  0  0  0
  187.5470  178.0060  144.6340 C   0  0  0  0  0  0  0  0  0  0  0  0
  191.0990  176.6890  146.6420 C   0  0  0  0  0  0  0  0  0  0  0  0
  191.3300  177.0370  147.9680 O   0  0  0  0  0  1  0  0  0  0  0  0
  191.9460  175.9800  146.0350 O   0  0  0  0  0  0  0  0  0  0  0  0
  181.6280  179.2280  137.4570 C   0  0  0  0  0  2  0  0  0  0  0  0
  181.3250  180.5350  138.1660 C   0  0  0  0  0  2  0  0  0  0  0  0
  180.2440  183.5790  135.3860 C   0  0  0  0  0  3  0  0  0  0  0  0
  180.9640  181.5920  137.1820 C   0  0  0  0  0  0  0  0  0  0  0  0
  181.1000  182.9050  137.5130 N   0  0  0  0  0  0  0  0  0  0  0  0
  180.0980  182.2380  135.0290 C   0  0  0  0  0  3  0  0  0  0  0  0
  180.7540  183.8970  136.6480 C   0  0  0  0  0  3  0  0  0  0  0  0
  180.4600  181.2340  135.9290 C   0  0  0  0  0  3  0  0  0  0  0  0
  2  1  1  0  0  0  0
  3  2  1  0  0  0  0
  5  6  1  6  0  0  0
  5  3  1  0  0  0  0
  5  9  1  0  0  0  0
  5  4  1  0  0  0  0
  7 14  1  0  0  0  0
  7 16  1  0  0  0  0
  7 13  1  1  0  0  0
  9 15  1  1  0  0  0
 11 10  1  6  0  0  0
 11  9  1  0  0  0  0
 14 11  1  0  0  0  0
 14  8  1  1  0  0  0
 16  9  1  0  0  0  0
 16 12  1  1  0  0  0
 17 18  1  1  0  0  0
 17 19  1  0  0  0  0
 17 14  1  0  0  0  0
 19 20  1  0  0  0  0
 21  1  1  0  0  0  0
 22 23  1  0  0  0  0
 22 21  1  0  0  0  0
 23 26  1  0  0  0  0
 24 26  2  0  0  0  0
 26 25  1  0  0  0  0
 27 38  1  0  0  0  0
 28 34  2  0  0  0  0
 28 30  1  0  0  0  0
 29 42  1  0  0  0  0
 30 33  2  0  0  0  0
 31 32  2  0  0  0  0
 31 39  1  0  0  0  0
 33 32  1  0  0  0  0
 34 31  1  0  0  0  0
 35 43  1  0  0  0  0
 35 27  2  0  0  0  0
 36 45  1  0  0  0  0
 36 42  2  0  0  0  0
 37 44  1  0  0  0  0
 37 39  1  0  0  0  0
 38 40  2  0  0  0  0
 38 44  1  0  0  0  0
 40 36  1  0  0  0  0
 41 25  1  6  0  0  0
 41 34  1  0  0  0  0
 41 43  1  0  0  0  0
 43 37  2  0  0  0  0
 44 29  2  0  0  0  0
 45 46  1  0  0  0  0
 47 45  2  0  0  0  0
 48 49  1  0  0  0  0
 48  1  1  0  0  0  0
 50 54  1  0  0  0  0
 51 52  1  0  0  0  0
 51 49  1  0  0  0  0
 53 50  2  0  0  0  0
 53 55  1  0  0  0  0
 54 52  2  0  0  0  0
 55 51  2  0  0  0  0
M  END
>  <MODEL>
9

>  <REMARK>
 VINA RESULT:      -7.9      5.056      8.361
  Name = 
  15 active torsions:
  status: ('A' for Active; 'I' for Inactive)
    1  A    between atoms: O_4  and  C_37
    2  A    between atoms: O_4  and  C_40
    3  A    between atoms: C_6  and  C_20
    4  A    between atoms: C_8  and  C_22
    5  A    between atoms: C_8  and  N_43
    6  A    between atoms: C_10  and  C_32
    7  A    between atoms: C_11  and  C_29
    8  A    between atoms: N_19  and  C_45
    9  A    between atoms: C_20  and  C_22
   10  A    between atoms: C_27  and  C_54
   11  A    between atoms: C_29  and  C_38
   12  A    between atoms: C_35  and  C_37
   13  A    between atoms: C_35  and  N_43
   14  A    between atoms: N_43  and  C_51
   15  A    between atoms: C_51  and  C_54
                            x       y       z     vdW  Elec       q    Type
                         _______ _______ _______ _____ _____    ______ ____

>  <TORSDO>
F 15

$$$$
