=
 OpenBabel11052412173D

 30 35  0  0  1  0  0  0  0  0999 V2000
  183.6980  177.8770  140.2730 C   0  0  1  0  0  3  0  0  0  0  0  0
  182.9370  178.8110  142.4840 C   0  0  0  0  0  0  0  0  0  0  0  0
  179.8400  177.7430  139.2100 O   0  0  0  0  0  0  0  0  0  0  0  0
  183.1010  176.8900  139.2490 C   0  0  1  0  0  3  0  0  0  0  0  0
  184.5840  178.9380  139.5930 C   0  0  0  0  0  2  0  0  0  0  0  0
  185.8610  177.3390  136.5600 C   0  0  0  0  0  2  0  0  0  0  0  0
  183.5420  173.9550  137.5390 C   0  0  0  0  0  2  0  0  0  0  0  0
  184.7880  177.5070  137.5870 C   0  0  2  0  0  3  0  0  0  0  0  0
  186.5410  178.9240  138.0330 O   0  0  0  0  0  0  0  0  0  0  0  0
  181.6780  175.6580  137.3840 C   0  0  1  0  0  3  0  0  0  0  0  0
  179.9660  176.3440  139.1670 C   0  0  0  0  0  0  0  0  0  0  0  0
  185.5490  178.1810  138.7060 C   0  0  1  0  0  3  0  0  0  0  0  0
  184.0420  176.3030  138.1730 C   0  0  2  0  0  3  0  0  0  0  0  0
  182.0160  179.4330  143.2640 N   0  0  0  0  0  0  0  0  0  0  0  0
  180.8260  174.6930  136.5500 C   0  0  0  0  0  2  0  0  0  0  0  0
  182.5500  172.9450  137.0190 C   0  0  0  0  0  3  0  0  0  0  0  0
  187.9210  178.4990  136.0280 N   0  0  0  0  0  1  0  0  0  0  0  0
  184.2500  178.4370  143.0880 C   0  0  0  0  0  1  0  0  0  0  0  0
  180.9260  178.6660  139.2310 C   0  0  0  0  0  2  0  0  0  0  0  0
  180.8250  179.7970  142.7900 N   0  0  0  0  0  0  0  0  0  0  0  0
  186.7780  178.2560  136.8400 C   0  0  1  0  0  3  0  0  0  0  0  0
  182.6390  178.5330  141.1370 C   0  0  0  0  0  0  0  0  0  0  0  0
  182.2760  175.9120  139.8190 O   0  0  0  0  0  0  0  0  0  0  0  0
  178.9310  175.6490  139.3330 O   0  0  0  0  0  0  0  0  0  0  0  0
  181.2560  175.6210  138.8800 C   0  0  2  0  0  3  0  0  0  0  0  0
  181.3140  173.2710  136.6200 C   0  0  0  0  0  3  0  0  0  0  0  0
  183.5650  175.6500  135.7270 C   0  0  0  0  0  1  0  0  0  0  0  0
  180.4760  179.5590  141.5010 C   0  0  0  0  0  3  0  0  0  0  0  0
  181.3700  178.9210  140.6420 C   0  0  0  0  0  0  0  0  0  0  0  0
  183.2060  175.4140  137.1940 C   0  0  1  0  0  0  0  0  0  0  0  0
  1  5  1  6  0  0  0
  1 22  1  0  0  0  0
  2 18  1  0  0  0  0
  2 14  1  0  0  0  0
  3 19  1  0  0  0  0
  4 23  1  1  0  0  0
  4  1  1  0  0  0  0
  6 21  1  0  0  0  0
  8  6  1  6  0  0  0
  8 13  1  0  0  0  0
  8 12  1  0  0  0  0
  9 12  1  0  0  0  0
 10 15  1  6  0  0  0
 10 25  1  0  0  0  0
 11  3  1  0  0  0  0
 11 24  2  0  0  0  0
 12  5  1  6  0  0  0
 13  4  1  0  0  0  0
 15 26  1  0  0  0  0
 16  7  1  0  0  0  0
 17 21  1  0  0  0  0
 19 29  1  0  0  0  0
 20 14  2  0  0  0  0
 21  9  1  0  0  0  0
 22  2  2  0  0  0  0
 25 11  1  0  0  0  0
 25 23  1  0  0  0  0
 26 16  2  0  0  0  0
 27 30  1  0  0  0  0
 28 20  1  0  0  0  0
 29 22  1  0  0  0  0
 29 28  2  0  0  0  0
 30 10  1  0  0  0  0
 30  7  1  0  0  0  0
 30 13  1  0  0  0  0
M  END
>  <MODEL>
1

>  <REMARK>
 VINA RESULT:      -6.7      0.000      0.000
  Name = 
  0 active torsions:
  status: ('A' for Active; 'I' for Inactive)
                            x       y       z     vdW  Elec       q    Type
                         _______ _______ _______ _____ _____    ______ ____

>  <TORSDO>
F 0

$$$$
=
 OpenBabel11052412173D

 30 35  0  0  1  0  0  0  0  0999 V2000
  190.5040  176.4010  139.6000 C   0  0  1  0  0  3  0  0  0  0  0  0
  189.7590  177.0550  141.9140 C   0  0  0  0  0  0  0  0  0  0  0  0
  187.2130  178.2200  138.2250 O   0  0  0  0  0  0  0  0  0  0  0  0
  189.7770  176.0330  138.2900 C   0  0  1  0  0  3  0  0  0  0  0  0
  191.8570  177.0850  139.3290 C   0  0  0  0  0  2  0  0  0  0  0  0
  192.9600  175.8070  136.0820 C   0  0  0  0  0  2  0  0  0  0  0  0
  189.3320  173.6690  135.8530 C   0  0  0  0  0  2  0  0  0  0  0  0
  191.8640  176.1980  137.0210 C   0  0  2  0  0  3  0  0  0  0  0  0
  193.9110  176.5580  137.9990 O   0  0  0  0  0  0  0  0  0  0  0  0
  188.3810  176.0050  136.0370 C   0  0  1  0  0  3  0  0  0  0  0  0
  186.7720  176.9590  137.7930 C   0  0  0  0  0  0  0  0  0  0  0  0
  192.5920  176.1990  138.3460 C   0  0  1  0  0  3  0  0  0  0  0  0
  190.5970  175.3490  137.1730 C   0  0  2  0  0  3  0  0  0  0  0  0
  189.0310  177.8280  142.7600 N   0  0  0  0  0  0  0  0  0  0  0  0
  187.3980  175.7270  134.8940 C   0  0  0  0  0  2  0  0  0  0  0  0
  188.1430  173.3430  134.9840 C   0  0  0  0  0  3  0  0  0  0  0  0
  195.3730  176.0280  136.0790 N   0  0  0  0  0  1  0  0  0  0  0  0
  190.6620  176.0180  142.4930 C   0  0  0  0  0  1  0  0  0  0  0  0
  188.5500  178.5410  138.6000 C   0  0  0  0  0  2  0  0  0  0  0  0
  188.2060  178.7750  142.3120 N   0  0  0  0  0  0  0  0  0  0  0  0
  194.0920  176.1390  136.6890 C   0  0  1  0  0  3  0  0  0  0  0  0
  189.6490  177.2450  140.5240 C   0  0  0  0  0  0  0  0  0  0  0  0
  188.5330  175.4200  138.4840 O   0  0  0  0  0  0  0  0  0  0  0  0
  185.5340  176.7730  137.6660 O   0  0  0  0  0  0  0  0  0  0  0  0
  187.6920  175.8250  137.4190 C   0  0  2  0  0  3  0  0  0  0  0  0
  187.2490  174.2590  134.5940 C   0  0  0  0  0  3  0  0  0  0  0  0
  190.3940  175.5360  134.6120 C   0  0  0  0  0  1  0  0  0  0  0  0
  188.0550  179.0090  140.9850 C   0  0  0  0  0  3  0  0  0  0  0  0
  188.7690  178.2520  140.0570 C   0  0  0  0  0  0  0  0  0  0  0  0
  189.6860  175.1620  135.9140 C   0  0  1  0  0  0  0  0  0  0  0  0
  1  5  1  6  0  0  0
  1 22  1  0  0  0  0
  2 18  1  0  0  0  0
  2 14  1  0  0  0  0
  3 19  1  0  0  0  0
  4 23  1  1  0  0  0
  4  1  1  0  0  0  0
  6 21  1  0  0  0  0
  7 30  1  0  0  0  0
  8  6  1  6  0  0  0
  8 13  1  0  0  0  0
  8 12  1  0  0  0  0
  9 12  1  0  0  0  0
 10 15  1  6  0  0  0
 10 25  1  0  0  0  0
 11  3  1  0  0  0  0
 12  5  1  1  0  0  0
 13  4  1  0  0  0  0
 16  7  1  0  0  0  0
 17 21  1  0  0  0  0
 19 29  1  0  0  0  0
 20 14  2  0  0  0  0
 21  9  1  0  0  0  0
 22  2  2  0  0  0  0
 24 11  2  0  0  0  0
 25 11  1  0  0  0  0
 25 23  1  0  0  0  0
 26 15  1  0  0  0  0
 26 16  2  0  0  0  0
 27 30  1  0  0  0  0
 28 20  1  0  0  0  0
 29 22  1  0  0  0  0
 29 28  2  0  0  0  0
 30 10  1  0  0  0  0
 30 13  1  0  0  0  0
M  END
>  <MODEL>
2

>  <REMARK>
 VINA RESULT:      -6.3      5.126      7.065
  Name = 
  0 active torsions:
  status: ('A' for Active; 'I' for Inactive)
                            x       y       z     vdW  Elec       q    Type
                         _______ _______ _______ _____ _____    ______ ____

>  <TORSDO>
F 0

$$$$
=
 OpenBabel11052412173D

 30 35  0  0  1  0  0  0  0  0999 V2000
  187.6900  178.2530  139.2000 C   0  0  1  0  0  3  0  0  0  0  0  0
  187.6700  178.6930  136.7210 C   0  0  0  0  0  0  0  0  0  0  0  0
  183.8340  177.2290  138.8620 O   0  0  0  0  0  0  0  0  0  0  0  0
  186.6460  178.3680  140.3300 C   0  0  1  0  0  3  0  0  0  0  0  0
  188.7020  177.1230  139.4700 C   0  0  0  0  0  2  0  0  0  0  0  0
  188.8530  176.8060  143.1130 C   0  0  0  0  0  2  0  0  0  0  0  0
  185.8730  179.7810  143.3520 C   0  0  0  0  0  2  0  0  0  0  0  0
  188.0910  177.1270  141.8660 C   0  0  2  0  0  3  0  0  0  0  0  0
  190.2340  176.4840  141.3430 O   0  0  0  0  0  0  0  0  0  0  0  0
  184.5960  178.0790  141.9850 C   0  0  1  0  0  3  0  0  0  0  0  0
  183.5330  178.3420  139.6650 C   0  0  0  0  0  0  0  0  0  0  0  0
  189.2150  177.3410  140.8770 C   0  0  1  0  0  3  0  0  0  0  0  0
  187.1520  178.3350  141.7890 C   0  0  2  0  0  3  0  0  0  0  0  0
  187.1390  178.5270  135.4830 N   0  0  0  0  0  0  0  0  0  0  0  0
  183.3580  178.2530  142.8710 C   0  0  0  0  0  2  0  0  0  0  0  0
  184.5490  180.1560  143.9680 C   0  0  0  0  0  3  0  0  0  0  0  0
  191.0210  175.8380  143.5940 N   0  0  0  0  0  1  0  0  0  0  0  0
  188.9060  179.5190  136.8620 C   0  0  0  0  0  1  0  0  0  0  0  0
  185.1250  176.6450  138.7150 C   0  0  0  0  0  2  0  0  0  0  0  0
  186.0390  177.8020  135.2830 N   0  0  0  0  0  0  0  0  0  0  0  0
  190.0340  176.3550  142.7100 C   0  0  1  0  0  3  0  0  0  0  0  0
  187.0540  178.0910  137.8330 C   0  0  0  0  0  0  0  0  0  0  0  0
  185.6940  179.3740  140.1230 O   0  0  0  0  0  0  0  0  0  0  0  0
  182.3910  178.8580  139.5620 O   0  0  0  0  0  0  0  0  0  0  0  0
  184.4750  178.9250  140.6870 C   0  0  2  0  0  3  0  0  0  0  0  0
  183.4110  179.4990  143.7150 C   0  0  0  0  0  3  0  0  0  0  0  0
  186.0470  177.3690  143.9080 C   0  0  0  0  0  1  0  0  0  0  0  0
  185.3970  177.1940  136.3110 C   0  0  0  0  0  3  0  0  0  0  0  0
  185.8850  177.3230  137.6110 C   0  0  0  0  0  0  0  0  0  0  0  0
  185.9210  178.3660  142.7560 C   0  0  1  0  0  0  0  0  0  0  0  0
  1  5  1  1  0  0  0
  1  4  1  0  0  0  0
  2 18  1  0  0  0  0
  2 22  1  0  0  0  0
  3 11  1  0  0  0  0
  4 23  1  6  0  0  0
  4 13  1  0  0  0  0
  7 16  1  0  0  0  0
  8  6  1  1  0  0  0
  9 21  1  0  0  0  0
 10 30  1  0  0  0  0
 10 15  1  1  0  0  0
 11 25  1  0  0  0  0
 12  5  1  6  0  0  0
 12  9  1  0  0  0  0
 12  8  1  0  0  0  0
 13  8  1  0  0  0  0
 13 30  1  0  0  0  0
 14  2  2  0  0  0  0
 15 26  1  0  0  0  0
 19  3  1  0  0  0  0
 20 14  1  0  0  0  0
 20 28  2  0  0  0  0
 21  6  1  0  0  0  0
 21 17  1  0  0  0  0
 22  1  1  0  0  0  0
 23 25  1  0  0  0  0
 24 11  2  0  0  0  0
 25 10  1  0  0  0  0
 26 16  2  0  0  0  0
 28 29  1  0  0  0  0
 29 22  2  0  0  0  0
 29 19  1  0  0  0  0
 30  7  1  0  0  0  0
 30 27  1  0  0  0  0
M  END
>  <MODEL>
3

>  <REMARK>
 VINA RESULT:      -6.1      3.658      6.733
  Name = 
  0 active torsions:
  status: ('A' for Active; 'I' for Inactive)
                            x       y       z     vdW  Elec       q    Type
                         _______ _______ _______ _____ _____    ______ ____

>  <TORSDO>
F 0

$$$$
=
 OpenBabel11052412173D

 30 35  0  0  1  0  0  0  0  0999 V2000
  181.7720  176.0010  137.6510 C   0  0  1  0  0  3  0  0  0  0  0  0
  179.6420  177.0650  138.4720 C   0  0  0  0  0  0  0  0  0  0  0  0
  183.7210  178.3090  140.2790 O   0  0  0  0  0  0  0  0  0  0  0  0
  183.2300  176.4770  137.4920 C   0  0  1  0  0  3  0  0  0  0  0  0
  181.6920  174.4930  137.9540 C   0  0  0  0  0  2  0  0  0  0  0  0
  184.6900  173.0390  136.4400 C   0  0  0  0  0  2  0  0  0  0  0  0
  185.8500  176.9410  135.3360 C   0  0  0  0  0  2  0  0  0  0  0  0
  183.9940  174.1840  137.1040 C   0  0  2  0  0  3  0  0  0  0  0  0
  182.5660  172.3940  136.9080 O   0  0  0  0  0  0  0  0  0  0  0  0
  185.7330  177.2770  137.8400 C   0  0  1  0  0  3  0  0  0  0  0  0
  184.3190  178.9470  139.1790 C   0  0  0  0  0  0  0  0  0  0  0  0
  182.5430  173.8050  136.9090 C   0  0  1  0  0  3  0  0  0  0  0  0
  184.1790  175.6260  136.6190 C   0  0  2  0  0  3  0  0  0  0  0  0
  178.9310  177.7450  139.4070 N   0  0  0  0  0  0  0  0  0  0  0  0
  187.0800  178.0080  137.8340 C   0  0  0  0  0  2  0  0  0  0  0  0
  186.9790  177.9410  135.3380 C   0  0  0  0  0  3  0  0  0  0  0  0
  184.1460  170.7170  136.0160 N   0  0  0  0  0  1  0  0  0  0  0  0
  178.9450  176.6160  137.2310 C   0  0  0  0  0  1  0  0  0  0  0  0
  183.0400  177.0580  140.2330 C   0  0  0  0  0  2  0  0  0  0  0  0
  179.4880  178.1730  140.5390 N   0  0  0  0  0  0  0  0  0  0  0  0
  183.8280  172.0300  136.4600 C   0  0  1  0  0  3  0  0  0  0  0  0
  181.0080  176.8000  138.6880 C   0  0  0  0  0  0  0  0  0  0  0  0
  183.3550  177.8460  137.2280 O   0  0  0  0  0  0  0  0  0  0  0  0
  184.7280  180.1270  139.3270 O   0  0  0  0  0  0  0  0  0  0  0  0
  184.5510  178.2880  137.8440 C   0  0  2  0  0  3  0  0  0  0  0  0
  187.4990  178.4560  136.4590 C   0  0  0  0  0  3  0  0  0  0  0  0
  186.7050  175.1800  136.8600 C   0  0  0  0  0  1  0  0  0  0  0  0
  180.7990  177.9510  140.8090 C   0  0  0  0  0  3  0  0  0  0  0  0
  181.5920  177.2610  139.8930 C   0  0  0  0  0  0  0  0  0  0  0  0
  185.6180  176.2390  136.6820 C   0  0  1  0  0  0  0  0  0  0  0  0
  1  5  1  1  0  0  0
  1 22  1  0  0  0  0
  2 22  2  0  0  0  0
  2 14  1  0  0  0  0
  4 23  1  6  0  0  0
  4  1  1  0  0  0  0
  6 21  1  0  0  0  0
  7 16  1  0  0  0  0
  7 30  1  0  0  0  0
  8  6  1  6  0  0  0
  9 12  1  0  0  0  0
 10 15  1  6  0  0  0
 10 25  1  0  0  0  0
 11 24  2  0  0  0  0
 11  3  1  0  0  0  0
 12  8  1  0  0  0  0
 12  5  1  1  0  0  0
 13 30  1  0  0  0  0
 13  8  1  0  0  0  0
 13  4  1  0  0  0  0
 14 20  2  0  0  0  0
 16 26  2  0  0  0  0
 17 21  1  0  0  0  0
 18  2  1  0  0  0  0
 19  3  1  0  0  0  0
 20 28  1  0  0  0  0
 21  9  1  0  0  0  0
 22 29  1  0  0  0  0
 23 25  1  0  0  0  0
 25 11  1  0  0  0  0
 26 15  1  0  0  0  0
 29 19  1  0  0  0  0
 29 28  2  0  0  0  0
 30 27  1  0  0  0  0
 30 10  1  0  0  0  0
M  END
>  <MODEL>
4

>  <REMARK>
 VINA RESULT:      -6.0      2.635      5.172
  Name = 
  0 active torsions:
  status: ('A' for Active; 'I' for Inactive)
                            x       y       z     vdW  Elec       q    Type
                         _______ _______ _______ _____ _____    ______ ____

>  <TORSDO>
F 0

$$$$
=
 OpenBabel11052412173D

 30 35  0  0  1  0  0  0  0  0999 V2000
  182.7700  178.0610  138.1470 C   0  0  1  0  0  3  0  0  0  0  0  0
  180.8880  179.3930  139.1600 C   0  0  0  0  0  0  0  0  0  0  0  0
  184.6400  178.3690  141.6740 O   0  0  0  0  0  0  0  0  0  0  0  0
  184.3000  178.0290  138.3370 C   0  0  1  0  0  3  0  0  0  0  0  0
  182.2130  176.6790  137.7580 C   0  0  0  0  0  2  0  0  0  0  0  0
  184.9550  174.9780  136.0310 C   0  0  0  0  0  2  0  0  0  0  0  0
  187.3600  178.3490  136.8320 C   0  0  0  0  0  2  0  0  0  0  0  0
  184.4700  175.9470  137.0620 C   0  0  2  0  0  3  0  0  0  0  0  0
  182.6870  174.9760  135.9860 O   0  0  0  0  0  0  0  0  0  0  0  0
  186.7820  177.7230  139.2140 C   0  0  1  0  0  3  0  0  0  0  0  0
  185.6200  179.1310  141.0170 C   0  0  0  0  0  0  0  0  0  0  0  0
  183.0530  176.1940  136.5960 C   0  0  1  0  0  3  0  0  0  0  0  0
  185.1490  177.3060  137.2680 C   0  0  2  0  0  3  0  0  0  0  0  0
  180.2000  179.8640  140.2310 N   0  0  0  0  0  0  0  0  0  0  0  0
  188.2450  177.8890  139.6430 C   0  0  0  0  0  2  0  0  0  0  0  0
  188.6900  178.8190  137.3660 C   0  0  0  0  0  3  0  0  0  0  0  0
  183.9020  173.3340  134.5960 N   0  0  0  0  0  1  0  0  0  0  0  0
  180.3890  179.7200  137.7910 C   0  0  0  0  0  1  0  0  0  0  0  0
  183.6690  177.5470  141.0320 C   0  0  0  0  0  2  0  0  0  0  0  0
  180.5870  179.6080  141.4810 N   0  0  0  0  0  0  0  0  0  0  0  0
  183.8670  174.4020  135.5360 C   0  0  1  0  0  3  0  0  0  0  0  0
  182.0430  178.6140  139.3570 C   0  0  0  0  0  0  0  0  0  0  0  0
  184.8530  179.2620  138.7050 O   0  0  0  0  0  0  0  0  0  0  0  0
  186.2940  179.9460  141.6960 O   0  0  0  0  0  0  0  0  0  0  0  0
  185.9550  178.9950  139.5530 C   0  0  2  0  0  3  0  0  0  0  0  0
  189.0670  178.6540  138.6400 C   0  0  0  0  0  3  0  0  0  0  0  0
  187.3340  175.9630  137.5110 C   0  0  0  0  0  1  0  0  0  0  0  0
  181.6900  178.8640  141.7400 C   0  0  0  0  0  3  0  0  0  0  0  0
  182.4470  178.3490  140.6890 C   0  0  0  0  0  0  0  0  0  0  0  0
  186.6490  177.3130  137.7160 C   0  0  1  0  0  0  0  0  0  0  0  0
  1  5  1  1  0  0  0
  1  4  1  0  0  0  0
  1 22  1  0  0  0  0
  2 22  2  0  0  0  0
  2 14  1  0  0  0  0
  4 23  1  6  0  0  0
  7 16  1  0  0  0  0
  7 30  1  0  0  0  0
  8  6  1  6  0  0  0
  8 13  1  0  0  0  0
  9 12  1  0  0  0  0
 10 25  1  0  0  0  0
 10 15  1  6  0  0  0
 11  3  1  0  0  0  0
 11 24  2  0  0  0  0
 12  8  1  0  0  0  0
 12  5  1  1  0  0  0
 13 30  1  0  0  0  0
 13  4  1  0  0  0  0
 14 20  2  0  0  0  0
 16 26  2  0  0  0  0
 17 21  1  0  0  0  0
 18  2  1  0  0  0  0
 19  3  1  0  0  0  0
 20 28  1  0  0  0  0
 21  9  1  0  0  0  0
 21  6  1  0  0  0  0
 22 29  1  0  0  0  0
 23 25  1  0  0  0  0
 25 11  1  0  0  0  0
 26 15  1  0  0  0  0
 27 30  1  0  0  0  0
 29 19  1  0  0  0  0
 29 28  2  0  0  0  0
 30 10  1  0  0  0  0
M  END
>  <MODEL>
5

>  <REMARK>
 VINA RESULT:      -5.7      2.481      5.145
  Name = 
  0 active torsions:
  status: ('A' for Active; 'I' for Inactive)
                            x       y       z     vdW  Elec       q    Type
                         _______ _______ _______ _____ _____    ______ ____

>  <TORSDO>
F 0

$$$$
=
 OpenBabel11052412173D

 30 35  0  0  1  0  0  0  0  0999 V2000
  182.0560  177.2110  136.7150 C   0  0  1  0  0  3  0  0  0  0  0  0
  181.2110  179.5800  136.8360 C   0  0  0  0  0  0  0  0  0  0  0  0
  185.2460  178.4370  138.8010 O   0  0  0  0  0  0  0  0  0  0  0  0
  183.4520  176.5600  136.6510 C   0  0  1  0  0  3  0  0  0  0  0  0
  181.0380  176.3100  137.4400 C   0  0  0  0  0  2  0  0  0  0  0  0
  182.2270  172.8880  136.9210 C   0  0  0  0  0  2  0  0  0  0  0  0
  185.5530  174.5040  134.8930 C   0  0  0  0  0  2  0  0  0  0  0  0
  182.5020  174.3480  137.0930 C   0  0  2  0  0  3  0  0  0  0  0  0
  180.2430  173.9470  137.2220 O   0  0  0  0  0  0  0  0  0  0  0  0
  185.8900  175.6350  137.1300 C   0  0  1  0  0  3  0  0  0  0  0  0
  186.0220  178.1400  137.6680 C   0  0  0  0  0  0  0  0  0  0  0  0
  181.1450  174.9450  136.7960 C   0  0  1  0  0  3  0  0  0  0  0  0
  183.5420  175.0750  136.2330 C   0  0  2  0  0  3  0  0  0  0  0  0
  181.1950  180.8140  137.4010 N   0  0  0  0  0  0  0  0  0  0  0  0
  187.3820  175.2830  137.1160 C   0  0  0  0  0  2  0  0  0  0  0  0
  187.0560  174.4820  134.7720 C   0  0  0  0  0  3  0  0  0  0  0  0
  180.2680  171.4780  137.1330 N   0  0  0  0  0  1  0  0  0  0  0  0
  180.2900  179.3050  135.6930 C   0  0  0  0  0  1  0  0  0  0  0  0
  183.9140  177.9850  139.0270 C   0  0  0  0  0  2  0  0  0  0  0  0
  181.9880  181.1290  138.4240 N   0  0  0  0  0  0  0  0  0  0  0  0
  180.9210  172.7420  137.1070 C   0  0  1  0  0  3  0  0  0  0  0  0
  182.0860  178.5950  137.3320 C   0  0  0  0  0  0  0  0  0  0  0  0
  184.4170  177.3480  136.0110 O   0  0  0  0  0  0  0  0  0  0  0  0
  187.1120  178.7500  137.5170 O   0  0  0  0  0  0  0  0  0  0  0  0
  185.6580  177.0940  136.6460 C   0  0  2  0  0  3  0  0  0  0  0  0
  187.8760  174.8770  135.7530 C   0  0  0  0  0  3  0  0  0  0  0  0
  185.1750  173.2320  136.9890 C   0  0  0  0  0  1  0  0  0  0  0  0
  182.8530  180.2260  138.9500 C   0  0  0  0  0  3  0  0  0  0  0  0
  182.9260  178.9390  138.4190 C   0  0  0  0  0  0  0  0  0  0  0  0
  185.0320  174.6050  136.3340 C   0  0  1  0  0  0  0  0  0  0  0  0
  1 22  1  0  0  0  0
  1  5  1  1  0  0  0
  2 22  2  0  0  0  0
  2 14  1  0  0  0  0
  3 19  1  0  0  0  0
  4 23  1  6  0  0  0
  4  1  1  0  0  0  0
  6 21  1  0  0  0  0
  7 30  1  0  0  0  0
  8  6  1  6  0  0  0
 10 15  1  6  0  0  0
 11  3  1  0  0  0  0
 12  8  1  0  0  0  0
 12  9  1  0  0  0  0
 12  5  1  1  0  0  0
 13 30  1  0  0  0  0
 13  4  1  0  0  0  0
 13  8  1  0  0  0  0
 14 20  2  0  0  0  0
 16  7  1  0  0  0  0
 16 26  2  0  0  0  0
 18  2  1  0  0  0  0
 20 28  1  0  0  0  0
 21 17  1  0  0  0  0
 21  9  1  0  0  0  0
 22 29  1  0  0  0  0
 23 25  1  0  0  0  0
 24 11  2  0  0  0  0
 25 10  1  0  0  0  0
 25 11  1  0  0  0  0
 26 15  1  0  0  0  0
 29 28  2  0  0  0  0
 29 19  1  0  0  0  0
 30 27  1  0  0  0  0
 30 10  1  0  0  0  0
M  END
>  <MODEL>
6

>  <REMARK>
 VINA RESULT:      -5.7      2.997      5.611
  Name = 
  0 active torsions:
  status: ('A' for Active; 'I' for Inactive)
                            x       y       z     vdW  Elec       q    Type
                         _______ _______ _______ _____ _____    ______ ____

>  <TORSDO>
F 0

$$$$
=
 OpenBabel11052412173D

 30 35  0  0  1  0  0  0  0  0999 V2000
  182.6100  178.6940  140.0040 C   0  0  1  0  0  3  0  0  0  0  0  0
  180.9140  179.6550  141.5980 C   0  0  0  0  0  0  0  0  0  0  0  0
  180.2480  179.9470  137.0240 O   0  0  0  0  0  0  0  0  0  0  0  0
  182.5390  178.0470  138.6060 C   0  0  1  0  0  3  0  0  0  0  0  0
  183.9380  179.4450  140.2200 C   0  0  0  0  0  2  0  0  0  0  0  0
  186.3710  177.7480  138.0760 C   0  0  0  0  0  2  0  0  0  0  0  0
  183.2360  175.2770  136.7160 C   0  0  0  0  0  2  0  0  0  0  0  0
  184.9700  178.1880  138.3560 C   0  0  2  0  0  3  0  0  0  0  0  0
  186.3720  178.8940  140.0340 O   0  0  0  0  0  0  0  0  0  0  0  0
  182.2810  177.5140  136.0220 C   0  0  1  0  0  3  0  0  0  0  0  0
  180.0530  178.5950  136.6940 C   0  0  0  0  0  0  0  0  0  0  0  0
  185.0380  178.4780  139.8390 C   0  0  1  0  0  3  0  0  0  0  0  0
  183.7730  177.2630  138.1060 C   0  0  2  0  0  3  0  0  0  0  0  0
  179.8810  180.4880  141.8820 N   0  0  0  0  0  0  0  0  0  0  0  0
  181.9060  176.9590  134.6430 C   0  0  0  0  0  2  0  0  0  0  0  0
  182.5550  174.7030  135.4990 C   0  0  0  0  0  3  0  0  0  0  0  0
  188.5360  178.1860  139.0730 N   0  0  0  0  0  1  0  0  0  0  0  0
  181.4780  178.8160  142.6960 C   0  0  0  0  0  1  0  0  0  0  0  0
  181.2790  180.4470  137.8710 C   0  0  0  0  0  2  0  0  0  0  0  0
  179.3300  181.2660  140.9510 N   0  0  0  0  0  0  0  0  0  0  0  0
  187.1170  178.2800  139.0370 C   0  0  1  0  0  3  0  0  0  0  0  0
  181.4270  179.5980  140.2880 C   0  0  0  0  0  0  0  0  0  0  0  0
  181.3430  177.3630  138.3570 O   0  0  0  0  0  0  0  0  0  0  0  0
  179.0010  178.2780  136.0820 O   0  0  0  0  0  0  0  0  0  0  0  0
  181.0540  177.5050  136.9770 C   0  0  2  0  0  3  0  0  0  0  0  0
  181.9170  175.4540  134.5940 C   0  0  0  0  0  3  0  0  0  0  0  0
  184.7200  177.0000  135.7240 C   0  0  0  0  0  1  0  0  0  0  0  0
  179.7780  181.2610  139.6710 C   0  0  0  0  0  3  0  0  0  0  0  0
  180.8350  180.4280  139.3050 C   0  0  0  0  0  0  0  0  0  0  0  0
  183.5140  176.7850  136.6380 C   0  0  1  0  0  0  0  0  0  0  0  0
  1  5  1  6  0  0  0
  1 22  1  0  0  0  0
  2 14  1  0  0  0  0
  2 18  1  0  0  0  0
  3 19  1  0  0  0  0
  4 23  1  1  0  0  0
  4  1  1  0  0  0  0
  6 21  1  0  0  0  0
  8  6  1  1  0  0  0
  8 12  1  0  0  0  0
 10 15  1  6  0  0  0
 10 30  1  0  0  0  0
 10 25  1  0  0  0  0
 11 25  1  0  0  0  0
 11  3  1  0  0  0  0
 12  9  1  0  0  0  0
 12  5  1  6  0  0  0
 13  8  1  0  0  0  0
 13  4  1  0  0  0  0
 16  7  1  0  0  0  0
 19 29  1  0  0  0  0
 20 14  2  0  0  0  0
 21 17  1  0  0  0  0
 21  9  1  0  0  0  0
 22  2  2  0  0  0  0
 24 11  2  0  0  0  0
 25 23  1  0  0  0  0
 26 15  1  0  0  0  0
 26 16  2  0  0  0  0
 27 30  1  0  0  0  0
 28 20  1  0  0  0  0
 29 28  2  0  0  0  0
 29 22  1  0  0  0  0
 30  7  1  0  0  0  0
 30 13  1  0  0  0  0
M  END
>  <MODEL>
7

>  <REMARK>
 VINA RESULT:      -5.6      1.899      2.364
  Name = 
  0 active torsions:
  status: ('A' for Active; 'I' for Inactive)
                            x       y       z     vdW  Elec       q    Type
                         _______ _______ _______ _____ _____    ______ ____

>  <TORSDO>
F 0

$$$$
=
 OpenBabel11052412173D

 30 35  0  0  1  0  0  0  0  0999 V2000
  189.3390  175.8050  136.2040 C   0  0  1  0  0  3  0  0  0  0  0  0
  188.1390  177.9460  136.7670 C   0  0  0  0  0  0  0  0  0  0  0  0
  191.8180  176.6110  139.2430 O   0  0  0  0  0  0  0  0  0  0  0  0
  190.8010  175.3240  136.2980 C   0  0  1  0  0  3  0  0  0  0  0  0
  188.3430  174.6440  136.3910 C   0  0  0  0  0  2  0  0  0  0  0  0
  190.1150  171.6520  135.2490 C   0  0  0  0  0  2  0  0  0  0  0  0
  193.5000  174.0820  134.5940 C   0  0  0  0  0  2  0  0  0  0  0  0
  190.1260  173.0100  135.8760 C   0  0  2  0  0  3  0  0  0  0  0  0
  187.9750  172.3980  135.3490 O   0  0  0  0  0  0  0  0  0  0  0  0
  193.2020  174.5100  137.0700 C   0  0  1  0  0  3  0  0  0  0  0  0
  192.8430  176.7370  138.2910 C   0  0  0  0  0  0  0  0  0  0  0  0
  188.7830  173.5510  135.4410 C   0  0  1  0  0  3  0  0  0  0  0  0
  191.1960  174.0490  135.5220 C   0  0  2  0  0  3  0  0  0  0  0  0
  187.8220  178.9460  137.6280 N   0  0  0  0  0  0  0  0  0  0  0  0
  194.7020  174.3060  137.3150 C   0  0  0  0  0  2  0  0  0  0  0  0
  194.9820  174.2250  134.8330 C   0  0  0  0  0  3  0  0  0  0  0  0
  188.3900  170.0830  134.5940 N   0  0  0  0  0  1  0  0  0  0  0  0
  187.5210  177.9510  135.4080 C   0  0  0  0  0  1  0  0  0  0  0  0
  190.5510  176.0010  139.0120 C   0  0  0  0  0  2  0  0  0  0  0  0
  188.3350  179.0030  138.8570 N   0  0  0  0  0  0  0  0  0  0  0  0
  188.8360  171.3460  135.0720 C   0  0  1  0  0  3  0  0  0  0  0  0
  189.0340  176.9360  137.1660 C   0  0  0  0  0  0  0  0  0  0  0  0
  191.7450  176.3480  136.1480 O   0  0  0  0  0  0  0  0  0  0  0  0
  193.8360  177.4540  138.5770 O   0  0  0  0  0  0  0  0  0  0  0  0
  192.8560  176.0210  136.9640 C   0  0  2  0  0  3  0  0  0  0  0  0
  195.5170  174.3740  136.0510 C   0  0  0  0  0  3  0  0  0  0  0  0
  192.9030  172.2090  136.1080 C   0  0  0  0  0  1  0  0  0  0  0  0
  189.2020  178.0610  139.3050 C   0  0  0  0  0  3  0  0  0  0  0  0
  189.5750  177.0050  138.4730 C   0  0  0  0  0  0  0  0  0  0  0  0
  192.6890  173.6990  135.8410 C   0  0  1  0  0  0  0  0  0  0  0  0
  1  4  1  0  0  0  0
  1  5  1  1  0  0  0
  1 22  1  0  0  0  0
  2 22  2  0  0  0  0
  2 14  1  0  0  0  0
  4 23  1  6  0  0  0
  7 16  1  0  0  0  0
  7 30  1  0  0  0  0
  8  6  1  6  0  0  0
  9 12  1  0  0  0  0
 10 15  1  6  0  0  0
 11 24  2  0  0  0  0
 11  3  1  0  0  0  0
 12  8  1  0  0  0  0
 12  5  1  1  0  0  0
 13 30  1  0  0  0  0
 13  8  1  0  0  0  0
 13  4  1  0  0  0  0
 14 20  2  0  0  0  0
 16 26  2  0  0  0  0
 17 21  1  0  0  0  0
 18  2  1  0  0  0  0
 19  3  1  0  0  0  0
 20 28  1  0  0  0  0
 21  6  1  0  0  0  0
 21  9  1  0  0  0  0
 22 29  1  0  0  0  0
 23 25  1  0  0  0  0
 25 10  1  0  0  0  0
 25 11  1  0  0  0  0
 26 15  1  0  0  0  0
 29 19  1  0  0  0  0
 29 28  2  0  0  0  0
 30 27  1  0  0  0  0
 30 10  1  0  0  0  0
M  END
>  <MODEL>
8

>  <REMARK>
 VINA RESULT:      -5.6      6.632      9.857
  Name = 
  0 active torsions:
  status: ('A' for Active; 'I' for Inactive)
                            x       y       z     vdW  Elec       q    Type
                         _______ _______ _______ _____ _____    ______ ____

>  <TORSDO>
F 0

$$$$
=
 OpenBabel11052412173D

 30 35  0  0  1  0  0  0  0  0999 V2000
  184.0340  177.3340  138.8030 C   0  0  1  0  0  3  0  0  0  0  0  0
  182.7000  178.6150  140.5120 C   0  0  0  0  0  0  0  0  0  0  0  0
  180.5580  176.4490  137.0220 O   0  0  0  0  0  0  0  0  0  0  0  0
  183.7780  176.0760  137.9480 C   0  0  1  0  0  3  0  0  0  0  0  0
  184.9640  178.3320  138.0860 C   0  0  0  0  0  2  0  0  0  0  0  0
  187.0460  176.2980  135.8680 C   0  0  0  0  0  2  0  0  0  0  0  0
  184.8500  172.9270  137.1330 C   0  0  0  0  0  2  0  0  0  0  0  0
  185.7510  176.5390  136.5760 C   0  0  2  0  0  3  0  0  0  0  0  0
  187.2260  178.2430  137.0200 O   0  0  0  0  0  0  0  0  0  0  0  0
  182.9400  174.2860  136.1820 C   0  0  1  0  0  3  0  0  0  0  0  0
  180.8060  175.1050  137.3480 C   0  0  0  0  0  0  0  0  0  0  0  0
  186.1690  177.5370  137.6310 C   0  0  1  0  0  3  0  0  0  0  0  0
  184.9910  175.4020  137.2680 C   0  0  2  0  0  3  0  0  0  0  0  0
  181.5740  179.2610  140.9070 N   0  0  0  0  0  0  0  0  0  0  0  0
  182.3910  173.0560  135.4490 C   0  0  0  0  0  2  0  0  0  0  0  0
  184.0950  171.7030  136.6780 C   0  0  0  0  0  3  0  0  0  0  0  0
  189.0690  177.5830  135.5120 N   0  0  0  0  0  1  0  0  0  0  0  0
  183.8610  178.5640  141.4490 C   0  0  0  0  0  1  0  0  0  0  0  0
  181.5280  177.4930  137.0450 C   0  0  0  0  0  2  0  0  0  0  0  0
  180.5010  179.3480  140.1210 N   0  0  0  0  0  0  0  0  0  0  0  0
  187.7920  177.3700  136.1020 C   0  0  1  0  0  3  0  0  0  0  0  0
  182.7510  178.0120  139.2410 C   0  0  0  0  0  0  0  0  0  0  0  0
  182.9260  175.1430  138.5530 O   0  0  0  0  0  0  0  0  0  0  0  0
  179.8230  174.3290  137.4570 O   0  0  0  0  0  0  0  0  0  0  0  0
  182.1840  174.5180  137.5210 C   0  0  2  0  0  3  0  0  0  0  0  0
  182.9650  171.7630  135.9630 C   0  0  0  0  0  3  0  0  0  0  0  0
  185.1570  174.1730  135.0100 C   0  0  0  0  0  1  0  0  0  0  0  0
  180.4850  178.7900  138.8840 C   0  0  0  0  0  3  0  0  0  0  0  0
  181.6060  178.1080  138.4130 C   0  0  0  0  0  0  0  0  0  0  0  0
  184.4850  174.2150  136.3810 C   0  0  1  0  0  0  0  0  0  0  0  0
  1  5  1  6  0  0  0
  1 22  1  0  0  0  0
  2 14  1  0  0  0  0
  2 18  1  0  0  0  0
  3 19  1  0  0  0  0
  3 11  1  0  0  0  0
  4 23  1  1  0  0  0
  4  1  1  0  0  0  0
  6 21  1  0  0  0  0
  8  6  1  1  0  0  0
  8 13  1  0  0  0  0
  8 12  1  0  0  0  0
  9 12  1  0  0  0  0
 10 15  1  1  0  0  0
 10 30  1  0  0  0  0
 10 25  1  0  0  0  0
 11 24  2  0  0  0  0
 11 25  1  0  0  0  0
 12  5  1  6  0  0  0
 13  4  1  0  0  0  0
 15 26  1  0  0  0  0
 16  7  1  0  0  0  0
 17 21  1  0  0  0  0
 19 29  1  0  0  0  0
 20 14  2  0  0  0  0
 21  9  1  0  0  0  0
 22  2  2  0  0  0  0
 25 23  1  0  0  0  0
 26 16  2  0  0  0  0
 27 30  1  0  0  0  0
 28 20  1  0  0  0  0
 29 28  2  0  0  0  0
 29 22  1  0  0  0  0
 30  7  1  0  0  0  0
 30 13  1  0  0  0  0
M  END
>  <MODEL>
9

>  <REMARK>
 VINA RESULT:      -5.5      1.601      2.054
  Name = 
  0 active torsions:
  status: ('A' for Active; 'I' for Inactive)
                            x       y       z     vdW  Elec       q    Type
                         _______ _______ _______ _____ _____    ______ ____

>  <TORSDO>
F 0

$$$$
