=
 OpenBabel11052413053D

 31 36  0  0  1  0  0  0  0  0999 V2000
  184.0420  178.5740  143.2540 C   0  0  0  0  0  0  0  0  0  0  0  0
  187.7240  178.0110  143.9140 C   0  0  0  0  0  0  0  0  0  0  0  0
  187.9040  177.9610  145.2710 C   0  0  0  0  0  0  0  0  0  0  0  0
  186.6390  178.3320  147.4650 C   0  0  0  0  0  3  0  0  0  0  0  0
  186.4230  178.3240  143.2550 C   0  0  0  0  0  0  0  0  0  0  0  0
  183.9890  178.7810  141.9750 N   0  0  0  0  0  0  0  0  0  0  0  0
  186.7790  178.3600  146.1450 C   0  0  0  0  0  3  0  0  0  0  0  0
  188.6670  177.8170  141.5940 C   0  0  0  0  0  0  0  0  0  0  0  0
  182.6070  178.7870  144.2320 Cl  0  0  0  0  0  0  0  0  0  0  0  0
  190.3500  177.3750  144.8410 C   0  0  0  0  0  3  0  0  0  0  0  0
  187.5860  177.8810  148.4780 C   0  0  0  0  0  3  0  0  0  0  0  0
  187.5600  178.2630  141.0760 N   0  0  0  0  0  0  0  0  0  0  0  0
  188.8420  177.7790  143.0240 N   0  0  0  0  0  0  0  0  0  0  0  0
  189.7110  177.3130  140.7420 N   0  0  0  0  0  2  0  0  0  0  0  0
  185.2840  178.2340  143.8820 N   0  0  0  0  0  0  0  0  0  0  0  0
  188.8380  177.4860  148.3050 C   0  0  0  0  0  3  0  0  0  0  0  0
  186.4570  178.8410  141.8380 C   0  0  1  0  0  3  0  0  0  0  0  0
  185.1440  178.5370  141.1130 C   0  0  0  0  0  2  0  0  0  0  0  0
  190.1420  177.4670  143.5370 C   0  0  0  0  0  3  0  0  0  0  0  0
  189.2580  177.5910  145.7920 C   0  0  0  0  0  0  0  0  0  0  0  0
  189.6060  177.3940  147.0640 C   0  0  0  0  0  3  0  0  0  0  0  0
  190.8560  176.0040  134.5940 N   0  0  0  0  0  2  0  0  0  0  0  0
  190.2270  176.0090  137.2920 C   0  0  0  0  0  0  0  0  0  0  0  0
  189.3280  178.2530  137.1210 C   0  0  0  0  0  3  0  0  0  0  0  0
  189.2920  178.3370  138.5160 C   0  0  0  0  0  3  0  0  0  0  0  0
  190.6020  174.7160  135.2430 C   0  0  0  0  0  2  0  0  0  0  0  0
  189.7280  177.2610  139.3090 C   0  0  0  0  0  0  0  0  0  0  0  0
  190.6990  174.8560  136.6610 O   0  0  0  0  0  0  0  0  0  0  0  0
  189.8070  177.0930  136.5100 C   0  0  0  0  0  0  0  0  0  0  0  0
  190.1950  176.0980  138.6860 C   0  0  0  0  0  3  0  0  0  0  0  0
  189.8240  176.9550  135.0160 C   0  0  0  0  0  2  0  0  0  0  0  0
  1 15  1  0  0  0  0
  1  9  1  0  0  0  0
  2  3  2  0  0  0  0
  3 20  1  0  0  0  0
  3  7  1  0  0  0  0
  4 11  1  0  0  0  0
  5 15  2  0  0  0  0
  5  2  1  0  0  0  0
  6  1  2  0  0  0  0
  7  4  2  0  0  0  0
  8 13  1  0  0  0  0
 10 20  1  0  0  0  0
 12  8  2  0  0  0  0
 12 17  1  0  0  0  0
 13 19  1  0  0  0  0
 13  2  1  0  0  0  0
 14  8  1  0  0  0  0
 16 11  2  0  0  0  0
 17 18  1  6  0  0  0
 17  5  1  0  0  0  0
 18  6  1  0  0  0  0
 19 10  2  0  0  0  0
 20 21  2  0  0  0  0
 21 16  1  0  0  0  0
 22 31  1  0  0  0  0
 22 26  1  0  0  0  0
 23 30  1  0  0  0  0
 24 25  2  0  0  0  0
 25 27  1  0  0  0  0
 26 28  1  0  0  0  0
 27 14  1  0  0  0  0
 28 23  1  0  0  0  0
 29 24  1  0  0  0  0
 29 23  2  0  0  0  0
 30 27  2  0  0  0  0
 31 29  1  0  0  0  0
M  END
>  <MODEL>
1

>  <REMARK>
 VINA RESULT:     -11.2      0.000      0.000
  Name = 
  1 active torsions:
  status: ('A' for Active; 'I' for Inactive)
    1  A    between atoms: C_9  and  N_23
                            x       y       z     vdW  Elec       q    Type
                         _______ _______ _______ _____ _____    ______ ____

>  <TORSDO>
F 1

$$$$
=
 OpenBabel11052413053D

 31 36  0  0  1  0  0  0  0  0999 V2000
  190.7110  176.7590  146.0650 C   0  0  0  0  0  0  0  0  0  0  0  0
  188.0780  177.4850  143.4490 C   0  0  0  0  0  0  0  0  0  0  0  0
  186.9390  177.8800  144.0990 C   0  0  0  0  0  0  0  0  0  0  0  0
  185.9530  178.0760  146.4520 C   0  0  0  0  0  3  0  0  0  0  0  0
  189.3120  177.0090  144.1400 C   0  0  0  0  0  0  0  0  0  0  0  0
  191.6820  176.2320  145.3850 N   0  0  0  0  0  0  0  0  0  0  0  0
  186.8730  177.7130  145.5680 C   0  0  0  0  0  3  0  0  0  0  0  0
  189.3210  177.0840  141.3030 C   0  0  0  0  0  0  0  0  0  0  0  0
  190.7940  176.7970  147.8130 Cl  0  0  0  0  0  0  0  0  0  0  0  0
  185.8980  178.3460  141.8160 C   0  0  0  0  0  3  0  0  0  0  0  0
  184.6920  178.7730  146.2310 C   0  0  0  0  0  3  0  0  0  0  0  0
  190.3010  176.5170  141.9440 N   0  0  0  0  0  0  0  0  0  0  0  0
  188.1260  177.4860  142.0020 N   0  0  0  0  0  0  0  0  0  0  0  0
  189.4400  177.3590  139.8960 N   0  0  0  0  0  2  0  0  0  0  0  0
  189.5430  177.2520  145.3990 N   0  0  0  0  0  0  0  0  0  0  0  0
  184.1420  179.1170  145.0760 C   0  0  0  0  0  3  0  0  0  0  0  0
  190.2710  176.1470  143.3560 C   0  0  1  0  0  3  0  0  0  0  0  0
  191.6880  176.2520  143.9230 C   0  0  0  0  0  2  0  0  0  0  0  0
  187.0050  177.9240  141.2260 C   0  0  0  0  0  3  0  0  0  0  0  0
  185.7900  178.3760  143.2760 C   0  0  0  0  0  0  0  0  0  0  0  0
  184.6440  178.8910  143.7200 C   0  0  0  0  0  3  0  0  0  0  0  0
  193.2600  175.1560  135.2710 N   0  0  0  0  0  2  0  0  0  0  0  0
  191.3060  176.3410  136.8370 C   0  0  0  0  0  0  0  0  0  0  0  0
  192.9200  176.7870  138.5890 C   0  0  0  0  0  3  0  0  0  0  0  0
  191.8750  177.1080  139.4600 C   0  0  0  0  0  3  0  0  0  0  0  0
  192.1090  175.7600  134.5950 C   0  0  0  0  0  2  0  0  0  0  0  0
  190.5390  177.0430  139.0290 C   0  0  0  0  0  0  0  0  0  0  0  0
  191.0400  175.9480  135.5240 O   0  0  0  0  0  0  0  0  0  0  0  0
  192.6340  176.3920  137.2810 C   0  0  0  0  0  0  0  0  0  0  0  0
  190.2630  176.6580  137.7120 C   0  0  0  0  0  3  0  0  0  0  0  0
  193.7320  176.0780  136.3080 C   0  0  0  0  0  2  0  0  0  0  0  0
  1  9  1  0  0  0  0
  2  3  2  0  0  0  0
  2  5  1  0  0  0  0
  3  7  1  0  0  0  0
  5 15  2  0  0  0  0
  6  1  2  0  0  0  0
  7  4  2  0  0  0  0
  8 12  2  0  0  0  0
  8 13  1  0  0  0  0
 10 20  1  0  0  0  0
 11  4  1  0  0  0  0
 12 17  1  0  0  0  0
 13  2  1  0  0  0  0
 14  8  1  0  0  0  0
 15  1  1  0  0  0  0
 16 11  2  0  0  0  0
 17 18  1  1  0  0  0
 17  5  1  0  0  0  0
 18  6  1  0  0  0  0
 19 10  2  0  0  0  0
 19 13  1  0  0  0  0
 20 21  2  0  0  0  0
 20  3  1  0  0  0  0
 21 16  1  0  0  0  0
 22 31  1  0  0  0  0
 23 29  2  0  0  0  0
 23 30  1  0  0  0  0
 24 25  2  0  0  0  0
 26 22  1  0  0  0  0
 26 28  1  0  0  0  0
 27 25  1  0  0  0  0
 27 14  1  0  0  0  0
 28 23  1  0  0  0  0
 29 24  1  0  0  0  0
 30 27  2  0  0  0  0
 31 29  1  0  0  0  0
M  END
>  <MODEL>
2

>  <REMARK>
 VINA RESULT:     -10.7      2.427      4.291
  Name = 
  1 active torsions:
  status: ('A' for Active; 'I' for Inactive)
    1  A    between atoms: C_9  and  N_23
                            x       y       z     vdW  Elec       q    Type
                         _______ _______ _______ _____ _____    ______ ____

>  <TORSDO>
F 1

$$$$
=
 OpenBabel11052413053D

 31 36  0  0  1  0  0  0  0  0999 V2000
  186.5340  178.2790  138.5820 C   0  0  0  0  0  0  0  0  0  0  0  0
  184.0770  178.7020  141.4270 C   0  0  0  0  0  0  0  0  0  0  0  0
  182.8310  178.8620  140.8850 C   0  0  0  0  0  0  0  0  0  0  0  0
  181.6640  179.1820  138.6290 C   0  0  0  0  0  3  0  0  0  0  0  0
  185.3320  178.6110  140.6260 C   0  0  0  0  0  0  0  0  0  0  0  0
  187.6900  178.3100  139.1690 N   0  0  0  0  0  0  0  0  0  0  0  0
  182.7210  179.0820  139.4260 C   0  0  0  0  0  3  0  0  0  0  0  0
  185.5460  178.4600  143.4510 C   0  0  0  0  0  0  0  0  0  0  0  0
  186.4440  178.2580  136.8350 Cl  0  0  0  0  0  0  0  0  0  0  0  0
  181.8860  178.8330  143.2550 C   0  0  0  0  0  3  0  0  0  0  0  0
  180.2490  179.0990  138.9680 C   0  0  0  0  0  3  0  0  0  0  0  0
  186.6180  178.5600  142.7210 N   0  0  0  0  0  0  0  0  0  0  0  0
  184.2420  178.6390  142.8640 N   0  0  0  0  0  0  0  0  0  0  0  0
  185.6500  178.1210  144.8460 N   0  0  0  0  0  2  0  0  0  0  0  0
  185.3280  178.3270  139.3540 N   0  0  0  0  0  0  0  0  0  0  0  0
  179.7040  178.9980  140.1710 C   0  0  0  0  0  3  0  0  0  0  0  0
  186.6340  178.9450  141.3130 C   0  0  1  0  0  3  0  0  0  0  0  0
  187.8100  178.2480  140.6250 C   0  0  0  0  0  2  0  0  0  0  0  0
  183.1110  178.7130  143.7410 C   0  0  0  0  0  3  0  0  0  0  0  0
  181.6540  178.8950  141.8100 C   0  0  0  0  0  0  0  0  0  0  0  0
  180.3650  178.9440  141.4750 C   0  0  0  0  0  3  0  0  0  0  0  0
  191.3440  176.2410  147.0540 N   0  0  0  0  0  2  0  0  0  0  0  0
  189.1820  177.2520  145.6470 C   0  0  0  0  0  0  0  0  0  0  0  0
  188.0720  177.8690  147.7120 C   0  0  0  0  0  3  0  0  0  0  0  0
  186.8910  178.0970  147.0000 C   0  0  0  0  0  3  0  0  0  0  0  0
  191.5760  176.7260  145.6920 C   0  0  0  0  0  2  0  0  0  0  0  0
  186.8450  177.9020  145.6090 C   0  0  0  0  0  0  0  0  0  0  0  0
  190.3360  176.8220  144.9890 O   0  0  0  0  0  0  0  0  0  0  0  0
  189.2140  177.4340  147.0360 C   0  0  0  0  0  0  0  0  0  0  0  0
  187.9990  177.4780  144.9390 C   0  0  0  0  0  3  0  0  0  0  0  0
  190.5090  177.2150  147.7630 C   0  0  0  0  0  2  0  0  0  0  0  0
  1  6  2  0  0  0  0
  1 15  1  0  0  0  0
  2 13  1  0  0  0  0
  3  2  2  0  0  0  0
  3 20  1  0  0  0  0
  4 11  1  0  0  0  0
  4  7  2  0  0  0  0
  5 17  1  0  0  0  0
  5  2  1  0  0  0  0
  6 18  1  0  0  0  0
  7  3  1  0  0  0  0
  8 14  1  0  0  0  0
  9  1  1  0  0  0  0
 10 19  2  0  0  0  0
 11 16  2  0  0  0  0
 12  8  2  0  0  0  0
 13  8  1  0  0  0  0
 13 19  1  0  0  0  0
 14 27  1  0  0  0  0
 15  5  2  0  0  0  0
 16 21  1  0  0  0  0
 17 18  1  6  0  0  0
 17 12  1  0  0  0  0
 20 10  1  0  0  0  0
 21 20  2  0  0  0  0
 22 31  1  0  0  0  0
 23 29  1  0  0  0  0
 25 24  1  0  0  0  0
 26 22  1  0  0  0  0
 27 25  2  0  0  0  0
 28 23  1  0  0  0  0
 28 26  1  0  0  0  0
 29 24  2  0  0  0  0
 29 31  1  0  0  0  0
 30 27  1  0  0  0  0
 30 23  2  0  0  0  0
M  END
>  <MODEL>
3

>  <REMARK>
 VINA RESULT:     -10.5      3.381      8.143
  Name = 
  1 active torsions:
  status: ('A' for Active; 'I' for Inactive)
    1  A    between atoms: C_9  and  N_23
                            x       y       z     vdW  Elec       q    Type
                         _______ _______ _______ _____ _____    ______ ____

>  <TORSDO>
F 1

$$$$
=
 OpenBabel11052413053D

 31 36  0  0  1  0  0  0  0  0999 V2000
  185.3120  178.2840  144.6900 C   0  0  0  0  0  0  0  0  0  0  0  0
  188.8550  177.5210  143.6050 C   0  0  0  0  0  0  0  0  0  0  0  0
  189.5900  177.2600  144.7300 C   0  0  0  0  0  0  0  0  0  0  0  0
  189.4220  177.3300  147.2830 C   0  0  0  0  0  3  0  0  0  0  0  0
  187.4310  177.9680  143.6230 C   0  0  0  0  0  0  0  0  0  0  0  0
  184.7370  178.6850  143.5980 N   0  0  0  0  0  0  0  0  0  0  0  0
  188.9880  177.5540  146.0490 C   0  0  0  0  0  3  0  0  0  0  0  0
  188.6950  177.6550  141.1020 C   0  0  0  0  0  0  0  0  0  0  0  0
  184.4570  178.3880  146.2130 Cl  0  0  0  0  0  0  0  0  0  0  0  0
  191.5540  176.6750  143.2090 C   0  0  0  0  0  3  0  0  0  0  0  0
  190.6650  176.7030  147.7190 C   0  0  0  0  0  3  0  0  0  0  0  0
  187.5190  178.2060  141.1770 N   0  0  0  0  0  0  0  0  0  0  0  0
  189.4590  177.3950  142.2960 N   0  0  0  0  0  0  0  0  0  0  0  0
  189.2260  177.2550  139.8250 N   0  0  0  0  0  2  0  0  0  0  0  0
  186.6660  177.8170  144.6670 N   0  0  0  0  0  0  0  0  0  0  0  0
  191.6810  176.3020  146.9700 C   0  0  0  0  0  3  0  0  0  0  0  0
  186.9050  178.6940  142.4090 C   0  0  1  0  0  3  0  0  0  0  0  0
  185.3870  178.5420  142.2960 C   0  0  0  0  0  2  0  0  0  0  0  0
  190.8190  176.9700  142.1490 C   0  0  0  0  0  3  0  0  0  0  0  0
  190.9970  176.7760  144.5600 C   0  0  0  0  0  0  0  0  0  0  0  0
  191.8340  176.3780  145.5170 C   0  0  0  0  0  3  0  0  0  0  0  0
  185.5710  176.9300  134.5940 N   0  0  0  0  0  2  0  0  0  0  0  0
  186.6600  177.2110  137.1260 C   0  0  0  0  0  0  0  0  0  0  0  0
  188.7210  178.0750  136.1900 C   0  0  0  0  0  3  0  0  0  0  0  0
  189.3390  177.9310  137.4350 C   0  0  0  0  0  3  0  0  0  0  0  0
  184.6540  177.1280  135.7190 C   0  0  0  0  0  2  0  0  0  0  0  0
  188.6240  177.4220  138.5330 C   0  0  0  0  0  0  0  0  0  0  0  0
  185.3230  176.8480  136.9500 O   0  0  0  0  0  0  0  0  0  0  0  0
  187.3850  177.7030  136.0330 C   0  0  0  0  0  0  0  0  0  0  0  0
  187.2810  177.0640  138.3690 C   0  0  0  0  0  3  0  0  0  0  0  0
  186.6800  177.8790  134.7200 C   0  0  0  0  0  2  0  0  0  0  0  0
  1  9  1  0  0  0  0
  2  5  1  0  0  0  0
  2  3  2  0  0  0  0
  3  7  1  0  0  0  0
  4 11  1  0  0  0  0
  5 15  2  0  0  0  0
  6  1  2  0  0  0  0
  7  4  2  0  0  0  0
  8 12  2  0  0  0  0
  8 13  1  0  0  0  0
 10 20  1  0  0  0  0
 12 17  1  0  0  0  0
 13  2  1  0  0  0  0
 14  8  1  0  0  0  0
 15  1  1  0  0  0  0
 16 11  2  0  0  0  0
 17 18  1  6  0  0  0
 17  5  1  0  0  0  0
 18  6  1  0  0  0  0
 19 13  1  0  0  0  0
 19 10  2  0  0  0  0
 20  3  1  0  0  0  0
 20 21  2  0  0  0  0
 21 16  1  0  0  0  0
 22 31  1  0  0  0  0
 22 26  1  0  0  0  0
 23 30  1  0  0  0  0
 24 25  2  0  0  0  0
 25 27  1  0  0  0  0
 26 28  1  0  0  0  0
 27 14  1  0  0  0  0
 28 23  1  0  0  0  0
 29 24  1  0  0  0  0
 29 23  2  0  0  0  0
 30 27  2  0  0  0  0
 31 29  1  0  0  0  0
M  END
>  <MODEL>
4

>  <REMARK>
 VINA RESULT:     -10.5      2.258      2.751
  Name = 
  1 active torsions:
  status: ('A' for Active; 'I' for Inactive)
    1  A    between atoms: C_9  and  N_23
                            x       y       z     vdW  Elec       q    Type
                         _______ _______ _______ _____ _____    ______ ____

>  <TORSDO>
F 1

$$$$
=
 OpenBabel11052413053D

 31 36  0  0  1  0  0  0  0  0999 V2000
  191.2180  177.5850  140.6990 C   0  0  0  0  0  0  0  0  0  0  0  0
  188.6900  177.4800  143.5110 C   0  0  0  0  0  0  0  0  0  0  0  0
  189.3680  177.2370  144.6750 C   0  0  0  0  0  0  0  0  0  0  0  0
  191.6990  176.6240  145.5340 C   0  0  0  0  0  3  0  0  0  0  0  0
  189.3250  177.4910  142.1610 C   0  0  0  0  0  0  0  0  0  0  0  0
  190.4850  177.6430  139.6310 N   0  0  0  0  0  0  0  0  0  0  0  0
  190.7900  176.8370  144.5920 C   0  0  0  0  0  3  0  0  0  0  0  0
  186.5370  177.9920  142.3220 C   0  0  0  0  0  0  0  0  0  0  0  0
  192.9510  177.3890  140.5570 Cl  0  0  0  0  0  0  0  0  0  0  0  0
  187.1640  177.5440  145.9250 C   0  0  0  0  0  3  0  0  0  0  0  0
  191.5620  176.7270  146.9820 C   0  0  0  0  0  3  0  0  0  0  0  0
  187.1010  177.8180  141.1630 N   0  0  0  0  0  0  0  0  0  0  0  0
  187.2630  177.7230  143.5380 N   0  0  0  0  0  0  0  0  0  0  0  0
  185.1930  178.5020  142.4020 N   0  0  0  0  0  2  0  0  0  0  0  0
  190.6110  177.6150  141.9970 N   0  0  0  0  0  0  0  0  0  0  0  0
  190.4630  176.9680  147.6810 C   0  0  0  0  0  3  0  0  0  0  0  0
  188.4370  177.2630  140.9620 C   0  0  1  0  0  3  0  0  0  0  0  0
  189.0450  177.8860  139.7040 C   0  0  0  0  0  2  0  0  0  0  0  0
  186.5400  177.7410  144.7740 C   0  0  0  0  0  3  0  0  0  0  0  0
  188.6070  177.3010  145.9640 C   0  0  0  0  0  0  0  0  0  0  0  0
  189.1010  177.1920  147.1970 C   0  0  0  0  0  3  0  0  0  0  0  0
  180.3450  178.9520  138.2640 N   0  0  0  0  0  2  0  0  0  0  0  0
  182.0510  178.9170  140.4480 C   0  0  0  0  0  0  0  0  0  0  0  0
  183.8970  179.6710  139.0710 C   0  0  0  0  0  3  0  0  0  0  0  0
  184.7840  179.3670  140.1080 C   0  0  0  0  0  3  0  0  0  0  0  0
  179.7620  179.1340  139.5950 C   0  0  0  0  0  2  0  0  0  0  0  0
  184.3130  178.8310  141.3180 C   0  0  0  0  0  0  0  0  0  0  0  0
  180.6800  178.6920  140.5960 O   0  0  0  0  0  0  0  0  0  0  0  0
  182.5310  179.4350  139.2380 C   0  0  0  0  0  0  0  0  0  0  0  0
  182.9400  178.6100  141.4800 C   0  0  0  0  0  3  0  0  0  0  0  0
  181.5470  179.7850  138.1600 C   0  0  0  0  0  2  0  0  0  0  0  0
  1 15  1  0  0  0  0
  2 13  1  0  0  0  0
  2  3  2  0  0  0  0
  3 20  1  0  0  0  0
  4 11  1  0  0  0  0
  5  2  1  0  0  0  0
  6 18  1  0  0  0  0
  6  1  2  0  0  0  0
  7  3  1  0  0  0  0
  7  4  2  0  0  0  0
  8 14  1  0  0  0  0
  8 13  1  0  0  0  0
  9  1  1  0  0  0  0
 10 20  1  0  0  0  0
 11 16  2  0  0  0  0
 12  8  2  0  0  0  0
 13 19  1  0  0  0  0
 15  5  2  0  0  0  0
 17 18  1  6  0  0  0
 17 12  1  0  0  0  0
 17  5  1  0  0  0  0
 19 10  2  0  0  0  0
 20 21  2  0  0  0  0
 21 16  1  0  0  0  0
 22 26  1  0  0  0  0
 23 28  1  0  0  0  0
 23 30  1  0  0  0  0
 24 29  1  0  0  0  0
 24 25  2  0  0  0  0
 25 27  1  0  0  0  0
 26 28  1  0  0  0  0
 27 30  2  0  0  0  0
 27 14  1  0  0  0  0
 29 23  2  0  0  0  0
 31 22  1  0  0  0  0
 31 29  1  0  0  0  0
M  END
>  <MODEL>
5

>  <REMARK>
 VINA RESULT:     -10.3      3.622      6.366
  Name = 
  1 active torsions:
  status: ('A' for Active; 'I' for Inactive)
    1  A    between atoms: C_9  and  N_23
                            x       y       z     vdW  Elec       q    Type
                         _______ _______ _______ _____ _____    ______ ____

>  <TORSDO>
F 1

$$$$
=
 OpenBabel11052413053D

 31 36  0  0  1  0  0  0  0  0999 V2000
  185.0490  178.4820  145.7310 C   0  0  0  0  0  0  0  0  0  0  0  0
  187.1780  178.2410  142.6140 C   0  0  0  0  0  0  0  0  0  0  0  0
  188.4390  177.8670  142.9950 C   0  0  0  0  0  0  0  0  0  0  0  0
  189.8610  177.4990  145.0910 C   0  0  0  0  0  3  0  0  0  0  0  0
  186.0730  178.5450  143.5680 C   0  0  0  0  0  0  0  0  0  0  0  0
  183.9400  179.0030  145.3050 N   0  0  0  0  0  0  0  0  0  0  0  0
  188.7720  177.8820  144.4370 C   0  0  0  0  0  3  0  0  0  0  0  0
  185.5330  178.7710  140.7910 C   0  0  0  0  0  0  0  0  0  0  0  0
  185.3010  178.2530  147.4470 Cl  0  0  0  0  0  0  0  0  0  0  0  0
  189.0550  177.7270  140.5220 C   0  0  0  0  0  3  0  0  0  0  0  0
  191.0950  176.9270  144.5630 C   0  0  0  0  0  3  0  0  0  0  0  0
  184.6610  179.1910  141.6610 N   0  0  0  0  0  0  0  0  0  0  0  0
  186.8580  178.3900  141.2100 N   0  0  0  0  0  0  0  0  0  0  0  0
  185.1650  178.6390  139.4060 N   0  0  0  0  0  2  0  0  0  0  0  0
  186.0970  178.1540  144.8100 N   0  0  0  0  0  0  0  0  0  0  0  0
  191.4340  176.7520  143.2950 C   0  0  0  0  0  3  0  0  0  0  0  0
  184.9360  179.4090  143.0780 C   0  0  1  0  0  3  0  0  0  0  0  0
  183.6590  179.1380  143.8760 C   0  0  0  0  0  2  0  0  0  0  0  0
  187.8350  178.1240  140.1970 C   0  0  0  0  0  3  0  0  0  0  0  0
  189.4380  177.5510  141.9250 C   0  0  0  0  0  0  0  0  0  0  0  0
  190.6740  177.0810  142.0900 C   0  0  0  0  0  3  0  0  0  0  0  0
  179.5550  181.2010  137.7360 N   0  0  0  0  0  2  0  0  0  0  0  0
  182.1940  180.6180  138.3440 C   0  0  0  0  0  0  0  0  0  0  0  0
  181.9320  178.3590  137.5060 C   0  0  0  0  0  3  0  0  0  0  0  0
  183.1570  178.0110  138.0820 C   0  0  0  0  0  3  0  0  0  0  0  0
  180.5150  182.3070  137.7630 C   0  0  0  0  0  2  0  0  0  0  0  0
  183.9070  178.9610  138.7970 C   0  0  0  0  0  0  0  0  0  0  0  0
  181.6920  181.9150  138.4700 O   0  0  0  0  0  0  0  0  0  0  0  0
  181.4460  179.6600  137.6470 C   0  0  0  0  0  0  0  0  0  0  0  0
  183.4170  180.2660  138.9220 C   0  0  0  0  0  3  0  0  0  0  0  0
  180.1530  180.0770  137.0100 C   0  0  0  0  0  2  0  0  0  0  0  0
  1  9  1  0  0  0  0
  2  3  2  0  0  0  0
  2  5  1  0  0  0  0
  3  7  1  0  0  0  0
  5 15  2  0  0  0  0
  6  1  2  0  0  0  0
  7  4  2  0  0  0  0
  8 13  1  0  0  0  0
  8 12  2  0  0  0  0
 10 20  1  0  0  0  0
 11  4  1  0  0  0  0
 12 17  1  0  0  0  0
 13  2  1  0  0  0  0
 14  8  1  0  0  0  0
 15  1  1  0  0  0  0
 16 11  2  0  0  0  0
 17  5  1  0  0  0  0
 17 18  1  1  0  0  0
 18  6  1  0  0  0  0
 19 10  2  0  0  0  0
 19 13  1  0  0  0  0
 20 21  2  0  0  0  0
 20  3  1  0  0  0  0
 21 16  1  0  0  0  0
 22 26  1  0  0  0  0
 23 28  1  0  0  0  0
 23 30  1  0  0  0  0
 24 29  1  0  0  0  0
 24 25  2  0  0  0  0
 25 27  1  0  0  0  0
 26 28  1  0  0  0  0
 27 30  2  0  0  0  0
 27 14  1  0  0  0  0
 29 23  2  0  0  0  0
 31 29  1  0  0  0  0
 31 22  1  0  0  0  0
M  END
>  <MODEL>
6

>  <REMARK>
 VINA RESULT:     -10.0      3.701      6.236
  Name = 
  1 active torsions:
  status: ('A' for Active; 'I' for Inactive)
    1  A    between atoms: C_9  and  N_23
                            x       y       z     vdW  Elec       q    Type
                         _______ _______ _______ _____ _____    ______ ____

>  <TORSDO>
F 1

$$$$
=
 OpenBabel11052413053D

 31 36  0  0  1  0  0  0  0  0999 V2000
  184.3720  178.7680  139.7950 C   0  0  0  0  0  0  0  0  0  0  0  0
  186.9230  178.1400  142.5160 C   0  0  0  0  0  0  0  0  0  0  0  0
  186.2870  178.2640  143.7230 C   0  0  0  0  0  0  0  0  0  0  0  0
  184.0470  178.9790  144.7330 C   0  0  0  0  0  3  0  0  0  0  0  0
  186.2770  178.4180  141.2000 C   0  0  0  0  0  0  0  0  0  0  0  0
  185.0830  178.8050  138.7110 N   0  0  0  0  0  0  0  0  0  0  0  0
  184.9180  178.8240  143.7440 C   0  0  0  0  0  3  0  0  0  0  0  0
  188.9940  177.5970  141.2020 C   0  0  0  0  0  0  0  0  0  0  0  0
  182.6700  179.1720  139.7340 Cl  0  0  0  0  0  0  0  0  0  0  0  0
  188.4550  177.5200  144.8460 C   0  0  0  0  0  3  0  0  0  0  0  0
  184.1860  178.6280  146.1410 C   0  0  0  0  0  3  0  0  0  0  0  0
  188.4410  178.0170  140.1020 N   0  0  0  0  0  0  0  0  0  0  0  0
  188.3140  177.7430  142.4650 N   0  0  0  0  0  0  0  0  0  0  0  0
  190.2720  176.9380  141.1620 N   0  0  0  0  0  2  0  0  0  0  0  0
  184.9840  178.4620  141.0530 N   0  0  0  0  0  0  0  0  0  0  0  0
  185.2580  178.1590  146.7620 C   0  0  0  0  0  3  0  0  0  0  0  0
  187.1740  178.7390  140.0290 C   0  0  1  0  0  3  0  0  0  0  0  0
  186.4870  178.3980  138.7050 C   0  0  0  0  0  2  0  0  0  0  0  0
  189.0420  177.4460  143.6620 C   0  0  0  0  0  3  0  0  0  0  0  0
  187.0480  177.9080  144.9630 C   0  0  0  0  0  0  0  0  0  0  0  0
  186.5820  177.8690  146.2110 C   0  0  0  0  0  3  0  0  0  0  0  0
  192.9570  174.7120  135.8080 N   0  0  0  0  0  2  0  0  0  0  0  0
  191.3260  175.7450  137.7950 C   0  0  0  0  0  0  0  0  0  0  0  0
  193.2130  176.8690  138.8190 C   0  0  0  0  0  3  0  0  0  0  0  0
  192.4350  177.1280  139.9510 C   0  0  0  0  0  3  0  0  0  0  0  0
  191.5380  174.9080  135.5010 C   0  0  0  0  0  2  0  0  0  0  0  0
  191.1000  176.6950  140.0160 C   0  0  0  0  0  0  0  0  0  0  0  0
  190.7910  175.0480  136.7100 O   0  0  0  0  0  0  0  0  0  0  0  0
  192.6610  176.1660  137.7460 C   0  0  0  0  0  0  0  0  0  0  0  0
  190.5520  176.0030  138.9300 C   0  0  0  0  0  3  0  0  0  0  0  0
  193.4560  175.9030  136.5010 C   0  0  0  0  0  2  0  0  0  0  0  0
  1 15  1  0  0  0  0
  2  3  2  0  0  0  0
  3  7  1  0  0  0  0
  3 20  1  0  0  0  0
  4 11  1  0  0  0  0
  5  2  1  0  0  0  0
  6  1  2  0  0  0  0
  7  4  2  0  0  0  0
  8 13  1  0  0  0  0
  9  1  1  0  0  0  0
 10 20  1  0  0  0  0
 11 16  2  0  0  0  0
 12  8  2  0  0  0  0
 13  2  1  0  0  0  0
 13 19  1  0  0  0  0
 14  8  1  0  0  0  0
 15  5  2  0  0  0  0
 17 18  1  6  0  0  0
 17 12  1  0  0  0  0
 17  5  1  0  0  0  0
 18  6  1  0  0  0  0
 19 10  2  0  0  0  0
 20 21  2  0  0  0  0
 21 16  1  0  0  0  0
 22 31  1  0  0  0  0
 23 30  1  0  0  0  0
 24 25  2  0  0  0  0
 25 27  1  0  0  0  0
 26 22  1  0  0  0  0
 26 28  1  0  0  0  0
 27 14  1  0  0  0  0
 28 23  1  0  0  0  0
 29 23  2  0  0  0  0
 29 24  1  0  0  0  0
 30 27  2  0  0  0  0
 31 29  1  0  0  0  0
M  END
>  <MODEL>
7

>  <REMARK>
 VINA RESULT:      -9.9      1.937      2.726
  Name = 
  1 active torsions:
  status: ('A' for Active; 'I' for Inactive)
    1  A    between atoms: C_9  and  N_23
                            x       y       z     vdW  Elec       q    Type
                         _______ _______ _______ _____ _____    ______ ____

>  <TORSDO>
F 1

$$$$
=
 OpenBabel11052413053D

 31 36  0  0  1  0  0  0  0  0999 V2000
  190.3510  177.6180  142.1170 C   0  0  0  0  0  0  0  0  0  0  0  0
  187.3460  177.9610  144.3880 C   0  0  0  0  0  0  0  0  0  0  0  0
  187.7900  177.9090  145.6820 C   0  0  0  0  0  0  0  0  0  0  0  0
  189.9060  177.4460  147.0460 C   0  0  0  0  0  3  0  0  0  0  0  0
  188.2190  177.7560  143.1960 C   0  0  0  0  0  0  0  0  0  0  0  0
  189.8290  177.5030  140.9340 N   0  0  0  0  0  0  0  0  0  0  0  0
  189.1920  177.5030  145.9290 C   0  0  0  0  0  3  0  0  0  0  0  0
  185.4640  178.2720  142.7540 C   0  0  0  0  0  0  0  0  0  0  0  0
  192.0740  177.4050  142.3330 Cl  0  0  0  0  0  0  0  0  0  0  0  0
  185.4040  178.4090  146.4350 C   0  0  0  0  0  3  0  0  0  0  0  0
  189.5070  177.7800  148.4080 C   0  0  0  0  0  3  0  0  0  0  0  0
  186.2270  177.9150  141.7630 N   0  0  0  0  0  0  0  0  0  0  0  0
  185.9460  178.2020  144.1100 N   0  0  0  0  0  0  0  0  0  0  0  0
  184.1440  178.7850  142.5000 N   0  0  0  0  0  2  0  0  0  0  0  0
  189.5160  177.8550  143.2570 N   0  0  0  0  0  0  0  0  0  0  0  0
  188.3050  178.1280  148.8430 C   0  0  0  0  0  3  0  0  0  0  0  0
  187.5600  177.3370  141.9040 C   0  0  1  0  0  3  0  0  0  0  0  0
  188.4080  177.7510  140.6990 C   0  0  0  0  0  2  0  0  0  0  0  0
  185.0080  178.4170  145.1720 C   0  0  0  0  0  3  0  0  0  0  0  0
  186.8080  178.1780  146.7800 C   0  0  0  0  0  0  0  0  0  0  0  0
  187.0630  178.2690  148.0850 C   0  0  0  0  0  3  0  0  0  0  0  0
  180.2290  178.4430  137.4610 N   0  0  0  0  0  2  0  0  0  0  0  0
  181.4500  178.7600  139.9280 C   0  0  0  0  0  0  0  0  0  0  0  0
  183.4970  179.5070  138.8670 C   0  0  0  0  0  3  0  0  0  0  0  0
  184.1680  179.3780  140.0860 C   0  0  0  0  0  3  0  0  0  0  0  0
  179.3760  178.7160  138.6210 C   0  0  0  0  0  2  0  0  0  0  0  0
  183.4880  178.9350  141.2330 C   0  0  0  0  0  0  0  0  0  0  0  0
  180.0930  178.4480  139.8280 O   0  0  0  0  0  0  0  0  0  0  0  0
  182.1400  179.1860  138.7860 C   0  0  0  0  0  0  0  0  0  0  0  0
  182.1250  178.6280  141.1450 C   0  0  0  0  0  3  0  0  0  0  0  0
  181.3810  179.3490  137.5020 C   0  0  0  0  0  2  0  0  0  0  0  0
  1  9  1  0  0  0  0
  1 15  1  0  0  0  0
  2  3  2  0  0  0  0
  3  7  1  0  0  0  0
  3 20  1  0  0  0  0
  4 11  1  0  0  0  0
  5 15  2  0  0  0  0
  5  2  1  0  0  0  0
  6  1  2  0  0  0  0
  7  4  2  0  0  0  0
  8 13  1  0  0  0  0
 10 20  1  0  0  0  0
 11 16  2  0  0  0  0
 12 17  1  0  0  0  0
 12  8  2  0  0  0  0
 13  2  1  0  0  0  0
 13 19  1  0  0  0  0
 14  8  1  0  0  0  0
 17 18  1  6  0  0  0
 17  5  1  0  0  0  0
 18  6  1  0  0  0  0
 19 10  2  0  0  0  0
 20 21  2  0  0  0  0
 21 16  1  0  0  0  0
 22 31  1  0  0  0  0
 22 26  1  0  0  0  0
 23 30  1  0  0  0  0
 24 25  2  0  0  0  0
 25 27  1  0  0  0  0
 26 28  1  0  0  0  0
 27 14  1  0  0  0  0
 28 23  1  0  0  0  0
 29 24  1  0  0  0  0
 29 23  2  0  0  0  0
 30 27  2  0  0  0  0
 31 29  1  0  0  0  0
M  END
>  <MODEL>
8

>  <REMARK>
 VINA RESULT:      -9.8      3.788      6.270
  Name = 
  1 active torsions:
  status: ('A' for Active; 'I' for Inactive)
    1  A    between atoms: C_9  and  N_23
                            x       y       z     vdW  Elec       q    Type
                         _______ _______ _______ _____ _____    ______ ____

>  <TORSDO>
F 1

$$$$
=
 OpenBabel11052413053D

 31 36  0  0  1  0  0  0  0  0999 V2000
  185.0710  178.4750  145.7760 C   0  0  0  0  0  0  0  0  0  0  0  0
  187.2310  178.2300  142.6810 C   0  0  0  0  0  0  0  0  0  0  0  0
  188.4890  177.8610  143.0760 C   0  0  0  0  0  0  0  0  0  0  0  0
  189.8910  177.5040  145.1870 C   0  0  0  0  0  3  0  0  0  0  0  0
  186.1150  178.5340  143.6230 C   0  0  0  0  0  0  0  0  0  0  0  0
  183.9640  178.9910  145.3370 N   0  0  0  0  0  0  0  0  0  0  0  0
  188.8080  177.8810  144.5210 C   0  0  0  0  0  3  0  0  0  0  0  0
  185.6020  178.7480  140.8410 C   0  0  0  0  0  0  0  0  0  0  0  0
  185.3050  178.2530  147.4960 Cl  0  0  0  0  0  0  0  0  0  0  0  0
  189.1300  177.7130  140.6100 C   0  0  0  0  0  3  0  0  0  0  0  0
  191.1310  176.9340  144.6740 C   0  0  0  0  0  3  0  0  0  0  0  0
  184.7200  179.1680  141.7000 N   0  0  0  0  0  0  0  0  0  0  0  0
  186.9240  178.3720  141.2740 N   0  0  0  0  0  0  0  0  0  0  0  0
  185.2480  178.6100  139.4530 N   0  0  0  0  0  2  0  0  0  0  0  0
  186.1280  178.1460  144.8670 N   0  0  0  0  0  0  0  0  0  0  0  0
  191.4840  176.7550  143.4100 C   0  0  0  0  0  3  0  0  0  0  0  0
  184.9810  179.3920  143.1190 C   0  0  1  0  0  3  0  0  0  0  0  0
  183.6970  179.1200  143.9060 C   0  0  0  0  0  2  0  0  0  0  0  0
  187.9120  178.1050  140.2720 C   0  0  0  0  0  3  0  0  0  0  0  0
  189.4990  177.5430  142.0170 C   0  0  0  0  0  0  0  0  0  0  0  0
  190.7350  177.0770  142.1960 C   0  0  0  0  0  3  0  0  0  0  0  0
  180.1260  178.9640  135.6490 N   0  0  0  0  0  2  0  0  0  0  0  0
  182.2000  178.2530  137.3430 C   0  0  0  0  0  0  0  0  0  0  0  0
  182.1150  180.4190  138.4270 C   0  0  0  0  0  3  0  0  0  0  0  0
  183.3330  180.1440  139.0550 C   0  0  0  0  0  3  0  0  0  0  0  0
  180.3140  177.5420  135.9480 C   0  0  0  0  0  2  0  0  0  0  0  0
  183.9950  178.9250  138.8290 C   0  0  0  0  0  0  0  0  0  0  0  0
  181.6220  177.3220  136.4760 O   0  0  0  0  0  0  0  0  0  0  0  0
  181.5560  179.4770  137.5610 C   0  0  0  0  0  0  0  0  0  0  0  0
  183.4200  177.9820  137.9700 C   0  0  0  0  0  3  0  0  0  0  0  0
  180.2320  179.7240  136.8980 C   0  0  0  0  0  2  0  0  0  0  0  0
  1  9  1  0  0  0  0
  2  3  2  0  0  0  0
  2  5  1  0  0  0  0
  3  7  1  0  0  0  0
  5 15  2  0  0  0  0
  6  1  2  0  0  0  0
  7  4  2  0  0  0  0
  8 13  1  0  0  0  0
  8 12  2  0  0  0  0
 10 20  1  0  0  0  0
 11  4  1  0  0  0  0
 12 17  1  0  0  0  0
 13  2  1  0  0  0  0
 14  8  1  0  0  0  0
 15  1  1  0  0  0  0
 16 11  2  0  0  0  0
 17  5  1  0  0  0  0
 17 18  1  1  0  0  0
 18  6  1  0  0  0  0
 19 10  2  0  0  0  0
 19 13  1  0  0  0  0
 20 21  2  0  0  0  0
 20  3  1  0  0  0  0
 21 16  1  0  0  0  0
 22 26  1  0  0  0  0
 22 31  1  0  0  0  0
 23 29  2  0  0  0  0
 23 30  1  0  0  0  0
 24 25  2  0  0  0  0
 26 28  1  0  0  0  0
 27 25  1  0  0  0  0
 27 14  1  0  0  0  0
 28 23  1  0  0  0  0
 29 24  1  0  0  0  0
 30 27  2  0  0  0  0
 31 29  1  0  0  0  0
M  END
>  <MODEL>
9

>  <REMARK>
 VINA RESULT:      -9.6      3.550      5.757
  Name = 
  1 active torsions:
  status: ('A' for Active; 'I' for Inactive)
    1  A    between atoms: C_9  and  N_23
                            x       y       z     vdW  Elec       q    Type
                         _______ _______ _______ _____ _____    ______ ____

>  <TORSDO>
F 1

$$$$
