=
 OpenBabel11052415443D

 34 40  0  0  1  0  0  0  0  0999 V2000
  192.0720  177.6120  140.3210 O   0  0  0  0  0  0  0  0  0  0  0  0
  189.7760  175.0970  137.5590 O   0  0  0  0  0  0  0  0  0  0  0  0
  188.3730  176.7680  138.6080 C   0  0  0  0  0  2  0  0  0  0  0  0
  190.9510  177.4820  139.7640 C   0  0  0  0  0  0  0  0  0  0  0  0
  187.7170  178.1600  141.6290 C   0  0  2  0  0  3  0  0  0  0  0  0
  187.4790  179.4340  141.0730 O   0  0  0  0  0  0  0  0  0  0  0  0
  189.2160  177.8430  141.6570 C   0  0  2  0  0  3  0  0  0  0  0  0
  188.5130  178.1270  139.3270 C   0  0  2  0  0  3  0  0  0  0  0  0
  189.7320  178.2100  140.2640 C   0  0  2  0  0  3  0  0  0  0  0  0
  187.2920  178.3290  140.2160 C   0  0  1  0  0  3  0  0  0  0  0  0
  189.6250  176.4600  137.7800 C   0  0  1  0  0  0  0  0  0  0  0  0
  190.9060  175.2050  138.3610 C   0  0  1  0  0  0  0  0  0  0  0  0
  190.7920  176.6380  138.6370 N   0  0  0  0  0  0  0  0  0  0  0  0
  189.3740  176.3530  142.0000 C   0  0  2  0  0  3  0  0  0  0  0  0
  189.6860  176.0400  143.4780 C   0  0  1  0  0  3  0  0  0  0  0  0
  190.7920  176.0600  142.4370 C   0  0  0  0  0  2  0  0  0  0  0  0
  190.6430  178.2050  144.0170 O   0  0  0  0  0  1  0  0  0  0  0  0
  189.7530  177.2320  144.3330 N   0  0  0  0  0  0  0  0  0  0  0  0
  190.3910  176.7700  147.1050 F   0  0  0  0  0  0  0  0  0  0  0  0
  186.5990  178.1560  146.1150 C   0  0  0  0  0  0  0  0  0  0  0  0
  187.5320  177.9150  145.1010 C   0  0  0  0  0  3  0  0  0  0  0  0
  188.8270  177.4720  145.4080 C   0  0  0  0  0  0  0  0  0  0  0  0
  188.2320  177.4870  147.7690 C   0  0  0  0  0  3  0  0  0  0  0  0
  189.1710  177.2530  146.7580 C   0  0  0  0  0  0  0  0  0  0  0  0
  186.9500  177.9390  147.4490 C   0  0  0  0  0  3  0  0  0  0  0  0
  185.2240  178.6140  145.7710 C   0  0  0  0  0  2  0  0  0  0  0  0
  183.6490  178.7520  144.0510 C   0  0  0  0  0  1  0  0  0  0  0  0
  185.0740  178.7050  144.3290 N   0  0  0  0  0  2  0  0  0  0  0  0
  192.1190  173.9010  136.5620 S   0  0  0  0  0  0  0  0  0  0  0  0
  192.1670  174.8910  137.5970 C   0  0  0  0  0  0  0  0  0  0  0  0
  193.4860  175.5110  137.9570 C   0  0  0  0  0  2  0  0  0  0  0  0
  194.6590  174.6630  137.4870 C   0  0  0  0  0  2  0  0  0  0  0  0
  195.2540  173.9030  138.6270 C   0  0  0  0  0  3  0  0  0  0  0  0
  196.1060  174.5040  139.4520 C   0  0  0  0  0  2  0  0  0  0  0  0
  2 11  1  0  0  0  0
  2 12  1  0  0  0  0
  4  1  2  0  0  0  0
  5  6  1  1  0  0  0
  5  7  1  0  0  0  0
  7 14  1  6  0  0  0
  8  3  1  1  0  0  0
  8 10  1  0  0  0  0
  8  9  1  0  0  0  0
  9  4  1  6  0  0  0
  9  7  1  0  0  0  0
 10  6  1  1  0  0  0
 10  5  1  0  0  0  0
 11 12  1  0  0  0  0
 11  3  1  1  0  0  0
 11 13  1  0  0  0  0
 12 30  1  6  0  0  0
 12 13  1  0  0  0  0
 13  4  1  0  0  0  0
 14 16  1  6  0  0  0
 14 15  1  0  0  0  0
 15 18  1  1  0  0  0
 16 15  1  0  0  0  0
 17 18  1  0  0  0  0
 18 22  1  0  0  0  0
 20 25  1  0  0  0  0
 21 22  1  0  0  0  0
 21 20  2  0  0  0  0
 22 24  2  0  0  0  0
 24 19  1  0  0  0  0
 24 23  1  0  0  0  0
 25 23  2  0  0  0  0
 26 20  1  0  0  0  0
 27 28  1  0  0  0  0
 28 26  1  0  0  0  0
 29 30  2  0  0  0  0
 30 31  1  0  0  0  0
 32 31  1  0  0  0  0
 32 33  1  0  0  0  0
 33 34  2  0  0  0  0
M  END
>  <MODEL>
1

>  <REMARK>
 VINA RESULT:      -7.7      0.000      0.000
  Name = 
  9 active torsions:
  status: ('A' for Active; 'I' for Inactive)
    1  A    between atoms: C_3  and  C_24
    2  A    between atoms: C_7  and  C_15
    3  A    between atoms: C_8  and  C_17
    4  A    between atoms: C_15  and  N_21
    5  A    between atoms: C_16  and  N_31
    6  A    between atoms: C_18  and  N_31
    7  A    between atoms: C_24  and  C_25
    8  A    between atoms: C_25  and  C_27
    9  A    between atoms: C_27  and  C_33
                            x       y       z     vdW  Elec       q    Type
                         _______ _______ _______ _____ _____    ______ ____

>  <TORSDO>
F 9

$$$$
=
 OpenBabel11052415443D

 34 40  0  0  1  0  0  0  0  0999 V2000
  186.5270  179.7290  141.3460 O   0  0  0  0  0  0  0  0  0  0  0  0
  182.6080  177.7640  141.3790 O   0  0  0  0  0  0  0  0  0  0  0  0
  183.3220  178.3500  143.6170 C   0  0  0  0  0  2  0  0  0  0  0  0
  185.5490  179.4340  142.0800 C   0  0  0  0  0  0  0  0  0  0  0  0
  186.0350  178.2340  145.6470 C   0  0  2  0  0  3  0  0  0  0  0  0
  185.7130  179.4580  146.2700 O   0  0  0  0  0  0  0  0  0  0  0  0
  186.6020  178.4640  144.2430 C   0  0  2  0  0  3  0  0  0  0  0  0
  184.3050  179.3140  144.3150 C   0  0  2  0  0  3  0  0  0  0  0  0
  185.6510  179.4650  143.5820 C   0  0  2  0  0  3  0  0  0  0  0  0
  184.6420  178.7470  145.6880 C   0  0  1  0  0  3  0  0  0  0  0  0
  183.0300  178.8130  142.1850 C   0  0  1  0  0  0  0  0  0  0  0  0
  183.8020  177.9550  140.6960 C   0  0  1  0  0  0  0  0  0  0  0  0
  184.3040  179.0570  141.5180 N   0  0  0  0  0  0  0  0  0  0  0  0
  186.6560  177.1030  143.5300 C   0  0  2  0  0  3  0  0  0  0  0  0
  188.0700  176.5760  143.2110 C   0  0  1  0  0  3  0  0  0  0  0  0
  187.2350  177.2580  142.1410 C   0  0  0  0  0  2  0  0  0  0  0  0
  189.3250  178.6470  143.0430 O   0  0  0  0  0  1  0  0  0  0  0  0
  189.1490  177.4590  143.6710 N   0  0  0  0  0  0  0  0  0  0  0  0
  191.5250  175.8290  143.6300 F   0  0  0  0  0  0  0  0  0  0  0  0
  190.2490  177.4360  147.2440 C   0  0  0  0  0  0  0  0  0  0  0  0
  189.5150  177.6870  146.0810 C   0  0  0  0  0  3  0  0  0  0  0  0
  189.9370  177.1790  144.8440 C   0  0  0  0  0  0  0  0  0  0  0  0
  191.8320  176.1350  145.9590 C   0  0  0  0  0  3  0  0  0  0  0  0
  191.1060  176.3910  144.7910 C   0  0  0  0  0  0  0  0  0  0  0  0
  191.4060  176.6570  147.1840 C   0  0  0  0  0  3  0  0  0  0  0  0
  189.7800  177.9720  148.5540 C   0  0  0  0  0  2  0  0  0  0  0  0
  187.5240  177.5320  148.9730 C   0  0  0  0  0  1  0  0  0  0  0  0
  188.4390  178.5150  148.4190 N   0  0  0  0  0  2  0  0  0  0  0  0
  183.6690  177.4190  138.2250 S   0  0  0  0  0  0  0  0  0  0  0  0
  183.5690  178.3920  139.2720 C   0  0  0  0  0  0  0  0  0  0  0  0
  183.3350  179.8320  138.9150 C   0  0  0  0  0  2  0  0  0  0  0  0
  181.8610  180.1240  138.6710 C   0  0  0  0  0  2  0  0  0  0  0  0
  181.6500  181.5740  138.3810 C   0  0  0  0  0  3  0  0  0  0  0  0
  180.8250  181.9410  137.4060 C   0  0  0  0  0  2  0  0  0  0  0  0
  1  4  2  0  0  0  0
  2 11  1  0  0  0  0
  5 10  1  0  0  0  0
  5  6  1  1  0  0  0
  7 14  1  6  0  0  0
  7  5  1  0  0  0  0
  8  3  1  6  0  0  0
  8 10  1  0  0  0  0
  9  4  1  6  0  0  0
  9  7  1  0  0  0  0
  9  8  1  0  0  0  0
 10  6  1  1  0  0  0
 11  3  1  1  0  0  0
 12 30  1  6  0  0  0
 12  2  1  0  0  0  0
 12 13  1  0  0  0  0
 12 11  1  0  0  0  0
 13  4  1  0  0  0  0
 13 11  1  0  0  0  0
 14 16  1  6  0  0  0
 15 14  1  0  0  0  0
 15 18  1  1  0  0  0
 16 15  1  0  0  0  0
 17 18  1  0  0  0  0
 18 22  1  0  0  0  0
 19 24  1  0  0  0  0
 20 26  1  0  0  0  0
 21 20  2  0  0  0  0
 22 21  1  0  0  0  0
 23 25  2  0  0  0  0
 24 22  2  0  0  0  0
 24 23  1  0  0  0  0
 25 20  1  0  0  0  0
 28 26  1  0  0  0  0
 28 27  1  0  0  0  0
 29 30  2  0  0  0  0
 31 30  1  0  0  0  0
 32 31  1  0  0  0  0
 33 32  1  0  0  0  0
 34 33  2  0  0  0  0
M  END
>  <MODEL>
2

>  <REMARK>
 VINA RESULT:      -7.0      4.329      7.287
  Name = 
  9 active torsions:
  status: ('A' for Active; 'I' for Inactive)
    1  A    between atoms: C_3  and  C_24
    2  A    between atoms: C_7  and  C_15
    3  A    between atoms: C_8  and  C_17
    4  A    between atoms: C_15  and  N_21
    5  A    between atoms: C_16  and  N_31
    6  A    between atoms: C_18  and  N_31
    7  A    between atoms: C_24  and  C_25
    8  A    between atoms: C_25  and  C_27
    9  A    between atoms: C_27  and  C_33
                            x       y       z     vdW  Elec       q    Type
                         _______ _______ _______ _____ _____    ______ ____

>  <TORSDO>
F 9

$$$$
=
 OpenBabel11052415443D

 34 40  0  0  1  0  0  0  0  0999 V2000
  191.1830  177.9280  139.7140 O   0  0  0  0  0  0  0  0  0  0  0  0
  188.5810  175.3390  137.3160 O   0  0  0  0  0  0  0  0  0  0  0  0
  187.2980  176.9690  138.5650 C   0  0  0  0  0  2  0  0  0  0  0  0
  189.9960  177.7630  139.3280 C   0  0  0  0  0  0  0  0  0  0  0  0
  187.0550  178.3460  141.6540 C   0  0  2  0  0  3  0  0  0  0  0  0
  186.6980  179.6110  141.1420 O   0  0  0  0  0  0  0  0  0  0  0  0
  188.5500  178.0750  141.4590 C   0  0  2  0  0  3  0  0  0  0  0  0
  187.5020  178.3330  139.2590 C   0  0  2  0  0  3  0  0  0  0  0  0
  188.8430  178.4540  140.0050 C   0  0  2  0  0  3  0  0  0  0  0  0
  186.4200  178.4990  140.3200 C   0  0  1  0  0  3  0  0  0  0  0  0
  188.4230  176.6970  137.5600 C   0  0  1  0  0  0  0  0  0  0  0  0
  189.8130  175.4830  137.9410 C   0  0  1  0  0  0  0  0  0  0  0  0
  189.6980  176.9120  138.2360 N   0  0  0  0  0  0  0  0  0  0  0  0
  188.8020  176.5900  141.7700 C   0  0  2  0  0  3  0  0  0  0  0  0
  189.3100  176.2880  143.1950 C   0  0  1  0  0  3  0  0  0  0  0  0
  190.2740  176.3480  142.0230 C   0  0  0  0  0  2  0  0  0  0  0  0
  190.1140  178.5500  143.5490 O   0  0  0  0  0  1  0  0  0  0  0  0
  189.4440  177.4800  144.0410 N   0  0  0  0  0  0  0  0  0  0  0  0
  190.7710  177.0840  146.5680 F   0  0  0  0  0  0  0  0  0  0  0  0
  186.7260  178.0390  146.5470 C   0  0  0  0  0  0  0  0  0  0  0  0
  187.4090  177.9070  145.3340 C   0  0  0  0  0  3  0  0  0  0  0  0
  188.7800  177.6110  145.3130 C   0  0  0  0  0  0  0  0  0  0  0  0
  188.7690  177.5520  147.7460 C   0  0  0  0  0  3  0  0  0  0  0  0
  189.4590  177.4270  146.5350 C   0  0  0  0  0  0  0  0  0  0  0  0
  187.4060  177.8580  147.7530 C   0  0  0  0  0  3  0  0  0  0  0  0
  185.2670  178.3400  146.5530 C   0  0  0  0  0  2  0  0  0  0  0  0
  183.7000  179.0050  144.9530 C   0  0  0  0  0  1  0  0  0  0  0  0
  184.9650  179.3660  145.5700 N   0  0  0  0  0  2  0  0  0  0  0  0
  192.2960  175.4280  137.4540 S   0  0  0  0  0  0  0  0  0  0  0  0
  190.9550  175.2050  136.9990 C   0  0  0  0  0  0  0  0  0  0  0  0
  190.7240  174.7990  135.5720 C   0  0  0  0  0  2  0  0  0  0  0  0
  190.8150  173.2900  135.3900 C   0  0  0  0  0  2  0  0  0  0  0  0
  189.5100  172.7350  134.9190 C   0  0  0  0  0  3  0  0  0  0  0  0
  189.4060  171.4420  134.6280 C   0  0  0  0  0  2  0  0  0  0  0  0
  2 11  1  0  0  0  0
  2 12  1  0  0  0  0
  4  1  2  0  0  0  0
  5  6  1  1  0  0  0
  7  5  1  0  0  0  0
  7 14  1  6  0  0  0
  8  3  1  1  0  0  0
  8  9  1  0  0  0  0
  8 10  1  0  0  0  0
  9  4  1  6  0  0  0
  9  7  1  0  0  0  0
 10  6  1  1  0  0  0
 10  5  1  0  0  0  0
 11 12  1  0  0  0  0
 11 13  1  0  0  0  0
 11  3  1  1  0  0  0
 12 30  1  6  0  0  0
 12 13  1  0  0  0  0
 13  4  1  0  0  0  0
 14 16  1  6  0  0  0
 14 15  1  0  0  0  0
 15 18  1  1  0  0  0
 16 15  1  0  0  0  0
 17 18  1  0  0  0  0
 18 22  1  0  0  0  0
 20 26  1  0  0  0  0
 20 25  1  0  0  0  0
 21 20  2  0  0  0  0
 22 21  1  0  0  0  0
 22 24  2  0  0  0  0
 23 25  2  0  0  0  0
 24 19  1  0  0  0  0
 24 23  1  0  0  0  0
 27 28  1  0  0  0  0
 28 26  1  0  0  0  0
 30 29  2  0  0  0  0
 31 30  1  0  0  0  0
 32 31  1  0  0  0  0
 33 32  1  0  0  0  0
 34 33  2  0  0  0  0
M  END
>  <MODEL>
3

>  <REMARK>
 VINA RESULT:      -7.0      1.740      2.345
  Name = 
  9 active torsions:
  status: ('A' for Active; 'I' for Inactive)
    1  A    between atoms: C_3  and  C_24
    2  A    between atoms: C_7  and  C_15
    3  A    between atoms: C_8  and  C_17
    4  A    between atoms: C_15  and  N_21
    5  A    between atoms: C_16  and  N_31
    6  A    between atoms: C_18  and  N_31
    7  A    between atoms: C_24  and  C_25
    8  A    between atoms: C_25  and  C_27
    9  A    between atoms: C_27  and  C_33
                            x       y       z     vdW  Elec       q    Type
                         _______ _______ _______ _____ _____    ______ ____

>  <TORSDO>
F 9

$$$$
=
 OpenBabel11052415443D

 34 40  0  0  1  0  0  0  0  0999 V2000
  186.4560  179.6780  141.2710 O   0  0  0  0  0  0  0  0  0  0  0  0
  182.5500  177.6920  141.4310 O   0  0  0  0  0  0  0  0  0  0  0  0
  183.3020  178.3440  143.6380 C   0  0  0  0  0  2  0  0  0  0  0  0
  185.4930  179.3980  142.0310 C   0  0  0  0  0  0  0  0  0  0  0  0
  186.0520  178.3000  145.6200 C   0  0  2  0  0  3  0  0  0  0  0  0
  185.7340  179.5380  146.2150 O   0  0  0  0  0  0  0  0  0  0  0  0
  186.5920  178.4940  144.2000 C   0  0  2  0  0  3  0  0  0  0  0  0
  184.2920  179.3330  144.2900 C   0  0  2  0  0  3  0  0  0  0  0  0
  185.6230  179.4710  143.5290 C   0  0  2  0  0  3  0  0  0  0  0  0
  184.6570  178.8060  145.6730 C   0  0  1  0  0  3  0  0  0  0  0  0
  182.9810  178.7650  142.2000 C   0  0  1  0  0  0  0  0  0  0  0  0
  183.7310  177.8710  140.7200 C   0  0  1  0  0  0  0  0  0  0  0  0
  184.2410  178.9980  141.5020 N   0  0  0  0  0  0  0  0  0  0  0  0
  186.6420  177.1140  143.5240 C   0  0  2  0  0  3  0  0  0  0  0  0
  188.0550  176.5650  143.2370 C   0  0  1  0  0  3  0  0  0  0  0  0
  187.2390  177.2260  142.1390 C   0  0  0  0  0  2  0  0  0  0  0  0
  189.3370  178.6150  143.0250 O   0  0  0  0  0  1  0  0  0  0  0  0
  189.1360  177.4500  143.6870 N   0  0  0  0  0  0  0  0  0  0  0  0
  191.5430  175.8670  143.7210 F   0  0  0  0  0  0  0  0  0  0  0  0
  190.1500  177.4870  147.2860 C   0  0  0  0  0  0  0  0  0  0  0  0
  189.4390  177.7110  146.1030 C   0  0  0  0  0  3  0  0  0  0  0  0
  189.9010  177.1980  144.8810 C   0  0  0  0  0  0  0  0  0  0  0  0
  191.7880  176.2040  146.0540 C   0  0  0  0  0  3  0  0  0  0  0  0
  191.0850  176.4330  144.8650 C   0  0  0  0  0  0  0  0  0  0  0  0
  191.3230  176.7310  147.2610 C   0  0  0  0  0  3  0  0  0  0  0  0
  189.6390  178.0270  148.5780 C   0  0  0  0  0  2  0  0  0  0  0  0
  187.4130  177.4480  148.9860 C   0  0  0  0  0  1  0  0  0  0  0  0
  188.2670  178.4790  148.4210 N   0  0  0  0  0  2  0  0  0  0  0  0
  182.2050  177.9380  138.7010 S   0  0  0  0  0  0  0  0  0  0  0  0
  183.4690  178.2670  139.2900 C   0  0  0  0  0  0  0  0  0  0  0  0
  184.5300  178.9060  138.4390 C   0  0  0  0  0  2  0  0  0  0  0  0
  185.7710  178.0320  138.3280 C   0  0  0  0  0  2  0  0  0  0  0  0
  186.0660  177.7110  136.8990 C   0  0  0  0  0  3  0  0  0  0  0  0
  185.1480  177.1070  136.1520 C   0  0  0  0  0  2  0  0  0  0  0  0
  1  4  2  0  0  0  0
  2 11  1  0  0  0  0
  5 10  1  0  0  0  0
  5  6  1  1  0  0  0
  7 14  1  6  0  0  0
  7  5  1  0  0  0  0
  8  3  1  6  0  0  0
  8 10  1  0  0  0  0
  9  4  1  6  0  0  0
  9  7  1  0  0  0  0
  9  8  1  0  0  0  0
 10  6  1  1  0  0  0
 11  3  1  1  0  0  0
 12 30  1  6  0  0  0
 12  2  1  0  0  0  0
 12 13  1  0  0  0  0
 12 11  1  0  0  0  0
 13  4  1  0  0  0  0
 13 11  1  0  0  0  0
 14 16  1  6  0  0  0
 15 14  1  0  0  0  0
 15 18  1  1  0  0  0
 16 15  1  0  0  0  0
 17 18  1  0  0  0  0
 18 22  1  0  0  0  0
 19 24  1  0  0  0  0
 20 26  1  0  0  0  0
 21 20  2  0  0  0  0
 22 21  1  0  0  0  0
 23 25  2  0  0  0  0
 24 22  2  0  0  0  0
 24 23  1  0  0  0  0
 25 20  1  0  0  0  0
 28 26  1  0  0  0  0
 28 27  1  0  0  0  0
 29 30  2  0  0  0  0
 31 30  1  0  0  0  0
 32 31  1  0  0  0  0
 33 32  1  0  0  0  0
 34 33  2  0  0  0  0
M  END
>  <MODEL>
4

>  <REMARK>
 VINA RESULT:      -6.7      4.379      6.422
  Name = 
  9 active torsions:
  status: ('A' for Active; 'I' for Inactive)
    1  A    between atoms: C_3  and  C_24
    2  A    between atoms: C_7  and  C_15
    3  A    between atoms: C_8  and  C_17
    4  A    between atoms: C_15  and  N_21
    5  A    between atoms: C_16  and  N_31
    6  A    between atoms: C_18  and  N_31
    7  A    between atoms: C_24  and  C_25
    8  A    between atoms: C_25  and  C_27
    9  A    between atoms: C_27  and  C_33
                            x       y       z     vdW  Elec       q    Type
                         _______ _______ _______ _____ _____    ______ ____

>  <TORSDO>
F 9

$$$$
=
 OpenBabel11052415443D

 34 40  0  0  1  0  0  0  0  0999 V2000
  187.7880  176.0050  143.7240 O   0  0  0  0  0  0  0  0  0  0  0  0
  186.8440  179.1690  146.6100 O   0  0  0  0  0  0  0  0  0  0  0  0
  185.3140  179.1970  144.7340 C   0  0  0  0  0  2  0  0  0  0  0  0
  186.9400  176.8870  144.0190 C   0  0  0  0  0  0  0  0  0  0  0  0
  185.2680  179.0030  141.3490 C   0  0  2  0  0  3  0  0  0  0  0  0
  184.0460  178.2990  141.3330 O   0  0  0  0  0  0  0  0  0  0  0  0
  186.4220  178.0920  141.7810 C   0  0  2  0  0  3  0  0  0  0  0  0
  184.8120  178.2520  143.6210 C   0  0  2  0  0  3  0  0  0  0  0  0
  185.9130  177.3570  143.0240 C   0  0  2  0  0  3  0  0  0  0  0  0
  184.2940  179.1010  142.4660 C   0  0  1  0  0  3  0  0  0  0  0  0
  185.9470  178.4000  145.8800 C   0  0  1  0  0  0  0  0  0  0  0  0
  187.8160  178.3140  146.1050 C   0  0  1  0  0  0  0  0  0  0  0  0
  186.9190  177.4750  145.3070 N   0  0  0  0  0  0  0  0  0  0  0  0
  187.6460  178.9830  142.0510 C   0  0  2  0  0  3  0  0  0  0  0  0
  188.6580  179.0910  140.8910 C   0  0  1  0  0  3  0  0  0  0  0  0
  188.9100  178.1520  142.0580 C   0  0  0  0  0  2  0  0  0  0  0  0
  187.0780  178.6270  139.1080 O   0  0  0  0  0  1  0  0  0  0  0  0
  188.2660  178.3390  139.6930 N   0  0  0  0  0  0  0  0  0  0  0  0
  187.3320  176.2110  137.9880 F   0  0  0  0  0  0  0  0  0  0  0  0
  191.4160  176.6160  138.6500 C   0  0  0  0  0  0  0  0  0  0  0  0
  190.5270  177.5030  139.2640 C   0  0  0  0  0  3  0  0  0  0  0  0
  189.1460  177.4060  139.0370 C   0  0  0  0  0  0  0  0  0  0  0  0
  189.5550  175.4930  137.5890 C   0  0  0  0  0  3  0  0  0  0  0  0
  188.6620  176.3840  138.1940 C   0  0  0  0  0  0  0  0  0  0  0  0
  190.9290  175.6090  137.8150 C   0  0  0  0  0  3  0  0  0  0  0  0
  192.8790  176.7240  138.9120 C   0  0  0  0  0  2  0  0  0  0  0  0
  194.4170  175.2070  138.0220 C   0  0  0  0  0  1  0  0  0  0  0  0
  193.6260  176.3860  137.7120 N   0  0  0  0  0  2  0  0  0  0  0  0
  188.2410  177.8790  148.5620 S   0  0  0  0  0  0  0  0  0  0  0  0
  188.4860  177.5190  147.1970 C   0  0  0  0  0  0  0  0  0  0  0  0
  189.4740  176.4300  146.8910 C   0  0  0  0  0  2  0  0  0  0  0  0
  190.5330  176.8890  145.8980 C   0  0  0  0  0  2  0  0  0  0  0  0
  191.8780  176.3610  146.2790 C   0  0  0  0  0  3  0  0  0  0  0  0
  192.0590  175.8060  147.4730 C   0  0  0  0  0  2  0  0  0  0  0  0
  1  4  2  0  0  0  0
  4 13  1  0  0  0  0
  5  6  1  6  0  0  0
  5  7  1  0  0  0  0
  5 10  1  0  0  0  0
  7 14  1  1  0  0  0
  7  9  1  0  0  0  0
  8  3  1  1  0  0  0
  9  8  1  0  0  0  0
  9  4  1  1  0  0  0
 10  6  1  6  0  0  0
 10  8  1  0  0  0  0
 11  3  1  6  0  0  0
 11 12  1  0  0  0  0
 11  2  1  0  0  0  0
 12  2  1  0  0  0  0
 12 30  1  1  0  0  0
 13 11  1  0  0  0  0
 13 12  1  0  0  0  0
 14 16  1  1  0  0  0
 15 18  1  6  0  0  0
 15 14  1  0  0  0  0
 15 16  1  0  0  0  0
 17 18  1  0  0  0  0
 19 24  1  0  0  0  0
 20 26  1  0  0  0  0
 20 21  1  0  0  0  0
 22 21  2  0  0  0  0
 22 18  1  0  0  0  0
 23 25  1  0  0  0  0
 23 24  2  0  0  0  0
 24 22  1  0  0  0  0
 25 20  2  0  0  0  0
 28 27  1  0  0  0  0
 28 26  1  0  0  0  0
 30 29  2  0  0  0  0
 31 30  1  0  0  0  0
 32 33  1  0  0  0  0
 32 31  1  0  0  0  0
 33 34  2  0  0  0  0
M  END
>  <MODEL>
5

>  <REMARK>
 VINA RESULT:      -6.6      3.468      8.101
  Name = 
  9 active torsions:
  status: ('A' for Active; 'I' for Inactive)
    1  A    between atoms: C_3  and  C_24
    2  A    between atoms: C_7  and  C_15
    3  A    between atoms: C_8  and  C_17
    4  A    between atoms: C_15  and  N_21
    5  A    between atoms: C_16  and  N_31
    6  A    between atoms: C_18  and  N_31
    7  A    between atoms: C_24  and  C_25
    8  A    between atoms: C_25  and  C_27
    9  A    between atoms: C_27  and  C_33
                            x       y       z     vdW  Elec       q    Type
                         _______ _______ _______ _____ _____    ______ ____

>  <TORSDO>
F 9

$$$$
=
 OpenBabel11052415443D

 34 40  0  0  1  0  0  0  0  0999 V2000
  187.6930  175.8490  143.2230 O   0  0  0  0  0  0  0  0  0  0  0  0
  189.7690  178.3410  146.1730 O   0  0  0  0  0  0  0  0  0  0  0  0
  187.3670  178.5980  146.3320 C   0  0  0  0  0  2  0  0  0  0  0  0
  187.5170  176.5930  144.2230 C   0  0  0  0  0  0  0  0  0  0  0  0
  184.6150  179.0300  144.3990 C   0  0  2  0  0  3  0  0  0  0  0  0
  183.8050  178.2490  145.2490 O   0  0  0  0  0  0  0  0  0  0  0  0
  185.5490  178.1480  143.5650 C   0  0  2  0  0  3  0  0  0  0  0  0
  186.0820  177.8390  145.9360 C   0  0  2  0  0  3  0  0  0  0  0  0
  186.1640  177.1580  144.5580 C   0  0  2  0  0  3  0  0  0  0  0  0
  184.9410  178.8440  145.8360 C   0  0  1  0  0  3  0  0  0  0  0  0
  188.5740  177.6540  146.3430 C   0  0  1  0  0  0  0  0  0  0  0  0
  189.8520  177.6730  144.9590 C   0  0  1  0  0  0  0  0  0  0  0  0
  188.5960  176.9290  145.0770 N   0  0  0  0  0  0  0  0  0  0  0  0
  186.5820  179.0650  142.8900 C   0  0  2  0  0  3  0  0  0  0  0  0
  186.2330  179.5200  141.4580 C   0  0  1  0  0  3  0  0  0  0  0  0
  187.2000  178.3730  141.6950 C   0  0  0  0  0  2  0  0  0  0  0  0
  183.8170  179.3740  141.6500 O   0  0  0  0  0  1  0  0  0  0  0  0
  184.9390  179.0180  140.9780 N   0  0  0  0  0  0  0  0  0  0  0  0
  182.8020  177.1470  140.4930 F   0  0  0  0  0  0  0  0  0  0  0  0
  185.6690  177.7380  137.5420 C   0  0  0  0  0  0  0  0  0  0  0  0
  185.7660  178.4390  138.7470 C   0  0  0  0  0  3  0  0  0  0  0  0
  184.7980  178.2790  139.7500 C   0  0  0  0  0  0  0  0  0  0  0  0
  183.6440  176.6750  138.3290 C   0  0  0  0  0  3  0  0  0  0  0  0
  183.7320  177.3810  139.5330 C   0  0  0  0  0  0  0  0  0  0  0  0
  184.6090  176.8530  137.3340 C   0  0  0  0  0  3  0  0  0  0  0  0
  186.7120  177.9090  136.4920 C   0  0  0  0  0  2  0  0  0  0  0  0
  188.9360  178.5290  136.8490 C   0  0  0  0  0  1  0  0  0  0  0  0
  187.5730  179.0320  136.8230 N   0  0  0  0  0  2  0  0  0  0  0  0
  191.6820  176.3800  146.1380 S   0  0  0  0  0  0  0  0  0  0  0  0
  191.0380  176.7440  144.9100 C   0  0  0  0  0  0  0  0  0  0  0  0
  191.6210  176.2710  143.6090 C   0  0  0  0  0  2  0  0  0  0  0  0
  191.4620  177.3090  142.5060 C   0  0  0  0  0  2  0  0  0  0  0  0
  190.5710  176.7960  141.4220 C   0  0  0  0  0  3  0  0  0  0  0  0
  190.8110  177.1230  140.1570 C   0  0  0  0  0  2  0  0  0  0  0  0
  1  4  2  0  0  0  0
  2 11  1  0  0  0  0
  4 13  1  0  0  0  0
  5  6  1  1  0  0  0
  5 10  1  0  0  0  0
  7 14  1  1  0  0  0
  7  5  1  0  0  0  0
  7  9  1  0  0  0  0
  8  3  1  6  0  0  0
  9  4  1  6  0  0  0
  9  8  1  0  0  0  0
 10  6  1  1  0  0  0
 10  8  1  0  0  0  0
 11  3  1  6  0  0  0
 12 30  1  1  0  0  0
 12 13  1  0  0  0  0
 12  2  1  0  0  0  0
 12 11  1  0  0  0  0
 13 11  1  0  0  0  0
 14 16  1  6  0  0  0
 15 18  1  6  0  0  0
 15 16  1  0  0  0  0
 15 14  1  0  0  0  0
 18 17  1  0  0  0  0
 20 21  1  0  0  0  0
 21 22  2  0  0  0  0
 22 18  1  0  0  0  0
 23 24  2  0  0  0  0
 24 22  1  0  0  0  0
 24 19  1  0  0  0  0
 25 20  2  0  0  0  0
 25 23  1  0  0  0  0
 26 28  1  0  0  0  0
 26 20  1  0  0  0  0
 28 27  1  0  0  0  0
 30 29  2  0  0  0  0
 31 30  1  0  0  0  0
 32 31  1  0  0  0  0
 33 32  1  0  0  0  0
 34 33  2  0  0  0  0
M  END
>  <MODEL>
6

>  <REMARK>
 VINA RESULT:      -6.5      3.809      7.348
  Name = 
  9 active torsions:
  status: ('A' for Active; 'I' for Inactive)
    1  A    between atoms: C_3  and  C_24
    2  A    between atoms: C_7  and  C_15
    3  A    between atoms: C_8  and  C_17
    4  A    between atoms: C_15  and  N_21
    5  A    between atoms: C_16  and  N_31
    6  A    between atoms: C_18  and  N_31
    7  A    between atoms: C_24  and  C_25
    8  A    between atoms: C_25  and  C_27
    9  A    between atoms: C_27  and  C_33
                            x       y       z     vdW  Elec       q    Type
                         _______ _______ _______ _____ _____    ______ ____

>  <TORSDO>
F 9

$$$$
=
 OpenBabel11052415443D

 34 40  0  0  1  0  0  0  0  0999 V2000
  185.3890  179.8900  142.2770 O   0  0  0  0  0  0  0  0  0  0  0  0
  188.1430  176.5190  142.8010 O   0  0  0  0  0  0  0  0  0  0  0  0
  187.9880  177.1820  140.4780 C   0  0  0  0  0  2  0  0  0  0  0  0
  186.2380  179.1750  141.6850 C   0  0  0  0  0  0  0  0  0  0  0  0
  185.7130  178.0210  138.1090 C   0  0  2  0  0  3  0  0  0  0  0  0
  186.5740  178.9650  137.5110 O   0  0  0  0  0  0  0  0  0  0  0  0
  185.1330  178.5590  139.4210 C   0  0  2  0  0  3  0  0  0  0  0  0
  187.5690  178.4070  139.6380 C   0  0  2  0  0  3  0  0  0  0  0  0
  186.3280  179.1380  140.1830 C   0  0  2  0  0  3  0  0  0  0  0  0
  187.1890  177.9270  138.2430 C   0  0  1  0  0  3  0  0  0  0  0  0
  188.2790  177.5890  141.9270 C   0  0  1  0  0  0  0  0  0  0  0  0
  187.0610  177.2210  143.3170 C   0  0  1  0  0  0  0  0  0  0  0  0
  187.1480  178.3710  142.4150 N   0  0  0  0  0  0  0  0  0  0  0  0
  184.4490  177.3880  140.1460 C   0  0  2  0  0  3  0  0  0  0  0  0
  182.9990  177.0930  139.7080 C   0  0  1  0  0  3  0  0  0  0  0  0
  183.2830  177.8880  140.9700 C   0  0  0  0  0  2  0  0  0  0  0  0
  182.7320  177.6040  137.3510 O   0  0  0  0  0  1  0  0  0  0  0  0
  182.5140  177.9710  138.6370 N   0  0  0  0  0  0  0  0  0  0  0  0
  180.0050  177.8720  140.0520 F   0  0  0  0  0  0  0  0  0  0  0  0
  181.3630  181.5280  138.6150 C   0  0  0  0  0  0  0  0  0  0  0  0
  182.1230  180.3760  138.3950 C   0  0  0  0  0  3  0  0  0  0  0  0
  181.7020  179.1330  138.8910 C   0  0  0  0  0  0  0  0  0  0  0  0
  179.7240  180.2120  139.8120 C   0  0  0  0  0  3  0  0  0  0  0  0
  180.4860  179.0570  139.6010 C   0  0  0  0  0  0  0  0  0  0  0  0
  180.1620  181.4450  139.3210 C   0  0  0  0  0  3  0  0  0  0  0  0
  181.8170  182.8390  138.0700 C   0  0  0  0  0  2  0  0  0  0  0  0
  181.2150  184.8010  136.9540 C   0  0  0  0  0  1  0  0  0  0  0  0
  180.6990  183.5420  137.4660 N   0  0  0  0  0  2  0  0  0  0  0  0
  186.1520  177.9090  145.5780 S   0  0  0  0  0  0  0  0  0  0  0  0
  187.2890  177.6280  144.7500 C   0  0  0  0  0  0  0  0  0  0  0  0
  188.6690  177.8430  145.3030 C   0  0  0  0  0  2  0  0  0  0  0  0
  188.8930  177.0590  146.5880 C   0  0  0  0  0  2  0  0  0  0  0  0
  189.1620  177.9820  147.7310 C   0  0  0  0  0  3  0  0  0  0  0  0
  188.2810  178.0870  148.7200 C   0  0  0  0  0  2  0  0  0  0  0  0
  2 12  1  0  0  0  0
  4  1  2  0  0  0  0
  4 13  1  0  0  0  0
  5  6  1  6  0  0  0
  5 10  1  0  0  0  0
  5  7  1  0  0  0  0
  7 14  1  1  0  0  0
  7  9  1  0  0  0  0
  8  9  1  0  0  0  0
  8  3  1  1  0  0  0
  9  4  1  1  0  0  0
 10  6  1  6  0  0  0
 10  8  1  0  0  0  0
 11  3  1  6  0  0  0
 11 13  1  0  0  0  0
 11  2  1  0  0  0  0
 11 12  1  0  0  0  0
 12 30  1  1  0  0  0
 13 12  1  0  0  0  0
 14 16  1  1  0  0  0
 15 18  1  6  0  0  0
 15 14  1  0  0  0  0
 15 16  1  0  0  0  0
 17 18  1  0  0  0  0
 18 22  1  0  0  0  0
 20 25  1  0  0  0  0
 21 20  2  0  0  0  0
 21 22  1  0  0  0  0
 22 24  2  0  0  0  0
 24 23  1  0  0  0  0
 24 19  1  0  0  0  0
 25 23  2  0  0  0  0
 26 20  1  0  0  0  0
 27 28  1  0  0  0  0
 28 26  1  0  0  0  0
 30 31  1  0  0  0  0
 30 29  2  0  0  0  0
 31 32  1  0  0  0  0
 32 33  1  0  0  0  0
 33 34  2  0  0  0  0
M  END
>  <MODEL>
7

>  <REMARK>
 VINA RESULT:      -6.3      5.223      8.474
  Name = 
  9 active torsions:
  status: ('A' for Active; 'I' for Inactive)
    1  A    between atoms: C_3  and  C_24
    2  A    between atoms: C_7  and  C_15
    3  A    between atoms: C_8  and  C_17
    4  A    between atoms: C_15  and  N_21
    5  A    between atoms: C_16  and  N_31
    6  A    between atoms: C_18  and  N_31
    7  A    between atoms: C_24  and  C_25
    8  A    between atoms: C_25  and  C_27
    9  A    between atoms: C_27  and  C_33
                            x       y       z     vdW  Elec       q    Type
                         _______ _______ _______ _____ _____    ______ ____

>  <TORSDO>
F 9

$$$$
=
 OpenBabel11052415443D

 34 40  0  0  1  0  0  0  0  0999 V2000
  186.2360  179.7520  141.5180 O   0  0  0  0  0  0  0  0  0  0  0  0
  182.2450  177.9370  141.4540 O   0  0  0  0  0  0  0  0  0  0  0  0
  182.9460  178.4520  143.7130 C   0  0  0  0  0  2  0  0  0  0  0  0
  185.2350  179.4800  142.2310 C   0  0  0  0  0  0  0  0  0  0  0  0
  185.6210  178.1930  145.7800 C   0  0  2  0  0  3  0  0  0  0  0  0
  185.3360  179.4160  146.4230 O   0  0  0  0  0  0  0  0  0  0  0  0
  186.2180  178.4290  144.3890 C   0  0  2  0  0  3  0  0  0  0  0  0
  183.9540  179.3640  144.4440 C   0  0  2  0  0  3  0  0  0  0  0  0
  185.3160  179.4780  143.7340 C   0  0  2  0  0  3  0  0  0  0  0  0
  184.2480  178.7580  145.8110 C   0  0  1  0  0  3  0  0  0  0  0  0
  182.6940  178.9530  142.2870 C   0  0  1  0  0  0  0  0  0  0  0  0
  183.4550  178.0950  140.7920 C   0  0  1  0  0  0  0  0  0  0  0  0
  183.9870  179.1610  141.6430 N   0  0  0  0  0  0  0  0  0  0  0  0
  186.2320  177.0800  143.6500 C   0  0  2  0  0  3  0  0  0  0  0  0
  187.5160  176.2420  143.8200 C   0  0  1  0  0  3  0  0  0  0  0  0
  187.2940  177.0800  142.5730 C   0  0  0  0  0  2  0  0  0  0  0  0
  188.3640  176.7520  146.0360 O   0  0  0  0  0  1  0  0  0  0  0  0
  188.5170  176.8660  144.6950 N   0  0  0  0  0  0  0  0  0  0  0  0
  189.8960  179.0060  146.0440 F   0  0  0  0  0  0  0  0  0  0  0  0
  191.4020  177.6020  142.4330 C   0  0  0  0  0  0  0  0  0  0  0  0
  190.2370  177.0360  142.9600 C   0  0  0  0  0  3  0  0  0  0  0  0
  189.7210  177.4730  144.1900 C   0  0  0  0  0  0  0  0  0  0  0  0
  191.5450  179.0770  144.3430 C   0  0  0  0  0  3  0  0  0  0  0  0
  190.3850  178.5090  144.8800 C   0  0  0  0  0  0  0  0  0  0  0  0
  192.0540  178.6250  143.1230 C   0  0  0  0  0  3  0  0  0  0  0  0
  191.9290  177.1360  141.1190 C   0  0  0  0  0  2  0  0  0  0  0  0
  191.4160  176.6880  138.8840 C   0  0  0  0  0  1  0  0  0  0  0  0
  190.9490  177.3790  140.0740 N   0  0  0  0  0  2  0  0  0  0  0  0
  183.4140  177.6270  138.3040 S   0  0  0  0  0  0  0  0  0  0  0  0
  183.2620  178.5690  139.3740 C   0  0  0  0  0  0  0  0  0  0  0  0
  183.0130  180.0140  139.0490 C   0  0  0  0  0  2  0  0  0  0  0  0
  181.5250  180.3320  138.9820 C   0  0  0  0  0  2  0  0  0  0  0  0
  181.1720  180.9340  137.6620 C   0  0  0  0  0  3  0  0  0  0  0  0
  180.8060  180.1510  136.6520 C   0  0  0  0  0  2  0  0  0  0  0  0
  1  4  2  0  0  0  0
  2 11  1  0  0  0  0
  5 10  1  0  0  0  0
  5  6  1  1  0  0  0
  7 14  1  6  0  0  0
  7  5  1  0  0  0  0
  8  3  1  6  0  0  0
  8 10  1  0  0  0  0
  9  4  1  6  0  0  0
  9  7  1  0  0  0  0
  9  8  1  0  0  0  0
 10  6  1  1  0  0  0
 11  3  1  1  0  0  0
 12 30  1  6  0  0  0
 12  2  1  0  0  0  0
 12 13  1  0  0  0  0
 12 11  1  0  0  0  0
 13  4  1  0  0  0  0
 13 11  1  0  0  0  0
 14 16  1  6  0  0  0
 14 15  1  0  0  0  0
 15 18  1  1  0  0  0
 16 15  1  0  0  0  0
 18 17  1  0  0  0  0
 20 21  2  0  0  0  0
 20 25  1  0  0  0  0
 21 22  1  0  0  0  0
 22 18  1  0  0  0  0
 22 24  2  0  0  0  0
 23 24  1  0  0  0  0
 24 19  1  0  0  0  0
 25 23  2  0  0  0  0
 26 20  1  0  0  0  0
 27 28  1  0  0  0  0
 28 26  1  0  0  0  0
 29 30  2  0  0  0  0
 31 30  1  0  0  0  0
 32 31  1  0  0  0  0
 33 32  1  0  0  0  0
 34 33  2  0  0  0  0
M  END
>  <MODEL>
8

>  <REMARK>
 VINA RESULT:      -6.2      3.619      7.793
  Name = 
  9 active torsions:
  status: ('A' for Active; 'I' for Inactive)
    1  A    between atoms: C_3  and  C_24
    2  A    between atoms: C_7  and  C_15
    3  A    between atoms: C_8  and  C_17
    4  A    between atoms: C_15  and  N_21
    5  A    between atoms: C_16  and  N_31
    6  A    between atoms: C_18  and  N_31
    7  A    between atoms: C_24  and  C_25
    8  A    between atoms: C_25  and  C_27
    9  A    between atoms: C_27  and  C_33
                            x       y       z     vdW  Elec       q    Type
                         _______ _______ _______ _____ _____    ______ ____

>  <TORSDO>
F 9

$$$$
=
 OpenBabel11052415443D

 34 40  0  0  1  0  0  0  0  0999 V2000
  183.0410  176.0360  138.7530 O   0  0  0  0  0  0  0  0  0  0  0  0
  180.0950  174.8330  135.7360 O   0  0  0  0  0  0  0  0  0  0  0  0
  180.2890  177.2430  135.8720 C   0  0  0  0  0  2  0  0  0  0  0  0
  182.3070  176.4670  137.8260 C   0  0  0  0  0  0  0  0  0  0  0  0
  180.4530  179.7640  138.1330 C   0  0  2  0  0  3  0  0  0  0  0  0
  181.3410  180.5180  137.3370 O   0  0  0  0  0  0  0  0  0  0  0  0
  181.1750  178.5880  138.7990 C   0  0  2  0  0  3  0  0  0  0  0  0
  181.2900  178.3080  136.3680 C   0  0  2  0  0  3  0  0  0  0  0  0
  181.9940  177.9320  137.6840 C   0  0  2  0  0  3  0  0  0  0  0  0
  180.5210  179.5920  136.6590 C   0  0  1  0  0  3  0  0  0  0  0  0
  180.9880  175.8950  135.6640 C   0  0  1  0  0  0  0  0  0  0  0  0
  180.7810  174.4790  136.8910 C   0  0  1  0  0  0  0  0  0  0  0  0
  181.7420  175.5840  136.8740 N   0  0  0  0  0  0  0  0  0  0  0  0
  180.1050  177.6630  139.4030 C   0  0  2  0  0  3  0  0  0  0  0  0
  179.7460  177.9370  140.8780 C   0  0  1  0  0  3  0  0  0  0  0  0
  180.7020  176.8170  140.5060 C   0  0  0  0  0  2  0  0  0  0  0  0
  179.9210  180.3050  141.3820 O   0  0  0  0  0  1  0  0  0  0  0  0
  180.4740  179.0700  141.4630 N   0  0  0  0  0  0  0  0  0  0  0  0
  180.5040  178.9300  144.3420 F   0  0  0  0  0  0  0  0  0  0  0  0
  184.1040  178.6970  142.2770 C   0  0  0  0  0  0  0  0  0  0  0  0
  182.9100  178.8510  141.5650 C   0  0  0  0  0  3  0  0  0  0  0  0
  181.6790  178.9060  142.2350 C   0  0  0  0  0  0  0  0  0  0  0  0
  182.8600  178.6790  144.3510 C   0  0  0  0  0  3  0  0  0  0  0  0
  181.6620  178.8240  143.6430 C   0  0  0  0  0  0  0  0  0  0  0  0
  184.0790  178.6140  143.6700 C   0  0  0  0  0  3  0  0  0  0  0  0
  185.4050  178.6540  141.5520 C   0  0  0  0  0  2  0  0  0  0  0  0
  185.6900  178.4520  139.2410 C   0  0  0  0  0  1  0  0  0  0  0  0
  185.3000  179.3740  140.2950 N   0  0  0  0  0  2  0  0  0  0  0  0
  180.8050  171.9680  137.2160 S   0  0  0  0  0  0  0  0  0  0  0  0
  181.4710  173.1470  136.7460 C   0  0  0  0  0  0  0  0  0  0  0  0
  182.8720  173.0350  136.2160 C   0  0  0  0  0  2  0  0  0  0  0  0
  183.8120  172.3960  137.2300 C   0  0  0  0  0  2  0  0  0  0  0  0
  184.9140  173.3370  137.5950 C   0  0  0  0  0  3  0  0  0  0  0  0
  186.1750  172.9200  137.5760 C   0  0  0  0  0  2  0  0  0  0  0  0
  2 12  1  0  0  0  0
  4  1  2  0  0  0  0
  5  6  1  6  0  0  0
  5  7  1  0  0  0  0
  7 14  1  6  0  0  0
  8  3  1  1  0  0  0
  8 10  1  0  0  0  0
  8  9  1  0  0  0  0
  9  4  1  1  0  0  0
  9  7  1  0  0  0  0
 10  6  1  6  0  0  0
 10  5  1  0  0  0  0
 11  2  1  0  0  0  0
 11  3  1  1  0  0  0
 11 13  1  0  0  0  0
 11 12  1  0  0  0  0
 12 30  1  6  0  0  0
 13 12  1  0  0  0  0
 13  4  1  0  0  0  0
 14 16  1  1  0  0  0
 14 15  1  0  0  0  0
 15 18  1  1  0  0  0
 16 15  1  0  0  0  0
 17 18  1  0  0  0  0
 18 22  1  0  0  0  0
 20 25  1  0  0  0  0
 21 22  1  0  0  0  0
 21 20  2  0  0  0  0
 22 24  2  0  0  0  0
 24 19  1  0  0  0  0
 24 23  1  0  0  0  0
 25 23  2  0  0  0  0
 26 20  1  0  0  0  0
 27 28  1  0  0  0  0
 28 26  1  0  0  0  0
 30 29  2  0  0  0  0
 31 30  1  0  0  0  0
 31 32  1  0  0  0  0
 32 33  1  0  0  0  0
 34 33  2  0  0  0  0
M  END
>  <MODEL>
9

>  <REMARK>
 VINA RESULT:      -6.2      6.387      8.836
  Name = 
  9 active torsions:
  status: ('A' for Active; 'I' for Inactive)
    1  A    between atoms: C_3  and  C_24
    2  A    between atoms: C_7  and  C_15
    3  A    between atoms: C_8  and  C_17
    4  A    between atoms: C_15  and  N_21
    5  A    between atoms: C_16  and  N_31
    6  A    between atoms: C_18  and  N_31
    7  A    between atoms: C_24  and  C_25
    8  A    between atoms: C_25  and  C_27
    9  A    between atoms: C_27  and  C_33
                            x       y       z     vdW  Elec       q    Type
                         _______ _______ _______ _____ _____    ______ ____

>  <TORSDO>
F 9

$$$$
