=
 OpenBabel11052413473D

 27 31  0  0  1  0  0  0  0  0999 V2000
  189.0720  176.0360  143.2060 N   0  0  0  0  0  2  0  0  0  0  0  0
  188.1030  177.6260  141.6270 C   0  0  0  0  0  0  0  0  0  0  0  0
  190.3150  177.0250  140.7260 N   0  0  0  0  0  2  0  0  0  0  0  0
  186.7560  178.5530  137.6910 C   0  0  0  0  0  3  0  0  0  0  0  0
  187.5670  178.2540  136.5920 C   0  0  0  0  0  0  0  0  0  0  0  0
  186.6300  177.9130  141.3960 C   0  0  0  0  0  2  0  0  0  0  0  0
  189.2610  177.3710  138.0800 C   0  0  0  0  0  3  0  0  0  0  0  0
  191.6710  178.3850  143.9780 C   0  0  0  0  0  0  0  0  0  0  0  0
  188.8170  177.6600  136.7860 C   0  0  0  0  0  3  0  0  0  0  0  0
  192.0860  179.4510  144.5020 O   0  0  0  0  0  0  0  0  0  0  0  0
  188.4520  177.6620  139.1880 C   0  0  0  0  0  0  0  0  0  0  0  0
  188.5810  177.4000  143.0430 C   0  0  1  0  0  3  0  0  0  0  0  0
  187.1290  178.5480  135.3080 O   0  0  0  0  0  1  0  0  0  0  0  0
  187.1950  178.2480  138.9840 C   0  0  0  0  0  0  0  0  0  0  0  0
  190.5190  175.9480  142.9610 C   0  0  2  0  0  3  0  0  0  0  0  0
  188.9400  177.4350  140.5700 C   0  0  0  0  0  0  0  0  0  0  0  0
  191.3330  178.3740  142.5180 C   0  0  0  0  0  2  0  0  0  0  0  0
  186.3780  178.5510  140.1090 N   0  0  0  0  0  2  0  0  0  0  0  0
  191.4330  177.2720  144.7900 O   0  0  0  0  0  0  0  0  0  0  0  0
  191.3100  175.9560  144.2620 C   0  0  0  0  0  2  0  0  0  0  0  0
  191.1000  176.9650  141.9560 C   0  0  2  0  0  3  0  0  0  0  0  0
  185.8170  178.4480  146.1680 C   0  0  0  0  0  3  0  0  0  0  0  0
  187.6010  177.7570  144.1220 C   0  0  0  0  0  0  0  0  0  0  0  0
  188.0050  177.6910  145.4590 C   0  0  0  0  0  3  0  0  0  0  0  0
  187.1140  178.0330  146.4810 C   0  0  0  0  0  3  0  0  0  0  0  0
  185.4090  178.5220  144.8330 C   0  0  0  0  0  3  0  0  0  0  0  0
  186.2990  178.1800  143.8100 C   0  0  0  0  0  3  0  0  0  0  0  0
  2 12  1  0  0  0  0
  3 21  1  0  0  0  0
  4 14  1  0  0  0  0
  5  9  1  0  0  0  0
  5  4  2  0  0  0  0
  6  2  1  0  0  0  0
  7 11  1  0  0  0  0
  8 10  2  0  0  0  0
  8 19  1  0  0  0  0
  9  7  2  0  0  0  0
 11 16  1  0  0  0  0
 12  1  1  0  0  0  0
 12 23  1  1  0  0  0
 13  5  1  0  0  0  0
 14 11  2  0  0  0  0
 14 18  1  0  0  0  0
 15  1  1  0  0  0  0
 15 20  1  1  0  0  0
 16  3  1  0  0  0  0
 16  2  2  0  0  0  0
 17  8  1  0  0  0  0
 18  6  1  0  0  0  0
 20 19  1  0  0  0  0
 21 17  1  1  0  0  0
 21 15  1  0  0  0  0
 22 25  1  0  0  0  0
 23 24  1  0  0  0  0
 24 25  2  0  0  0  0
 26 22  2  0  0  0  0
 27 23  2  0  0  0  0
 27 26  1  0  0  0  0
M  END
>  <MODEL>
1

>  <REMARK>
 VINA RESULT:      -9.2      0.000      0.000
  Name = 
  1 active torsions:
  status: ('A' for Active; 'I' for Inactive)
    1  A    between atoms: C_9  and  C_15
                            x       y       z     vdW  Elec       q    Type
                         _______ _______ _______ _____ _____    ______ ____

>  <TORSDO>
F 1

$$$$
=
 OpenBabel11052413473D

 27 31  0  0  1  0  0  0  0  0999 V2000
  188.7280  176.1040  143.8620 N   0  0  0  0  0  2  0  0  0  0  0  0
  187.1540  177.8780  143.2840 C   0  0  0  0  0  0  0  0  0  0  0  0
  188.5650  177.5370  141.2940 N   0  0  0  0  0  2  0  0  0  0  0  0
  184.0210  179.3600  140.8030 C   0  0  0  0  0  3  0  0  0  0  0  0
  184.1420  179.2810  139.4130 C   0  0  0  0  0  0  0  0  0  0  0  0
  185.7850  178.1270  143.8900 C   0  0  0  0  0  2  0  0  0  0  0  0
  186.3210  178.2530  139.6570 C   0  0  0  0  0  3  0  0  0  0  0  0
  191.4510  178.4200  143.5660 C   0  0  0  0  0  0  0  0  0  0  0  0
  185.2880  178.7250  138.8400 C   0  0  0  0  0  3  0  0  0  0  0  0
  192.1200  179.4070  143.9690 O   0  0  0  0  0  0  0  0  0  0  0  0
  186.2060  178.3230  141.0530 C   0  0  0  0  0  0  0  0  0  0  0  0
  188.2800  177.4510  144.1970 C   0  0  1  0  0  3  0  0  0  0  0  0
  183.1210  179.7560  138.6010 O   0  0  0  0  0  1  0  0  0  0  0  0
  185.0470  178.8720  141.6200 C   0  0  0  0  0  0  0  0  0  0  0  0
  189.8400  176.1260  142.9010 C   0  0  2  0  0  3  0  0  0  0  0  0
  187.3230  177.9000  141.9330 C   0  0  0  0  0  0  0  0  0  0  0  0
  190.4130  178.6280  142.5050 C   0  0  0  0  0  2  0  0  0  0  0  0
  184.9360  178.9500  143.0360 N   0  0  0  0  0  2  0  0  0  0  0  0
  191.6160  177.1810  144.1910 O   0  0  0  0  0  0  0  0  0  0  0  0
  191.1850  175.9620  143.5950 C   0  0  0  0  0  2  0  0  0  0  0  0
  189.8660  177.3180  141.9200 C   0  0  2  0  0  3  0  0  0  0  0  0
  187.5560  177.8390  148.4200 C   0  0  0  0  0  3  0  0  0  0  0  0
  188.0070  177.5820  145.6670 C   0  0  0  0  0  0  0  0  0  0  0  0
  188.9630  177.1280  146.5820 C   0  0  0  0  0  3  0  0  0  0  0  0
  188.7370  177.2530  147.9560 C   0  0  0  0  0  3  0  0  0  0  0  0
  186.5990  178.2990  147.5100 C   0  0  0  0  0  3  0  0  0  0  0  0
  186.8230  178.1740  146.1360 C   0  0  0  0  0  3  0  0  0  0  0  0
  1 12  1  0  0  0  0
  2  6  1  0  0  0  0
  2 12  1  0  0  0  0
  3 21  1  0  0  0  0
  3 16  1  0  0  0  0
  4 14  1  0  0  0  0
  5  4  2  0  0  0  0
  7 11  1  0  0  0  0
  8 10  2  0  0  0  0
  8 19  1  0  0  0  0
  9  5  1  0  0  0  0
  9  7  2  0  0  0  0
 11 14  2  0  0  0  0
 11 16  1  0  0  0  0
 12 23  1  1  0  0  0
 13  5  1  0  0  0  0
 14 18  1  0  0  0  0
 15 20  1  1  0  0  0
 15  1  1  0  0  0  0
 16  2  2  0  0  0  0
 17  8  1  0  0  0  0
 18  6  1  0  0  0  0
 20 19  1  0  0  0  0
 21 17  1  1  0  0  0
 21 15  1  0  0  0  0
 23 27  2  0  0  0  0
 23 24  1  0  0  0  0
 24 25  2  0  0  0  0
 25 22  1  0  0  0  0
 26 22  2  0  0  0  0
 27 26  1  0  0  0  0
M  END
>  <MODEL>
2

>  <REMARK>
 VINA RESULT:      -9.1      1.924      2.632
  Name = 
  1 active torsions:
  status: ('A' for Active; 'I' for Inactive)
    1  A    between atoms: C_9  and  C_15
                            x       y       z     vdW  Elec       q    Type
                         _______ _______ _______ _____ _____    ______ ____

>  <TORSDO>
F 1

$$$$
=
 OpenBabel11052413473D

 27 31  0  0  1  0  0  0  0  0999 V2000
  188.0070  176.2270  144.4900 N   0  0  0  0  0  2  0  0  0  0  0  0
  186.2870  177.9580  144.5750 C   0  0  0  0  0  0  0  0  0  0  0  0
  186.7490  177.5650  142.1870 N   0  0  0  0  0  2  0  0  0  0  0  0
  182.3670  179.3070  143.5900 C   0  0  0  0  0  3  0  0  0  0  0  0
  181.8990  179.1810  142.2790 C   0  0  0  0  0  0  0  0  0  0  0  0
  185.2890  178.2100  145.6900 C   0  0  0  0  0  2  0  0  0  0  0  0
  184.0080  178.1920  141.6190 C   0  0  0  0  0  3  0  0  0  0  0  0
  190.2940  178.5680  143.0220 C   0  0  0  0  0  0  0  0  0  0  0  0
  182.7160  178.6200  141.2950 C   0  0  0  0  0  3  0  0  0  0  0  0
  191.0430  179.5780  143.0820 O   0  0  0  0  0  0  0  0  0  0  0  0
  184.4840  178.3100  142.9320 C   0  0  0  0  0  0  0  0  0  0  0  0
  187.7030  177.5790  144.9450 C   0  0  1  0  0  3  0  0  0  0  0  0
  180.6200  179.6120  141.9550 O   0  0  0  0  0  1  0  0  0  0  0  0
  183.6520  178.8630  143.9160 C   0  0  0  0  0  0  0  0  0  0  0  0
  188.6160  176.2300  143.1520 C   0  0  2  0  0  3  0  0  0  0  0  0
  185.8770  177.9340  143.2770 C   0  0  0  0  0  0  0  0  0  0  0  0
  188.9030  178.7240  142.4870 C   0  0  0  0  0  2  0  0  0  0  0  0
  184.1400  178.9900  145.2470 N   0  0  0  0  0  2  0  0  0  0  0  0
  190.7390  177.3550  143.5540 O   0  0  0  0  0  0  0  0  0  0  0  0
  190.1320  176.1090  143.2260 C   0  0  0  0  0  2  0  0  0  0  0  0
  188.1990  177.3860  142.2190 C   0  0  2  0  0  3  0  0  0  0  0  0
  188.7900  178.1200  149.0730 C   0  0  0  0  0  3  0  0  0  0  0  0
  188.0630  177.7590  146.3910 C   0  0  0  0  0  0  0  0  0  0  0  0
  189.3950  177.5930  146.7880 C   0  0  0  0  0  3  0  0  0  0  0  0
  189.7580  177.7710  148.1260 C   0  0  0  0  0  3  0  0  0  0  0  0
  187.4590  178.2920  148.6810 C   0  0  0  0  0  3  0  0  0  0  0  0
  187.0950  178.1150  147.3430 C   0  0  0  0  0  3  0  0  0  0  0  0
  1 12  1  0  0  0  0
  2 12  1  0  0  0  0
  2  6  1  0  0  0  0
  3 21  1  0  0  0  0
  3 16  1  0  0  0  0
  4 14  1  0  0  0  0
  5  4  2  0  0  0  0
  7 11  1  0  0  0  0
  8 10  2  0  0  0  0
  8 19  1  0  0  0  0
  9  7  2  0  0  0  0
  9  5  1  0  0  0  0
 11 16  1  0  0  0  0
 11 14  2  0  0  0  0
 12 23  1  1  0  0  0
 13  5  1  0  0  0  0
 14 18  1  0  0  0  0
 15 20  1  1  0  0  0
 15  1  1  0  0  0  0
 16  2  2  0  0  0  0
 17  8  1  0  0  0  0
 18  6  1  0  0  0  0
 20 19  1  0  0  0  0
 21 17  1  1  0  0  0
 21 15  1  0  0  0  0
 23 24  2  0  0  0  0
 23 27  1  0  0  0  0
 24 25  1  0  0  0  0
 25 22  2  0  0  0  0
 26 22  1  0  0  0  0
 27 26  2  0  0  0  0
M  END
>  <MODEL>
3

>  <REMARK>
 VINA RESULT:      -8.9      3.061      4.615
  Name = 
  1 active torsions:
  status: ('A' for Active; 'I' for Inactive)
    1  A    between atoms: C_9  and  C_15
                            x       y       z     vdW  Elec       q    Type
                         _______ _______ _______ _____ _____    ______ ____

>  <TORSDO>
F 1

$$$$
=
 OpenBabel11052413473D

 27 31  0  0  1  0  0  0  0  0999 V2000
  189.5680  178.9780  142.0820 N   0  0  0  0  0  2  0  0  0  0  0  0
  187.2800  178.2230  141.6890 C   0  0  0  0  0  0  0  0  0  0  0  0
  187.6340  178.1030  144.1240 N   0  0  0  0  0  2  0  0  0  0  0  0
  183.0900  178.6770  142.3240 C   0  0  0  0  0  3  0  0  0  0  0  0
  182.6010  178.8560  143.6210 C   0  0  0  0  0  0  0  0  0  0  0  0
  186.3850  178.5700  140.5120 C   0  0  0  0  0  2  0  0  0  0  0  0
  184.8550  178.7150  144.4940 C   0  0  0  0  0  3  0  0  0  0  0  0
  190.4390  175.7150  143.2900 C   0  0  0  0  0  0  0  0  0  0  0  0
  183.4830  178.8790  144.7050 C   0  0  0  0  0  3  0  0  0  0  0  0
  190.6700  174.4900  143.1160 O   0  0  0  0  0  0  0  0  0  0  0  0
  185.3560  178.5400  143.1960 C   0  0  0  0  0  0  0  0  0  0  0  0
  188.7470  177.9650  141.4290 C   0  0  1  0  0  3  0  0  0  0  0  0
  181.2380  179.0110  143.8330 O   0  0  0  0  0  1  0  0  0  0  0  0
  184.4650  178.5300  142.1130 C   0  0  0  0  0  0  0  0  0  0  0  0
  189.9810  178.5560  143.4280 C   0  0  2  0  0  3  0  0  0  0  0  0
  186.7980  178.2870  142.9610 C   0  0  0  0  0  0  0  0  0  0  0  0
  189.0760  176.1420  143.7450 C   0  0  0  0  0  2  0  0  0  0  0  0
  184.9730  178.3450  140.7970 N   0  0  0  0  0  2  0  0  0  0  0  0
  191.4210  176.6500  142.9510 O   0  0  0  0  0  0  0  0  0  0  0  0
  191.3950  177.9910  143.4300 C   0  0  0  0  0  2  0  0  0  0  0  0
  189.0100  177.6150  144.1720 C   0  0  2  0  0  3  0  0  0  0  0  0
  189.8300  177.4370  137.2990 C   0  0  0  0  0  3  0  0  0  0  0  0
  189.1290  177.8020  139.9870 C   0  0  0  0  0  0  0  0  0  0  0  0
  189.7650  176.6250  139.5800 C   0  0  0  0  0  3  0  0  0  0  0  0
  190.1180  176.4430  138.2390 C   0  0  0  0  0  3  0  0  0  0  0  0
  189.1900  178.6140  137.7000 C   0  0  0  0  0  3  0  0  0  0  0  0
  188.8370  178.7970  139.0400 C   0  0  0  0  0  3  0  0  0  0  0  0
  1 15  1  0  0  0  0
  2 16  2  0  0  0  0
  3 21  1  0  0  0  0
  4  5  1  0  0  0  0
  5 13  1  0  0  0  0
  5  9  2  0  0  0  0
  6 18  1  0  0  0  0
  6  2  1  0  0  0  0
  7  9  1  0  0  0  0
  8 17  1  0  0  0  0
 10  8  2  0  0  0  0
 11  7  2  0  0  0  0
 12 23  1  6  0  0  0
 12  2  1  0  0  0  0
 12  1  1  0  0  0  0
 14  4  2  0  0  0  0
 14 11  1  0  0  0  0
 15 20  1  6  0  0  0
 15 21  1  0  0  0  0
 16 11  1  0  0  0  0
 16  3  1  0  0  0  0
 18 14  1  0  0  0  0
 19  8  1  0  0  0  0
 19 20  1  0  0  0  0
 21 17  1  6  0  0  0
 22 26  2  0  0  0  0
 22 25  1  0  0  0  0
 24 23  1  0  0  0  0
 25 24  2  0  0  0  0
 26 27  1  0  0  0  0
 27 23  2  0  0  0  0
M  END
>  <MODEL>
4

>  <REMARK>
 VINA RESULT:      -8.9      2.653      5.669
  Name = 
  1 active torsions:
  status: ('A' for Active; 'I' for Inactive)
    1  A    between atoms: C_9  and  C_15
                            x       y       z     vdW  Elec       q    Type
                         _______ _______ _______ _____ _____    ______ ____

>  <TORSDO>
F 1

$$$$
=
 OpenBabel11052413473D

 27 31  0  0  1  0  0  0  0  0999 V2000
  184.8950  179.7570  140.2340 N   0  0  0  0  0  2  0  0  0  0  0  0
  186.7710  178.1990  140.3620 C   0  0  0  0  0  0  0  0  0  0  0  0
  185.9660  178.1160  138.0350 N   0  0  0  0  0  2  0  0  0  0  0  0
  190.6420  176.9790  139.0640 C   0  0  0  0  0  3  0  0  0  0  0  0
  190.9210  176.8980  137.6960 C   0  0  0  0  0  0  0  0  0  0  0  0
  187.9250  178.2270  141.3470 C   0  0  0  0  0  2  0  0  0  0  0  0
  188.6580  177.5950  137.1900 C   0  0  0  0  0  3  0  0  0  0  0  0
  182.6740  177.0290  139.5350 C   0  0  0  0  0  0  0  0  0  0  0  0
  189.9320  177.2090  136.7600 C   0  0  0  0  0  3  0  0  0  0  0  0
  182.0410  175.9960  139.8740 O   0  0  0  0  0  0  0  0  0  0  0  0
  188.3710  177.6850  138.5600 C   0  0  0  0  0  0  0  0  0  0  0  0
  185.3850  178.5370  140.8640 C   0  0  1  0  0  3  0  0  0  0  0  0
  192.1830  176.5080  137.2690 O   0  0  0  0  0  1  0  0  0  0  0  0
  189.3730  177.3810  139.4930 C   0  0  0  0  0  0  0  0  0  0  0  0
  184.1210  179.4670  139.0190 C   0  0  2  0  0  3  0  0  0  0  0  0
  187.0040  178.0160  139.0340 C   0  0  0  0  0  0  0  0  0  0  0  0
  183.9920  176.8790  138.8370 C   0  0  0  0  0  2  0  0  0  0  0  0
  189.0770  177.4640  140.8820 N   0  0  0  0  0  2  0  0  0  0  0  0
  182.1870  178.2840  139.9110 O   0  0  0  0  0  0  0  0  0  0  0  0
  182.6230  179.4890  139.2900 C   0  0  0  0  0  2  0  0  0  0  0  0
  184.5230  178.1930  138.2460 C   0  0  2  0  0  3  0  0  0  0  0  0
  184.8930  178.7110  145.1350 C   0  0  0  0  0  3  0  0  0  0  0  0
  185.2350  178.5970  142.3570 C   0  0  0  0  0  0  0  0  0  0  0  0
  184.1760  179.3280  142.9060 C   0  0  0  0  0  3  0  0  0  0  0  0
  184.0060  179.3870  144.2920 C   0  0  0  0  0  3  0  0  0  0  0  0
  185.9510  177.9750  144.5910 C   0  0  0  0  0  3  0  0  0  0  0  0
  186.1210  177.9150  143.2050 C   0  0  0  0  0  3  0  0  0  0  0  0
  1 12  1  0  0  0  0
  2 12  1  0  0  0  0
  2  6  1  0  0  0  0
  3 21  1  0  0  0  0
  3 16  1  0  0  0  0
  4 14  1  0  0  0  0
  5  4  2  0  0  0  0
  7 11  1  0  0  0  0
  8 10  2  0  0  0  0
  8 19  1  0  0  0  0
  9  7  2  0  0  0  0
  9  5  1  0  0  0  0
 11 16  1  0  0  0  0
 11 14  2  0  0  0  0
 12 23  1  1  0  0  0
 13  5  1  0  0  0  0
 14 18  1  0  0  0  0
 15 20  1  1  0  0  0
 15  1  1  0  0  0  0
 16  2  2  0  0  0  0
 17  8  1  0  0  0  0
 18  6  1  0  0  0  0
 20 19  1  0  0  0  0
 21 17  1  1  0  0  0
 21 15  1  0  0  0  0
 23 24  2  0  0  0  0
 23 27  1  0  0  0  0
 24 25  1  0  0  0  0
 25 22  2  0  0  0  0
 26 22  1  0  0  0  0
 27 26  2  0  0  0  0
M  END
>  <MODEL>
5

>  <REMARK>
 VINA RESULT:      -8.5      3.197      5.742
  Name = 
  1 active torsions:
  status: ('A' for Active; 'I' for Inactive)
    1  A    between atoms: C_9  and  C_15
                            x       y       z     vdW  Elec       q    Type
                         _______ _______ _______ _____ _____    ______ ____

>  <TORSDO>
F 1

$$$$
=
 OpenBabel11052413473D

 27 31  0  0  1  0  0  0  0  0999 V2000
  189.0950  176.2160  142.8450 N   0  0  0  0  0  2  0  0  0  0  0  0
  189.0530  177.2120  140.6160 C   0  0  0  0  0  0  0  0  0  0  0  0
  191.3990  176.6010  141.0510 N   0  0  0  0  0  2  0  0  0  0  0  0
  189.7500  176.8920  136.4240 C   0  0  0  0  0  3  0  0  0  0  0  0
  190.9670  176.3820  135.9600 C   0  0  0  0  0  0  0  0  0  0  0  0
  187.8750  177.2830  139.6610 C   0  0  0  0  0  2  0  0  0  0  0  0
  191.7250  176.1070  138.2440 C   0  0  0  0  0  3  0  0  0  0  0  0
  191.1340  178.9240  144.0180 C   0  0  0  0  0  0  0  0  0  0  0  0
  191.9520  175.9860  136.8690 C   0  0  0  0  0  3  0  0  0  0  0  0
  191.3040  180.1280  144.3440 O   0  0  0  0  0  0  0  0  0  0  0  0
  190.5050  176.6120  138.7180 C   0  0  0  0  0  0  0  0  0  0  0  0
  188.8010  177.4300  142.0910 C   0  0  1  0  0  3  0  0  0  0  0  0
  191.1960  176.2690  134.5960 O   0  0  0  0  0  1  0  0  0  0  0  0
  189.5180  176.9960  137.7990 C   0  0  0  0  0  0  0  0  0  0  0  0
  190.4820  176.2030  143.3310 C   0  0  2  0  0  3  0  0  0  0  0  0
  190.2770  176.8200  140.1690 C   0  0  0  0  0  0  0  0  0  0  0  0
  191.5200  178.4810  142.6390 C   0  0  0  0  0  2  0  0  0  0  0  0
  188.2850  177.5160  138.2820 N   0  0  0  0  0  2  0  0  0  0  0  0
  190.4930  178.0590  144.9090 O   0  0  0  0  0  0  0  0  0  0  0  0
  190.5710  176.6430  144.7860 C   0  0  0  0  0  2  0  0  0  0  0  0
  191.5130  176.9560  142.4630 C   0  0  2  0  0  3  0  0  0  0  0  0
  184.9370  178.9900  143.1580 C   0  0  0  0  0  3  0  0  0  0  0  0
  187.4470  177.9740  142.4420 C   0  0  0  0  0  0  0  0  0  0  0  0
  186.8530  177.5940  143.6500 C   0  0  0  0  0  3  0  0  0  0  0  0
  185.5990  178.0990  144.0070 C   0  0  0  0  0  3  0  0  0  0  0  0
  185.5280  179.3780  141.9520 C   0  0  0  0  0  3  0  0  0  0  0  0
  186.7820  178.8730  141.5940 C   0  0  0  0  0  3  0  0  0  0  0  0
  1 15  1  0  0  0  0
  2 12  1  0  0  0  0
  3 21  1  0  0  0  0
  4 14  1  0  0  0  0
  5  4  2  0  0  0  0
  5  9  1  0  0  0  0
  6  2  1  0  0  0  0
  7 11  1  0  0  0  0
  8 10  2  0  0  0  0
  8 19  1  0  0  0  0
  9  7  2  0  0  0  0
 11 16  1  0  0  0  0
 12 23  1  6  0  0  0
 12  1  1  0  0  0  0
 13  5  1  0  0  0  0
 14 18  1  0  0  0  0
 14 11  2  0  0  0  0
 15 20  1  1  0  0  0
 16  2  2  0  0  0  0
 16  3  1  0  0  0  0
 17  8  1  0  0  0  0
 18  6  1  0  0  0  0
 20 19  1  0  0  0  0
 21 17  1  6  0  0  0
 21 15  1  0  0  0  0
 22 25  1  0  0  0  0
 23 24  1  0  0  0  0
 24 25  2  0  0  0  0
 26 22  2  0  0  0  0
 27 26  1  0  0  0  0
 27 23  2  0  0  0  0
M  END
>  <MODEL>
6

>  <REMARK>
 VINA RESULT:      -8.4      1.728      2.366
  Name = 
  1 active torsions:
  status: ('A' for Active; 'I' for Inactive)
    1  A    between atoms: C_9  and  C_15
                            x       y       z     vdW  Elec       q    Type
                         _______ _______ _______ _____ _____    ______ ____

>  <TORSDO>
F 1

$$$$
=
 OpenBabel11052413473D

 27 31  0  0  1  0  0  0  0  0999 V2000
  188.3020  179.0030  138.2060 N   0  0  0  0  0  2  0  0  0  0  0  0
  188.0740  177.9460  140.3950 C   0  0  0  0  0  0  0  0  0  0  0  0
  190.3260  177.3640  139.5820 N   0  0  0  0  0  2  0  0  0  0  0  0
  189.4070  177.4760  144.4150 C   0  0  0  0  0  3  0  0  0  0  0  0
  190.7660  177.2740  144.6760 C   0  0  0  0  0  0  0  0  0  0  0  0
  187.1630  178.3710  141.5320 C   0  0  0  0  0  2  0  0  0  0  0  0
  191.2370  177.3610  142.3020 C   0  0  0  0  0  3  0  0  0  0  0  0
  188.5290  175.7710  136.6670 C   0  0  0  0  0  0  0  0  0  0  0  0
  191.6800  177.2210  143.6220 C   0  0  0  0  0  3  0  0  0  0  0  0
  188.0260  174.6760  136.2990 O   0  0  0  0  0  0  0  0  0  0  0  0
  189.8770  177.5690  142.0310 C   0  0  0  0  0  0  0  0  0  0  0  0
  187.5470  178.0240  138.9800 C   0  0  1  0  0  3  0  0  0  0  0  0
  191.2050  177.1270  145.9840 O   0  0  0  0  0  1  0  0  0  0  0  0
  188.9670  177.6320  143.0970 C   0  0  0  0  0  0  0  0  0  0  0  0
  189.4270  178.3800  137.4940 C   0  0  2  0  0  3  0  0  0  0  0  0
  189.3790  177.6410  140.6360 C   0  0  0  0  0  0  0  0  0  0  0  0
  189.2690  175.8310  137.9690 C   0  0  0  0  0  2  0  0  0  0  0  0
  187.5860  177.8350  142.8200 N   0  0  0  0  0  2  0  0  0  0  0  0
  188.2910  176.9200  135.9090 O   0  0  0  0  0  0  0  0  0  0  0  0
  189.0830  178.0960  136.0380 C   0  0  0  0  0  2  0  0  0  0  0  0
  190.0510  177.1380  138.1660 C   0  0  2  0  0  3  0  0  0  0  0  0
  183.3050  178.6220  138.5900 C   0  0  0  0  0  3  0  0  0  0  0  0
  186.0690  178.2530  138.8520 C   0  0  0  0  0  0  0  0  0  0  0  0
  185.3830  177.6840  137.7730 C   0  0  0  0  0  3  0  0  0  0  0  0
  184.0030  177.8700  137.6410 C   0  0  0  0  0  3  0  0  0  0  0  0
  183.9850  179.1880  139.6720 C   0  0  0  0  0  3  0  0  0  0  0  0
  185.3640  179.0030  139.8060 C   0  0  0  0  0  3  0  0  0  0  0  0
  1 12  1  0  0  0  0
  2 16  2  0  0  0  0
  2  6  1  0  0  0  0
  3 16  1  0  0  0  0
  4  5  1  0  0  0  0
  5 13  1  0  0  0  0
  6 18  1  0  0  0  0
  7  9  1  0  0  0  0
  8 17  1  0  0  0  0
  9  5  2  0  0  0  0
 10  8  2  0  0  0  0
 11  7  2  0  0  0  0
 11 14  1  0  0  0  0
 12 23  1  1  0  0  0
 12  2  1  0  0  0  0
 14  4  2  0  0  0  0
 15 20  1  6  0  0  0
 15 21  1  0  0  0  0
 15  1  1  0  0  0  0
 16 11  1  0  0  0  0
 18 14  1  0  0  0  0
 19 20  1  0  0  0  0
 19  8  1  0  0  0  0
 21 17  1  1  0  0  0
 21  3  1  0  0  0  0
 22 26  1  0  0  0  0
 23 27  1  0  0  0  0
 24 23  2  0  0  0  0
 25 24  1  0  0  0  0
 25 22  2  0  0  0  0
 26 27  2  0  0  0  0
M  END
>  <MODEL>
7

>  <REMARK>
 VINA RESULT:      -8.2      1.916      6.545
  Name = 
  1 active torsions:
  status: ('A' for Active; 'I' for Inactive)
    1  A    between atoms: C_9  and  C_15
                            x       y       z     vdW  Elec       q    Type
                         _______ _______ _______ _____ _____    ______ ____

>  <TORSDO>
F 1

$$$$
=
 OpenBabel11052413473D

 27 31  0  0  1  0  0  0  0  0999 V2000
  186.7110  178.9950  137.4310 N   0  0  0  0  0  2  0  0  0  0  0  0
  187.0840  178.1240  139.6810 C   0  0  0  0  0  0  0  0  0  0  0  0
  188.9870  177.3510  138.3200 N   0  0  0  0  0  2  0  0  0  0  0  0
  189.4980  177.8850  143.1850 C   0  0  0  0  0  3  0  0  0  0  0  0
  190.8670  177.6250  143.0680 C   0  0  0  0  0  0  0  0  0  0  0  0
  186.5530  178.6870  140.9860 C   0  0  0  0  0  2  0  0  0  0  0  0
  190.6400  177.5020  140.6600 C   0  0  0  0  0  3  0  0  0  0  0  0
  186.3760  175.6470  136.1880 C   0  0  0  0  0  0  0  0  0  0  0  0
  191.4380  177.4380  141.8070 C   0  0  0  0  0  3  0  0  0  0  0  0
  185.7520  174.5590  136.0780 O   0  0  0  0  0  0  0  0  0  0  0  0
  189.2670  177.7680  140.7680 C   0  0  0  0  0  0  0  0  0  0  0  0
  186.1770  178.1240  138.4720 C   0  0  1  0  0  3  0  0  0  0  0  0
  191.6580  177.5530  144.2060 O   0  0  0  0  0  1  0  0  0  0  0  0
  188.7040  177.9660  142.0370 C   0  0  0  0  0  0  0  0  0  0  0  0
  187.5630  178.2550  136.4890 C   0  0  2  0  0  3  0  0  0  0  0  0
  188.3920  177.7620  139.5700 C   0  0  0  0  0  0  0  0  0  0  0  0
  187.4600  175.7630  137.2160 C   0  0  0  0  0  2  0  0  0  0  0  0
  187.3090  178.2270  142.1440 N   0  0  0  0  0  2  0  0  0  0  0  0
  185.9700  176.7470  135.4280 O   0  0  0  0  0  0  0  0  0  0  0  0
  186.8060  177.8810  135.2220 C   0  0  0  0  0  2  0  0  0  0  0  0
  188.3100  177.0330  137.0660 C   0  0  2  0  0  3  0  0  0  0  0  0
  182.0360  178.9470  139.2990 C   0  0  0  0  0  3  0  0  0  0  0  0
  184.7330  178.4280  138.7470 C   0  0  0  0  0  0  0  0  0  0  0  0
  183.8420  177.3700  138.9590 C   0  0  0  0  0  3  0  0  0  0  0  0
  182.4960  177.6290  139.2330 C   0  0  0  0  0  3  0  0  0  0  0  0
  182.9230  180.0080  139.0930 C   0  0  0  0  0  3  0  0  0  0  0  0
  184.2700  179.7510  138.8200 C   0  0  0  0  0  3  0  0  0  0  0  0
  1 12  1  0  0  0  0
  2  6  1  0  0  0  0
  3 16  1  0  0  0  0
  5  4  1  0  0  0  0
  5 13  1  0  0  0  0
  6 18  1  0  0  0  0
  7 11  2  0  0  0  0
  7  9  1  0  0  0  0
  8 17  1  0  0  0  0
  9  5  2  0  0  0  0
 10  8  2  0  0  0  0
 11 14  1  0  0  0  0
 12 23  1  1  0  0  0
 12  2  1  0  0  0  0
 14 18  1  0  0  0  0
 14  4  2  0  0  0  0
 15 20  1  6  0  0  0
 15 21  1  0  0  0  0
 15  1  1  0  0  0  0
 16  2  2  0  0  0  0
 16 11  1  0  0  0  0
 19  8  1  0  0  0  0
 20 19  1  0  0  0  0
 21 17  1  1  0  0  0
 21  3  1  0  0  0  0
 23 27  2  0  0  0  0
 23 24  1  0  0  0  0
 24 25  2  0  0  0  0
 25 22  1  0  0  0  0
 26 22  2  0  0  0  0
 27 26  1  0  0  0  0
M  END
>  <MODEL>
8

>  <REMARK>
 VINA RESULT:      -8.1      2.435      6.779
  Name = 
  1 active torsions:
  status: ('A' for Active; 'I' for Inactive)
    1  A    between atoms: C_9  and  C_15
                            x       y       z     vdW  Elec       q    Type
                         _______ _______ _______ _____ _____    ______ ____

>  <TORSDO>
F 1

$$$$
=
 OpenBabel11052413473D

 27 31  0  0  1  0  0  0  0  0999 V2000
  189.7850  177.1140  136.0080 N   0  0  0  0  0  2  0  0  0  0  0  0
  188.8700  177.0660  138.2710 C   0  0  0  0  0  0  0  0  0  0  0  0
  191.1490  176.1440  138.4310 N   0  0  0  0  0  2  0  0  0  0  0  0
  189.0740  178.2720  142.3530 C   0  0  0  0  0  3  0  0  0  0  0  0
  190.2820  178.1640  143.0490 C   0  0  0  0  0  0  0  0  0  0  0  0
  187.7720  177.9470  138.8390 C   0  0  0  0  0  2  0  0  0  0  0  0
  191.3400  177.2470  141.0730 C   0  0  0  0  0  3  0  0  0  0  0  0
  189.9350  173.5300  135.9900 C   0  0  0  0  0  0  0  0  0  0  0  0
  191.4150  177.6550  142.4090 C   0  0  0  0  0  3  0  0  0  0  0  0
  189.3920  172.3940  135.9530 O   0  0  0  0  0  0  0  0  0  0  0  0
  190.1340  177.3570  140.3660 C   0  0  0  0  0  0  0  0  0  0  0  0
  188.7310  176.5630  136.8520 C   0  0  1  0  0  3  0  0  0  0  0  0
  190.3550  178.5620  144.3760 O   0  0  0  0  0  1  0  0  0  0  0  0
  189.0050  177.8790  141.0130 C   0  0  0  0  0  0  0  0  0  0  0  0
  190.9540  176.2240  135.9500 C   0  0  2  0  0  3  0  0  0  0  0  0
  190.0160  176.8560  138.9740 C   0  0  0  0  0  0  0  0  0  0  0  0
  190.3260  174.1070  137.3170 C   0  0  0  0  0  2  0  0  0  0  0  0
  187.7800  177.9820  140.2960 N   0  0  0  0  0  2  0  0  0  0  0  0
  190.0580  174.2670  134.8100 O   0  0  0  0  0  0  0  0  0  0  0  0
  190.9490  175.3710  134.6900 C   0  0  0  0  0  2  0  0  0  0  0  0
  191.2090  175.3570  137.2020 C   0  0  2  0  0  3  0  0  0  0  0  0
  184.8840  177.1210  135.0080 C   0  0  0  0  0  3  0  0  0  0  0  0
  187.3790  176.7540  136.2280 C   0  0  0  0  0  0  0  0  0  0  0  0
  187.2290  177.6920  135.2010 C   0  0  0  0  0  3  0  0  0  0  0  0
  185.9830  177.8780  134.5940 C   0  0  0  0  0  3  0  0  0  0  0  0
  185.0290  176.1770  136.0300 C   0  0  0  0  0  3  0  0  0  0  0  0
  186.2740  175.9910  136.6380 C   0  0  0  0  0  3  0  0  0  0  0  0
  1 12  1  0  0  0  0
  2  6  1  0  0  0  0
  2 16  2  0  0  0  0
  3 16  1  0  0  0  0
  4  5  1  0  0  0  0
  5 13  1  0  0  0  0
  6 18  1  0  0  0  0
  7  9  1  0  0  0  0
  8 17  1  0  0  0  0
  9  5  2  0  0  0  0
 10  8  2  0  0  0  0
 11 14  1  0  0  0  0
 11  7  2  0  0  0  0
 12 23  1  6  0  0  0
 12  2  1  0  0  0  0
 14  4  2  0  0  0  0
 15 20  1  6  0  0  0
 15  1  1  0  0  0  0
 15 21  1  0  0  0  0
 16 11  1  0  0  0  0
 18 14  1  0  0  0  0
 19  8  1  0  0  0  0
 20 19  1  0  0  0  0
 21 17  1  1  0  0  0
 21  3  1  0  0  0  0
 22 26  1  0  0  0  0
 23 27  1  0  0  0  0
 24 23  2  0  0  0  0
 25 22  2  0  0  0  0
 25 24  1  0  0  0  0
 26 27  2  0  0  0  0
M  END
>  <MODEL>
9

>  <REMARK>
 VINA RESULT:      -7.6      2.833      7.405
  Name = 
  1 active torsions:
  status: ('A' for Active; 'I' for Inactive)
    1  A    between atoms: C_9  and  C_15
                            x       y       z     vdW  Elec       q    Type
                         _______ _______ _______ _____ _____    ______ ____

>  <TORSDO>
F 1

$$$$
