=
 OpenBabel11052414093D

 34 39  0  0  1  0  0  0  0  0999 V2000
  184.2860  175.8960  137.2680 C   0  0  0  0  0  0  0  0  0  0  0  0
  185.8670  177.6870  137.7430 C   0  0  0  0  0  0  0  0  0  0  0  0
  183.4110  178.1110  138.1780 C   0  0  1  0  0  3  0  0  0  0  0  0
  182.1640  178.4270  140.3290 N   0  0  0  0  0  0  0  0  0  0  0  0
  186.6640  175.5410  136.9530 C   0  0  0  0  0  3  0  0  0  0  0  0
  186.9200  176.8460  137.3730 C   0  0  0  0  0  3  0  0  0  0  0  0
  184.3960  178.3030  140.5610 C   0  0  0  0  0  3  0  0  0  0  0  0
  184.5390  177.2160  137.7120 C   0  0  0  0  0  0  0  0  0  0  0  0
  182.4290  178.5860  141.6350 C   0  0  0  0  0  3  0  0  0  0  0  0
  185.3500  175.0730  136.8880 C   0  0  0  0  0  3  0  0  0  0  0  0
  182.0500  177.6800  137.5920 C   0  0  2  0  0  3  0  0  0  0  0  0
  182.8890  175.3880  137.0440 C   0  0  0  0  0  2  0  0  0  0  0  0
  186.1490  178.9910  138.1370 O   0  0  0  0  0  1  0  0  0  0  0  0
  180.8300  178.3700  139.7390 C   0  0  0  0  0  2  0  0  0  0  0  0
  180.8820  178.4710  138.2060 C   0  0  1  0  0  3  0  0  0  0  0  0
  183.8010  178.5220  141.7910 C   0  0  0  0  0  0  0  0  0  0  0  0
  183.3290  178.2260  139.6810 C   0  0  0  0  0  0  0  0  0  0  0  0
  181.8380  176.1850  137.8070 C   0  0  0  0  0  2  0  0  0  0  0  0
  180.7230  181.5210  135.9210 C   0  0  0  0  0  0  0  0  0  0  0  0
  180.7040  182.5540  136.8600 C   0  0  0  0  0  3  0  0  0  0  0  0
  180.8300  179.8900  137.7170 C   0  0  0  0  0  0  0  0  0  0  0  0
  180.7430  182.2610  138.2260 C   0  0  0  0  0  3  0  0  0  0  0  0
  180.7850  180.1920  136.3470 C   0  0  0  0  0  3  0  0  0  0  0  0
  180.8030  180.9300  138.6530 C   0  0  0  0  0  3  0  0  0  0  0  0
  180.6810  181.8060  134.5960 F   0  0  0  0  0  0  0  0  0  0  0  0
  184.5270  178.6520  143.0820 C   0  0  0  0  0  2  0  0  0  0  0  0
  185.6910  177.8400  143.0600 O   0  0  0  0  0  0  0  0  0  0  0  0
  188.8430  177.8350  142.3990 S   0  0  0  0  0  0  0  0  0  0  0  0
  186.6550  177.8020  144.0780 C   0  0  0  0  0  0  0  0  0  0  0  0
  188.1180  177.6150  143.8500 C   0  0  0  0  0  0  0  0  0  0  0  0
  188.4910  177.3470  146.2400 C   0  0  0  0  0  3  0  0  0  0  0  0
  187.1360  177.9350  146.5280 C   0  0  0  0  0  2  0  0  0  0  0  0
  186.2130  177.9070  145.3360 C   0  0  0  0  0  3  0  0  0  0  0  0
  188.9630  177.2480  144.9960 C   0  0  0  0  0  3  0  0  0  0  0  0
  1  8  1  0  0  0  0
  2 13  1  0  0  0  0
  3  8  1  1  0  0  0
  3 17  1  0  0  0  0
  4  9  1  0  0  0  0
  5  6  2  0  0  0  0
  6  2  1  0  0  0  0
  7 16  1  0  0  0  0
  8  2  2  0  0  0  0
  9 16  2  0  0  0  0
 10  5  1  0  0  0  0
 10  1  2  0  0  0  0
 11 18  1  1  0  0  0
 11  3  1  0  0  0  0
 11 15  1  0  0  0  0
 12  1  1  0  0  0  0
 12 18  1  0  0  0  0
 14  4  1  0  0  0  0
 15 21  1  1  0  0  0
 15 14  1  0  0  0  0
 16 26  1  0  0  0  0
 17  4  1  0  0  0  0
 17  7  2  0  0  0  0
 19 23  2  0  0  0  0
 19 20  1  0  0  0  0
 20 22  2  0  0  0  0
 21 24  2  0  0  0  0
 22 24  1  0  0  0  0
 23 21  1  0  0  0  0
 25 19  1  0  0  0  0
 27 26  1  0  0  0  0
 27 29  1  0  0  0  0
 28 30  2  0  0  0  0
 29 33  2  0  0  0  0
 30 29  1  0  0  0  0
 30 34  1  0  0  0  0
 31 32  1  0  0  0  0
 33 32  1  0  0  0  0
 34 31  2  0  0  0  0
M  END
>  <MODEL>
1

>  <REMARK>
 VINA RESULT:      -8.4      0.000      0.000
  Name = 
  4 active torsions:
  status: ('A' for Active; 'I' for Inactive)
    1  A    between atoms: O_3  and  C_13
    2  A    between atoms: O_3  and  C_17
    3  A    between atoms: C_12  and  C_28
    4  A    between atoms: C_17  and  C_29
                            x       y       z     vdW  Elec       q    Type
                         _______ _______ _______ _____ _____    ______ ____

>  <TORSDO>
F 4

$$$$
=
 OpenBabel11052414093D

 34 39  0  0  1  0  0  0  0  0999 V2000
  180.5970  180.7810  139.9800 C   0  0  0  0  0  0  0  0  0  0  0  0
  180.1510  179.0630  141.6480 C   0  0  0  0  0  0  0  0  0  0  0  0
  181.9640  178.6300  139.9360 C   0  0  1  0  0  3  0  0  0  0  0  0
  184.4510  178.4630  140.1990 N   0  0  0  0  0  0  0  0  0  0  0  0
  178.9310  181.1540  141.7020 C   0  0  0  0  0  3  0  0  0  0  0  0
  179.1910  179.8910  142.2340 C   0  0  0  0  0  3  0  0  0  0  0  0
  183.3250  178.6460  142.1350 C   0  0  0  0  0  3  0  0  0  0  0  0
  180.8780  179.5060  140.5250 C   0  0  0  0  0  0  0  0  0  0  0  0
  185.3600  178.4130  141.1840 C   0  0  0  0  0  3  0  0  0  0  0  0
  179.6220  181.5910  140.5710 C   0  0  0  0  0  3  0  0  0  0  0  0
  182.2640  178.9880  138.4660 C   0  0  2  0  0  3  0  0  0  0  0  0
  181.2060  181.2440  138.6860 C   0  0  0  0  0  2  0  0  0  0  0  0
  180.3750  177.8000  142.1860 O   0  0  0  0  0  1  0  0  0  0  0  0
  184.7520  178.4480  138.7700 C   0  0  0  0  0  2  0  0  0  0  0  0
  183.4860  178.2260  137.9260 C   0  0  1  0  0  3  0  0  0  0  0  0
  184.6800  178.5150  142.3820 C   0  0  0  0  0  0  0  0  0  0  0  0
  183.2340  178.6330  140.7530 C   0  0  0  0  0  0  0  0  0  0  0  0
  182.4810  180.4910  138.3270 C   0  0  0  0  0  2  0  0  0  0  0  0
  183.8530  174.4350  137.7390 C   0  0  0  0  0  0  0  0  0  0  0  0
  182.5960  174.0720  137.2480 C   0  0  0  0  0  3  0  0  0  0  0  0
  183.1980  176.7730  137.6860 C   0  0  0  0  0  0  0  0  0  0  0  0
  181.6380  175.0540  136.9780 C   0  0  0  0  0  3  0  0  0  0  0  0
  184.1530  175.7810  137.9590 C   0  0  0  0  0  3  0  0  0  0  0  0
  181.9390  176.4020  137.2000 C   0  0  0  0  0  3  0  0  0  0  0  0
  184.7790  173.4820  138.0040 F   0  0  0  0  0  0  0  0  0  0  0  0
  185.3070  178.5010  143.7310 C   0  0  0  0  0  2  0  0  0  0  0  0
  186.4580  177.6700  143.7150 O   0  0  0  0  0  0  0  0  0  0  0  0
  189.5950  177.9020  143.0290 S   0  0  0  0  0  0  0  0  0  0  0  0
  187.4330  177.6420  144.7220 C   0  0  0  0  0  0  0  0  0  0  0  0
  188.9030  177.5620  144.4730 C   0  0  0  0  0  0  0  0  0  0  0  0
  189.3200  177.1970  146.8420 C   0  0  0  0  0  3  0  0  0  0  0  0
  187.9340  177.6820  147.1710 C   0  0  0  0  0  2  0  0  0  0  0  0
  187.0010  177.6550  145.9870 C   0  0  0  0  0  3  0  0  0  0  0  0
  189.7820  177.1920  145.5920 C   0  0  0  0  0  3  0  0  0  0  0  0
  1  8  2  0  0  0  0
  1 10  1  0  0  0  0
  2 13  1  0  0  0  0
  2  6  2  0  0  0  0
  3  8  1  1  0  0  0
  3 17  1  0  0  0  0
  4 17  1  0  0  0  0
  4  9  1  0  0  0  0
  5  6  1  0  0  0  0
  7 16  1  0  0  0  0
  8  2  1  0  0  0  0
  9 16  2  0  0  0  0
 10  5  2  0  0  0  0
 11 18  1  1  0  0  0
 11  3  1  0  0  0  0
 12  1  1  0  0  0  0
 14  4  1  0  0  0  0
 15 21  1  1  0  0  0
 15 11  1  0  0  0  0
 15 14  1  0  0  0  0
 16 26  1  0  0  0  0
 17  7  2  0  0  0  0
 18 12  1  0  0  0  0
 19 23  1  0  0  0  0
 19 25  1  0  0  0  0
 20 19  2  0  0  0  0
 21 23  2  0  0  0  0
 22 24  2  0  0  0  0
 22 20  1  0  0  0  0
 24 21  1  0  0  0  0
 27 26  1  0  0  0  0
 27 29  1  0  0  0  0
 28 30  2  0  0  0  0
 29 33  2  0  0  0  0
 30 29  1  0  0  0  0
 30 34  1  0  0  0  0
 31 32  1  0  0  0  0
 33 32  1  0  0  0  0
 34 31  2  0  0  0  0
M  END
>  <MODEL>
2

>  <REMARK>
 VINA RESULT:      -7.9      2.454      5.290
  Name = 
  4 active torsions:
  status: ('A' for Active; 'I' for Inactive)
    1  A    between atoms: O_3  and  C_13
    2  A    between atoms: O_3  and  C_17
    3  A    between atoms: C_12  and  C_28
    4  A    between atoms: C_17  and  C_29
                            x       y       z     vdW  Elec       q    Type
                         _______ _______ _______ _____ _____    ______ ____

>  <TORSDO>
F 4

$$$$
=
 OpenBabel11052414093D

 34 39  0  0  1  0  0  0  0  0999 V2000
  180.0350  180.6620  139.4900 C   0  0  0  0  0  0  0  0  0  0  0  0
  180.2410  179.2150  141.4380 C   0  0  0  0  0  0  0  0  0  0  0  0
  181.4310  178.5370  139.3100 C   0  0  1  0  0  3  0  0  0  0  0  0
  183.8760  178.4250  138.7720 N   0  0  0  0  0  0  0  0  0  0  0  0
  178.9900  181.2830  141.5880 C   0  0  0  0  0  3  0  0  0  0  0  0
  179.4750  180.1180  142.1800 C   0  0  0  0  0  3  0  0  0  0  0  0
  183.4220  178.8950  140.9220 C   0  0  0  0  0  3  0  0  0  0  0  0
  180.5450  179.4860  140.0890 C   0  0  0  0  0  0  0  0  0  0  0  0
  185.0540  178.5300  139.4050 C   0  0  0  0  0  3  0  0  0  0  0  0
  179.2580  181.5470  140.2430 C   0  0  0  0  0  3  0  0  0  0  0  0
  181.2240  178.6680  137.7870 C   0  0  2  0  0  3  0  0  0  0  0  0
  180.1710  180.9260  138.0160 C   0  0  0  0  0  2  0  0  0  0  0  0
  180.6940  178.0500  142.0480 O   0  0  0  0  0  1  0  0  0  0  0  0
  183.7040  178.1940  137.3410 C   0  0  0  0  0  2  0  0  0  0  0  0
  182.2490  177.8400  136.9940 C   0  0  1  0  0  3  0  0  0  0  0  0
  184.7900  178.8100  140.7320 C   0  0  0  0  0  0  0  0  0  0  0  0
  182.8930  178.6710  139.6610 C   0  0  0  0  0  0  0  0  0  0  0  0
  181.3030  180.1340  137.3730 C   0  0  0  0  0  2  0  0  0  0  0  0
  182.7350  174.0720  137.3330 C   0  0  0  0  0  0  0  0  0  0  0  0
  181.4140  173.6260  137.2340 C   0  0  0  0  0  3  0  0  0  0  0  0
  181.9790  176.3660  137.0700 C   0  0  0  0  0  0  0  0  0  0  0  0
  180.3750  174.5440  137.0570 C   0  0  0  0  0  3  0  0  0  0  0  0
  183.0160  175.4390  137.2520 C   0  0  0  0  0  3  0  0  0  0  0  0
  180.6580  175.9120  136.9780 C   0  0  0  0  0  3  0  0  0  0  0  0
  183.7410  173.1820  137.5080 F   0  0  0  0  0  0  0  0  0  0  0  0
  185.8140  179.0050  141.7920 C   0  0  0  0  0  2  0  0  0  0  0  0
  185.7910  177.9040  142.6880 O   0  0  0  0  0  0  0  0  0  0  0  0
  183.4320  178.8940  144.6450 S   0  0  0  0  0  0  0  0  0  0  0  0
  185.9790  178.0030  144.0740 C   0  0  0  0  0  0  0  0  0  0  0  0
  185.0020  178.6200  145.0190 C   0  0  0  0  0  0  0  0  0  0  0  0
  186.6260  178.5070  146.8280 C   0  0  0  0  0  3  0  0  0  0  0  0
  187.4520  177.5280  146.0380 C   0  0  0  0  0  2  0  0  0  0  0  0
  187.1330  177.5370  144.5650 C   0  0  0  0  0  3  0  0  0  0  0  0
  185.4630  178.9720  146.3700 C   0  0  0  0  0  3  0  0  0  0  0  0
  1  8  2  0  0  0  0
  1 10  1  0  0  0  0
  2 13  1  0  0  0  0
  2  6  2  0  0  0  0
  3 17  1  6  0  0  0
  3  8  1  0  0  0  0
  4  9  1  0  0  0  0
  4 17  1  0  0  0  0
  5  6  1  0  0  0  0
  8  2  1  0  0  0  0
  9 16  2  0  0  0  0
 10  5  2  0  0  0  0
 11 18  1  6  0  0  0
 11  3  1  0  0  0  0
 12  1  1  0  0  0  0
 14  4  1  0  0  0  0
 15 21  1  1  0  0  0
 15 14  1  0  0  0  0
 15 11  1  0  0  0  0
 16  7  1  0  0  0  0
 16 26  1  0  0  0  0
 17  7  2  0  0  0  0
 18 12  1  0  0  0  0
 19 25  1  0  0  0  0
 20 19  2  0  0  0  0
 21 23  2  0  0  0  0
 22 20  1  0  0  0  0
 23 19  1  0  0  0  0
 24 22  2  0  0  0  0
 24 21  1  0  0  0  0
 26 27  1  0  0  0  0
 27 29  1  0  0  0  0
 28 30  2  0  0  0  0
 29 33  2  0  0  0  0
 29 30  1  0  0  0  0
 30 34  1  0  0  0  0
 32 31  1  0  0  0  0
 33 32  1  0  0  0  0
 34 31  2  0  0  0  0
M  END
>  <MODEL>
3

>  <REMARK>
 VINA RESULT:      -7.7      2.584      5.428
  Name = 
  4 active torsions:
  status: ('A' for Active; 'I' for Inactive)
    1  A    between atoms: O_3  and  C_13
    2  A    between atoms: O_3  and  C_17
    3  A    between atoms: C_12  and  C_28
    4  A    between atoms: C_17  and  C_29
                            x       y       z     vdW  Elec       q    Type
                         _______ _______ _______ _____ _____    ______ ____

>  <TORSDO>
F 4

$$$$
=
 OpenBabel11052414093D

 34 39  0  0  1  0  0  0  0  0999 V2000
  180.0390  180.5960  139.2670 C   0  0  0  0  0  0  0  0  0  0  0  0
  180.3110  179.2470  141.2760 C   0  0  0  0  0  0  0  0  0  0  0  0
  181.4090  178.4500  139.1390 C   0  0  1  0  0  3  0  0  0  0  0  0
  183.8290  178.2870  138.5110 N   0  0  0  0  0  0  0  0  0  0  0  0
  179.0840  181.3320  141.3710 C   0  0  0  0  0  3  0  0  0  0  0  0
  179.5830  180.1930  142.0010 C   0  0  0  0  0  3  0  0  0  0  0  0
  183.4650  178.8680  140.6510 C   0  0  0  0  0  3  0  0  0  0  0  0
  180.5630  179.4470  139.9040 C   0  0  0  0  0  0  0  0  0  0  0  0
  185.0330  178.4110  139.0910 C   0  0  0  0  0  3  0  0  0  0  0  0
  179.3000  181.5260  140.0050 C   0  0  0  0  0  3  0  0  0  0  0  0
  181.1420  178.5080  137.6210 C   0  0  2  0  0  3  0  0  0  0  0  0
  180.1180  180.7850  137.7780 C   0  0  0  0  0  2  0  0  0  0  0  0
  180.7780  178.1090  141.9250 O   0  0  0  0  0  1  0  0  0  0  0  0
  183.5980  177.9870  137.1010 C   0  0  0  0  0  2  0  0  0  0  0  0
  182.1270  177.6310  136.8300 C   0  0  1  0  0  3  0  0  0  0  0  0
  184.8240  178.7590  140.4110 C   0  0  0  0  0  0  0  0  0  0  0  0
  182.8850  178.5870  139.4250 C   0  0  0  0  0  0  0  0  0  0  0  0
  181.2170  179.9510  137.1310 C   0  0  0  0  0  2  0  0  0  0  0  0
  182.5970  173.8750  137.2960 C   0  0  0  0  0  0  0  0  0  0  0  0
  181.2690  173.4430  137.3170 C   0  0  0  0  0  3  0  0  0  0  0  0
  181.8480  176.1650  136.9910 C   0  0  0  0  0  0  0  0  0  0  0  0
  180.2290  174.3670  137.1800 C   0  0  0  0  0  3  0  0  0  0  0  0
  182.8870  175.2320  137.1340 C   0  0  0  0  0  3  0  0  0  0  0  0
  180.5200  175.7260  137.0200 C   0  0  0  0  0  3  0  0  0  0  0  0
  183.6050  172.9790  137.4330 F   0  0  0  0  0  0  0  0  0  0  0  0
  185.8920  178.9960  141.4180 C   0  0  0  0  0  2  0  0  0  0  0  0
  185.8760  177.9570  142.3860 O   0  0  0  0  0  0  0  0  0  0  0  0
  188.3320  177.5950  144.4370 S   0  0  0  0  0  0  0  0  0  0  0  0
  185.7160  178.1560  143.7650 C   0  0  0  0  0  0  0  0  0  0  0  0
  186.7510  177.8340  144.7910 C   0  0  0  0  0  0  0  0  0  0  0  0
  185.1510  178.2330  146.5810 C   0  0  0  0  0  3  0  0  0  0  0  0
  184.2420  178.9510  145.6210 C   0  0  0  0  0  2  0  0  0  0  0  0
  184.5380  178.6370  144.1770 C   0  0  0  0  0  3  0  0  0  0  0  0
  186.3390  177.7600  146.2010 C   0  0  0  0  0  3  0  0  0  0  0  0
  1  8  2  0  0  0  0
  1 10  1  0  0  0  0
  2 13  1  0  0  0  0
  2  6  2  0  0  0  0
  3 17  1  6  0  0  0
  3  8  1  0  0  0  0
  4  9  1  0  0  0  0
  4 17  1  0  0  0  0
  5  6  1  0  0  0  0
  8  2  1  0  0  0  0
  9 16  2  0  0  0  0
 10  5  2  0  0  0  0
 11 18  1  6  0  0  0
 11  3  1  0  0  0  0
 12  1  1  0  0  0  0
 14  4  1  0  0  0  0
 15 21  1  1  0  0  0
 15 14  1  0  0  0  0
 15 11  1  0  0  0  0
 16  7  1  0  0  0  0
 16 26  1  0  0  0  0
 17  7  2  0  0  0  0
 18 12  1  0  0  0  0
 19 20  1  0  0  0  0
 19 25  1  0  0  0  0
 21 24  2  0  0  0  0
 21 23  1  0  0  0  0
 22 20  2  0  0  0  0
 23 19  2  0  0  0  0
 24 22  1  0  0  0  0
 26 27  1  0  0  0  0
 27 29  1  0  0  0  0
 28 30  2  0  0  0  0
 29 33  2  0  0  0  0
 29 30  1  0  0  0  0
 30 34  1  0  0  0  0
 32 31  1  0  0  0  0
 33 32  1  0  0  0  0
 34 31  2  0  0  0  0
M  END
>  <MODEL>
4

>  <REMARK>
 VINA RESULT:      -7.7      2.452      5.358
  Name = 
  4 active torsions:
  status: ('A' for Active; 'I' for Inactive)
    1  A    between atoms: O_3  and  C_13
    2  A    between atoms: O_3  and  C_17
    3  A    between atoms: C_12  and  C_28
    4  A    between atoms: C_17  and  C_29
                            x       y       z     vdW  Elec       q    Type
                         _______ _______ _______ _____ _____    ______ ____

>  <TORSDO>
F 4

$$$$
=
 OpenBabel11052414093D

 34 39  0  0  1  0  0  0  0  0999 V2000
  191.1180  174.5220  136.4950 C   0  0  0  0  0  0  0  0  0  0  0  0
  188.9860  173.4080  136.8740 C   0  0  0  0  0  0  0  0  0  0  0  0
  189.4130  175.6080  138.0490 C   0  0  1  0  0  3  0  0  0  0  0  0
  188.3600  177.8590  137.7320 N   0  0  0  0  0  0  0  0  0  0  0  0
  190.6010  172.4520  135.3440 C   0  0  0  0  0  3  0  0  0  0  0  0
  189.3600  172.4030  135.9780 C   0  0  0  0  0  3  0  0  0  0  0  0
  187.4050  176.2140  136.5360 C   0  0  0  0  0  3  0  0  0  0  0  0
  189.8530  174.4890  137.1290 C   0  0  0  0  0  0  0  0  0  0  0  0
  187.3330  178.4080  137.0650 C   0  0  0  0  0  3  0  0  0  0  0  0
  191.4820  173.5010  135.6130 C   0  0  0  0  0  3  0  0  0  0  0  0
  190.6120  176.3840  138.6330 C   0  0  2  0  0  3  0  0  0  0  0  0
  192.1580  175.5470  136.8530 C   0  0  0  0  0  2  0  0  0  0  0  0
  187.7510  173.3230  137.5080 O   0  0  0  0  0  1  0  0  0  0  0  0
  189.2990  178.5850  138.5820 C   0  0  0  0  0  2  0  0  0  0  0  0
  190.1650  177.6280  139.4180 C   0  0  1  0  0  3  0  0  0  0  0  0
  186.7300  177.4040  136.3320 C   0  0  0  0  0  0  0  0  0  0  0  0
  188.4320  176.5550  137.4010 C   0  0  0  0  0  0  0  0  0  0  0  0
  191.5690  176.7870  137.5150 C   0  0  0  0  0  2  0  0  0  0  0  0
  187.7340  177.4730  142.3530 C   0  0  0  0  0  0  0  0  0  0  0  0
  188.3940  176.5760  143.1950 C   0  0  0  0  0  3  0  0  0  0  0  0
  189.5370  177.2810  140.7360 C   0  0  0  0  0  0  0  0  0  0  0  0
  189.6210  176.0270  142.8110 C   0  0  0  0  0  3  0  0  0  0  0  0
  188.3030  177.8250  141.1260 C   0  0  0  0  0  3  0  0  0  0  0  0
  190.1890  176.3780  141.5820 C   0  0  0  0  0  3  0  0  0  0  0  0
  186.5430  178.0020  142.7240 F   0  0  0  0  0  0  0  0  0  0  0  0
  185.5480  177.5770  135.4470 C   0  0  0  0  0  2  0  0  0  0  0  0
  184.5070  176.7060  135.8640 O   0  0  0  0  0  0  0  0  0  0  0  0
  184.1880  174.0090  137.5940 S   0  0  0  0  0  0  0  0  0  0  0  0
  183.9240  176.7170  137.1400 C   0  0  0  0  0  0  0  0  0  0  0  0
  183.5790  175.4930  137.9210 C   0  0  0  0  0  0  0  0  0  0  0  0
  182.3840  176.8350  139.5620 C   0  0  0  0  0  3  0  0  0  0  0  0
  183.0540  178.0790  139.0470 C   0  0  0  0  0  2  0  0  0  0  0  0
  183.6330  177.9110  137.6650 C   0  0  0  0  0  3  0  0  0  0  0  0
  182.6700  175.6290  139.0690 C   0  0  0  0  0  3  0  0  0  0  0  0
  1 12  1  0  0  0  0
  1  8  1  0  0  0  0
  2  8  2  0  0  0  0
  2 13  1  0  0  0  0
  3  8  1  6  0  0  0
  3 11  1  0  0  0  0
  4 14  1  0  0  0  0
  5 10  1  0  0  0  0
  5  6  2  0  0  0  0
  6  2  1  0  0  0  0
  7 17  2  0  0  0  0
  9  4  1  0  0  0  0
 10  1  2  0  0  0  0
 11 18  1  6  0  0  0
 11 15  1  0  0  0  0
 12 18  1  0  0  0  0
 14 15  1  0  0  0  0
 15 21  1  1  0  0  0
 16  7  1  0  0  0  0
 16  9  2  0  0  0  0
 17  4  1  0  0  0  0
 17  3  1  0  0  0  0
 19 25  1  0  0  0  0
 19 20  1  0  0  0  0
 21 23  1  0  0  0  0
 21 24  2  0  0  0  0
 22 20  2  0  0  0  0
 23 19  2  0  0  0  0
 24 22  1  0  0  0  0
 26 27  1  0  0  0  0
 26 16  1  0  0  0  0
 27 29  1  0  0  0  0
 28 30  2  0  0  0  0
 29 33  2  0  0  0  0
 29 30  1  0  0  0  0
 30 34  1  0  0  0  0
 32 31  1  0  0  0  0
 33 32  1  0  0  0  0
 34 31  2  0  0  0  0
M  END
>  <MODEL>
5

>  <REMARK>
 VINA RESULT:      -7.1      4.010      8.188
  Name = 
  4 active torsions:
  status: ('A' for Active; 'I' for Inactive)
    1  A    between atoms: O_3  and  C_13
    2  A    between atoms: O_3  and  C_17
    3  A    between atoms: C_12  and  C_28
    4  A    between atoms: C_17  and  C_29
                            x       y       z     vdW  Elec       q    Type
                         _______ _______ _______ _____ _____    ______ ____

>  <TORSDO>
F 4

$$$$
=
 OpenBabel11052414093D

 34 39  0  0  1  0  0  0  0  0999 V2000
  180.4750  179.5030  137.9570 C   0  0  0  0  0  0  0  0  0  0  0  0
  180.4680  178.3120  140.0820 C   0  0  0  0  0  0  0  0  0  0  0  0
  182.1670  177.6330  138.3340 C   0  0  1  0  0  3  0  0  0  0  0  0
  184.6600  177.8790  138.2990 N   0  0  0  0  0  0  0  0  0  0  0  0
  178.9310  180.1460  139.7130 C   0  0  0  0  0  3  0  0  0  0  0  0
  179.4410  179.1430  140.5360 C   0  0  0  0  0  3  0  0  0  0  0  0
  183.6980  178.4780  140.2390 C   0  0  0  0  0  3  0  0  0  0  0  0
  181.0090  178.4940  138.7940 C   0  0  0  0  0  0  0  0  0  0  0  0
  185.6500  178.2420  139.1280 C   0  0  0  0  0  3  0  0  0  0  0  0
  179.4370  180.3160  138.4230 C   0  0  0  0  0  3  0  0  0  0  0  0
  182.2710  177.5760  136.7960 C   0  0  2  0  0  3  0  0  0  0  0  0
  180.8810  179.6380  136.5160 C   0  0  0  0  0  2  0  0  0  0  0  0
  180.9430  177.3060  140.9170 O   0  0  0  0  0  1  0  0  0  0  0  0
  184.8310  177.4810  136.9040 C   0  0  0  0  0  2  0  0  0  0  0  0
  183.5480  176.8560  136.3320 C   0  0  1  0  0  3  0  0  0  0  0  0
  185.0730  178.6040  140.3300 C   0  0  0  0  0  0  0  0  0  0  0  0
  183.4870  178.0440  138.9410 C   0  0  0  0  0  0  0  0  0  0  0  0
  182.2260  178.9860  136.2150 C   0  0  0  0  0  2  0  0  0  0  0  0
  184.4090  173.3020  137.4180 C   0  0  0  0  0  0  0  0  0  0  0  0
  183.2930  172.6050  136.9490 C   0  0  0  0  0  3  0  0  0  0  0  0
  183.4820  175.3720  136.5470 C   0  0  0  0  0  0  0  0  0  0  0  0
  182.2700  173.2860  136.2840 C   0  0  0  0  0  3  0  0  0  0  0  0
  184.5030  174.6820  137.2190 C   0  0  0  0  0  3  0  0  0  0  0  0
  182.3640  174.6680  136.0870 C   0  0  0  0  0  3  0  0  0  0  0  0
  185.3990  172.6420  138.0660 F   0  0  0  0  0  0  0  0  0  0  0  0
  185.8110  179.0720  141.5340 C   0  0  0  0  0  2  0  0  0  0  0  0
  186.0140  177.9840  142.4230 O   0  0  0  0  0  0  0  0  0  0  0  0
  183.3640  178.9460  143.9810 S   0  0  0  0  0  0  0  0  0  0  0  0
  185.9790  178.0830  143.8220 C   0  0  0  0  0  0  0  0  0  0  0  0
  184.8590  178.6890  144.5990 C   0  0  0  0  0  0  0  0  0  0  0  0
  186.1760  178.5900  146.6430 C   0  0  0  0  0  3  0  0  0  0  0  0
  187.1270  177.6210  145.9940 C   0  0  0  0  0  2  0  0  0  0  0  0
  187.0460  177.6290  144.4890 C   0  0  0  0  0  3  0  0  0  0  0  0
  185.0950  179.0430  146.0060 C   0  0  0  0  0  3  0  0  0  0  0  0
  1 10  2  0  0  0  0
  1  8  1  0  0  0  0
  2  6  1  0  0  0  0
  2 13  1  0  0  0  0
  3  8  1  6  0  0  0
  3 17  1  0  0  0  0
  4 17  1  0  0  0  0
  4  9  1  0  0  0  0
  5  6  2  0  0  0  0
  7 16  1  0  0  0  0
  8  2  2  0  0  0  0
  9 16  2  0  0  0  0
 10  5  1  0  0  0  0
 11 18  1  1  0  0  0
 11  3  1  0  0  0  0
 12  1  1  0  0  0  0
 14  4  1  0  0  0  0
 15 21  1  1  0  0  0
 15 11  1  0  0  0  0
 15 14  1  0  0  0  0
 16 26  1  0  0  0  0
 17  7  2  0  0  0  0
 18 12  1  0  0  0  0
 19 25  1  0  0  0  0
 20 19  2  0  0  0  0
 21 23  2  0  0  0  0
 22 20  1  0  0  0  0
 23 19  1  0  0  0  0
 24 22  2  0  0  0  0
 24 21  1  0  0  0  0
 26 27  1  0  0  0  0
 27 29  1  0  0  0  0
 28 30  2  0  0  0  0
 29 33  2  0  0  0  0
 29 30  1  0  0  0  0
 30 34  1  0  0  0  0
 32 31  1  0  0  0  0
 33 32  1  0  0  0  0
 34 31  2  0  0  0  0
M  END
>  <MODEL>
6

>  <REMARK>
 VINA RESULT:      -7.0      2.696      5.536
  Name = 
  4 active torsions:
  status: ('A' for Active; 'I' for Inactive)
    1  A    between atoms: O_3  and  C_13
    2  A    between atoms: O_3  and  C_17
    3  A    between atoms: C_12  and  C_28
    4  A    between atoms: C_17  and  C_29
                            x       y       z     vdW  Elec       q    Type
                         _______ _______ _______ _____ _____    ______ ____

>  <TORSDO>
F 4

$$$$
=
 OpenBabel11052414093D

 34 39  0  0  1  0  0  0  0  0999 V2000
  181.6460  178.8960  137.1880 C   0  0  0  0  0  0  0  0  0  0  0  0
  182.7200  178.2510  139.2770 C   0  0  0  0  0  0  0  0  0  0  0  0
  183.1740  176.8560  137.2150 C   0  0  1  0  0  3  0  0  0  0  0  0
  185.2660  176.5690  135.8660 N   0  0  0  0  0  0  0  0  0  0  0  0
  181.3240  180.2280  139.1890 C   0  0  0  0  0  3  0  0  0  0  0  0
  182.1440  179.3570  139.9060 C   0  0  0  0  0  3  0  0  0  0  0  0
  185.5310  177.7810  137.7400 C   0  0  0  0  0  3  0  0  0  0  0  0
  182.4920  178.0180  137.9060 C   0  0  0  0  0  0  0  0  0  0  0  0
  186.5650  176.9010  135.9350 C   0  0  0  0  0  3  0  0  0  0  0  0
  181.0660  179.9900  137.8380 C   0  0  0  0  0  3  0  0  0  0  0  0
  182.4320  176.4280  135.9320 C   0  0  2  0  0  3  0  0  0  0  0  0
  181.2200  178.6120  135.7750 C   0  0  0  0  0  2  0  0  0  0  0  0
  183.5160  177.3870  140.0210 O   0  0  0  0  0  1  0  0  0  0  0  0
  184.6390  175.8370  134.7700 C   0  0  0  0  0  2  0  0  0  0  0  0
  183.2190  175.3740  135.1350 C   0  0  1  0  0  3  0  0  0  0  0  0
  186.7440  177.6390  137.0890 C   0  0  0  0  0  0  0  0  0  0  0  0
  184.6320  177.1150  136.9230 C   0  0  0  0  0  0  0  0  0  0  0  0
  182.1550  177.6470  135.0560 C   0  0  0  0  0  2  0  0  0  0  0  0
  182.0320  172.2280  136.9340 C   0  0  0  0  0  0  0  0  0  0  0  0
  183.2170  171.4890  136.9840 C   0  0  0  0  0  3  0  0  0  0  0  0
  183.2010  174.0250  135.7930 C   0  0  0  0  0  0  0  0  0  0  0  0
  184.3930  172.0120  136.4370 C   0  0  0  0  0  3  0  0  0  0  0  0
  182.0230  173.4920  136.3390 C   0  0  0  0  0  3  0  0  0  0  0  0
  184.3820  173.2770  135.8410 C   0  0  0  0  0  3  0  0  0  0  0  0
  180.8920  171.7180  137.4600 F   0  0  0  0  0  0  0  0  0  0  0  0
  188.0370  178.2080  137.5550 C   0  0  0  0  0  2  0  0  0  0  0  0
  187.8830  178.7360  138.8640 O   0  0  0  0  0  0  0  0  0  0  0  0
  186.3800  178.8220  141.7110 S   0  0  0  0  0  0  0  0  0  0  0  0
  188.4620  178.1880  140.0170 C   0  0  0  0  0  0  0  0  0  0  0  0
  187.9150  178.3480  141.3960 C   0  0  0  0  0  0  0  0  0  0  0  0
  189.9260  177.3620  142.3470 C   0  0  0  0  0  3  0  0  0  0  0  0
  190.3090  176.8170  140.9980 C   0  0  0  0  0  2  0  0  0  0  0  0
  189.6020  177.5060  139.8590 C   0  0  0  0  0  3  0  0  0  0  0  0
  188.7870  178.0300  142.5360 C   0  0  0  0  0  3  0  0  0  0  0  0
  1 10  2  0  0  0  0
  1  8  1  0  0  0  0
  2  6  1  0  0  0  0
  2 13  1  0  0  0  0
  3 17  1  6  0  0  0
  3  8  1  0  0  0  0
  4  9  1  0  0  0  0
  4 17  1  0  0  0  0
  5  6  2  0  0  0  0
  8  2  2  0  0  0  0
  9 16  2  0  0  0  0
 10  5  1  0  0  0  0
 11 18  1  6  0  0  0
 11  3  1  0  0  0  0
 12  1  1  0  0  0  0
 14 15  1  0  0  0  0
 14  4  1  0  0  0  0
 15 21  1  1  0  0  0
 15 11  1  0  0  0  0
 16 26  1  0  0  0  0
 16  7  1  0  0  0  0
 17  7  2  0  0  0  0
 18 12  1  0  0  0  0
 19 20  1  0  0  0  0
 19 25  1  0  0  0  0
 21 24  2  0  0  0  0
 21 23  1  0  0  0  0
 22 20  2  0  0  0  0
 23 19  2  0  0  0  0
 24 22  1  0  0  0  0
 26 27  1  0  0  0  0
 27 29  1  0  0  0  0
 29 30  1  0  0  0  0
 30 28  2  0  0  0  0
 30 34  1  0  0  0  0
 31 34  2  0  0  0  0
 32 31  1  0  0  0  0
 33 29  2  0  0  0  0
 33 32  1  0  0  0  0
M  END
>  <MODEL>
7

>  <REMARK>
 VINA RESULT:      -7.0      3.006      6.054
  Name = 
  4 active torsions:
  status: ('A' for Active; 'I' for Inactive)
    1  A    between atoms: O_3  and  C_13
    2  A    between atoms: O_3  and  C_17
    3  A    between atoms: C_12  and  C_28
    4  A    between atoms: C_17  and  C_29
                            x       y       z     vdW  Elec       q    Type
                         _______ _______ _______ _____ _____    ______ ____

>  <TORSDO>
F 4

$$$$
=
 OpenBabel11052414093D

 34 39  0  0  1  0  0  0  0  0999 V2000
  179.5330  181.5780  139.5230 C   0  0  0  0  0  0  0  0  0  0  0  0
  181.1860  180.5090  138.0880 C   0  0  0  0  0  0  0  0  0  0  0  0
  180.9200  179.6520  140.4550 C   0  0  1  0  0  3  0  0  0  0  0  0
  180.0230  177.4740  141.3100 N   0  0  0  0  0  0  0  0  0  0  0  0
  179.7920  182.2890  137.2200 C   0  0  0  0  0  3  0  0  0  0  0  0
  180.8010  181.3430  137.0360 C   0  0  0  0  0  3  0  0  0  0  0  0
  180.2180  177.5800  139.0740 C   0  0  0  0  0  3  0  0  0  0  0  0
  180.5430  180.6040  139.3390 C   0  0  0  0  0  0  0  0  0  0  0  0
  179.6370  176.2830  140.8290 C   0  0  0  0  0  3  0  0  0  0  0  0
  179.1710  182.4140  138.4630 C   0  0  0  0  0  3  0  0  0  0  0  0
  180.5520  180.2120  141.8440 C   0  0  2  0  0  3  0  0  0  0  0  0
  178.9310  181.8520  140.8730 C   0  0  0  0  0  2  0  0  0  0  0  0
  182.2090  179.5900  137.8840 O   0  0  0  0  0  1  0  0  0  0  0  0
  179.9910  177.8670  142.7160 C   0  0  0  0  0  2  0  0  0  0  0  0
  180.7640  179.1730  142.9580 C   0  0  1  0  0  3  0  0  0  0  0  0
  179.7610  176.3310  139.4540 C   0  0  0  0  0  0  0  0  0  0  0  0
  180.3440  178.2690  140.2700 C   0  0  0  0  0  0  0  0  0  0  0  0
  179.1040  180.6930  141.8470 C   0  0  0  0  0  2  0  0  0  0  0  0
  184.0710  178.7680  144.8140 C   0  0  0  0  0  0  0  0  0  0  0  0
  184.9320  178.4640  143.7570 C   0  0  0  0  0  3  0  0  0  0  0  0
  182.2170  178.9390  143.2550 C   0  0  0  0  0  0  0  0  0  0  0  0
  184.4400  178.3930  142.4510 C   0  0  0  0  0  3  0  0  0  0  0  0
  182.7170  179.0030  144.5650 C   0  0  0  0  0  3  0  0  0  0  0  0
  183.0840  178.6280  142.2020 C   0  0  0  0  0  3  0  0  0  0  0  0
  184.5480  178.8320  146.0810 F   0  0  0  0  0  0  0  0  0  0  0  0
  179.4380  175.2180  138.5210 C   0  0  0  0  0  2  0  0  0  0  0  0
  180.4140  175.1600  137.4910 O   0  0  0  0  0  0  0  0  0  0  0  0
  183.4310  176.0150  138.2210 S   0  0  0  0  0  0  0  0  0  0  0  0
  181.4690  174.2390  137.4450 C   0  0  0  0  0  0  0  0  0  0  0  0
  182.9110  174.5960  137.5910 C   0  0  0  0  0  0  0  0  0  0  0  0
  183.5710  172.3450  136.9480 C   0  0  0  0  0  3  0  0  0  0  0  0
  182.1720  171.8520  137.1970 C   0  0  0  0  0  2  0  0  0  0  0  0
  181.1490  172.9600  137.2200 C   0  0  0  0  0  3  0  0  0  0  0  0
  183.9210  173.6100  137.1810 C   0  0  0  0  0  3  0  0  0  0  0  0
  1 12  1  0  0  0  0
  2  8  2  0  0  0  0
  3  8  1  6  0  0  0
  3 11  1  0  0  0  0
  4 14  1  0  0  0  0
  5 10  1  0  0  0  0
  6  5  2  0  0  0  0
  6  2  1  0  0  0  0
  7 16  1  0  0  0  0
  7 17  2  0  0  0  0
  8  1  1  0  0  0  0
  9  4  1  0  0  0  0
 10  1  2  0  0  0  0
 11 18  1  6  0  0  0
 11 15  1  0  0  0  0
 12 18  1  0  0  0  0
 13  2  1  0  0  0  0
 14 15  1  0  0  0  0
 15 21  1  6  0  0  0
 16  9  2  0  0  0  0
 17  3  1  0  0  0  0
 17  4  1  0  0  0  0
 19 25  1  0  0  0  0
 20 19  2  0  0  0  0
 21 23  2  0  0  0  0
 22 20  1  0  0  0  0
 23 19  1  0  0  0  0
 24 22  2  0  0  0  0
 24 21  1  0  0  0  0
 26 16  1  0  0  0  0
 27 26  1  0  0  0  0
 29 27  1  0  0  0  0
 29 30  1  0  0  0  0
 30 28  2  0  0  0  0
 31 34  2  0  0  0  0
 31 32  1  0  0  0  0
 32 33  1  0  0  0  0
 33 29  2  0  0  0  0
 34 30  1  0  0  0  0
M  END
>  <MODEL>
8

>  <REMARK>
 VINA RESULT:      -6.7      3.640      7.655
  Name = 
  4 active torsions:
  status: ('A' for Active; 'I' for Inactive)
    1  A    between atoms: O_3  and  C_13
    2  A    between atoms: O_3  and  C_17
    3  A    between atoms: C_12  and  C_28
    4  A    between atoms: C_17  and  C_29
                            x       y       z     vdW  Elec       q    Type
                         _______ _______ _______ _____ _____    ______ ____

>  <TORSDO>
F 4

$$$$
=
 OpenBabel11052414093D

 34 39  0  0  1  0  0  0  0  0999 V2000
  189.5640  173.6860  135.5020 C   0  0  0  0  0  0  0  0  0  0  0  0
  187.6670  172.9130  136.8190 C   0  0  0  0  0  0  0  0  0  0  0  0
  188.5300  175.2580  137.2220 C   0  0  1  0  0  3  0  0  0  0  0  0
  187.4880  177.4850  136.7380 N   0  0  0  0  0  0  0  0  0  0  0  0
  188.6300  171.4810  135.1200 C   0  0  0  0  0  3  0  0  0  0  0  0
  187.6840  171.7040  136.1190 C   0  0  0  0  0  3  0  0  0  0  0  0
  186.1380  175.7300  136.3580 C   0  0  0  0  0  3  0  0  0  0  0  0
  188.5960  173.9250  136.5060 C   0  0  0  0  0  0  0  0  0  0  0  0
  186.3090  177.9820  136.3360 C   0  0  0  0  0  3  0  0  0  0  0  0
  189.5750  172.4650  134.8220 C   0  0  0  0  0  3  0  0  0  0  0  0
  189.8750  176.0110  137.1720 C   0  0  2  0  0  3  0  0  0  0  0  0
  190.6900  174.6470  135.2380 C   0  0  0  0  0  2  0  0  0  0  0  0
  186.7260  173.0990  137.8260 O   0  0  0  0  0  1  0  0  0  0  0  0
  188.6810  178.2750  137.0300 C   0  0  0  0  0  2  0  0  0  0  0  0
  189.7590  177.4360  137.7370 C   0  0  1  0  0  3  0  0  0  0  0  0
  185.4640  176.9120  136.1070 C   0  0  0  0  0  0  0  0  0  0  0  0
  187.4090  176.1400  136.7260 C   0  0  0  0  0  0  0  0  0  0  0  0
  190.3960  176.0570  135.7390 C   0  0  0  0  0  2  0  0  0  0  0  0
  188.4370  178.1060  141.2510 C   0  0  0  0  0  0  0  0  0  0  0  0
  189.3830  177.4260  142.0230 C   0  0  0  0  0  3  0  0  0  0  0  0
  189.6170  177.4520  139.2310 C   0  0  0  0  0  0  0  0  0  0  0  0
  190.4420  176.7560  141.4040 C   0  0  0  0  0  3  0  0  0  0  0  0
  188.5520  178.1180  139.8590 C   0  0  0  0  0  3  0  0  0  0  0  0
  190.5560  176.7680  140.0100 C   0  0  0  0  0  3  0  0  0  0  0  0
  187.4080  178.7510  141.8510 F   0  0  0  0  0  0  0  0  0  0  0  0
  184.0540  177.0120  135.6480 C   0  0  0  0  0  2  0  0  0  0  0  0
  183.1880  177.0720  136.7720 O   0  0  0  0  0  0  0  0  0  0  0  0
  184.2710  178.7110  139.3230 S   0  0  0  0  0  0  0  0  0  0  0  0
  182.5480  178.2360  137.2220 C   0  0  0  0  0  0  0  0  0  0  0  0
  182.8790  178.9430  138.4950 C   0  0  0  0  0  0  0  0  0  0  0  0
  180.9270  180.3750  138.2460 C   0  0  0  0  0  3  0  0  0  0  0  0
  180.8110  179.9830  136.7980 C   0  0  0  0  0  2  0  0  0  0  0  0
  181.5530  178.7130  136.4670 C   0  0  0  0  0  3  0  0  0  0  0  0
  181.9200  179.9280  139.0170 C   0  0  0  0  0  3  0  0  0  0  0  0
  1  8  1  0  0  0  0
  2 13  1  0  0  0  0
  3  8  1  6  0  0  0
  4 14  1  0  0  0  0
  5  6  2  0  0  0  0
  6  2  1  0  0  0  0
  7 17  2  0  0  0  0
  8  2  2  0  0  0  0
  9  4  1  0  0  0  0
 10  5  1  0  0  0  0
 10  1  2  0  0  0  0
 11 18  1  6  0  0  0
 11  3  1  0  0  0  0
 11 15  1  0  0  0  0
 12  1  1  0  0  0  0
 12 18  1  0  0  0  0
 14 15  1  0  0  0  0
 15 21  1  1  0  0  0
 16  9  2  0  0  0  0
 16  7  1  0  0  0  0
 17  4  1  0  0  0  0
 17  3  1  0  0  0  0
 19 25  1  0  0  0  0
 19 20  1  0  0  0  0
 21 23  1  0  0  0  0
 21 24  2  0  0  0  0
 22 20  2  0  0  0  0
 23 19  2  0  0  0  0
 24 22  1  0  0  0  0
 26 16  1  0  0  0  0
 26 27  1  0  0  0  0
 27 29  1  0  0  0  0
 29 30  1  0  0  0  0
 30 34  1  0  0  0  0
 30 28  2  0  0  0  0
 31 34  2  0  0  0  0
 32 31  1  0  0  0  0
 33 32  1  0  0  0  0
 33 29  2  0  0  0  0
M  END
>  <MODEL>
9

>  <REMARK>
 VINA RESULT:      -6.7      3.710      8.127
  Name = 
  4 active torsions:
  status: ('A' for Active; 'I' for Inactive)
    1  A    between atoms: O_3  and  C_13
    2  A    between atoms: O_3  and  C_17
    3  A    between atoms: C_12  and  C_28
    4  A    between atoms: C_17  and  C_29
                            x       y       z     vdW  Elec       q    Type
                         _______ _______ _______ _____ _____    ______ ____

>  <TORSDO>
F 4

$$$$
