=
 OpenBabel11052415263D

 37 39  0  0  1  0  0  0  0  0999 V2000
  181.9800  178.9930  142.7500 C   0  0  0  0  0  3  0  0  0  0  0  0
  180.2370  175.9140  140.1700 C   0  0  0  0  0  3  0  0  0  0  0  0
  183.0200  178.7960  141.9390 C   0  0  0  0  0  0  0  0  0  0  0  0
  180.8750  177.0530  140.6740 C   0  0  0  0  0  0  0  0  0  0  0  0
  180.2660  177.6200  141.7230 C   0  0  0  0  0  2  0  0  0  0  0  0
  181.9800  177.6230  139.9610 C   0  0  0  0  0  0  0  0  0  0  0  0
  181.5650  176.0070  138.1650 C   0  0  0  0  0  3  0  0  0  0  0  0
  180.5840  178.9690  142.2650 C   0  0  1  0  0  3  0  0  0  0  0  0
  182.2480  177.1090  138.6750 C   0  0  0  0  0  3  0  0  0  0  0  0
  182.8460  178.5550  140.4680 C   0  0  2  0  0  3  0  0  0  0  0  0
  180.5830  175.3760  138.9320 C   0  0  0  0  0  0  0  0  0  0  0  0
  179.9140  174.2360  138.4770 O   0  0  0  0  0  0  0  0  0  0  0  0
  180.3590  173.4790  137.3600 C   0  0  0  0  0  1  0  0  0  0  0  0
  178.9310  179.5410  144.2830 C   0  0  0  0  0  3  0  0  0  0  0  0
  179.6770  179.2810  143.3710 C   0  0  0  0  0  0  0  0  0  0  0  0
  184.3400  178.8240  142.5160 N   0  0  0  0  0  0  0  0  0  0  0  0
  186.5320  178.7560  141.7170 O   0  0  0  0  0  1  0  0  0  0  0  0
  185.4030  177.9820  141.9860 C   0  0  0  0  0  2  0  0  0  0  0  0
  184.6020  179.5340  143.7610 C   0  0  0  0  0  2  0  0  0  0  0  0
  184.3390  178.6230  144.9480 C   0  0  0  0  0  2  0  0  0  0  0  0
  185.7710  178.7490  146.9970 C   0  0  0  0  0  3  0  0  0  0  0  0
  185.6110  178.3400  145.6690 C   0  0  0  0  0  0  0  0  0  0  0  0
  186.6570  177.6880  145.0080 C   0  0  0  0  0  3  0  0  0  0  0  0
  188.8690  176.8000  145.0390 F   0  0  0  0  0  0  0  0  0  0  0  0
  188.0150  177.8380  147.0070 C   0  0  0  0  0  3  0  0  0  0  0  0
  187.8580  177.4340  145.6780 C   0  0  0  0  0  0  0  0  0  0  0  0
  186.9720  178.4970  147.6670 C   0  0  0  0  0  3  0  0  0  0  0  0
  183.7820  179.2890  139.5230 C   0  0  1  0  0  3  0  0  0  0  0  0
  184.5840  178.3980  138.7990 O   0  0  0  0  0  0  0  0  0  0  0  0
  185.7210  179.0380  138.6080 O   0  0  0  0  0  0  0  0  0  0  0  0
  186.3580  177.8610  136.6410 C   0  0  0  0  0  1  0  0  0  0  0  0
  186.6010  178.0680  138.1220 C   0  0  0  0  0  2  0  0  0  0  0  0
  183.0400  180.2250  138.5820 C   0  0  0  0  0  2  0  0  0  0  0  0
  182.0210  180.8810  139.2730 O   0  0  0  0  0  0  0  0  0  0  0  0
  181.1090  181.2460  138.2840 C   0  0  0  0  0  2  0  0  0  0  0  0
  179.4900  179.4540  137.7590 C   0  0  0  0  0  1  0  0  0  0  0  0
  180.8290  180.0570  137.3910 C   0  0  0  0  0  2  0  0  0  0  0  0
  2  4  1  0  0  0  0
  3 16  1  0  0  0  0
  3  1  2  0  0  0  0
  4  5  1  0  0  0  0
  5  8  1  0  0  0  0
  6 10  1  0  0  0  0
  6  4  2  0  0  0  0
  7  9  2  0  0  0  0
  7 11  1  0  0  0  0
  8  1  1  0  0  0  0
  8 15  1  1  0  0  0
  9  6  1  0  0  0  0
 10 28  1  1  0  0  0
 10  3  1  0  0  0  0
 11  2  2  0  0  0  0
 12 11  1  0  0  0  0
 13 12  1  0  0  0  0
 15 14  3  0  0  0  0
 16 19  1  0  0  0  0
 17 18  1  0  0  0  0
 18 16  1  0  0  0  0
 19 20  1  0  0  0  0
 20 22  1  0  0  0  0
 21 27  1  0  0  0  0
 22 21  2  0  0  0  0
 23 22  1  0  0  0  0
 23 26  2  0  0  0  0
 24 26  1  0  0  0  0
 25 27  2  0  0  0  0
 26 25  1  0  0  0  0
 28 33  1  6  0  0  0
 29 28  1  0  0  0  0
 30 29  1  0  0  0  0
 31 32  1  0  0  0  0
 32 30  1  0  0  0  0
 33 34  1  0  0  0  0
 35 34  1  0  0  0  0
 37 36  1  0  0  0  0
 37 35  1  0  0  0  0
M  END
>  <MODEL>
1

>  <REMARK>
 VINA RESULT:      -6.2      0.000      0.000
  Name = 
  15 active torsions:
  status: ('A' for Active; 'I' for Inactive)
    1  A    between atoms: O_1  and  O_5
    2  A    between atoms: O_1  and  C_36
    3  A    between atoms: O_3  and  C_32
    4  A    between atoms: O_5  and  C_23
    5  A    between atoms: C_6  and  C_31
    6  A    between atoms: C_10  and  N_14
    7  A    between atoms: N_14  and  C_27
    8  A    between atoms: N_14  and  C_37
    9  A    between atoms: O_17  and  C_26
   10  A    between atoms: O_17  and  C_33
   11  A    between atoms: C_24  and  C_28
   12  A    between atoms: C_26  and  C_34
   13  A    between atoms: C_29  and  C_36
   14  A    between atoms: C_31  and  C_37
   15  A    between atoms: C_33  and  C_36
                            x       y       z     vdW  Elec       q    Type
                         _______ _______ _______ _____ _____    ______ ____

>  <TORSDO>
F 15

$$$$
=
 OpenBabel11052415263D

 37 39  0  0  1  0  0  0  0  0999 V2000
  183.4010  179.7440  138.8950 C   0  0  0  0  0  3  0  0  0  0  0  0
  180.1790  177.0440  140.1240 C   0  0  0  0  0  3  0  0  0  0  0  0
  184.0990  178.6110  138.9550 C   0  0  0  0  0  0  0  0  0  0  0  0
  181.2620  177.6510  139.4770 C   0  0  0  0  0  0  0  0  0  0  0  0
  181.1370  178.9700  139.2890 C   0  0  0  0  0  2  0  0  0  0  0  0
  182.3020  176.8380  138.9190 C   0  0  0  0  0  0  0  0  0  0  0  0
  180.9680  174.8620  139.4870 C   0  0  0  0  0  3  0  0  0  0  0  0
  182.0080  179.7900  138.4030 C   0  0  1  0  0  3  0  0  0  0  0  0
  182.0800  175.4450  138.8850 C   0  0  0  0  0  3  0  0  0  0  0  0
  183.5230  177.2980  138.5060 C   0  0  2  0  0  3  0  0  0  0  0  0
  180.0310  175.6590  140.1490 C   0  0  0  0  0  0  0  0  0  0  0  0
  178.9310  175.1060  140.8100 O   0  0  0  0  0  0  0  0  0  0  0  0
  179.0000  173.8780  141.5220 C   0  0  0  0  0  1  0  0  0  0  0  0
  181.1520  182.3190  138.3920 C   0  0  0  0  0  3  0  0  0  0  0  0
  181.5370  181.1770  138.3960 C   0  0  0  0  0  0  0  0  0  0  0  0
  185.4440  178.6720  139.4660 N   0  0  0  0  0  0  0  0  0  0  0  0
  187.7700  178.6000  139.2730 O   0  0  0  0  0  1  0  0  0  0  0  0
  186.5730  178.2410  138.6530 C   0  0  0  0  0  2  0  0  0  0  0  0
  185.7030  178.9730  140.8690 C   0  0  0  0  0  2  0  0  0  0  0  0
  184.7100  178.2370  141.7530 C   0  0  0  0  0  2  0  0  0  0  0  0
  184.4490  178.7850  144.1810 C   0  0  0  0  0  3  0  0  0  0  0  0
  185.2020  178.2010  143.1570 C   0  0  0  0  0  0  0  0  0  0  0  0
  186.4330  177.6030  143.4500 C   0  0  0  0  0  3  0  0  0  0  0  0
  188.0960  177.0010  145.0480 F   0  0  0  0  0  0  0  0  0  0  0  0
  186.1500  178.1620  145.7890 C   0  0  0  0  0  3  0  0  0  0  0  0
  186.9060  177.5820  144.7650 C   0  0  0  0  0  0  0  0  0  0  0  0
  184.9220  178.7650  145.4960 C   0  0  0  0  0  3  0  0  0  0  0  0
  184.4130  176.3960  137.6680 C   0  0  1  0  0  3  0  0  0  0  0  0
  184.1640  175.0430  137.9300 O   0  0  0  0  0  0  0  0  0  0  0  0
  185.1580  174.3940  137.3550 O   0  0  0  0  0  0  0  0  0  0  0  0
  185.4960  172.2280  136.4320 C   0  0  0  0  0  1  0  0  0  0  0  0
  184.8570  173.0430  137.5370 C   0  0  0  0  0  2  0  0  0  0  0  0
  184.2910  176.6820  136.1800 C   0  0  0  0  0  2  0  0  0  0  0  0
  183.1490  176.0660  135.6700 O   0  0  0  0  0  0  0  0  0  0  0  0
  182.6640  176.9630  134.7190 C   0  0  0  0  0  2  0  0  0  0  0  0
  180.4670  177.4490  135.7430 C   0  0  0  0  0  1  0  0  0  0  0  0
  181.8270  178.0220  135.4040 C   0  0  0  0  0  2  0  0  0  0  0  0
  1  3  2  0  0  0  0
  2 11  1  0  0  0  0
  3 16  1  0  0  0  0
  4  2  2  0  0  0  0
  5  4  1  0  0  0  0
  6  4  1  0  0  0  0
  7 11  2  0  0  0  0
  8 15  1  1  0  0  0
  8  1  1  0  0  0  0
  8  5  1  0  0  0  0
  9  6  2  0  0  0  0
  9  7  1  0  0  0  0
 10 28  1  1  0  0  0
 10  6  1  0  0  0  0
 10  3  1  0  0  0  0
 11 12  1  0  0  0  0
 12 13  1  0  0  0  0
 14 15  3  0  0  0  0
 16 19  1  0  0  0  0
 18 17  1  0  0  0  0
 18 16  1  0  0  0  0
 19 20  1  0  0  0  0
 20 22  1  0  0  0  0
 21 27  1  0  0  0  0
 22 23  1  0  0  0  0
 22 21  2  0  0  0  0
 23 26  2  0  0  0  0
 26 24  1  0  0  0  0
 26 25  1  0  0  0  0
 27 25  2  0  0  0  0
 28 33  1  6  0  0  0
 28 29  1  0  0  0  0
 30 32  1  0  0  0  0
 30 29  1  0  0  0  0
 31 32  1  0  0  0  0
 34 33  1  0  0  0  0
 35 37  1  0  0  0  0
 35 34  1  0  0  0  0
 37 36  1  0  0  0  0
M  END
>  <MODEL>
2

>  <REMARK>
 VINA RESULT:      -5.8      2.283      3.611
  Name = 
  15 active torsions:
  status: ('A' for Active; 'I' for Inactive)
    1  A    between atoms: O_1  and  O_5
    2  A    between atoms: O_1  and  C_36
    3  A    between atoms: O_3  and  C_32
    4  A    between atoms: O_5  and  C_23
    5  A    between atoms: C_6  and  C_31
    6  A    between atoms: C_10  and  N_14
    7  A    between atoms: N_14  and  C_27
    8  A    between atoms: N_14  and  C_37
    9  A    between atoms: O_17  and  C_26
   10  A    between atoms: O_17  and  C_33
   11  A    between atoms: C_24  and  C_28
   12  A    between atoms: C_26  and  C_34
   13  A    between atoms: C_29  and  C_36
   14  A    between atoms: C_31  and  C_37
   15  A    between atoms: C_33  and  C_36
                            x       y       z     vdW  Elec       q    Type
                         _______ _______ _______ _____ _____    ______ ____

>  <TORSDO>
F 15

$$$$
=
 OpenBabel11052415263D

 37 39  0  0  1  0  0  0  0  0999 V2000
  182.1460  178.8630  142.7270 C   0  0  0  0  0  3  0  0  0  0  0  0
  180.7420  175.7770  139.9560 C   0  0  0  0  0  3  0  0  0  0  0  0
  183.2750  178.6780  142.0420 C   0  0  0  0  0  0  0  0  0  0  0  0
  181.3060  176.9200  140.5340 C   0  0  0  0  0  0  0  0  0  0  0  0
  180.5750  177.4780  141.5060 C   0  0  0  0  0  2  0  0  0  0  0  0
  182.4810  177.5020  139.9540 C   0  0  0  0  0  0  0  0  0  0  0  0
  182.2910  175.8890  138.1190 C   0  0  0  0  0  3  0  0  0  0  0  0
  180.8160  178.8290  142.0850 C   0  0  1  0  0  3  0  0  0  0  0  0
  182.9000  176.9950  138.7060 C   0  0  0  0  0  3  0  0  0  0  0  0
  183.2740  178.4400  140.5600 C   0  0  2  0  0  3  0  0  0  0  0  0
  181.2330  175.2460  138.7650 C   0  0  0  0  0  0  0  0  0  0  0  0
  180.6320  174.1020  138.2330 O   0  0  0  0  0  0  0  0  0  0  0  0
  181.2440  173.3110  137.2240 C   0  0  0  0  0  1  0  0  0  0  0  0
  178.9320  179.3750  143.8960 C   0  0  0  0  0  3  0  0  0  0  0  0
  179.7840  179.1290  143.0790 C   0  0  0  0  0  0  0  0  0  0  0  0
  184.5190  178.7150  142.7670 N   0  0  0  0  0  0  0  0  0  0  0  0
  184.8780  179.4320  144.9600 O   0  0  0  0  0  1  0  0  0  0  0  0
  184.8480  179.8440  143.6270 C   0  0  0  0  0  2  0  0  0  0  0  0
  185.5680  177.7360  142.5120 C   0  0  0  0  0  2  0  0  0  0  0  0
  186.8530  178.4400  142.1100 C   0  0  0  0  0  2  0  0  0  0  0  0
  189.2290  177.6830  142.3240 C   0  0  0  0  0  3  0  0  0  0  0  0
  187.9910  177.9330  142.9250 C   0  0  0  0  0  0  0  0  0  0  0  0
  187.8140  177.6830  144.2910 C   0  0  0  0  0  3  0  0  0  0  0  0
  188.7060  176.9530  146.3770 F   0  0  0  0  0  0  0  0  0  0  0  0
  190.1160  176.9480  144.4550 C   0  0  0  0  0  3  0  0  0  0  0  0
  188.8770  177.1930  145.0560 C   0  0  0  0  0  0  0  0  0  0  0  0
  190.2910  177.1920  143.0890 C   0  0  0  0  0  3  0  0  0  0  0  0
  184.3070  179.1850  139.7320 C   0  0  1  0  0  3  0  0  0  0  0  0
  185.1810  178.3030  139.0850 O   0  0  0  0  0  0  0  0  0  0  0  0
  185.7350  179.0140  138.1220 O   0  0  0  0  0  0  0  0  0  0  0  0
  187.6180  177.6280  138.5580 C   0  0  0  0  0  1  0  0  0  0  0  0
  186.6490  178.1480  137.5180 C   0  0  0  0  0  2  0  0  0  0  0  0
  183.6700  180.1360  138.7300 C   0  0  0  0  0  2  0  0  0  0  0  0
  182.3300  180.3420  139.0580 O   0  0  0  0  0  0  0  0  0  0  0  0
  181.7810  180.9350  137.9220 C   0  0  0  0  0  2  0  0  0  0  0  0
  180.3220  182.7960  137.2010 C   0  0  0  0  0  1  0  0  0  0  0  0
  181.2940  182.3270  138.2620 C   0  0  0  0  0  2  0  0  0  0  0  0
  2  4  1  0  0  0  0
  3  1  2  0  0  0  0
  3 16  1  0  0  0  0
  4  5  1  0  0  0  0
  5  8  1  0  0  0  0
  6  4  2  0  0  0  0
  6 10  1  0  0  0  0
  7  9  2  0  0  0  0
  7 11  1  0  0  0  0
  8  1  1  0  0  0  0
  8 15  1  1  0  0  0
  9  6  1  0  0  0  0
 10 28  1  1  0  0  0
 10  3  1  0  0  0  0
 11  2  2  0  0  0  0
 12 11  1  0  0  0  0
 13 12  1  0  0  0  0
 15 14  3  0  0  0  0
 16 18  1  0  0  0  0
 18 17  1  0  0  0  0
 19 16  1  0  0  0  0
 20 19  1  0  0  0  0
 20 22  1  0  0  0  0
 21 22  2  0  0  0  0
 21 27  1  0  0  0  0
 22 23  1  0  0  0  0
 23 26  2  0  0  0  0
 25 26  1  0  0  0  0
 26 24  1  0  0  0  0
 27 25  2  0  0  0  0
 28 33  1  6  0  0  0
 29 28  1  0  0  0  0
 30 29  1  0  0  0  0
 32 30  1  0  0  0  0
 32 31  1  0  0  0  0
 33 34  1  0  0  0  0
 35 37  1  0  0  0  0
 35 34  1  0  0  0  0
 36 37  1  0  0  0  0
M  END
>  <MODEL>
3

>  <REMARK>
 VINA RESULT:      -5.5      1.424      2.146
  Name = 
  15 active torsions:
  status: ('A' for Active; 'I' for Inactive)
    1  A    between atoms: O_1  and  O_5
    2  A    between atoms: O_1  and  C_36
    3  A    between atoms: O_3  and  C_32
    4  A    between atoms: O_5  and  C_23
    5  A    between atoms: C_6  and  C_31
    6  A    between atoms: C_10  and  N_14
    7  A    between atoms: N_14  and  C_27
    8  A    between atoms: N_14  and  C_37
    9  A    between atoms: O_17  and  C_26
   10  A    between atoms: O_17  and  C_33
   11  A    between atoms: C_24  and  C_28
   12  A    between atoms: C_26  and  C_34
   13  A    between atoms: C_29  and  C_36
   14  A    between atoms: C_31  and  C_37
   15  A    between atoms: C_33  and  C_36
                            x       y       z     vdW  Elec       q    Type
                         _______ _______ _______ _____ _____    ______ ____

>  <TORSDO>
F 15

$$$$
=
 OpenBabel11052415263D

 37 39  0  0  1  0  0  0  0  0999 V2000
  183.7860  177.5350  138.7640 C   0  0  0  0  0  3  0  0  0  0  0  0
  185.3490  178.3690  142.7690 C   0  0  0  0  0  3  0  0  0  0  0  0
  182.6520  177.4120  139.4530 C   0  0  0  0  0  0  0  0  0  0  0  0
  184.6040  178.3550  141.5840 C   0  0  0  0  0  0  0  0  0  0  0  0
  185.3330  178.3090  140.4620 C   0  0  0  0  0  2  0  0  0  0  0  0
  183.1870  178.5670  141.6330 C   0  0  0  0  0  0  0  0  0  0  0  0
  183.4100  179.0330  144.0290 C   0  0  0  0  0  3  0  0  0  0  0  0
  184.8040  178.5540  139.0920 C   0  0  1  0  0  3  0  0  0  0  0  0
  182.6410  178.9720  142.8690 C   0  0  0  0  0  3  0  0  0  0  0  0
  182.3190  178.3170  140.6040 C   0  0  2  0  0  3  0  0  0  0  0  0
  184.7630  178.6890  143.9920 C   0  0  0  0  0  0  0  0  0  0  0  0
  185.5540  178.6870  145.1440 O   0  0  0  0  0  0  0  0  0  0  0  0
  186.4260  177.6150  145.4740 C   0  0  0  0  0  1  0  0  0  0  0  0
  186.8010  178.4260  137.3240 C   0  0  0  0  0  3  0  0  0  0  0  0
  185.8990  178.4820  138.1220 C   0  0  0  0  0  0  0  0  0  0  0  0
  181.7320  176.3740  139.0620 N   0  0  0  0  0  0  0  0  0  0  0  0
  179.6740  175.5780  139.8220 O   0  0  0  0  0  1  0  0  0  0  0  0
  181.0480  175.5660  140.0610 C   0  0  0  0  0  2  0  0  0  0  0  0
  181.6090  175.9650  137.6680 C   0  0  0  0  0  2  0  0  0  0  0  0
  182.0620  174.5250  137.5040 C   0  0  0  0  0  2  0  0  0  0  0  0
  183.9410  175.3170  136.0530 C   0  0  0  0  0  3  0  0  0  0  0  0
  183.4880  174.4800  137.0780 C   0  0  0  0  0  0  0  0  0  0  0  0
  184.3700  173.5810  137.6880 C   0  0  0  0  0  3  0  0  0  0  0  0
  186.5600  172.6590  137.8720 F   0  0  0  0  0  0  0  0  0  0  0  0
  186.1600  174.3670  136.2590 C   0  0  0  0  0  3  0  0  0  0  0  0
  185.7060  173.5260  137.2800 C   0  0  0  0  0  0  0  0  0  0  0  0
  185.2770  175.2610  135.6440 C   0  0  0  0  0  3  0  0  0  0  0  0
  180.9020  178.8580  140.6810 C   0  0  1  0  0  3  0  0  0  0  0  0
  180.3590  178.6970  141.9620 O   0  0  0  0  0  0  0  0  0  0  0  0
  179.1250  179.1540  141.8710 O   0  0  0  0  0  0  0  0  0  0  0  0
  179.1340  179.0190  144.2460 C   0  0  0  0  0  1  0  0  0  0  0  0
  178.9350  179.9050  143.0340 C   0  0  0  0  0  2  0  0  0  0  0  0
  180.8110  180.3110  140.2420 C   0  0  0  0  0  2  0  0  0  0  0  0
  181.5470  180.5000  139.0720 O   0  0  0  0  0  0  0  0  0  0  0  0
  180.8010  181.4180  138.3350 C   0  0  0  0  0  2  0  0  0  0  0  0
  181.2160  179.5150  136.8130 C   0  0  0  0  0  1  0  0  0  0  0  0
  180.5470  180.8660  136.9480 C   0  0  0  0  0  2  0  0  0  0  0  0
  1  8  1  0  0  0  0
  1  3  2  0  0  0  0
  2 11  1  0  0  0  0
  3 10  1  0  0  0  0
  4  6  1  0  0  0  0
  4  2  2  0  0  0  0
  5  4  1  0  0  0  0
  6  9  2  0  0  0  0
  8 15  1  6  0  0  0
  8  5  1  0  0  0  0
  9  7  1  0  0  0  0
 10 28  1  1  0  0  0
 10  6  1  0  0  0  0
 11  7  2  0  0  0  0
 11 12  1  0  0  0  0
 12 13  1  0  0  0  0
 14 15  3  0  0  0  0
 16  3  1  0  0  0  0
 16 18  1  0  0  0  0
 17 18  1  0  0  0  0
 19 16  1  0  0  0  0
 20 19  1  0  0  0  0
 21 22  1  0  0  0  0
 22 20  1  0  0  0  0
 22 23  2  0  0  0  0
 25 26  2  0  0  0  0
 26 23  1  0  0  0  0
 26 24  1  0  0  0  0
 27 21  2  0  0  0  0
 27 25  1  0  0  0  0
 28 33  1  1  0  0  0
 28 29  1  0  0  0  0
 30 29  1  0  0  0  0
 30 32  1  0  0  0  0
 32 31  1  0  0  0  0
 34 33  1  0  0  0  0
 35 34  1  0  0  0  0
 36 37  1  0  0  0  0
 37 35  1  0  0  0  0
M  END
>  <MODEL>
4

>  <REMARK>
 VINA RESULT:      -5.4      2.599      7.301
  Name = 
  15 active torsions:
  status: ('A' for Active; 'I' for Inactive)
    1  A    between atoms: O_1  and  O_5
    2  A    between atoms: O_1  and  C_36
    3  A    between atoms: O_3  and  C_32
    4  A    between atoms: O_5  and  C_23
    5  A    between atoms: C_6  and  C_31
    6  A    between atoms: C_10  and  N_14
    7  A    between atoms: N_14  and  C_27
    8  A    between atoms: N_14  and  C_37
    9  A    between atoms: O_17  and  C_26
   10  A    between atoms: O_17  and  C_33
   11  A    between atoms: C_24  and  C_28
   12  A    between atoms: C_26  and  C_34
   13  A    between atoms: C_29  and  C_36
   14  A    between atoms: C_31  and  C_37
   15  A    between atoms: C_33  and  C_36
                            x       y       z     vdW  Elec       q    Type
                         _______ _______ _______ _____ _____    ______ ____

>  <TORSDO>
F 15

$$$$
=
 OpenBabel11052415263D

 37 39  0  0  1  0  0  0  0  0999 V2000
  188.6380  177.4260  139.5680 C   0  0  0  0  0  3  0  0  0  0  0  0
  192.6750  176.6690  138.0490 C   0  0  0  0  0  3  0  0  0  0  0  0
  188.3250  177.1040  138.3130 C   0  0  0  0  0  0  0  0  0  0  0  0
  191.3190  176.5840  138.3860 C   0  0  0  0  0  0  0  0  0  0  0  0
  191.0220  176.9880  139.6270 C   0  0  0  0  0  2  0  0  0  0  0  0
  190.4050  175.9320  137.4950 C   0  0  0  0  0  0  0  0  0  0  0  0
  192.3230  175.2840  136.1130 C   0  0  0  0  0  3  0  0  0  0  0  0
  189.7210  176.7500  140.3110 C   0  0  1  0  0  3  0  0  0  0  0  0
  190.9620  175.2340  136.4030 C   0  0  0  0  0  3  0  0  0  0  0  0
  189.0410  176.0120  137.5710 C   0  0  2  0  0  3  0  0  0  0  0  0
  193.1820  176.0400  136.9140 C   0  0  0  0  0  0  0  0  0  0  0  0
  194.5450  176.1580  136.6250 O   0  0  0  0  0  0  0  0  0  0  0  0
  195.0380  176.3170  135.3020 C   0  0  0  0  0  1  0  0  0  0  0  0
  189.8320  177.7080  142.8010 C   0  0  0  0  0  3  0  0  0  0  0  0
  189.7800  177.2770  141.6770 C   0  0  0  0  0  0  0  0  0  0  0  0
  187.2620  177.8360  137.6730 N   0  0  0  0  0  0  0  0  0  0  0  0
  187.1580  178.5520  135.4530 O   0  0  0  0  0  1  0  0  0  0  0  0
  187.5550  178.9150  136.7400 C   0  0  0  0  0  2  0  0  0  0  0  0
  185.8740  177.6610  138.0840 C   0  0  0  0  0  2  0  0  0  0  0  0
  185.3020  178.9830  138.5660 C   0  0  0  0  0  2  0  0  0  0  0  0
  185.7530  178.8950  141.0260 C   0  0  0  0  0  3  0  0  0  0  0  0
  184.8330  178.8570  139.9730 C   0  0  0  0  0  0  0  0  0  0  0  0
  183.4720  178.6740  140.2410 C   0  0  0  0  0  3  0  0  0  0  0  0
  181.7130  178.3650  141.8200 F   0  0  0  0  0  0  0  0  0  0  0  0
  183.9500  178.5820  142.6130 C   0  0  0  0  0  3  0  0  0  0  0  0
  183.0300  178.5390  141.5610 C   0  0  0  0  0  0  0  0  0  0  0  0
  185.3110  178.7580  142.3460 C   0  0  0  0  0  3  0  0  0  0  0  0
  188.1940  175.0460  136.7610 C   0  0  1  0  0  3  0  0  0  0  0  0
  188.0650  175.4660  135.4310 O   0  0  0  0  0  0  0  0  0  0  0  0
  187.0970  174.7250  134.9290 O   0  0  0  0  0  0  0  0  0  0  0  0
  184.8220  174.6960  135.6250 C   0  0  0  0  0  1  0  0  0  0  0  0
  185.9500  175.5150  135.0330 C   0  0  0  0  0  2  0  0  0  0  0  0
  188.7210  173.6210  136.8210 C   0  0  0  0  0  2  0  0  0  0  0  0
  187.6980  172.7530  137.2030 O   0  0  0  0  0  0  0  0  0  0  0  0
  187.8450  171.6510  136.3630 C   0  0  0  0  0  2  0  0  0  0  0  0
  186.5860  170.0590  134.9510 C   0  0  0  0  0  1  0  0  0  0  0  0
  186.5640  171.4330  135.5870 C   0  0  0  0  0  2  0  0  0  0  0  0
  1  8  1  0  0  0  0
  2  4  1  0  0  0  0
  3  1  2  0  0  0  0
  4  5  1  0  0  0  0
  5  8  1  0  0  0  0
  6 10  1  0  0  0  0
  6  4  2  0  0  0  0
  7  9  2  0  0  0  0
  7 11  1  0  0  0  0
  8 15  1  1  0  0  0
  9  6  1  0  0  0  0
 10 28  1  6  0  0  0
 10  3  1  0  0  0  0
 11  2  2  0  0  0  0
 12 11  1  0  0  0  0
 13 12  1  0  0  0  0
 15 14  3  0  0  0  0
 16 19  1  0  0  0  0
 16  3  1  0  0  0  0
 17 18  1  0  0  0  0
 18 16  1  0  0  0  0
 19 20  1  0  0  0  0
 20 22  1  0  0  0  0
 21 27  1  0  0  0  0
 22 23  1  0  0  0  0
 22 21  2  0  0  0  0
 23 26  2  0  0  0  0
 26 24  1  0  0  0  0
 26 25  1  0  0  0  0
 27 25  2  0  0  0  0
 28 33  1  6  0  0  0
 29 28  1  0  0  0  0
 30 32  1  0  0  0  0
 30 29  1  0  0  0  0
 32 31  1  0  0  0  0
 33 34  1  0  0  0  0
 35 34  1  0  0  0  0
 36 37  1  0  0  0  0
 37 35  1  0  0  0  0
M  END
>  <MODEL>
5

>  <REMARK>
 VINA RESULT:      -5.2      4.900      8.934
  Name = 
  15 active torsions:
  status: ('A' for Active; 'I' for Inactive)
    1  A    between atoms: O_1  and  O_5
    2  A    between atoms: O_1  and  C_36
    3  A    between atoms: O_3  and  C_32
    4  A    between atoms: O_5  and  C_23
    5  A    between atoms: C_6  and  C_31
    6  A    between atoms: C_10  and  N_14
    7  A    between atoms: N_14  and  C_27
    8  A    between atoms: N_14  and  C_37
    9  A    between atoms: O_17  and  C_26
   10  A    between atoms: O_17  and  C_33
   11  A    between atoms: C_24  and  C_28
   12  A    between atoms: C_26  and  C_34
   13  A    between atoms: C_29  and  C_36
   14  A    between atoms: C_31  and  C_37
   15  A    between atoms: C_33  and  C_36
                            x       y       z     vdW  Elec       q    Type
                         _______ _______ _______ _____ _____    ______ ____

>  <TORSDO>
F 15

$$$$
=
 OpenBabel11052415263D

 37 39  0  0  1  0  0  0  0  0999 V2000
  189.6930  177.4970  138.0170 C   0  0  0  0  0  3  0  0  0  0  0  0
  189.1590  173.7670  135.7870 C   0  0  0  0  0  3  0  0  0  0  0  0
  190.7790  176.8510  138.4420 C   0  0  0  0  0  0  0  0  0  0  0  0
  189.6640  174.9420  136.3550 C   0  0  0  0  0  0  0  0  0  0  0  0
  188.8210  175.9820  136.3370 C   0  0  0  0  0  2  0  0  0  0  0  0
  191.0450  175.0120  136.7340 C   0  0  0  0  0  0  0  0  0  0  0  0
  191.3630  172.8030  135.7190 C   0  0  0  0  0  3  0  0  0  0  0  0
  189.2020  177.3910  136.6280 C   0  0  1  0  0  3  0  0  0  0  0  0
  191.8750  173.9440  136.3340 C   0  0  0  0  0  3  0  0  0  0  0  0
  191.5940  175.9820  137.5280 C   0  0  2  0  0  3  0  0  0  0  0  0
  189.9920  172.6920  135.4810 C   0  0  0  0  0  0  0  0  0  0  0  0
  189.4340  171.5410  134.9160 O   0  0  0  0  0  0  0  0  0  0  0  0
  188.1070  171.1140  135.1960 C   0  0  0  0  0  1  0  0  0  0  0  0
  187.0770  178.9750  136.3080 C   0  0  0  0  0  3  0  0  0  0  0  0
  188.0380  178.2620  136.4520 C   0  0  0  0  0  0  0  0  0  0  0  0
  191.1630  177.0100  139.8210 N   0  0  0  0  0  0  0  0  0  0  0  0
  192.6370  177.5040  141.5630 O   0  0  0  0  0  1  0  0  0  0  0  0
  192.4860  177.5030  140.1750 C   0  0  0  0  0  2  0  0  0  0  0  0
  190.3260  176.4970  140.8990 C   0  0  0  0  0  2  0  0  0  0  0  0
  189.2430  177.5040  141.2440 C   0  0  0  0  0  2  0  0  0  0  0  0
  187.5810  177.4300  143.1140 C   0  0  0  0  0  3  0  0  0  0  0  0
  188.9150  177.4280  142.6940 C   0  0  0  0  0  0  0  0  0  0  0  0
  189.9450  177.3790  143.6400 C   0  0  0  0  0  3  0  0  0  0  0  0
  190.6380  177.2740  145.9190 F   0  0  0  0  0  0  0  0  0  0  0  0
  188.3070  177.3210  145.4220 C   0  0  0  0  0  3  0  0  0  0  0  0
  189.6410  177.3240  145.0040 C   0  0  0  0  0  0  0  0  0  0  0  0
  187.2770  177.3760  144.4780 C   0  0  0  0  0  3  0  0  0  0  0  0
  193.1060  176.1080  137.6090 C   0  0  1  0  0  3  0  0  0  0  0  0
  193.6690  175.0670  138.3570 O   0  0  0  0  0  0  0  0  0  0  0  0
  194.9690  175.1660  138.1570 O   0  0  0  0  0  0  0  0  0  0  0  0
  196.2850  173.1930  137.9650 C   0  0  0  0  0  1  0  0  0  0  0  0
  195.5250  174.1170  138.8940 C   0  0  0  0  0  2  0  0  0  0  0  0
  193.7550  176.1910  136.2360 C   0  0  0  0  0  2  0  0  0  0  0  0
  194.5810  177.3120  136.1690 O   0  0  0  0  0  0  0  0  0  0  0  0
  195.2650  177.1700  134.9630 C   0  0  0  0  0  2  0  0  0  0  0  0
  197.3310  175.8660  135.3380 C   0  0  0  0  0  1  0  0  0  0  0  0
  195.8860  175.7910  134.8930 C   0  0  0  0  0  2  0  0  0  0  0  0
  1  3  2  0  0  0  0
  2  4  1  0  0  0  0
  3 16  1  0  0  0  0
  4  6  2  0  0  0  0
  5  4  1  0  0  0  0
  5  8  1  0  0  0  0
  6 10  1  0  0  0  0
  7  9  2  0  0  0  0
  8 15  1  1  0  0  0
  8  1  1  0  0  0  0
  9  6  1  0  0  0  0
 10 28  1  1  0  0  0
 10  3  1  0  0  0  0
 11  7  1  0  0  0  0
 11  2  2  0  0  0  0
 12 13  1  0  0  0  0
 12 11  1  0  0  0  0
 14 15  3  0  0  0  0
 16 18  1  0  0  0  0
 16 19  1  0  0  0  0
 18 17  1  0  0  0  0
 19 20  1  0  0  0  0
 20 22  1  0  0  0  0
 21 27  1  0  0  0  0
 22 21  2  0  0  0  0
 22 23  1  0  0  0  0
 23 26  2  0  0  0  0
 26 25  1  0  0  0  0
 26 24  1  0  0  0  0
 27 25  2  0  0  0  0
 28 33  1  6  0  0  0
 28 29  1  0  0  0  0
 30 29  1  0  0  0  0
 30 32  1  0  0  0  0
 31 32  1  0  0  0  0
 34 33  1  0  0  0  0
 35 34  1  0  0  0  0
 37 35  1  0  0  0  0
 37 36  1  0  0  0  0
M  END
>  <MODEL>
6

>  <REMARK>
 VINA RESULT:      -5.2      6.410      9.708
  Name = 
  15 active torsions:
  status: ('A' for Active; 'I' for Inactive)
    1  A    between atoms: O_1  and  O_5
    2  A    between atoms: O_1  and  C_36
    3  A    between atoms: O_3  and  C_32
    4  A    between atoms: O_5  and  C_23
    5  A    between atoms: C_6  and  C_31
    6  A    between atoms: C_10  and  N_14
    7  A    between atoms: N_14  and  C_27
    8  A    between atoms: N_14  and  C_37
    9  A    between atoms: O_17  and  C_26
   10  A    between atoms: O_17  and  C_33
   11  A    between atoms: C_24  and  C_28
   12  A    between atoms: C_26  and  C_34
   13  A    between atoms: C_29  and  C_36
   14  A    between atoms: C_31  and  C_37
   15  A    between atoms: C_33  and  C_36
                            x       y       z     vdW  Elec       q    Type
                         _______ _______ _______ _____ _____    ______ ____

>  <TORSDO>
F 15

$$$$
=
 OpenBabel11052415263D

 37 39  0  0  1  0  0  0  0  0999 V2000
  182.4700  175.7150  138.3510 C   0  0  0  0  0  3  0  0  0  0  0  0
  180.4660  179.6080  138.2780 C   0  0  0  0  0  3  0  0  0  0  0  0
  183.5330  176.4850  138.1200 C   0  0  0  0  0  0  0  0  0  0  0  0
  181.3270  178.5350  138.5360 C   0  0  0  0  0  0  0  0  0  0  0  0
  180.7190  177.3540  138.7050 C   0  0  0  0  0  2  0  0  0  0  0  0
  182.7180  178.7830  138.7740 C   0  0  0  0  0  0  0  0  0  0  0  0
  182.2290  181.1840  138.7190 C   0  0  0  0  0  3  0  0  0  0  0  0
  181.3720  176.1310  139.2480 C   0  0  1  0  0  3  0  0  0  0  0  0
  183.1140  180.1290  138.9260 C   0  0  0  0  0  3  0  0  0  0  0  0
  183.6980  177.8270  138.7720 C   0  0  2  0  0  3  0  0  0  0  0  0
  180.9070  180.9270  138.3500 C   0  0  0  0  0  0  0  0  0  0  0  0
  180.0030  181.9600  138.0820 O   0  0  0  0  0  0  0  0  0  0  0  0
  179.9530  182.6300  136.8290 C   0  0  0  0  0  1  0  0  0  0  0  0
  179.5780  174.1620  139.4320 C   0  0  0  0  0  3  0  0  0  0  0  0
  180.3870  175.0530  139.3500 C   0  0  0  0  0  0  0  0  0  0  0  0
  184.5400  175.9920  137.2160 N   0  0  0  0  0  0  0  0  0  0  0  0
  183.5490  177.1240  135.4310 O   0  0  0  0  0  1  0  0  0  0  0  0
  184.7550  176.6230  135.9210 C   0  0  0  0  0  2  0  0  0  0  0  0
  185.2320  174.7350  137.4740 C   0  0  0  0  0  2  0  0  0  0  0  0
  185.4240  173.9680  136.1770 C   0  0  0  0  0  2  0  0  0  0  0  0
  185.1040  171.5620  135.5650 C   0  0  0  0  0  3  0  0  0  0  0  0
  184.6250  172.7130  136.2010 C   0  0  0  0  0  0  0  0  0  0  0  0
  183.3790  172.6900  136.8380 C   0  0  0  0  0  3  0  0  0  0  0  0
  181.4150  171.4950  137.4680 F   0  0  0  0  0  0  0  0  0  0  0  0
  183.1020  170.3660  136.2180 C   0  0  0  0  0  3  0  0  0  0  0  0
  182.6190  171.5170  136.8490 C   0  0  0  0  0  0  0  0  0  0  0  0
  184.3440  170.3890  135.5750 C   0  0  0  0  0  3  0  0  0  0  0  0
  185.0710  178.1700  139.3260 C   0  0  1  0  0  3  0  0  0  0  0  0
  185.8740  178.7920  138.3620 O   0  0  0  0  0  0  0  0  0  0  0  0
  187.1110  178.6260  138.7880 O   0  0  0  0  0  0  0  0  0  0  0  0
  188.3800  178.2840  136.8060 C   0  0  0  0  0  1  0  0  0  0  0  0
  187.6450  177.6360  137.9600 C   0  0  0  0  0  2  0  0  0  0  0  0
  184.9920  179.0210  140.5840 C   0  0  0  0  0  2  0  0  0  0  0  0
  185.3350  178.2540  141.6970 O   0  0  0  0  0  0  0  0  0  0  0  0
  184.2990  178.4730  142.6040 C   0  0  0  0  0  2  0  0  0  0  0  0
  183.8070  179.0030  144.9680 C   0  0  0  0  0  1  0  0  0  0  0  0
  184.8480  178.4560  144.0140 C   0  0  0  0  0  2  0  0  0  0  0  0
  1  8  1  0  0  0  0
  2 11  2  0  0  0  0
  2  4  1  0  0  0  0
  3  1  2  0  0  0  0
  3 10  1  0  0  0  0
  4  5  1  0  0  0  0
  4  6  2  0  0  0  0
  5  8  1  0  0  0  0
  6  9  1  0  0  0  0
  7  9  2  0  0  0  0
  8 15  1  6  0  0  0
 10  6  1  0  0  0  0
 10 28  1  6  0  0  0
 11  7  1  0  0  0  0
 12 11  1  0  0  0  0
 13 12  1  0  0  0  0
 15 14  3  0  0  0  0
 16 19  1  0  0  0  0
 16  3  1  0  0  0  0
 17 18  1  0  0  0  0
 18 16  1  0  0  0  0
 20 22  1  0  0  0  0
 20 19  1  0  0  0  0
 21 27  2  0  0  0  0
 21 22  1  0  0  0  0
 22 23  2  0  0  0  0
 23 26  1  0  0  0  0
 25 26  2  0  0  0  0
 26 24  1  0  0  0  0
 27 25  1  0  0  0  0
 28 33  1  1  0  0  0
 29 30  1  0  0  0  0
 29 28  1  0  0  0  0
 31 32  1  0  0  0  0
 32 30  1  0  0  0  0
 33 34  1  0  0  0  0
 34 35  1  0  0  0  0
 35 37  1  0  0  0  0
 37 36  1  0  0  0  0
M  END
>  <MODEL>
7

>  <REMARK>
 VINA RESULT:      -5.1      3.254      7.386
  Name = 
  15 active torsions:
  status: ('A' for Active; 'I' for Inactive)
    1  A    between atoms: O_1  and  O_5
    2  A    between atoms: O_1  and  C_36
    3  A    between atoms: O_3  and  C_32
    4  A    between atoms: O_5  and  C_23
    5  A    between atoms: C_6  and  C_31
    6  A    between atoms: C_10  and  N_14
    7  A    between atoms: N_14  and  C_27
    8  A    between atoms: N_14  and  C_37
    9  A    between atoms: O_17  and  C_26
   10  A    between atoms: O_17  and  C_33
   11  A    between atoms: C_24  and  C_28
   12  A    between atoms: C_26  and  C_34
   13  A    between atoms: C_29  and  C_36
   14  A    between atoms: C_31  and  C_37
   15  A    between atoms: C_33  and  C_36
                            x       y       z     vdW  Elec       q    Type
                         _______ _______ _______ _____ _____    ______ ____

>  <TORSDO>
F 15

$$$$
=
 OpenBabel11052415263D

 37 39  0  0  1  0  0  0  0  0999 V2000
  185.4530  176.1320  137.1840 C   0  0  0  0  0  3  0  0  0  0  0  0
  181.8110  178.5610  137.3050 C   0  0  0  0  0  3  0  0  0  0  0  0
  185.9970  177.2950  137.5440 C   0  0  0  0  0  0  0  0  0  0  0  0
  183.0250  177.9280  137.5980 C   0  0  0  0  0  0  0  0  0  0  0  0
  183.0830  176.6360  137.2510 C   0  0  0  0  0  2  0  0  0  0  0  0
  184.0120  178.6130  138.3790 C   0  0  0  0  0  0  0  0  0  0  0  0
  182.3930  180.4210  138.7170 C   0  0  0  0  0  3  0  0  0  0  0  0
  184.1390  175.6840  137.6900 C   0  0  1  0  0  3  0  0  0  0  0  0
  183.6270  179.8310  138.9770 C   0  0  0  0  0  3  0  0  0  0  0  0
  185.3190  178.2240  138.5090 C   0  0  2  0  0  3  0  0  0  0  0  0
  181.4930  179.8070  137.8420 C   0  0  0  0  0  0  0  0  0  0  0  0
  180.2680  180.3940  137.5140 O   0  0  0  0  0  0  0  0  0  0  0  0
  180.1660  181.6930  136.9460 C   0  0  0  0  0  1  0  0  0  0  0  0
  183.6000  173.2490  136.7350 C   0  0  0  0  0  3  0  0  0  0  0  0
  183.8440  174.3480  137.1680 C   0  0  0  0  0  0  0  0  0  0  0  0
  187.2760  177.6460  136.9810 N   0  0  0  0  0  0  0  0  0  0  0  0
  188.6830  179.4930  137.2190 O   0  0  0  0  0  1  0  0  0  0  0  0
  187.5550  179.0100  136.5550 C   0  0  0  0  0  2  0  0  0  0  0  0
  188.2510  176.6200  136.6330 C   0  0  0  0  0  2  0  0  0  0  0  0
  188.7850  175.9570  137.8910 C   0  0  0  0  0  2  0  0  0  0  0  0
  191.1830  176.6390  138.1090 C   0  0  0  0  0  3  0  0  0  0  0  0
  190.2390  175.6740  137.7440 C   0  0  0  0  0  0  0  0  0  0  0  0
  190.6610  174.4480  137.2170 C   0  0  0  0  0  3  0  0  0  0  0  0
  192.4330  172.9980  136.5550 F   0  0  0  0  0  0  0  0  0  0  0  0
  192.9690  175.1480  137.4320 C   0  0  0  0  0  3  0  0  0  0  0  0
  192.0250  174.1850  137.0630 C   0  0  0  0  0  0  0  0  0  0  0  0
  192.5480  176.3760  137.9530 C   0  0  0  0  0  3  0  0  0  0  0  0
  186.1780  178.8590  139.5890 C   0  0  1  0  0  3  0  0  0  0  0  0
  185.3960  179.3710  140.6330 O   0  0  0  0  0  0  0  0  0  0  0  0
  185.5400  178.5100  141.6220 O   0  0  0  0  0  0  0  0  0  0  0  0
  185.2580  178.3540  143.9790 C   0  0  0  0  0  1  0  0  0  0  0  0
  184.9110  179.1120  142.7140 C   0  0  0  0  0  2  0  0  0  0  0  0
  187.2300  177.9030  140.1300 C   0  0  0  0  0  2  0  0  0  0  0  0
  188.3850  178.6090  140.4630 O   0  0  0  0  0  0  0  0  0  0  0  0
  189.1620  177.6930  141.1710 C   0  0  0  0  0  2  0  0  0  0  0  0
  188.4880  176.5380  143.2500 C   0  0  0  0  0  1  0  0  0  0  0  0
  188.9170  177.8620  142.6550 C   0  0  0  0  0  2  0  0  0  0  0  0
  1  3  2  0  0  0  0
  1  8  1  0  0  0  0
  2  4  2  0  0  0  0
  2 11  1  0  0  0  0
  3 10  1  0  0  0  0
  4  6  1  0  0  0  0
  5  4  1  0  0  0  0
  5  8  1  0  0  0  0
  6 10  1  0  0  0  0
  6  9  2  0  0  0  0
  7  9  1  0  0  0  0
  8 15  1  6  0  0  0
 10 28  1  6  0  0  0
 11  7  2  0  0  0  0
 12 11  1  0  0  0  0
 13 12  1  0  0  0  0
 14 15  3  0  0  0  0
 16  3  1  0  0  0  0
 18 16  1  0  0  0  0
 18 17  1  0  0  0  0
 19 16  1  0  0  0  0
 19 20  1  0  0  0  0
 22 20  1  0  0  0  0
 22 21  2  0  0  0  0
 23 22  1  0  0  0  0
 24 26  1  0  0  0  0
 25 27  2  0  0  0  0
 26 23  2  0  0  0  0
 26 25  1  0  0  0  0
 27 21  1  0  0  0  0
 28 33  1  1  0  0  0
 28 29  1  0  0  0  0
 29 30  1  0  0  0  0
 30 32  1  0  0  0  0
 32 31  1  0  0  0  0
 33 34  1  0  0  0  0
 34 35  1  0  0  0  0
 35 37  1  0  0  0  0
 37 36  1  0  0  0  0
M  END
>  <MODEL>
8

>  <REMARK>
 VINA RESULT:      -5.1      3.605      7.416
  Name = 
  15 active torsions:
  status: ('A' for Active; 'I' for Inactive)
    1  A    between atoms: O_1  and  O_5
    2  A    between atoms: O_1  and  C_36
    3  A    between atoms: O_3  and  C_32
    4  A    between atoms: O_5  and  C_23
    5  A    between atoms: C_6  and  C_31
    6  A    between atoms: C_10  and  N_14
    7  A    between atoms: N_14  and  C_27
    8  A    between atoms: N_14  and  C_37
    9  A    between atoms: O_17  and  C_26
   10  A    between atoms: O_17  and  C_33
   11  A    between atoms: C_24  and  C_28
   12  A    between atoms: C_26  and  C_34
   13  A    between atoms: C_29  and  C_36
   14  A    between atoms: C_31  and  C_37
   15  A    between atoms: C_33  and  C_36
                            x       y       z     vdW  Elec       q    Type
                         _______ _______ _______ _____ _____    ______ ____

>  <TORSDO>
F 15

$$$$
=
 OpenBabel11052415263D

 37 39  0  0  1  0  0  0  0  0999 V2000
  188.6250  177.4550  139.6110 C   0  0  0  0  0  3  0  0  0  0  0  0
  192.6720  176.7520  138.0920 C   0  0  0  0  0  3  0  0  0  0  0  0
  188.3190  177.1620  138.3480 C   0  0  0  0  0  0  0  0  0  0  0  0
  191.3150  176.6540  138.4210 C   0  0  0  0  0  0  0  0  0  0  0  0
  191.0110  177.0260  139.6700 C   0  0  0  0  0  2  0  0  0  0  0  0
  190.4080  176.0190  137.5100 C   0  0  0  0  0  0  0  0  0  0  0  0
  192.3350  175.4130  136.1220 C   0  0  0  0  0  3  0  0  0  0  0  0
  189.7080  176.7660  140.3430 C   0  0  1  0  0  3  0  0  0  0  0  0
  190.9720  175.3510  136.4040 C   0  0  0  0  0  3  0  0  0  0  0  0
  189.0430  176.0920  137.5820 C   0  0  2  0  0  3  0  0  0  0  0  0
  193.1870  176.1530  136.9440 C   0  0  0  0  0  0  0  0  0  0  0  0
  194.5500  176.2840  136.6640 O   0  0  0  0  0  0  0  0  0  0  0  0
  195.3850  175.1710  136.3770 C   0  0  0  0  0  1  0  0  0  0  0  0
  189.7980  177.6660  142.8550 C   0  0  0  0  0  3  0  0  0  0  0  0
  189.7590  177.2590  141.7210 C   0  0  0  0  0  0  0  0  0  0  0  0
  187.2560  177.9050  137.7210 N   0  0  0  0  0  0  0  0  0  0  0  0
  188.6690  179.6940  137.2190 O   0  0  0  0  0  1  0  0  0  0  0  0
  187.5480  178.9840  136.7870 C   0  0  0  0  0  2  0  0  0  0  0  0
  185.8710  177.7420  138.1470 C   0  0  0  0  0  2  0  0  0  0  0  0
  185.3570  179.0340  138.7580 C   0  0  0  0  0  2  0  0  0  0  0  0
  183.6120  178.8050  140.5370 C   0  0  0  0  0  3  0  0  0  0  0  0
  184.9630  178.8090  140.1760 C   0  0  0  0  0  0  0  0  0  0  0  0
  185.9480  178.6280  141.1530 C   0  0  0  0  0  3  0  0  0  0  0  0
  186.5350  178.2540  143.4330 F   0  0  0  0  0  0  0  0  0  0  0  0
  184.2310  178.4230  142.8480 C   0  0  0  0  0  3  0  0  0  0  0  0
  185.5820  178.4320  142.4880 C   0  0  0  0  0  0  0  0  0  0  0  0
  183.2460  178.6110  141.8720 C   0  0  0  0  0  3  0  0  0  0  0  0
  188.2040  175.1420  136.7450 C   0  0  1  0  0  3  0  0  0  0  0  0
  189.0030  174.3410  135.9200 O   0  0  0  0  0  0  0  0  0  0  0  0
  188.6650  173.1010  136.2150 O   0  0  0  0  0  0  0  0  0  0  0  0
  190.2990  172.0760  134.8230 C   0  0  0  0  0  1  0  0  0  0  0  0
  188.8310  172.3910  135.0240 C   0  0  0  0  0  2  0  0  0  0  0  0
  187.2820  174.2810  137.5940 C   0  0  0  0  0  2  0  0  0  0  0  0
  185.9620  174.4440  137.1740 O   0  0  0  0  0  0  0  0  0  0  0  0
  185.3170  173.2800  137.5920 C   0  0  0  0  0  2  0  0  0  0  0  0
  184.9890  171.5440  135.8630 C   0  0  0  0  0  1  0  0  0  0  0  0
  184.4000  172.7880  136.4930 C   0  0  0  0  0  2  0  0  0  0  0  0
  1  8  1  0  0  0  0
  2  4  1  0  0  0  0
  3  1  2  0  0  0  0
  4  5  1  0  0  0  0
  5  8  1  0  0  0  0
  6 10  1  0  0  0  0
  6  4  2  0  0  0  0
  7  9  2  0  0  0  0
  7 11  1  0  0  0  0
  8 15  1  1  0  0  0
  9  6  1  0  0  0  0
 10 28  1  6  0  0  0
 10  3  1  0  0  0  0
 11  2  2  0  0  0  0
 12 11  1  0  0  0  0
 13 12  1  0  0  0  0
 15 14  3  0  0  0  0
 16 19  1  0  0  0  0
 16  3  1  0  0  0  0
 18 17  1  0  0  0  0
 18 16  1  0  0  0  0
 19 20  1  0  0  0  0
 20 22  1  0  0  0  0
 21 27  1  0  0  0  0
 22 21  2  0  0  0  0
 22 23  1  0  0  0  0
 23 26  2  0  0  0  0
 26 25  1  0  0  0  0
 26 24  1  0  0  0  0
 27 25  2  0  0  0  0
 28 33  1  1  0  0  0
 29 30  1  0  0  0  0
 29 28  1  0  0  0  0
 31 32  1  0  0  0  0
 32 30  1  0  0  0  0
 34 35  1  0  0  0  0
 34 33  1  0  0  0  0
 36 37  1  0  0  0  0
 37 35  1  0  0  0  0
M  END
>  <MODEL>
9

>  <REMARK>
 VINA RESULT:      -5.1      4.733      8.595
  Name = 
  15 active torsions:
  status: ('A' for Active; 'I' for Inactive)
    1  A    between atoms: O_1  and  O_5
    2  A    between atoms: O_1  and  C_36
    3  A    between atoms: O_3  and  C_32
    4  A    between atoms: O_5  and  C_23
    5  A    between atoms: C_6  and  C_31
    6  A    between atoms: C_10  and  N_14
    7  A    between atoms: N_14  and  C_27
    8  A    between atoms: N_14  and  C_37
    9  A    between atoms: O_17  and  C_26
   10  A    between atoms: O_17  and  C_33
   11  A    between atoms: C_24  and  C_28
   12  A    between atoms: C_26  and  C_34
   13  A    between atoms: C_29  and  C_36
   14  A    between atoms: C_31  and  C_37
   15  A    between atoms: C_33  and  C_36
                            x       y       z     vdW  Elec       q    Type
                         _______ _______ _______ _____ _____    ______ ____

>  <TORSDO>
F 15

$$$$
