=
 OpenBabel11052414573D

 55 62  0  0  1  0  0  0  0  0999 V2000
  183.9570  175.2630  136.3550 O   0  0  0  0  0  0  0  0  0  0  0  0
  187.5330  177.9870  136.9410 C   0  0  0  0  0  2  0  0  0  0  0  0
  186.8760  176.5410  135.1670 O   0  0  0  0  0  0  0  0  0  0  0  0
  189.3590  174.2450  136.2810 C   0  0  0  0  0  2  0  0  0  0  0  0
  190.5560  173.3160  136.1150 C   0  0  0  0  0  2  0  0  0  0  0  0
  187.9060  172.3500  135.5420 C   0  0  0  0  0  0  0  0  0  0  0  0
  189.0650  171.8110  134.8160 C   0  0  0  0  0  3  0  0  0  0  0  0
  187.0030  175.5270  137.2740 N   0  0  0  0  0  2  0  0  0  0  0  0
  190.2940  172.2840  135.0510 C   0  0  0  0  0  3  0  0  0  0  0  0
  182.9600  177.5020  135.8720 C   0  0  0  0  0  2  0  0  0  0  0  0
  188.1130  173.4070  136.6030 C   0  0  2  0  0  3  0  0  0  0  0  0
  182.4670  177.8520  138.6680 C   0  0  1  0  0  3  0  0  0  0  0  0
  184.4220  174.2300  137.2130 C   0  0  0  0  0  2  0  0  0  0  0  0
  183.0480  176.5630  138.1400 C   0  0  0  0  0  3  0  0  0  0  0  0
  185.5260  172.4620  135.8680 C   0  0  0  0  0  0  0  0  0  0  0  0
  186.7110  178.1990  139.2840 C   0  0  0  0  0  2  0  0  0  0  0  0
  186.7120  171.9210  135.2630 N   0  0  0  0  0  0  0  0  0  0  0  0
  186.4850  178.6210  137.8470 C   0  0  0  0  0  2  0  0  0  0  0  0
  187.0880  176.6650  136.4070 C   0  0  0  0  0  0  0  0  0  0  0  0
  181.5730  178.0450  136.2220 C   0  0  0  0  0  2  0  0  0  0  0  0
  185.7610  178.9380  140.2210 C   0  0  1  0  0  3  0  0  0  0  0  0
  183.3150  176.4070  136.8330 C   0  0  0  0  0  0  0  0  0  0  0  0
  186.9060  174.2270  136.7500 N   0  0  0  0  0  0  0  0  0  0  0  0
  185.6200  173.5910  136.6040 C   0  0  0  0  0  0  0  0  0  0  0  0
  184.3730  178.3080  140.2160 C   0  0  0  0  0  2  0  0  0  0  0  0
  183.6000  178.8030  138.9860 C   0  0  0  0  0  2  0  0  0  0  0  0
  181.4960  178.5340  137.6800 C   0  0  0  0  0  2  0  0  0  0  0  0
  183.3680  172.5680  134.5950 C   0  0  0  0  0  3  0  0  0  0  0  0
  181.2610  171.8230  135.7390 C   0  0  1  0  0  3  0  0  0  0  0  0
  183.4680  171.3180  136.8130 C   0  0  0  0  0  2  0  0  0  0  0  0
  182.1190  170.7350  136.4090 C   0  0  0  0  0  2  0  0  0  0  0  0
  182.0270  172.5470  134.6510 C   0  0  0  0  0  3  0  0  0  0  0  0
  184.2210  171.7810  135.5630 C   0  0  2  0  0  3  0  0  0  0  0  0
  179.9480  171.2500  135.1890 C   0  0  1  0  0  3  0  0  0  0  0  0
  179.4370  170.1200  136.0680 C   0  0  0  0  0  1  0  0  0  0  0  0
  178.9310  172.2880  135.1260 N   0  0  0  0  0  1  0  0  0  0  0  0
  186.3290  178.9160  141.6270 C   0  0  0  0  0  2  0  0  0  0  0  0
  187.0960  177.6880  141.8300 N   0  0  0  0  0  2  0  0  0  0  0  0
  189.1510  177.9940  140.7340 O   0  0  0  0  0  1  0  0  0  0  0  0
  188.5300  177.9730  141.9870 C   0  0  1  0  0  0  0  0  0  0  0  0
  188.6870  179.2140  142.5880 F   0  0  0  0  0  0  0  0  0  0  0  0
  191.0010  176.0070  144.5590 C   0  0  0  0  0  2  0  0  0  0  0  0
  189.1600  176.8310  142.8330 C   0  0  1  0  0  0  0  0  0  0  0  0
  187.4860  177.4120  144.5450 O   0  0  0  0  0  0  0  0  0  0  0  0
  188.4150  176.4330  144.1130 C   0  0  2  0  0  3  0  0  0  0  0  0
  188.1010  178.2390  145.5240 C   0  0  0  0  0  2  0  0  0  0  0  0
  189.6650  176.6140  144.9210 C   0  0  1  0  0  0  0  0  0  0  0  0
  189.3490  175.6940  142.0320 O   0  0  0  0  0  1  0  0  0  0  0  0
  189.4530  177.6780  145.9470 C   0  0  2  0  0  3  0  0  0  0  0  0
  190.4380  177.1010  143.6520 C   0  0  1  0  0  0  0  0  0  0  0  0
  190.9360  178.4960  143.7910 N   0  0  0  0  0  0  0  0  0  0  0  0
  191.5730  178.8140  142.6400 O   0  0  0  0  0  1  0  0  0  0  0  0
  191.9590  178.5970  144.8340 C   0  0  0  0  0  1  0  0  0  0  0  0
  189.3230  177.0510  147.2540 N   0  0  0  0  0  2  0  0  0  0  0  0
  188.9020  178.0500  148.1450 N   0  0  0  0  0  1  0  0  0  0  0  0
  1 22  1  0  0  0  0
  1 13  1  0  0  0  0
  2 18  1  0  0  0  0
  3 19  2  0  0  0  0
  5  4  1  0  0  0  0
  6 11  1  0  0  0  0
  7  9  2  0  0  0  0
  7  6  1  0  0  0  0
  9  5  1  0  0  0  0
 10 20  1  0  0  0  0
 10 22  1  0  0  0  0
 11  4  1  6  0  0  0
 11 23  1  0  0  0  0
 12 27  1  6  0  0  0
 12 26  1  0  0  0  0
 14 12  1  0  0  0  0
 15 24  2  0  0  0  0
 16 21  1  0  0  0  0
 17  6  2  0  0  0  0
 17 15  1  0  0  0  0
 18 16  1  0  0  0  0
 19  2  1  0  0  0  0
 19  8  1  0  0  0  0
 20 27  1  0  0  0  0
 21 37  1  1  0  0  0
 22 14  2  0  0  0  0
 23  8  1  0  0  0  0
 24 23  1  0  0  0  0
 24 13  1  0  0  0  0
 25 21  1  0  0  0  0
 26 25  1  0  0  0  0
 28 32  2  0  0  0  0
 28 33  1  0  0  0  0
 29 34  1  6  0  0  0
 29 31  1  0  0  0  0
 31 30  1  0  0  0  0
 32 29  1  0  0  0  0
 33 15  1  1  0  0  0
 33 30  1  0  0  0  0
 34 35  1  1  0  0  0
 36 34  1  0  0  0  0
 37 38  1  0  0  0  0
 38 40  1  0  0  0  0
 40 39  1  6  0  0  0
 40 41  1  0  0  0  0
 40 43  1  0  0  0  0
 43 48  1  6  0  0  0
 43 50  1  0  0  0  0
 43 45  1  0  0  0  0
 44 46  1  0  0  0  0
 45 44  1  1  0  0  0
 45 47  1  0  0  0  0
 46 49  1  0  0  0  0
 47 42  1  1  0  0  0
 47 49  1  0  0  0  0
 49 54  1  1  0  0  0
 50 51  1  6  0  0  0
 50 42  1  0  0  0  0
 50 47  1  0  0  0  0
 51 53  1  0  0  0  0
 52 51  1  0  0  0  0
 54 55  1  0  0  0  0
M  END
>  <MODEL>
1

>  <REMARK>
 VINA RESULT:      -6.7      0.000      0.000
  Name = 
  8 active torsions:
  status: ('A' for Active; 'I' for Inactive)
    1  A    between atoms: N_1  and  C_53
    2  A    between atoms: C_6  and  C_20
    3  A    between atoms: C_8  and  N_22
    4  A    between atoms: C_8  and  C_43
    5  A    between atoms: C_10  and  C_32
    6  A    between atoms: N_11  and  C_50
    7  A    between atoms: C_20  and  N_22
    8  A    between atoms: C_33  and  C_52
                            x       y       z     vdW  Elec       q    Type
                         _______ _______ _______ _____ _____    ______ ____

>  <TORSDO>
F 8

$$$$
=
 OpenBabel11052414573D

 55 62  0  0  1  0  0  0  0  0999 V2000
  186.8890  178.4660  140.8960 O   0  0  0  0  0  0  0  0  0  0  0  0
  184.0760  178.3110  137.3450 C   0  0  0  0  0  2  0  0  0  0  0  0
  184.3610  179.8800  139.1150 O   0  0  0  0  0  0  0  0  0  0  0  0
  181.4010  178.5650  140.5940 C   0  0  0  0  0  2  0  0  0  0  0  0
  180.0150  178.6520  141.2230 C   0  0  0  0  0  2  0  0  0  0  0  0
  182.3540  179.0300  142.8590 C   0  0  0  0  0  0  0  0  0  0  0  0
  181.0970  179.7180  143.1900 C   0  0  0  0  0  3  0  0  0  0  0  0
  183.9990  177.6700  139.8010 N   0  0  0  0  0  2  0  0  0  0  0  0
  180.0190  179.5760  142.4120 C   0  0  0  0  0  3  0  0  0  0  0  0
  188.3950  179.1880  139.0390 C   0  0  0  0  0  2  0  0  0  0  0  0
  182.4090  178.1110  141.6600 C   0  0  2  0  0  3  0  0  0  0  0  0
  188.9640  176.4410  138.4740 C   0  0  1  0  0  3  0  0  0  0  0  0
  186.1910  177.5030  141.6740 C   0  0  0  0  0  2  0  0  0  0  0  0
  188.0890  176.8260  139.6410 C   0  0  0  0  0  3  0  0  0  0  0  0
  184.6910  178.6550  143.2790 C   0  0  0  0  0  0  0  0  0  0  0  0
  184.9290  175.9880  137.0480 C   0  0  0  0  0  2  0  0  0  0  0  0
  183.4090  179.2230  143.5910 N   0  0  0  0  0  0  0  0  0  0  0  0
  185.2470  177.4600  136.8730 C   0  0  0  0  0  2  0  0  0  0  0  0
  184.1880  178.6690  138.7910 C   0  0  0  0  0  0  0  0  0  0  0  0
  189.8730  178.8670  138.8040 C   0  0  0  0  0  2  0  0  0  0  0  0
  186.0320  175.1220  136.4480 C   0  0  1  0  0  3  0  0  0  0  0  0
  187.7890  178.1110  139.8900 C   0  0  0  0  0  0  0  0  0  0  0  0
  183.7790  178.0310  141.1400 N   0  0  0  0  0  0  0  0  0  0  0  0
  184.8730  178.0630  142.0790 C   0  0  0  0  0  0  0  0  0  0  0  0
  187.2270  175.0130  137.3870 C   0  0  0  0  0  2  0  0  0  0  0  0
  188.0940  176.2710  137.2480 C   0  0  0  0  0  2  0  0  0  0  0  0
  190.0680  177.4770  138.1710 C   0  0  0  0  0  2  0  0  0  0  0  0
  186.9070  177.8330  144.1170 C   0  0  0  0  0  3  0  0  0  0  0  0
  187.2970  177.7460  146.5960 C   0  0  1  0  0  3  0  0  0  0  0  0
  185.2880  178.9660  145.7260 C   0  0  0  0  0  2  0  0  0  0  0  0
  186.4760  179.0450  146.6770 C   0  0  0  0  0  2  0  0  0  0  0  0
  187.6150  177.3760  145.1610 C   0  0  0  0  0  3  0  0  0  0  0  0
  185.7920  178.8400  144.2850 C   0  0  2  0  0  3  0  0  0  0  0  0
  188.5810  177.8330  147.4310 C   0  0  1  0  0  3  0  0  0  0  0  0
  188.2610  178.0630  148.8990 C   0  0  0  0  0  1  0  0  0  0  0  0
  189.3490  176.6050  147.3080 N   0  0  0  0  0  1  0  0  0  0  0  0
  185.4790  173.7390  136.1600 C   0  0  0  0  0  2  0  0  0  0  0  0
  184.1410  173.8540  135.5810 N   0  0  0  0  0  2  0  0  0  0  0  0
  183.6100  171.7670  136.5180 O   0  0  0  0  0  1  0  0  0  0  0  0
  183.1560  173.0790  136.3520 C   0  0  1  0  0  0  0  0  0  0  0  0
  182.9930  173.6610  137.6020 F   0  0  0  0  0  0  0  0  0  0  0  0
  179.1750  173.0670  135.5000 C   0  0  0  0  0  2  0  0  0  0  0  0
  181.8280  173.0470  135.5450 C   0  0  1  0  0  0  0  0  0  0  0  0
  182.0780  175.4910  135.3690 O   0  0  0  0  0  0  0  0  0  0  0  0
  181.4110  174.3520  134.8560 C   0  0  2  0  0  3  0  0  0  0  0  0
  181.2600  176.1070  136.3550 C   0  0  0  0  0  2  0  0  0  0  0  0
  180.0630  174.2890  135.5100 C   0  0  1  0  0  0  0  0  0  0  0  0
  181.8740  172.0140  134.5960 O   0  0  0  0  0  1  0  0  0  0  0  0
  179.8680  175.4880  136.3790 C   0  0  2  0  0  3  0  0  0  0  0  0
  180.4810  173.0000  136.2910 C   0  0  1  0  0  0  0  0  0  0  0  0
  180.4550  173.1970  137.7650 N   0  0  0  0  0  0  0  0  0  0  0  0
  180.7790  172.0140  138.3370 O   0  0  0  0  0  1  0  0  0  0  0  0
  179.1020  173.4920  138.2420 C   0  0  0  0  0  1  0  0  0  0  0  0
  178.9310  176.3920  135.7280 N   0  0  0  0  0  2  0  0  0  0  0  0
  179.4570  177.6860  135.8570 N   0  0  0  0  0  1  0  0  0  0  0  0
  1 13  1  0  0  0  0
  2 19  1  0  0  0  0
  4  5  1  0  0  0  0
  5  9  1  0  0  0  0
  6  7  1  0  0  0  0
  6 17  2  0  0  0  0
  8 23  1  0  0  0  0
  9  7  2  0  0  0  0
 10 22  1  0  0  0  0
 11  4  1  6  0  0  0
 11  6  1  0  0  0  0
 12 26  1  6  0  0  0
 12 14  1  0  0  0  0
 13 24  1  0  0  0  0
 14 22  2  0  0  0  0
 15 17  1  0  0  0  0
 18 16  1  0  0  0  0
 18  2  1  0  0  0  0
 19  3  2  0  0  0  0
 19  8  1  0  0  0  0
 20 10  1  0  0  0  0
 21 37  1  1  0  0  0
 21 16  1  0  0  0  0
 21 25  1  0  0  0  0
 22  1  1  0  0  0  0
 23 11  1  0  0  0  0
 23 24  1  0  0  0  0
 24 15  2  0  0  0  0
 26 25  1  0  0  0  0
 27 12  1  0  0  0  0
 27 20  1  0  0  0  0
 28 33  1  0  0  0  0
 28 32  2  0  0  0  0
 29 31  1  0  0  0  0
 29 34  1  1  0  0  0
 30 31  1  0  0  0  0
 32 29  1  0  0  0  0
 33 15  1  6  0  0  0
 33 30  1  0  0  0  0
 34 35  1  1  0  0  0
 36 34  1  0  0  0  0
 38 37  1  0  0  0  0
 38 40  1  0  0  0  0
 40 39  1  1  0  0  0
 40 41  1  0  0  0  0
 42 50  1  0  0  0  0
 43 48  1  6  0  0  0
 43 50  1  0  0  0  0
 43 40  1  0  0  0  0
 44 46  1  0  0  0  0
 45 44  1  1  0  0  0
 45 47  1  0  0  0  0
 45 43  1  0  0  0  0
 46 49  1  0  0  0  0
 47 42  1  6  0  0  0
 47 50  1  0  0  0  0
 47 49  1  0  0  0  0
 49 54  1  6  0  0  0
 50 51  1  1  0  0  0
 51 53  1  0  0  0  0
 51 52  1  0  0  0  0
 54 55  1  0  0  0  0
M  END
>  <MODEL>
2

>  <REMARK>
 VINA RESULT:      -6.1      3.093     10.808
  Name = 
  8 active torsions:
  status: ('A' for Active; 'I' for Inactive)
    1  A    between atoms: N_1  and  C_53
    2  A    between atoms: C_6  and  C_20
    3  A    between atoms: C_8  and  N_22
    4  A    between atoms: C_8  and  C_43
    5  A    between atoms: C_10  and  C_32
    6  A    between atoms: N_11  and  C_50
    7  A    between atoms: C_20  and  N_22
    8  A    between atoms: C_33  and  C_52
                            x       y       z     vdW  Elec       q    Type
                         _______ _______ _______ _____ _____    ______ ____

>  <TORSDO>
F 8

$$$$
=
 OpenBabel11052414573D

 55 62  0  0  1  0  0  0  0  0999 V2000
  189.9400  177.2080  141.9550 O   0  0  0  0  0  0  0  0  0  0  0  0
  187.0230  179.0370  139.0060 C   0  0  0  0  0  2  0  0  0  0  0  0
  187.8580  179.7630  141.1150 O   0  0  0  0  0  0  0  0  0  0  0  0
  184.7250  178.8470  142.5350 C   0  0  0  0  0  2  0  0  0  0  0  0
  183.4640  179.0710  143.3620 C   0  0  0  0  0  2  0  0  0  0  0  0
  185.8930  178.2320  144.6590 C   0  0  0  0  0  0  0  0  0  0  0  0
  184.9190  179.0680  145.3770 C   0  0  0  0  0  3  0  0  0  0  0  0
  186.8890  177.6310  141.1160 N   0  0  0  0  0  2  0  0  0  0  0  0
  183.8070  179.4920  144.7660 C   0  0  0  0  0  3  0  0  0  0  0  0
  191.4900  178.1040  140.2140 C   0  0  0  0  0  2  0  0  0  0  0  0
  185.6060  177.8030  143.2370 C   0  0  2  0  0  3  0  0  0  0  0  0
  191.1820  175.6760  138.7330 C   0  0  1  0  0  3  0  0  0  0  0  0
  189.0290  176.2550  142.4860 C   0  0  0  0  0  2  0  0  0  0  0  0
  190.5250  175.8500  140.0810 C   0  0  0  0  0  3  0  0  0  0  0  0
  188.0300  177.1340  144.5800 C   0  0  0  0  0  0  0  0  0  0  0  0
  187.1260  176.8230  137.8660 C   0  0  0  0  0  2  0  0  0  0  0  0
  186.9950  177.8740  145.2460 N   0  0  0  0  0  0  0  0  0  0  0  0
  187.8590  178.1250  138.1180 C   0  0  0  0  0  2  0  0  0  0  0  0
  187.3140  178.8300  140.4570 C   0  0  0  0  0  0  0  0  0  0  0  0
  192.7900  177.5080  139.6690 C   0  0  0  0  0  2  0  0  0  0  0  0
  187.8840  175.9590  136.8630 C   0  0  1  0  0  3  0  0  0  0  0  0
  190.6370  177.0000  140.7640 C   0  0  0  0  0  0  0  0  0  0  0  0
  186.8590  177.5510  142.5180 N   0  0  0  0  0  0  0  0  0  0  0  0
  187.9620  176.9670  143.2410 C   0  0  0  0  0  0  0  0  0  0  0  0
  189.0410  175.2220  137.5280 C   0  0  0  0  0  2  0  0  0  0  0  0
  190.2360  176.1760  137.6620 C   0  0  0  0  0  2  0  0  0  0  0  0
  192.5270  176.4230  138.6080 C   0  0  0  0  0  2  0  0  0  0  0  0
  188.8250  176.4970  146.8720 C   0  0  0  0  0  3  0  0  0  0  0  0
  191.1120  177.2350  147.5980 C   0  0  1  0  0  3  0  0  0  0  0  0
  190.4710  177.4670  145.1850 C   0  0  0  0  0  2  0  0  0  0  0  0
  191.5530  176.9840  146.1440 C   0  0  0  0  0  2  0  0  0  0  0  0
  189.7130  176.7140  147.8540 C   0  0  0  0  0  3  0  0  0  0  0  0
  189.1880  176.6620  145.4140 C   0  0  2  0  0  3  0  0  0  0  0  0
  192.1070  176.6390  148.6030 C   0  0  1  0  0  3  0  0  0  0  0  0
  193.0710  175.6860  147.9140 C   0  0  0  0  0  1  0  0  0  0  0  0
  192.8730  177.6960  149.2440 N   0  0  0  0  0  1  0  0  0  0  0  0
  186.9290  174.9590  136.2420 C   0  0  0  0  0  2  0  0  0  0  0  0
  185.6910  175.6350  135.8560 N   0  0  0  0  0  2  0  0  0  0  0  0
  184.4210  173.6720  135.6270 O   0  0  0  0  0  1  0  0  0  0  0  0
  184.5090  174.8880  136.3130 C   0  0  1  0  0  0  0  0  0  0  0  0
  184.6270  174.6300  137.6720 F   0  0  0  0  0  0  0  0  0  0  0  0
  180.6790  176.2680  136.3970 C   0  0  0  0  0  2  0  0  0  0  0  0
  183.2460  175.7330  135.9860 C   0  0  1  0  0  0  0  0  0  0  0  0
  184.0830  177.3170  137.6780 O   0  0  0  0  0  0  0  0  0  0  0  0
  183.1830  177.1380  136.5990 C   0  0  2  0  0  3  0  0  0  0  0  0
  183.3970  177.0850  138.9010 C   0  0  0  0  0  2  0  0  0  0  0  0
  181.8340  176.8440  137.1830 C   0  0  1  0  0  0  0  0  0  0  0  0
  183.0810  175.8230  134.5960 O   0  0  0  0  0  1  0  0  0  0  0  0
  181.8970  176.9440  138.6720 C   0  0  2  0  0  3  0  0  0  0  0  0
  181.8980  175.3780  136.6430 C   0  0  1  0  0  0  0  0  0  0  0  0
  181.8590  174.3680  137.7340 N   0  0  0  0  0  0  0  0  0  0  0  0
  182.0370  173.1530  137.1660 O   0  0  0  0  0  1  0  0  0  0  0  0
  180.5360  174.3070  138.3590 C   0  0  0  0  0  1  0  0  0  0  0  0
  181.2330  178.1700  139.0880 N   0  0  0  0  0  2  0  0  0  0  0  0
  181.7530  178.5080  140.3470 N   0  0  0  0  0  1  0  0  0  0  0  0
  1 13  1  0  0  0  0
  2 19  1  0  0  0  0
  4  5  1  0  0  0  0
  5  9  1  0  0  0  0
  6 17  2  0  0  0  0
  6  7  1  0  0  0  0
  8 23  1  0  0  0  0
  9  7  2  0  0  0  0
 10 22  1  0  0  0  0
 11  4  1  6  0  0  0
 11  6  1  0  0  0  0
 12 26  1  6  0  0  0
 12 14  1  0  0  0  0
 13 24  1  0  0  0  0
 14 22  2  0  0  0  0
 15 17  1  0  0  0  0
 16 18  1  0  0  0  0
 18  2  1  0  0  0  0
 19  3  2  0  0  0  0
 19  8  1  0  0  0  0
 20 10  1  0  0  0  0
 21 37  1  1  0  0  0
 21 25  1  0  0  0  0
 21 16  1  0  0  0  0
 22  1  1  0  0  0  0
 23 11  1  0  0  0  0
 23 24  1  0  0  0  0
 24 15  2  0  0  0  0
 25 26  1  0  0  0  0
 27 12  1  0  0  0  0
 27 20  1  0  0  0  0
 28 32  2  0  0  0  0
 29 32  1  0  0  0  0
 29 34  1  1  0  0  0
 30 33  1  0  0  0  0
 30 31  1  0  0  0  0
 31 29  1  0  0  0  0
 33 15  1  6  0  0  0
 33 28  1  0  0  0  0
 34 35  1  6  0  0  0
 34 36  1  0  0  0  0
 38 37  1  0  0  0  0
 38 40  1  0  0  0  0
 40 39  1  6  0  0  0
 40 41  1  0  0  0  0
 42 50  1  0  0  0  0
 43 48  1  6  0  0  0
 43 40  1  0  0  0  0
 43 45  1  0  0  0  0
 43 50  1  0  0  0  0
 44 46  1  0  0  0  0
 45 47  1  0  0  0  0
 45 44  1  1  0  0  0
 47 42  1  6  0  0  0
 47 49  1  0  0  0  0
 49 46  1  0  0  0  0
 49 54  1  6  0  0  0
 50 47  1  0  0  0  0
 50 51  1  1  0  0  0
 51 53  1  0  0  0  0
 52 51  1  0  0  0  0
 54 55  1  0  0  0  0
M  END
>  <MODEL>
3

>  <REMARK>
 VINA RESULT:      -5.9      2.855     10.722
  Name = 
  8 active torsions:
  status: ('A' for Active; 'I' for Inactive)
    1  A    between atoms: N_1  and  C_53
    2  A    between atoms: C_6  and  C_20
    3  A    between atoms: C_8  and  N_22
    4  A    between atoms: C_8  and  C_43
    5  A    between atoms: C_10  and  C_32
    6  A    between atoms: N_11  and  C_50
    7  A    between atoms: C_20  and  N_22
    8  A    between atoms: C_33  and  C_52
                            x       y       z     vdW  Elec       q    Type
                         _______ _______ _______ _____ _____    ______ ____

>  <TORSDO>
F 8

$$$$
=
 OpenBabel11052414573D

 55 62  0  0  1  0  0  0  0  0999 V2000
  190.2010  177.1170  141.6730 O   0  0  0  0  0  0  0  0  0  0  0  0
  187.3870  178.9040  138.6010 C   0  0  0  0  0  2  0  0  0  0  0  0
  188.1960  179.6860  140.7000 O   0  0  0  0  0  0  0  0  0  0  0  0
  185.0150  178.8920  142.0860 C   0  0  0  0  0  2  0  0  0  0  0  0
  183.7430  179.1750  142.8790 C   0  0  0  0  0  2  0  0  0  0  0  0
  186.1250  178.3280  144.2540 C   0  0  0  0  0  0  0  0  0  0  0  0
  185.1570  179.2100  144.9220 C   0  0  0  0  0  3  0  0  0  0  0  0
  187.1780  177.5780  140.7560 N   0  0  0  0  0  2  0  0  0  0  0  0
  184.0680  179.6380  144.2730 C   0  0  0  0  0  3  0  0  0  0  0  0
  191.8060  177.9140  139.9340 C   0  0  0  0  0  2  0  0  0  0  0  0
  185.8570  177.8550  142.8430 C   0  0  2  0  0  3  0  0  0  0  0  0
  191.4700  175.4420  138.5330 C   0  0  1  0  0  3  0  0  0  0  0  0
  189.2570  176.2040  142.2180 C   0  0  0  0  0  2  0  0  0  0  0  0
  190.7910  175.6790  139.8600 C   0  0  0  0  0  3  0  0  0  0  0  0
  188.2370  177.1790  144.2590 C   0  0  0  0  0  0  0  0  0  0  0  0
  187.4600  176.6490  137.5430 C   0  0  0  0  0  2  0  0  0  0  0  0
  187.2070  177.9660  144.8760 N   0  0  0  0  0  0  0  0  0  0  0  0
  188.2190  177.9420  137.7630 C   0  0  0  0  0  2  0  0  0  0  0  0
  187.6440  178.7420  140.0640 C   0  0  0  0  0  0  0  0  0  0  0  0
  193.1020  177.2690  139.4370 C   0  0  0  0  0  2  0  0  0  0  0  0
  188.2190  175.7330  136.5870 C   0  0  1  0  0  3  0  0  0  0  0  0
  190.9160  176.8500  140.5050 C   0  0  0  0  0  0  0  0  0  0  0  0
  187.1180  177.5480  142.1590 N   0  0  0  0  0  0  0  0  0  0  0  0
  188.1920  176.9660  142.9250 C   0  0  0  0  0  0  0  0  0  0  0  0
  189.3440  174.9940  137.3010 C   0  0  0  0  0  2  0  0  0  0  0  0
  190.5590  175.9250  137.4260 C   0  0  0  0  0  2  0  0  0  0  0  0
  192.8350  176.1530  138.4100 C   0  0  0  0  0  2  0  0  0  0  0  0
  188.9220  176.4070  146.5440 C   0  0  0  0  0  3  0  0  0  0  0  0
  191.1040  177.2190  147.4830 C   0  0  1  0  0  3  0  0  0  0  0  0
  190.6070  177.6070  145.0570 C   0  0  0  0  0  2  0  0  0  0  0  0
  191.6540  177.1130  146.0490 C   0  0  0  0  0  2  0  0  0  0  0  0
  189.7290  176.5960  147.6000 C   0  0  0  0  0  3  0  0  0  0  0  0
  189.3680  176.7120  145.1320 C   0  0  2  0  0  3  0  0  0  0  0  0
  192.0690  176.6030  148.5060 C   0  0  1  0  0  3  0  0  0  0  0  0
  193.0610  175.6730  147.8270 C   0  0  0  0  0  1  0  0  0  0  0  0
  192.8070  177.6490  149.1980 N   0  0  0  0  0  1  0  0  0  0  0  0
  187.2520  174.7340  135.9810 C   0  0  0  0  0  2  0  0  0  0  0  0
  185.9690  175.3840  135.7200 N   0  0  0  0  0  2  0  0  0  0  0  0
  183.9640  174.8340  134.6270 O   0  0  0  0  0  1  0  0  0  0  0  0
  184.8870  174.3980  135.5840 C   0  0  1  0  0  0  0  0  0  0  0  0
  185.4220  173.1840  135.1730 F   0  0  0  0  0  0  0  0  0  0  0  0
  182.5290  175.3120  138.7750 C   0  0  0  0  0  2  0  0  0  0  0  0
  184.1630  174.2830  136.9540 C   0  0  1  0  0  0  0  0  0  0  0  0
  182.4030  173.0730  135.7260 O   0  0  0  0  0  0  0  0  0  0  0  0
  182.9320  173.3690  137.0060 C   0  0  2  0  0  3  0  0  0  0  0  0
  181.3420  173.9750  135.4390 C   0  0  0  0  0  2  0  0  0  0  0  0
  182.1080  174.4790  137.5860 C   0  0  1  0  0  0  0  0  0  0  0  0
  185.0770  173.8890  137.9430 O   0  0  0  0  0  1  0  0  0  0  0  0
  180.9770  174.8020  136.6650 C   0  0  2  0  0  3  0  0  0  0  0  0
  183.3190  175.4630  137.4750 C   0  0  1  0  0  0  0  0  0  0  0  0
  183.0350  176.6120  136.5740 N   0  0  0  0  0  0  0  0  0  0  0  0
  184.2140  177.2280  136.3220 O   0  0  0  0  0  1  0  0  0  0  0  0
  182.2120  177.6230  137.2400 C   0  0  0  0  0  1  0  0  0  0  0  0
  179.7430  174.2880  137.2390 N   0  0  0  0  0  2  0  0  0  0  0  0
  179.1300  173.5030  136.2510 N   0  0  0  0  0  1  0  0  0  0  0  0
  1 13  1  0  0  0  0
  2 19  1  0  0  0  0
  4  5  1  0  0  0  0
  5  9  1  0  0  0  0
  6 17  2  0  0  0  0
  6  7  1  0  0  0  0
  8 23  1  0  0  0  0
  9  7  2  0  0  0  0
 10 22  1  0  0  0  0
 11  4  1  6  0  0  0
 11  6  1  0  0  0  0
 12 26  1  6  0  0  0
 12 14  1  0  0  0  0
 13 24  1  0  0  0  0
 14 22  2  0  0  0  0
 15 17  1  0  0  0  0
 16 18  1  0  0  0  0
 18  2  1  0  0  0  0
 19  3  2  0  0  0  0
 19  8  1  0  0  0  0
 20 10  1  0  0  0  0
 21 37  1  1  0  0  0
 21 25  1  0  0  0  0
 21 16  1  0  0  0  0
 22  1  1  0  0  0  0
 23 11  1  0  0  0  0
 23 24  1  0  0  0  0
 24 15  2  0  0  0  0
 25 26  1  0  0  0  0
 27 12  1  0  0  0  0
 27 20  1  0  0  0  0
 28 32  2  0  0  0  0
 29 32  1  0  0  0  0
 29 34  1  1  0  0  0
 30 33  1  0  0  0  0
 30 31  1  0  0  0  0
 31 29  1  0  0  0  0
 33 15  1  6  0  0  0
 33 28  1  0  0  0  0
 34 35  1  6  0  0  0
 34 36  1  0  0  0  0
 38 37  1  0  0  0  0
 40 39  1  6  0  0  0
 40 38  1  0  0  0  0
 40 43  1  0  0  0  0
 41 40  1  0  0  0  0
 43 45  1  0  0  0  0
 43 50  1  0  0  0  0
 43 48  1  1  0  0  0
 45 44  1  6  0  0  0
 45 47  1  0  0  0  0
 46 44  1  0  0  0  0
 46 49  1  0  0  0  0
 47 42  1  1  0  0  0
 49 54  1  1  0  0  0
 49 47  1  0  0  0  0
 50 51  1  6  0  0  0
 50 47  1  0  0  0  0
 50 42  1  0  0  0  0
 51 53  1  0  0  0  0
 52 51  1  0  0  0  0
 55 54  1  0  0  0  0
M  END
>  <MODEL>
4

>  <REMARK>
 VINA RESULT:      -4.8      2.746     10.846
  Name = 
  8 active torsions:
  status: ('A' for Active; 'I' for Inactive)
    1  A    between atoms: N_1  and  C_53
    2  A    between atoms: C_6  and  C_20
    3  A    between atoms: C_8  and  N_22
    4  A    between atoms: C_8  and  C_43
    5  A    between atoms: C_10  and  C_32
    6  A    between atoms: N_11  and  C_50
    7  A    between atoms: C_20  and  N_22
    8  A    between atoms: C_33  and  C_52
                            x       y       z     vdW  Elec       q    Type
                         _______ _______ _______ _____ _____    ______ ____

>  <TORSDO>
F 8

$$$$
=
 OpenBabel11052414573D

 55 62  0  0  1  0  0  0  0  0999 V2000
  182.3580  176.3400  137.3550 O   0  0  0  0  0  0  0  0  0  0  0  0
  185.7200  179.1410  138.5380 C   0  0  0  0  0  2  0  0  0  0  0  0
  185.1410  178.0880  136.4820 O   0  0  0  0  0  0  0  0  0  0  0  0
  187.8200  175.8100  137.0350 C   0  0  0  0  0  2  0  0  0  0  0  0
  189.0830  175.0430  136.6580 C   0  0  0  0  0  2  0  0  0  0  0  0
  186.5060  174.0200  135.8870 C   0  0  0  0  0  0  0  0  0  0  0  0
  187.6880  173.7570  135.0530 C   0  0  0  0  0  3  0  0  0  0  0  0
  185.3930  176.6350  138.3010 N   0  0  0  0  0  2  0  0  0  0  0  0
  188.8800  174.2620  135.3870 C   0  0  0  0  0  3  0  0  0  0  0  0
  181.1780  178.5410  137.3990 C   0  0  0  0  0  2  0  0  0  0  0  0
  186.6520  174.8210  137.1610 C   0  0  2  0  0  3  0  0  0  0  0  0
  180.7180  178.2040  140.2020 C   0  0  1  0  0  3  0  0  0  0  0  0
  182.9210  175.1800  137.9530 C   0  0  0  0  0  2  0  0  0  0  0  0
  181.3880  177.1210  139.3920 C   0  0  0  0  0  3  0  0  0  0  0  0
  184.1320  173.8610  136.2360 C   0  0  0  0  0  0  0  0  0  0  0  0
  184.9340  178.7470  140.8700 C   0  0  0  0  0  2  0  0  0  0  0  0
  185.3430  173.5700  135.5200 N   0  0  0  0  0  0  0  0  0  0  0  0
  184.6450  179.4650  139.5680 C   0  0  0  0  0  2  0  0  0  0  0  0
  185.3700  177.9430  137.7180 C   0  0  0  0  0  0  0  0  0  0  0  0
  179.7600  178.8750  137.8680 C   0  0  0  0  0  2  0  0  0  0  0  0
  183.9490  179.1730  141.9540 C   0  0  1  0  0  3  0  0  0  0  0  0
  181.6380  177.2880  138.0830 C   0  0  0  0  0  0  0  0  0  0  0  0
  185.3870  175.4850  137.4940 N   0  0  0  0  0  0  0  0  0  0  0  0
  184.1530  174.7960  137.2110 C   0  0  0  0  0  0  0  0  0  0  0  0
  182.6150  178.4500  141.8090 C   0  0  0  0  0  2  0  0  0  0  0  0
  181.7790  179.1470  140.7270 C   0  0  0  0  0  2  0  0  0  0  0  0
  179.6760  179.0120  139.3990 C   0  0  0  0  0  2  0  0  0  0  0  0
  181.9210  172.9010  136.9260 C   0  0  0  0  0  3  0  0  0  0  0  0
  181.1770  170.7360  135.8950 C   0  0  1  0  0  3  0  0  0  0  0  0
  183.1460  171.9350  134.9110 C   0  0  0  0  0  2  0  0  0  0  0  0
  181.8270  171.2390  134.5940 C   0  0  0  0  0  2  0  0  0  0  0  0
  181.1200  171.8240  136.9470 C   0  0  0  0  0  3  0  0  0  0  0  0
  182.8790  173.1620  135.7870 C   0  0  2  0  0  3  0  0  0  0  0  0
  179.7800  170.1520  135.6410 C   0  0  1  0  0  3  0  0  0  0  0  0
  178.9350  170.1930  136.9040 C   0  0  0  0  0  1  0  0  0  0  0  0
  179.0990  170.9060  134.5990 N   0  0  0  0  0  1  0  0  0  0  0  0
  184.5460  178.8780  143.3160 C   0  0  0  0  0  2  0  0  0  0  0  0
  185.4840  177.7600  143.2110 N   0  0  0  0  0  2  0  0  0  0  0  0
  187.3980  179.0700  142.8400 O   0  0  0  0  0  1  0  0  0  0  0  0
  186.8190  178.1340  143.7030 C   0  0  1  0  0  0  0  0  0  0  0  0
  186.7000  178.6990  144.9650 F   0  0  0  0  0  0  0  0  0  0  0  0
  189.8360  175.5390  142.8390 C   0  0  0  0  0  2  0  0  0  0  0  0
  187.7050  176.8570  143.7150 C   0  0  1  0  0  0  0  0  0  0  0  0
  188.8450  177.8780  145.6450 O   0  0  0  0  0  0  0  0  0  0  0  0
  188.6370  176.6800  144.9200 C   0  0  2  0  0  3  0  0  0  0  0  0
  190.0450  178.4940  145.1950 C   0  0  0  0  0  2  0  0  0  0  0  0
  189.8130  176.4970  144.0080 C   0  0  1  0  0  0  0  0  0  0  0  0
  186.8980  175.7170  143.5790 O   0  0  0  0  0  1  0  0  0  0  0  0
  190.8180  177.5730  144.2590 C   0  0  2  0  0  3  0  0  0  0  0  0
  188.9080  176.7520  142.7580 C   0  0  1  0  0  0  0  0  0  0  0  0
  189.3340  177.9490  141.9850 N   0  0  0  0  0  0  0  0  0  0  0  0
  188.6620  177.9320  140.8100 O   0  0  0  0  0  1  0  0  0  0  0  0
  190.7490  177.8730  141.6150 C   0  0  0  0  0  1  0  0  0  0  0  0
  191.9480  177.0010  144.9760 N   0  0  0  0  0  2  0  0  0  0  0  0
  191.4300  176.3740  146.1190 N   0  0  0  0  0  1  0  0  0  0  0  0
  1 13  1  0  0  0  0
  1 22  1  0  0  0  0
  2 18  1  0  0  0  0
  3 19  2  0  0  0  0
  5  4  1  0  0  0  0
  6 11  1  0  0  0  0
  7  9  2  0  0  0  0
  7  6  1  0  0  0  0
  9  5  1  0  0  0  0
 10 20  1  0  0  0  0
 10 22  1  0  0  0  0
 11  4  1  6  0  0  0
 11 23  1  0  0  0  0
 12 14  1  6  0  0  0
 12 26  1  0  0  0  0
 15 24  2  0  0  0  0
 16 21  1  0  0  0  0
 17  6  2  0  0  0  0
 17 15  1  0  0  0  0
 18 16  1  0  0  0  0
 19  8  1  0  0  0  0
 19  2  1  0  0  0  0
 20 27  1  0  0  0  0
 21 37  1  1  0  0  0
 22 14  2  0  0  0  0
 23  8  1  0  0  0  0
 24 23  1  0  0  0  0
 24 13  1  0  0  0  0
 25 21  1  0  0  0  0
 26 25  1  0  0  0  0
 27 12  1  0  0  0  0
 28 32  2  0  0  0  0
 29 34  1  6  0  0  0
 29 32  1  0  0  0  0
 30 33  1  0  0  0  0
 31 30  1  0  0  0  0
 31 29  1  0  0  0  0
 33 15  1  1  0  0  0
 33 28  1  0  0  0  0
 34 35  1  1  0  0  0
 36 34  1  0  0  0  0
 38 37  1  0  0  0  0
 38 40  1  0  0  0  0
 40 39  1  6  0  0  0
 40 43  1  0  0  0  0
 40 41  1  0  0  0  0
 43 48  1  6  0  0  0
 43 45  1  0  0  0  0
 45 44  1  1  0  0  0
 46 44  1  0  0  0  0
 47 42  1  1  0  0  0
 47 49  1  0  0  0  0
 47 45  1  0  0  0  0
 49 54  1  1  0  0  0
 49 46  1  0  0  0  0
 50 51  1  6  0  0  0
 50 42  1  0  0  0  0
 50 43  1  0  0  0  0
 50 47  1  0  0  0  0
 52 51  1  0  0  0  0
 53 51  1  0  0  0  0
 54 55  1  0  0  0  0
M  END
>  <MODEL>
5

>  <REMARK>
 VINA RESULT:      -3.7      1.769      2.356
  Name = 
  8 active torsions:
  status: ('A' for Active; 'I' for Inactive)
    1  A    between atoms: N_1  and  C_53
    2  A    between atoms: C_6  and  C_20
    3  A    between atoms: C_8  and  N_22
    4  A    between atoms: C_8  and  C_43
    5  A    between atoms: C_10  and  C_32
    6  A    between atoms: N_11  and  C_50
    7  A    between atoms: C_20  and  N_22
    8  A    between atoms: C_33  and  C_52
                            x       y       z     vdW  Elec       q    Type
                         _______ _______ _______ _____ _____    ______ ____

>  <TORSDO>
F 8

$$$$
