=
 OpenBabel11052415523D

 34 37  0  0  1  0  0  0  0  0999 V2000
  189.0610  177.1690  143.1420 C   0  0  0  0  0  0  0  0  0  0  0  0
  189.6680  177.8530  145.8390 C   0  0  0  0  0  3  0  0  0  0  0  0
  191.3950  178.0800  142.7760 C   0  0  0  0  0  3  0  0  0  0  0  0
  192.2960  178.5870  143.6560 N   0  0  0  0  0  0  0  0  0  0  0  0
  190.5670  178.0630  144.8000 C   0  0  0  0  0  0  0  0  0  0  0  0
  190.2760  177.7430  143.5090 C   0  0  0  0  0  0  0  0  0  0  0  0
  191.7720  178.5610  144.8520 O   0  0  0  0  0  0  0  0  0  0  0  0
  188.4130  177.3040  145.5130 C   0  0  0  0  0  0  0  0  0  0  0  0
  186.8290  176.4970  143.8570 O   0  0  0  0  0  1  0  0  0  0  0  0
  188.0980  176.9760  144.1670 C   0  0  0  0  0  0  0  0  0  0  0  0
  187.4240  177.0620  146.6050 C   0  0  0  0  0  2  0  0  0  0  0  0
  187.2870  178.2950  147.4920 C   0  0  2  0  0  3  0  0  0  0  0  0
  187.2730  177.9210  148.8240 F   0  0  0  0  0  0  0  0  0  0  0  0
  186.0180  179.0700  147.1570 C   0  0  0  0  0  0  0  0  0  0  0  0
  186.0070  179.3990  145.8130 F   0  0  0  0  0  0  0  0  0  0  0  0
  185.9830  180.2340  147.9020 F   0  0  0  0  0  0  0  0  0  0  0  0
  184.9000  178.3110  147.4520 F   0  0  0  0  0  0  0  0  0  0  0  0
  188.8050  176.8480  141.7680 N   0  0  0  0  0  2  0  0  0  0  0  0
  188.3670  177.7810  140.7780 C   0  0  0  0  0  0  0  0  0  0  0  0
  188.9270  177.6040  139.2490 S   0  0  0  0  0  0  0  0  0  0  0  0
  187.4610  178.8380  141.1440 N   0  0  0  0  0  2  0  0  0  0  0  0
  183.8390  178.7500  140.2650 C   0  0  0  0  0  3  0  0  0  0  0  0
  185.4270  178.8490  142.5720 C   0  0  0  0  0  3  0  0  0  0  0  0
  181.2340  178.8180  142.9010 C   0  0  0  0  0  0  0  0  0  0  0  0
  181.8430  178.7760  141.6370 C   0  0  0  0  0  3  0  0  0  0  0  0
  183.2350  178.7870  141.5230 C   0  0  0  0  0  0  0  0  0  0  0  0
  183.4320  178.8810  143.9440 C   0  0  0  0  0  3  0  0  0  0  0  0
  184.0350  178.8390  142.6850 C   0  0  0  0  0  0  0  0  0  0  0  0
  182.0370  178.8700  144.0500 C   0  0  0  0  0  3  0  0  0  0  0  0
  186.0370  178.7980  141.3080 C   0  0  0  0  0  0  0  0  0  0  0  0
  185.2340  178.7600  140.1610 C   0  0  0  0  0  3  0  0  0  0  0  0
  179.7660  178.8070  143.0200 C   0  0  0  0  0  0  0  0  0  0  0  0
  179.0800  179.9110  143.6040 N   0  0  0  0  0  1  0  0  0  0  0  0
  179.1010  177.8190  142.6060 O   0  0  0  0  0  0  0  0  0  0  0  0
  1  6  2  0  0  0  0
  1 10  1  0  0  0  0
  3  6  1  0  0  0  0
  3  4  2  0  0  0  0
  4  7  1  0  0  0  0
  5  7  1  0  0  0  0
  5  2  2  0  0  0  0
  6  5  1  0  0  0  0
  8  2  1  0  0  0  0
  8 11  1  0  0  0  0
  9 10  1  0  0  0  0
 10  8  2  0  0  0  0
 11 12  1  0  0  0  0
 12 13  1  1  0  0  0
 14 17  1  0  0  0  0
 14 12  1  0  0  0  0
 14 16  1  0  0  0  0
 15 14  1  0  0  0  0
 18  1  1  0  0  0  0
 19 21  1  0  0  0  0
 19 18  1  0  0  0  0
 20 19  2  0  0  0  0
 21 30  1  0  0  0  0
 22 26  1  0  0  0  0
 23 28  1  0  0  0  0
 24 32  1  0  0  0  0
 24 29  1  0  0  0  0
 25 24  2  0  0  0  0
 26 25  1  0  0  0  0
 26 28  2  0  0  0  0
 27 29  2  0  0  0  0
 28 27  1  0  0  0  0
 30 23  2  0  0  0  0
 31 22  2  0  0  0  0
 31 30  1  0  0  0  0
 32 33  1  0  0  0  0
 34 32  2  0  0  0  0
M  END
>  <MODEL>
1

>  <REMARK>
 VINA RESULT:      -9.0      0.000      0.000
  Name = 
  8 active torsions:
  status: ('A' for Active; 'I' for Inactive)
    1  A    between atoms: C_1  and  N_9
    2  A    between atoms: C_2  and  C_23
    3  A    between atoms: C_2  and  C_32
    4  A    between atoms: C_3  and  C_23
    5  A    between atoms: C_7  and  C_11
    6  A    between atoms: C_8  and  N_9
    7  A    between atoms: C_8  and  N_18
    8  A    between atoms: N_18  and  C_30
                            x       y       z     vdW  Elec       q    Type
                         _______ _______ _______ _____ _____    ______ ____

>  <TORSDO>
F 8

$$$$
=
 OpenBabel11052415523D

 34 37  0  0  1  0  0  0  0  0999 V2000
  186.6310  178.5770  139.6180 C   0  0  0  0  0  0  0  0  0  0  0  0
  188.7320  176.9630  138.5740 C   0  0  0  0  0  3  0  0  0  0  0  0
  185.4400  177.7030  137.5620 C   0  0  0  0  0  3  0  0  0  0  0  0
  185.8580  176.8540  136.5890 N   0  0  0  0  0  0  0  0  0  0  0  0
  187.4980  177.0730  137.9440 C   0  0  0  0  0  0  0  0  0  0  0  0
  186.4950  177.8500  138.4370 C   0  0  0  0  0  0  0  0  0  0  0  0
  187.0870  176.4970  136.8470 O   0  0  0  0  0  0  0  0  0  0  0  0
  188.9280  177.7040  139.7540 C   0  0  0  0  0  0  0  0  0  0  0  0
  188.1270  179.3010  141.4010 O   0  0  0  0  0  1  0  0  0  0  0  0
  187.8900  178.5250  140.2710 C   0  0  0  0  0  0  0  0  0  0  0  0
  190.2410  177.6060  140.4600 C   0  0  0  0  0  2  0  0  0  0  0  0
  190.2000  176.5150  141.5250 C   0  0  2  0  0  3  0  0  0  0  0  0
  188.8910  176.2740  141.9050 F   0  0  0  0  0  0  0  0  0  0  0  0
  191.0300  176.9080  142.7410 C   0  0  0  0  0  0  0  0  0  0  0  0
  190.8930  175.9540  143.7340 F   0  0  0  0  0  0  0  0  0  0  0  0
  190.5860  178.1240  143.2250 F   0  0  0  0  0  0  0  0  0  0  0  0
  192.3650  177.0200  142.3940 F   0  0  0  0  0  0  0  0  0  0  0  0
  185.5420  179.3780  140.0960 N   0  0  0  0  0  2  0  0  0  0  0  0
  184.2700  178.8700  140.5040 C   0  0  0  0  0  0  0  0  0  0  0  0
  182.9410  179.3740  139.6900 S   0  0  0  0  0  0  0  0  0  0  0  0
  184.1900  177.9460  141.6050 N   0  0  0  0  0  2  0  0  0  0  0  0
  184.6250  178.8260  145.2010 C   0  0  0  0  0  3  0  0  0  0  0  0
  186.0640  177.5230  143.1810 C   0  0  0  0  0  3  0  0  0  0  0  0
  187.7230  177.9230  147.0250 C   0  0  0  0  0  0  0  0  0  0  0  0
  186.4460  178.4380  146.7500 C   0  0  0  0  0  3  0  0  0  0  0  0
  185.8920  178.3090  145.4750 C   0  0  0  0  0  0  0  0  0  0  0  0
  187.8880  177.1400  144.7270 C   0  0  0  0  0  3  0  0  0  0  0  0
  186.6180  177.6540  144.4560 C   0  0  0  0  0  0  0  0  0  0  0  0
  188.4370  177.2740  146.0060 C   0  0  0  0  0  3  0  0  0  0  0  0
  184.7840  178.0310  142.9080 C   0  0  0  0  0  0  0  0  0  0  0  0
  184.0770  178.6900  143.9220 C   0  0  0  0  0  3  0  0  0  0  0  0
  188.3070  178.0610  148.3700 C   0  0  0  0  0  0  0  0  0  0  0  0
  189.6950  178.3390  148.5300 N   0  0  0  0  0  1  0  0  0  0  0  0
  187.5830  177.9330  149.3940 O   0  0  0  0  0  0  0  0  0  0  0  0
  1 18  1  0  0  0  0
  1 10  1  0  0  0  0
  2  8  1  0  0  0  0
  3  6  1  0  0  0  0
  4  7  1  0  0  0  0
  4  3  2  0  0  0  0
  5  6  1  0  0  0  0
  5  2  2  0  0  0  0
  6  1  2  0  0  0  0
  7  5  1  0  0  0  0
  8 10  2  0  0  0  0
  8 11  1  0  0  0  0
 10  9  1  0  0  0  0
 11 12  1  0  0  0  0
 12 13  1  1  0  0  0
 12 14  1  0  0  0  0
 14 16  1  0  0  0  0
 14 15  1  0  0  0  0
 17 14  1  0  0  0  0
 18 19  1  0  0  0  0
 19 21  1  0  0  0  0
 20 19  2  0  0  0  0
 21 30  1  0  0  0  0
 22 26  1  0  0  0  0
 23 28  1  0  0  0  0
 24 32  1  0  0  0  0
 25 24  1  0  0  0  0
 26 25  2  0  0  0  0
 27 29  1  0  0  0  0
 28 27  2  0  0  0  0
 28 26  1  0  0  0  0
 29 24  2  0  0  0  0
 30 23  2  0  0  0  0
 30 31  1  0  0  0  0
 31 22  2  0  0  0  0
 32 33  1  0  0  0  0
 32 34  2  0  0  0  0
M  END
>  <MODEL>
2

>  <REMARK>
 VINA RESULT:      -8.8      3.807      6.776
  Name = 
  8 active torsions:
  status: ('A' for Active; 'I' for Inactive)
    1  A    between atoms: C_1  and  N_9
    2  A    between atoms: C_2  and  C_23
    3  A    between atoms: C_2  and  C_32
    4  A    between atoms: C_3  and  C_23
    5  A    between atoms: C_7  and  C_11
    6  A    between atoms: C_8  and  N_9
    7  A    between atoms: C_8  and  N_18
    8  A    between atoms: N_18  and  C_30
                            x       y       z     vdW  Elec       q    Type
                         _______ _______ _______ _____ _____    ______ ____

>  <TORSDO>
F 8

$$$$
=
 OpenBabel11052415523D

 34 37  0  0  1  0  0  0  0  0999 V2000
  181.0310  178.9090  140.5300 C   0  0  0  0  0  0  0  0  0  0  0  0
  181.9630  180.0240  138.0810 C   0  0  0  0  0  3  0  0  0  0  0  0
  182.5420  177.0100  139.8100 C   0  0  0  0  0  3  0  0  0  0  0  0
  183.3270  176.8700  138.7110 N   0  0  0  0  0  0  0  0  0  0  0  0
  182.3710  178.7740  138.5290 C   0  0  0  0  0  0  0  0  0  0  0  0
  181.9210  178.2350  139.6960 C   0  0  0  0  0  0  0  0  0  0  0  0
  183.2030  177.9380  137.9700 O   0  0  0  0  0  0  0  0  0  0  0  0
  181.0390  180.7300  138.8740 C   0  0  0  0  0  0  0  0  0  0  0  0
  179.5940  180.8570  140.8230 O   0  0  0  0  0  1  0  0  0  0  0  0
  180.5570  180.1730  140.0880 C   0  0  0  0  0  0  0  0  0  0  0  0
  180.5820  182.0800  138.4240 C   0  0  0  0  0  2  0  0  0  0  0  0
  181.7000  182.8090  137.6860 C   0  0  2  0  0  3  0  0  0  0  0  0
  182.7790  183.0000  138.5310 F   0  0  0  0  0  0  0  0  0  0  0  0
  181.2150  184.1510  137.1500 C   0  0  0  0  0  0  0  0  0  0  0  0
  181.9320  185.1790  137.7360 F   0  0  0  0  0  0  0  0  0  0  0  0
  179.8760  184.3090  137.4550 F   0  0  0  0  0  0  0  0  0  0  0  0
  181.3740  184.2040  135.7770 F   0  0  0  0  0  0  0  0  0  0  0  0
  180.5900  178.2990  141.7500 N   0  0  0  0  0  2  0  0  0  0  0  0
  180.8200  178.8260  143.0590 C   0  0  0  0  0  0  0  0  0  0  0  0
  179.6970  178.5370  144.2150 S   0  0  0  0  0  0  0  0  0  0  0  0
  182.0130  179.5870  143.3220 N   0  0  0  0  0  2  0  0  0  0  0  0
  185.4430  178.1680  142.9750 C   0  0  0  0  0  3  0  0  0  0  0  0
  183.7620  179.0920  145.0170 C   0  0  0  0  0  3  0  0  0  0  0  0
  187.5960  177.6340  145.9450 C   0  0  0  0  0  0  0  0  0  0  0  0
  187.1550  177.6630  144.6120 C   0  0  0  0  0  3  0  0  0  0  0  0
  185.8820  178.1450  144.3000 C   0  0  0  0  0  0  0  0  0  0  0  0
  185.4700  178.5820  146.6560 C   0  0  0  0  0  3  0  0  0  0  0  0
  185.0340  178.6090  145.3290 C   0  0  0  0  0  0  0  0  0  0  0  0
  186.7460  178.0970  146.9610 C   0  0  0  0  0  3  0  0  0  0  0  0
  183.3230  179.1290  143.6840 C   0  0  0  0  0  0  0  0  0  0  0  0
  184.1670  178.6540  142.6720 C   0  0  0  0  0  3  0  0  0  0  0  0
  188.9380  177.1250  146.2740 C   0  0  0  0  0  0  0  0  0  0  0  0
  189.9690  177.1190  145.2900 N   0  0  0  0  0  1  0  0  0  0  0  0
  189.1880  176.6890  147.4290 O   0  0  0  0  0  0  0  0  0  0  0  0
  1 18  1  0  0  0  0
  2  5  2  0  0  0  0
  2  8  1  0  0  0  0
  4  3  2  0  0  0  0
  5  6  1  0  0  0  0
  6  3  1  0  0  0  0
  6  1  2  0  0  0  0
  7  5  1  0  0  0  0
  7  4  1  0  0  0  0
  8 10  2  0  0  0  0
 10  1  1  0  0  0  0
 10  9  1  0  0  0  0
 11  8  1  0  0  0  0
 12 11  1  0  0  0  0
 12 13  1  1  0  0  0
 14 16  1  0  0  0  0
 14 12  1  0  0  0  0
 14 15  1  0  0  0  0
 17 14  1  0  0  0  0
 18 19  1  0  0  0  0
 19 21  1  0  0  0  0
 19 20  2  0  0  0  0
 21 30  1  0  0  0  0
 22 26  1  0  0  0  0
 23 28  1  0  0  0  0
 24 32  1  0  0  0  0
 24 29  1  0  0  0  0
 25 24  2  0  0  0  0
 26 25  1  0  0  0  0
 26 28  2  0  0  0  0
 27 29  2  0  0  0  0
 28 27  1  0  0  0  0
 30 23  2  0  0  0  0
 31 22  2  0  0  0  0
 31 30  1  0  0  0  0
 32 34  2  0  0  0  0
 33 32  1  0  0  0  0
M  END
>  <MODEL>
3

>  <REMARK>
 VINA RESULT:      -8.8      5.020      9.168
  Name = 
  8 active torsions:
  status: ('A' for Active; 'I' for Inactive)
    1  A    between atoms: C_1  and  N_9
    2  A    between atoms: C_2  and  C_23
    3  A    between atoms: C_2  and  C_32
    4  A    between atoms: C_3  and  C_23
    5  A    between atoms: C_7  and  C_11
    6  A    between atoms: C_8  and  N_9
    7  A    between atoms: C_8  and  N_18
    8  A    between atoms: N_18  and  C_30
                            x       y       z     vdW  Elec       q    Type
                         _______ _______ _______ _____ _____    ______ ____

>  <TORSDO>
F 8

$$$$
=
 OpenBabel11052415523D

 34 37  0  0  1  0  0  0  0  0999 V2000
  185.9420  177.7520  143.3460 C   0  0  0  0  0  0  0  0  0  0  0  0
  186.7760  178.1020  146.0460 C   0  0  0  0  0  3  0  0  0  0  0  0
  183.8660  178.9010  144.2280 C   0  0  0  0  0  3  0  0  0  0  0  0
  183.5710  179.3690  145.4680 N   0  0  0  0  0  0  0  0  0  0  0  0
  185.5330  178.5260  145.5920 C   0  0  0  0  0  0  0  0  0  0  0  0
  185.1290  178.3540  144.3040 C   0  0  0  0  0  0  0  0  0  0  0  0
  184.5850  179.1310  146.2560 O   0  0  0  0  0  0  0  0  0  0  0  0
  187.6210  177.4590  145.1220 C   0  0  0  0  0  0  0  0  0  0  0  0
  188.0270  176.5700  142.8970 O   0  0  0  0  0  1  0  0  0  0  0  0
  187.2050  177.2660  143.7770 C   0  0  0  0  0  0  0  0  0  0  0  0
  188.9660  176.9930  145.5740 C   0  0  0  0  0  2  0  0  0  0  0  0
  190.0360  178.0250  145.2330 C   0  0  2  0  0  3  0  0  0  0  0  0
  189.5650  178.8940  144.2640 F   0  0  0  0  0  0  0  0  0  0  0  0
  191.3130  177.3470  144.7470 C   0  0  0  0  0  0  0  0  0  0  0  0
  192.0780  178.2460  144.0260 F   0  0  0  0  0  0  0  0  0  0  0  0
  190.9830  176.2830  143.9290 F   0  0  0  0  0  0  0  0  0  0  0  0
  192.0460  176.8800  145.8230 F   0  0  0  0  0  0  0  0  0  0  0  0
  185.4710  177.5970  142.0010 N   0  0  0  0  0  2  0  0  0  0  0  0
  185.6930  178.5320  140.9420 C   0  0  0  0  0  0  0  0  0  0  0  0
  184.4050  179.0040  140.0470 S   0  0  0  0  0  0  0  0  0  0  0  0
  187.0230  179.0250  140.6920 N   0  0  0  0  0  2  0  0  0  0  0  0
  188.8570  177.2370  137.9840 C   0  0  0  0  0  3  0  0  0  0  0  0
  189.3840  178.2670  140.5350 C   0  0  0  0  0  3  0  0  0  0  0  0
  192.4340  176.3450  138.3700 C   0  0  0  0  0  0  0  0  0  0  0  0
  191.1500  176.4750  137.8170 C   0  0  0  0  0  3  0  0  0  0  0  0
  190.1340  177.1120  138.5340 C   0  0  0  0  0  0  0  0  0  0  0  0
  191.6750  177.5010  140.3730 C   0  0  0  0  0  3  0  0  0  0  0  0
  190.3990  177.6300  139.8200 C   0  0  0  0  0  0  0  0  0  0  0  0
  192.6880  176.8610  139.6500 C   0  0  0  0  0  3  0  0  0  0  0  0
  188.1020  178.4050  139.9800 C   0  0  0  0  0  0  0  0  0  0  0  0
  187.8460  177.8770  138.7080 C   0  0  0  0  0  3  0  0  0  0  0  0
  193.5050  175.6730  137.6140 C   0  0  0  0  0  0  0  0  0  0  0  0
  194.2530  176.3860  136.6340 N   0  0  0  0  0  1  0  0  0  0  0  0
  193.7690  174.4590  137.8280 O   0  0  0  0  0  0  0  0  0  0  0  0
  1 10  2  0  0  0  0
  1  6  1  0  0  0  0
  3  6  1  0  0  0  0
  3  4  2  0  0  0  0
  4  7  1  0  0  0  0
  5  2  1  0  0  0  0
  5  7  1  0  0  0  0
  6  5  2  0  0  0  0
  8 11  1  0  0  0  0
  8  2  2  0  0  0  0
  9 10  1  0  0  0  0
 10  8  1  0  0  0  0
 12 13  1  6  0  0  0
 12 11  1  0  0  0  0
 14 12  1  0  0  0  0
 14 17  1  0  0  0  0
 15 14  1  0  0  0  0
 16 14  1  0  0  0  0
 18  1  1  0  0  0  0
 19 18  1  0  0  0  0
 20 19  2  0  0  0  0
 21 19  1  0  0  0  0
 22 26  2  0  0  0  0
 22 31  1  0  0  0  0
 24 29  1  0  0  0  0
 25 24  2  0  0  0  0
 25 26  1  0  0  0  0
 26 28  1  0  0  0  0
 28 27  1  0  0  0  0
 28 23  2  0  0  0  0
 29 27  2  0  0  0  0
 30 23  1  0  0  0  0
 30 21  1  0  0  0  0
 31 30  2  0  0  0  0
 32 34  2  0  0  0  0
 32 24  1  0  0  0  0
 33 32  1  0  0  0  0
M  END
>  <MODEL>
4

>  <REMARK>
 VINA RESULT:      -8.6      3.714      7.614
  Name = 
  8 active torsions:
  status: ('A' for Active; 'I' for Inactive)
    1  A    between atoms: C_1  and  N_9
    2  A    between atoms: C_2  and  C_23
    3  A    between atoms: C_2  and  C_32
    4  A    between atoms: C_3  and  C_23
    5  A    between atoms: C_7  and  C_11
    6  A    between atoms: C_8  and  N_9
    7  A    between atoms: C_8  and  N_18
    8  A    between atoms: N_18  and  C_30
                            x       y       z     vdW  Elec       q    Type
                         _______ _______ _______ _____ _____    ______ ____

>  <TORSDO>
F 8

$$$$
=
 OpenBabel11052415523D

 34 37  0  0  1  0  0  0  0  0999 V2000
  189.5570  176.7540  144.5520 C   0  0  0  0  0  0  0  0  0  0  0  0
  188.4380  177.2970  147.1140 C   0  0  0  0  0  3  0  0  0  0  0  0
  191.6800  176.6030  145.9230 C   0  0  0  0  0  3  0  0  0  0  0  0
  191.8860  176.7490  147.2570 N   0  0  0  0  0  0  0  0  0  0  0  0
  189.7940  177.0530  146.9330 C   0  0  0  0  0  0  0  0  0  0  0  0
  190.3330  176.8010  145.7090 C   0  0  0  0  0  0  0  0  0  0  0  0
  190.7430  177.0160  147.8300 O   0  0  0  0  0  0  0  0  0  0  0  0
  187.6180  177.2920  145.9700 C   0  0  0  0  0  0  0  0  0  0  0  0
  187.3570  177.1040  143.5610 O   0  0  0  0  0  1  0  0  0  0  0  0
  188.1730  177.0390  144.6870 C   0  0  0  0  0  0  0  0  0  0  0  0
  186.1550  177.5450  146.1280 C   0  0  0  0  0  2  0  0  0  0  0  0
  185.8080  178.9730  145.7190 C   0  0  2  0  0  3  0  0  0  0  0  0
  185.6120  179.7540  146.8450 F   0  0  0  0  0  0  0  0  0  0  0  0
  184.5610  179.0030  144.8420 C   0  0  0  0  0  0  0  0  0  0  0  0
  184.5470  177.9010  144.0060 F   0  0  0  0  0  0  0  0  0  0  0  0
  184.5710  180.1500  144.0720 F   0  0  0  0  0  0  0  0  0  0  0  0
  183.4220  178.9970  145.6290 F   0  0  0  0  0  0  0  0  0  0  0  0
  190.1730  176.4820  143.2870 N   0  0  0  0  0  2  0  0  0  0  0  0
  190.7050  177.4730  142.4050 C   0  0  0  0  0  0  0  0  0  0  0  0
  191.6880  178.6210  143.0380 S   0  0  0  0  0  0  0  0  0  0  0  0
  190.3670  177.4400  141.0060 N   0  0  0  0  0  2  0  0  0  0  0  0
  187.7460  177.4790  138.3550 C   0  0  0  0  0  3  0  0  0  0  0  0
  188.0090  178.2240  141.0430 C   0  0  0  0  0  3  0  0  0  0  0  0
  184.3630  178.8300  139.0370 C   0  0  0  0  0  0  0  0  0  0  0  0
  185.4510  178.2520  138.3640 C   0  0  0  0  0  3  0  0  0  0  0  0
  186.6640  178.0500  139.0270 C   0  0  0  0  0  0  0  0  0  0  0  0
  185.7160  179.0030  141.0520 C   0  0  0  0  0  3  0  0  0  0  0  0
  186.7970  178.4270  140.3810 C   0  0  0  0  0  0  0  0  0  0  0  0
  184.5040  179.2020  140.3820 C   0  0  0  0  0  3  0  0  0  0  0  0
  189.0950  177.6380  140.3740 C   0  0  0  0  0  0  0  0  0  0  0  0
  188.9570  177.2790  139.0270 C   0  0  0  0  0  3  0  0  0  0  0  0
  183.0840  179.0430  138.3380 C   0  0  0  0  0  0  0  0  0  0  0  0
  182.1800  180.0520  138.7780 N   0  0  0  0  0  1  0  0  0  0  0  0
  182.7770  178.3340  137.3420 O   0  0  0  0  0  0  0  0  0  0  0  0
  1 10  2  0  0  0  0
  1  6  1  0  0  0  0
  3  4  2  0  0  0  0
  4  7  1  0  0  0  0
  5  2  1  0  0  0  0
  5  7  1  0  0  0  0
  6  3  1  0  0  0  0
  6  5  2  0  0  0  0
  8 11  1  0  0  0  0
  8  2  2  0  0  0  0
  9 10  1  0  0  0  0
 10  8  1  0  0  0  0
 12 11  1  0  0  0  0
 12 13  1  1  0  0  0
 14 17  1  0  0  0  0
 14 12  1  0  0  0  0
 15 14  1  0  0  0  0
 16 14  1  0  0  0  0
 18  1  1  0  0  0  0
 19 20  2  0  0  0  0
 19 18  1  0  0  0  0
 21 19  1  0  0  0  0
 22 31  2  0  0  0  0
 22 26  1  0  0  0  0
 24 29  1  0  0  0  0
 25 26  1  0  0  0  0
 25 24  2  0  0  0  0
 26 28  2  0  0  0  0
 28 23  1  0  0  0  0
 28 27  1  0  0  0  0
 29 27  2  0  0  0  0
 30 21  1  0  0  0  0
 30 23  2  0  0  0  0
 31 30  1  0  0  0  0
 32 33  1  0  0  0  0
 32 24  1  0  0  0  0
 34 32  2  0  0  0  0
M  END
>  <MODEL>
5

>  <REMARK>
 VINA RESULT:      -8.6      2.634      3.606
  Name = 
  8 active torsions:
  status: ('A' for Active; 'I' for Inactive)
    1  A    between atoms: C_1  and  N_9
    2  A    between atoms: C_2  and  C_23
    3  A    between atoms: C_2  and  C_32
    4  A    between atoms: C_3  and  C_23
    5  A    between atoms: C_7  and  C_11
    6  A    between atoms: C_8  and  N_9
    7  A    between atoms: C_8  and  N_18
    8  A    between atoms: N_18  and  C_30
                            x       y       z     vdW  Elec       q    Type
                         _______ _______ _______ _____ _____    ______ ____

>  <TORSDO>
F 8

$$$$
=
 OpenBabel11052415523D

 34 37  0  0  1  0  0  0  0  0999 V2000
  187.4130  177.5450  144.2420 C   0  0  0  0  0  0  0  0  0  0  0  0
  188.5050  177.8680  146.8520 C   0  0  0  0  0  3  0  0  0  0  0  0
  185.3000  178.2560  145.4430 C   0  0  0  0  0  3  0  0  0  0  0  0
  185.0880  178.5880  146.7420 N   0  0  0  0  0  0  0  0  0  0  0  0
  187.1630  178.0960  146.5760 C   0  0  0  0  0  0  0  0  0  0  0  0
  186.6360  177.9350  145.3310 C   0  0  0  0  0  0  0  0  0  0  0  0
  186.2170  178.4830  147.3890 O   0  0  0  0  0  0  0  0  0  0  0  0
  189.3240  177.4420  145.7890 C   0  0  0  0  0  0  0  0  0  0  0  0
  189.5930  176.7760  143.4670 O   0  0  0  0  0  1  0  0  0  0  0  0
  188.7820  177.2620  144.4880 C   0  0  0  0  0  0  0  0  0  0  0  0
  190.7740  177.1920  146.0480 C   0  0  0  0  0  2  0  0  0  0  0  0
  190.9870  176.6770  147.4670 C   0  0  2  0  0  3  0  0  0  0  0  0
  191.4010  177.7110  148.2890 F   0  0  0  0  0  0  0  0  0  0  0  0
  192.0140  175.5500  147.4910 C   0  0  0  0  0  0  0  0  0  0  0  0
  192.4310  175.2660  146.2040 F   0  0  0  0  0  0  0  0  0  0  0  0
  191.4380  174.4180  148.0360 F   0  0  0  0  0  0  0  0  0  0  0  0
  193.1070  175.9150  148.2580 F   0  0  0  0  0  0  0  0  0  0  0  0
  186.8100  177.3930  142.9500 N   0  0  0  0  0  2  0  0  0  0  0  0
  186.7310  178.4190  141.9570 C   0  0  0  0  0  0  0  0  0  0  0  0
  185.2710  179.1030  141.6700 S   0  0  0  0  0  0  0  0  0  0  0  0
  187.9170  178.8170  141.2460 N   0  0  0  0  0  2  0  0  0  0  0  0
  188.2260  177.5970  137.7370 C   0  0  0  0  0  3  0  0  0  0  0  0
  189.8060  177.7350  140.0460 C   0  0  0  0  0  3  0  0  0  0  0  0
  191.3580  176.0190  136.5350 C   0  0  0  0  0  0  0  0  0  0  0  0
  190.0490  176.5270  136.5530 C   0  0  0  0  0  3  0  0  0  0  0  0
  189.5290  177.0970  137.7180 C   0  0  0  0  0  0  0  0  0  0  0  0
  191.6270  176.6600  138.8670 C   0  0  0  0  0  3  0  0  0  0  0  0
  190.3240  177.1650  138.8830 C   0  0  0  0  0  0  0  0  0  0  0  0
  192.1400  176.0900  137.6970 C   0  0  0  0  0  3  0  0  0  0  0  0
  188.5000  178.2510  140.0640 C   0  0  0  0  0  0  0  0  0  0  0  0
  187.7150  178.1670  138.9070 C   0  0  0  0  0  3  0  0  0  0  0  0
  191.9040  175.4180  135.3060 C   0  0  0  0  0  0  0  0  0  0  0  0
  193.1950  175.7920  134.8320 N   0  0  0  0  0  1  0  0  0  0  0  0
  191.2350  174.5660  134.6620 O   0  0  0  0  0  0  0  0  0  0  0  0
  1 10  2  0  0  0  0
  1  6  1  0  0  0  0
  3  4  2  0  0  0  0
  4  7  1  0  0  0  0
  5  2  1  0  0  0  0
  5  7  1  0  0  0  0
  6  3  1  0  0  0  0
  6  5  2  0  0  0  0
  8 11  1  0  0  0  0
  8  2  2  0  0  0  0
  9 10  1  0  0  0  0
 10  8  1  0  0  0  0
 11 12  1  0  0  0  0
 12 14  1  0  0  0  0
 12 13  1  1  0  0  0
 14 16  1  0  0  0  0
 14 17  1  0  0  0  0
 15 14  1  0  0  0  0
 18  1  1  0  0  0  0
 19 18  1  0  0  0  0
 20 19  2  0  0  0  0
 21 19  1  0  0  0  0
 22 31  1  0  0  0  0
 23 30  1  0  0  0  0
 24 25  2  0  0  0  0
 24 29  1  0  0  0  0
 25 26  1  0  0  0  0
 26 22  2  0  0  0  0
 26 28  1  0  0  0  0
 27 28  1  0  0  0  0
 28 23  2  0  0  0  0
 29 27  2  0  0  0  0
 30 21  1  0  0  0  0
 31 30  2  0  0  0  0
 32 24  1  0  0  0  0
 33 32  1  0  0  0  0
 34 32  2  0  0  0  0
M  END
>  <MODEL>
6

>  <REMARK>
 VINA RESULT:      -8.6      4.214      7.524
  Name = 
  8 active torsions:
  status: ('A' for Active; 'I' for Inactive)
    1  A    between atoms: C_1  and  N_9
    2  A    between atoms: C_2  and  C_23
    3  A    between atoms: C_2  and  C_32
    4  A    between atoms: C_3  and  C_23
    5  A    between atoms: C_7  and  C_11
    6  A    between atoms: C_8  and  N_9
    7  A    between atoms: C_8  and  N_18
    8  A    between atoms: N_18  and  C_30
                            x       y       z     vdW  Elec       q    Type
                         _______ _______ _______ _____ _____    ______ ____

>  <TORSDO>
F 8

$$$$
=
 OpenBabel11052415523D

 34 37  0  0  1  0  0  0  0  0999 V2000
  189.7150  176.8720  144.6740 C   0  0  0  0  0  0  0  0  0  0  0  0
  188.2080  177.3470  147.0430 C   0  0  0  0  0  3  0  0  0  0  0  0
  191.6100  176.7510  146.3480 C   0  0  0  0  0  3  0  0  0  0  0  0
  191.6080  176.8810  147.7000 N   0  0  0  0  0  0  0  0  0  0  0  0
  189.5820  177.1390  147.0670 C   0  0  0  0  0  0  0  0  0  0  0  0
  190.3060  176.9200  145.9350 C   0  0  0  0  0  0  0  0  0  0  0  0
  190.3850  177.1110  148.0960 O   0  0  0  0  0  0  0  0  0  0  0  0
  187.5710  177.3400  145.7880 C   0  0  0  0  0  0  0  0  0  0  0  0
  187.6810  177.1840  143.3660 O   0  0  0  0  0  1  0  0  0  0  0  0
  188.3190  177.1210  144.6010 C   0  0  0  0  0  0  0  0  0  0  0  0
  186.0940  177.5550  145.7260 C   0  0  0  0  0  2  0  0  0  0  0  0
  185.7750  179.0100  145.3960 C   0  0  2  0  0  3  0  0  0  0  0  0
  185.6800  179.7500  146.5620 F   0  0  0  0  0  0  0  0  0  0  0  0
  184.4760  179.1180  144.6040 C   0  0  0  0  0  0  0  0  0  0  0  0
  184.4120  180.3460  143.9710 F   0  0  0  0  0  0  0  0  0  0  0  0
  183.4030  179.0030  145.4680 F   0  0  0  0  0  0  0  0  0  0  0  0
  184.4060  178.1100  143.6590 F   0  0  0  0  0  0  0  0  0  0  0  0
  190.5210  176.6350  143.5130 N   0  0  0  0  0  2  0  0  0  0  0  0
  191.2250  177.6440  142.7840 C   0  0  0  0  0  0  0  0  0  0  0  0
  191.6110  179.0310  143.5650 S   0  0  0  0  0  0  0  0  0  0  0  0
  191.5670  177.4200  141.4040 N   0  0  0  0  0  2  0  0  0  0  0  0
  190.3670  176.1500  138.1110 C   0  0  0  0  0  3  0  0  0  0  0  0
  189.4600  177.8380  140.1550 C   0  0  0  0  0  3  0  0  0  0  0  0
  187.0770  177.1840  136.7520 C   0  0  0  0  0  0  0  0  0  0  0  0
  188.3270  176.5560  136.8690 C   0  0  0  0  0  3  0  0  0  0  0  0
  189.1220  176.7710  137.9980 C   0  0  0  0  0  0  0  0  0  0  0  0
  187.4230  178.2490  138.9120 C   0  0  0  0  0  3  0  0  0  0  0  0
  188.6660  177.6230  139.0270 C   0  0  0  0  0  0  0  0  0  0  0  0
  186.6320  178.0290  137.7790 C   0  0  0  0  0  3  0  0  0  0  0  0
  190.7060  177.2040  140.2780 C   0  0  0  0  0  0  0  0  0  0  0  0
  191.1550  176.3700  139.2450 C   0  0  0  0  0  3  0  0  0  0  0  0
  186.2400  176.9560  135.5620 C   0  0  0  0  0  0  0  0  0  0  0  0
  185.6040  175.6980  135.3560 N   0  0  0  0  0  1  0  0  0  0  0  0
  186.0780  177.8730  134.7120 O   0  0  0  0  0  0  0  0  0  0  0  0
  1  6  1  0  0  0  0
  2  5  1  0  0  0  0
  3  4  2  0  0  0  0
  4  7  1  0  0  0  0
  5  7  1  0  0  0  0
  6  3  1  0  0  0  0
  6  5  2  0  0  0  0
  8  2  2  0  0  0  0
  9 10  1  0  0  0  0
 10  1  2  0  0  0  0
 10  8  1  0  0  0  0
 11  8  1  0  0  0  0
 12 11  1  0  0  0  0
 12 13  1  1  0  0  0
 14 12  1  0  0  0  0
 14 16  1  0  0  0  0
 15 14  1  0  0  0  0
 17 14  1  0  0  0  0
 18  1  1  0  0  0  0
 19 18  1  0  0  0  0
 19 20  2  0  0  0  0
 21 19  1  0  0  0  0
 22 31  1  0  0  0  0
 23 30  1  0  0  0  0
 24 25  2  0  0  0  0
 24 29  1  0  0  0  0
 25 26  1  0  0  0  0
 26 22  2  0  0  0  0
 26 28  1  0  0  0  0
 27 28  1  0  0  0  0
 28 23  2  0  0  0  0
 29 27  2  0  0  0  0
 30 21  1  0  0  0  0
 31 30  2  0  0  0  0
 32 24  1  0  0  0  0
 33 32  1  0  0  0  0
 34 32  2  0  0  0  0
M  END
>  <MODEL>
7

>  <REMARK>
 VINA RESULT:      -8.5      3.530      5.480
  Name = 
  8 active torsions:
  status: ('A' for Active; 'I' for Inactive)
    1  A    between atoms: C_1  and  N_9
    2  A    between atoms: C_2  and  C_23
    3  A    between atoms: C_2  and  C_32
    4  A    between atoms: C_3  and  C_23
    5  A    between atoms: C_7  and  C_11
    6  A    between atoms: C_8  and  N_9
    7  A    between atoms: C_8  and  N_18
    8  A    between atoms: N_18  and  C_30
                            x       y       z     vdW  Elec       q    Type
                         _______ _______ _______ _____ _____    ______ ____

>  <TORSDO>
F 8

$$$$
=
 OpenBabel11052415523D

 34 37  0  0  1  0  0  0  0  0999 V2000
  183.6920  177.8610  138.3060 C   0  0  0  0  0  0  0  0  0  0  0  0
  186.0770  176.7570  137.2110 C   0  0  0  0  0  3  0  0  0  0  0  0
  182.6720  175.8580  137.1420 C   0  0  0  0  0  3  0  0  0  0  0  0
  183.2470  174.8690  136.4120 N   0  0  0  0  0  0  0  0  0  0  0  0
  184.8320  176.1730  137.0150 C   0  0  0  0  0  0  0  0  0  0  0  0
  183.6890  176.7030  137.5320 C   0  0  0  0  0  0  0  0  0  0  0  0
  184.5340  175.0860  136.3560 O   0  0  0  0  0  0  0  0  0  0  0  0
  186.1280  177.9470  137.9610 C   0  0  0  0  0  0  0  0  0  0  0  0
  185.0020  179.7240  139.1770 O   0  0  0  0  0  1  0  0  0  0  0  0
  184.9400  178.5130  138.4960 C   0  0  0  0  0  0  0  0  0  0  0  0
  187.4510  178.5990  138.1950 C   0  0  0  0  0  2  0  0  0  0  0  0
  188.2210  177.8770  139.2950 C   0  0  2  0  0  3  0  0  0  0  0  0
  188.3060  178.6790  140.4190 F   0  0  0  0  0  0  0  0  0  0  0  0
  189.6190  177.4950  138.8230 C   0  0  0  0  0  0  0  0  0  0  0  0
  190.5640  177.9630  139.7190 F   0  0  0  0  0  0  0  0  0  0  0  0
  189.8560  178.0640  137.5850 F   0  0  0  0  0  0  0  0  0  0  0  0
  189.7300  176.1200  138.7160 F   0  0  0  0  0  0  0  0  0  0  0  0
  182.4610  178.3780  138.8290 N   0  0  0  0  0  2  0  0  0  0  0  0
  181.9230  178.0630  140.1160 C   0  0  0  0  0  0  0  0  0  0  0  0
  180.9920  176.7220  140.2550 S   0  0  0  0  0  0  0  0  0  0  0  0
  182.2050  178.9200  141.2370 N   0  0  0  0  0  2  0  0  0  0  0  0
  183.5400  178.8910  144.7170 C   0  0  0  0  0  3  0  0  0  0  0  0
  184.4280  178.2670  142.1350 C   0  0  0  0  0  3  0  0  0  0  0  0
  187.0170  177.8130  145.4180 C   0  0  0  0  0  0  0  0  0  0  0  0
  185.7050  178.2750  145.6120 C   0  0  0  0  0  3  0  0  0  0  0  0
  184.8430  178.4280  144.5240 C   0  0  0  0  0  0  0  0  0  0  0  0
  186.5950  177.6560  143.0270 C   0  0  0  0  0  3  0  0  0  0  0  0
  185.2900  178.1150  143.2220 C   0  0  0  0  0  0  0  0  0  0  0  0
  187.4530  177.5060  144.1210 C   0  0  0  0  0  3  0  0  0  0  0  0
  183.1140  178.7200  142.3280 C   0  0  0  0  0  0  0  0  0  0  0  0
  182.6830  179.0400  143.6220 C   0  0  0  0  0  3  0  0  0  0  0  0
  187.9260  177.6530  146.5660 C   0  0  0  0  0  0  0  0  0  0  0  0
  187.5520  178.1310  147.8550 N   0  0  0  0  0  1  0  0  0  0  0  0
  189.0440  177.0910  146.4180 O   0  0  0  0  0  0  0  0  0  0  0  0
  1 10  1  0  0  0  0
  1 18  1  0  0  0  0
  2  8  1  0  0  0  0
  3  6  1  0  0  0  0
  4  3  2  0  0  0  0
  5  2  2  0  0  0  0
  5  6  1  0  0  0  0
  6  1  2  0  0  0  0
  7  4  1  0  0  0  0
  7  5  1  0  0  0  0
  8 11  1  0  0  0  0
  8 10  2  0  0  0  0
 10  9  1  0  0  0  0
 11 12  1  0  0  0  0
 12 13  1  1  0  0  0
 14 12  1  0  0  0  0
 14 15  1  0  0  0  0
 16 14  1  0  0  0  0
 17 14  1  0  0  0  0
 18 19  1  0  0  0  0
 19 20  2  0  0  0  0
 19 21  1  0  0  0  0
 21 30  1  0  0  0  0
 23 30  2  0  0  0  0
 23 28  1  0  0  0  0
 24 25  1  0  0  0  0
 24 32  1  0  0  0  0
 26 22  1  0  0  0  0
 26 25  2  0  0  0  0
 27 28  2  0  0  0  0
 27 29  1  0  0  0  0
 28 26  1  0  0  0  0
 29 24  2  0  0  0  0
 30 31  1  0  0  0  0
 31 22  2  0  0  0  0
 32 33  1  0  0  0  0
 34 32  2  0  0  0  0
M  END
>  <MODEL>
8

>  <REMARK>
 VINA RESULT:      -8.5      4.481      7.859
  Name = 
  8 active torsions:
  status: ('A' for Active; 'I' for Inactive)
    1  A    between atoms: C_1  and  N_9
    2  A    between atoms: C_2  and  C_23
    3  A    between atoms: C_2  and  C_32
    4  A    between atoms: C_3  and  C_23
    5  A    between atoms: C_7  and  C_11
    6  A    between atoms: C_8  and  N_9
    7  A    between atoms: C_8  and  N_18
    8  A    between atoms: N_18  and  C_30
                            x       y       z     vdW  Elec       q    Type
                         _______ _______ _______ _____ _____    ______ ____

>  <TORSDO>
F 8

$$$$
=
 OpenBabel11052415523D

 34 37  0  0  1  0  0  0  0  0999 V2000
  185.1260  178.4740  139.7490 C   0  0  0  0  0  0  0  0  0  0  0  0
  183.1350  178.0970  141.7490 C   0  0  0  0  0  3  0  0  0  0  0  0
  183.5690  176.9650  138.4410 C   0  0  0  0  0  3  0  0  0  0  0  0
  182.3870  176.3970  138.7890 N   0  0  0  0  0  0  0  0  0  0  0  0
  183.0460  177.5090  140.4930 C   0  0  0  0  0  0  0  0  0  0  0  0
  184.0000  177.6810  139.5380 C   0  0  0  0  0  0  0  0  0  0  0  0
  182.1030  176.7410  140.0160 O   0  0  0  0  0  0  0  0  0  0  0  0
  184.2720  178.8810  142.0200 C   0  0  0  0  0  0  0  0  0  0  0  0
  186.4240  179.7840  141.3440 O   0  0  0  0  0  1  0  0  0  0  0  0
  185.2770  179.0600  141.0330 C   0  0  0  0  0  0  0  0  0  0  0  0
  184.3980  179.5320  143.3590 C   0  0  0  0  0  2  0  0  0  0  0  0
  183.9930  178.5680  144.4680 C   0  0  2  0  0  3  0  0  0  0  0  0
  182.7710  178.9440  144.9990 F   0  0  0  0  0  0  0  0  0  0  0  0
  185.0470  178.5250  145.5680 C   0  0  0  0  0  0  0  0  0  0  0  0
  184.4480  178.2510  146.7840 F   0  0  0  0  0  0  0  0  0  0  0  0
  185.6770  179.7530  145.6450 F   0  0  0  0  0  0  0  0  0  0  0  0
  185.9900  177.5510  145.2910 F   0  0  0  0  0  0  0  0  0  0  0  0
  186.1010  178.6260  138.7080 N   0  0  0  0  0  2  0  0  0  0  0  0
  187.3310  177.9020  138.6270 C   0  0  0  0  0  0  0  0  0  0  0  0
  187.3380  176.4820  137.8100 S   0  0  0  0  0  0  0  0  0  0  0  0
  188.5130  178.4290  139.2580 N   0  0  0  0  0  2  0  0  0  0  0  0
  190.9560  176.6100  141.4060 C   0  0  0  0  0  3  0  0  0  0  0  0
  188.7740  178.3370  141.7270 C   0  0  0  0  0  3  0  0  0  0  0  0
  190.8050  176.8620  145.1010 C   0  0  0  0  0  0  0  0  0  0  0  0
  191.2190  176.4930  143.8110 C   0  0  0  0  0  3  0  0  0  0  0  0
  190.5460  176.9800  142.6880 C   0  0  0  0  0  0  0  0  0  0  0  0
  189.0320  178.2170  144.1320 C   0  0  0  0  0  3  0  0  0  0  0  0
  189.4460  177.8500  142.8500 C   0  0  0  0  0  0  0  0  0  0  0  0
  189.7090  177.7250  145.2520 C   0  0  0  0  0  3  0  0  0  0  0  0
  189.1920  177.9770  140.4370 C   0  0  0  0  0  0  0  0  0  0  0  0
  190.2780  177.1040  140.2870 C   0  0  0  0  0  3  0  0  0  0  0  0
  191.5140  176.3470  146.2850 C   0  0  0  0  0  0  0  0  0  0  0  0
  191.1740  176.8110  147.5890 N   0  0  0  0  0  1  0  0  0  0  0  0
  192.4290  175.4910  146.1560 O   0  0  0  0  0  0  0  0  0  0  0  0
  1 10  1  0  0  0  0
  2  8  1  0  0  0  0
  3  4  2  0  0  0  0
  3  6  1  0  0  0  0
  4  7  1  0  0  0  0
  5  2  2  0  0  0  0
  6  1  2  0  0  0  0
  6  5  1  0  0  0  0
  7  5  1  0  0  0  0
  8 11  1  0  0  0  0
 10  9  1  0  0  0  0
 10  8  2  0  0  0  0
 11 12  1  0  0  0  0
 12 13  1  1  0  0  0
 12 14  1  0  0  0  0
 14 16  1  0  0  0  0
 14 15  1  0  0  0  0
 17 14  1  0  0  0  0
 18  1  1  0  0  0  0
 19 18  1  0  0  0  0
 19 21  1  0  0  0  0
 20 19  2  0  0  0  0
 21 30  1  0  0  0  0
 22 26  1  0  0  0  0
 23 28  1  0  0  0  0
 24 29  1  0  0  0  0
 24 32  1  0  0  0  0
 25 24  2  0  0  0  0
 26 28  2  0  0  0  0
 26 25  1  0  0  0  0
 27 29  2  0  0  0  0
 28 27  1  0  0  0  0
 30 23  2  0  0  0  0
 31 30  1  0  0  0  0
 31 22  2  0  0  0  0
 32 33  1  0  0  0  0
 34 32  2  0  0  0  0
M  END
>  <MODEL>
9

>  <REMARK>
 VINA RESULT:      -8.4      2.496      7.209
  Name = 
  8 active torsions:
  status: ('A' for Active; 'I' for Inactive)
    1  A    between atoms: C_1  and  N_9
    2  A    between atoms: C_2  and  C_23
    3  A    between atoms: C_2  and  C_32
    4  A    between atoms: C_3  and  C_23
    5  A    between atoms: C_7  and  C_11
    6  A    between atoms: C_8  and  N_9
    7  A    between atoms: C_8  and  N_18
    8  A    between atoms: N_18  and  C_30
                            x       y       z     vdW  Elec       q    Type
                         _______ _______ _______ _____ _____    ______ ____

>  <TORSDO>
F 8

$$$$
