=
 OpenBabel11052415303D

 37 42  0  0  1  0  0  0  0  0999 V2000
  183.0790  177.8660  137.5340 C   0  0  1  0  0  3  0  0  0  0  0  0
  178.9310  180.2590  139.2640 C   0  0  0  0  0  2  0  0  0  0  0  0
  181.9930  178.1830  141.7940 C   0  0  2  0  0  3  0  0  0  0  0  0
  185.1120  177.9730  140.8220 C   0  0  2  0  0  3  0  0  0  0  0  0
  180.3000  180.1070  141.4600 C   0  0  1  0  0  3  0  0  0  0  0  0
  183.1720  178.9140  141.1030 C   0  0  1  0  0  3  0  0  0  0  0  0
  180.7480  177.2380  136.6550 S   0  0  0  0  0  0  0  0  0  0  0  0
  180.6340  178.6050  141.2110 C   0  0  1  0  0  3  0  0  0  0  0  0
  184.5180  178.9160  141.8550 C   0  0  1  0  0  3  0  0  0  0  0  0
  180.9560  180.9130  140.5080 O   0  0  0  0  0  0  0  0  0  0  0  0
  180.3500  177.9340  139.8610 C   0  0  0  0  0  2  0  0  0  0  0  0
  180.5810  180.8700  137.6180 O   0  0  0  0  0  1  0  0  0  0  0  0
  183.2130  180.1660  144.3390 C   0  0  0  0  0  1  0  0  0  0  0  0
  181.5610  177.9020  137.6470 C   0  0  0  0  0  0  0  0  0  0  0  0
  181.0120  177.9640  143.9470 O   0  0  0  0  0  0  0  0  0  0  0  0
  180.9120  178.7560  138.7110 C   0  0  1  0  0  3  0  0  0  0  0  0
  186.2970  178.6320  140.1270 C   0  0  0  0  0  1  0  0  0  0  0  0
  182.0060  178.2740  143.3070 C   0  0  0  0  0  0  0  0  0  0  0  0
  183.7820  178.0000  140.0510 C   0  0  1  0  0  3  0  0  0  0  0  0
  179.5470  180.9640  140.4840 C   0  0  1  0  0  3  0  0  0  0  0  0
  184.4700  178.2420  143.2300 C   0  0  2  0  0  3  0  0  0  0  0  0
  179.9080  179.7850  138.1810 C   0  0  1  0  0  3  0  0  0  0  0  0
  183.7790  178.6030  138.6550 C   0  0  0  0  0  0  0  0  0  0  0  0
  184.1170  179.8790  138.4450 C   0  0  0  0  0  2  0  0  0  0  0  0
  183.2450  178.6720  144.0460 C   0  0  1  0  0  3  0  0  0  0  0  0
  186.8380  177.3240  143.4010 C   0  0  0  0  0  2  0  0  0  0  0  0
  185.8090  178.3190  143.9750 C   0  0  2  0  0  3  0  0  0  0  0  0
  185.6760  178.2390  145.4760 C   0  0  0  0  0  3  0  0  0  0  0  0
  186.6630  177.9530  147.5730 F   0  0  0  0  0  0  0  0  0  0  0  0
  188.0990  177.8870  145.5540 C   0  0  0  0  0  2  0  0  0  0  0  0
  186.7690  178.0610  146.2240 C   0  0  0  0  0  0  0  0  0  0  0  0
  187.9480  176.9090  144.3870 C   0  0  0  0  0  2  0  0  0  0  0  0
  185.1620  176.5010  137.0870 C   0  0  0  0  0  1  0  0  0  0  0  0
  183.6530  176.4570  137.2690 C   0  0  1  0  0  3  0  0  0  0  0  0
  183.2480  175.4360  138.3300 C   0  0  0  0  0  2  0  0  0  0  0  0
  183.7540  174.0450  137.9790 C   0  0  0  0  0  2  0  0  0  0  0  0
  182.9160  173.4360  136.8710 C   0  0  0  0  0  1  0  0  0  0  0  0
  1 34  1  1  0  0  0
  1 14  1  0  0  0  0
  1 23  1  0  0  0  0
  2 20  1  0  0  0  0
  3 18  1  1  0  0  0
  4 17  1  6  0  0  0
  4  9  1  0  0  0  0
  5 10  1  6  0  0  0
  6  3  1  0  0  0  0
  6  9  1  0  0  0  0
  7 14  2  0  0  0  0
  8  5  1  0  0  0  0
  8  3  1  0  0  0  0
  9 21  1  0  0  0  0
 11  8  1  0  0  0  0
 12 22  1  0  0  0  0
 14 16  1  0  0  0  0
 16 11  1  0  0  0  0
 18 15  2  0  0  0  0
 18 25  1  0  0  0  0
 19  4  1  0  0  0  0
 19  6  1  0  0  0  0
 20 10  1  0  0  0  0
 20  5  1  0  0  0  0
 21 27  1  0  0  0  0
 21 25  1  0  0  0  0
 22 16  1  0  0  0  0
 22  2  1  0  0  0  0
 23 19  1  0  0  0  0
 24 23  2  0  0  0  0
 25 13  1  0  0  0  0
 26 27  1  0  0  0  0
 26 32  1  0  0  0  0
 27 28  1  0  0  0  0
 28 31  2  0  0  0  0
 30 31  1  0  0  0  0
 31 29  1  0  0  0  0
 32 30  1  0  0  0  0
 33 34  1  0  0  0  0
 34 35  1  0  0  0  0
 36 35  1  0  0  0  0
 37 36  1  0  0  0  0
M  END
>  <MODEL>
1

>  <REMARK>
 VINA RESULT:      -6.2      0.000      0.000
  Name = 
  4 active torsions:
  status: ('A' for Active; 'I' for Inactive)
    1  A    between atoms: C_1  and  C_17
    2  A    between atoms: C_6  and  C_31
    3  A    between atoms: C_11  and  C_26
    4  A    between atoms: C_17  and  C_26
                            x       y       z     vdW  Elec       q    Type
                         _______ _______ _______ _____ _____    ______ ____

>  <TORSDO>
F 4

$$$$
=
 OpenBabel11052415303D

 37 42  0  0  1  0  0  0  0  0999 V2000
  190.3570  177.6230  138.1720 C   0  0  1  0  0  3  0  0  0  0  0  0
  192.7350  173.9950  135.5050 C   0  0  0  0  0  2  0  0  0  0  0  0
  188.5520  173.7460  137.0990 C   0  0  2  0  0  3  0  0  0  0  0  0
  186.7390  176.4450  137.4810 C   0  0  2  0  0  3  0  0  0  0  0  0
  190.2840  173.1840  135.2640 C   0  0  1  0  0  3  0  0  0  0  0  0
  188.1620  175.1230  136.5030 C   0  0  1  0  0  3  0  0  0  0  0  0
  192.6310  176.7140  138.9450 S   0  0  0  0  0  0  0  0  0  0  0  0
  190.0130  173.3790  136.7860 C   0  0  1  0  0  3  0  0  0  0  0  0
  186.6540  175.4130  136.3680 C   0  0  1  0  0  3  0  0  0  0  0  0
  190.4680  174.4360  134.6410 O   0  0  0  0  0  0  0  0  0  0  0  0
  191.0040  174.1280  137.6870 C   0  0  0  0  0  2  0  0  0  0  0  0
  192.5680  176.3790  135.1990 O   0  0  0  0  0  1  0  0  0  0  0  0
  186.2400  172.8710  134.6940 C   0  0  0  0  0  1  0  0  0  0  0  0
  191.4580  176.5730  138.1150 C   0  0  0  0  0  0  0  0  0  0  0  0
  187.9310  171.4600  136.9280 O   0  0  0  0  0  0  0  0  0  0  0  0
  191.3860  175.4700  137.0840 C   0  0  1  0  0  3  0  0  0  0  0  0
  186.3370  177.8180  136.9580 C   0  0  0  0  0  1  0  0  0  0  0  0
  187.6030  172.6210  136.7390 C   0  0  0  0  0  0  0  0  0  0  0  0
  188.2490  176.1840  137.5910 C   0  0  1  0  0  3  0  0  0  0  0  0
  191.5740  173.5620  134.5940 C   0  0  1  0  0  3  0  0  0  0  0  0
  185.7510  174.2490  136.7860 C   0  0  2  0  0  3  0  0  0  0  0  0
  192.6080  175.3730  136.1660 C   0  0  1  0  0  3  0  0  0  0  0  0
  189.1970  177.3210  137.2470 C   0  0  0  0  0  0  0  0  0  0  0  0
  189.2130  177.8730  136.0290 C   0  0  0  0  0  2  0  0  0  0  0  0
  186.2300  172.9070  136.2160 C   0  0  1  0  0  3  0  0  0  0  0  0
  184.0380  175.5760  135.4490 C   0  0  0  0  0  2  0  0  0  0  0  0
  184.2610  174.5490  136.5780 C   0  0  2  0  0  3  0  0  0  0  0  0
  183.5250  174.8930  137.8490 C   0  0  0  0  0  3  0  0  0  0  0  0
  181.6270  175.7440  138.9120 F   0  0  0  0  0  0  0  0  0  0  0  0
  181.6800  175.6640  136.4340 C   0  0  0  0  0  2  0  0  0  0  0  0
  182.2900  175.3970  137.7780 C   0  0  0  0  0  0  0  0  0  0  0  0
  182.7130  176.3580  135.5450 C   0  0  0  0  0  2  0  0  0  0  0  0
  188.6330  178.8030  139.5990 C   0  0  0  0  0  1  0  0  0  0  0  0
  189.9210  177.9950  139.6060 C   0  0  1  0  0  3  0  0  0  0  0  0
  189.8170  176.7870  140.5340 C   0  0  0  0  0  2  0  0  0  0  0  0
  188.9400  177.0890  141.7390 C   0  0  0  0  0  2  0  0  0  0  0  0
  189.2500  176.1370  142.8770 C   0  0  0  0  0  1  0  0  0  0  0  0
  1 34  1  1  0  0  0
  2 22  1  0  0  0  0
  3 18  1  6  0  0  0
  4 17  1  6  0  0  0
  4 19  1  0  0  0  0
  5 10  1  6  0  0  0
  5  8  1  0  0  0  0
  6  3  1  0  0  0  0
  6 19  1  0  0  0  0
  8  3  1  0  0  0  0
  8 11  1  0  0  0  0
  9  6  1  0  0  0  0
  9 21  1  0  0  0  0
  9  4  1  0  0  0  0
 12 22  1  0  0  0  0
 13 25  1  0  0  0  0
 14  1  1  0  0  0  0
 14  7  2  0  0  0  0
 16 11  1  0  0  0  0
 16 14  1  0  0  0  0
 18 15  2  0  0  0  0
 20 10  1  0  0  0  0
 20  5  1  0  0  0  0
 20  2  1  0  0  0  0
 22 16  1  0  0  0  0
 23 19  1  0  0  0  0
 23  1  1  0  0  0  0
 24 23  2  0  0  0  0
 25 18  1  0  0  0  0
 25 21  1  0  0  0  0
 26 32  1  0  0  0  0
 26 27  1  0  0  0  0
 27 21  1  0  0  0  0
 27 28  1  0  0  0  0
 30 31  1  0  0  0  0
 31 28  2  0  0  0  0
 31 29  1  0  0  0  0
 32 30  1  0  0  0  0
 33 34  1  0  0  0  0
 34 35  1  0  0  0  0
 35 36  1  0  0  0  0
 36 37  1  0  0  0  0
M  END
>  <MODEL>
2

>  <REMARK>
 VINA RESULT:      -5.6      5.929      9.959
  Name = 
  4 active torsions:
  status: ('A' for Active; 'I' for Inactive)
    1  A    between atoms: C_1  and  C_17
    2  A    between atoms: C_6  and  C_31
    3  A    between atoms: C_11  and  C_26
    4  A    between atoms: C_17  and  C_26
                            x       y       z     vdW  Elec       q    Type
                         _______ _______ _______ _____ _____    ______ ____

>  <TORSDO>
F 4

$$$$
=
 OpenBabel11052415303D

 37 42  0  0  1  0  0  0  0  0999 V2000
  181.0100  179.0810  138.9950 C   0  0  1  0  0  3  0  0  0  0  0  0
  180.4210  175.1460  135.8170 C   0  0  0  0  0  2  0  0  0  0  0  0
  184.1990  177.4860  136.4030 C   0  0  2  0  0  3  0  0  0  0  0  0
  184.8630  178.9100  139.2750 C   0  0  2  0  0  3  0  0  0  0  0  0
  183.0100  175.2410  135.9250 C   0  0  1  0  0  3  0  0  0  0  0  0
  184.1340  177.3520  137.9460 C   0  0  1  0  0  3  0  0  0  0  0  0
  179.1420  179.0960  137.2320 S   0  0  0  0  0  0  0  0  0  0  0  0
  183.0150  176.7850  135.7150 C   0  0  1  0  0  3  0  0  0  0  0  0
  185.4420  177.6200  138.7170 C   0  0  1  0  0  3  0  0  0  0  0  0
  182.4600  174.9270  137.1850 O   0  0  0  0  0  0  0  0  0  0  0  0
  181.7250  177.6110  135.8020 C   0  0  0  0  0  2  0  0  0  0  0  0
  179.7530  175.4880  138.1070 O   0  0  0  0  0  1  0  0  0  0  0  0
  186.9320  175.4930  137.0780 C   0  0  0  0  0  1  0  0  0  0  0  0
  180.3750  178.5290  137.7260 C   0  0  0  0  0  0  0  0  0  0  0  0
  185.6170  176.8870  134.5940 O   0  0  0  0  0  0  0  0  0  0  0  0
  180.9560  177.2950  137.0760 C   0  0  1  0  0  3  0  0  0  0  0  0
  184.8010  178.8450  140.7960 C   0  0  0  0  0  1  0  0  0  0  0  0
  185.5250  177.0690  135.7980 C   0  0  0  0  0  0  0  0  0  0  0  0
  183.5460  178.6250  138.5360 C   0  0  1  0  0  3  0  0  0  0  0  0
  181.7570  174.4260  136.0700 C   0  0  1  0  0  3  0  0  0  0  0  0
  186.6480  177.9170  137.8230 C   0  0  2  0  0  3  0  0  0  0  0  0
  179.9660  176.1410  136.8920 C   0  0  1  0  0  3  0  0  0  0  0  0
  182.2990  178.3810  139.3700 C   0  0  0  0  0  0  0  0  0  0  0  0
  182.2250  177.3650  140.2370 C   0  0  0  0  0  2  0  0  0  0  0  0
  186.7530  176.9410  136.6440 C   0  0  1  0  0  3  0  0  0  0  0  0
  189.1870  177.7340  137.7900 C   0  0  0  0  0  2  0  0  0  0  0  0
  187.9440  178.1160  138.6200 C   0  0  2  0  0  3  0  0  0  0  0  0
  187.9220  177.4790  139.9870 C   0  0  0  0  0  3  0  0  0  0  0  0
  189.0620  176.7790  141.9020 F   0  0  0  0  0  0  0  0  0  0  0  0
  190.3420  177.8490  140.0690 C   0  0  0  0  0  2  0  0  0  0  0  0
  189.0580  177.3790  140.6840 C   0  0  0  0  0  0  0  0  0  0  0  0
  190.4220  177.3440  138.6270 C   0  0  0  0  0  2  0  0  0  0  0  0
  181.1910  181.1950  137.6180 C   0  0  0  0  0  1  0  0  0  0  0  0
  181.1150  180.6210  139.0230 C   0  0  1  0  0  3  0  0  0  0  0  0
  180.0050  181.2830  139.8380 C   0  0  0  0  0  2  0  0  0  0  0  0
  179.3130  180.2790  140.7460 C   0  0  0  0  0  2  0  0  0  0  0  0
  179.6940  180.5190  142.1950 C   0  0  0  0  0  1  0  0  0  0  0  0
  1 34  1  6  0  0  0
  1 23  1  0  0  0  0
  2 20  1  0  0  0  0
  2 22  1  0  0  0  0
  3 18  1  6  0  0  0
  3  6  1  0  0  0  0
  4 17  1  1  0  0  0
  5 20  1  0  0  0  0
  5 10  1  1  0  0  0
  6 19  1  0  0  0  0
  6  9  1  0  0  0  0
  7 14  2  0  0  0  0
  8 11  1  0  0  0  0
  8  5  1  0  0  0  0
  8  3  1  0  0  0  0
  9  4  1  0  0  0  0
 11 16  1  0  0  0  0
 14  1  1  0  0  0  0
 15 18  2  0  0  0  0
 16 14  1  0  0  0  0
 18 25  1  0  0  0  0
 19  4  1  0  0  0  0
 19 23  1  0  0  0  0
 20 10  1  0  0  0  0
 21 27  1  0  0  0  0
 21  9  1  0  0  0  0
 22 16  1  0  0  0  0
 22 12  1  0  0  0  0
 23 24  2  0  0  0  0
 25 13  1  0  0  0  0
 25 21  1  0  0  0  0
 26 27  1  0  0  0  0
 26 32  1  0  0  0  0
 27 28  1  0  0  0  0
 28 31  2  0  0  0  0
 30 31  1  0  0  0  0
 31 29  1  0  0  0  0
 32 30  1  0  0  0  0
 33 34  1  0  0  0  0
 34 35  1  0  0  0  0
 35 36  1  0  0  0  0
 36 37  1  0  0  0  0
M  END
>  <MODEL>
3

>  <REMARK>
 VINA RESULT:      -5.3      3.161      5.979
  Name = 
  4 active torsions:
  status: ('A' for Active; 'I' for Inactive)
    1  A    between atoms: C_1  and  C_17
    2  A    between atoms: C_6  and  C_31
    3  A    between atoms: C_11  and  C_26
    4  A    between atoms: C_17  and  C_26
                            x       y       z     vdW  Elec       q    Type
                         _______ _______ _______ _____ _____    ______ ____

>  <TORSDO>
F 4

$$$$
=
 OpenBabel11052415303D

 37 42  0  0  1  0  0  0  0  0999 V2000
  188.3650  178.0380  139.3680 C   0  0  1  0  0  3  0  0  0  0  0  0
  190.0890  175.1800  135.5220 C   0  0  0  0  0  2  0  0  0  0  0  0
  185.9420  175.0480  137.2190 C   0  0  2  0  0  3  0  0  0  0  0  0
  184.5950  177.7090  138.5710 C   0  0  2  0  0  3  0  0  0  0  0  0
  187.5360  174.8700  135.1920 C   0  0  1  0  0  3  0  0  0  0  0  0
  185.7730  176.5860  137.1280 C   0  0  1  0  0  3  0  0  0  0  0  0
  190.4710  176.5970  139.6560 S   0  0  0  0  0  0  0  0  0  0  0  0
  187.3190  174.5910  136.7100 C   0  0  1  0  0  3  0  0  0  0  0  0
  184.3300  177.1260  137.1920 C   0  0  1  0  0  3  0  0  0  0  0  0
  187.9130  176.2150  134.9970 O   0  0  0  0  0  0  0  0  0  0  0  0
  188.4290  174.8430  137.7380 C   0  0  0  0  0  2  0  0  0  0  0  0
  190.3070  177.5290  136.0150 O   0  0  0  0  0  1  0  0  0  0  0  0
  183.4880  175.3700  134.8170 C   0  0  0  0  0  1  0  0  0  0  0  0
  189.2810  176.9140  138.9030 C   0  0  0  0  0  0  0  0  0  0  0  0
  184.9550  173.0650  136.3600 O   0  0  0  0  0  0  0  0  0  0  0  0
  189.0180  176.2370  137.5780 C   0  0  1  0  0  3  0  0  0  0  0  0
  184.4160  179.2210  138.5470 C   0  0  0  0  0  1  0  0  0  0  0  0
  184.8170  174.2600  136.5780 C   0  0  0  0  0  0  0  0  0  0  0  0
  186.0450  177.2030  138.4920 C   0  0  1  0  0  3  0  0  0  0  0  0
  188.8610  175.2500  134.5980 C   0  0  1  0  0  3  0  0  0  0  0  0
  183.2550  176.0380  137.2690 C   0  0  2  0  0  3  0  0  0  0  0  0
  190.1960  176.2670  136.6000 C   0  0  1  0  0  3  0  0  0  0  0  0
  187.1610  178.2360  138.4730 C   0  0  0  0  0  0  0  0  0  0  0  0
  187.2510  179.1490  137.5010 C   0  0  0  0  0  2  0  0  0  0  0  0
  183.5030  174.9040  136.2670 C   0  0  1  0  0  3  0  0  0  0  0  0
  181.7590  177.9570  136.5220 C   0  0  0  0  0  2  0  0  0  0  0  0
  181.8310  176.6090  137.2670 C   0  0  2  0  0  3  0  0  0  0  0  0
  181.1880  176.6470  138.6310 C   0  0  0  0  0  3  0  0  0  0  0  0
  179.4780  177.4010  140.0320 F   0  0  0  0  0  0  0  0  0  0  0  0
  179.4680  178.0890  137.6500 C   0  0  0  0  0  2  0  0  0  0  0  0
  180.0520  177.3280  138.8030 C   0  0  0  0  0  0  0  0  0  0  0  0
  180.5830  178.8610  136.9430 C   0  0  0  0  0  2  0  0  0  0  0  0
  189.2220  178.3010  141.7340 C   0  0  0  0  0  1  0  0  0  0  0  0
  188.0140  177.9780  140.8710 C   0  0  1  0  0  3  0  0  0  0  0  0
  186.8140  178.8480  141.2410 C   0  0  0  0  0  2  0  0  0  0  0  0
  186.0490  178.2610  142.4170 C   0  0  0  0  0  2  0  0  0  0  0  0
  184.5590  178.4930  142.2530 C   0  0  0  0  0  1  0  0  0  0  0  0
  1 34  1  1  0  0  0
  2 22  1  0  0  0  0
  3 18  1  6  0  0  0
  4 17  1  6  0  0  0
  5 10  1  1  0  0  0
  5  8  1  0  0  0  0
  6  9  1  0  0  0  0
  6  3  1  0  0  0  0
  6 19  1  0  0  0  0
  8  3  1  0  0  0  0
  8 11  1  0  0  0  0
  9 21  1  0  0  0  0
  9  4  1  0  0  0  0
 12 22  1  0  0  0  0
 13 25  1  0  0  0  0
 14  1  1  0  0  0  0
 14  7  2  0  0  0  0
 15 18  2  0  0  0  0
 16 11  1  0  0  0  0
 16 14  1  0  0  0  0
 19  4  1  0  0  0  0
 20 10  1  0  0  0  0
 20  5  1  0  0  0  0
 20  2  1  0  0  0  0
 22 16  1  0  0  0  0
 23 19  1  0  0  0  0
 23  1  1  0  0  0  0
 24 23  2  0  0  0  0
 25 18  1  0  0  0  0
 25 21  1  0  0  0  0
 26 32  1  0  0  0  0
 26 27  1  0  0  0  0
 27 21  1  0  0  0  0
 27 28  1  0  0  0  0
 28 31  2  0  0  0  0
 30 31  1  0  0  0  0
 31 29  1  0  0  0  0
 32 30  1  0  0  0  0
 34 35  1  0  0  0  0
 34 33  1  0  0  0  0
 35 36  1  0  0  0  0
 37 36  1  0  0  0  0
M  END
>  <MODEL>
4

>  <REMARK>
 VINA RESULT:      -4.5      4.331      8.403
  Name = 
  4 active torsions:
  status: ('A' for Active; 'I' for Inactive)
    1  A    between atoms: C_1  and  C_17
    2  A    between atoms: C_6  and  C_31
    3  A    between atoms: C_11  and  C_26
    4  A    between atoms: C_17  and  C_26
                            x       y       z     vdW  Elec       q    Type
                         _______ _______ _______ _____ _____    ______ ____

>  <TORSDO>
F 4

$$$$
=
 OpenBabel11052415303D

 37 42  0  0  1  0  0  0  0  0999 V2000
  188.5120  177.8340  141.3520 C   0  0  1  0  0  3  0  0  0  0  0  0
  188.6460  178.3360  136.2870 C   0  0  0  0  0  2  0  0  0  0  0  0
  185.1010  177.0050  138.6860 C   0  0  2  0  0  3  0  0  0  0  0  0
  184.6710  178.0390  141.7620 C   0  0  2  0  0  3  0  0  0  0  0  0
  186.0800  178.2690  136.6550 C   0  0  1  0  0  3  0  0  0  0  0  0
  185.2160  178.2020  139.6630 C   0  0  1  0  0  3  0  0  0  0  0  0
  190.3030  176.6210  139.9680 S   0  0  0  0  0  0  0  0  0  0  0  0
  186.1940  177.0390  137.6040 C   0  0  1  0  0  3  0  0  0  0  0  0
  183.9670  178.5260  140.5060 C   0  0  1  0  0  3  0  0  0  0  0  0
  186.6510  179.4050  137.2650 O   0  0  0  0  0  0  0  0  0  0  0  0
  187.5510  176.5610  138.1390 C   0  0  0  0  0  2  0  0  0  0  0  0
  189.4300  179.7510  138.0720 O   0  0  0  0  0  1  0  0  0  0  0  0
  182.2410  178.7990  137.9800 C   0  0  0  0  0  1  0  0  0  0  0  0
  189.0480  177.3340  140.0180 C   0  0  0  0  0  0  0  0  0  0  0  0
  183.5680  176.0890  137.1190 O   0  0  0  0  0  0  0  0  0  0  0  0
  188.3410  177.7150  138.7380 C   0  0  1  0  0  3  0  0  0  0  0  0
  184.7880  179.1720  142.7730 C   0  0  0  0  0  1  0  0  0  0  0  0
  183.7220  176.8250  138.0820 C   0  0  0  0  0  0  0  0  0  0  0  0
  185.9300  177.7500  140.9280 C   0  0  1  0  0  3  0  0  0  0  0  0
  187.2660  178.9800  136.0690 C   0  0  1  0  0  3  0  0  0  0  0  0
  182.7540  177.6440  140.1970 C   0  0  2  0  0  3  0  0  0  0  0  0
  189.2240  178.4200  137.7050 C   0  0  1  0  0  3  0  0  0  0  0  0
  187.1850  178.5540  141.2300 C   0  0  0  0  0  0  0  0  0  0  0  0
  187.2080  179.8850  141.1090 C   0  0  0  0  0  2  0  0  0  0  0  0
  182.5220  177.4810  138.6890 C   0  0  1  0  0  3  0  0  0  0  0  0
  180.3080  177.1290  140.6780 C   0  0  0  0  0  2  0  0  0  0  0  0
  181.5120  178.0350  141.0070 C   0  0  2  0  0  3  0  0  0  0  0  0
  181.1840  179.5070  140.9480 C   0  0  0  0  0  3  0  0  0  0  0  0
  179.6830  181.2540  141.3370 F   0  0  0  0  0  0  0  0  0  0  0  0
  179.0130  178.9420  141.9340 C   0  0  0  0  0  2  0  0  0  0  0  0
  180.0080  179.9370  141.4130 C   0  0  0  0  0  0  0  0  0  0  0  0
  178.9310  177.7620  140.9630 C   0  0  0  0  0  2  0  0  0  0  0  0
  189.8820  176.7470  143.1800 C   0  0  0  0  0  1  0  0  0  0  0  0
  188.5360  176.7740  142.4750 C   0  0  1  0  0  3  0  0  0  0  0  0
  187.3870  176.9270  143.4690 C   0  0  0  0  0  2  0  0  0  0  0  0
  187.8720  177.5060  144.7880 C   0  0  0  0  0  2  0  0  0  0  0  0
  186.7340  177.5840  145.7880 C   0  0  0  0  0  1  0  0  0  0  0  0
  1 34  1  1  0  0  0
  2 22  1  0  0  0  0
  3 18  1  6  0  0  0
  3  6  1  0  0  0  0
  4 17  1  1  0  0  0
  5 10  1  1  0  0  0
  5  8  1  0  0  0  0
  6  9  1  0  0  0  0
  6 19  1  0  0  0  0
  7 14  2  0  0  0  0
  8 11  1  0  0  0  0
  8  3  1  0  0  0  0
  9  4  1  0  0  0  0
 11 16  1  0  0  0  0
 13 25  1  0  0  0  0
 14  1  1  0  0  0  0
 15 18  2  0  0  0  0
 16 14  1  0  0  0  0
 18 25  1  0  0  0  0
 19 23  1  0  0  0  0
 19  4  1  0  0  0  0
 20  2  1  0  0  0  0
 20  5  1  0  0  0  0
 20 10  1  0  0  0  0
 21  9  1  0  0  0  0
 21 27  1  0  0  0  0
 22 12  1  0  0  0  0
 22 16  1  0  0  0  0
 23  1  1  0  0  0  0
 24 23  2  0  0  0  0
 25 21  1  0  0  0  0
 26 32  1  0  0  0  0
 26 27  1  0  0  0  0
 28 27  1  0  0  0  0
 28 31  2  0  0  0  0
 29 31  1  0  0  0  0
 31 30  1  0  0  0  0
 32 30  1  0  0  0  0
 34 33  1  0  0  0  0
 34 35  1  0  0  0  0
 35 36  1  0  0  0  0
 36 37  1  0  0  0  0
M  END
>  <MODEL>
5

>  <REMARK>
 VINA RESULT:      -4.2      3.556      7.189
  Name = 
  4 active torsions:
  status: ('A' for Active; 'I' for Inactive)
    1  A    between atoms: C_1  and  C_17
    2  A    between atoms: C_6  and  C_31
    3  A    between atoms: C_11  and  C_26
    4  A    between atoms: C_17  and  C_26
                            x       y       z     vdW  Elec       q    Type
                         _______ _______ _______ _____ _____    ______ ____

>  <TORSDO>
F 4

$$$$
=
 OpenBabel11052415303D

 37 42  0  0  1  0  0  0  0  0999 V2000
  183.2360  178.2910  137.4610 C   0  0  1  0  0  3  0  0  0  0  0  0
  178.9310  180.8480  138.3880 C   0  0  0  0  0  2  0  0  0  0  0  0
  181.1840  178.3650  141.3620 C   0  0  2  0  0  3  0  0  0  0  0  0
  184.4290  177.9980  141.1280 C   0  0  2  0  0  3  0  0  0  0  0  0
  179.7270  180.4290  140.8200 C   0  0  1  0  0  3  0  0  0  0  0  0
  182.5320  179.0560  141.0340 C   0  0  1  0  0  3  0  0  0  0  0  0
  181.1510  177.9060  136.0110 S   0  0  0  0  0  0  0  0  0  0  0  0
  180.0280  178.9300  140.5200 C   0  0  1  0  0  3  0  0  0  0  0  0
  183.6580  178.9010  142.0770 C   0  0  1  0  0  3  0  0  0  0  0  0
  180.6340  181.2540  140.1240 O   0  0  0  0  0  0  0  0  0  0  0  0
  180.0380  178.3860  139.0850 C   0  0  0  0  0  2  0  0  0  0  0  0
  180.9570  181.4580  137.2340 O   0  0  0  0  0  1  0  0  0  0  0  0
  181.8680  180.0540  144.2910 C   0  0  0  0  0  1  0  0  0  0  0  0
  181.7390  178.4310  137.2210 C   0  0  0  0  0  0  0  0  0  0  0  0
  179.7080  178.0580  143.1980 O   0  0  0  0  0  0  0  0  0  0  0  0
  180.9020  179.2480  138.1780 C   0  0  1  0  0  3  0  0  0  0  0  0
  185.7790  178.6170  140.7920 C   0  0  0  0  0  1  0  0  0  0  0  0
  180.8410  178.3400  142.8390 C   0  0  0  0  0  0  0  0  0  0  0  0
  183.3250  178.1820  140.0750 C   0  0  1  0  0  3  0  0  0  0  0  0
  179.2770  181.4120  139.7770 C   0  0  1  0  0  3  0  0  0  0  0  0
  183.2470  178.1310  143.3350 C   0  0  2  0  0  3  0  0  0  0  0  0
  180.1120  180.3860  137.5240 C   0  0  1  0  0  3  0  0  0  0  0  0
  183.6870  178.8870  138.7780 C   0  0  0  0  0  0  0  0  0  0  0  0
  184.1350  180.1470  138.7690 C   0  0  0  0  0  2  0  0  0  0  0  0
  181.8880  178.5880  143.8790 C   0  0  1  0  0  3  0  0  0  0  0  0
  184.3100  179.2280  145.3720 C   0  0  0  0  0  2  0  0  0  0  0  0
  184.3710  178.0510  144.3760 C   0  0  2  0  0  3  0  0  0  0  0  0
  185.7420  177.8480  143.7790 C   0  0  0  0  0  3  0  0  0  0  0  0
  188.0650  177.8460  144.0210 F   0  0  0  0  0  0  0  0  0  0  0  0
  186.6550  178.4120  145.9810 C   0  0  0  0  0  2  0  0  0  0  0  0
  186.8220  177.9930  144.5500 C   0  0  0  0  0  0  0  0  0  0  0  0
  185.6520  179.5640  146.0510 C   0  0  0  0  0  2  0  0  0  0  0  0
  183.5360  176.4270  135.7770 C   0  0  0  0  0  1  0  0  0  0  0  0
  183.7790  176.8670  137.2110 C   0  0  1  0  0  3  0  0  0  0  0  0
  185.2470  176.7080  137.6040 C   0  0  0  0  0  2  0  0  0  0  0  0
  186.1660  177.3520  136.5780 C   0  0  0  0  0  2  0  0  0  0  0  0
  187.0900  178.3530  137.2430 C   0  0  0  0  0  1  0  0  0  0  0  0
  1 34  1  1  0  0  0
  1 23  1  0  0  0  0
  2 20  1  0  0  0  0
  3 18  1  1  0  0  0
  4 17  1  6  0  0  0
  4  9  1  0  0  0  0
  5 10  1  6  0  0  0
  6  3  1  0  0  0  0
  6  9  1  0  0  0  0
  7 14  2  0  0  0  0
  8  5  1  0  0  0  0
  8  3  1  0  0  0  0
  9 21  1  0  0  0  0
 11  8  1  0  0  0  0
 12 22  1  0  0  0  0
 14  1  1  0  0  0  0
 14 16  1  0  0  0  0
 16 11  1  0  0  0  0
 18 15  2  0  0  0  0
 18 25  1  0  0  0  0
 19  6  1  0  0  0  0
 19  4  1  0  0  0  0
 20 10  1  0  0  0  0
 20  5  1  0  0  0  0
 21 25  1  0  0  0  0
 21 27  1  0  0  0  0
 22 16  1  0  0  0  0
 22  2  1  0  0  0  0
 23 19  1  0  0  0  0
 24 23  2  0  0  0  0
 25 13  1  0  0  0  0
 26 32  1  0  0  0  0
 27 26  1  0  0  0  0
 28 27  1  0  0  0  0
 28 31  2  0  0  0  0
 29 31  1  0  0  0  0
 30 32  1  0  0  0  0
 31 30  1  0  0  0  0
 33 34  1  0  0  0  0
 34 35  1  0  0  0  0
 36 37  1  0  0  0  0
 36 35  1  0  0  0  0
M  END
>  <MODEL>
6

>  <REMARK>
 VINA RESULT:      -4.2      1.320      1.994
  Name = 
  4 active torsions:
  status: ('A' for Active; 'I' for Inactive)
    1  A    between atoms: C_1  and  C_17
    2  A    between atoms: C_6  and  C_31
    3  A    between atoms: C_11  and  C_26
    4  A    between atoms: C_17  and  C_26
                            x       y       z     vdW  Elec       q    Type
                         _______ _______ _______ _____ _____    ______ ____

>  <TORSDO>
F 4

$$$$
=
 OpenBabel11052415303D

 37 42  0  0  1  0  0  0  0  0999 V2000
  181.4400  178.1850  138.5230 C   0  0  1  0  0  3  0  0  0  0  0  0
  183.5000  175.5060  134.7140 C   0  0  0  0  0  2  0  0  0  0  0  0
  185.7420  178.1440  137.5610 C   0  0  2  0  0  3  0  0  0  0  0  0
  184.6630  178.6160  140.6160 C   0  0  2  0  0  3  0  0  0  0  0  0
  185.6330  176.0160  136.0970 C   0  0  1  0  0  3  0  0  0  0  0  0
  185.0850  177.4910  138.8040 C   0  0  1  0  0  3  0  0  0  0  0  0
  180.5780  178.4590  136.1190 S   0  0  0  0  0  0  0  0  0  0  0  0
  185.2400  177.5160  136.2500 C   0  0  1  0  0  3  0  0  0  0  0  0
  185.7950  177.7120  140.1550 C   0  0  1  0  0  3  0  0  0  0  0  0
  184.7380  175.2050  136.8250 O   0  0  0  0  0  0  0  0  0  0  0  0
  183.8440  178.0230  135.8640 C   0  0  0  0  0  2  0  0  0  0  0  0
  181.8680  174.9360  136.3930 O   0  0  0  0  0  1  0  0  0  0  0  0
  188.4190  176.5580  139.0500 C   0  0  0  0  0  1  0  0  0  0  0  0
  181.6010  177.9870  137.0210 C   0  0  0  0  0  0  0  0  0  0  0  0
  187.8940  178.4480  136.6020 O   0  0  0  0  0  0  0  0  0  0  0  0
  182.7570  177.1670  136.4960 C   0  0  1  0  0  3  0  0  0  0  0  0
  183.9970  178.0350  141.8560 C   0  0  0  0  0  1  0  0  0  0  0  0
  187.2560  178.1960  137.6130 C   0  0  0  0  0  0  0  0  0  0  0  0
  183.9380  178.3660  139.2840 C   0  0  1  0  0  3  0  0  0  0  0  0
  184.7600  174.9920  135.4310 C   0  0  1  0  0  3  0  0  0  0  0  0
  187.1040  178.5000  140.0550 C   0  0  2  0  0  3  0  0  0  0  0  0
  182.3510  175.9860  135.6090 C   0  0  1  0  0  3  0  0  0  0  0  0
  182.6030  177.6400  139.3240 C   0  0  0  0  0  0  0  0  0  0  0  0
  182.4990  176.3960  139.8050 C   0  0  0  0  0  2  0  0  0  0  0  0
  187.9910  178.0120  138.9030 C   0  0  1  0  0  3  0  0  0  0  0  0
  189.3450  178.5340  141.2610 C   0  0  0  0  0  2  0  0  0  0  0  0
  187.8140  178.6470  141.4070 C   0  0  2  0  0  3  0  0  0  0  0  0
  187.2530  177.7590  142.4900 C   0  0  0  0  0  3  0  0  0  0  0  0
  187.4470  176.7980  144.6090 F   0  0  0  0  0  0  0  0  0  0  0  0
  189.2460  178.3020  143.8050 C   0  0  0  0  0  2  0  0  0  0  0  0
  187.9220  177.6190  143.6370 C   0  0  0  0  0  0  0  0  0  0  0  0
  190.0810  178.0920  142.5410 C   0  0  0  0  0  2  0  0  0  0  0  0
  180.9250  179.7600  140.4340 C   0  0  0  0  0  1  0  0  0  0  0  0
  181.0330  179.6190  138.9250 C   0  0  1  0  0  3  0  0  0  0  0  0
  181.9440  180.6900  138.3270 C   0  0  0  0  0  2  0  0  0  0  0  0
  181.2820  182.0590  138.3610 C   0  0  0  0  0  2  0  0  0  0  0  0
  181.1650  182.6290  136.9600 C   0  0  0  0  0  1  0  0  0  0  0  0
  1 34  1  6  0  0  0
  1 23  1  0  0  0  0
  2 20  1  0  0  0  0
  2 22  1  0  0  0  0
  3 18  1  1  0  0  0
  3  6  1  0  0  0  0
  4 17  1  1  0  0  0
  5  8  1  0  0  0  0
  5 10  1  1  0  0  0
  6 19  1  0  0  0  0
  6  9  1  0  0  0  0
  7 14  2  0  0  0  0
  8  3  1  0  0  0  0
  9  4  1  0  0  0  0
 11  8  1  0  0  0  0
 11 16  1  0  0  0  0
 14  1  1  0  0  0  0
 15 18  2  0  0  0  0
 16 14  1  0  0  0  0
 18 25  1  0  0  0  0
 19 23  1  0  0  0  0
 19  4  1  0  0  0  0
 20  5  1  0  0  0  0
 20 10  1  0  0  0  0
 21  9  1  0  0  0  0
 21 27  1  0  0  0  0
 22 12  1  0  0  0  0
 22 16  1  0  0  0  0
 23 24  2  0  0  0  0
 25 13  1  0  0  0  0
 25 21  1  0  0  0  0
 26 27  1  0  0  0  0
 26 32  1  0  0  0  0
 27 28  1  0  0  0  0
 28 31  2  0  0  0  0
 31 30  1  0  0  0  0
 31 29  1  0  0  0  0
 32 30  1  0  0  0  0
 34 33  1  0  0  0  0
 35 36  1  0  0  0  0
 35 34  1  0  0  0  0
 37 36  1  0  0  0  0
M  END
>  <MODEL>
7

>  <REMARK>
 VINA RESULT:      -4.0      2.758      5.534
  Name = 
  4 active torsions:
  status: ('A' for Active; 'I' for Inactive)
    1  A    between atoms: C_1  and  C_17
    2  A    between atoms: C_6  and  C_31
    3  A    between atoms: C_11  and  C_26
    4  A    between atoms: C_17  and  C_26
                            x       y       z     vdW  Elec       q    Type
                         _______ _______ _______ _____ _____    ______ ____

>  <TORSDO>
F 4

$$$$
=
 OpenBabel11052415303D

 37 42  0  0  1  0  0  0  0  0999 V2000
  189.8740  176.9570  137.3980 C   0  0  1  0  0  3  0  0  0  0  0  0
  190.1850  172.2980  135.3680 C   0  0  0  0  0  2  0  0  0  0  0  0
  186.5370  174.0800  137.2680 C   0  0  2  0  0  3  0  0  0  0  0  0
  186.0270  177.3130  137.2180 C   0  0  2  0  0  3  0  0  0  0  0  0
  187.6080  172.5630  135.4700 C   0  0  1  0  0  3  0  0  0  0  0  0
  186.6440  175.3810  136.4340 C   0  0  1  0  0  3  0  0  0  0  0  0
  191.6850  175.3120  138.1790 S   0  0  0  0  0  0  0  0  0  0  0  0
  187.6660  173.0890  136.9350 C   0  0  1  0  0  3  0  0  0  0  0  0
  185.3740  176.2520  136.3490 C   0  0  1  0  0  3  0  0  0  0  0  0
  188.1810  173.5070  134.5940 O   0  0  0  0  0  0  0  0  0  0  0  0
  188.9950  173.4850  137.5930 C   0  0  0  0  0  2  0  0  0  0  0  0
  190.9380  174.4520  134.5940 O   0  0  0  0  0  1  0  0  0  0  0  0
  183.7380  173.8900  135.2620 C   0  0  0  0  0  1  0  0  0  0  0  0
  190.4440  175.5470  137.4800 C   0  0  0  0  0  0  0  0  0  0  0  0
  185.0380  172.2690  137.6130 O   0  0  0  0  0  0  0  0  0  0  0  0
  189.7870  174.4300  136.7030 C   0  0  1  0  0  3  0  0  0  0  0  0
  186.1330  178.6270  136.4550 C   0  0  0  0  0  1  0  0  0  0  0  0
  185.1760  173.4150  137.2140 C   0  0  0  0  0  0  0  0  0  0  0  0
  187.3070  176.4630  137.2730 C   0  0  1  0  0  3  0  0  0  0  0  0
  188.8260  172.2540  134.6480 C   0  0  1  0  0  3  0  0  0  0  0  0
  184.1550  175.6550  137.0570 C   0  0  2  0  0  3  0  0  0  0  0  0
  190.7180  173.6870  135.7400 C   0  0  1  0  0  3  0  0  0  0  0  0
  188.5670  177.0290  136.6380 C   0  0  0  0  0  0  0  0  0  0  0  0
  188.6200  177.3250  135.3350 C   0  0  0  0  0  2  0  0  0  0  0  0
  183.9690  174.1650  136.7420 C   0  0  1  0  0  3  0  0  0  0  0  0
  183.0980  177.9330  137.4700 C   0  0  0  0  0  2  0  0  0  0  0  0
  182.8950  176.5150  136.8980 C   0  0  2  0  0  3  0  0  0  0  0  0
  181.6350  175.8490  137.3930 C   0  0  0  0  0  3  0  0  0  0  0  0
  179.3850  175.9940  138.0020 F   0  0  0  0  0  0  0  0  0  0  0  0
  180.5540  178.0420  137.2360 C   0  0  0  0  0  2  0  0  0  0  0  0
  180.5190  176.5710  137.5260 C   0  0  0  0  0  0  0  0  0  0  0  0
  181.7980  178.6500  137.8850 C   0  0  0  0  0  2  0  0  0  0  0  0
  189.0730  179.0060  138.6480 C   0  0  0  0  0  1  0  0  0  0  0  0
  189.8410  177.6980  138.7530 C   0  0  1  0  0  3  0  0  0  0  0  0
  189.3180  176.8320  139.8970 C   0  0  0  0  0  2  0  0  0  0  0  0
  189.8850  177.2820  141.2340 C   0  0  0  0  0  2  0  0  0  0  0  0
  188.9670  176.8690  142.3690 C   0  0  0  0  0  1  0  0  0  0  0  0
  1 14  1  0  0  0  0
  1 34  1  1  0  0  0
  2 22  1  0  0  0  0
  3 18  1  6  0  0  0
  4 17  1  6  0  0  0
  4 19  1  0  0  0  0
  5 10  1  6  0  0  0
  5  8  1  0  0  0  0
  6  3  1  0  0  0  0
  6 19  1  0  0  0  0
  8  3  1  0  0  0  0
  8 11  1  0  0  0  0
  9  6  1  0  0  0  0
  9 21  1  0  0  0  0
  9  4  1  0  0  0  0
 10 20  1  0  0  0  0
 12 22  1  0  0  0  0
 13 25  1  0  0  0  0
 14  7  2  0  0  0  0
 16 14  1  0  0  0  0
 16 11  1  0  0  0  0
 18 15  2  0  0  0  0
 20  2  1  0  0  0  0
 20  5  1  0  0  0  0
 22 16  1  0  0  0  0
 23 19  1  0  0  0  0
 23  1  1  0  0  0  0
 24 23  2  0  0  0  0
 25 21  1  0  0  0  0
 25 18  1  0  0  0  0
 26 32  1  0  0  0  0
 27 21  1  0  0  0  0
 27 28  1  0  0  0  0
 27 26  1  0  0  0  0
 28 31  2  0  0  0  0
 30 31  1  0  0  0  0
 30 32  1  0  0  0  0
 31 29  1  0  0  0  0
 33 34  1  0  0  0  0
 34 35  1  0  0  0  0
 35 36  1  0  0  0  0
 36 37  1  0  0  0  0
M  END
>  <MODEL>
8

>  <REMARK>
 VINA RESULT:      -4.0      5.287      9.213
  Name = 
  4 active torsions:
  status: ('A' for Active; 'I' for Inactive)
    1  A    between atoms: C_1  and  C_17
    2  A    between atoms: C_6  and  C_31
    3  A    between atoms: C_11  and  C_26
    4  A    between atoms: C_17  and  C_26
                            x       y       z     vdW  Elec       q    Type
                         _______ _______ _______ _____ _____    ______ ____

>  <TORSDO>
F 4

$$$$
=
 OpenBabel11052415303D

 37 42  0  0  1  0  0  0  0  0999 V2000
  186.3980  178.6890  140.2510 C   0  0  1  0  0  3  0  0  0  0  0  0
  189.5730  177.8570  136.3580 C   0  0  0  0  0  2  0  0  0  0  0  0
  185.9170  175.4430  137.3070 C   0  0  2  0  0  3  0  0  0  0  0  0
  183.3440  176.8090  138.8010 C   0  0  2  0  0  3  0  0  0  0  0  0
  187.5330  176.4650  135.5680 C   0  0  1  0  0  3  0  0  0  0  0  0
  185.0210  176.7030  137.4210 C   0  0  1  0  0  3  0  0  0  0  0  0
  188.9140  178.3770  140.6630 S   0  0  0  0  0  0  0  0  0  0  0  0
  187.3740  175.8030  136.9700 C   0  0  1  0  0  3  0  0  0  0  0  0
  183.4990  176.4760  137.3270 C   0  0  1  0  0  3  0  0  0  0  0  0
  187.2140  177.8360  135.6420 O   0  0  0  0  0  0  0  0  0  0  0  0
  188.1400  176.3220  138.1930 C   0  0  0  0  0  2  0  0  0  0  0  0
  188.5740  179.8700  137.2270 O   0  0  0  0  0  1  0  0  0  0  0  0
  183.8010  175.0780  134.6090 C   0  0  0  0  0  1  0  0  0  0  0  0
  187.7780  178.2510  139.7810 C   0  0  0  0  0  0  0  0  0  0  0  0
  186.0960  173.4610  136.0090 O   0  0  0  0  0  0  0  0  0  0  0  0
  187.9770  177.8270  138.3440 C   0  0  1  0  0  3  0  0  0  0  0  0
  182.4470  178.0280  138.9750 C   0  0  0  0  0  1  0  0  0  0  0  0
  185.3740  174.3750  136.3780 C   0  0  0  0  0  0  0  0  0  0  0  0
  184.8570  177.0710  138.8880 C   0  0  1  0  0  3  0  0  0  0  0  0
  188.5390  177.5370  135.2650 C   0  0  1  0  0  3  0  0  0  0  0  0
  183.0950  175.0240  137.0600 C   0  0  2  0  0  3  0  0  0  0  0  0
  189.0560  178.6110  137.5900 C   0  0  1  0  0  3  0  0  0  0  0  0
  185.3190  178.4830  139.2090 C   0  0  0  0  0  0  0  0  0  0  0  0
  185.0180  179.5140  138.4130 C   0  0  0  0  0  2  0  0  0  0  0  0
  183.9390  174.3780  135.9540 C   0  0  1  0  0  3  0  0  0  0  0  0
  181.2190  173.4400  136.3870 C   0  0  0  0  0  2  0  0  0  0  0  0
  181.5790  174.8470  136.9090 C   0  0  2  0  0  3  0  0  0  0  0  0
  180.9090  175.9570  136.1380 C   0  0  0  0  0  3  0  0  0  0  0  0
  179.0360  176.7840  135.0140 F   0  0  0  0  0  0  0  0  0  0  0  0
  178.9310  174.5180  136.0140 C   0  0  0  0  0  2  0  0  0  0  0  0
  179.6430  175.8080  135.7380 C   0  0  0  0  0  0  0  0  0  0  0  0
  179.8570  173.3510  135.6700 C   0  0  0  0  0  2  0  0  0  0  0  0
  187.2490  177.8690  142.4880 C   0  0  0  0  0  1  0  0  0  0  0  0
  186.0140  178.1550  141.6490 C   0  0  1  0  0  3  0  0  0  0  0  0
  185.0330  179.0610  142.3880 C   0  0  0  0  0  2  0  0  0  0  0  0
  184.1150  178.2570  143.2960 C   0  0  0  0  0  2  0  0  0  0  0  0
  184.3160  178.6550  144.7460 C   0  0  0  0  0  1  0  0  0  0  0  0
  1 34  1  1  0  0  0
  2 22  1  0  0  0  0
  3 18  1  6  0  0  0
  3  6  1  0  0  0  0
  4 19  1  0  0  0  0
  4 17  1  6  0  0  0
  5 10  1  1  0  0  0
  5  8  1  0  0  0  0
  6 19  1  0  0  0  0
  8  3  1  0  0  0  0
  8 11  1  0  0  0  0
  9  6  1  0  0  0  0
  9  4  1  0  0  0  0
 11 16  1  0  0  0  0
 12 22  1  0  0  0  0
 13 25  1  0  0  0  0
 14  1  1  0  0  0  0
 14  7  2  0  0  0  0
 15 18  2  0  0  0  0
 16 14  1  0  0  0  0
 19 23  1  0  0  0  0
 20  5  1  0  0  0  0
 20 10  1  0  0  0  0
 20  2  1  0  0  0  0
 21  9  1  0  0  0  0
 22 16  1  0  0  0  0
 23  1  1  0  0  0  0
 24 23  2  0  0  0  0
 25 18  1  0  0  0  0
 25 21  1  0  0  0  0
 26 27  1  0  0  0  0
 27 21  1  0  0  0  0
 28 27  1  0  0  0  0
 29 31  1  0  0  0  0
 31 30  1  0  0  0  0
 31 28  2  0  0  0  0
 32 30  1  0  0  0  0
 32 26  1  0  0  0  0
 34 35  1  0  0  0  0
 34 33  1  0  0  0  0
 35 36  1  0  0  0  0
 36 37  1  0  0  0  0
M  END
>  <MODEL>
9

>  <REMARK>
 VINA RESULT:      -3.9      4.303      8.569
  Name = 
  4 active torsions:
  status: ('A' for Active; 'I' for Inactive)
    1  A    between atoms: C_1  and  C_17
    2  A    between atoms: C_6  and  C_31
    3  A    between atoms: C_11  and  C_26
    4  A    between atoms: C_17  and  C_26
                            x       y       z     vdW  Elec       q    Type
                         _______ _______ _______ _____ _____    ______ ____

>  <TORSDO>
F 4

$$$$
