=
 OpenBabel11052412433D

 25 27  0  0  1  0  0  0  0  0999 V2000
  188.6900  177.0800  145.5300 C   0  0  2  0  0  3  0  0  0  0  0  0
  187.6290  178.0670  145.4800 N   0  0  1  0  0  0  0  0  0  0  0  0
  187.9390  177.9270  149.0400 O   0  0  0  0  0  1  0  0  0  0  0  0
  188.2490  178.3610  147.7520 C   0  0  1  0  0  3  0  0  0  0  0  0
  185.9390  179.0430  146.8440 C   0  0  0  0  0  0  0  0  0  0  0  0
  185.6780  179.7530  147.8520 O   0  0  0  0  0  0  0  0  0  0  0  0
  186.6190  177.6660  144.6230 O   0  0  0  0  0  0  0  0  0  0  0  0
  189.6210  177.3590  147.0830 S   0  0  0  0  0  0  0  0  0  0  0  0
  185.0740  179.0550  145.6990 N   0  0  0  0  0  0  0  0  0  0  0  0
  185.3950  178.3540  144.6480 C   0  0  0  0  0  0  0  0  0  0  0  0
  187.0920  178.0870  146.8250 C   0  0  1  0  0  3  0  0  0  0  0  0
  189.5810  177.1800  144.3260 C   0  0  0  0  0  0  0  0  0  0  0  0
  191.3300  177.4390  142.1470 C   0  0  0  0  0  3  0  0  0  0  0  0
  189.4020  176.3840  143.1720 C   0  0  0  0  0  0  0  0  0  0  0  0
  190.2790  176.5190  142.0920 C   0  0  0  0  0  3  0  0  0  0  0  0
  191.5070  178.2280  143.2850 C   0  0  0  0  0  3  0  0  0  0  0  0
  188.3420  175.4360  143.0870 N   0  0  0  0  0  1  0  0  0  0  0  0
  190.6350  178.0980  144.3690 C   0  0  0  0  0  3  0  0  0  0  0  0
  184.4840  178.3020  143.4640 C   0  0  0  0  0  2  0  0  0  0  0  0
  185.1330  178.8510  142.1880 C   0  0  1  0  0  3  0  0  0  0  0  0
  186.6030  178.4780  142.1190 C   0  0  0  0  0  1  0  0  0  0  0  0
  184.4200  178.4030  140.9160 C   0  0  0  0  0  2  0  0  0  0  0  0
  185.9910  178.5860  138.9880 O   0  0  0  0  0  0  0  0  0  0  0  0
  184.4270  180.2170  139.3670 O   0  0  0  0  0  1  0  0  0  0  0  0
  184.9450  179.1270  139.7220 C   0  0  0  0  0  0  0  0  0  0  0  0
  1 12  1  6  0  0  0
  1  8  1  0  0  0  0
  2  7  1  6  0  0  0
  2  1  1  0  0  0  0
  2 11  1  0  0  0  0
  4  3  1  1  0  0  0
  5  6  2  0  0  0  0
  7 10  1  0  0  0  0
  8  4  1  0  0  0  0
  9  5  1  0  0  0  0
 10  9  2  0  0  0  0
 11  5  1  6  0  0  0
 11  4  1  0  0  0  0
 12 18  1  0  0  0  0
 13 16  1  0  0  0  0
 14 12  2  0  0  0  0
 15 13  2  0  0  0  0
 15 14  1  0  0  0  0
 16 18  2  0  0  0  0
 17 14  1  0  0  0  0
 19 10  1  0  0  0  0
 20 21  1  6  0  0  0
 20 19  1  0  0  0  0
 22 20  1  0  0  0  0
 23 25  2  0  0  0  0
 24 25  1  0  0  0  0
 25 22  1  0  0  0  0
M  END
>  <MODEL>
1

>  <REMARK>
 VINA RESULT:      -8.5      0.000      0.000
  Name = 
  5 active torsions:
  status: ('A' for Active; 'I' for Inactive)
    1  A    between atoms: C_1  and  C_5
    2  A    between atoms: C_2  and  C_15
    3  A    between atoms: C_2  and  C_21
    4  A    between atoms: C_6  and  C_15
    5  A    between atoms: C_6  and  C_23
                            x       y       z     vdW  Elec       q    Type
                         _______ _______ _______ _____ _____    ______ ____

>  <TORSDO>
F 5

$$$$
=
 OpenBabel11052412433D

 25 27  0  0  1  0  0  0  0  0999 V2000
  186.2380  177.7100  143.1510 C   0  0  2  0  0  3  0  0  0  0  0  0
  187.5880  177.9580  142.6850 N   0  0  1  0  0  0  0  0  0  0  0  0
  185.9190  178.6530  139.6000 O   0  0  0  0  0  1  0  0  0  0  0  0
  186.4230  178.9430  140.8670 C   0  0  1  0  0  3  0  0  0  0  0  0
  188.8560  178.1220  140.6760 C   0  0  0  0  0  0  0  0  0  0  0  0
  189.0560  178.7560  139.6060 O   0  0  0  0  0  0  0  0  0  0  0  0
  188.4390  176.9360  143.0670 O   0  0  0  0  0  0  0  0  0  0  0  0
  185.1100  178.7160  142.1150 S   0  0  0  0  0  0  0  0  0  0  0  0
  189.9400  177.4660  141.3510 N   0  0  0  0  0  0  0  0  0  0  0  0
  189.7160  176.8640  142.4850 C   0  0  0  0  0  0  0  0  0  0  0  0
  187.4810  177.9350  141.2410 C   0  0  1  0  0  3  0  0  0  0  0  0
  186.0960  178.0440  144.6080 C   0  0  0  0  0  0  0  0  0  0  0  0
  185.9640  178.6630  147.3410 C   0  0  0  0  0  3  0  0  0  0  0  0
  184.8820  178.4880  145.1780 C   0  0  0  0  0  0  0  0  0  0  0  0
  184.8260  178.7960  146.5410 C   0  0  0  0  0  3  0  0  0  0  0  0
  187.1640  178.2200  146.7800 C   0  0  0  0  0  3  0  0  0  0  0  0
  183.7070  178.6360  144.3870 N   0  0  0  0  0  1  0  0  0  0  0  0
  187.2280  177.9130  145.4190 C   0  0  0  0  0  3  0  0  0  0  0  0
  190.8130  176.1230  143.1800 C   0  0  0  0  0  2  0  0  0  0  0  0
  191.4620  176.9390  144.3040 C   0  0  1  0  0  3  0  0  0  0  0  0
  191.5460  178.4080  143.9350 C   0  0  0  0  0  1  0  0  0  0  0  0
  190.7520  176.7760  145.6450 C   0  0  0  0  0  2  0  0  0  0  0  0
  192.4380  175.1760  146.5480 O   0  0  0  0  0  0  0  0  0  0  0  0
  191.8560  177.0440  147.7420 O   0  0  0  0  0  1  0  0  0  0  0  0
  191.7030  176.3430  146.7080 C   0  0  0  0  0  0  0  0  0  0  0  0
  1 12  1  1  0  0  0
  2  7  1  1  0  0  0
  2  1  1  0  0  0  0
  4  3  1  6  0  0  0
  4 11  1  0  0  0  0
  4  8  1  0  0  0  0
  5  9  1  0  0  0  0
  6  5  2  0  0  0  0
  8  1  1  0  0  0  0
  9 10  2  0  0  0  0
 10  7  1  0  0  0  0
 10 19  1  0  0  0  0
 11  5  1  6  0  0  0
 11  2  1  0  0  0  0
 12 14  2  0  0  0  0
 12 18  1  0  0  0  0
 14 15  1  0  0  0  0
 15 13  2  0  0  0  0
 16 13  1  0  0  0  0
 17 14  1  0  0  0  0
 18 16  2  0  0  0  0
 19 20  1  0  0  0  0
 20 21  1  6  0  0  0
 20 22  1  0  0  0  0
 22 25  1  0  0  0  0
 23 25  2  0  0  0  0
 25 24  1  0  0  0  0
M  END
>  <MODEL>
2

>  <REMARK>
 VINA RESULT:      -8.1      2.611      6.965
  Name = 
  5 active torsions:
  status: ('A' for Active; 'I' for Inactive)
    1  A    between atoms: C_1  and  C_5
    2  A    between atoms: C_2  and  C_15
    3  A    between atoms: C_2  and  C_21
    4  A    between atoms: C_6  and  C_15
    5  A    between atoms: C_6  and  C_23
                            x       y       z     vdW  Elec       q    Type
                         _______ _______ _______ _____ _____    ______ ____

>  <TORSDO>
F 5

$$$$
=
 OpenBabel11052412433D

 25 27  0  0  1  0  0  0  0  0999 V2000
  187.8640  176.8900  143.8170 C   0  0  2  0  0  3  0  0  0  0  0  0
  187.8630  177.8120  142.6980 N   0  0  1  0  0  0  0  0  0  0  0  0
  184.3970  178.1120  143.5240 O   0  0  0  0  0  1  0  0  0  0  0  0
  185.7570  178.4040  143.6180 C   0  0  1  0  0  3  0  0  0  0  0  0
  186.3770  178.8620  141.1620 C   0  0  0  0  0  0  0  0  0  0  0  0
  185.4260  179.6730  141.0040 O   0  0  0  0  0  0  0  0  0  0  0  0
  188.5100  177.2640  141.6040 O   0  0  0  0  0  0  0  0  0  0  0  0
  186.5090  177.3960  144.9420 S   0  0  0  0  0  0  0  0  0  0  0  0
  187.3740  178.6960  140.1430 N   0  0  0  0  0  0  0  0  0  0  0  0
  188.3770  177.8920  140.3540 C   0  0  0  0  0  0  0  0  0  0  0  0
  186.4630  177.9660  142.3600 C   0  0  1  0  0  3  0  0  0  0  0  0
  189.1920  176.8880  144.5170 C   0  0  0  0  0  0  0  0  0  0  0  0
  191.6140  176.9360  145.9330 C   0  0  0  0  0  3  0  0  0  0  0  0
  190.3210  176.1990  144.0180 C   0  0  0  0  0  0  0  0  0  0  0  0
  191.5240  176.2280  144.7320 C   0  0  0  0  0  3  0  0  0  0  0  0
  190.5010  177.6200  146.4260 C   0  0  0  0  0  3  0  0  0  0  0  0
  190.2590  175.4670  142.7990 N   0  0  0  0  0  1  0  0  0  0  0  0
  189.2950  177.5940  145.7200 C   0  0  0  0  0  3  0  0  0  0  0  0
  189.3980  177.6560  139.2880 C   0  0  0  0  0  2  0  0  0  0  0  0
  188.7800  177.5210  137.8910 C   0  0  1  0  0  3  0  0  0  0  0  0
  189.0460  178.7590  137.0540 C   0  0  0  0  0  1  0  0  0  0  0  0
  189.2530  176.2750  137.1480 C   0  0  0  0  0  2  0  0  0  0  0  0
  191.7150  176.6640  137.2590 O   0  0  0  0  0  0  0  0  0  0  0  0
  190.7820  174.8320  138.2730 O   0  0  0  0  0  1  0  0  0  0  0  0
  190.6210  175.8740  137.5870 C   0  0  0  0  0  0  0  0  0  0  0  0
  1 12  1  1  0  0  0
  1  8  1  0  0  0  0
  2  7  1  6  0  0  0
  2  1  1  0  0  0  0
  4  3  1  6  0  0  0
  4  8  1  0  0  0  0
  6  5  2  0  0  0  0
  9 10  2  0  0  0  0
  9  5  1  0  0  0  0
 10  7  1  0  0  0  0
 11  5  1  6  0  0  0
 11  2  1  0  0  0  0
 11  4  1  0  0  0  0
 12 18  1  0  0  0  0
 13 16  1  0  0  0  0
 14 12  2  0  0  0  0
 14 15  1  0  0  0  0
 15 13  2  0  0  0  0
 17 14  1  0  0  0  0
 18 16  2  0  0  0  0
 19 10  1  0  0  0  0
 20 21  1  6  0  0  0
 20 19  1  0  0  0  0
 22 25  1  0  0  0  0
 22 20  1  0  0  0  0
 23 25  2  0  0  0  0
 25 24  1  0  0  0  0
M  END
>  <MODEL>
3

>  <REMARK>
 VINA RESULT:      -7.8      3.310      4.977
  Name = 
  5 active torsions:
  status: ('A' for Active; 'I' for Inactive)
    1  A    between atoms: C_1  and  C_5
    2  A    between atoms: C_2  and  C_15
    3  A    between atoms: C_2  and  C_21
    4  A    between atoms: C_6  and  C_15
    5  A    between atoms: C_6  and  C_23
                            x       y       z     vdW  Elec       q    Type
                         _______ _______ _______ _____ _____    ______ ____

>  <TORSDO>
F 5

$$$$
=
 OpenBabel11052412433D

 25 27  0  0  1  0  0  0  0  0999 V2000
  189.2120  177.9090  145.9590 C   0  0  2  0  0  3  0  0  0  0  0  0
  189.6650  177.1120  144.8360 N   0  0  1  0  0  0  0  0  0  0  0  0
  192.2120  176.1200  147.1400 O   0  0  0  0  0  1  0  0  0  0  0  0
  190.9610  176.0680  146.5280 C   0  0  1  0  0  3  0  0  0  0  0  0
  191.5890  175.9620  144.0330 C   0  0  0  0  0  0  0  0  0  0  0  0
  192.3980  175.0130  144.2090 O   0  0  0  0  0  0  0  0  0  0  0  0
  189.7080  177.8670  143.6770 O   0  0  0  0  0  0  0  0  0  0  0  0
  189.7690  177.0650  147.4870 S   0  0  0  0  0  0  0  0  0  0  0  0
  191.2520  176.3990  142.7090 N   0  0  0  0  0  0  0  0  0  0  0  0
  190.3710  177.3470  142.5530 C   0  0  0  0  0  0  0  0  0  0  0  0
  191.0220  176.7420  145.1800 C   0  0  1  0  0  3  0  0  0  0  0  0
  187.7210  178.0830  145.9360 C   0  0  0  0  0  0  0  0  0  0  0  0
  184.9330  178.3520  145.7710 C   0  0  0  0  0  3  0  0  0  0  0  0
  186.9740  178.4450  147.0790 C   0  0  0  0  0  0  0  0  0  0  0  0
  185.5840  178.5750  146.9870 C   0  0  0  0  0  3  0  0  0  0  0  0
  185.6700  177.9980  144.6400 C   0  0  0  0  0  3  0  0  0  0  0  0
  187.6080  178.6760  148.3320 N   0  0  0  0  0  1  0  0  0  0  0  0
  187.0590  177.8640  144.7240 C   0  0  0  0  0  3  0  0  0  0  0  0
  190.0430  177.8620  141.1880 C   0  0  0  0  0  2  0  0  0  0  0  0
  188.6430  177.4530  140.7180 C   0  0  1  0  0  3  0  0  0  0  0  0
  187.6110  178.5000  141.0960 C   0  0  0  0  0  1  0  0  0  0  0  0
  188.5760  177.1700  139.2200 C   0  0  0  0  0  2  0  0  0  0  0  0
  189.0620  179.3930  138.1980 O   0  0  0  0  0  1  0  0  0  0  0  0
  186.9660  178.4780  138.0440 O   0  0  0  0  0  0  0  0  0  0  0  0
  188.1480  178.3810  138.4620 C   0  0  0  0  0  0  0  0  0  0  0  0
  1 12  1  1  0  0  0
  1  8  1  0  0  0  0
  2  7  1  6  0  0  0
  2 11  1  0  0  0  0
  2  1  1  0  0  0  0
  4  3  1  1  0  0  0
  4  8  1  0  0  0  0
  5  6  2  0  0  0  0
  9  5  1  0  0  0  0
 10  9  2  0  0  0  0
 10  7  1  0  0  0  0
 11  5  1  6  0  0  0
 11  4  1  0  0  0  0
 12 14  1  0  0  0  0
 13 15  1  0  0  0  0
 14 17  1  0  0  0  0
 15 14  2  0  0  0  0
 16 18  1  0  0  0  0
 16 13  2  0  0  0  0
 18 12  2  0  0  0  0
 19 10  1  0  0  0  0
 20 21  1  6  0  0  0
 20 19  1  0  0  0  0
 22 20  1  0  0  0  0
 23 25  1  0  0  0  0
 24 25  2  0  0  0  0
 25 22  1  0  0  0  0
M  END
>  <MODEL>
4

>  <REMARK>
 VINA RESULT:      -7.6      2.612      5.007
  Name = 
  5 active torsions:
  status: ('A' for Active; 'I' for Inactive)
    1  A    between atoms: C_1  and  C_5
    2  A    between atoms: C_2  and  C_15
    3  A    between atoms: C_2  and  C_21
    4  A    between atoms: C_6  and  C_15
    5  A    between atoms: C_6  and  C_23
                            x       y       z     vdW  Elec       q    Type
                         _______ _______ _______ _____ _____    ______ ____

>  <TORSDO>
F 5

$$$$
=
 OpenBabel11052412433D

 25 27  0  0  1  0  0  0  0  0999 V2000
  186.1230  177.6690  144.9170 C   0  0  2  0  0  3  0  0  0  0  0  0
  186.6610  178.2630  143.7090 N   0  0  1  0  0  0  0  0  0  0  0  0
  183.2180  178.9710  143.0560 O   0  0  0  0  0  1  0  0  0  0  0  0
  184.4830  179.1980  143.5960 C   0  0  1  0  0  3  0  0  0  0  0  0
  185.9990  178.9580  141.5300 C   0  0  0  0  0  0  0  0  0  0  0  0
  185.3030  179.7530  140.8440 O   0  0  0  0  0  0  0  0  0  0  0  0
  187.5630  177.4100  143.0970 O   0  0  0  0  0  0  0  0  0  0  0  0
  184.5500  178.5310  145.2940 S   0  0  0  0  0  0  0  0  0  0  0  0
  187.2560  178.4720  141.0340 N   0  0  0  0  0  0  0  0  0  0  0  0
  187.9820  177.6940  141.7860 C   0  0  0  0  0  0  0  0  0  0  0  0
  185.5150  178.4050  142.8350 C   0  0  1  0  0  3  0  0  0  0  0  0
  187.0970  177.7730  146.0540 C   0  0  0  0  0  0  0  0  0  0  0  0
  189.0100  177.9070  148.1030 C   0  0  0  0  0  3  0  0  0  0  0  0
  186.8590  178.5670  147.1980 C   0  0  0  0  0  0  0  0  0  0  0  0
  187.8180  178.6280  148.2140 C   0  0  0  0  0  3  0  0  0  0  0  0
  189.2460  177.1190  146.9750 C   0  0  0  0  0  3  0  0  0  0  0  0
  185.6550  179.3150  147.3390 N   0  0  0  0  0  1  0  0  0  0  0  0
  188.2930  177.0540  145.9550 C   0  0  0  0  0  3  0  0  0  0  0  0
  189.2670  177.1270  141.2740 C   0  0  0  0  0  2  0  0  0  0  0  0
  190.4370  177.3310  142.2430 C   0  0  1  0  0  3  0  0  0  0  0  0
  191.7550  177.4230  141.4970 C   0  0  0  0  0  1  0  0  0  0  0  0
  190.2580  178.5510  143.1430 C   0  0  0  0  0  2  0  0  0  0  0  0
  191.6930  177.5030  144.8940 O   0  0  0  0  0  1  0  0  0  0  0  0
  191.9610  179.7120  144.3440 O   0  0  0  0  0  0  0  0  0  0  0  0
  191.3450  178.6310  144.1620 C   0  0  0  0  0  0  0  0  0  0  0  0
  1  8  1  0  0  0  0
  1 12  1  1  0  0  0
  2  7  1  6  0  0  0
  2  1  1  0  0  0  0
  4  3  1  6  0  0  0
  4  8  1  0  0  0  0
  6  5  2  0  0  0  0
  9  5  1  0  0  0  0
  9 10  2  0  0  0  0
 10  7  1  0  0  0  0
 11  5  1  6  0  0  0
 11  4  1  0  0  0  0
 11  2  1  0  0  0  0
 12 14  1  0  0  0  0
 13 15  1  0  0  0  0
 14 17  1  0  0  0  0
 14 15  2  0  0  0  0
 16 13  2  0  0  0  0
 18 12  2  0  0  0  0
 18 16  1  0  0  0  0
 19 10  1  0  0  0  0
 19 20  1  0  0  0  0
 20 21  1  6  0  0  0
 20 22  1  0  0  0  0
 22 25  1  0  0  0  0
 25 24  2  0  0  0  0
 25 23  1  0  0  0  0
M  END
>  <MODEL>
5

>  <REMARK>
 VINA RESULT:      -7.6      2.452      5.684
  Name = 
  5 active torsions:
  status: ('A' for Active; 'I' for Inactive)
    1  A    between atoms: C_1  and  C_5
    2  A    between atoms: C_2  and  C_15
    3  A    between atoms: C_2  and  C_21
    4  A    between atoms: C_6  and  C_15
    5  A    between atoms: C_6  and  C_23
                            x       y       z     vdW  Elec       q    Type
                         _______ _______ _______ _____ _____    ______ ____

>  <TORSDO>
F 5

$$$$
=
 OpenBabel11052412433D

 25 27  0  0  1  0  0  0  0  0999 V2000
  189.9000  178.0750  143.4400 C   0  0  2  0  0  3  0  0  0  0  0  0
  188.8750  177.7480  142.4690 N   0  0  1  0  0  0  0  0  0  0  0  0
  191.6910  177.3040  140.3110 O   0  0  0  0  0  1  0  0  0  0  0  0
  190.7480  176.9270  141.2650 C   0  0  1  0  0  3  0  0  0  0  0  0
  188.5360  177.5750  140.1180 C   0  0  0  0  0  0  0  0  0  0  0  0
  188.8350  176.9730  139.0530 O   0  0  0  0  0  0  0  0  0  0  0  0
  187.8600  178.6890  142.4840 O   0  0  0  0  0  0  0  0  0  0  0  0
  191.4280  177.1970  142.9370 S   0  0  0  0  0  0  0  0  0  0  0  0
  187.2220  178.1220  140.3050 N   0  0  0  0  0  0  0  0  0  0  0  0
  186.9220  178.6920  141.4380 C   0  0  0  0  0  0  0  0  0  0  0  0
  189.5490  177.8380  141.1900 C   0  0  1  0  0  3  0  0  0  0  0  0
  189.4740  177.6930  144.8280 C   0  0  0  0  0  0  0  0  0  0  0  0
  188.5520  176.9670  147.3770 C   0  0  0  0  0  3  0  0  0  0  0  0
  190.3940  177.3620  145.8490 C   0  0  0  0  0  0  0  0  0  0  0  0
  189.9250  177.0000  147.1160 C   0  0  0  0  0  3  0  0  0  0  0  0
  187.6420  177.2970  146.3710 C   0  0  0  0  0  3  0  0  0  0  0  0
  191.7970  177.3840  145.6120 N   0  0  0  0  0  1  0  0  0  0  0  0
  188.1030  177.6570  145.1020 C   0  0  0  0  0  3  0  0  0  0  0  0
  185.5810  179.3210  141.6390 C   0  0  0  0  0  2  0  0  0  0  0  0
  184.6190  178.4300  142.4340 C   0  0  1  0  0  3  0  0  0  0  0  0
  184.7340  178.6940  143.9240 C   0  0  0  0  0  1  0  0  0  0  0  0
  183.1660  178.5750  141.9880 C   0  0  0  0  0  2  0  0  0  0  0  0
  182.7170  179.2640  139.6330 O   0  0  0  0  0  0  0  0  0  0  0  0
  183.1750  177.0750  140.1340 O   0  0  0  0  0  1  0  0  0  0  0  0
  183.0140  178.2550  140.5400 C   0  0  0  0  0  0  0  0  0  0  0  0
  1 12  1  1  0  0  0
  2  7  1  6  0  0  0
  2  1  1  0  0  0  0
  4  3  1  6  0  0  0
  4  8  1  0  0  0  0
  5  9  1  0  0  0  0
  6  5  2  0  0  0  0
  8  1  1  0  0  0  0
  9 10  2  0  0  0  0
 10 19  1  0  0  0  0
 10  7  1  0  0  0  0
 11  5  1  6  0  0  0
 11  4  1  0  0  0  0
 11  2  1  0  0  0  0
 12 18  2  0  0  0  0
 12 14  1  0  0  0  0
 14 15  2  0  0  0  0
 15 13  1  0  0  0  0
 16 13  2  0  0  0  0
 17 14  1  0  0  0  0
 18 16  1  0  0  0  0
 19 20  1  0  0  0  0
 20 21  1  1  0  0  0
 22 20  1  0  0  0  0
 23 25  2  0  0  0  0
 24 25  1  0  0  0  0
 25 22  1  0  0  0  0
M  END
>  <MODEL>
6

>  <REMARK>
 VINA RESULT:      -7.5      2.780      4.859
  Name = 
  5 active torsions:
  status: ('A' for Active; 'I' for Inactive)
    1  A    between atoms: C_1  and  C_5
    2  A    between atoms: C_2  and  C_15
    3  A    between atoms: C_2  and  C_21
    4  A    between atoms: C_6  and  C_15
    5  A    between atoms: C_6  and  C_23
                            x       y       z     vdW  Elec       q    Type
                         _______ _______ _______ _____ _____    ______ ____

>  <TORSDO>
F 5

$$$$
=
 OpenBabel11052412433D

 25 27  0  0  1  0  0  0  0  0999 V2000
  189.1360  178.1800  141.4000 C   0  0  2  0  0  3  0  0  0  0  0  0
  187.9980  177.8310  140.5730 N   0  0  1  0  0  0  0  0  0  0  0  0
  190.5280  177.2360  138.1170 O   0  0  0  0  0  1  0  0  0  0  0  0
  189.7000  176.9200  139.1940 C   0  0  1  0  0  3  0  0  0  0  0  0
  187.3770  177.5620  138.2900 C   0  0  0  0  0  0  0  0  0  0  0  0
  187.5370  176.9080  137.2250 O   0  0  0  0  0  0  0  0  0  0  0  0
  187.0060  178.7920  140.6660 O   0  0  0  0  0  0  0  0  0  0  0  0
  190.5800  177.2500  140.7590 S   0  0  0  0  0  0  0  0  0  0  0  0
  186.1030  178.1430  138.6070 N   0  0  0  0  0  0  0  0  0  0  0  0
  185.9490  178.7680  139.7400 C   0  0  0  0  0  0  0  0  0  0  0  0
  188.5150  177.8510  139.2200 C   0  0  1  0  0  3  0  0  0  0  0  0
  188.8740  177.8670  142.8450 C   0  0  0  0  0  0  0  0  0  0  0  0
  188.2940  177.1920  145.5060 C   0  0  0  0  0  3  0  0  0  0  0  0
  189.7040  178.3280  143.8920 C   0  0  0  0  0  0  0  0  0  0  0  0
  189.4070  177.9850  145.2150 C   0  0  0  0  0  3  0  0  0  0  0  0
  187.4720  176.7390  144.4730 C   0  0  0  0  0  3  0  0  0  0  0  0
  190.8460  179.1350  143.6260 N   0  0  0  0  0  1  0  0  0  0  0  0
  187.7620  177.0750  143.1480 C   0  0  0  0  0  3  0  0  0  0  0  0
  184.6510  179.4320  140.0710 C   0  0  0  0  0  2  0  0  0  0  0  0
  183.7700  178.5880  140.9980 C   0  0  1  0  0  3  0  0  0  0  0  0
  183.1870  177.3950  140.2620 C   0  0  0  0  0  1  0  0  0  0  0  0
  184.5010  178.1210  142.2530 C   0  0  0  0  0  2  0  0  0  0  0  0
  184.6130  178.7900  144.6540 O   0  0  0  0  0  1  0  0  0  0  0  0
  182.6810  179.0850  143.4550 O   0  0  0  0  0  0  0  0  0  0  0  0
  183.8730  178.6850  143.4830 C   0  0  0  0  0  0  0  0  0  0  0  0
  1 12  1  1  0  0  0
  2  7  1  6  0  0  0
  2  1  1  0  0  0  0
  4  3  1  6  0  0  0
  4 11  1  0  0  0  0
  4  8  1  0  0  0  0
  5  9  1  0  0  0  0
  6  5  2  0  0  0  0
  8  1  1  0  0  0  0
  9 10  2  0  0  0  0
 10 19  1  0  0  0  0
 10  7  1  0  0  0  0
 11  5  1  6  0  0  0
 11  2  1  0  0  0  0
 12 18  2  0  0  0  0
 12 14  1  0  0  0  0
 14 15  2  0  0  0  0
 15 13  1  0  0  0  0
 16 13  2  0  0  0  0
 17 14  1  0  0  0  0
 18 16  1  0  0  0  0
 19 20  1  0  0  0  0
 20 21  1  6  0  0  0
 20 22  1  0  0  0  0
 22 25  1  0  0  0  0
 24 25  2  0  0  0  0
 25 23  1  0  0  0  0
M  END
>  <MODEL>
7

>  <REMARK>
 VINA RESULT:      -7.5      2.953      5.796
  Name = 
  5 active torsions:
  status: ('A' for Active; 'I' for Inactive)
    1  A    between atoms: C_1  and  C_5
    2  A    between atoms: C_2  and  C_15
    3  A    between atoms: C_2  and  C_21
    4  A    between atoms: C_6  and  C_15
    5  A    between atoms: C_6  and  C_23
                            x       y       z     vdW  Elec       q    Type
                         _______ _______ _______ _____ _____    ______ ____

>  <TORSDO>
F 5

$$$$
=
 OpenBabel11052412433D

 25 27  0  0  1  0  0  0  0  0999 V2000
  190.5870  177.1100  137.6100 C   0  0  2  0  0  3  0  0  0  0  0  0
  189.9460  177.0890  138.9100 N   0  0  1  0  0  0  0  0  0  0  0  0
  187.5320  179.1450  137.2580 O   0  0  0  0  0  1  0  0  0  0  0  0
  188.1240  177.9470  137.6560 C   0  0  1  0  0  3  0  0  0  0  0  0
  188.3320  178.2710  140.2010 C   0  0  0  0  0  0  0  0  0  0  0  0
  187.1240  178.6090  140.3240 O   0  0  0  0  0  0  0  0  0  0  0  0
  190.8580  177.3590  139.9160 O   0  0  0  0  0  0  0  0  0  0  0  0
  189.2740  177.3740  136.3590 S   0  0  0  0  0  0  0  0  0  0  0  0
  189.1500  178.0480  141.3590 N   0  0  0  0  0  0  0  0  0  0  0  0
  190.3800  177.6460  141.2060 C   0  0  0  0  0  0  0  0  0  0  0  0
  188.9970  178.1820  138.8620 C   0  0  1  0  0  3  0  0  0  0  0  0
  191.3450  175.8390  137.3570 C   0  0  0  0  0  0  0  0  0  0  0  0
  192.6510  173.4130  136.8270 C   0  0  0  0  0  3  0  0  0  0  0  0
  192.7440  175.7340  137.5250 C   0  0  0  0  0  0  0  0  0  0  0  0
  193.3860  174.5210  137.2570 C   0  0  0  0  0  3  0  0  0  0  0  0
  191.2680  173.5140  136.6630 C   0  0  0  0  0  3  0  0  0  0  0  0
  193.5200  176.8450  137.9600 N   0  0  0  0  0  1  0  0  0  0  0  0
  190.6190  174.7230  136.9270 C   0  0  0  0  0  3  0  0  0  0  0  0
  191.2720  177.4620  142.3910 C   0  0  0  0  0  2  0  0  0  0  0  0
  190.6510  176.5680  143.4700 C   0  0  1  0  0  3  0  0  0  0  0  0
  191.6290  175.4990  143.9250 C   0  0  0  0  0  1  0  0  0  0  0  0
  190.1390  177.3540  144.6740 C   0  0  0  0  0  2  0  0  0  0  0  0
  187.9490  176.4150  143.9380 O   0  0  0  0  0  0  0  0  0  0  0  0
  188.0490  177.8900  145.6900 O   0  0  0  0  0  1  0  0  0  0  0  0
  188.6570  177.2460  144.7970 C   0  0  0  0  0  0  0  0  0  0  0  0
  1 12  1  6  0  0  0
  1  2  1  0  0  0  0
  2  7  1  1  0  0  0
  4  3  1  6  0  0  0
  4 11  1  0  0  0  0
  5  6  2  0  0  0  0
  5  9  1  0  0  0  0
  7 10  1  0  0  0  0
  8  1  1  0  0  0  0
  8  4  1  0  0  0  0
 10  9  2  0  0  0  0
 10 19  1  0  0  0  0
 11  2  1  0  0  0  0
 11  5  1  1  0  0  0
 12 14  1  0  0  0  0
 13 15  1  0  0  0  0
 14 17  1  0  0  0  0
 15 14  2  0  0  0  0
 16 13  2  0  0  0  0
 16 18  1  0  0  0  0
 18 12  2  0  0  0  0
 19 20  1  0  0  0  0
 20 21  1  1  0  0  0
 20 22  1  0  0  0  0
 22 25  1  0  0  0  0
 23 25  2  0  0  0  0
 25 24  1  0  0  0  0
M  END
>  <MODEL>
8

>  <REMARK>
 VINA RESULT:      -7.5      4.531      7.585
  Name = 
  5 active torsions:
  status: ('A' for Active; 'I' for Inactive)
    1  A    between atoms: C_1  and  C_5
    2  A    between atoms: C_2  and  C_15
    3  A    between atoms: C_2  and  C_21
    4  A    between atoms: C_6  and  C_15
    5  A    between atoms: C_6  and  C_23
                            x       y       z     vdW  Elec       q    Type
                         _______ _______ _______ _____ _____    ______ ____

>  <TORSDO>
F 5

$$$$
=
 OpenBabel11052412433D

 25 27  0  0  1  0  0  0  0  0999 V2000
  183.2210  178.5690  140.5140 C   0  0  2  0  0  3  0  0  0  0  0  0
  183.8810  178.1570  141.7370 N   0  0  1  0  0  0  0  0  0  0  0  0
  181.1660  179.9100  143.2670 O   0  0  0  0  0  1  0  0  0  0  0  0
  181.8080  178.8180  142.6850 C   0  0  1  0  0  3  0  0  0  0  0  0
  183.9830  178.6820  144.0570 C   0  0  0  0  0  0  0  0  0  0  0  0
  183.3690  178.7160  145.1570 O   0  0  0  0  0  0  0  0  0  0  0  0
  185.2380  178.4210  141.6800 O   0  0  0  0  0  0  0  0  0  0  0  0
  181.4400  178.7730  140.8980 S   0  0  0  0  0  0  0  0  0  0  0  0
  185.3940  178.4250  144.0150 N   0  0  0  0  0  0  0  0  0  0  0  0
  185.9950  178.3400  142.8610 C   0  0  0  0  0  0  0  0  0  0  0  0
  183.3030  179.0020  142.7610 C   0  0  1  0  0  3  0  0  0  0  0  0
  183.4380  177.5690  139.4160 C   0  0  0  0  0  0  0  0  0  0  0  0
  183.7330  175.6370  137.4020 C   0  0  0  0  0  3  0  0  0  0  0  0
  184.3860  177.7560  138.3840 C   0  0  0  0  0  0  0  0  0  0  0  0
  184.5250  176.7880  137.3840 C   0  0  0  0  0  3  0  0  0  0  0  0
  182.7980  175.4480  138.4220 C   0  0  0  0  0  3  0  0  0  0  0  0
  185.2050  178.9200  138.3380 N   0  0  0  0  0  1  0  0  0  0  0  0
  182.6520  176.4120  139.4230 C   0  0  0  0  0  3  0  0  0  0  0  0
  187.4730  178.1320  142.7890 C   0  0  0  0  0  2  0  0  0  0  0  0
  187.9900  177.1610  143.8560 C   0  0  1  0  0  3  0  0  0  0  0  0
  188.7320  175.9970  143.2230 C   0  0  0  0  0  1  0  0  0  0  0  0
  188.8740  177.8380  144.9000 C   0  0  0  0  0  2  0  0  0  0  0  0
  189.4310  176.7530  147.0760 O   0  0  0  0  0  1  0  0  0  0  0  0
  187.3540  177.6580  146.7290 O   0  0  0  0  0  0  0  0  0  0  0  0
  188.5020  177.4080  146.2790 C   0  0  0  0  0  0  0  0  0  0  0  0
  1 12  1  6  0  0  0
  1  8  1  0  0  0  0
  1  2  1  0  0  0  0
  2  7  1  6  0  0  0
  2 11  1  0  0  0  0
  4 11  1  0  0  0  0
  4  3  1  1  0  0  0
  5  6  2  0  0  0  0
  7 10  1  0  0  0  0
  8  4  1  0  0  0  0
  9  5  1  0  0  0  0
 10  9  2  0  0  0  0
 11  5  1  1  0  0  0
 12 18  1  0  0  0  0
 13 16  1  0  0  0  0
 14 12  2  0  0  0  0
 15 13  2  0  0  0  0
 15 14  1  0  0  0  0
 16 18  2  0  0  0  0
 17 14  1  0  0  0  0
 19 10  1  0  0  0  0
 19 20  1  0  0  0  0
 20 21  1  6  0  0  0
 20 22  1  0  0  0  0
 22 25  1  0  0  0  0
 25 24  2  0  0  0  0
 25 23  1  0  0  0  0
M  END
>  <MODEL>
9

>  <REMARK>
 VINA RESULT:      -7.5      3.556      6.903
  Name = 
  5 active torsions:
  status: ('A' for Active; 'I' for Inactive)
    1  A    between atoms: C_1  and  C_5
    2  A    between atoms: C_2  and  C_15
    3  A    between atoms: C_2  and  C_21
    4  A    between atoms: C_6  and  C_15
    5  A    between atoms: C_6  and  C_23
                            x       y       z     vdW  Elec       q    Type
                         _______ _______ _______ _____ _____    ______ ____

>  <TORSDO>
F 5

$$$$
