=
 OpenBabel11052415363D

 37 38  0  0  1  0  0  0  0  0999 V2000
  182.4990  177.3540  141.1720 O   0  0  0  0  0  0  0  0  0  0  0  0
  180.1110  177.1580  140.4740 C   0  0  2  0  0  0  0  0  0  0  0  0
  182.6240  178.7240  141.4290 C   0  0  2  0  0  3  0  0  0  0  0  0
  181.6100  177.2270  140.0860 C   0  0  1  0  0  3  0  0  0  0  0  0
  181.8930  178.4110  143.7090 O   0  0  0  0  0  1  0  0  0  0  0  0
  179.3290  177.8110  139.5180 O   0  0  0  0  0  1  0  0  0  0  0  0
  182.0350  177.8810  138.7410 C   0  0  2  0  0  3  0  0  0  0  0  0
  179.9760  180.0780  141.1070 C   0  0  0  0  0  1  0  0  0  0  0  0
  179.8020  177.7520  141.8790 C   0  0  0  0  0  2  0  0  0  0  0  0
  183.5510  177.7680  138.5070 C   0  0  0  0  0  2  0  0  0  0  0  0
  180.2780  179.1210  142.1670 N   0  0  0  0  0  0  0  0  0  0  0  0
  184.1000  179.1680  141.4900 C   0  0  2  0  0  3  0  0  0  0  0  0
  184.8620  178.5410  140.3120 C   0  0  0  0  0  2  0  0  0  0  0  0
  184.2650  178.9250  139.0420 N   0  0  0  0  0  2  0  0  0  0  0  0
  181.6930  179.1780  142.5580 C   0  0  2  0  0  3  0  0  0  0  0  0
  178.9900  175.2580  139.1980 C   0  0  0  0  0  1  0  0  0  0  0  0
  179.7170  175.6720  140.4700 C   0  0  2  0  0  3  0  0  0  0  0  0
  178.9310  175.3530  141.5800 O   0  0  0  0  0  1  0  0  0  0  0  0
  184.8810  179.9920  143.6180 O   0  0  0  0  0  1  0  0  0  0  0  0
  184.7810  178.8390  142.8350 C   0  0  2  0  0  3  0  0  0  0  0  0
  187.0370  178.7530  141.8820 C   0  0  0  0  0  0  0  0  0  0  0  0
  186.1480  178.2310  142.6890 C   0  0  0  0  0  0  0  0  0  0  0  0
  187.8760  179.2480  141.1200 O   0  0  0  0  0  0  0  0  0  0  0  0
  186.5230  177.0570  143.5320 C   0  0  0  0  0  2  0  0  0  0  0  0
  186.6360  177.8880  145.8330 C   0  0  0  0  0  2  0  0  0  0  0  0
  188.7700  177.3490  144.7810 C   0  0  0  0  0  1  0  0  0  0  0  0
  187.2850  177.4870  144.7450 C   0  0  0  0  0  0  0  0  0  0  0  0
  181.6060  179.2150  138.6560 O   0  0  0  0  0  0  0  0  0  0  0  0
  181.0970  178.2450  136.5220 C   0  0  0  0  0  1  0  0  0  0  0  0
  181.4790  179.5040  137.2890 C   0  0  1  0  0  3  0  0  0  0  0  0
  180.4790  180.6500  137.0510 C   0  0  2  0  0  0  0  0  0  0  0  0
  179.2210  180.2850  137.5340 O   0  0  0  0  0  1  0  0  0  0  0  0
  180.3710  180.8740  135.6910 F   0  0  0  0  0  0  0  0  0  0  0  0
  180.9980  182.2090  137.8530 P   0  0  0  0  0  0  0  0  0  0  0  0
  182.4970  182.0010  138.6110 O   0  0  0  0  0  1  0  0  0  0  0  0
  179.9730  182.6340  138.8800 O   0  0  0  0  0  1  0  0  0  0  0  0
  181.1390  183.4160  136.6780 O   0  0  0  0  0  0  0  0  0  0  0  0
  2  6  1  6  0  0  0
  2  9  1  0  0  0  0
  3  1  1  1  0  0  0
  3 12  1  0  0  0  0
  3 15  1  0  0  0  0
  4  2  1  0  0  0  0
  4  1  1  1  0  0  0
  7 28  1  1  0  0  0
  7  4  1  0  0  0  0
  8 11  1  0  0  0  0
  9 11  1  0  0  0  0
 10  7  1  0  0  0  0
 10 14  1  0  0  0  0
 11 15  1  0  0  0  0
 12 20  1  1  0  0  0
 13 12  1  0  0  0  0
 14 13  1  0  0  0  0
 15  5  1  1  0  0  0
 17 16  1  6  0  0  0
 17  2  1  0  0  0  0
 17 18  1  0  0  0  0
 20 19  1  1  0  0  0
 21 22  2  0  0  0  0
 22 20  1  0  0  0  0
 22 24  1  0  0  0  0
 23 21  2  0  0  0  0
 24 27  1  0  0  0  0
 27 26  1  0  0  0  0
 27 25  2  0  0  0  0
 30 29  1  6  0  0  0
 30 28  1  0  0  0  0
 31 33  1  6  0  0  0
 31 30  1  0  0  0  0
 31 32  1  0  0  0  0
 31 34  1  0  0  0  0
 34 35  1  0  0  0  0
 34 36  1  0  0  0  0
 37 34  2  0  0  0  0
M  END
>  <MODEL>
1

>  <REMARK>
 VINA RESULT:      -6.1      0.000      0.000
  Name = 
  9 active torsions:
  status: ('A' for Active; 'I' for Inactive)
    1  A    between atoms: C_1  and  P_5
    2  A    between atoms: C_1  and  C_23
    3  A    between atoms: C_6  and  C_8
    4  A    between atoms: C_6  and  C_31
    5  A    between atoms: C_8  and  C_19
    6  A    between atoms: C_9  and  C_30
    7  A    between atoms: C_20  and  O_25
    8  A    between atoms: C_23  and  O_25
    9  A    between atoms: C_29  and  C_31
                            x       y       z     vdW  Elec       q    Type
                         _______ _______ _______ _____ _____    ______ ____

>  <TORSDO>
F 9

$$$$
=
 OpenBabel11052415363D

 37 38  0  0  1  0  0  0  0  0999 V2000
  188.3750  176.0850  138.4060 O   0  0  0  0  0  0  0  0  0  0  0  0
  188.2460  175.7750  135.9330 C   0  0  2  0  0  0  0  0  0  0  0  0
  188.9330  177.3630  138.5180 C   0  0  2  0  0  3  0  0  0  0  0  0
  188.9660  175.4850  137.2750 C   0  0  1  0  0  3  0  0  0  0  0  0
  186.7430  178.3770  138.4190 O   0  0  0  0  0  1  0  0  0  0  0  0
  189.1750  175.8920  134.8970 O   0  0  0  0  0  1  0  0  0  0  0  0
  190.5060  175.2830  137.3020 C   0  0  2  0  0  3  0  0  0  0  0  0
  189.2650  178.5830  135.8080 C   0  0  0  0  0  1  0  0  0  0  0  0
  187.3540  177.0490  135.9650 C   0  0  0  0  0  2  0  0  0  0  0  0
  191.0080  174.9210  138.7100 C   0  0  0  0  0  2  0  0  0  0  0  0
  187.9710  178.3100  136.4240 N   0  0  0  0  0  0  0  0  0  0  0  0
  189.4840  177.6300  139.9330 C   0  0  2  0  0  3  0  0  0  0  0  0
  190.2880  176.4050  140.3980 C   0  0  0  0  0  2  0  0  0  0  0  0
  191.3720  176.1120  139.4740 N   0  0  0  0  0  2  0  0  0  0  0  0
  188.0340  178.4320  137.8860 C   0  0  2  0  0  3  0  0  0  0  0  0
  185.8930  174.7960  135.9840 C   0  0  0  0  0  1  0  0  0  0  0  0
  187.3550  174.5570  135.6320 C   0  0  2  0  0  3  0  0  0  0  0  0
  187.8140  173.4170  136.2970 O   0  0  0  0  0  1  0  0  0  0  0  0
  188.1130  179.3700  140.8880 O   0  0  0  0  0  1  0  0  0  0  0  0
  188.3890  178.0020  140.9550 C   0  0  2  0  0  3  0  0  0  0  0  0
  189.7370  178.2290  142.9900 C   0  0  0  0  0  0  0  0  0  0  0  0
  188.7390  177.6460  142.3740 C   0  0  0  0  0  0  0  0  0  0  0  0
  190.6790  178.7800  143.5710 O   0  0  0  0  0  0  0  0  0  0  0  0
  187.8900  176.6680  143.1150 C   0  0  0  0  0  2  0  0  0  0  0  0
  187.2680  177.4050  145.3670 C   0  0  0  0  0  2  0  0  0  0  0  0
  185.7980  178.1240  143.5580 C   0  0  0  0  0  1  0  0  0  0  0  0
  186.9750  177.3650  144.0710 C   0  0  0  0  0  0  0  0  0  0  0  0
  191.1840  176.4030  136.7940 O   0  0  0  0  0  0  0  0  0  0  0  0
  192.1370  176.3390  134.5940 C   0  0  0  0  0  1  0  0  0  0  0  0
  192.2650  175.9070  136.0490 C   0  0  1  0  0  3  0  0  0  0  0  0
  193.6090  176.3370  136.6620 C   0  0  2  0  0  0  0  0  0  0  0  0
  193.3820  177.1600  137.7660 O   0  0  0  0  0  1  0  0  0  0  0  0
  194.3180  177.0620  135.7220 F   0  0  0  0  0  0  0  0  0  0  0  0
  194.6290  174.9100  137.1800 P   0  0  0  0  0  0  0  0  0  0  0  0
  196.0140  174.8050  136.2130 O   0  0  0  0  0  0  0  0  0  0  0  0
  193.8350  173.6300  137.0580 O   0  0  0  0  0  1  0  0  0  0  0  0
  195.0960  175.1210  138.7910 O   0  0  0  0  0  1  0  0  0  0  0  0
  2  6  1  6  0  0  0
  2  9  1  0  0  0  0
  2  4  1  0  0  0  0
  3  1  1  1  0  0  0
  3 12  1  0  0  0  0
  4  7  1  0  0  0  0
  4  1  1  1  0  0  0
  7 28  1  1  0  0  0
  7 10  1  0  0  0  0
  8 11  1  0  0  0  0
  9 11  1  0  0  0  0
 10 14  1  0  0  0  0
 11 15  1  0  0  0  0
 12 13  1  0  0  0  0
 12 20  1  1  0  0  0
 14 13  1  0  0  0  0
 15  5  1  1  0  0  0
 15  3  1  0  0  0  0
 17  2  1  0  0  0  0
 17 16  1  1  0  0  0
 17 18  1  0  0  0  0
 20 19  1  1  0  0  0
 20 22  1  0  0  0  0
 21 23  2  0  0  0  0
 22 21  2  0  0  0  0
 22 24  1  0  0  0  0
 24 27  1  0  0  0  0
 26 27  1  0  0  0  0
 27 25  2  0  0  0  0
 30 29  1  6  0  0  0
 30 31  1  0  0  0  0
 30 28  1  0  0  0  0
 31 33  1  6  0  0  0
 31 34  1  0  0  0  0
 31 32  1  0  0  0  0
 34 37  1  0  0  0  0
 35 34  2  0  0  0  0
 36 34  1  0  0  0  0
M  END
>  <MODEL>
2

>  <REMARK>
 VINA RESULT:      -5.6      6.592      9.567
  Name = 
  9 active torsions:
  status: ('A' for Active; 'I' for Inactive)
    1  A    between atoms: C_1  and  P_5
    2  A    between atoms: C_1  and  C_23
    3  A    between atoms: C_6  and  C_8
    4  A    between atoms: C_6  and  C_31
    5  A    between atoms: C_8  and  C_19
    6  A    between atoms: C_9  and  C_30
    7  A    between atoms: C_20  and  O_25
    8  A    between atoms: C_23  and  O_25
    9  A    between atoms: C_29  and  C_31
                            x       y       z     vdW  Elec       q    Type
                         _______ _______ _______ _____ _____    ______ ____

>  <TORSDO>
F 9

$$$$
=
 OpenBabel11052415363D

 37 38  0  0  1  0  0  0  0  0999 V2000
  181.1030  176.9950  138.5000 O   0  0  0  0  0  0  0  0  0  0  0  0
  181.6980  175.5100  136.5840 C   0  0  2  0  0  0  0  0  0  0  0  0
  181.3620  178.2700  137.9820 C   0  0  2  0  0  3  0  0  0  0  0  0
  182.0750  176.1340  137.9530 C   0  0  1  0  0  3  0  0  0  0  0  0
  179.1280  178.4040  137.0730 O   0  0  0  0  0  1  0  0  0  0  0  0
  182.8310  175.3850  135.7770 O   0  0  0  0  0  1  0  0  0  0  0  0
  183.5620  176.4400  138.2830 C   0  0  2  0  0  3  0  0  0  0  0  0
  182.1700  178.0680  135.1090 C   0  0  0  0  0  1  0  0  0  0  0  0
  180.6070  176.3090  135.8140 C   0  0  0  0  0  2  0  0  0  0  0  0
  183.7290  176.9700  139.7180 C   0  0  0  0  0  2  0  0  0  0  0  0
  180.8330  177.7540  135.6030 N   0  0  0  0  0  0  0  0  0  0  0  0
  181.4560  179.3360  139.0920 C   0  0  2  0  0  3  0  0  0  0  0  0
  182.3210  178.7910  140.2390 C   0  0  0  0  0  2  0  0  0  0  0  0
  183.6480  178.4280  139.7650 N   0  0  0  0  0  2  0  0  0  0  0  0
  180.4810  178.5780  136.7660 C   0  0  2  0  0  3  0  0  0  0  0  0
  182.2630  173.0430  136.8830 C   0  0  0  0  0  1  0  0  0  0  0  0
  181.1640  174.0970  136.8700 C   0  0  2  0  0  3  0  0  0  0  0  0
  180.1790  173.7310  135.9480 O   0  0  0  0  0  1  0  0  0  0  0  0
  180.0340  181.2030  139.6480 O   0  0  0  0  0  1  0  0  0  0  0  0
  180.0790  179.8080  139.6040 C   0  0  2  0  0  3  0  0  0  0  0  0
  179.3140  178.0320  141.1100 C   0  0  0  0  0  0  0  0  0  0  0  0
  179.7200  179.2670  140.9610 C   0  0  0  0  0  0  0  0  0  0  0  0
  178.9310  176.8640  141.2500 O   0  0  0  0  0  0  0  0  0  0  0  0
  179.9020  180.1300  142.1660 C   0  0  0  0  0  2  0  0  0  0  0  0
  181.4650  178.9470  143.6340 C   0  0  0  0  0  2  0  0  0  0  0  0
  179.1360  178.9950  144.3610 C   0  0  0  0  0  1  0  0  0  0  0  0
  180.2110  179.3080  143.3760 C   0  0  0  0  0  0  0  0  0  0  0  0
  184.1290  177.3200  137.3470 O   0  0  0  0  0  0  0  0  0  0  0  0
  185.7890  176.1720  136.0510 C   0  0  0  0  0  1  0  0  0  0  0  0
  185.4960  177.0090  137.2890 C   0  0  1  0  0  3  0  0  0  0  0  0
  186.3610  178.2820  137.3410 C   0  0  2  0  0  0  0  0  0  0  0  0
  185.5800  179.3650  137.7460 O   0  0  0  0  0  1  0  0  0  0  0  0
  186.8420  178.5480  136.0730 F   0  0  0  0  0  0  0  0  0  0  0  0
  187.7850  178.1130  138.4760 P   0  0  0  0  0  0  0  0  0  0  0  0
  187.3030  178.4400  140.0640 O   0  0  0  0  0  1  0  0  0  0  0  0
  188.8850  179.0700  138.0780 O   0  0  0  0  0  0  0  0  0  0  0  0
  188.3720  176.5300  138.3940 O   0  0  0  0  0  1  0  0  0  0  0  0
  2  6  1  6  0  0  0
  2 17  1  0  0  0  0
  2  4  1  0  0  0  0
  3  1  1  1  0  0  0
  3 12  1  0  0  0  0
  4  7  1  0  0  0  0
  4  1  1  6  0  0  0
  7 28  1  6  0  0  0
  7 10  1  0  0  0  0
  8 11  1  0  0  0  0
  9  2  1  0  0  0  0
 10 14  1  0  0  0  0
 11  9  1  0  0  0  0
 11 15  1  0  0  0  0
 12 20  1  1  0  0  0
 12 13  1  0  0  0  0
 14 13  1  0  0  0  0
 15  5  1  1  0  0  0
 15  3  1  0  0  0  0
 17 16  1  6  0  0  0
 18 17  1  0  0  0  0
 20 19  1  1  0  0  0
 20 22  1  0  0  0  0
 21 23  2  0  0  0  0
 22 21  2  0  0  0  0
 22 24  1  0  0  0  0
 24 27  1  0  0  0  0
 27 25  2  0  0  0  0
 27 26  1  0  0  0  0
 30 29  1  6  0  0  0
 30 31  1  0  0  0  0
 30 28  1  0  0  0  0
 31 33  1  6  0  0  0
 31 32  1  0  0  0  0
 31 34  1  0  0  0  0
 34 35  1  0  0  0  0
 36 34  2  0  0  0  0
 37 34  1  0  0  0  0
M  END
>  <MODEL>
3

>  <REMARK>
 VINA RESULT:      -5.0      3.509      6.131
  Name = 
  9 active torsions:
  status: ('A' for Active; 'I' for Inactive)
    1  A    between atoms: C_1  and  P_5
    2  A    between atoms: C_1  and  C_23
    3  A    between atoms: C_6  and  C_8
    4  A    between atoms: C_6  and  C_31
    5  A    between atoms: C_8  and  C_19
    6  A    between atoms: C_9  and  C_30
    7  A    between atoms: C_20  and  O_25
    8  A    between atoms: C_23  and  O_25
    9  A    between atoms: C_29  and  C_31
                            x       y       z     vdW  Elec       q    Type
                         _______ _______ _______ _____ _____    ______ ____

>  <TORSDO>
F 9

$$$$
=
 OpenBabel11052415363D

 37 38  0  0  1  0  0  0  0  0999 V2000
  188.5960  175.8440  138.3050 O   0  0  0  0  0  0  0  0  0  0  0  0
  188.5770  175.3250  135.8640 C   0  0  2  0  0  0  0  0  0  0  0  0
  189.0500  177.1670  138.3250 C   0  0  2  0  0  3  0  0  0  0  0  0
  189.2690  175.2030  137.2460 C   0  0  1  0  0  3  0  0  0  0  0  0
  186.7950  177.9950  138.0790 O   0  0  0  0  0  1  0  0  0  0  0  0
  189.5310  175.4300  134.8490 O   0  0  0  0  0  1  0  0  0  0  0  0
  190.8190  175.1250  137.3340 C   0  0  2  0  0  3  0  0  0  0  0  0
  189.3840  178.1850  135.5330 C   0  0  0  0  0  1  0  0  0  0  0  0
  187.5900  176.5230  135.7630 C   0  0  0  0  0  2  0  0  0  0  0  0
  191.2970  174.9190  138.7810 C   0  0  0  0  0  2  0  0  0  0  0  0
  188.0940  177.8620  136.1320 N   0  0  0  0  0  0  0  0  0  0  0  0
  189.5300  177.5910  139.7280 C   0  0  2  0  0  3  0  0  0  0  0  0
  190.4070  176.4750  140.3170 C   0  0  0  0  0  2  0  0  0  0  0  0
  191.5430  176.1940  139.4520 N   0  0  0  0  0  2  0  0  0  0  0  0
  188.0960  178.1070  137.5810 C   0  0  2  0  0  3  0  0  0  0  0  0
  188.5180  173.0460  134.7230 C   0  0  0  0  0  1  0  0  0  0  0  0
  187.7930  174.0210  135.6410 C   0  0  2  0  0  3  0  0  0  0  0  0
  186.5170  174.2770  135.1330 O   0  0  0  0  0  1  0  0  0  0  0  0
  187.9950  179.2880  140.4900 O   0  0  0  0  0  1  0  0  0  0  0  0
  188.3750  177.9580  140.6840 C   0  0  2  0  0  3  0  0  0  0  0  0
  188.2760  176.6980  142.7830 C   0  0  0  0  0  0  0  0  0  0  0  0
  188.7030  177.7530  142.1370 C   0  0  0  0  0  0  0  0  0  0  0  0
  187.8730  175.6990  143.3920 O   0  0  0  0  0  0  0  0  0  0  0  0
  189.5910  178.7300  142.8330 C   0  0  0  0  0  2  0  0  0  0  0  0
  191.6690  177.6550  143.5580 C   0  0  0  0  0  2  0  0  0  0  0  0
  189.9490  177.9260  145.2660 C   0  0  0  0  0  1  0  0  0  0  0  0
  190.4370  178.0510  143.8630 C   0  0  0  0  0  0  0  0  0  0  0  0
  191.4270  176.2490  136.7530 O   0  0  0  0  0  0  0  0  0  0  0  0
  192.4660  176.1330  134.5940 C   0  0  0  0  0  1  0  0  0  0  0  0
  192.5600  175.7800  136.0730 C   0  0  1  0  0  3  0  0  0  0  0  0
  193.8560  176.3130  136.7110 C   0  0  2  0  0  0  0  0  0  0  0  0
  193.5420  177.1620  137.7730 O   0  0  0  0  0  1  0  0  0  0  0  0
  194.5520  177.0440  135.7660 F   0  0  0  0  0  0  0  0  0  0  0  0
  194.9400  174.9710  137.3170 P   0  0  0  0  0  0  0  0  0  0  0  0
  195.0790  175.0530  139.0010 O   0  0  0  0  0  1  0  0  0  0  0  0
  196.3120  175.0870  136.6940 O   0  0  0  0  0  0  0  0  0  0  0  0
  194.2650  173.4800  136.8920 O   0  0  0  0  0  1  0  0  0  0  0  0
  2  6  1  6  0  0  0
  2  4  1  0  0  0  0
  3  1  1  1  0  0  0
  3 12  1  0  0  0  0
  4  7  1  0  0  0  0
  4  1  1  1  0  0  0
  7 28  1  1  0  0  0
  7 10  1  0  0  0  0
  8 11  1  0  0  0  0
  9  2  1  0  0  0  0
  9 11  1  0  0  0  0
 10 14  1  0  0  0  0
 11 15  1  0  0  0  0
 12 13  1  0  0  0  0
 12 20  1  1  0  0  0
 14 13  1  0  0  0  0
 15  5  1  1  0  0  0
 15  3  1  0  0  0  0
 17 16  1  6  0  0  0
 17  2  1  0  0  0  0
 18 17  1  0  0  0  0
 20 19  1  1  0  0  0
 20 22  1  0  0  0  0
 21 23  2  0  0  0  0
 22 21  2  0  0  0  0
 22 24  1  0  0  0  0
 24 27  1  0  0  0  0
 25 27  2  0  0  0  0
 27 26  1  0  0  0  0
 30 29  1  6  0  0  0
 30 31  1  0  0  0  0
 30 28  1  0  0  0  0
 31 33  1  6  0  0  0
 31 34  1  0  0  0  0
 31 32  1  0  0  0  0
 34 35  1  0  0  0  0
 36 34  2  0  0  0  0
 37 34  1  0  0  0  0
M  END
>  <MODEL>
4

>  <REMARK>
 VINA RESULT:      -4.8      7.147      9.904
  Name = 
  9 active torsions:
  status: ('A' for Active; 'I' for Inactive)
    1  A    between atoms: C_1  and  P_5
    2  A    between atoms: C_1  and  C_23
    3  A    between atoms: C_6  and  C_8
    4  A    between atoms: C_6  and  C_31
    5  A    between atoms: C_8  and  C_19
    6  A    between atoms: C_9  and  C_30
    7  A    between atoms: C_20  and  O_25
    8  A    between atoms: C_23  and  O_25
    9  A    between atoms: C_29  and  C_31
                            x       y       z     vdW  Elec       q    Type
                         _______ _______ _______ _____ _____    ______ ____

>  <TORSDO>
F 9

$$$$
=
 OpenBabel11052415363D

 37 38  0  0  1  0  0  0  0  0999 V2000
  181.7610  177.2520  138.1730 O   0  0  0  0  0  0  0  0  0  0  0  0
  182.3640  175.4800  136.5240 C   0  0  2  0  0  0  0  0  0  0  0  0
  181.9360  178.4250  137.4300 C   0  0  2  0  0  3  0  0  0  0  0  0
  182.7560  176.3510  137.7440 C   0  0  1  0  0  3  0  0  0  0  0  0
  179.6690  178.2970  136.6080 O   0  0  0  0  0  1  0  0  0  0  0  0
  183.4730  175.2640  135.7030 O   0  0  0  0  0  1  0  0  0  0  0  0
  184.2360  176.7760  137.9520 C   0  0  2  0  0  3  0  0  0  0  0  0
  182.6540  177.7550  134.6040 C   0  0  0  0  0  1  0  0  0  0  0  0
  181.2080  176.0810  135.6730 C   0  0  0  0  0  2  0  0  0  0  0  0
  184.4260  177.5580  139.2630 C   0  0  0  0  0  2  0  0  0  0  0  0
  181.3530  177.4730  135.2020 N   0  0  0  0  0  0  0  0  0  0  0  0
  182.0150  179.6740  138.3310 C   0  0  2  0  0  3  0  0  0  0  0  0
  182.9450  179.3790  139.5180 C   0  0  0  0  0  2  0  0  0  0  0  0
  184.2710  178.9970  139.0570 N   0  0  0  0  0  2  0  0  0  0  0  0
  180.9990  178.4740  136.2180 C   0  0  2  0  0  3  0  0  0  0  0  0
  182.9440  173.0190  136.8510 C   0  0  0  0  0  1  0  0  0  0  0  0
  181.9120  174.1170  137.0750 C   0  0  2  0  0  3  0  0  0  0  0  0
  180.6900  173.7260  136.5220 O   0  0  0  0  0  1  0  0  0  0  0  0
  180.5000  181.5370  138.5660 O   0  0  0  0  0  1  0  0  0  0  0  0
  180.6340  180.1680  138.8110 C   0  0  2  0  0  3  0  0  0  0  0  0
  179.7540  180.7900  141.0120 C   0  0  0  0  0  0  0  0  0  0  0  0
  180.3710  179.9070  140.2690 C   0  0  0  0  0  0  0  0  0  0  0  0
  179.1690  181.6250  141.7140 O   0  0  0  0  0  0  0  0  0  0  0  0
  180.7550  178.5910  140.8590 C   0  0  0  0  0  2  0  0  0  0  0  0
  179.7090  178.3040  143.0550 C   0  0  0  0  0  2  0  0  0  0  0  0
  182.0470  179.0000  143.0630 C   0  0  0  0  0  1  0  0  0  0  0  0
  180.7810  178.6570  142.3530 C   0  0  0  0  0  0  0  0  0  0  0  0
  184.7250  177.5010  136.8530 O   0  0  0  0  0  0  0  0  0  0  0  0
  186.0790  176.3450  135.2450 C   0  0  0  0  0  1  0  0  0  0  0  0
  186.0210  177.0230  136.6080 C   0  0  1  0  0  3  0  0  0  0  0  0
  187.0640  178.1480  136.7370 C   0  0  2  0  0  0  0  0  0  0  0  0
  186.4210  179.3600  136.9920 O   0  0  0  0  0  1  0  0  0  0  0  0
  187.7460  178.2650  135.5400 F   0  0  0  0  0  0  0  0  0  0  0  0
  188.2790  177.8250  138.0640 P   0  0  0  0  0  0  0  0  0  0  0  0
  189.8050  178.3970  137.6070 O   0  0  0  0  0  0  0  0  0  0  0  0
  188.3640  176.3420  138.3460 O   0  0  0  0  0  1  0  0  0  0  0  0
  187.7900  178.6270  139.4690 O   0  0  0  0  0  1  0  0  0  0  0  0
  2  6  1  6  0  0  0
  2 17  1  0  0  0  0
  2  4  1  0  0  0  0
  3  1  1  1  0  0  0
  3 12  1  0  0  0  0
  4  7  1  0  0  0  0
  4  1  1  6  0  0  0
  7 28  1  6  0  0  0
  7 10  1  0  0  0  0
  8 11  1  0  0  0  0
  9  2  1  0  0  0  0
 11  9  1  0  0  0  0
 11 15  1  0  0  0  0
 12 20  1  1  0  0  0
 12 13  1  0  0  0  0
 14 10  1  0  0  0  0
 14 13  1  0  0  0  0
 15  5  1  1  0  0  0
 15  3  1  0  0  0  0
 17 16  1  6  0  0  0
 18 17  1  0  0  0  0
 20 19  1  1  0  0  0
 20 22  1  0  0  0  0
 21 23  2  0  0  0  0
 22 24  1  0  0  0  0
 22 21  2  0  0  0  0
 24 27  1  0  0  0  0
 27 25  2  0  0  0  0
 27 26  1  0  0  0  0
 30 29  1  6  0  0  0
 30 31  1  0  0  0  0
 30 28  1  0  0  0  0
 31 33  1  6  0  0  0
 31 32  1  0  0  0  0
 31 34  1  0  0  0  0
 34 36  1  0  0  0  0
 34 37  1  0  0  0  0
 35 34  2  0  0  0  0
M  END
>  <MODEL>
5

>  <REMARK>
 VINA RESULT:      -4.2      3.669      6.306
  Name = 
  9 active torsions:
  status: ('A' for Active; 'I' for Inactive)
    1  A    between atoms: C_1  and  P_5
    2  A    between atoms: C_1  and  C_23
    3  A    between atoms: C_6  and  C_8
    4  A    between atoms: C_6  and  C_31
    5  A    between atoms: C_8  and  C_19
    6  A    between atoms: C_9  and  C_30
    7  A    between atoms: C_20  and  O_25
    8  A    between atoms: C_23  and  O_25
    9  A    between atoms: C_29  and  C_31
                            x       y       z     vdW  Elec       q    Type
                         _______ _______ _______ _____ _____    ______ ____

>  <TORSDO>
F 9

$$$$
=
 OpenBabel11052415363D

 37 38  0  0  1  0  0  0  0  0999 V2000
  182.9150  179.0520  137.5800 O   0  0  0  0  0  0  0  0  0  0  0  0
  184.5930  177.2400  137.9310 C   0  0  2  0  0  0  0  0  0  0  0  0
  181.7740  178.5280  138.1990 C   0  0  2  0  0  3  0  0  0  0  0  0
  183.5920  177.9640  136.9950 C   0  0  1  0  0  3  0  0  0  0  0  0
  182.4510  179.4480  140.3280 O   0  0  0  0  0  1  0  0  0  0  0  0
  184.5980  175.8670  137.6700 O   0  0  0  0  0  1  0  0  0  0  0  0
  182.8350  177.1640  135.8980 C   0  0  2  0  0  3  0  0  0  0  0  0
  182.4170  175.9090  139.4920 C   0  0  0  0  0  1  0  0  0  0  0  0
  184.3130  177.4700  139.4440 C   0  0  0  0  0  2  0  0  0  0  0  0
  181.9620  178.0810  135.0250 C   0  0  0  0  0  2  0  0  0  0  0  0
  182.9500  177.1910  139.9410 N   0  0  0  0  0  0  0  0  0  0  0  0
  180.4930  179.2760  137.7770 C   0  0  2  0  0  3  0  0  0  0  0  0
  180.5080  179.4770  136.2540 C   0  0  0  0  0  2  0  0  0  0  0  0
  180.6080  178.2020  135.5610 N   0  0  0  0  0  2  0  0  0  0  0  0
  182.0020  178.2850  139.6950 C   0  0  2  0  0  3  0  0  0  0  0  0
  187.0530  176.6990  137.5430 C   0  0  0  0  0  1  0  0  0  0  0  0
  185.9910  177.7880  137.5990 C   0  0  2  0  0  3  0  0  0  0  0  0
  186.3800  178.7710  138.5130 O   0  0  0  0  0  1  0  0  0  0  0  0
  178.9340  180.8810  138.6790 O   0  0  0  0  0  1  0  0  0  0  0  0
  180.2960  180.6160  138.5170 C   0  0  2  0  0  3  0  0  0  0  0  0
  182.1160  182.2260  138.2020 C   0  0  0  0  0  0  0  0  0  0  0  0
  180.9410  181.7880  137.8290 C   0  0  0  0  0  0  0  0  0  0  0  0
  183.2280  182.6400  138.5550 O   0  0  0  0  0  0  0  0  0  0  0  0
  180.2630  182.4120  136.6540 C   0  0  0  0  0  2  0  0  0  0  0  0
  179.1920  184.2720  137.8350 C   0  0  0  0  0  2  0  0  0  0  0  0
  180.8230  184.8820  136.1260 C   0  0  0  0  0  1  0  0  0  0  0  0
  180.0280  183.8710  136.8820 C   0  0  0  0  0  0  0  0  0  0  0  0
  182.0800  176.1180  136.4510 O   0  0  0  0  0  0  0  0  0  0  0  0
  183.2480  175.1470  134.5940 C   0  0  0  0  0  1  0  0  0  0  0  0
  181.9970  175.1240  135.4630 C   0  0  1  0  0  3  0  0  0  0  0  0
  181.7530  173.7370  136.0850 C   0  0  2  0  0  0  0  0  0  0  0  0
  182.6740  173.5110  137.1090 O   0  0  0  0  0  1  0  0  0  0  0  0
  181.9420  172.7720  135.1140 F   0  0  0  0  0  0  0  0  0  0  0  0
  180.0610  173.5600  136.7540 P   0  0  0  0  0  0  0  0  0  0  0  0
  179.4750  172.0020  136.4470 O   0  0  0  0  0  1  0  0  0  0  0  0
  179.1390  174.5760  136.1180 O   0  0  0  0  0  0  0  0  0  0  0  0
  180.0970  173.8150  138.4250 O   0  0  0  0  0  1  0  0  0  0  0  0
  2  6  1  6  0  0  0
  2  9  1  0  0  0  0
  3  1  1  1  0  0  0
  3 15  1  0  0  0  0
  4  1  1  1  0  0  0
  4  2  1  0  0  0  0
  7 28  1  1  0  0  0
  7  4  1  0  0  0  0
  8 11  1  0  0  0  0
  9 11  1  0  0  0  0
 10 14  1  0  0  0  0
 10  7  1  0  0  0  0
 12  3  1  0  0  0  0
 12 20  1  1  0  0  0
 13 12  1  0  0  0  0
 14 13  1  0  0  0  0
 15 11  1  0  0  0  0
 15  5  1  6  0  0  0
 17 16  1  1  0  0  0
 17  2  1  0  0  0  0
 17 18  1  0  0  0  0
 20 19  1  6  0  0  0
 21 23  2  0  0  0  0
 22 21  2  0  0  0  0
 22 20  1  0  0  0  0
 24 27  1  0  0  0  0
 24 22  1  0  0  0  0
 26 27  1  0  0  0  0
 27 25  2  0  0  0  0
 30 29  1  1  0  0  0
 30 31  1  0  0  0  0
 30 28  1  0  0  0  0
 31 33  1  6  0  0  0
 31 34  1  0  0  0  0
 31 32  1  0  0  0  0
 34 37  1  0  0  0  0
 35 34  1  0  0  0  0
 36 34  2  0  0  0  0
M  END
>  <MODEL>
6

>  <REMARK>
 VINA RESULT:      -4.1      3.762      7.311
  Name = 
  9 active torsions:
  status: ('A' for Active; 'I' for Inactive)
    1  A    between atoms: C_1  and  P_5
    2  A    between atoms: C_1  and  C_23
    3  A    between atoms: C_6  and  C_8
    4  A    between atoms: C_6  and  C_31
    5  A    between atoms: C_8  and  C_19
    6  A    between atoms: C_9  and  C_30
    7  A    between atoms: C_20  and  O_25
    8  A    between atoms: C_23  and  O_25
    9  A    between atoms: C_29  and  C_31
                            x       y       z     vdW  Elec       q    Type
                         _______ _______ _______ _____ _____    ______ ____

>  <TORSDO>
F 9

$$$$
=
 OpenBabel11052415363D

 37 38  0  0  1  0  0  0  0  0999 V2000
  180.7820  177.8240  138.6450 O   0  0  0  0  0  0  0  0  0  0  0  0
  180.5260  175.4920  137.7930 C   0  0  2  0  0  0  0  0  0  0  0  0
  181.2140  178.5130  137.5070 C   0  0  2  0  0  3  0  0  0  0  0  0
  181.3560  176.5380  138.5810 C   0  0  1  0  0  3  0  0  0  0  0  0
  178.9310  178.9190  136.8300 O   0  0  0  0  0  1  0  0  0  0  0  0
  181.3710  174.6210  137.1020 O   0  0  0  0  0  1  0  0  0  0  0  0
  182.9080  176.4530  138.5880 C   0  0  2  0  0  3  0  0  0  0  0  0
  181.2470  176.6790  135.1450 C   0  0  0  0  0  1  0  0  0  0  0  0
  179.5140  176.1230  136.7930 C   0  0  0  0  0  2  0  0  0  0  0  0
  183.5330  177.5260  139.4960 C   0  0  0  0  0  2  0  0  0  0  0  0
  180.0300  177.1100  135.8230 N   0  0  0  0  0  0  0  0  0  0  0  0
  181.8250  179.8840  137.8590 C   0  0  2  0  0  3  0  0  0  0  0  0
  182.7760  179.7180  139.0550 C   0  0  0  0  0  2  0  0  0  0  0  0
  183.8230  178.7520  138.7570 N   0  0  0  0  0  2  0  0  0  0  0  0
  180.1740  178.4600  136.3830 C   0  0  2  0  0  3  0  0  0  0  0  0
  179.9860  175.1390  140.2590 C   0  0  0  0  0  1  0  0  0  0  0  0
  179.7450  174.6690  138.8310 C   0  0  2  0  0  3  0  0  0  0  0  0
  180.0490  173.3090  138.7310 O   0  0  0  0  0  1  0  0  0  0  0  0
  179.5400  180.3820  138.4490 O   0  0  0  0  0  1  0  0  0  0  0  0
  180.7660  180.9730  138.1330 C   0  0  2  0  0  3  0  0  0  0  0  0
  180.8430  181.5680  135.7570 C   0  0  0  0  0  0  0  0  0  0  0  0
  180.5660  181.9250  136.9860 C   0  0  0  0  0  0  0  0  0  0  0  0
  181.1040  181.2310  134.5960 O   0  0  0  0  0  0  0  0  0  0  0  0
  179.9730  183.2700  137.2440 C   0  0  0  0  0  2  0  0  0  0  0  0
  181.9240  184.7100  137.5940 C   0  0  0  0  0  2  0  0  0  0  0  0
  180.7650  184.9710  135.4630 C   0  0  0  0  0  1  0  0  0  0  0  0
  180.9030  184.3600  136.8160 C   0  0  0  0  0  0  0  0  0  0  0  0
  183.4350  176.5170  137.2880 O   0  0  0  0  0  0  0  0  0  0  0  0
  184.5210  174.3790  137.2460 C   0  0  0  0  0  1  0  0  0  0  0  0
  184.6890  175.8900  137.3380 C   0  0  1  0  0  3  0  0  0  0  0  0
  185.6290  176.4330  136.2470 C   0  0  2  0  0  0  0  0  0  0  0  0
  184.9750  177.4240  135.5130 O   0  0  0  0  0  1  0  0  0  0  0  0
  185.9560  175.4030  135.3850 F   0  0  0  0  0  0  0  0  0  0  0  0
  187.1760  177.1220  136.9360 P   0  0  0  0  0  0  0  0  0  0  0  0
  188.1780  175.8710  137.4780 O   0  0  0  0  0  1  0  0  0  0  0  0
  186.8660  178.0510  138.0880 O   0  0  0  0  0  1  0  0  0  0  0  0
  187.9820  177.9880  135.7290 O   0  0  0  0  0  0  0  0  0  0  0  0
  2  6  1  6  0  0  0
  2  4  1  0  0  0  0
  2 17  1  0  0  0  0
  3 12  1  0  0  0  0
  3  1  1  1  0  0  0
  4  7  1  0  0  0  0
  4  1  1  6  0  0  0
  7 28  1  6  0  0  0
  7 10  1  0  0  0  0
  8 11  1  0  0  0  0
  9  2  1  0  0  0  0
 11 15  1  0  0  0  0
 11  9  1  0  0  0  0
 12 20  1  1  0  0  0
 12 13  1  0  0  0  0
 14 13  1  0  0  0  0
 14 10  1  0  0  0  0
 15  5  1  1  0  0  0
 15  3  1  0  0  0  0
 17 16  1  1  0  0  0
 18 17  1  0  0  0  0
 20 19  1  6  0  0  0
 21 22  2  0  0  0  0
 22 24  1  0  0  0  0
 22 20  1  0  0  0  0
 23 21  2  0  0  0  0
 26 27  1  0  0  0  0
 27 24  1  0  0  0  0
 27 25  2  0  0  0  0
 28 30  1  0  0  0  0
 30 29  1  6  0  0  0
 31 33  1  6  0  0  0
 31 34  1  0  0  0  0
 31 30  1  0  0  0  0
 32 31  1  0  0  0  0
 34 35  1  0  0  0  0
 34 36  1  0  0  0  0
 37 34  2  0  0  0  0
M  END
>  <MODEL>
7

>  <REMARK>
 VINA RESULT:      -4.0      3.931      6.965
  Name = 
  9 active torsions:
  status: ('A' for Active; 'I' for Inactive)
    1  A    between atoms: C_1  and  P_5
    2  A    between atoms: C_1  and  C_23
    3  A    between atoms: C_6  and  C_8
    4  A    between atoms: C_6  and  C_31
    5  A    between atoms: C_8  and  C_19
    6  A    between atoms: C_9  and  C_30
    7  A    between atoms: C_20  and  O_25
    8  A    between atoms: C_23  and  O_25
    9  A    between atoms: C_29  and  C_31
                            x       y       z     vdW  Elec       q    Type
                         _______ _______ _______ _____ _____    ______ ____

>  <TORSDO>
F 9

$$$$
=
 OpenBabel11052415363D

 37 38  0  0  1  0  0  0  0  0999 V2000
  183.0830  175.1060  137.4080 O   0  0  0  0  0  0  0  0  0  0  0  0
  184.4060  177.2180  137.5280 C   0  0  2  0  0  0  0  0  0  0  0  0
  181.9460  175.5040  136.6960 C   0  0  2  0  0  3  0  0  0  0  0  0
  183.4590  176.2000  138.2130 C   0  0  1  0  0  3  0  0  0  0  0  0
  183.0430  175.0380  134.5950 O   0  0  0  0  0  1  0  0  0  0  0  0
  184.1120  178.5170  137.9500 O   0  0  0  0  0  1  0  0  0  0  0  0
  182.4330  176.6860  139.2750 C   0  0  2  0  0  3  0  0  0  0  0  0
  182.2200  178.3560  135.8360 C   0  0  0  0  0  1  0  0  0  0  0  0
  184.3630  177.1640  135.9740 C   0  0  0  0  0  2  0  0  0  0  0  0
  181.6550  175.5110  139.8930 C   0  0  0  0  0  2  0  0  0  0  0  0
  183.0430  177.2680  135.3190 N   0  0  0  0  0  0  0  0  0  0  0  0
  180.7940  174.4890  136.8320 C   0  0  2  0  0  3  0  0  0  0  0  0
  180.6620  174.0740  138.3060 C   0  0  0  0  0  2  0  0  0  0  0  0
  180.4260  175.2330  139.1540 N   0  0  0  0  0  2  0  0  0  0  0  0
  182.3030  175.9990  135.2900 C   0  0  2  0  0  3  0  0  0  0  0  0
  186.7650  178.0860  137.9500 C   0  0  0  0  0  1  0  0  0  0  0  0
  185.8330  176.8820  137.9930 C   0  0  2  0  0  3  0  0  0  0  0  0
  186.3810  175.8420  137.2390 O   0  0  0  0  0  1  0  0  0  0  0  0
  179.9410  173.2400  134.9530 O   0  0  0  0  0  1  0  0  0  0  0  0
  180.9530  173.2580  135.9160 C   0  0  2  0  0  3  0  0  0  0  0  0
  179.9110  171.1470  136.5960 C   0  0  0  0  0  0  0  0  0  0  0  0
  180.9440  171.9480  136.6550 C   0  0  0  0  0  0  0  0  0  0  0  0
  178.9340  170.3890  136.5390 O   0  0  0  0  0  0  0  0  0  0  0  0
  182.1610  171.5220  137.4070 C   0  0  0  0  0  2  0  0  0  0  0  0
  184.3670  172.0890  136.5040 C   0  0  0  0  0  2  0  0  0  0  0  0
  183.3290  170.0680  135.6140 C   0  0  0  0  0  1  0  0  0  0  0  0
  183.3100  171.2820  136.4800 C   0  0  0  0  0  0  0  0  0  0  0  0
  181.5610  177.6510  138.7470 O   0  0  0  0  0  0  0  0  0  0  0  0
  181.9330  179.0660  140.6480 C   0  0  0  0  0  1  0  0  0  0  0  0
  180.9270  178.2540  139.8440 C   0  0  1  0  0  3  0  0  0  0  0  0
  179.7250  179.1050  139.3960 C   0  0  2  0  0  0  0  0  0  0  0  0
  178.9580  179.4580  140.5070 O   0  0  0  0  0  1  0  0  0  0  0  0
  178.9350  178.3530  138.5470 F   0  0  0  0  0  0  0  0  0  0  0  0
  180.2350  180.6240  138.5140 P   0  0  0  0  0  0  0  0  0  0  0  0
  179.4990  180.6870  136.9920 O   0  0  0  0  0  0  0  0  0  0  0  0
  181.7370  180.6500  138.3460 O   0  0  0  0  0  1  0  0  0  0  0  0
  179.7560  181.9730  139.4140 O   0  0  0  0  0  1  0  0  0  0  0  0
  2  6  1  1  0  0  0
  2 17  1  0  0  0  0
  2  4  1  0  0  0  0
  3 12  1  0  0  0  0
  3  1  1  6  0  0  0
  4  1  1  6  0  0  0
  4  7  1  0  0  0  0
  7 28  1  6  0  0  0
  7 10  1  0  0  0  0
  9  2  1  0  0  0  0
 11  8  1  0  0  0  0
 11  9  1  0  0  0  0
 12 20  1  6  0  0  0
 12 13  1  0  0  0  0
 13 14  1  0  0  0  0
 14 10  1  0  0  0  0
 15  5  1  1  0  0  0
 15 11  1  0  0  0  0
 15  3  1  0  0  0  0
 17 16  1  6  0  0  0
 18 17  1  0  0  0  0
 20 19  1  6  0  0  0
 20 22  1  0  0  0  0
 21 22  2  0  0  0  0
 22 24  1  0  0  0  0
 23 21  2  0  0  0  0
 26 27  1  0  0  0  0
 27 25  2  0  0  0  0
 27 24  1  0  0  0  0
 28 30  1  0  0  0  0
 30 29  1  6  0  0  0
 31 33  1  6  0  0  0
 31 30  1  0  0  0  0
 31 32  1  0  0  0  0
 34 31  1  0  0  0  0
 34 37  1  0  0  0  0
 35 34  2  0  0  0  0
 36 34  1  0  0  0  0
M  END
>  <MODEL>
8

>  <REMARK>
 VINA RESULT:      -3.8      3.878      7.368
  Name = 
  9 active torsions:
  status: ('A' for Active; 'I' for Inactive)
    1  A    between atoms: C_1  and  P_5
    2  A    between atoms: C_1  and  C_23
    3  A    between atoms: C_6  and  C_8
    4  A    between atoms: C_6  and  C_31
    5  A    between atoms: C_8  and  C_19
    6  A    between atoms: C_9  and  C_30
    7  A    between atoms: C_20  and  O_25
    8  A    between atoms: C_23  and  O_25
    9  A    between atoms: C_29  and  C_31
                            x       y       z     vdW  Elec       q    Type
                         _______ _______ _______ _____ _____    ______ ____

>  <TORSDO>
F 9

$$$$
=
 OpenBabel11052415363D

 37 38  0  0  1  0  0  0  0  0999 V2000
  190.7830  176.4330  136.5610 O   0  0  0  0  0  0  0  0  0  0  0  0
  188.4030  177.1810  136.6010 C   0  0  2  0  0  0  0  0  0  0  0  0
  190.7370  175.2450  137.2990 C   0  0  2  0  0  3  0  0  0  0  0  0
  189.8490  177.3100  137.1470 C   0  0  1  0  0  3  0  0  0  0  0  0
  190.2140  173.9770  135.3110 O   0  0  0  0  0  1  0  0  0  0  0  0
  187.4760  177.3900  137.6250 O   0  0  0  0  0  1  0  0  0  0  0  0
  190.0860  177.7130  138.6290 C   0  0  2  0  0  3  0  0  0  0  0  0
  187.9120  174.6140  138.0530 C   0  0  0  0  0  1  0  0  0  0  0  0
  188.1120  175.8130  135.9190 C   0  0  0  0  0  2  0  0  0  0  0  0
  191.5840  177.8700  138.9430 C   0  0  0  0  0  2  0  0  0  0  0  0
  188.4140  174.5860  136.6830 N   0  0  0  0  0  0  0  0  0  0  0  0
  192.1380  174.7960  137.7590 C   0  0  2  0  0  3  0  0  0  0  0  0
  192.8960  176.0100  138.3180 C   0  0  0  0  0  2  0  0  0  0  0  0
  192.1660  176.6180  139.4200 N   0  0  0  0  0  2  0  0  0  0  0  0
  189.8310  174.2010  136.6370 C   0  0  2  0  0  3  0  0  0  0  0  0
  186.8590  178.2480  134.8770 C   0  0  0  0  0  1  0  0  0  0  0  0
  188.2180  178.2990  135.5620 C   0  0  2  0  0  3  0  0  0  0  0  0
  189.2280  178.2670  134.5960 O   0  0  0  0  0  1  0  0  0  0  0  0
  192.8750  172.7050  136.8080 O   0  0  0  0  0  1  0  0  0  0  0  0
  192.9480  174.0910  136.6510 C   0  0  2  0  0  3  0  0  0  0  0  0
  194.7490  175.6840  136.1730 C   0  0  0  0  0  0  0  0  0  0  0  0
  194.3950  174.5000  136.6060 C   0  0  0  0  0  0  0  0  0  0  0  0
  195.0820  176.8030  135.7650 O   0  0  0  0  0  0  0  0  0  0  0  0
  195.4370  173.5690  137.1320 C   0  0  0  0  0  2  0  0  0  0  0  0
  195.7890  174.4310  139.3980 C   0  0  0  0  0  2  0  0  0  0  0  0
  197.7000  174.5690  137.8880 C   0  0  0  0  0  1  0  0  0  0  0  0
  196.2750  174.2350  138.1760 C   0  0  0  0  0  0  0  0  0  0  0  0
  189.4730  176.8130  139.5140 O   0  0  0  0  0  0  0  0  0  0  0  0
  187.7890  178.0610  140.6820 C   0  0  0  0  0  1  0  0  0  0  0  0
  189.2170  177.5290  140.6940 C   0  0  1  0  0  3  0  0  0  0  0  0
  189.5020  176.6730  141.9400 C   0  0  2  0  0  0  0  0  0  0  0  0
  190.2680  175.5620  141.5840 O   0  0  0  0  0  1  0  0  0  0  0  0
  188.3020  176.2210  142.4570 F   0  0  0  0  0  0  0  0  0  0  0  0
  190.3760  177.6090  143.2450 P   0  0  0  0  0  0  0  0  0  0  0  0
  190.0800  176.9100  144.7580 O   0  0  0  0  0  1  0  0  0  0  0  0
  189.9100  179.0470  143.2580 O   0  0  0  0  0  1  0  0  0  0  0  0
  192.0380  177.5690  142.9360 O   0  0  0  0  0  0  0  0  0  0  0  0
  2  4  1  0  0  0  0
  2  6  1  1  0  0  0
  3  1  1  6  0  0  0
  3 12  1  0  0  0  0
  4  1  1  1  0  0  0
  4  7  1  0  0  0  0
  7 10  1  0  0  0  0
  7 28  1  1  0  0  0
  9  2  1  0  0  0  0
  9 11  1  0  0  0  0
 10 14  1  0  0  0  0
 11  8  1  0  0  0  0
 12 20  1  6  0  0  0
 12 13  1  0  0  0  0
 13 14  1  0  0  0  0
 15  5  1  6  0  0  0
 15 11  1  0  0  0  0
 15  3  1  0  0  0  0
 17 16  1  6  0  0  0
 17  2  1  0  0  0  0
 18 17  1  0  0  0  0
 20 19  1  1  0  0  0
 21 22  2  0  0  0  0
 22 20  1  0  0  0  0
 22 24  1  0  0  0  0
 23 21  2  0  0  0  0
 24 27  1  0  0  0  0
 26 27  1  0  0  0  0
 27 25  2  0  0  0  0
 28 30  1  0  0  0  0
 30 29  1  6  0  0  0
 30 31  1  0  0  0  0
 31 32  1  6  0  0  0
 31 33  1  0  0  0  0
 31 34  1  0  0  0  0
 34 36  1  0  0  0  0
 34 35  1  0  0  0  0
 37 34  2  0  0  0  0
M  END
>  <MODEL>
9

>  <REMARK>
 VINA RESULT:      -3.8      7.349     10.517
  Name = 
  9 active torsions:
  status: ('A' for Active; 'I' for Inactive)
    1  A    between atoms: C_1  and  P_5
    2  A    between atoms: C_1  and  C_23
    3  A    between atoms: C_6  and  C_8
    4  A    between atoms: C_6  and  C_31
    5  A    between atoms: C_8  and  C_19
    6  A    between atoms: C_9  and  C_30
    7  A    between atoms: C_20  and  O_25
    8  A    between atoms: C_23  and  O_25
    9  A    between atoms: C_29  and  C_31
                            x       y       z     vdW  Elec       q    Type
                         _______ _______ _______ _____ _____    ______ ____

>  <TORSDO>
F 9

$$$$
