=
 OpenBabel11052416113D

 43 48  0  0  1  0  0  0  0  0999 V2000
  191.3960  176.3990  146.9850 C   0  0  0  0  0  0  0  0  0  0  0  0
  186.9220  177.8270  145.0910 C   0  0  0  0  0  0  0  0  0  0  0  0
  187.2190  178.0020  142.3240 C   0  0  0  0  0  0  0  0  0  0  0  0
  189.0750  177.0470  146.7200 C   0  0  0  0  0  0  0  0  0  0  0  0
  191.5790  176.4670  145.6010 C   0  0  0  0  0  3  0  0  0  0  0  0
  192.5240  176.0060  147.8620 C   0  0  0  0  0  1  0  0  0  0  0  0
  189.2580  177.1380  145.3150 C   0  0  0  0  0  0  0  0  0  0  0  0
  190.1450  176.6830  147.5440 C   0  0  0  0  0  3  0  0  0  0  0  0
  190.5180  176.8360  144.7700 C   0  0  0  0  0  3  0  0  0  0  0  0
  188.3150  177.6290  143.1070 C   0  0  0  0  0  3  0  0  0  0  0  0
  188.1770  177.5320  144.4990 C   0  0  0  0  0  0  0  0  0  0  0  0
  186.7660  177.7260  146.4870 C   0  0  0  0  0  3  0  0  0  0  0  0
  185.8520  178.2190  144.2650 C   0  0  0  0  0  0  0  0  0  0  0  0
  186.0250  178.2750  142.9190 N   0  0  0  0  0  0  0  0  0  0  0  0
  187.8350  177.3410  147.2950 C   0  0  0  0  0  3  0  0  0  0  0  0
  187.3120  178.0250  140.8260 C   0  0  1  0  0  3  0  0  0  0  0  0
  186.0990  178.6980  140.2200 C   0  0  0  0  0  1  0  0  0  0  0  0
  188.5910  178.6990  140.3280 C   0  0  0  0  0  2  0  0  0  0  0  0
  189.7020  177.3730  138.4580 N   0  0  0  0  0  0  0  0  0  0  0  0
  189.5410  176.7890  137.1540 C   0  0  0  0  0  3  0  0  0  0  0  0
  191.3190  175.1580  137.6780 C   0  0  0  0  0  2  0  0  0  0  0  0
  188.8220  178.4310  138.8720 C   0  0  0  0  0  0  0  0  0  0  0  0
  190.6760  176.8220  139.4070 C   0  0  0  0  0  2  0  0  0  0  0  0
  188.1800  179.0960  138.0150 O   0  0  0  0  0  0  0  0  0  0  0  0
  190.3040  175.7630  136.7500 C   0  0  0  0  0  0  0  0  0  0  0  0
  191.8490  176.1920  138.6670 C   0  0  0  0  0  2  0  0  0  0  0  0
  190.1650  175.1890  135.3700 C   0  0  1  0  0  3  0  0  0  0  0  0
  191.5030  174.7200  134.8050 C   0  0  0  0  0  1  0  0  0  0  0  0
  189.1050  174.1290  135.2950 C   0  0  0  0  0  0  0  0  0  0  0  0
  188.3830  171.8240  135.5370 C   0  0  0  0  0  3  0  0  0  0  0  0
  186.7940  173.5280  134.8760 C   0  0  0  0  0  3  0  0  0  0  0  0
  187.0840  172.1930  135.1720 C   0  0  0  0  0  3  0  0  0  0  0  0
  187.8030  174.4930  134.9350 C   0  0  0  0  0  3  0  0  0  0  0  0
  189.3890  172.7890  135.6030 C   0  0  0  0  0  3  0  0  0  0  0  0
  184.5020  178.5300  144.8260 C   0  0  0  0  0  2  0  0  0  0  0  0
  183.8290  179.6170  144.0080 C   0  0  0  0  0  2  0  0  0  0  0  0
  182.4510  178.7350  141.7330 S   0  0  0  0  0  0  0  0  0  0  0  0
  180.8310  178.2960  141.8330 C   0  0  0  0  0  0  0  0  0  0  0  0
  181.3870  178.8820  144.0090 C   0  0  0  0  0  3  0  0  0  0  0  0
  182.6070  179.0740  143.3700 C   0  0  0  0  0  0  0  0  0  0  0  0
  180.3800  178.4420  143.1360 C   0  0  0  0  0  3  0  0  0  0  0  0
  179.3040  177.6130  139.7810 C   0  0  0  0  0  3  0  0  0  0  0  0
  180.0060  177.9230  140.7190 C   0  0  0  0  0  0  0  0  0  0  0  0
  1  8  1  0  0  0  0
  1  6  1  0  0  0  0
  2 12  1  0  0  0  0
  3 14  2  0  0  0  0
  3 10  1  0  0  0  0
  4 15  1  0  0  0  0
  4  8  2  0  0  0  0
  5  1  2  0  0  0  0
  7  4  1  0  0  0  0
  9  7  2  0  0  0  0
  9  5  1  0  0  0  0
 10 11  2  0  0  0  0
 11  2  1  0  0  0  0
 11  7  1  0  0  0  0
 12 15  2  0  0  0  0
 13 35  1  0  0  0  0
 13  2  2  0  0  0  0
 14 13  1  0  0  0  0
 16 17  1  6  0  0  0
 16  3  1  0  0  0  0
 18 16  1  0  0  0  0
 19 22  1  0  0  0  0
 19 23  1  0  0  0  0
 20 19  1  0  0  0  0
 21 26  1  0  0  0  0
 22 18  1  0  0  0  0
 24 22  2  0  0  0  0
 25 20  2  0  0  0  0
 25 21  1  0  0  0  0
 26 23  1  0  0  0  0
 27 28  1  1  0  0  0
 27 25  1  0  0  0  0
 29 27  1  0  0  0  0
 29 34  1  0  0  0  0
 30 34  2  0  0  0  0
 31 33  1  0  0  0  0
 31 32  2  0  0  0  0
 32 30  1  0  0  0  0
 33 29  2  0  0  0  0
 36 35  1  0  0  0  0
 37 38  1  0  0  0  0
 37 40  1  0  0  0  0
 38 41  2  0  0  0  0
 40 36  1  0  0  0  0
 40 39  2  0  0  0  0
 41 39  1  0  0  0  0
 42 43  3  0  0  0  0
 43 38  1  0  0  0  0
M  END
>  <MODEL>
1

>  <REMARK>
 VINA RESULT:     -10.1      0.000      0.000
  Name = 
  9 active torsions:
  status: ('A' for Active; 'I' for Inactive)
    1  A    between atoms: C_1  and  C_34
    2  A    between atoms: C_1  and  C_35
    3  A    between atoms: C_2  and  C_6
    4  A    between atoms: C_2  and  C_13
    5  A    between atoms: C_6  and  C_12
    6  A    between atoms: C_11  and  C_14
    7  A    between atoms: C_14  and  C_22
    8  A    between atoms: C_19  and  C_37
    9  A    between atoms: C_32  and  C_35
                            x       y       z     vdW  Elec       q    Type
                         _______ _______ _______ _____ _____    ______ ____

>  <TORSDO>
F 9

$$$$
=
 OpenBabel11052416113D

 43 48  0  0  1  0  0  0  0  0999 V2000
  184.8410  178.8480  139.3780 C   0  0  0  0  0  0  0  0  0  0  0  0
  189.5570  177.2430  138.4710 C   0  0  0  0  0  0  0  0  0  0  0  0
  190.9890  177.5110  140.8480 C   0  0  0  0  0  0  0  0  0  0  0  0
  186.8410  177.9540  138.3410 C   0  0  0  0  0  0  0  0  0  0  0  0
  185.5240  178.9870  140.5900 C   0  0  0  0  0  3  0  0  0  0  0  0
  183.4130  179.2340  139.2850 C   0  0  0  0  0  1  0  0  0  0  0  0
  187.5480  178.1110  139.5620 C   0  0  0  0  0  0  0  0  0  0  0  0
  185.4960  178.3260  138.2570 C   0  0  0  0  0  3  0  0  0  0  0  0
  186.8710  178.6240  140.6820 C   0  0  0  0  0  3  0  0  0  0  0  0
  189.6440  177.8920  140.8130 C   0  0  0  0  0  3  0  0  0  0  0  0
  188.9120  177.7560  139.6240 C   0  0  0  0  0  0  0  0  0  0  0  0
  188.8320  177.0920  137.2720 C   0  0  0  0  0  3  0  0  0  0  0  0
  190.9180  176.8910  138.5480 C   0  0  0  0  0  0  0  0  0  0  0  0
  191.5800  177.0160  139.7260 N   0  0  0  0  0  0  0  0  0  0  0  0
  187.4850  177.4470  137.2080 C   0  0  0  0  0  3  0  0  0  0  0  0
  191.7710  177.5590  142.1280 C   0  0  1  0  0  3  0  0  0  0  0  0
  191.2780  178.6790  143.0210 C   0  0  0  0  0  1  0  0  0  0  0  0
  191.7370  176.2300  142.8850 C   0  0  0  0  0  2  0  0  0  0  0  0
  190.3670  176.4720  145.0200 N   0  0  0  0  0  0  0  0  0  0  0  0
  189.0830  176.7930  145.5810 C   0  0  0  0  0  3  0  0  0  0  0  0
  190.1830  177.4490  147.6920 C   0  0  0  0  0  2  0  0  0  0  0  0
  190.4550  176.0640  143.6450 C   0  0  0  0  0  0  0  0  0  0  0  0
  191.5930  176.6680  145.8030 C   0  0  0  0  0  2  0  0  0  0  0  0
  189.4360  175.6300  143.0430 O   0  0  0  0  0  0  0  0  0  0  0  0
  188.9630  177.2310  146.8430 C   0  0  0  0  0  0  0  0  0  0  0  0
  191.3120  176.5050  147.2910 C   0  0  0  0  0  2  0  0  0  0  0  0
  187.6160  177.5170  147.4400 C   0  0  1  0  0  3  0  0  0  0  0  0
  187.6980  178.5070  148.5980 C   0  0  0  0  0  1  0  0  0  0  0  0
  186.6070  177.9240  146.4060 C   0  0  0  0  0  0  0  0  0  0  0  0
  185.9170  178.1770  144.0920 C   0  0  0  0  0  3  0  0  0  0  0  0
  184.3990  178.7770  145.8810 C   0  0  0  0  0  3  0  0  0  0  0  0
  184.6770  178.6660  144.5160 C   0  0  0  0  0  3  0  0  0  0  0  0
  185.3620  178.4100  146.8240 C   0  0  0  0  0  3  0  0  0  0  0  0
  186.8770  177.8020  145.0340 C   0  0  0  0  0  3  0  0  0  0  0  0
  191.6500  176.3320  137.3710 C   0  0  0  0  0  2  0  0  0  0  0  0
  193.1490  176.4180  137.5940 C   0  0  0  0  0  2  0  0  0  0  0  0
  193.2220  173.8700  136.4300 S   0  0  0  0  0  0  0  0  0  0  0  0
  194.2940  172.7040  136.9940 C   0  0  0  0  0  0  0  0  0  0  0  0
  194.7430  174.5610  138.3110 C   0  0  0  0  0  3  0  0  0  0  0  0
  193.7470  175.0660  137.4830 C   0  0  0  0  0  0  0  0  0  0  0  0
  195.0520  173.2200  138.0340 C   0  0  0  0  0  3  0  0  0  0  0  0
  194.3920  170.1950  136.1570 C   0  0  0  0  0  3  0  0  0  0  0  0
  194.3510  171.3430  136.5380 C   0  0  0  0  0  0  0  0  0  0  0  0
  1  5  1  0  0  0  0
  2 13  2  0  0  0  0
  2 11  1  0  0  0  0
  3 16  1  0  0  0  0
  4  7  2  0  0  0  0
  5  9  2  0  0  0  0
  6  1  1  0  0  0  0
  7 11  1  0  0  0  0
  7  9  1  0  0  0  0
  8  4  1  0  0  0  0
  8  1  2  0  0  0  0
 10  3  1  0  0  0  0
 11 10  2  0  0  0  0
 12  2  1  0  0  0  0
 13 14  1  0  0  0  0
 14  3  2  0  0  0  0
 15 12  2  0  0  0  0
 15  4  1  0  0  0  0
 16 18  1  0  0  0  0
 16 17  1  1  0  0  0
 18 22  1  0  0  0  0
 19 20  1  0  0  0  0
 19 23  1  0  0  0  0
 20 25  2  0  0  0  0
 22 19  1  0  0  0  0
 23 26  1  0  0  0  0
 24 22  2  0  0  0  0
 25 27  1  0  0  0  0
 25 21  1  0  0  0  0
 26 21  1  0  0  0  0
 27 28  1  1  0  0  0
 29 33  1  0  0  0  0
 29 27  1  0  0  0  0
 30 32  2  0  0  0  0
 30 34  1  0  0  0  0
 31 33  2  0  0  0  0
 32 31  1  0  0  0  0
 34 29  2  0  0  0  0
 35 36  1  0  0  0  0
 35 13  1  0  0  0  0
 37 38  1  0  0  0  0
 37 40  1  0  0  0  0
 38 41  2  0  0  0  0
 40 36  1  0  0  0  0
 40 39  2  0  0  0  0
 41 39  1  0  0  0  0
 42 43  3  0  0  0  0
 43 38  1  0  0  0  0
M  END
>  <MODEL>
2

>  <REMARK>
 VINA RESULT:      -9.9      3.414     10.441
  Name = 
  9 active torsions:
  status: ('A' for Active; 'I' for Inactive)
    1  A    between atoms: C_1  and  C_34
    2  A    between atoms: C_1  and  C_35
    3  A    between atoms: C_2  and  C_6
    4  A    between atoms: C_2  and  C_13
    5  A    between atoms: C_6  and  C_12
    6  A    between atoms: C_11  and  C_14
    7  A    between atoms: C_14  and  C_22
    8  A    between atoms: C_19  and  C_37
    9  A    between atoms: C_32  and  C_35
                            x       y       z     vdW  Elec       q    Type
                         _______ _______ _______ _____ _____    ______ ____

>  <TORSDO>
F 9

$$$$
=
 OpenBabel11052416113D

 43 48  0  0  1  0  0  0  0  0999 V2000
  187.6890  177.9590  146.1710 C   0  0  0  0  0  0  0  0  0  0  0  0
  183.5090  178.7380  143.4210 C   0  0  0  0  0  0  0  0  0  0  0  0
  184.1840  178.2900  140.7530 C   0  0  0  0  0  0  0  0  0  0  0  0
  185.4220  178.4360  145.4570 C   0  0  0  0  0  0  0  0  0  0  0  0
  188.0610  177.7170  144.8450 C   0  0  0  0  0  3  0  0  0  0  0  0
  188.6880  177.8220  147.2570 C   0  0  0  0  0  1  0  0  0  0  0  0
  185.7960  178.2120  144.1070 C   0  0  0  0  0  0  0  0  0  0  0  0
  186.3700  178.3120  146.4770 C   0  0  0  0  0  3  0  0  0  0  0  0
  187.1220  177.8440  143.8180 C   0  0  0  0  0  3  0  0  0  0  0  0
  185.1640  178.1490  141.7390 C   0  0  0  0  0  3  0  0  0  0  0  0
  184.8360  178.3660  143.0860 C   0  0  0  0  0  0  0  0  0  0  0  0
  183.1610  178.9510  144.7690 C   0  0  0  0  0  3  0  0  0  0  0  0
  182.5600  178.8880  142.3920 C   0  0  0  0  0  0  0  0  0  0  0  0
  182.9170  178.6430  141.1050 N   0  0  0  0  0  0  0  0  0  0  0  0
  184.1110  178.8020  145.7790 C   0  0  0  0  0  3  0  0  0  0  0  0
  184.4840  177.9740  139.3170 C   0  0  1  0  0  3  0  0  0  0  0  0
  183.2330  178.0760  138.4700 C   0  0  0  0  0  1  0  0  0  0  0  0
  185.5830  178.8650  138.7380 C   0  0  0  0  0  2  0  0  0  0  0  0
  187.7330  177.5650  138.3130 N   0  0  0  0  0  0  0  0  0  0  0  0
  188.3340  176.4440  137.6430 C   0  0  0  0  0  3  0  0  0  0  0  0
  190.1070  176.3850  139.3610 C   0  0  0  0  0  2  0  0  0  0  0  0
  186.4900  178.0960  137.8250 C   0  0  0  0  0  0  0  0  0  0  0  0
  188.3170  178.0960  139.5510 C   0  0  0  0  0  2  0  0  0  0  0  0
  186.1160  177.8570  136.6450 O   0  0  0  0  0  0  0  0  0  0  0  0
  189.4640  175.8840  138.0990 C   0  0  0  0  0  0  0  0  0  0  0  0
  189.8220  177.8690  139.5750 C   0  0  0  0  0  2  0  0  0  0  0  0
  190.1140  174.7440  137.3700 C   0  0  1  0  0  3  0  0  0  0  0  0
  189.2880  174.2800  136.1740 C   0  0  0  0  0  1  0  0  0  0  0  0
  191.5400  175.0390  137.0040 C   0  0  0  0  0  0  0  0  0  0  0  0
  193.9220  174.6220  137.2260 C   0  0  0  0  0  3  0  0  0  0  0  0
  193.1250  176.2950  135.6670 C   0  0  0  0  0  3  0  0  0  0  0  0
  194.1820  175.6030  136.2640 C   0  0  0  0  0  3  0  0  0  0  0  0
  191.8070  176.0160  136.0380 C   0  0  0  0  0  3  0  0  0  0  0  0
  192.6040  174.3370  137.5920 C   0  0  0  0  0  3  0  0  0  0  0  0
  181.1430  179.2630  142.6820 C   0  0  0  0  0  2  0  0  0  0  0  0
  180.2460  178.8740  141.5210 C   0  0  0  0  0  2  0  0  0  0  0  0
  180.4210  180.4900  139.2380 S   0  0  0  0  0  0  0  0  0  0  0  0
  179.6220  181.9680  139.1740 C   0  0  0  0  0  0  0  0  0  0  0  0
  179.0620  181.1180  141.2600 C   0  0  0  0  0  3  0  0  0  0  0  0
  179.8550  180.0880  140.7660 C   0  0  0  0  0  0  0  0  0  0  0  0
  178.9310  182.1840  140.3570 C   0  0  0  0  0  3  0  0  0  0  0  0
  179.8060  183.7160  137.1950 C   0  0  0  0  0  3  0  0  0  0  0  0
  179.7180  182.9140  138.0980 C   0  0  0  0  0  0  0  0  0  0  0  0
  1  8  1  0  0  0  0
  1  6  1  0  0  0  0
  2 12  1  0  0  0  0
  3 14  2  0  0  0  0
  3 10  1  0  0  0  0
  4 15  1  0  0  0  0
  4  8  2  0  0  0  0
  5  1  2  0  0  0  0
  7  4  1  0  0  0  0
  9  7  2  0  0  0  0
  9  5  1  0  0  0  0
 10 11  2  0  0  0  0
 11  2  1  0  0  0  0
 11  7  1  0  0  0  0
 12 15  2  0  0  0  0
 13 35  1  0  0  0  0
 13  2  2  0  0  0  0
 14 13  1  0  0  0  0
 16 17  1  6  0  0  0
 16  3  1  0  0  0  0
 18 16  1  0  0  0  0
 19 23  1  0  0  0  0
 20 25  2  0  0  0  0
 20 19  1  0  0  0  0
 21 26  1  0  0  0  0
 22 19  1  0  0  0  0
 22 18  1  0  0  0  0
 23 26  1  0  0  0  0
 24 22  2  0  0  0  0
 25 21  1  0  0  0  0
 27 28  1  6  0  0  0
 27 25  1  0  0  0  0
 29 27  1  0  0  0  0
 29 34  1  0  0  0  0
 30 34  2  0  0  0  0
 31 33  1  0  0  0  0
 31 32  2  0  0  0  0
 32 30  1  0  0  0  0
 33 29  2  0  0  0  0
 36 35  1  0  0  0  0
 37 40  1  0  0  0  0
 38 37  1  0  0  0  0
 38 41  2  0  0  0  0
 40 39  2  0  0  0  0
 40 36  1  0  0  0  0
 41 39  1  0  0  0  0
 42 43  3  0  0  0  0
 43 38  1  0  0  0  0
M  END
>  <MODEL>
3

>  <REMARK>
 VINA RESULT:      -9.6      2.423      4.094
  Name = 
  9 active torsions:
  status: ('A' for Active; 'I' for Inactive)
    1  A    between atoms: C_1  and  C_34
    2  A    between atoms: C_1  and  C_35
    3  A    between atoms: C_2  and  C_6
    4  A    between atoms: C_2  and  C_13
    5  A    between atoms: C_6  and  C_12
    6  A    between atoms: C_11  and  C_14
    7  A    between atoms: C_14  and  C_22
    8  A    between atoms: C_19  and  C_37
    9  A    between atoms: C_32  and  C_35
                            x       y       z     vdW  Elec       q    Type
                         _______ _______ _______ _____ _____    ______ ____

>  <TORSDO>
F 9

$$$$
=
 OpenBabel11052416113D

 43 48  0  0  1  0  0  0  0  0999 V2000
  181.4240  178.8990  142.9660 C   0  0  0  0  0  0  0  0  0  0  0  0
  186.3940  178.4840  142.0930 C   0  0  0  0  0  0  0  0  0  0  0  0
  186.7280  178.2520  139.3340 C   0  0  0  0  0  0  0  0  0  0  0  0
  183.8320  178.7730  143.2100 C   0  0  0  0  0  0  0  0  0  0  0  0
  181.5540  178.7950  141.5770 C   0  0  0  0  0  3  0  0  0  0  0  0
  180.0800  179.0350  143.5750 C   0  0  0  0  0  1  0  0  0  0  0  0
  183.9720  178.6470  141.8040 C   0  0  0  0  0  0  0  0  0  0  0  0
  182.5610  178.8940  143.7800 C   0  0  0  0  0  3  0  0  0  0  0  0
  182.8190  178.6670  140.9990 C   0  0  0  0  0  3  0  0  0  0  0  0
  185.4390  178.3760  139.8590 C   0  0  0  0  0  3  0  0  0  0  0  0
  185.2580  178.4990  141.2450 C   0  0  0  0  0  0  0  0  0  0  0  0
  186.2300  178.6150  143.4860 C   0  0  0  0  0  3  0  0  0  0  0  0
  187.6730  178.3360  141.5220 C   0  0  0  0  0  0  0  0  0  0  0  0
  187.8010  178.2460  140.1730 N   0  0  0  0  0  0  0  0  0  0  0  0
  184.9580  178.7570  144.0400 C   0  0  0  0  0  3  0  0  0  0  0  0
  186.9580  178.2120  137.8520 C   0  0  1  0  0  3  0  0  0  0  0  0
  188.4230  178.4150  137.5270 C   0  0  0  0  0  1  0  0  0  0  0  0
  186.4540  176.9160  137.2150 C   0  0  0  0  0  2  0  0  0  0  0  0
  183.9510  177.1200  136.7820 N   0  0  0  0  0  0  0  0  0  0  0  0
  182.9170  177.8350  136.0840 C   0  0  0  0  0  3  0  0  0  0  0  0
  181.3000  177.1760  137.8300 C   0  0  0  0  0  2  0  0  0  0  0  0
  185.3010  177.1710  136.2920 C   0  0  0  0  0  0  0  0  0  0  0  0
  183.6610  176.4370  138.0490 C   0  0  0  0  0  2  0  0  0  0  0  0
  185.5310  177.5030  135.0980 O   0  0  0  0  0  0  0  0  0  0  0  0
  181.6560  177.8580  136.5390 C   0  0  0  0  0  0  0  0  0  0  0  0
  182.2090  175.9790  138.0920 C   0  0  0  0  0  2  0  0  0  0  0  0
  180.5710  178.5650  135.7810 C   0  0  1  0  0  3  0  0  0  0  0  0
  179.1890  177.9920  136.0850 C   0  0  0  0  0  1  0  0  0  0  0  0
  180.6270  180.0540  135.9560 C   0  0  0  0  0  0  0  0  0  0  0  0
  180.8440  182.0240  137.3590 C   0  0  0  0  0  3  0  0  0  0  0  0
  180.6160  182.2650  134.9600 C   0  0  0  0  0  3  0  0  0  0  0  0
  180.7590  182.8400  136.2260 C   0  0  0  0  0  3  0  0  0  0  0  0
  180.5470  180.8760  134.8260 C   0  0  0  0  0  3  0  0  0  0  0  0
  180.7830  180.6350  137.2240 C   0  0  0  0  0  3  0  0  0  0  0  0
  188.9090  178.3270  142.3610 C   0  0  0  0  0  2  0  0  0  0  0  0
  189.2970  176.9020  142.7110 C   0  0  0  0  0  2  0  0  0  0  0  0
  191.3050  176.1580  144.5190 S   0  0  0  0  0  0  0  0  0  0  0  0
  191.1120  176.4290  146.1670 C   0  0  0  0  0  0  0  0  0  0  0  0
  189.1690  177.2820  145.2290 C   0  0  0  0  0  3  0  0  0  0  0  0
  189.8410  176.8580  144.0890 C   0  0  0  0  0  0  0  0  0  0  0  0
  189.8890  177.0370  146.4080 C   0  0  0  0  0  3  0  0  0  0  0  0
  192.7970  175.6420  148.0510 C   0  0  0  0  0  3  0  0  0  0  0  0
  192.0300  176.0040  147.1870 C   0  0  0  0  0  0  0  0  0  0  0  0
  1  6  1  0  0  0  0
  1  8  1  0  0  0  0
  2 12  1  0  0  0  0
  3 10  2  0  0  0  0
  3 14  1  0  0  0  0
  4  8  2  0  0  0  0
  4 15  1  0  0  0  0
  5  1  2  0  0  0  0
  7  4  1  0  0  0  0
  9  5  1  0  0  0  0
  9  7  2  0  0  0  0
 10 11  1  0  0  0  0
 11  7  1  0  0  0  0
 11  2  2  0  0  0  0
 12 15  2  0  0  0  0
 13  2  1  0  0  0  0
 13 35  1  0  0  0  0
 14 13  2  0  0  0  0
 16 17  1  1  0  0  0
 16  3  1  0  0  0  0
 18 16  1  0  0  0  0
 19 23  1  0  0  0  0
 20 25  2  0  0  0  0
 20 19  1  0  0  0  0
 21 26  1  0  0  0  0
 22 19  1  0  0  0  0
 22 18  1  0  0  0  0
 23 26  1  0  0  0  0
 24 22  2  0  0  0  0
 25 21  1  0  0  0  0
 27 29  1  0  0  0  0
 27 28  1  1  0  0  0
 27 25  1  0  0  0  0
 29 34  1  0  0  0  0
 31 32  2  0  0  0  0
 32 30  1  0  0  0  0
 33 31  1  0  0  0  0
 33 29  2  0  0  0  0
 34 30  2  0  0  0  0
 35 36  1  0  0  0  0
 36 40  1  0  0  0  0
 37 38  1  0  0  0  0
 38 41  2  0  0  0  0
 38 43  1  0  0  0  0
 39 41  1  0  0  0  0
 40 37  1  0  0  0  0
 40 39  2  0  0  0  0
 43 42  3  0  0  0  0
M  END
>  <MODEL>
4

>  <REMARK>
 VINA RESULT:      -9.6      3.473      8.706
  Name = 
  9 active torsions:
  status: ('A' for Active; 'I' for Inactive)
    1  A    between atoms: C_1  and  C_34
    2  A    between atoms: C_1  and  C_35
    3  A    between atoms: C_2  and  C_6
    4  A    between atoms: C_2  and  C_13
    5  A    between atoms: C_6  and  C_12
    6  A    between atoms: C_11  and  C_14
    7  A    between atoms: C_14  and  C_22
    8  A    between atoms: C_19  and  C_37
    9  A    between atoms: C_32  and  C_35
                            x       y       z     vdW  Elec       q    Type
                         _______ _______ _______ _____ _____    ______ ____

>  <TORSDO>
F 9

$$$$
=
 OpenBabel11052416113D

 43 48  0  0  1  0  0  0  0  0999 V2000
  181.1400  178.8170  143.1830 C   0  0  0  0  0  0  0  0  0  0  0  0
  186.0000  178.6080  141.7790 C   0  0  0  0  0  0  0  0  0  0  0  0
  186.0430  178.3100  139.0060 C   0  0  0  0  0  0  0  0  0  0  0  0
  183.5640  178.8100  143.1640 C   0  0  0  0  0  0  0  0  0  0  0  0
  181.1230  178.6780  141.7920 C   0  0  0  0  0  3  0  0  0  0  0  0
  179.8650  178.9080  143.9330 C   0  0  0  0  0  1  0  0  0  0  0  0
  183.5550  178.6490  141.7540 C   0  0  0  0  0  0  0  0  0  0  0  0
  182.3580  178.8900  143.8680 C   0  0  0  0  0  3  0  0  0  0  0  0
  182.3220  178.5920  141.0810 C   0  0  0  0  0  3  0  0  0  0  0  0
  184.8140  178.3900  139.6660 C   0  0  0  0  0  3  0  0  0  0  0  0
  184.7790  178.5450  141.0600 C   0  0  0  0  0  0  0  0  0  0  0  0
  185.9820  178.7730  143.1770 C   0  0  0  0  0  3  0  0  0  0  0  0
  187.2140  178.5030  141.0730 C   0  0  0  0  0  0  0  0  0  0  0  0
  187.2000  178.3790  139.7210 N   0  0  0  0  0  0  0  0  0  0  0  0
  184.7730  178.8710  143.8640 C   0  0  0  0  0  3  0  0  0  0  0  0
  186.1110  178.2370  137.5090 C   0  0  1  0  0  3  0  0  0  0  0  0
  187.4220  178.8000  137.0000 C   0  0  0  0  0  1  0  0  0  0  0  0
  185.9100  176.8160  136.9820 C   0  0  0  0  0  2  0  0  0  0  0  0
  183.9430  175.2110  136.7710 N   0  0  0  0  0  0  0  0  0  0  0  0
  182.5330  175.0210  136.9780 C   0  0  0  0  0  3  0  0  0  0  0  0
  182.8990  172.5850  137.1450 C   0  0  0  0  0  2  0  0  0  0  0  0
  184.4700  176.5440  136.6710 C   0  0  0  0  0  0  0  0  0  0  0  0
  184.8590  174.0630  136.7760 C   0  0  0  0  0  2  0  0  0  0  0  0
  183.7080  177.5090  136.3920 O   0  0  0  0  0  0  0  0  0  0  0  0
  182.0100  173.7960  137.1330 C   0  0  0  0  0  0  0  0  0  0  0  0
  184.1470  172.8060  136.2960 C   0  0  0  0  0  2  0  0  0  0  0  0
  180.5310  173.6000  137.3000 C   0  0  1  0  0  3  0  0  0  0  0  0
  180.1520  172.1240  137.3830 C   0  0  0  0  0  1  0  0  0  0  0  0
  179.9730  174.4020  138.4390 C   0  0  0  0  0  0  0  0  0  0  0  0
  179.3290  174.6230  140.7700 C   0  0  0  0  0  3  0  0  0  0  0  0
  179.0960  176.5060  139.2640 C   0  0  0  0  0  3  0  0  0  0  0  0
  178.9550  175.9510  140.5390 C   0  0  0  0  0  3  0  0  0  0  0  0
  179.6000  175.7320  138.2160 C   0  0  0  0  0  3  0  0  0  0  0  0
  179.8420  173.8520  139.7240 C   0  0  0  0  0  3  0  0  0  0  0  0
  188.5340  178.5760  141.7710 C   0  0  0  0  0  2  0  0  0  0  0  0
  189.0330  177.1810  142.1000 C   0  0  0  0  0  2  0  0  0  0  0  0
  190.9630  176.4340  143.9900 S   0  0  0  0  0  0  0  0  0  0  0  0
  190.7110  176.7230  145.6270 C   0  0  0  0  0  0  0  0  0  0  0  0
  188.8130  177.5870  144.6090 C   0  0  0  0  0  3  0  0  0  0  0  0
  189.5240  177.1450  143.4990 C   0  0  0  0  0  0  0  0  0  0  0  0
  189.4870  177.3460  145.8160 C   0  0  0  0  0  3  0  0  0  0  0  0
  192.3270  175.9400  147.5720 C   0  0  0  0  0  3  0  0  0  0  0  0
  191.5850  176.2990  146.6850 C   0  0  0  0  0  0  0  0  0  0  0  0
  1  8  1  0  0  0  0
  1  6  1  0  0  0  0
  2 12  1  0  0  0  0
  3 10  2  0  0  0  0
  3 14  1  0  0  0  0
  4 15  1  0  0  0  0
  4  8  2  0  0  0  0
  5  1  2  0  0  0  0
  7  4  1  0  0  0  0
  9  7  2  0  0  0  0
  9  5  1  0  0  0  0
 10 11  1  0  0  0  0
 11  7  1  0  0  0  0
 11  2  2  0  0  0  0
 12 15  2  0  0  0  0
 13 35  1  0  0  0  0
 13  2  1  0  0  0  0
 14 13  2  0  0  0  0
 16 17  1  1  0  0  0
 16  3  1  0  0  0  0
 18 16  1  0  0  0  0
 19 23  1  0  0  0  0
 19 20  1  0  0  0  0
 20 25  2  0  0  0  0
 22 19  1  0  0  0  0
 22 18  1  0  0  0  0
 24 22  2  0  0  0  0
 25 21  1  0  0  0  0
 25 27  1  0  0  0  0
 26 23  1  0  0  0  0
 26 21  1  0  0  0  0
 27 28  1  1  0  0  0
 27 29  1  0  0  0  0
 29 34  1  0  0  0  0
 31 32  2  0  0  0  0
 32 30  1  0  0  0  0
 33 29  2  0  0  0  0
 33 31  1  0  0  0  0
 34 30  2  0  0  0  0
 35 36  1  0  0  0  0
 36 40  1  0  0  0  0
 37 38  1  0  0  0  0
 38 41  2  0  0  0  0
 38 43  1  0  0  0  0
 39 41  1  0  0  0  0
 40 37  1  0  0  0  0
 40 39  2  0  0  0  0
 43 42  3  0  0  0  0
M  END
>  <MODEL>
5

>  <REMARK>
 VINA RESULT:      -9.6      3.162      8.350
  Name = 
  9 active torsions:
  status: ('A' for Active; 'I' for Inactive)
    1  A    between atoms: C_1  and  C_34
    2  A    between atoms: C_1  and  C_35
    3  A    between atoms: C_2  and  C_6
    4  A    between atoms: C_2  and  C_13
    5  A    between atoms: C_6  and  C_12
    6  A    between atoms: C_11  and  C_14
    7  A    between atoms: C_14  and  C_22
    8  A    between atoms: C_19  and  C_37
    9  A    between atoms: C_32  and  C_35
                            x       y       z     vdW  Elec       q    Type
                         _______ _______ _______ _____ _____    ______ ____

>  <TORSDO>
F 9

$$$$
=
 OpenBabel11052416113D

 43 48  0  0  1  0  0  0  0  0999 V2000
  192.9580  175.6820  136.2100 C   0  0  0  0  0  0  0  0  0  0  0  0
  189.6590  177.6250  139.5230 C   0  0  0  0  0  0  0  0  0  0  0  0
  187.2190  177.8870  138.1970 C   0  0  0  0  0  0  0  0  0  0  0  0
  191.9040  176.5680  138.2050 C   0  0  0  0  0  0  0  0  0  0  0  0
  191.7490  175.7900  135.5160 C   0  0  0  0  0  3  0  0  0  0  0  0
  194.1580  175.1430  135.5260 C   0  0  0  0  0  1  0  0  0  0  0  0
  190.6780  176.6990  137.5030 C   0  0  0  0  0  0  0  0  0  0  0  0
  193.0340  176.0640  137.5540 C   0  0  0  0  0  3  0  0  0  0  0  0
  190.6160  176.2980  136.1560 C   0  0  0  0  0  3  0  0  0  0  0  0
  188.3210  177.3740  137.5070 C   0  0  0  0  0  3  0  0  0  0  0  0
  189.5530  177.2330  138.1650 C   0  0  0  0  0  0  0  0  0  0  0  0
  190.8860  177.4800  140.2000 C   0  0  0  0  0  3  0  0  0  0  0  0
  188.5270  178.1550  140.1720 C   0  0  0  0  0  0  0  0  0  0  0  0
  187.3500  178.2510  139.5030 N   0  0  0  0  0  0  0  0  0  0  0  0
  192.0000  176.9570  139.5450 C   0  0  0  0  0  3  0  0  0  0  0  0
  185.8690  177.9630  137.5480 C   0  0  1  0  0  3  0  0  0  0  0  0
  185.6870  176.8400  136.5480 C   0  0  0  0  0  1  0  0  0  0  0  0
  184.7280  177.9520  138.5650 C   0  0  0  0  0  2  0  0  0  0  0  0
  182.6400  179.2870  137.9700 N   0  0  0  0  0  0  0  0  0  0  0  0
  181.7280  180.3180  138.3840 C   0  0  0  0  0  3  0  0  0  0  0  0
  179.9660  179.3030  136.9840 C   0  0  0  0  0  2  0  0  0  0  0  0
  183.9580  179.2380  138.5420 C   0  0  0  0  0  0  0  0  0  0  0  0
  182.2000  178.2220  137.0610 C   0  0  0  0  0  2  0  0  0  0  0  0
  184.4500  180.2590  139.0940 O   0  0  0  0  0  0  0  0  0  0  0  0
  180.4720  180.3650  137.9180 C   0  0  0  0  0  0  0  0  0  0  0  0
  181.0970  178.7250  136.1390 C   0  0  0  0  0  2  0  0  0  0  0  0
  179.5380  181.4720  138.3150 C   0  0  1  0  0  3  0  0  0  0  0  0
  179.4370  181.6240  139.8300 C   0  0  0  0  0  1  0  0  0  0  0  0
  179.8610  182.7660  137.6270 C   0  0  0  0  0  0  0  0  0  0  0  0
  179.9040  185.1940  137.5760 C   0  0  0  0  0  3  0  0  0  0  0  0
  180.8000  183.9270  135.7170 C   0  0  0  0  0  3  0  0  0  0  0  0
  180.5110  185.1550  136.3170 C   0  0  0  0  0  3  0  0  0  0  0  0
  180.4730  182.7350  136.3690 C   0  0  0  0  0  3  0  0  0  0  0  0
  179.5840  184.0030  138.2320 C   0  0  0  0  0  3  0  0  0  0  0  0
  188.5720  178.5740  141.6070 C   0  0  0  0  0  2  0  0  0  0  0  0
  187.5670  177.7760  142.4190 C   0  0  0  0  0  2  0  0  0  0  0  0
  187.1210  177.8820  145.1830 S   0  0  0  0  0  0  0  0  0  0  0  0
  188.3860  177.6390  146.2630 C   0  0  0  0  0  0  0  0  0  0  0  0
  189.3740  177.3910  144.1770 C   0  0  0  0  0  3  0  0  0  0  0  0
  188.0550  177.6340  143.8110 C   0  0  0  0  0  0  0  0  0  0  0  0
  189.5620  177.3960  145.5680 C   0  0  0  0  0  3  0  0  0  0  0  0
  188.2110  177.8780  148.8930 C   0  0  0  0  0  3  0  0  0  0  0  0
  188.2910  177.7640  147.6900 C   0  0  0  0  0  0  0  0  0  0  0  0
  1  8  1  0  0  0  0
  2 13  1  0  0  0  0
  2 12  1  0  0  0  0
  3 14  1  0  0  0  0
  4 15  1  0  0  0  0
  5  9  1  0  0  0  0
  5  1  2  0  0  0  0
  6  1  1  0  0  0  0
  7 11  1  0  0  0  0
  7  4  1  0  0  0  0
  8  4  2  0  0  0  0
  9  7  2  0  0  0  0
 10 11  1  0  0  0  0
 10  3  2  0  0  0  0
 11  2  2  0  0  0  0
 13 35  1  0  0  0  0
 14 13  2  0  0  0  0
 15 12  2  0  0  0  0
 16 17  1  6  0  0  0
 16  3  1  0  0  0  0
 16 18  1  0  0  0  0
 19 20  1  0  0  0  0
 19 22  1  0  0  0  0
 21 25  1  0  0  0  0
 22 18  1  0  0  0  0
 22 24  2  0  0  0  0
 23 19  1  0  0  0  0
 25 27  1  0  0  0  0
 25 20  2  0  0  0  0
 26 21  1  0  0  0  0
 26 23  1  0  0  0  0
 27 28  1  1  0  0  0
 29 34  1  0  0  0  0
 29 27  1  0  0  0  0
 30 34  2  0  0  0  0
 31 32  2  0  0  0  0
 31 33  1  0  0  0  0
 32 30  1  0  0  0  0
 33 29  2  0  0  0  0
 35 36  1  0  0  0  0
 36 40  1  0  0  0  0
 37 38  1  0  0  0  0
 38 43  1  0  0  0  0
 39 41  1  0  0  0  0
 40 39  2  0  0  0  0
 40 37  1  0  0  0  0
 41 38  2  0  0  0  0
 43 42  3  0  0  0  0
M  END
>  <MODEL>
6

>  <REMARK>
 VINA RESULT:      -9.5      3.662      9.442
  Name = 
  9 active torsions:
  status: ('A' for Active; 'I' for Inactive)
    1  A    between atoms: C_1  and  C_34
    2  A    between atoms: C_1  and  C_35
    3  A    between atoms: C_2  and  C_6
    4  A    between atoms: C_2  and  C_13
    5  A    between atoms: C_6  and  C_12
    6  A    between atoms: C_11  and  C_14
    7  A    between atoms: C_14  and  C_22
    8  A    between atoms: C_19  and  C_37
    9  A    between atoms: C_32  and  C_35
                            x       y       z     vdW  Elec       q    Type
                         _______ _______ _______ _____ _____    ______ ____

>  <TORSDO>
F 9

$$$$
=
 OpenBabel11052416113D

 43 48  0  0  1  0  0  0  0  0999 V2000
  188.2940  177.5280  144.6010 C   0  0  0  0  0  0  0  0  0  0  0  0
  191.1570  177.0920  140.4470 C   0  0  0  0  0  0  0  0  0  0  0  0
  189.4550  177.3080  138.2490 C   0  0  0  0  0  0  0  0  0  0  0  0
  190.1530  177.2800  143.0650 C   0  0  0  0  0  0  0  0  0  0  0  0
  187.4130  177.6500  143.5230 C   0  0  0  0  0  3  0  0  0  0  0  0
  187.7810  177.6070  145.9890 C   0  0  0  0  0  1  0  0  0  0  0  0
  189.2620  177.3840  141.9650 C   0  0  0  0  0  0  0  0  0  0  0  0
  189.6630  177.3490  144.3730 C   0  0  0  0  0  3  0  0  0  0  0  0
  187.8920  177.5760  142.2120 C   0  0  0  0  0  3  0  0  0  0  0  0
  188.9210  177.3880  139.5380 C   0  0  0  0  0  3  0  0  0  0  0  0
  189.7670  177.2860  140.6520 C   0  0  0  0  0  0  0  0  0  0  0  0
  192.0210  176.9960  141.5550 C   0  0  0  0  0  3  0  0  0  0  0  0
  191.6480  176.9970  139.1300 C   0  0  0  0  0  0  0  0  0  0  0  0
  190.7940  177.1260  138.0820 N   0  0  0  0  0  0  0  0  0  0  0  0
  191.5220  177.0880  142.8540 C   0  0  0  0  0  3  0  0  0  0  0  0
  188.5880  177.5060  137.0400 C   0  0  1  0  0  3  0  0  0  0  0  0
  189.2950  177.0370  135.7860 C   0  0  0  0  0  1  0  0  0  0  0  0
  187.2330  176.8090  137.1700 C   0  0  0  0  0  2  0  0  0  0  0  0
  184.9120  177.3070  138.0970 N   0  0  0  0  0  0  0  0  0  0  0  0
  184.1150  178.1950  138.8990 C   0  0  0  0  0  3  0  0  0  0  0  0
  182.5410  176.3490  139.3560 C   0  0  0  0  0  2  0  0  0  0  0  0
  186.1500  177.7780  137.5390 C   0  0  0  0  0  0  0  0  0  0  0  0
  184.5300  175.8990  137.9390 C   0  0  0  0  0  2  0  0  0  0  0  0
  186.3660  179.0150  137.4230 O   0  0  0  0  0  0  0  0  0  0  0  0
  182.9820  177.7790  139.4840 C   0  0  0  0  0  0  0  0  0  0  0  0
  183.0190  175.7380  138.0430 C   0  0  0  0  0  2  0  0  0  0  0  0
  182.1290  178.7230  140.2800 C   0  0  1  0  0  3  0  0  0  0  0  0
  180.6410  178.5320  139.9970 C   0  0  0  0  0  1  0  0  0  0  0  0
  182.4450  178.6810  141.7460 C   0  0  0  0  0  0  0  0  0  0  0  0
  184.0390  178.6590  143.5780 C   0  0  0  0  0  3  0  0  0  0  0  0
  181.6620  178.6440  144.0400 C   0  0  0  0  0  3  0  0  0  0  0  0
  182.9830  178.6360  144.4950 C   0  0  0  0  0  3  0  0  0  0  0  0
  181.3930  178.6630  142.6690 C   0  0  0  0  0  3  0  0  0  0  0  0
  183.7710  178.6860  142.2080 C   0  0  0  0  0  3  0  0  0  0  0  0
  193.1030  176.8060  138.8490 C   0  0  0  0  0  2  0  0  0  0  0  0
  193.3130  176.4240  137.3950 C   0  0  0  0  0  2  0  0  0  0  0  0
  193.1690  173.8500  136.2960 S   0  0  0  0  0  0  0  0  0  0  0  0
  194.1500  172.6160  136.8790 C   0  0  0  0  0  0  0  0  0  0  0  0
  194.7610  174.4630  138.1450 C   0  0  0  0  0  3  0  0  0  0  0  0
  193.7990  175.0260  137.3140 C   0  0  0  0  0  0  0  0  0  0  0  0
  194.9590  173.0960  137.8990 C   0  0  0  0  0  3  0  0  0  0  0  0
  194.0500  170.0860  136.1080 C   0  0  0  0  0  3  0  0  0  0  0  0
  194.0930  171.2450  136.4570 C   0  0  0  0  0  0  0  0  0  0  0  0
  1  6  1  0  0  0  0
  2 11  1  0  0  0  0
  2 12  1  0  0  0  0
  3 10  1  0  0  0  0
  4  8  2  0  0  0  0
  5  1  2  0  0  0  0
  7  9  2  0  0  0  0
  7  4  1  0  0  0  0
  8  1  1  0  0  0  0
  9  5  1  0  0  0  0
 10 11  2  0  0  0  0
 11  7  1  0  0  0  0
 12 15  2  0  0  0  0
 13  2  2  0  0  0  0
 14  3  2  0  0  0  0
 14 13  1  0  0  0  0
 15  4  1  0  0  0  0
 16 17  1  6  0  0  0
 16 18  1  0  0  0  0
 16  3  1  0  0  0  0
 18 22  1  0  0  0  0
 19 20  1  0  0  0  0
 20 25  2  0  0  0  0
 21 25  1  0  0  0  0
 22 19  1  0  0  0  0
 23 26  1  0  0  0  0
 23 19  1  0  0  0  0
 24 22  2  0  0  0  0
 25 27  1  0  0  0  0
 26 21  1  0  0  0  0
 27 28  1  1  0  0  0
 27 29  1  0  0  0  0
 29 34  2  0  0  0  0
 29 33  1  0  0  0  0
 30 32  2  0  0  0  0
 31 32  1  0  0  0  0
 33 31  2  0  0  0  0
 34 30  1  0  0  0  0
 35 13  1  0  0  0  0
 36 35  1  0  0  0  0
 37 38  1  0  0  0  0
 37 40  1  0  0  0  0
 38 41  2  0  0  0  0
 40 36  1  0  0  0  0
 40 39  2  0  0  0  0
 41 39  1  0  0  0  0
 42 43  3  0  0  0  0
 43 38  1  0  0  0  0
M  END
>  <MODEL>
7

>  <REMARK>
 VINA RESULT:      -9.3      3.152      9.279
  Name = 
  9 active torsions:
  status: ('A' for Active; 'I' for Inactive)
    1  A    between atoms: C_1  and  C_34
    2  A    between atoms: C_1  and  C_35
    3  A    between atoms: C_2  and  C_6
    4  A    between atoms: C_2  and  C_13
    5  A    between atoms: C_6  and  C_12
    6  A    between atoms: C_11  and  C_14
    7  A    between atoms: C_14  and  C_22
    8  A    between atoms: C_19  and  C_37
    9  A    between atoms: C_32  and  C_35
                            x       y       z     vdW  Elec       q    Type
                         _______ _______ _______ _____ _____    ______ ____

>  <TORSDO>
F 9

$$$$
=
 OpenBabel11052416113D

 43 48  0  0  1  0  0  0  0  0999 V2000
  188.3840  177.5010  146.1540 C   0  0  0  0  0  0  0  0  0  0  0  0
  185.7920  178.5770  141.9390 C   0  0  0  0  0  0  0  0  0  0  0  0
  187.5440  178.2590  139.7920 C   0  0  0  0  0  0  0  0  0  0  0  0
  186.6450  178.0950  144.5720 C   0  0  0  0  0  0  0  0  0  0  0  0
  189.2870  177.3220  145.1010 C   0  0  0  0  0  3  0  0  0  0  0  0
  188.8200  177.2680  147.5510 C   0  0  0  0  0  1  0  0  0  0  0  0
  187.5610  177.9350  143.5000 C   0  0  0  0  0  0  0  0  0  0  0  0
  187.0630  177.8800  145.8890 C   0  0  0  0  0  3  0  0  0  0  0  0
  188.8810  177.5400  143.7820 C   0  0  0  0  0  3  0  0  0  0  0  0
  188.0050  178.0290  141.0910 C   0  0  0  0  0  3  0  0  0  0  0  0
  187.1320  178.1800  142.1790 C   0  0  0  0  0  0  0  0  0  0  0  0
  184.9010  178.7240  143.0190 C   0  0  0  0  0  3  0  0  0  0  0  0
  185.3770  178.8170  140.6150 C   0  0  0  0  0  0  0  0  0  0  0  0
  186.2510  178.6340  139.5910 N   0  0  0  0  0  0  0  0  0  0  0  0
  185.3260  178.4870  144.3260 C   0  0  0  0  0  3  0  0  0  0  0  0
  188.4290  178.0160  138.6050 C   0  0  1  0  0  3  0  0  0  0  0  0
  188.1600  179.0320  137.5140 C   0  0  0  0  0  1  0  0  0  0  0  0
  189.9140  178.0180  138.9700 C   0  0  0  0  0  2  0  0  0  0  0  0
  190.9670  176.0480  137.7440 N   0  0  0  0  0  0  0  0  0  0  0  0
  191.9400  174.9910  137.8030 C   0  0  0  0  0  3  0  0  0  0  0  0
  192.0740  174.9950  135.3370 C   0  0  0  0  0  2  0  0  0  0  0  0
  190.4820  176.6310  138.9650 C   0  0  0  0  0  0  0  0  0  0  0  0
  190.5550  176.6110  136.4530 C   0  0  0  0  0  2  0  0  0  0  0  0
  190.5970  176.0090  140.0550 O   0  0  0  0  0  0  0  0  0  0  0  0
  192.4600  174.4590  136.6870 C   0  0  0  0  0  0  0  0  0  0  0  0
  190.6590  175.5640  135.3520 C   0  0  0  0  0  2  0  0  0  0  0  0
  193.4380  173.3220  136.7530 C   0  0  1  0  0  3  0  0  0  0  0  0
  193.4050  172.4610  135.4940 C   0  0  0  0  0  1  0  0  0  0  0  0
  194.8240  173.7800  137.1000 C   0  0  0  0  0  0  0  0  0  0  0  0
  196.8940  174.9150  136.5310 C   0  0  0  0  0  3  0  0  0  0  0  0
  196.6100  173.9460  138.7320 C   0  0  0  0  0  3  0  0  0  0  0  0
  197.3940  174.6410  137.8080 C   0  0  0  0  0  3  0  0  0  0  0  0
  195.3290  173.5130  138.3780 C   0  0  0  0  0  3  0  0  0  0  0  0
  195.6110  174.4900  136.1790 C   0  0  0  0  0  3  0  0  0  0  0  0
  183.9750  179.2240  140.2950 C   0  0  0  0  0  2  0  0  0  0  0  0
  183.5890  178.7400  138.9090 C   0  0  0  0  0  2  0  0  0  0  0  0
  181.3130  177.5230  140.0020 S   0  0  0  0  0  0  0  0  0  0  0  0
  180.9490  175.9210  139.6480 C   0  0  0  0  0  0  0  0  0  0  0  0
  182.8840  176.3350  138.4360 C   0  0  0  0  0  3  0  0  0  0  0  0
  182.6770  177.5770  139.0250 C   0  0  0  0  0  0  0  0  0  0  0  0
  181.9040  175.3950  138.7910 C   0  0  0  0  0  3  0  0  0  0  0  0
  178.9520  174.5480  140.7130 C   0  0  0  0  0  3  0  0  0  0  0  0
  179.8670  175.1720  140.2240 C   0  0  0  0  0  0  0  0  0  0  0  0
  1  6  1  0  0  0  0
  2 11  1  0  0  0  0
  2 12  1  0  0  0  0
  3 10  1  0  0  0  0
  4  8  2  0  0  0  0
  5  1  2  0  0  0  0
  7  9  2  0  0  0  0
  7  4  1  0  0  0  0
  8  1  1  0  0  0  0
  9  5  1  0  0  0  0
 10 11  2  0  0  0  0
 11  7  1  0  0  0  0
 12 15  2  0  0  0  0
 13  2  2  0  0  0  0
 14  3  2  0  0  0  0
 14 13  1  0  0  0  0
 15  4  1  0  0  0  0
 16 17  1  6  0  0  0
 16 18  1  0  0  0  0
 16  3  1  0  0  0  0
 19 20  1  0  0  0  0
 19 22  1  0  0  0  0
 21 26  1  0  0  0  0
 21 25  1  0  0  0  0
 22 18  1  0  0  0  0
 22 24  2  0  0  0  0
 23 19  1  0  0  0  0
 25 27  1  0  0  0  0
 25 20  2  0  0  0  0
 26 23  1  0  0  0  0
 27 28  1  6  0  0  0
 27 29  1  0  0  0  0
 29 33  1  0  0  0  0
 30 32  2  0  0  0  0
 32 31  1  0  0  0  0
 33 31  2  0  0  0  0
 34 30  1  0  0  0  0
 34 29  2  0  0  0  0
 35 13  1  0  0  0  0
 36 40  1  0  0  0  0
 36 35  1  0  0  0  0
 38 37  1  0  0  0  0
 38 43  1  0  0  0  0
 39 41  1  0  0  0  0
 39 40  2  0  0  0  0
 40 37  1  0  0  0  0
 41 38  2  0  0  0  0
 43 42  3  0  0  0  0
M  END
>  <MODEL>
8

>  <REMARK>
 VINA RESULT:      -9.3      2.644      4.604
  Name = 
  9 active torsions:
  status: ('A' for Active; 'I' for Inactive)
    1  A    between atoms: C_1  and  C_34
    2  A    between atoms: C_1  and  C_35
    3  A    between atoms: C_2  and  C_6
    4  A    between atoms: C_2  and  C_13
    5  A    between atoms: C_6  and  C_12
    6  A    between atoms: C_11  and  C_14
    7  A    between atoms: C_14  and  C_22
    8  A    between atoms: C_19  and  C_37
    9  A    between atoms: C_32  and  C_35
                            x       y       z     vdW  Elec       q    Type
                         _______ _______ _______ _____ _____    ______ ____

>  <TORSDO>
F 9

$$$$
=
 OpenBabel11052416113D

 43 48  0  0  1  0  0  0  0  0999 V2000
  188.8840  177.3280  146.7430 C   0  0  0  0  0  0  0  0  0  0  0  0
  184.5510  178.5960  144.4490 C   0  0  0  0  0  0  0  0  0  0  0  0
  185.0230  178.5240  141.7020 C   0  0  0  0  0  0  0  0  0  0  0  0
  186.5910  177.9570  146.2740 C   0  0  0  0  0  0  0  0  0  0  0  0
  189.1540  177.2710  145.3720 C   0  0  0  0  0  3  0  0  0  0  0  0
  189.9520  177.0110  147.7210 C   0  0  0  0  0  1  0  0  0  0  0  0
  186.8620  177.9220  144.8820 C   0  0  0  0  0  0  0  0  0  0  0  0
  187.6030  177.6630  147.1930 C   0  0  0  0  0  3  0  0  0  0  0  0
  188.1510  177.5690  144.4460 C   0  0  0  0  0  3  0  0  0  0  0  0
  186.0640  178.2180  142.5830 C   0  0  0  0  0  3  0  0  0  0  0  0
  185.8380  178.2460  143.9670 C   0  0  0  0  0  0  0  0  0  0  0  0
  184.3060  178.6190  145.8360 C   0  0  0  0  0  3  0  0  0  0  0  0
  183.5380  178.9160  143.5250 C   0  0  0  0  0  0  0  0  0  0  0  0
  183.7960  178.8520  142.1940 N   0  0  0  0  0  0  0  0  0  0  0  0
  185.3190  178.3040  146.7410 C   0  0  0  0  0  3  0  0  0  0  0  0
  185.2110  178.4130  140.2170 C   0  0  1  0  0  3  0  0  0  0  0  0
  184.3060  179.3810  139.4850 C   0  0  0  0  0  1  0  0  0  0  0  0
  186.6640  178.6280  139.7920 C   0  0  0  0  0  2  0  0  0  0  0  0
  188.0520  177.3810  138.0570 N   0  0  0  0  0  0  0  0  0  0  0  0
  188.0260  176.5380  136.8930 C   0  0  0  0  0  3  0  0  0  0  0  0
  190.2630  175.6750  137.4840 C   0  0  0  0  0  2  0  0  0  0  0  0
  186.8970  178.1710  138.3840 C   0  0  0  0  0  0  0  0  0  0  0  0
  189.1990  177.3540  138.9720 C   0  0  0  0  0  2  0  0  0  0  0  0
  186.0310  178.4260  137.5030 O   0  0  0  0  0  0  0  0  0  0  0  0
  189.0610  175.7440  136.5850 C   0  0  0  0  0  0  0  0  0  0  0  0
  190.4750  176.9920  138.2240 C   0  0  0  0  0  2  0  0  0  0  0  0
  189.0500  174.9020  135.3420 C   0  0  1  0  0  3  0  0  0  0  0  0
  190.4570  174.5150  134.8950 C   0  0  0  0  0  1  0  0  0  0  0  0
  188.1380  173.7160  135.4630 C   0  0  0  0  0  0  0  0  0  0  0  0
  187.5550  171.5740  136.4480 C   0  0  0  0  0  3  0  0  0  0  0  0
  186.0930  172.5920  134.8060 C   0  0  0  0  0  3  0  0  0  0  0  0
  186.3880  171.5380  135.6760 C   0  0  0  0  0  3  0  0  0  0  0  0
  186.9680  173.6760  134.6970 C   0  0  0  0  0  3  0  0  0  0  0  0
  188.4250  172.6620  136.3450 C   0  0  0  0  0  3  0  0  0  0  0  0
  182.1590  179.2790  143.9700 C   0  0  0  0  0  2  0  0  0  0  0  0
  181.1260  178.5100  143.1660 C   0  0  0  0  0  2  0  0  0  0  0  0
  180.5470  179.5010  140.6100 S   0  0  0  0  0  0  0  0  0  0  0  0
  179.5210  180.8190  140.4170 C   0  0  0  0  0  0  0  0  0  0  0  0
  179.5620  180.4730  142.7110 C   0  0  0  0  0  3  0  0  0  0  0  0
  180.3910  179.4430  142.2800 C   0  0  0  0  0  0  0  0  0  0  0  0
  179.0700  181.2540  141.6540 C   0  0  0  0  0  3  0  0  0  0  0  0
  178.9910  182.0050  138.1110 C   0  0  0  0  0  3  0  0  0  0  0  0
  179.2310  181.4650  139.1680 C   0  0  0  0  0  0  0  0  0  0  0  0
  1  8  1  0  0  0  0
  1  6  1  0  0  0  0
  2 12  1  0  0  0  0
  3 14  2  0  0  0  0
  3 10  1  0  0  0  0
  4 15  1  0  0  0  0
  4  8  2  0  0  0  0
  5  1  2  0  0  0  0
  7  4  1  0  0  0  0
  9  7  2  0  0  0  0
  9  5  1  0  0  0  0
 10 11  2  0  0  0  0
 11  2  1  0  0  0  0
 11  7  1  0  0  0  0
 12 15  2  0  0  0  0
 13 35  1  0  0  0  0
 13  2  2  0  0  0  0
 14 13  1  0  0  0  0
 16 17  1  6  0  0  0
 16  3  1  0  0  0  0
 18 16  1  0  0  0  0
 19 22  1  0  0  0  0
 19 23  1  0  0  0  0
 20 19  1  0  0  0  0
 21 26  1  0  0  0  0
 22 18  1  0  0  0  0
 24 22  2  0  0  0  0
 25 20  2  0  0  0  0
 25 21  1  0  0  0  0
 26 23  1  0  0  0  0
 27 28  1  1  0  0  0
 27 29  1  0  0  0  0
 27 25  1  0  0  0  0
 29 34  1  0  0  0  0
 31 32  2  0  0  0  0
 32 30  1  0  0  0  0
 33 31  1  0  0  0  0
 33 29  2  0  0  0  0
 34 30  2  0  0  0  0
 36 35  1  0  0  0  0
 37 40  1  0  0  0  0
 38 37  1  0  0  0  0
 38 41  2  0  0  0  0
 40 39  2  0  0  0  0
 40 36  1  0  0  0  0
 41 39  1  0  0  0  0
 42 43  3  0  0  0  0
 43 38  1  0  0  0  0
M  END
>  <MODEL>
9

>  <REMARK>
 VINA RESULT:      -9.2      1.672      2.371
  Name = 
  9 active torsions:
  status: ('A' for Active; 'I' for Inactive)
    1  A    between atoms: C_1  and  C_34
    2  A    between atoms: C_1  and  C_35
    3  A    between atoms: C_2  and  C_6
    4  A    between atoms: C_2  and  C_13
    5  A    between atoms: C_6  and  C_12
    6  A    between atoms: C_11  and  C_14
    7  A    between atoms: C_14  and  C_22
    8  A    between atoms: C_19  and  C_37
    9  A    between atoms: C_32  and  C_35
                            x       y       z     vdW  Elec       q    Type
                         _______ _______ _______ _____ _____    ______ ____

>  <TORSDO>
F 9

$$$$
