=
 OpenBabel11052412293D

 30 33  0  0  1  0  0  0  0  0999 V2000
  184.4600  178.7150  140.2420 N   0  0  0  0  0  0  0  0  0  0  0  0
  184.6790  178.5480  142.5670 C   0  0  0  0  0  0  0  0  0  0  0  0
  183.7420  178.8240  138.9700 C   0  0  2  0  0  3  0  0  0  0  0  0
  184.0830  178.5470  143.8300 C   0  0  0  0  0  3  0  0  0  0  0  0
  186.1470  178.2970  142.4750 C   0  0  0  0  0  1  0  0  0  0  0  0
  181.7530  179.2610  140.4600 C   0  0  0  0  0  0  0  0  0  0  0  0
  182.7130  178.7600  143.9620 C   0  0  0  0  0  3  0  0  0  0  0  0
  183.8940  178.7560  141.4150 C   0  0  0  0  0  0  0  0  0  0  0  0
  182.3770  179.3160  139.1650 N   0  0  0  0  0  0  0  0  0  0  0  0
  181.6710  179.8750  138.0210 C   0  0  0  0  0  1  0  0  0  0  0  0
  181.9300  178.9860  142.8320 C   0  0  0  0  0  3  0  0  0  0  0  0
  182.5040  178.9950  141.5480 C   0  0  0  0  0  0  0  0  0  0  0  0
  183.7700  177.4750  138.2200 C   0  0  1  0  0  0  0  0  0  0  0  0
  183.9070  177.5740  136.7140 C   0  0  0  0  0  2  0  0  0  0  0  0
  185.0810  177.0730  137.5440 C   0  0  1  0  0  3  0  0  0  0  0  0
  182.9300  176.2530  140.1090 O   0  0  0  0  0  1  0  0  0  0  0  0
  182.9690  176.2610  138.7120 C   0  0  1  0  0  3  0  0  0  0  0  0
  181.3180  174.9340  137.3640 C   0  0  0  0  0  2  0  0  0  0  0  0
  180.6020  176.2630  139.1770 O   0  0  0  0  0  0  0  0  0  0  0  0
  181.5510  176.2100  138.1440 C   0  0  1  0  0  3  0  0  0  0  0  0
  179.8930  174.5840  137.6740 C   0  0  0  0  0  2  0  0  0  0  0  0
  179.4560  175.6590  138.6400 C   0  0  0  0  0  2  0  0  0  0  0  0
  186.1580  178.1480  137.5890 C   0  0  0  0  0  2  0  0  0  0  0  0
  187.3110  177.6480  138.3170 N   0  0  0  0  0  2  0  0  0  0  0  0
  188.7190  179.3780  137.6270 O   0  0  0  0  0  0  0  0  0  0  0  0
  188.5770  178.3070  138.2730 C   0  0  0  0  0  0  0  0  0  0  0  0
  189.7360  177.7240  139.0000 C   0  0  0  0  0  1  0  0  0  0  0  0
  180.2830  179.5530  140.5850 C   0  0  0  0  0  2  0  0  0  0  0  0
  180.0890  180.9140  140.8220 O   0  0  0  0  0  0  0  0  0  0  0  0
  178.9720  180.9670  141.6530 C   0  0  0  0  0  1  0  0  0  0  0  0
  1  8  2  0  0  0  0
  2  4  2  0  0  0  0
  3  9  1  0  0  0  0
  3  1  1  1  0  0  0
  4  7  1  0  0  0  0
  5  2  1  0  0  0  0
  6 28  1  0  0  0  0
  6 12  2  0  0  0  0
  8 12  1  0  0  0  0
  8  2  1  0  0  0  0
  9  6  1  0  0  0  0
 10  9  1  0  0  0  0
 11  7  2  0  0  0  0
 12 11  1  0  0  0  0
 13 17  1  1  0  0  0
 13  3  1  0  0  0  0
 14 15  1  0  0  0  0
 14 13  1  0  0  0  0
 15 23  1  1  0  0  0
 15 13  1  0  0  0  0
 17 16  1  1  0  0  0
 18 21  1  0  0  0  0
 18 20  1  0  0  0  0
 20 17  1  1  0  0  0
 20 19  1  0  0  0  0
 21 22  1  0  0  0  0
 22 19  1  0  0  0  0
 23 24  1  0  0  0  0
 25 26  2  0  0  0  0
 26 24  1  0  0  0  0
 26 27  1  0  0  0  0
 28 29  1  0  0  0  0
 29 30  1  0  0  0  0
M  END
>  <MODEL>
1

>  <REMARK>
 VINA RESULT:      -6.0      0.000      0.000
  Name = 
  7 active torsions:
  status: ('A' for Active; 'I' for Inactive)
    1  A    between atoms: C_3  and  O_11
    2  A    between atoms: C_3  and  C_19
    3  A    between atoms: C_4  and  C_13
    4  A    between atoms: N_7  and  C_16
    5  A    between atoms: C_8  and  C_12
    6  A    between atoms: C_8  and  C_13
    7  A    between atoms: C_16  and  C_30
                            x       y       z     vdW  Elec       q    Type
                         _______ _______ _______ _____ _____    ______ ____

>  <TORSDO>
F 7

$$$$
=
 OpenBabel11052412293D

 30 33  0  0  1  0  0  0  0  0999 V2000
  187.5110  177.1350  144.7280 N   0  0  0  0  0  0  0  0  0  0  0  0
  187.0590  178.0670  146.8280 C   0  0  0  0  0  0  0  0  0  0  0  0
  188.3520  176.6120  143.6500 C   0  0  2  0  0  3  0  0  0  0  0  0
  187.5200  178.4910  148.0760 C   0  0  0  0  0  3  0  0  0  0  0  0
  185.6160  178.2660  146.5010 C   0  0  0  0  0  1  0  0  0  0  0  0
  190.1620  176.7050  145.4060 C   0  0  0  0  0  0  0  0  0  0  0  0
  188.8620  178.3400  148.4190 C   0  0  0  0  0  3  0  0  0  0  0  0
  187.9500  177.4900  145.9020 C   0  0  0  0  0  0  0  0  0  0  0  0
  189.6730  176.2190  144.1440 N   0  0  0  0  0  0  0  0  0  0  0  0
  190.4750  175.3140  143.3320 C   0  0  0  0  0  1  0  0  0  0  0  0
  189.7500  177.7530  147.5190 C   0  0  0  0  0  3  0  0  0  0  0  0
  189.3120  177.3150  146.2560 C   0  0  0  0  0  0  0  0  0  0  0  0
  188.4450  177.6340  142.4970 C   0  0  1  0  0  0  0  0  0  0  0  0
  187.5600  177.3440  141.3010 C   0  0  0  0  0  2  0  0  0  0  0  0
  187.2160  178.5030  142.2250 C   0  0  1  0  0  3  0  0  0  0  0  0
  190.3120  178.8960  143.3270 O   0  0  0  0  0  1  0  0  0  0  0  0
  189.7580  178.3570  142.1630 C   0  0  1  0  0  3  0  0  0  0  0  0
  190.4780  177.3430  139.9820 C   0  0  0  0  0  2  0  0  0  0  0  0
  192.0720  177.9710  141.6030 O   0  0  0  0  0  0  0  0  0  0  0  0
  190.7740  177.4560  141.4620 C   0  0  1  0  0  3  0  0  0  0  0  0
  191.8370  177.3010  139.3500 C   0  0  0  0  0  2  0  0  0  0  0  0
  192.7850  177.4450  140.5170 C   0  0  0  0  0  2  0  0  0  0  0  0
  185.9980  178.1330  143.0610 C   0  0  0  0  0  2  0  0  0  0  0  0
  184.8100  178.1680  142.2260 N   0  0  0  0  0  2  0  0  0  0  0  0
  183.4930  179.2280  143.8380 O   0  0  0  0  0  0  0  0  0  0  0  0
  183.5750  178.7150  142.6910 C   0  0  0  0  0  0  0  0  0  0  0  0
  182.3780  178.6820  141.8100 C   0  0  0  0  0  1  0  0  0  0  0  0
  191.6010  176.4770  145.7780 C   0  0  0  0  0  2  0  0  0  0  0  0
  191.7180  175.3030  146.5210 O   0  0  0  0  0  0  0  0  0  0  0  0
  192.5060  175.6590  147.6140 C   0  0  0  0  0  1  0  0  0  0  0  0
  1  8  2  0  0  0  0
  2  4  2  0  0  0  0
  3  9  1  0  0  0  0
  3  1  1  1  0  0  0
  4  7  1  0  0  0  0
  5  2  1  0  0  0  0
  6 28  1  0  0  0  0
  6 12  2  0  0  0  0
  8 12  1  0  0  0  0
  8  2  1  0  0  0  0
  9  6  1  0  0  0  0
 10  9  1  0  0  0  0
 11  7  2  0  0  0  0
 12 11  1  0  0  0  0
 13 17  1  6  0  0  0
 13  3  1  0  0  0  0
 14 15  1  0  0  0  0
 14 13  1  0  0  0  0
 15 13  1  0  0  0  0
 15 23  1  1  0  0  0
 17 16  1  1  0  0  0
 18 20  1  0  0  0  0
 20 19  1  0  0  0  0
 20 17  1  1  0  0  0
 21 18  1  0  0  0  0
 21 22  1  0  0  0  0
 22 19  1  0  0  0  0
 24 26  1  0  0  0  0
 24 23  1  0  0  0  0
 26 25  2  0  0  0  0
 27 26  1  0  0  0  0
 28 29  1  0  0  0  0
 29 30  1  0  0  0  0
M  END
>  <MODEL>
2

>  <REMARK>
 VINA RESULT:      -5.7      4.753      9.061
  Name = 
  7 active torsions:
  status: ('A' for Active; 'I' for Inactive)
    1  A    between atoms: C_3  and  O_11
    2  A    between atoms: C_3  and  C_19
    3  A    between atoms: C_4  and  C_13
    4  A    between atoms: N_7  and  C_16
    5  A    between atoms: C_8  and  C_12
    6  A    between atoms: C_8  and  C_13
    7  A    between atoms: C_16  and  C_30
                            x       y       z     vdW  Elec       q    Type
                         _______ _______ _______ _____ _____    ______ ____

>  <TORSDO>
F 7

$$$$
=
 OpenBabel11052412293D

 30 33  0  0  1  0  0  0  0  0999 V2000
  187.7930  178.5230  140.4340 N   0  0  0  0  0  0  0  0  0  0  0  0
  188.2350  177.3750  138.4420 C   0  0  0  0  0  0  0  0  0  0  0  0
  187.9850  178.8870  141.8390 C   0  0  2  0  0  3  0  0  0  0  0  0
  189.0380  176.4870  137.7230 C   0  0  0  0  0  3  0  0  0  0  0  0
  187.0080  177.9130  137.7840 C   0  0  0  0  0  1  0  0  0  0  0  0
  190.1240  177.5700  141.5890 C   0  0  0  0  0  0  0  0  0  0  0  0
  190.1840  175.9470  138.3030 C   0  0  0  0  0  3  0  0  0  0  0  0
  188.5740  177.7240  139.7640 C   0  0  0  0  0  0  0  0  0  0  0  0
  189.3250  178.5270  142.3070 N   0  0  0  0  0  0  0  0  0  0  0  0
  189.8340  179.1690  143.5110 C   0  0  0  0  0  1  0  0  0  0  0  0
  190.5400  176.3000  139.6030 C   0  0  0  0  0  3  0  0  0  0  0  0
  189.7510  177.1940  140.3490 C   0  0  0  0  0  0  0  0  0  0  0  0
  186.8780  178.2620  142.7130 C   0  0  1  0  0  0  0  0  0  0  0  0
  185.7850  179.2140  143.1550 C   0  0  0  0  0  2  0  0  0  0  0  0
  185.4780  178.1550  142.1060 C   0  0  1  0  0  3  0  0  0  0  0  0
  187.9270  176.1310  143.0690 O   0  0  0  0  0  1  0  0  0  0  0  0
  187.1750  177.1240  143.7020 C   0  0  1  0  0  3  0  0  0  0  0  0
  186.9170  177.7720  146.1140 C   0  0  0  0  0  2  0  0  0  0  0  0
  188.8670  176.6780  145.3620 O   0  0  0  0  0  0  0  0  0  0  0  0
  187.8890  177.6030  144.9660 C   0  0  1  0  0  3  0  0  0  0  0  0
  187.7020  177.3290  147.3110 C   0  0  0  0  0  2  0  0  0  0  0  0
  189.0310  176.8980  146.7370 C   0  0  0  0  0  2  0  0  0  0  0  0
  185.3400  178.8220  140.7450 C   0  0  0  0  0  2  0  0  0  0  0  0
  183.9630  178.7200  140.2930 N   0  0  0  0  0  2  0  0  0  0  0  0
  184.1120  180.5560  138.8570 O   0  0  0  0  0  0  0  0  0  0  0  0
  183.4040  179.6410  139.3560 C   0  0  0  0  0  0  0  0  0  0  0  0
  181.9750  179.5170  138.9650 C   0  0  0  0  0  1  0  0  0  0  0  0
  191.3880  177.0460  142.2120 C   0  0  0  0  0  2  0  0  0  0  0  0
  191.1120  175.8910  142.9420 O   0  0  0  0  0  0  0  0  0  0  0  0
  191.7850  176.0730  144.1490 C   0  0  0  0  0  1  0  0  0  0  0  0
  2  8  1  0  0  0  0
  3  1  1  6  0  0  0
  3  9  1  0  0  0  0
  3 13  1  0  0  0  0
  4  7  1  0  0  0  0
  4  2  2  0  0  0  0
  5  2  1  0  0  0  0
  6 28  1  0  0  0  0
  6  9  1  0  0  0  0
  7 11  2  0  0  0  0
  8 12  1  0  0  0  0
  8  1  2  0  0  0  0
  9 10  1  0  0  0  0
 11 12  1  0  0  0  0
 12  6  2  0  0  0  0
 13 14  1  0  0  0  0
 13 17  1  1  0  0  0
 15 23  1  6  0  0  0
 15 13  1  0  0  0  0
 15 14  1  0  0  0  0
 17 16  1  6  0  0  0
 18 21  1  0  0  0  0
 19 22  1  0  0  0  0
 20 17  1  6  0  0  0
 20 19  1  0  0  0  0
 20 18  1  0  0  0  0
 22 21  1  0  0  0  0
 24 23  1  0  0  0  0
 25 26  2  0  0  0  0
 26 24  1  0  0  0  0
 27 26  1  0  0  0  0
 28 29  1  0  0  0  0
 29 30  1  0  0  0  0
M  END
>  <MODEL>
3

>  <REMARK>
 VINA RESULT:      -5.6      3.508      8.346
  Name = 
  7 active torsions:
  status: ('A' for Active; 'I' for Inactive)
    1  A    between atoms: C_3  and  O_11
    2  A    between atoms: C_3  and  C_19
    3  A    between atoms: C_4  and  C_13
    4  A    between atoms: N_7  and  C_16
    5  A    between atoms: C_8  and  C_12
    6  A    between atoms: C_8  and  C_13
    7  A    between atoms: C_16  and  C_30
                            x       y       z     vdW  Elec       q    Type
                         _______ _______ _______ _____ _____    ______ ____

>  <TORSDO>
F 7

$$$$
=
 OpenBabel11052412293D

 30 33  0  0  1  0  0  0  0  0999 V2000
  187.2570  177.1570  144.3060 N   0  0  0  0  0  0  0  0  0  0  0  0
  186.5890  177.7980  146.4570 C   0  0  0  0  0  0  0  0  0  0  0  0
  188.2070  176.8930  143.2240 C   0  0  2  0  0  3  0  0  0  0  0  0
  186.9340  178.1830  147.7540 C   0  0  0  0  0  3  0  0  0  0  0  0
  185.1430  177.7640  146.0880 C   0  0  0  0  0  1  0  0  0  0  0  0
  189.9240  177.1500  145.0550 C   0  0  0  0  0  0  0  0  0  0  0  0
  188.2710  178.2450  148.1390 C   0  0  0  0  0  3  0  0  0  0  0  0
  187.5940  177.4770  145.5230 C   0  0  0  0  0  0  0  0  0  0  0  0
  189.5640  176.7000  143.7370 N   0  0  0  0  0  0  0  0  0  0  0  0
  190.5380  176.0310  142.8860 C   0  0  0  0  0  1  0  0  0  0  0  0
  189.2740  177.9110  147.2300 C   0  0  0  0  0  3  0  0  0  0  0  0
  188.9550  177.5170  145.9170 C   0  0  0  0  0  0  0  0  0  0  0  0
  188.1410  178.0150  142.1660 C   0  0  1  0  0  0  0  0  0  0  0  0
  189.4770  178.6050  141.7630 C   0  0  0  0  0  2  0  0  0  0  0  0
  188.7250  177.7150  140.7850 C   0  0  1  0  0  3  0  0  0  0  0  0
  187.3810  180.2070  141.5440 O   0  0  0  0  0  1  0  0  0  0  0  0
  186.9610  178.9960  142.1010 C   0  0  1  0  0  3  0  0  0  0  0  0
  184.5960  178.1650  142.2410 C   0  0  0  0  0  2  0  0  0  0  0  0
  185.3430  179.3600  140.3500 O   0  0  0  0  0  0  0  0  0  0  0  0
  185.7670  178.4430  141.3230 C   0  0  1  0  0  3  0  0  0  0  0  0
  183.4020  178.5390  141.4150 C   0  0  0  0  0  2  0  0  0  0  0  0
  183.9970  179.0430  140.1220 C   0  0  0  0  0  2  0  0  0  0  0  0
  189.4300  176.3690  140.6890 C   0  0  0  0  0  2  0  0  0  0  0  0
  189.9820  176.2050  139.3550 N   0  0  0  0  0  2  0  0  0  0  0  0
  192.0410  177.1640  139.8990 O   0  0  0  0  0  0  0  0  0  0  0  0
  191.2980  176.6490  139.0220 C   0  0  0  0  0  0  0  0  0  0  0  0
  191.7940  176.4980  137.6290 C   0  0  0  0  0  1  0  0  0  0  0  0
  191.3710  177.1510  145.4660 C   0  0  0  0  0  2  0  0  0  0  0  0
  191.7760  175.8530  145.7760 O   0  0  0  0  0  0  0  0  0  0  0  0
  192.1930  175.9270  147.1040 C   0  0  0  0  0  1  0  0  0  0  0  0
  1  8  2  0  0  0  0
  2  4  2  0  0  0  0
  3  9  1  0  0  0  0
  3  1  1  1  0  0  0
  4  7  1  0  0  0  0
  5  2  1  0  0  0  0
  6 28  1  0  0  0  0
  6 12  2  0  0  0  0
  8 12  1  0  0  0  0
  8  2  1  0  0  0  0
  9  6  1  0  0  0  0
 10  9  1  0  0  0  0
 11  7  2  0  0  0  0
 12 11  1  0  0  0  0
 13 17  1  1  0  0  0
 13  3  1  0  0  0  0
 14 13  1  0  0  0  0
 15 23  1  1  0  0  0
 15 14  1  0  0  0  0
 15 13  1  0  0  0  0
 17 16  1  6  0  0  0
 19 20  1  0  0  0  0
 20 17  1  1  0  0  0
 20 18  1  0  0  0  0
 21 18  1  0  0  0  0
 22 19  1  0  0  0  0
 22 21  1  0  0  0  0
 24 23  1  0  0  0  0
 26 24  1  0  0  0  0
 26 25  2  0  0  0  0
 27 26  1  0  0  0  0
 28 29  1  0  0  0  0
 29 30  1  0  0  0  0
M  END
>  <MODEL>
4

>  <REMARK>
 VINA RESULT:      -5.4      4.269      7.420
  Name = 
  7 active torsions:
  status: ('A' for Active; 'I' for Inactive)
    1  A    between atoms: C_3  and  O_11
    2  A    between atoms: C_3  and  C_19
    3  A    between atoms: C_4  and  C_13
    4  A    between atoms: N_7  and  C_16
    5  A    between atoms: C_8  and  C_12
    6  A    between atoms: C_8  and  C_13
    7  A    between atoms: C_16  and  C_30
                            x       y       z     vdW  Elec       q    Type
                         _______ _______ _______ _____ _____    ______ ____

>  <TORSDO>
F 7

$$$$
=
 OpenBabel11052412293D

 30 33  0  0  1  0  0  0  0  0999 V2000
  185.4890  178.5440  139.4820 N   0  0  0  0  0  0  0  0  0  0  0  0
  186.2750  178.3910  141.6820 C   0  0  0  0  0  0  0  0  0  0  0  0
  184.4800  178.5900  138.4230 C   0  0  2  0  0  3  0  0  0  0  0  0
  186.0040  178.3320  143.0500 C   0  0  0  0  0  3  0  0  0  0  0  0
  187.6950  178.2770  141.2350 C   0  0  0  0  0  1  0  0  0  0  0  0
  182.8770  178.8380  140.3560 C   0  0  0  0  0  0  0  0  0  0  0  0
  184.6930  178.4170  143.5130 C   0  0  0  0  0  3  0  0  0  0  0  0
  185.2220  178.5290  140.7570 C   0  0  0  0  0  0  0  0  0  0  0  0
  183.1640  178.9540  138.9510 N   0  0  0  0  0  0  0  0  0  0  0  0
  182.1560  179.4480  138.0230 C   0  0  0  0  0  1  0  0  0  0  0  0
  183.6440  178.5740  142.6080 C   0  0  0  0  0  3  0  0  0  0  0  0
  183.8880  178.6390  141.2250 C   0  0  0  0  0  0  0  0  0  0  0  0
  184.4450  177.2510  137.6540 C   0  0  1  0  0  0  0  0  0  0  0  0
  184.3920  177.3720  136.1450 C   0  0  0  0  0  2  0  0  0  0  0  0
  185.6710  176.8900  136.8140 C   0  0  1  0  0  3  0  0  0  0  0  0
  182.4250  176.3290  138.5680 O   0  0  0  0  0  1  0  0  0  0  0  0
  183.7410  176.0110  138.2240 C   0  0  1  0  0  3  0  0  0  0  0  0
  184.6520  173.7110  137.7920 C   0  0  0  0  0  2  0  0  0  0  0  0
  182.4730  174.2940  137.1010 O   0  0  0  0  0  0  0  0  0  0  0  0
  183.7640  174.8190  137.2670 C   0  0  1  0  0  3  0  0  0  0  0  0
  183.9330  172.4590  137.3890 C   0  0  0  0  0  2  0  0  0  0  0  0
  182.6770  172.9610  136.7170 C   0  0  0  0  0  2  0  0  0  0  0  0
  186.7190  177.9920  136.7420 C   0  0  0  0  0  2  0  0  0  0  0  0
  188.0240  177.4410  137.0660 N   0  0  0  0  0  2  0  0  0  0  0  0
  188.8010  179.4040  138.0650 O   0  0  0  0  0  0  0  0  0  0  0  0
  189.0330  178.2170  137.7140 C   0  0  0  0  0  0  0  0  0  0  0  0
  190.3660  177.6150  137.9790 C   0  0  0  0  0  1  0  0  0  0  0  0
  181.4600  178.9930  140.8360 C   0  0  0  0  0  2  0  0  0  0  0  0
  180.8440  177.7440  140.9030 O   0  0  0  0  0  0  0  0  0  0  0  0
  179.5970  178.0000  141.4700 C   0  0  0  0  0  1  0  0  0  0  0  0
  1  8  2  0  0  0  0
  2  4  2  0  0  0  0
  3  9  1  0  0  0  0
  3  1  1  1  0  0  0
  4  7  1  0  0  0  0
  5  2  1  0  0  0  0
  6 28  1  0  0  0  0
  6 12  2  0  0  0  0
  8 12  1  0  0  0  0
  8  2  1  0  0  0  0
  9  6  1  0  0  0  0
 10  9  1  0  0  0  0
 11  7  2  0  0  0  0
 12 11  1  0  0  0  0
 13 17  1  1  0  0  0
 13  3  1  0  0  0  0
 14 15  1  0  0  0  0
 14 13  1  0  0  0  0
 15 23  1  1  0  0  0
 15 13  1  0  0  0  0
 17 16  1  6  0  0  0
 19 20  1  0  0  0  0
 20 18  1  0  0  0  0
 20 17  1  1  0  0  0
 21 18  1  0  0  0  0
 22 19  1  0  0  0  0
 22 21  1  0  0  0  0
 23 24  1  0  0  0  0
 24 26  1  0  0  0  0
 26 27  1  0  0  0  0
 26 25  2  0  0  0  0
 28 29  1  0  0  0  0
 29 30  1  0  0  0  0
M  END
>  <MODEL>
5

>  <REMARK>
 VINA RESULT:      -5.4      1.684      2.128
  Name = 
  7 active torsions:
  status: ('A' for Active; 'I' for Inactive)
    1  A    between atoms: C_3  and  O_11
    2  A    between atoms: C_3  and  C_19
    3  A    between atoms: C_4  and  C_13
    4  A    between atoms: N_7  and  C_16
    5  A    between atoms: C_8  and  C_12
    6  A    between atoms: C_8  and  C_13
    7  A    between atoms: C_16  and  C_30
                            x       y       z     vdW  Elec       q    Type
                         _______ _______ _______ _____ _____    ______ ____

>  <TORSDO>
F 7

$$$$
=
 OpenBabel11052412293D

 30 33  0  0  1  0  0  0  0  0999 V2000
  183.8770  178.9590  140.5750 N   0  0  0  0  0  0  0  0  0  0  0  0
  185.7470  178.5750  141.9310 C   0  0  0  0  0  0  0  0  0  0  0  0
  182.4510  179.0790  140.2660 C   0  0  2  0  0  3  0  0  0  0  0  0
  186.2780  178.3260  143.1980 C   0  0  0  0  0  3  0  0  0  0  0  0
  186.6780  178.6030  140.7650 C   0  0  0  0  0  1  0  0  0  0  0  0
  182.1930  178.9830  142.7750 C   0  0  0  0  0  0  0  0  0  0  0  0
  185.4440  178.2730  144.3130 C   0  0  0  0  0  3  0  0  0  0  0  0
  184.3600  178.7660  141.7700 C   0  0  0  0  0  0  0  0  0  0  0  0
  181.6560  179.2930  141.4770 N   0  0  0  0  0  0  0  0  0  0  0  0
  180.3140  179.8410  141.3370 C   0  0  0  0  0  1  0  0  0  0  0  0
  184.0740  178.4800  144.1690 C   0  0  0  0  0  3  0  0  0  0  0  0
  183.5120  178.7360  142.9050 C   0  0  0  0  0  0  0  0  0  0  0  0
  181.9690  177.8490  139.4670 C   0  0  1  0  0  0  0  0  0  0  0  0
  180.4730  177.6090  139.4880 C   0  0  0  0  0  2  0  0  0  0  0  0
  181.1350  178.1090  138.2120 C   0  0  1  0  0  3  0  0  0  0  0  0
  182.0870  175.4720  139.7890 O   0  0  0  0  0  1  0  0  0  0  0  0
  182.8210  176.5770  139.3500 C   0  0  1  0  0  3  0  0  0  0  0  0
  184.5020  177.2540  137.6110 C   0  0  0  0  0  2  0  0  0  0  0  0
  183.7870  175.0130  137.7880 O   0  0  0  0  0  0  0  0  0  0  0  0
  183.3420  176.3360  137.9330 C   0  0  1  0  0  3  0  0  0  0  0  0
  185.4080  176.4010  136.7760 C   0  0  0  0  0  2  0  0  0  0  0  0
  184.7130  175.0610  136.7370 C   0  0  0  0  0  2  0  0  0  0  0  0
  180.7720  179.5730  138.0000 C   0  0  0  0  0  2  0  0  0  0  0  0
  180.7590  179.8670  136.5780 N   0  0  0  0  0  2  0  0  0  0  0  0
  180.9020  182.1790  136.8750 O   0  0  0  0  0  0  0  0  0  0  0  0
  180.8040  181.2060  136.0830 C   0  0  0  0  0  0  0  0  0  0  0  0
  180.7400  181.4500  134.6170 C   0  0  0  0  0  1  0  0  0  0  0  0
  181.2830  178.9910  143.9730 C   0  0  0  0  0  2  0  0  0  0  0  0
  180.2710  178.0460  143.8030 O   0  0  0  0  0  0  0  0  0  0  0  0
  179.1550  178.6210  144.4080 C   0  0  0  0  0  1  0  0  0  0  0  0
  1  8  2  0  0  0  0
  2  4  2  0  0  0  0
  3  1  1  1  0  0  0
  3  9  1  0  0  0  0
  4  7  1  0  0  0  0
  5  2  1  0  0  0  0
  6 12  2  0  0  0  0
  6 28  1  0  0  0  0
  8  2  1  0  0  0  0
  8 12  1  0  0  0  0
  9  6  1  0  0  0  0
 10  9  1  0  0  0  0
 11  7  2  0  0  0  0
 12 11  1  0  0  0  0
 13 17  1  6  0  0  0
 13 14  1  0  0  0  0
 13  3  1  0  0  0  0
 15 23  1  1  0  0  0
 15 13  1  0  0  0  0
 15 14  1  0  0  0  0
 17 16  1  6  0  0  0
 18 20  1  0  0  0  0
 19 20  1  0  0  0  0
 20 17  1  1  0  0  0
 21 18  1  0  0  0  0
 22 21  1  0  0  0  0
 22 19  1  0  0  0  0
 24 23  1  0  0  0  0
 26 24  1  0  0  0  0
 26 25  2  0  0  0  0
 27 26  1  0  0  0  0
 29 28  1  0  0  0  0
 29 30  1  0  0  0  0
M  END
>  <MODEL>
6

>  <REMARK>
 VINA RESULT:      -5.1      2.311      4.399
  Name = 
  7 active torsions:
  status: ('A' for Active; 'I' for Inactive)
    1  A    between atoms: C_3  and  O_11
    2  A    between atoms: C_3  and  C_19
    3  A    between atoms: C_4  and  C_13
    4  A    between atoms: N_7  and  C_16
    5  A    between atoms: C_8  and  C_12
    6  A    between atoms: C_8  and  C_13
    7  A    between atoms: C_16  and  C_30
                            x       y       z     vdW  Elec       q    Type
                         _______ _______ _______ _____ _____    ______ ____

>  <TORSDO>
F 7

$$$$
=
 OpenBabel11052412293D

 30 33  0  0  1  0  0  0  0  0999 V2000
  185.0980  178.9690  140.8270 N   0  0  0  0  0  0  0  0  0  0  0  0
  187.3220  178.2830  141.0880 C   0  0  0  0  0  0  0  0  0  0  0  0
  183.6980  179.1430  141.2170 C   0  0  2  0  0  3  0  0  0  0  0  0
  188.3190  177.7310  141.8950 C   0  0  0  0  0  3  0  0  0  0  0  0
  187.6580  178.6170  139.6730 C   0  0  0  0  0  1  0  0  0  0  0  0
  184.5370  178.4150  143.4830 C   0  0  0  0  0  0  0  0  0  0  0  0
  188.0460  177.3880  143.2170 C   0  0  0  0  0  3  0  0  0  0  0  0
  186.0270  178.4890  141.6050 C   0  0  0  0  0  0  0  0  0  0  0  0
  183.5270  179.0350  142.6670 N   0  0  0  0  0  0  0  0  0  0  0  0
  182.3170  179.5810  143.2650 C   0  0  0  0  0  1  0  0  0  0  0  0
  186.7740  177.6060  143.7450 C   0  0  0  0  0  3  0  0  0  0  0  0
  185.7520  178.1630  142.9560 C   0  0  0  0  0  0  0  0  0  0  0  0
  182.8000  178.1470  140.4520 C   0  0  1  0  0  0  0  0  0  0  0  0
  181.4770  177.8240  141.1170 C   0  0  0  0  0  2  0  0  0  0  0  0
  181.4950  178.6850  139.8630 C   0  0  1  0  0  3  0  0  0  0  0  0
  182.6720  175.8290  139.8380 O   0  0  0  0  0  1  0  0  0  0  0  0
  183.3920  177.0050  139.6130 C   0  0  1  0  0  3  0  0  0  0  0  0
  184.8500  177.5870  137.6540 C   0  0  0  0  0  2  0  0  0  0  0  0
  182.9310  176.2450  137.3710 O   0  0  0  0  0  0  0  0  0  0  0  0
  183.4340  177.3210  138.1190 C   0  0  1  0  0  3  0  0  0  0  0  0
  184.8920  176.9840  136.2820 C   0  0  0  0  0  2  0  0  0  0  0  0
  183.5180  176.3840  136.1060 C   0  0  0  0  0  2  0  0  0  0  0  0
  181.1920  180.1280  140.2420 C   0  0  0  0  0  2  0  0  0  0  0  0
  180.7010  180.8430  139.0760 N   0  0  0  0  0  2  0  0  0  0  0  0
  182.7050  181.9860  138.7120 O   0  0  0  0  0  0  0  0  0  0  0  0
  181.5110  181.7810  138.3670 C   0  0  0  0  0  0  0  0  0  0  0  0
  180.9400  182.5180  137.2090 C   0  0  0  0  0  1  0  0  0  0  0  0
  184.2360  178.1090  144.9240 C   0  0  0  0  0  2  0  0  0  0  0  0
  184.6190  179.1840  145.7260 O   0  0  0  0  0  0  0  0  0  0  0  0
  185.2540  178.5960  146.8180 C   0  0  0  0  0  1  0  0  0  0  0  0
  1  8  2  0  0  0  0
  2  8  1  0  0  0  0
  2  4  2  0  0  0  0
  3  1  1  1  0  0  0
  3  9  1  0  0  0  0
  4  7  1  0  0  0  0
  5  2  1  0  0  0  0
  6 28  1  0  0  0  0
  7 11  2  0  0  0  0
  8 12  1  0  0  0  0
  9 10  1  0  0  0  0
  9  6  1  0  0  0  0
 12  6  2  0  0  0  0
 12 11  1  0  0  0  0
 13 17  1  6  0  0  0
 13 14  1  0  0  0  0
 13  3  1  0  0  0  0
 15 23  1  1  0  0  0
 15 13  1  0  0  0  0
 15 14  1  0  0  0  0
 17 16  1  6  0  0  0
 18 20  1  0  0  0  0
 19 20  1  0  0  0  0
 20 17  1  1  0  0  0
 21 18  1  0  0  0  0
 22 21  1  0  0  0  0
 22 19  1  0  0  0  0
 24 23  1  0  0  0  0
 26 25  2  0  0  0  0
 26 24  1  0  0  0  0
 27 26  1  0  0  0  0
 28 29  1  0  0  0  0
 29 30  1  0  0  0  0
M  END
>  <MODEL>
7

>  <REMARK>
 VINA RESULT:      -5.0      2.330      5.103
  Name = 
  7 active torsions:
  status: ('A' for Active; 'I' for Inactive)
    1  A    between atoms: C_3  and  O_11
    2  A    between atoms: C_3  and  C_19
    3  A    between atoms: C_4  and  C_13
    4  A    between atoms: N_7  and  C_16
    5  A    between atoms: C_8  and  C_12
    6  A    between atoms: C_8  and  C_13
    7  A    between atoms: C_16  and  C_30
                            x       y       z     vdW  Elec       q    Type
                         _______ _______ _______ _____ _____    ______ ____

>  <TORSDO>
F 7

$$$$
=
 OpenBabel11052412293D

 30 33  0  0  1  0  0  0  0  0999 V2000
  181.5990  178.2850  141.0020 N   0  0  0  0  0  0  0  0  0  0  0  0
  182.3460  178.9860  143.1070 C   0  0  0  0  0  0  0  0  0  0  0  0
  181.7200  177.9670  139.5780 C   0  0  2  0  0  3  0  0  0  0  0  0
  183.3990  179.3780  143.9370 C   0  0  0  0  0  3  0  0  0  0  0  0
  180.9610  179.0030  143.6640 C   0  0  0  0  0  1  0  0  0  0  0  0
  184.1930  178.1850  140.0320 C   0  0  0  0  0  0  0  0  0  0  0  0
  184.7060  179.3930  143.4550 C   0  0  0  0  0  3  0  0  0  0  0  0
  182.5980  178.6110  141.7730 C   0  0  0  0  0  0  0  0  0  0  0  0
  183.1130  177.7290  139.1970 N   0  0  0  0  0  0  0  0  0  0  0  0
  183.3810  177.0100  137.9600 C   0  0  0  0  0  1  0  0  0  0  0  0
  184.9700  179.0060  142.1420 C   0  0  0  0  0  3  0  0  0  0  0  0
  183.9290  178.6040  141.2860 C   0  0  0  0  0  0  0  0  0  0  0  0
  181.0660  179.0740  138.7220 C   0  0  1  0  0  0  0  0  0  0  0  0
  180.9170  178.7520  137.2500 C   0  0  0  0  0  2  0  0  0  0  0  0
  179.6830  178.7870  138.1390 C   0  0  1  0  0  3  0  0  0  0  0  0
  182.6150  180.9050  138.8570 O   0  0  0  0  0  1  0  0  0  0  0  0
  181.2720  180.5640  139.0350 C   0  0  1  0  0  3  0  0  0  0  0  0
  179.3970  182.2340  139.0680 C   0  0  0  0  0  2  0  0  0  0  0  0
  181.1510  182.4210  137.5020 O   0  0  0  0  0  0  0  0  0  0  0  0
  180.3790  181.4790  138.1980 C   0  0  1  0  0  3  0  0  0  0  0  0
  179.3060  183.5790  138.4140 C   0  0  0  0  0  2  0  0  0  0  0  0
  180.2780  183.4910  137.2610 C   0  0  0  0  0  2  0  0  0  0  0  0
  179.1930  177.3650  138.3730 C   0  0  0  0  0  2  0  0  0  0  0  0
  179.4230  176.5700  137.1790 N   0  0  0  0  0  2  0  0  0  0  0  0
  180.4670  174.8250  138.3290 O   0  0  0  0  0  0  0  0  0  0  0  0
  180.0910  175.3090  137.2280 C   0  0  0  0  0  0  0  0  0  0  0  0
  180.3420  174.5600  135.9680 C   0  0  0  0  0  1  0  0  0  0  0  0
  185.6020  178.1370  139.5100 C   0  0  0  0  0  2  0  0  0  0  0  0
  185.7340  179.0030  138.4250 O   0  0  0  0  0  0  0  0  0  0  0  0
  186.6600  178.3770  137.5920 C   0  0  0  0  0  1  0  0  0  0  0  0
  1  8  2  0  0  0  0
  2  5  1  0  0  0  0
  2  4  2  0  0  0  0
  3  1  1  1  0  0  0
  6 12  2  0  0  0  0
  7  4  1  0  0  0  0
  8  2  1  0  0  0  0
  9  3  1  0  0  0  0
  9  6  1  0  0  0  0
 10  9  1  0  0  0  0
 11  7  2  0  0  0  0
 12  8  1  0  0  0  0
 12 11  1  0  0  0  0
 13 17  1  1  0  0  0
 13  3  1  0  0  0  0
 14 15  1  0  0  0  0
 14 13  1  0  0  0  0
 15 23  1  1  0  0  0
 15 13  1  0  0  0  0
 17 16  1  6  0  0  0
 19 20  1  0  0  0  0
 20 17  1  1  0  0  0
 20 18  1  0  0  0  0
 21 18  1  0  0  0  0
 22 19  1  0  0  0  0
 22 21  1  0  0  0  0
 24 26  1  0  0  0  0
 24 23  1  0  0  0  0
 26 25  2  0  0  0  0
 27 26  1  0  0  0  0
 28  6  1  0  0  0  0
 29 28  1  0  0  0  0
 30 29  1  0  0  0  0
M  END
>  <MODEL>
8

>  <REMARK>
 VINA RESULT:      -5.0      2.179      5.808
  Name = 
  7 active torsions:
  status: ('A' for Active; 'I' for Inactive)
    1  A    between atoms: C_3  and  O_11
    2  A    between atoms: C_3  and  C_19
    3  A    between atoms: C_4  and  C_13
    4  A    between atoms: N_7  and  C_16
    5  A    between atoms: C_8  and  C_12
    6  A    between atoms: C_8  and  C_13
    7  A    between atoms: C_16  and  C_30
                            x       y       z     vdW  Elec       q    Type
                         _______ _______ _______ _____ _____    ______ ____

>  <TORSDO>
F 7

$$$$
=
 OpenBabel11052412293D

 30 33  0  0  1  0  0  0  0  0999 V2000
  187.2620  175.4340  136.7590 N   0  0  0  0  0  0  0  0  0  0  0  0
  186.7970  173.1410  136.8340 C   0  0  0  0  0  0  0  0  0  0  0  0
  188.0750  176.6270  136.5110 C   0  0  2  0  0  3  0  0  0  0  0  0
  187.1900  171.8280  136.5630 C   0  0  0  0  0  3  0  0  0  0  0  0
  185.5030  173.3610  137.5440 C   0  0  0  0  0  1  0  0  0  0  0  0
  189.6160  174.9880  135.3670 C   0  0  0  0  0  0  0  0  0  0  0  0
  188.3980  171.5740  135.9170 C   0  0  0  0  0  3  0  0  0  0  0  0
  187.6260  174.2180  136.4640 C   0  0  0  0  0  0  0  0  0  0  0  0
  189.1830  176.3400  135.5990 N   0  0  0  0  0  0  0  0  0  0  0  0
  189.8300  177.4550  134.9210 C   0  0  0  0  0  1  0  0  0  0  0  0
  189.2170  172.6330  135.5280 C   0  0  0  0  0  3  0  0  0  0  0  0
  188.8450  173.9640  135.7860 C   0  0  0  0  0  0  0  0  0  0  0  0
  188.5640  177.2310  137.8450 C   0  0  1  0  0  0  0  0  0  0  0  0
  188.9040  178.7070  137.8020 C   0  0  0  0  0  2  0  0  0  0  0  0
  187.6520  178.2470  138.5330 C   0  0  1  0  0  3  0  0  0  0  0  0
  190.4380  175.7690  138.1860 O   0  0  0  0  0  1  0  0  0  0  0  0
  189.3890  176.4120  138.8480 C   0  0  1  0  0  3  0  0  0  0  0  0
  189.4170  176.7490  141.3360 C   0  0  0  0  0  2  0  0  0  0  0  0
  191.3320  177.2040  140.0370 O   0  0  0  0  0  0  0  0  0  0  0  0
  189.9310  177.2530  140.0040 C   0  0  1  0  0  3  0  0  0  0  0  0
  190.5810  176.9430  142.2610 C   0  0  0  0  0  2  0  0  0  0  0  0
  191.6690  177.4900  141.3680 C   0  0  0  0  0  2  0  0  0  0  0  0
  186.4250  178.6320  137.7180 C   0  0  0  0  0  2  0  0  0  0  0  0
  185.2370  178.0680  138.3350 N   0  0  0  0  0  2  0  0  0  0  0  0
  184.5780  180.0800  139.3210 O   0  0  0  0  0  0  0  0  0  0  0  0
  184.3630  178.8510  139.1480 C   0  0  0  0  0  0  0  0  0  0  0  0
  183.1870  178.2100  139.7930 C   0  0  0  0  0  1  0  0  0  0  0  0
  190.8950  174.7390  134.6150 C   0  0  0  0  0  2  0  0  0  0  0  0
  191.9670  174.7040  135.5050 O   0  0  0  0  0  0  0  0  0  0  0  0
  192.9970  175.3620  134.8350 C   0  0  0  0  0  1  0  0  0  0  0  0
  2  5  1  0  0  0  0
  3  1  1  1  0  0  0
  3 13  1  0  0  0  0
  4  2  2  0  0  0  0
  6  9  1  0  0  0  0
  6 12  2  0  0  0  0
  7  4  1  0  0  0  0
  8  1  2  0  0  0  0
  8  2  1  0  0  0  0
  9  3  1  0  0  0  0
 10  9  1  0  0  0  0
 11 12  1  0  0  0  0
 11  7  2  0  0  0  0
 12  8  1  0  0  0  0
 13 15  1  0  0  0  0
 13 17  1  1  0  0  0
 14 13  1  0  0  0  0
 14 15  1  0  0  0  0
 15 23  1  6  0  0  0
 17 16  1  6  0  0  0
 18 21  1  0  0  0  0
 19 22  1  0  0  0  0
 20 17  1  6  0  0  0
 20 19  1  0  0  0  0
 20 18  1  0  0  0  0
 22 21  1  0  0  0  0
 23 24  1  0  0  0  0
 24 26  1  0  0  0  0
 26 25  2  0  0  0  0
 26 27  1  0  0  0  0
 28  6  1  0  0  0  0
 28 29  1  0  0  0  0
 30 29  1  0  0  0  0
M  END
>  <MODEL>
9

>  <REMARK>
 VINA RESULT:      -5.0      3.834      9.079
  Name = 
  7 active torsions:
  status: ('A' for Active; 'I' for Inactive)
    1  A    between atoms: C_3  and  O_11
    2  A    between atoms: C_3  and  C_19
    3  A    between atoms: C_4  and  C_13
    4  A    between atoms: N_7  and  C_16
    5  A    between atoms: C_8  and  C_12
    6  A    between atoms: C_8  and  C_13
    7  A    between atoms: C_16  and  C_30
                            x       y       z     vdW  Elec       q    Type
                         _______ _______ _______ _____ _____    ______ ____

>  <TORSDO>
F 7

$$$$
