=
 OpenBabel11052416453D

 32 38  0  0  1  0  0  0  0  0999 V2000
  190.0440  177.2440  145.5560 C   0  0  0  0  0  0  0  0  0  0  0  0
  185.8450  178.1960  143.1280 C   0  0  0  0  0  0  0  0  0  0  0  0
  187.3190  178.2710  138.4630 C   0  0  0  0  0  3  0  0  0  0  0  0
  186.0160  178.5380  138.0510 C   0  0  0  0  0  3  0  0  0  0  0  0
  183.4000  178.6220  143.7190 C   0  0  0  0  0  0  0  0  0  0  0  0
  182.1740  178.8640  143.2610 C   0  0  0  0  0  0  0  0  0  0  0  0
  187.4110  177.7700  144.9630 C   0  0  0  0  0  0  0  0  0  0  0  0
  188.1410  177.8160  142.5590 C   0  0  0  0  0  3  0  0  0  0  0  0
  180.5240  179.3050  141.6880 C   0  0  2  0  0  3  0  0  0  0  0  0
  189.8800  177.3810  144.2710 C   0  0  0  0  0  3  0  0  0  0  0  0
  187.6030  178.1200  139.8200 C   0  0  0  0  0  3  0  0  0  0  0  0
  186.8790  178.0770  142.1650 C   0  0  0  0  0  0  0  0  0  0  0  0
  186.5890  178.2320  140.7920 C   0  0  0  0  0  0  0  0  0  0  0  0
  184.2280  178.6190  141.3270 C   0  0  0  0  0  0  0  0  0  0  0  0
  179.9300  179.3660  143.1170 C   0  0  0  0  0  3  0  0  0  0  0  0
  188.9520  177.3600  146.6180 C   0  0  0  0  0  0  0  0  0  0  0  0
  188.4820  177.6500  143.9380 N   0  0  0  0  0  0  0  0  0  0  0  0
  181.0250  179.0830  144.0480 N   0  0  0  0  0  0  0  0  0  0  0  0
  187.6800  177.6020  146.4450 C   0  0  0  0  0  3  0  0  0  0  0  0
  190.0550  176.4870  146.7550 C   0  0  2  0  0  3  0  0  0  0  0  0
  184.9980  178.6520  138.9970 C   0  0  0  0  0  3  0  0  0  0  0  0
  185.2620  178.5030  140.3740 C   0  0  0  0  0  0  0  0  0  0  0  0
  182.9650  178.8700  140.9230 C   0  0  0  0  0  3  0  0  0  0  0  0
  186.1690  178.0270  144.5650 C   0  0  0  0  0  3  0  0  0  0  0  0
  183.5990  178.5470  145.0590 F   0  0  0  0  0  0  0  0  0  0  0  0
  179.8350  178.2050  140.9030 C   0  0  0  0  0  1  0  0  0  0  0  0
  184.5160  178.4700  142.7200 C   0  0  0  0  0  0  0  0  0  0  0  0
  181.9210  178.9700  141.8900 N   0  0  0  0  0  0  0  0  0  0  0  0
  191.0600  177.0910  147.7170 C   0  0  0  0  0  2  0  0  0  0  0  0
  192.2580  176.2130  147.8240 C   0  0  0  0  0  0  0  0  0  0  0  0
  193.1650  176.3980  148.8590 O   0  0  0  0  0  1  0  0  0  0  0  0
  192.4320  175.2820  146.9960 O   0  0  0  0  0  0  0  0  0  0  0  0
  1 16  1  0  0  0  0
  1 20  1  0  0  0  0
  2 24  1  0  0  0  0
  3 11  1  0  0  0  0
  4  3  2  0  0  0  0
  4 21  1  0  0  0  0
  5 25  1  0  0  0  0
  6  5  2  0  0  0  0
  6 18  1  0  0  0  0
  7 19  1  0  0  0  0
  8 17  1  0  0  0  0
  9 26  1  6  0  0  0
  9 28  1  0  0  0  0
  9 15  1  0  0  0  0
 10  1  2  3  0  0  0
 11 13  2  0  0  0  0
 12  8  2  0  0  0  0
 12  2  1  0  0  0  0
 13 12  1  0  0  0  0
 14 27  1  0  0  0  0
 15 18  2  0  0  0  0
 16 20  1  0  0  0  0
 17 10  1  0  0  0  0
 17  7  1  0  0  0  0
 19 16  2  0  0  0  0
 20 29  1  1  0  0  0
 21 22  2  0  0  0  0
 22 13  1  0  0  0  0
 22 14  1  0  0  0  0
 23 14  2  0  0  0  0
 23 28  1  0  0  0  0
 24  7  2  0  0  0  0
 27  2  2  0  0  0  0
 27  5  1  0  0  0  0
 28  6  1  0  0  0  0
 29 30  1  0  0  0  0
 30 31  1  0  0  0  0
 32 30  2  0  0  0  0
M  END
>  <MODEL>
1

>  <REMARK>
 VINA RESULT:     -10.8      0.000      0.000
  Name = 
  2 active torsions:
  status: ('A' for Active; 'I' for Inactive)
    1  A    between atoms: C_1  and  C_10
    2  A    between atoms: C_10  and  C_24
                            x       y       z     vdW  Elec       q    Type
                         _______ _______ _______ _____ _____    ______ ____

>  <TORSDO>
F 2

$$$$
=
 OpenBabel11052416453D

 32 38  0  0  1  0  0  0  0  0999 V2000
  182.8840  178.9080  144.5560 C   0  0  0  0  0  0  0  0  0  0  0  0
  187.2030  177.9290  142.3600 C   0  0  0  0  0  0  0  0  0  0  0  0
  190.1650  177.1280  146.1710 C   0  0  0  0  0  3  0  0  0  0  0  0
  191.2270  176.8920  145.3020 C   0  0  0  0  0  3  0  0  0  0  0  0
  188.0990  177.7930  139.9740 C   0  0  0  0  0  0  0  0  0  0  0  0
  189.1500  177.5440  139.1970 C   0  0  0  0  0  0  0  0  0  0  0  0
  184.8380  178.4840  142.6670 C   0  0  0  0  0  0  0  0  0  0  0  0
  186.3810  178.0700  144.6060 C   0  0  0  0  0  3  0  0  0  0  0  0
  191.3570  177.0500  138.6730 C   0  0  2  0  0  3  0  0  0  0  0  0
  184.0240  178.6330  145.1250 C   0  0  0  0  0  3  0  0  0  0  0  0
  188.9060  177.4430  145.6620 C   0  0  0  0  0  3  0  0  0  0  0  0
  187.4070  177.8450  143.7610 C   0  0  0  0  0  0  0  0  0  0  0  0
  188.6830  177.5280  144.2730 C   0  0  0  0  0  0  0  0  0  0  0  0
  189.5660  177.3650  141.9930 C   0  0  0  0  0  0  0  0  0  0  0  0
  190.5520  177.3320  137.3810 C   0  0  0  0  0  3  0  0  0  0  0  0
  182.6310  178.9990  143.0520 C   0  0  0  0  0  0  0  0  0  0  0  0
  185.0710  178.3940  144.1330 N   0  0  0  0  0  0  0  0  0  0  0  0
  189.1790  177.6380  137.7900 N   0  0  0  0  0  0  0  0  0  0  0  0
  183.4810  178.8150  142.0780 C   0  0  0  0  0  3  0  0  0  0  0  0
  181.6490  178.5460  143.9620 C   0  0  2  0  0  3  0  0  0  0  0  0
  191.0280  176.9700  143.9240 C   0  0  0  0  0  3  0  0  0  0  0  0
  189.7630  177.2870  143.3880 C   0  0  0  0  0  0  0  0  0  0  0  0
  190.5960  177.1280  141.1530 C   0  0  0  0  0  3  0  0  0  0  0  0
  185.8550  178.2610  141.8410 C   0  0  0  0  0  3  0  0  0  0  0  0
  186.9240  178.1500  139.3990 F   0  0  0  0  0  0  0  0  0  0  0  0
  191.8850  175.6280  138.6370 C   0  0  0  0  0  1  0  0  0  0  0  0
  188.2780  177.6940  141.4670 C   0  0  0  0  0  0  0  0  0  0  0  0
  190.3870  177.1920  139.7430 N   0  0  0  0  0  0  0  0  0  0  0  0
  180.6370  179.6490  144.2030 C   0  0  0  0  0  2  0  0  0  0  0  0
  179.6910  179.7360  143.0570 C   0  0  0  0  0  0  0  0  0  0  0  0
  179.6720  180.8700  142.2550 O   0  0  0  0  0  0  0  0  0  0  0  0
  178.9310  178.7690  142.7940 O   0  0  0  0  0  1  0  0  0  0  0  0
  1 10  2  3  0  0  0
  2 12  1  0  0  0  0
  4  3  2  0  0  0  0
  5 27  1  0  0  0  0
  6 28  1  0  0  0  0
  6  5  2  0  0  0  0
  7 17  1  0  0  0  0
  9 26  1  6  0  0  0
  9 28  1  0  0  0  0
 11  3  1  0  0  0  0
 12 13  1  0  0  0  0
 12  8  2  0  0  0  0
 13 11  2  0  0  0  0
 14 22  1  0  0  0  0
 15 18  2  0  0  0  0
 15  9  1  0  0  0  0
 16 20  1  0  0  0  0
 16  1  1  0  0  0  0
 17  8  1  0  0  0  0
 17 10  1  0  0  0  0
 18  6  1  0  0  0  0
 19  7  1  0  0  0  0
 19 16  2  0  0  0  0
 20 29  1  1  0  0  0
 20  1  1  0  0  0  0
 21  4  1  0  0  0  0
 22 21  2  0  0  0  0
 22 13  1  0  0  0  0
 23 14  2  0  0  0  0
 24  2  1  0  0  0  0
 24  7  2  0  0  0  0
 25  5  1  0  0  0  0
 27 14  1  0  0  0  0
 27  2  2  0  0  0  0
 28 23  1  0  0  0  0
 30 29  1  0  0  0  0
 31 30  2  0  0  0  0
 32 30  1  0  0  0  0
M  END
>  <MODEL>
2

>  <REMARK>
 VINA RESULT:     -10.2      4.444      8.424
  Name = 
  2 active torsions:
  status: ('A' for Active; 'I' for Inactive)
    1  A    between atoms: C_1  and  C_10
    2  A    between atoms: C_10  and  C_24
                            x       y       z     vdW  Elec       q    Type
                         _______ _______ _______ _____ _____    ______ ____

>  <TORSDO>
F 2

$$$$
=
 OpenBabel11052416453D

 32 38  0  0  1  0  0  0  0  0999 V2000
  181.0170  179.1040  141.7020 C   0  0  0  0  0  0  0  0  0  0  0  0
  185.7550  178.2540  142.8260 C   0  0  0  0  0  0  0  0  0  0  0  0
  185.7000  178.2910  147.7180 C   0  0  0  0  0  3  0  0  0  0  0  0
  187.0700  178.0400  147.7400 C   0  0  0  0  0  3  0  0  0  0  0  0
  187.9370  177.8720  141.5590 C   0  0  0  0  0  0  0  0  0  0  0  0
  189.2400  177.6200  141.6460 C   0  0  0  0  0  0  0  0  0  0  0  0
  183.7160  178.6120  141.5160 C   0  0  0  0  0  0  0  0  0  0  0  0
  183.7170  178.6280  144.0290 C   0  0  0  0  0  3  0  0  0  0  0  0
  191.2900  177.2760  142.6810 C   0  0  2  0  0  3  0  0  0  0  0  0
  181.5530  179.0250  142.8870 C   0  0  0  0  0  3  0  0  0  0  0  0
  185.0330  178.4060  146.4990 C   0  0  0  0  0  3  0  0  0  0  0  0
  185.0430  178.3880  144.0450 C   0  0  0  0  0  0  0  0  0  0  0  0
  185.7220  178.2730  145.2770 C   0  0  0  0  0  0  0  0  0  0  0  0
  187.8280  177.8780  144.0880 C   0  0  0  0  0  0  0  0  0  0  0  0
  191.4640  177.2930  141.1430 C   0  0  0  0  0  3  0  0  0  0  0  0
  181.7530  178.9570  140.3720 C   0  0  0  0  0  0  0  0  0  0  0  0
  182.9870  178.7530  142.8050 N   0  0  0  0  0  0  0  0  0  0  0  0
  190.1380  177.5180  140.5640 N   0  0  0  0  0  0  0  0  0  0  0  0
  183.0230  178.7220  140.1730 C   0  0  0  0  0  3  0  0  0  0  0  0
  180.4130  178.5430  140.5480 C   0  0  2  0  0  3  0  0  0  0  0  0
  187.7700  177.9030  146.5410 C   0  0  0  0  0  3  0  0  0  0  0  0
  187.1150  178.0170  145.2980 C   0  0  0  0  0  0  0  0  0  0  0  0
  189.1540  177.6270  144.1140 C   0  0  0  0  0  3  0  0  0  0  0  0
  185.0240  178.3750  141.5420 C   0  0  0  0  0  3  0  0  0  0  0  0
  187.3770  178.0280  140.3330 F   0  0  0  0  0  0  0  0  0  0  0  0
  191.7110  175.9220  143.2200 C   0  0  0  0  0  1  0  0  0  0  0  0
  187.1490  178.0010  142.8370 C   0  0  0  0  0  0  0  0  0  0  0  0
  189.8670  177.4710  142.8870 N   0  0  0  0  0  0  0  0  0  0  0  0
  179.4820  179.5650  139.9250 C   0  0  0  0  0  2  0  0  0  0  0  0
  179.6740  179.5990  138.4490 C   0  0  0  0  0  0  0  0  0  0  0  0
  179.5080  178.4420  137.6990 O   0  0  0  0  0  0  0  0  0  0  0  0
  179.9560  180.6830  137.8760 O   0  0  0  0  0  1  0  0  0  0  0  0
  1 10  2  3  0  0  0
  2 27  2  0  0  0  0
  2 12  1  0  0  0  0
  3  4  1  0  0  0  0
  5  6  2  0  0  0  0
  5 27  1  0  0  0  0
  6 28  1  0  0  0  0
  7 24  2  0  0  0  0
  7 17  1  0  0  0  0
  8 12  2  0  0  0  0
  9 28  1  0  0  0  0
  9 26  1  6  0  0  0
 11  3  2  0  0  0  0
 12 13  1  0  0  0  0
 13 22  2  0  0  0  0
 13 11  1  0  0  0  0
 14 23  2  0  0  0  0
 14 22  1  0  0  0  0
 15  9  1  0  0  0  0
 16 20  1  0  0  0  0
 16  1  1  0  0  0  0
 17 10  1  0  0  0  0
 17  8  1  0  0  0  0
 18 15  2  0  0  0  0
 18  6  1  0  0  0  0
 19 16  2  0  0  0  0
 19  7  1  0  0  0  0
 20 29  1  6  0  0  0
 20  1  1  0  0  0  0
 21  4  2  0  0  0  0
 22 21  1  0  0  0  0
 24  2  1  0  0  0  0
 25  5  1  0  0  0  0
 27 14  1  0  0  0  0
 28 23  1  0  0  0  0
 30 29  1  0  0  0  0
 31 30  2  0  0  0  0
 32 30  1  0  0  0  0
M  END
>  <MODEL>
3

>  <REMARK>
 VINA RESULT:     -10.2      4.733      9.233
  Name = 
  2 active torsions:
  status: ('A' for Active; 'I' for Inactive)
    1  A    between atoms: C_1  and  C_10
    2  A    between atoms: C_10  and  C_24
                            x       y       z     vdW  Elec       q    Type
                         _______ _______ _______ _____ _____    ______ ____

>  <TORSDO>
F 2

$$$$
=
 OpenBabel11052416453D

 32 38  0  0  1  0  0  0  0  0999 V2000
  190.6470  177.1830  144.8340 C   0  0  0  0  0  0  0  0  0  0  0  0
  186.8300  178.1200  141.8370 C   0  0  0  0  0  0  0  0  0  0  0  0
  188.9790  178.3940  137.4490 C   0  0  0  0  0  3  0  0  0  0  0  0
  187.7440  178.6440  136.8560 C   0  0  0  0  0  3  0  0  0  0  0  0
  184.3130  178.4670  142.0680 C   0  0  0  0  0  0  0  0  0  0  0  0
  183.1620  178.6970  141.4400 C   0  0  0  0  0  0  0  0  0  0  0  0
  188.1170  177.6670  143.8710 C   0  0  0  0  0  0  0  0  0  0  0  0
  189.1950  177.8140  141.6050 C   0  0  0  0  0  3  0  0  0  0  0  0
  181.7530  179.1530  139.6520 C   0  0  2  0  0  3  0  0  0  0  0  0
  190.6720  177.3610  143.5440 C   0  0  0  0  0  3  0  0  0  0  0  0
  189.0610  178.2020  138.8280 C   0  0  0  0  0  3  0  0  0  0  0  0
  187.9990  178.0590  141.0350 C   0  0  0  0  0  0  0  0  0  0  0  0
  187.9110  178.2560  139.6400 C   0  0  0  0  0  0  0  0  0  0  0  0
  185.4880  178.5680  139.8280 C   0  0  0  0  0  0  0  0  0  0  0  0
  180.9520  179.1500  140.9770 C   0  0  0  0  0  3  0  0  0  0  0  0
  189.4060  177.2360  145.7240 C   0  0  0  0  0  0  0  0  0  0  0  0
  189.3320  177.6090  143.0150 N   0  0  0  0  0  0  0  0  0  0  0  0
  181.9030  178.8610  142.0520 N   0  0  0  0  0  0  0  0  0  0  0  0
  188.1680  177.4540  145.3700 C   0  0  0  0  0  3  0  0  0  0  0  0
  190.5020  176.3850  145.9970 C   0  0  2  0  0  3  0  0  0  0  0  0
  186.5930  178.7000  137.6420 C   0  0  0  0  0  3  0  0  0  0  0  0
  186.6550  178.5100  139.0370 C   0  0  0  0  0  0  0  0  0  0  0  0
  184.2920  178.8030  139.2480 C   0  0  0  0  0  3  0  0  0  0  0  0
  186.9410  177.9080  143.3000 C   0  0  0  0  0  3  0  0  0  0  0  0
  184.3130  178.3500  143.4190 F   0  0  0  0  0  0  0  0  0  0  0  0
  181.2200  178.0650  138.7390 C   0  0  0  0  0  1  0  0  0  0  0  0
  185.5700  178.3770  141.2430 C   0  0  0  0  0  0  0  0  0  0  0  0
  183.1130  178.8440  140.0500 N   0  0  0  0  0  0  0  0  0  0  0  0
  191.3350  176.9780  147.1170 C   0  0  0  0  0  2  0  0  0  0  0  0
  192.3710  176.0040  147.5550 C   0  0  0  0  0  0  0  0  0  0  0  0
  192.6890  174.9180  146.7500 O   0  0  0  0  0  0  0  0  0  0  0  0
  192.9830  176.1810  148.6400 O   0  0  0  0  0  1  0  0  0  0  0  0
  1 16  1  0  0  0  0
  1 20  1  0  0  0  0
  2 24  1  0  0  0  0
  3 11  1  0  0  0  0
  4  3  2  0  0  0  0
  4 21  1  0  0  0  0
  5 25  1  0  0  0  0
  6 18  1  0  0  0  0
  6  5  2  0  0  0  0
  7 19  1  0  0  0  0
  8 17  1  0  0  0  0
  9 26  1  6  0  0  0
  9 28  1  0  0  0  0
  9 15  1  0  0  0  0
 10  1  2  3  0  0  0
 11 13  2  0  0  0  0
 12  8  2  0  0  0  0
 12  2  1  0  0  0  0
 13 12  1  0  0  0  0
 14 27  1  0  0  0  0
 15 18  2  0  0  0  0
 16 20  1  0  0  0  0
 17 10  1  0  0  0  0
 17  7  1  0  0  0  0
 19 16  2  0  0  0  0
 20 29  1  1  0  0  0
 21 22  2  0  0  0  0
 22 13  1  0  0  0  0
 22 14  1  0  0  0  0
 23 14  2  0  0  0  0
 23 28  1  0  0  0  0
 24  7  2  0  0  0  0
 27  2  2  0  0  0  0
 27  5  1  0  0  0  0
 28  6  1  0  0  0  0
 29 30  1  0  0  0  0
 30 32  1  0  0  0  0
 31 30  2  0  0  0  0
M  END
>  <MODEL>
4

>  <REMARK>
 VINA RESULT:      -9.8      1.198      1.787
  Name = 
  2 active torsions:
  status: ('A' for Active; 'I' for Inactive)
    1  A    between atoms: C_1  and  C_10
    2  A    between atoms: C_10  and  C_24
                            x       y       z     vdW  Elec       q    Type
                         _______ _______ _______ _____ _____    ______ ____

>  <TORSDO>
F 2

$$$$
=
 OpenBabel11052416453D

 32 38  0  0  1  0  0  0  0  0999 V2000
  190.4610  177.0740  140.3910 C   0  0  0  0  0  0  0  0  0  0  0  0
  185.8880  178.1010  141.9630 C   0  0  0  0  0  0  0  0  0  0  0  0
  186.4430  178.2050  146.8230 C   0  0  0  0  0  3  0  0  0  0  0  0
  185.0910  178.4980  146.9760 C   0  0  0  0  0  3  0  0  0  0  0  0
  183.5990  178.5120  140.9130 C   0  0  0  0  0  0  0  0  0  0  0  0
  182.3190  178.8060  141.1240 C   0  0  0  0  0  0  0  0  0  0  0  0
  187.7710  177.6420  140.4650 C   0  0  0  0  0  0  0  0  0  0  0  0
  188.0270  177.7000  142.9640 C   0  0  0  0  0  3  0  0  0  0  0  0
  180.3960  179.2430  142.3510 C   0  0  2  0  0  3  0  0  0  0  0  0
  190.0510  177.2040  141.6220 C   0  0  0  0  0  3  0  0  0  0  0  0
  186.9780  178.0340  145.5470 C   0  0  0  0  0  3  0  0  0  0  0  0
  186.7170  177.9810  143.1080 C   0  0  0  0  0  0  0  0  0  0  0  0
  186.1720  178.1530  144.3980 C   0  0  0  0  0  0  0  0  0  0  0  0
  183.9660  178.5770  143.4170 C   0  0  0  0  0  0  0  0  0  0  0  0
  180.0640  179.1860  140.8400 C   0  0  0  0  0  3  0  0  0  0  0  0
  189.5970  177.2050  139.1380 C   0  0  0  0  0  0  0  0  0  0  0  0
  188.6240  177.5180  141.6770 N   0  0  0  0  0  0  0  0  0  0  0  0
  181.3180  178.9040  140.1360 N   0  0  0  0  0  0  0  0  0  0  0  0
  188.3200  177.4720  139.0630 C   0  0  0  0  0  3  0  0  0  0  0  0
  190.9580  177.5830  139.1650 C   0  0  2  0  0  3  0  0  0  0  0  0
  184.2750  178.6210  145.8510 C   0  0  0  0  0  3  0  0  0  0  0  0
  184.7950  178.4520  144.5520 C   0  0  0  0  0  0  0  0  0  0  0  0
  182.6570  178.8690  143.5690 C   0  0  0  0  0  3  0  0  0  0  0  0
  186.4800  177.9200  140.6160 C   0  0  0  0  0  3  0  0  0  0  0  0
  184.0260  178.3040  139.6420 F   0  0  0  0  0  0  0  0  0  0  0  0
  180.0700  180.6240  142.8860 C   0  0  0  0  0  1  0  0  0  0  0  0
  184.5100  178.3960  142.1070 C   0  0  0  0  0  0  0  0  0  0  0  0
  181.8270  179.0110  142.4170 N   0  0  0  0  0  0  0  0  0  0  0  0
  191.7920  176.5150  138.4830 C   0  0  0  0  0  2  0  0  0  0  0  0
  193.2320  176.8900  138.5190 C   0  0  0  0  0  0  0  0  0  0  0  0
  193.8320  177.2320  139.7240 O   0  0  0  0  0  1  0  0  0  0  0  0
  193.9150  176.8660  137.4630 O   0  0  0  0  0  0  0  0  0  0  0  0
  1 10  2  3  0  0  0
  2 27  2  0  0  0  0
  2 12  1  0  0  0  0
  3  4  1  0  0  0  0
  5  6  2  0  0  0  0
  5 27  1  0  0  0  0
  6 28  1  0  0  0  0
  7 24  2  0  0  0  0
  7 17  1  0  0  0  0
  8 12  2  0  0  0  0
  9 28  1  0  0  0  0
  9 26  1  6  0  0  0
 10 17  1  0  0  0  0
 11  3  2  0  0  0  0
 12 13  1  0  0  0  0
 13 22  2  0  0  0  0
 13 11  1  0  0  0  0
 14 23  2  0  0  0  0
 14 22  1  0  0  0  0
 15  9  1  0  0  0  0
 16 20  1  0  0  0  0
 16  1  1  0  0  0  0
 17  8  1  0  0  0  0
 18 15  2  0  0  0  0
 18  6  1  0  0  0  0
 19 16  2  0  0  0  0
 19  7  1  0  0  0  0
 20 29  1  6  0  0  0
 20  1  1  0  0  0  0
 21  4  2  0  0  0  0
 22 21  1  0  0  0  0
 24  2  1  0  0  0  0
 25  5  1  0  0  0  0
 27 14  1  0  0  0  0
 28 23  1  0  0  0  0
 29 30  1  0  0  0  0
 30 31  1  0  0  0  0
 32 30  2  0  0  0  0
M  END
>  <MODEL>
5

>  <REMARK>
 VINA RESULT:      -9.7      3.103      5.451
  Name = 
  2 active torsions:
  status: ('A' for Active; 'I' for Inactive)
    1  A    between atoms: C_1  and  C_10
    2  A    between atoms: C_10  and  C_24
                            x       y       z     vdW  Elec       q    Type
                         _______ _______ _______ _____ _____    ______ ____

>  <TORSDO>
F 2

$$$$
=
 OpenBabel11052416453D

 32 38  0  0  1  0  0  0  0  0999 V2000
  190.6590  176.5710  147.2410 C   0  0  0  0  0  0  0  0  0  0  0  0
  188.7100  177.4520  142.7850 C   0  0  0  0  0  0  0  0  0  0  0  0
  184.0990  178.6700  143.8730 C   0  0  0  0  0  3  0  0  0  0  0  0
  183.8230  178.8520  142.5200 C   0  0  0  0  0  3  0  0  0  0  0  0
  189.4940  177.3900  140.3570 C   0  0  0  0  0  0  0  0  0  0  0  0
  189.1710  177.5930  139.0820 C   0  0  0  0  0  0  0  0  0  0  0  0
  190.3300  176.8680  144.5270 C   0  0  0  0  0  0  0  0  0  0  0  0
  187.9550  177.4960  145.0580 C   0  0  0  0  0  3  0  0  0  0  0  0
  187.8050  178.0920  137.2720 C   0  0  2  0  0  3  0  0  0  0  0  0
  189.4360  176.9250  146.9620 C   0  0  0  0  0  3  0  0  0  0  0  0
  185.3750  178.2800  144.2770 C   0  0  0  0  0  3  0  0  0  0  0  0
  187.6920  177.6680  143.7480 C   0  0  0  0  0  0  0  0  0  0  0  0
  186.4010  178.0620  143.3350 C   0  0  0  0  0  0  0  0  0  0  0  0
  187.1310  178.0380  140.9960 C   0  0  0  0  0  0  0  0  0  0  0  0
  189.2120  177.6730  136.7800 C   0  0  0  0  0  3  0  0  0  0  0  0
  191.7800  176.3370  146.2300 C   0  0  0  0  0  0  0  0  0  0  0  0
  189.2490  177.0980  145.5220 N   0  0  0  0  0  0  0  0  0  0  0  0
  190.0100  177.3720  137.9710 N   0  0  0  0  0  0  0  0  0  0  0  0
  191.7300  176.4520  144.9290 C   0  0  0  0  0  3  0  0  0  0  0  0
  192.0200  176.8470  147.5260 C   0  0  2  0  0  3  0  0  0  0  0  0
  184.8250  178.6440  141.5730 C   0  0  0  0  0  3  0  0  0  0  0  0
  186.1210  178.2480  141.9590 C   0  0  0  0  0  0  0  0  0  0  0  0
  186.8620  178.2220  139.6860 C   0  0  0  0  0  3  0  0  0  0  0  0
  190.0610  177.0410  143.2370 C   0  0  0  0  0  3  0  0  0  0  0  0
  190.7420  176.9530  140.6590 F   0  0  0  0  0  0  0  0  0  0  0  0
  187.5230  179.5170  136.8350 C   0  0  0  0  0  1  0  0  0  0  0  0
  188.4390  177.6310  141.4050 C   0  0  0  0  0  0  0  0  0  0  0  0
  187.8920  178.0250  138.7190 N   0  0  0  0  0  0  0  0  0  0  0  0
  192.5790  175.7460  148.4060 C   0  0  0  0  0  2  0  0  0  0  0  0
  193.2330  176.3330  149.6080 C   0  0  0  0  0  0  0  0  0  0  0  0
  193.4240  177.7060  149.6940 O   0  0  0  0  0  0  0  0  0  0  0  0
  193.5850  175.5890  150.5600 O   0  0  0  0  0  1  0  0  0  0  0  0
  1 20  1  0  0  0  0
  2 24  1  0  0  0  0
  2 12  1  0  0  0  0
  3 11  1  0  0  0  0
  4  3  2  0  0  0  0
  5 25  1  0  0  0  0
  5 27  1  0  0  0  0
  6  5  2  0  0  0  0
  7 19  1  0  0  0  0
  7 17  1  0  0  0  0
  8 17  1  0  0  0  0
  9 26  1  1  0  0  0
  9 28  1  0  0  0  0
 10  1  2  3  0  0  0
 12  8  2  0  0  0  0
 13 12  1  0  0  0  0
 13 11  2  0  0  0  0
 14 27  1  0  0  0  0
 14 22  1  0  0  0  0
 15  9  1  0  0  0  0
 15 18  2  0  0  0  0
 16  1  1  0  0  0  0
 16 20  1  0  0  0  0
 17 10  1  0  0  0  0
 18  6  1  0  0  0  0
 19 16  2  0  0  0  0
 20 29  1  1  0  0  0
 21 22  2  0  0  0  0
 21  4  1  0  0  0  0
 22 13  1  0  0  0  0
 23 14  2  0  0  0  0
 24  7  2  0  0  0  0
 27  2  2  0  0  0  0
 28  6  1  0  0  0  0
 28 23  1  0  0  0  0
 29 30  1  0  0  0  0
 30 31  2  0  0  0  0
 30 32  1  0  0  0  0
M  END
>  <MODEL>
6

>  <REMARK>
 VINA RESULT:      -9.6      3.004      5.328
  Name = 
  2 active torsions:
  status: ('A' for Active; 'I' for Inactive)
    1  A    between atoms: C_1  and  C_10
    2  A    between atoms: C_10  and  C_24
                            x       y       z     vdW  Elec       q    Type
                         _______ _______ _______ _____ _____    ______ ____

>  <TORSDO>
F 2

$$$$
=
 OpenBabel11052416453D

 32 38  0  0  1  0  0  0  0  0999 V2000
  190.5670  176.8400  137.0320 C   0  0  0  0  0  0  0  0  0  0  0  0
  189.4040  177.3610  141.8080 C   0  0  0  0  0  0  0  0  0  0  0  0
  184.8000  179.0030  141.5980 C   0  0  0  0  0  3  0  0  0  0  0  0
  184.7480  179.0480  142.9880 C   0  0  0  0  0  3  0  0  0  0  0  0
  190.5550  177.0210  144.0590 C   0  0  0  0  0  0  0  0  0  0  0  0
  190.4380  177.0740  145.3840 C   0  0  0  0  0  0  0  0  0  0  0  0
  190.6820  176.8570  139.7790 C   0  0  0  0  0  0  0  0  0  0  0  0
  188.3160  177.7030  139.7010 C   0  0  0  0  0  3  0  0  0  0  0  0
  189.4250  177.5030  147.4290 C   0  0  2  0  0  3  0  0  0  0  0  0
  189.4430  177.2650  137.5370 C   0  0  0  0  0  3  0  0  0  0  0  0
  185.9620  178.5740  140.9580 C   0  0  0  0  0  3  0  0  0  0  0  0
  188.2710  177.7490  141.0460 C   0  0  0  0  0  0  0  0  0  0  0  0
  187.0970  178.1830  141.6970 C   0  0  0  0  0  0  0  0  0  0  0  0
  188.1670  177.8410  143.8750 C   0  0  0  0  0  0  0  0  0  0  0  0
  190.8880  177.0450  147.6430 C   0  0  0  0  0  3  0  0  0  0  0  0
  191.8010  176.4100  137.8220 C   0  0  0  0  0  0  0  0  0  0  0  0
  189.4850  177.2690  138.9980 N   0  0  0  0  0  0  0  0  0  0  0  0
  191.4590  176.7990  146.3170 N   0  0  0  0  0  0  0  0  0  0  0  0
  191.9580  176.3780  139.1190 C   0  0  0  0  0  3  0  0  0  0  0  0
  191.4470  175.8220  136.5870 C   0  0  2  0  0  3  0  0  0  0  0  0
  185.8600  178.6640  143.7380 C   0  0  0  0  0  3  0  0  0  0  0  0
  187.0450  178.2290  143.1120 C   0  0  0  0  0  0  0  0  0  0  0  0
  188.1100  177.8790  145.2230 C   0  0  0  0  0  3  0  0  0  0  0  0
  190.6280  176.9050  141.1060 C   0  0  0  0  0  3  0  0  0  0  0  0
  191.7410  176.6490  143.5180 F   0  0  0  0  0  0  0  0  0  0  0  0
  188.4860  176.5150  148.0930 C   0  0  0  0  0  1  0  0  0  0  0  0
  189.3630  177.4070  143.2230 C   0  0  0  0  0  0  0  0  0  0  0  0
  189.2420  177.4710  145.9890 N   0  0  0  0  0  0  0  0  0  0  0  0
  192.3380  176.3750  135.4910 C   0  0  0  0  0  2  0  0  0  0  0  0
  193.7560  176.0030  135.7470 C   0  0  0  0  0  0  0  0  0  0  0  0
  194.6800  176.9800  136.0920 O   0  0  0  0  0  1  0  0  0  0  0  0
  194.1120  174.7980  135.6820 O   0  0  0  0  0  0  0  0  0  0  0  0
  1 10  2  3  0  0  0
  1 16  1  0  0  0  0
  2 27  2  0  0  0  0
  3  4  1  0  0  0  0
  4 21  2  0  0  0  0
  5  6  2  0  0  0  0
  6 28  1  0  0  0  0
  6 18  1  0  0  0  0
  7 24  2  0  0  0  0
  8 12  2  0  0  0  0
  9 15  1  0  0  0  0
  9 26  1  1  0  0  0
 10 17  1  0  0  0  0
 11  3  2  0  0  0  0
 11 13  1  0  0  0  0
 12 13  1  0  0  0  0
 12  2  1  0  0  0  0
 13 22  2  0  0  0  0
 14 23  2  0  0  0  0
 16 19  2  0  0  0  0
 17  8  1  0  0  0  0
 17  7  1  0  0  0  0
 18 15  2  0  0  0  0
 19  7  1  0  0  0  0
 20 29  1  6  0  0  0
 20  1  1  0  0  0  0
 20 16  1  0  0  0  0
 22 21  1  0  0  0  0
 22 14  1  0  0  0  0
 23 28  1  0  0  0  0
 24  2  1  0  0  0  0
 25  5  1  0  0  0  0
 27 14  1  0  0  0  0
 27  5  1  0  0  0  0
 28  9  1  0  0  0  0
 29 30  1  0  0  0  0
 30 31  1  0  0  0  0
 32 30  2  0  0  0  0
M  END
>  <MODEL>
7

>  <REMARK>
 VINA RESULT:      -9.6      4.415      8.033
  Name = 
  2 active torsions:
  status: ('A' for Active; 'I' for Inactive)
    1  A    between atoms: C_1  and  C_10
    2  A    between atoms: C_10  and  C_24
                            x       y       z     vdW  Elec       q    Type
                         _______ _______ _______ _____ _____    ______ ____

>  <TORSDO>
F 2

$$$$
=
 OpenBabel11052416453D

 32 38  0  0  1  0  0  0  0  0999 V2000
  188.1200  177.6130  137.7000 C   0  0  0  0  0  0  0  0  0  0  0  0
  187.5540  177.9120  142.6010 C   0  0  0  0  0  0  0  0  0  0  0  0
  182.8150  179.0450  143.0470 C   0  0  0  0  0  3  0  0  0  0  0  0
  182.9440  179.0580  144.4340 C   0  0  0  0  0  3  0  0  0  0  0  0
  189.0240  177.6570  144.6720 C   0  0  0  0  0  0  0  0  0  0  0  0
  189.0790  177.6720  146.0010 C   0  0  0  0  0  0  0  0  0  0  0  0
  188.5960  177.5900  140.4080 C   0  0  0  0  0  0  0  0  0  0  0  0
  186.1660  178.1730  140.6660 C   0  0  0  0  0  3  0  0  0  0  0  0
  188.3080  177.9480  148.1730 C   0  0  2  0  0  3  0  0  0  0  0  0
  187.0350  177.9020  138.3610 C   0  0  0  0  0  3  0  0  0  0  0  0
  183.9210  178.7580  142.2480 C   0  0  0  0  0  3  0  0  0  0  0  0
  186.2960  178.1880  142.0070 C   0  0  0  0  0  0  0  0  0  0  0  0
  185.1790  178.4790  142.8200 C   0  0  0  0  0  0  0  0  0  0  0  0
  186.5590  178.2140  144.8270 C   0  0  0  0  0  0  0  0  0  0  0  0
  189.8260  177.6490  148.1800 C   0  0  0  0  0  3  0  0  0  0  0  0
  189.4870  177.3050  138.3080 C   0  0  0  0  0  0  0  0  0  0  0  0
  187.2700  177.8830  139.8040 N   0  0  0  0  0  0  0  0  0  0  0  0
  190.2380  177.4920  146.7830 N   0  0  0  0  0  0  0  0  0  0  0  0
  189.8170  177.2650  139.5720 C   0  0  0  0  0  3  0  0  0  0  0  0
  189.0360  176.7050  137.1110 C   0  0  2  0  0  3  0  0  0  0  0  0
  184.1800  178.7830  145.0200 C   0  0  0  0  0  3  0  0  0  0  0  0
  185.3110  178.4920  144.2300 C   0  0  0  0  0  0  0  0  0  0  0  0
  186.6780  178.2210  146.1720 C   0  0  0  0  0  3  0  0  0  0  0  0
  188.7150  177.6060  141.7320 C   0  0  0  0  0  3  0  0  0  0  0  0
  190.1600  177.4270  143.9680 F   0  0  0  0  0  0  0  0  0  0  0  0
  187.5750  176.8510  148.9210 C   0  0  0  0  0  1  0  0  0  0  0  0
  187.6970  177.9260  144.0110 C   0  0  0  0  0  0  0  0  0  0  0  0
  187.9390  177.9230  146.7700 N   0  0  0  0  0  0  0  0  0  0  0  0
  189.7090  177.3730  135.9270 C   0  0  0  0  0  2  0  0  0  0  0  0
  190.3370  176.3480  135.0490 C   0  0  0  0  0  0  0  0  0  0  0  0
  189.6310  175.2030  134.7030 O   0  0  0  0  0  1  0  0  0  0  0  0
  191.4950  176.5320  134.5940 O   0  0  0  0  0  0  0  0  0  0  0  0
  1 16  1  0  0  0  0
  1 10  2  3  0  0  0
  2 27  2  0  0  0  0
  3  4  1  0  0  0  0
  4 21  2  0  0  0  0
  5  6  2  0  0  0  0
  6 28  1  0  0  0  0
  6 18  1  0  0  0  0
  7 24  2  0  0  0  0
  8 12  2  0  0  0  0
  9 15  1  0  0  0  0
  9 26  1  1  0  0  0
 10 17  1  0  0  0  0
 11 13  1  0  0  0  0
 11  3  2  0  0  0  0
 12  2  1  0  0  0  0
 12 13  1  0  0  0  0
 13 22  2  0  0  0  0
 14 23  2  0  0  0  0
 16 19  2  0  0  0  0
 17  7  1  0  0  0  0
 17  8  1  0  0  0  0
 18 15  2  0  0  0  0
 19  7  1  0  0  0  0
 20 29  1  6  0  0  0
 20  1  1  0  0  0  0
 20 16  1  0  0  0  0
 22 14  1  0  0  0  0
 22 21  1  0  0  0  0
 23 28  1  0  0  0  0
 24  2  1  0  0  0  0
 25  5  1  0  0  0  0
 27  5  1  0  0  0  0
 27 14  1  0  0  0  0
 28  9  1  0  0  0  0
 30 29  1  0  0  0  0
 31 30  1  0  0  0  0
 32 30  2  0  0  0  0
M  END
>  <MODEL>
8

>  <REMARK>
 VINA RESULT:      -9.3      4.225      7.826
  Name = 
  2 active torsions:
  status: ('A' for Active; 'I' for Inactive)
    1  A    between atoms: C_1  and  C_10
    2  A    between atoms: C_10  and  C_24
                            x       y       z     vdW  Elec       q    Type
                         _______ _______ _______ _____ _____    ______ ____

>  <TORSDO>
F 2

$$$$
=
 OpenBabel11052416453D

 32 38  0  0  1  0  0  0  0  0999 V2000
  189.2070  177.8200  139.2160 C   0  0  0  0  0  0  0  0  0  0  0  0
  184.9410  178.3650  141.6530 C   0  0  0  0  0  0  0  0  0  0  0  0
  186.3940  178.4000  146.3250 C   0  0  0  0  0  3  0  0  0  0  0  0
  185.0740  178.5590  146.7390 C   0  0  0  0  0  3  0  0  0  0  0  0
  182.4670  178.5810  141.0660 C   0  0  0  0  0  0  0  0  0  0  0  0
  181.2290  178.7460  141.5240 C   0  0  0  0  0  0  0  0  0  0  0  0
  186.5400  178.1260  139.8120 C   0  0  0  0  0  0  0  0  0  0  0  0
  187.2580  178.1460  142.2210 C   0  0  0  0  0  3  0  0  0  0  0  0
  179.5420  178.9660  143.1040 C   0  0  2  0  0  3  0  0  0  0  0  0
  189.0270  177.8800  140.5050 C   0  0  0  0  0  3  0  0  0  0  0  0
  186.6910  178.3140  144.9650 C   0  0  0  0  0  3  0  0  0  0  0  0
  185.9790  178.2960  142.6170 C   0  0  0  0  0  0  0  0  0  0  0  0
  185.6740  178.3830  143.9920 C   0  0  0  0  0  0  0  0  0  0  0  0
  183.2940  178.6180  143.4580 C   0  0  0  0  0  0  0  0  0  0  0  0
  178.9360  178.9150  141.6800 C   0  0  0  0  0  3  0  0  0  0  0  0
  188.1130  177.8990  138.1520 C   0  0  0  0  0  0  0  0  0  0  0  0
  187.6140  178.0540  140.8380 N   0  0  0  0  0  0  0  0  0  0  0  0
  180.0540  178.7720  140.7440 N   0  0  0  0  0  0  0  0  0  0  0  0
  186.8260  178.0450  138.3270 C   0  0  0  0  0  3  0  0  0  0  0  0
  189.4150  178.4050  137.9410 C   0  0  2  0  0  3  0  0  0  0  0  0
  184.0520  178.6310  145.7920 C   0  0  0  0  0  3  0  0  0  0  0  0
  184.3310  178.5450  144.4120 C   0  0  0  0  0  0  0  0  0  0  0  0
  182.0160  178.7790  143.8630 C   0  0  0  0  0  3  0  0  0  0  0  0
  185.2810  178.2750  140.2120 C   0  0  0  0  0  3  0  0  0  0  0  0
  182.6620  178.4460  139.7300 F   0  0  0  0  0  0  0  0  0  0  0  0
  179.2000  180.2950  143.7480 C   0  0  0  0  0  1  0  0  0  0  0  0
  183.5940  178.5230  142.0640 C   0  0  0  0  0  0  0  0  0  0  0  0
  180.9740  178.8700  142.8930 N   0  0  0  0  0  0  0  0  0  0  0  0
  190.1970  177.4390  137.0710 C   0  0  0  0  0  2  0  0  0  0  0  0
  189.3650  177.0010  135.9170 C   0  0  0  0  0  0  0  0  0  0  0  0
  189.1500  177.8620  134.8490 O   0  0  0  0  0  0  0  0  0  0  0  0
  188.8830  175.8390  135.8930 O   0  0  0  0  0  1  0  0  0  0  0  0
  1 10  2  3  0  0  0
  2 27  2  0  0  0  0
  2 12  1  0  0  0  0
  3  4  1  0  0  0  0
  5  6  2  0  0  0  0
  5 27  1  0  0  0  0
  6 28  1  0  0  0  0
  7 24  2  0  0  0  0
  7 17  1  0  0  0  0
  8 12  2  0  0  0  0
  9 26  1  6  0  0  0
 10 17  1  0  0  0  0
 11  3  2  0  0  0  0
 12 13  1  0  0  0  0
 13 22  2  0  0  0  0
 13 11  1  0  0  0  0
 14 23  2  0  0  0  0
 14 22  1  0  0  0  0
 15  9  1  0  0  0  0
 16 19  2  0  0  0  0
 16  1  1  0  0  0  0
 17  8  1  0  0  0  0
 18  6  1  0  0  0  0
 18 15  2  0  0  0  0
 19  7  1  0  0  0  0
 20 29  1  6  0  0  0
 20 16  1  0  0  0  0
 20  1  1  0  0  0  0
 21  4  2  0  0  0  0
 22 21  1  0  0  0  0
 24  2  1  0  0  0  0
 25  5  1  0  0  0  0
 27 14  1  0  0  0  0
 28  9  1  0  0  0  0
 28 23  1  0  0  0  0
 30 29  1  0  0  0  0
 31 30  2  0  0  0  0
 32 30  1  0  0  0  0
M  END
>  <MODEL>
9

>  <REMARK>
 VINA RESULT:      -9.0      3.946      6.345
  Name = 
  2 active torsions:
  status: ('A' for Active; 'I' for Inactive)
    1  A    between atoms: C_1  and  C_10
    2  A    between atoms: C_10  and  C_24
                            x       y       z     vdW  Elec       q    Type
                         _______ _______ _______ _____ _____    ______ ____

>  <TORSDO>
F 2

$$$$
