=
 OpenBabel11052415583D

 34 39  0  0  0  0  0  0  0  0999 V2000
  186.6740  177.9300  143.8540 C   0  0  0  0  0  0  0  0  0  0  0  0
  188.0380  177.7520  147.5640 C   0  0  0  0  0  3  0  0  0  0  0  0
  185.9160  178.1850  146.6080 C   0  0  0  0  0  3  0  0  0  0  0  0
  186.1720  178.5720  141.5160 C   0  0  0  0  0  0  0  0  0  0  0  0
  187.0360  178.0680  142.4240 C   0  0  0  0  0  3  0  0  0  0  0  0
  184.4630  178.6710  143.2850 N   0  0  0  0  0  0  0  0  0  0  0  0
  183.4610  179.2280  144.1440 C   0  0  0  0  0  3  0  0  0  0  0  0
  184.8240  179.1290  141.9450 C   0  0  0  0  0  2  0  0  0  0  0  0
  185.0020  178.2950  145.5170 N   0  0  0  0  0  0  0  0  0  0  0  0
  185.4190  178.1710  144.1870 C   0  0  0  0  0  0  0  0  0  0  0  0
  183.7680  179.0060  145.4340 C   0  0  0  0  0  3  0  0  0  0  0  0
  189.3060  177.3790  147.6900 C   0  0  0  0  0  3  0  0  0  0  0  0
  190.2700  176.9300  146.6760 C   0  0  0  0  0  0  0  0  0  0  0  0
  190.0520  176.8910  145.3620 C   0  0  0  0  0  3  0  0  0  0  0  0
  187.1950  177.8400  146.3700 C   0  0  0  0  0  0  0  0  0  0  0  0
  188.8680  177.2460  144.5740 C   0  0  0  0  0  3  0  0  0  0  0  0
  187.6510  177.6470  144.9460 C   0  0  0  0  0  0  0  0  0  0  0  0
  191.5960  176.5050  147.1690 C   0  0  0  0  0  0  0  0  0  0  0  0
  192.3100  175.5190  146.4960 O   0  0  0  0  0  0  0  0  0  0  0  0
  192.0980  177.0260  148.2020 O   0  0  0  0  0  1  0  0  0  0  0  0
  186.5370  178.7090  140.1330 N   0  0  0  0  0  2  0  0  0  0  0  0
  188.9180  177.6130  137.4430 C   0  0  0  0  0  3  0  0  0  0  0  0
  188.7710  177.7410  140.2210 C   0  0  0  0  0  3  0  0  0  0  0  0
  192.4300  176.4230  137.7980 C   0  0  0  0  0  0  0  0  0  0  0  0
  193.0230  176.7550  139.1120 C   0  0  0  0  0  0  0  0  0  0  0  0
  191.1560  176.6380  137.4380 C   0  0  0  0  0  3  0  0  0  0  0  0
  194.2180  176.4290  139.3400 O   0  0  0  0  0  0  0  0  0  0  0  0
  190.0090  177.1780  138.2030 C   0  0  0  0  0  0  0  0  0  0  0  0
  193.2640  175.8520  136.8450 O   0  0  0  0  0  1  0  0  0  0  0  0
  191.0110  176.7510  140.5050 C   0  0  0  0  0  2  0  0  0  0  0  0
  189.9250  177.2350  139.6130 C   0  0  0  0  0  0  0  0  0  0  0  0
  192.2880  177.4870  140.1800 C   0  0  0  0  0  2  0  0  0  0  0  0
  187.6900  178.1840  139.4550 C   0  0  0  0  0  0  0  0  0  0  0  0
  187.7720  178.1170  138.0590 C   0  0  0  0  0  3  0  0  0  0  0  0
  1 10  2  0  0  0  0
  1 17  1  0  0  0  0
  2 12  2  0  0  0  0
  4  8  1  0  0  0  0
  4  5  2  0  0  0  0
  5  1  1  0  0  0  0
  6  7  1  0  0  0  0
  6 10  1  0  0  0  0
  7 11  2  0  0  0  0
  8  6  1  0  0  0  0
  9  3  1  0  0  0  0
 10  9  1  0  0  0  0
 11  9  1  0  0  0  0
 13 18  1  0  0  0  0
 13 12  1  0  0  0  0
 14 13  2  0  0  0  0
 15  3  2  0  0  0  0
 15  2  1  0  0  0  0
 16 17  2  0  0  0  0
 16 14  1  0  0  0  0
 17 15  1  0  0  0  0
 18 20  1  0  0  0  0
 19 18  2  0  0  0  0
 21  4  1  0  0  0  0
 22 34  2  0  0  0  0
 22 28  1  0  0  0  0
 24 25  1  0  0  0  0
 25 27  2  0  0  0  0
 25 32  1  0  0  0  0
 26 24  2  0  0  0  0
 26 28  1  0  0  0  0
 28 31  2  0  0  0  0
 29 24  1  0  0  0  0
 31 23  1  0  0  0  0
 31 30  1  0  0  0  0
 32 30  1  0  0  0  0
 33 21  1  0  0  0  0
 33 23  2  0  0  0  0
 34 33  1  0  0  0  0
M  END
>  <MODEL>
1

>  <REMARK>
 VINA RESULT:     -12.5      0.000      0.000
  Name = 
  3 active torsions:
  status: ('A' for Active; 'I' for Inactive)
    1  A    between atoms: C_3  and  C_25
    2  A    between atoms: C_8  and  N_18
    3  A    between atoms: N_18  and  C_30
                            x       y       z     vdW  Elec       q    Type
                         _______ _______ _______ _____ _____    ______ ____

>  <TORSDO>
F 3

$$$$
=
 OpenBabel11052415583D

 34 39  0  0  0  0  0  0  0  0999 V2000
  187.2120  177.8470  143.6470 C   0  0  0  0  0  0  0  0  0  0  0  0
  188.1420  177.8200  147.4920 C   0  0  0  0  0  3  0  0  0  0  0  0
  186.1510  178.2360  146.2830 C   0  0  0  0  0  3  0  0  0  0  0  0
  186.9900  178.3870  141.2410 C   0  0  0  0  0  0  0  0  0  0  0  0
  187.7360  177.9150  142.2630 C   0  0  0  0  0  3  0  0  0  0  0  0
  185.0940  178.5900  142.7970 N   0  0  0  0  0  0  0  0  0  0  0  0
  184.0100  179.1980  143.5100 C   0  0  0  0  0  3  0  0  0  0  0  0
  185.6120  178.9810  141.4880 C   0  0  0  0  0  2  0  0  0  0  0  0
  185.3680  178.3090  145.0910 N   0  0  0  0  0  0  0  0  0  0  0  0
  185.9310  178.1190  143.8230 C   0  0  0  0  0  0  0  0  0  0  0  0
  184.1640  179.0320  144.8360 C   0  0  0  0  0  3  0  0  0  0  0  0
  189.3800  177.4360  147.7790 C   0  0  0  0  0  3  0  0  0  0  0  0
  190.4450  176.9290  146.9030 C   0  0  0  0  0  0  0  0  0  0  0  0
  190.3770  176.8340  145.5750 C   0  0  0  0  0  3  0  0  0  0  0  0
  187.4420  177.8640  146.2070 C   0  0  0  0  0  0  0  0  0  0  0  0
  189.2960  177.1670  144.6420 C   0  0  0  0  0  3  0  0  0  0  0  0
  188.0530  177.6010  144.8550 C   0  0  0  0  0  0  0  0  0  0  0  0
  191.6980  176.5100  147.5620 C   0  0  0  0  0  0  0  0  0  0  0  0
  192.3380  175.3400  147.1680 O   0  0  0  0  0  0  0  0  0  0  0  0
  192.2040  177.2030  148.4870 O   0  0  0  0  0  1  0  0  0  0  0  0
  187.5120  178.4560  139.9040 N   0  0  0  0  0  2  0  0  0  0  0  0
  190.9210  177.0400  139.2120 C   0  0  0  0  0  3  0  0  0  0  0  0
  188.3110  176.8420  138.2630 C   0  0  0  0  0  3  0  0  0  0  0  0
  191.8710  174.3410  136.8270 C   0  0  0  0  0  0  0  0  0  0  0  0
  190.7150  173.5350  136.3750 C   0  0  0  0  0  0  0  0  0  0  0  0
  191.8080  175.4340  137.6010 C   0  0  0  0  0  3  0  0  0  0  0  0
  190.9160  172.5730  135.5880 O   0  0  0  0  0  0  0  0  0  0  0  0
  190.6450  176.1640  138.1560 C   0  0  0  0  0  0  0  0  0  0  0  0
  193.1360  173.9240  136.4310 O   0  0  0  0  0  1  0  0  0  0  0  0
  188.9390  175.2120  136.5230 C   0  0  0  0  0  2  0  0  0  0  0  0
  189.3210  176.0750  137.6720 C   0  0  0  0  0  0  0  0  0  0  0  0
  189.3190  173.7830  136.8270 C   0  0  0  0  0  2  0  0  0  0  0  0
  188.5910  177.7060  139.3250 C   0  0  0  0  0  0  0  0  0  0  0  0
  189.9060  177.7990  139.7960 C   0  0  0  0  0  3  0  0  0  0  0  0
  1 10  2  0  0  0  0
  1 17  1  0  0  0  0
  2 12  2  0  0  0  0
  4  8  1  0  0  0  0
  4  5  2  0  0  0  0
  5  1  1  0  0  0  0
  6  7  1  0  0  0  0
  6 10  1  0  0  0  0
  7 11  2  0  0  0  0
  8  6  1  0  0  0  0
  9  3  1  0  0  0  0
 10  9  1  0  0  0  0
 11  9  1  0  0  0  0
 13 18  1  0  0  0  0
 13 12  1  0  0  0  0
 14 13  2  0  0  0  0
 15  3  2  0  0  0  0
 15  2  1  0  0  0  0
 16 17  2  0  0  0  0
 16 14  1  0  0  0  0
 17 15  1  0  0  0  0
 18 20  1  0  0  0  0
 19 18  2  0  0  0  0
 21  4  1  0  0  0  0
 22 34  1  0  0  0  0
 23 33  1  0  0  0  0
 24 26  2  0  0  0  0
 25 32  1  0  0  0  0
 25 24  1  0  0  0  0
 26 28  1  0  0  0  0
 27 25  2  0  0  0  0
 28 22  2  0  0  0  0
 29 24  1  0  0  0  0
 30 32  1  0  0  0  0
 30 31  1  0  0  0  0
 31 28  1  0  0  0  0
 31 23  2  0  0  0  0
 33 34  2  0  0  0  0
 33 21  1  0  0  0  0
M  END
>  <MODEL>
2

>  <REMARK>
 VINA RESULT:     -12.0      1.462      2.213
  Name = 
  3 active torsions:
  status: ('A' for Active; 'I' for Inactive)
    1  A    between atoms: C_3  and  C_25
    2  A    between atoms: C_8  and  N_18
    3  A    between atoms: N_18  and  C_30
                            x       y       z     vdW  Elec       q    Type
                         _______ _______ _______ _____ _____    ______ ____

>  <TORSDO>
F 3

$$$$
=
 OpenBabel11052415583D

 34 39  0  0  0  0  0  0  0  0999 V2000
  187.5750  177.7150  145.0910 C   0  0  0  0  0  0  0  0  0  0  0  0
  191.2160  177.2220  143.6240 C   0  0  0  0  0  3  0  0  0  0  0  0
  190.3220  177.3230  145.8130 C   0  0  0  0  0  3  0  0  0  0  0  0
  185.3740  178.6140  145.7850 C   0  0  0  0  0  0  0  0  0  0  0  0
  186.1940  178.1700  144.8070 C   0  0  0  0  0  3  0  0  0  0  0  0
  187.1130  178.0260  147.4250 N   0  0  0  0  0  0  0  0  0  0  0  0
  188.0420  178.1900  148.5040 C   0  0  0  0  0  3  0  0  0  0  0  0
  185.8750  178.7740  147.2110 C   0  0  0  0  0  2  0  0  0  0  0  0
  189.2550  177.4080  146.7580 N   0  0  0  0  0  0  0  0  0  0  0  0
  187.9280  177.6080  146.3590 C   0  0  0  0  0  0  0  0  0  0  0  0
  189.2790  177.8280  148.1210 C   0  0  0  0  0  3  0  0  0  0  0  0
  191.2920  177.1260  142.3020 C   0  0  0  0  0  3  0  0  0  0  0  0
  190.2290  177.0840  141.2890 C   0  0  0  0  0  0  0  0  0  0  0  0
  188.9240  177.2200  141.5280 C   0  0  0  0  0  3  0  0  0  0  0  0
  190.0440  177.3190  144.4960 C   0  0  0  0  0  0  0  0  0  0  0  0
  188.1940  177.4280  142.7820 C   0  0  0  0  0  3  0  0  0  0  0  0
  188.6140  177.4770  144.0470 C   0  0  0  0  0  0  0  0  0  0  0  0
  190.6590  176.8900  139.8890 C   0  0  0  0  0  0  0  0  0  0  0  0
  189.7290  176.5480  138.9130 O   0  0  0  0  0  0  0  0  0  0  0  0
  191.8680  177.0310  139.5600 O   0  0  0  0  0  1  0  0  0  0  0  0
  184.0400  179.0610  145.4970 N   0  0  0  0  0  2  0  0  0  0  0  0
  181.1850  178.7940  143.0710 C   0  0  0  0  0  3  0  0  0  0  0  0
  183.9670  178.6740  143.0920 C   0  0  0  0  0  3  0  0  0  0  0  0
  181.3160  178.4900  139.3600 C   0  0  0  0  0  0  0  0  0  0  0  0
  182.6320  178.8610  138.7950 C   0  0  0  0  0  0  0  0  0  0  0  0
  181.0190  178.4090  140.6650 C   0  0  0  0  0  3  0  0  0  0  0  0
  182.7890  178.8250  137.5460 O   0  0  0  0  0  0  0  0  0  0  0  0
  181.8670  178.5880  141.8660 C   0  0  0  0  0  0  0  0  0  0  0  0
  180.2890  178.2170  138.4650 O   0  0  0  0  0  1  0  0  0  0  0  0
  184.0880  178.2530  140.6660 C   0  0  0  0  0  2  0  0  0  0  0  0
  183.2780  178.5180  141.8840 C   0  0  0  0  0  0  0  0  0  0  0  0
  183.7830  179.3050  139.6280 C   0  0  0  0  0  2  0  0  0  0  0  0
  183.2810  178.8910  144.2890 C   0  0  0  0  0  0  0  0  0  0  0  0
  181.8820  178.9510  144.2690 C   0  0  0  0  0  3  0  0  0  0  0  0
  1 10  2  0  0  0  0
  2 15  1  0  0  0  0
  3  9  1  0  0  0  0
  4  8  1  0  0  0  0
  5  1  1  0  0  0  0
  5  4  2  0  0  0  0
  6  7  1  0  0  0  0
  8  6  1  0  0  0  0
  9 11  1  0  0  0  0
 10  9  1  0  0  0  0
 10  6  1  0  0  0  0
 11  7  2  0  0  0  0
 12  2  2  0  0  0  0
 13 14  2  0  0  0  0
 13 12  1  0  0  0  0
 14 16  1  0  0  0  0
 15  3  2  0  0  0  0
 16 17  2  0  0  0  0
 17 15  1  0  0  0  0
 17  1  1  0  0  0  0
 18 13  1  0  0  0  0
 19 18  2  0  0  0  0
 20 18  1  0  0  0  0
 21  4  1  0  0  0  0
 22 34  1  0  0  0  0
 23 33  1  0  0  0  0
 24 26  2  0  0  0  0
 25 24  1  0  0  0  0
 25 32  1  0  0  0  0
 26 28  1  0  0  0  0
 27 25  2  0  0  0  0
 28 31  1  0  0  0  0
 28 22  2  0  0  0  0
 29 24  1  0  0  0  0
 30 31  1  0  0  0  0
 31 23  2  0  0  0  0
 32 30  1  0  0  0  0
 33 21  1  0  0  0  0
 34 33  2  0  0  0  0
M  END
>  <MODEL>
3

>  <REMARK>
 VINA RESULT:     -11.8      3.644      7.155
  Name = 
  3 active torsions:
  status: ('A' for Active; 'I' for Inactive)
    1  A    between atoms: C_3  and  C_25
    2  A    between atoms: C_8  and  N_18
    3  A    between atoms: N_18  and  C_30
                            x       y       z     vdW  Elec       q    Type
                         _______ _______ _______ _____ _____    ______ ____

>  <TORSDO>
F 3

$$$$
=
 OpenBabel11052415583D

 34 39  0  0  0  0  0  0  0  0999 V2000
  185.4710  178.2290  142.8900 C   0  0  0  0  0  0  0  0  0  0  0  0
  185.5640  178.5550  146.8320 C   0  0  0  0  0  3  0  0  0  0  0  0
  183.8460  178.6810  145.2100 C   0  0  0  0  0  3  0  0  0  0  0  0
  185.7180  178.5820  140.4520 C   0  0  0  0  0  0  0  0  0  0  0  0
  186.2690  178.2580  141.6430 C   0  0  0  0  0  3  0  0  0  0  0  0
  183.5250  178.6900  141.5640 N   0  0  0  0  0  0  0  0  0  0  0  0
  182.2660  179.2290  141.9850 C   0  0  0  0  0  3  0  0  0  0  0  0
  184.2730  179.0450  140.3600 C   0  0  0  0  0  2  0  0  0  0  0  0
  183.3300  178.5920  143.8810 N   0  0  0  0  0  0  0  0  0  0  0  0
  184.1630  178.3780  142.7770 C   0  0  0  0  0  0  0  0  0  0  0  0
  182.1500  179.1680  143.3230 C   0  0  0  0  0  3  0  0  0  0  0  0
  186.7420  178.3210  147.3980 C   0  0  0  0  0  3  0  0  0  0  0  0
  188.0080  177.8700  146.8060 C   0  0  0  0  0  0  0  0  0  0  0  0
  188.2320  177.6800  145.5050 C   0  0  0  0  0  3  0  0  0  0  0  0
  185.1510  178.4400  145.4320 C   0  0  0  0  0  0  0  0  0  0  0  0
  187.3490  177.8370  144.3460 C   0  0  0  0  0  3  0  0  0  0  0  0
  186.0550  178.1520  144.2620 C   0  0  0  0  0  0  0  0  0  0  0  0
  189.1250  177.6280  147.7410 C   0  0  0  0  0  0  0  0  0  0  0  0
  190.0310  176.6010  147.4990 O   0  0  0  0  0  0  0  0  0  0  0  0
  189.2730  178.3440  148.7690 O   0  0  0  0  0  1  0  0  0  0  0  0
  186.5030  178.6150  139.2490 N   0  0  0  0  0  2  0  0  0  0  0  0
  190.1260  177.6440  139.4470 C   0  0  0  0  0  3  0  0  0  0  0  0
  187.8440  177.0300  137.9740 C   0  0  0  0  0  3  0  0  0  0  0  0
  191.9140  174.9620  137.5790 C   0  0  0  0  0  0  0  0  0  0  0  0
  190.9970  173.9790  136.9610 C   0  0  0  0  0  0  0  0  0  0  0  0
  191.5440  176.0810  138.2200 C   0  0  0  0  0  3  0  0  0  0  0  0
  191.4870  173.0080  136.3260 O   0  0  0  0  0  0  0  0  0  0  0  0
  190.2060  176.6750  138.4400 C   0  0  0  0  0  0  0  0  0  0  0  0
  193.2760  174.7010  137.5080 O   0  0  0  0  0  1  0  0  0  0  0  0
  189.0450  175.4000  136.5670 C   0  0  0  0  0  2  0  0  0  0  0  0
  189.0480  176.3760  137.6880 C   0  0  0  0  0  0  0  0  0  0  0  0
  189.5150  174.0580  137.0740 C   0  0  0  0  0  2  0  0  0  0  0  0
  187.7690  177.9870  138.9890 C   0  0  0  0  0  0  0  0  0  0  0  0
  188.9200  178.2890  139.7260 C   0  0  0  0  0  3  0  0  0  0  0  0
  1 17  1  0  0  0  0
  2 12  2  0  0  0  0
  3 15  2  0  0  0  0
  4  5  2  0  0  0  0
  5  1  1  0  0  0  0
  6  7  1  0  0  0  0
  6 10  1  0  0  0  0
  7 11  2  0  0  0  0
  8  4  1  0  0  0  0
  8  6  1  0  0  0  0
  9  3  1  0  0  0  0
 10  1  2  0  0  0  0
 10  9  1  0  0  0  0
 11  9  1  0  0  0  0
 13 12  1  0  0  0  0
 13 18  1  0  0  0  0
 14 13  2  0  0  0  0
 15  2  1  0  0  0  0
 16 14  1  0  0  0  0
 17 16  2  0  0  0  0
 17 15  1  0  0  0  0
 18 20  1  0  0  0  0
 19 18  2  0  0  0  0
 21  4  1  0  0  0  0
 22 34  1  0  0  0  0
 23 33  1  0  0  0  0
 24 26  2  0  0  0  0
 25 32  1  0  0  0  0
 25 24  1  0  0  0  0
 26 28  1  0  0  0  0
 27 25  2  0  0  0  0
 28 22  2  0  0  0  0
 29 24  1  0  0  0  0
 30 32  1  0  0  0  0
 30 31  1  0  0  0  0
 31 23  2  0  0  0  0
 31 28  1  0  0  0  0
 33 21  1  0  0  0  0
 33 34  2  0  0  0  0
M  END
>  <MODEL>
4

>  <REMARK>
 VINA RESULT:     -11.5      1.596      2.571
  Name = 
  3 active torsions:
  status: ('A' for Active; 'I' for Inactive)
    1  A    between atoms: C_3  and  C_25
    2  A    between atoms: C_8  and  N_18
    3  A    between atoms: N_18  and  C_30
                            x       y       z     vdW  Elec       q    Type
                         _______ _______ _______ _____ _____    ______ ____

>  <TORSDO>
F 3

$$$$
=
 OpenBabel11052415583D

 34 39  0  0  0  0  0  0  0  0999 V2000
  185.5620  178.2310  142.7780 C   0  0  0  0  0  0  0  0  0  0  0  0
  185.5360  178.5310  146.7230 C   0  0  0  0  0  3  0  0  0  0  0  0
  183.8640  178.6420  145.0520 C   0  0  0  0  0  3  0  0  0  0  0  0
  185.8740  178.6050  140.3500 C   0  0  0  0  0  0  0  0  0  0  0  0
  186.3950  178.2820  141.5540 C   0  0  0  0  0  3  0  0  0  0  0  0
  183.6480  178.6720  141.3990 N   0  0  0  0  0  0  0  0  0  0  0  0
  182.3690  179.1880  141.7870 C   0  0  0  0  0  3  0  0  0  0  0  0
  184.4250  179.0470  140.2190 C   0  0  0  0  0  2  0  0  0  0  0  0
  183.3880  178.5550  143.7080 N   0  0  0  0  0  0  0  0  0  0  0  0
  184.2560  178.3610  142.6280 C   0  0  0  0  0  0  0  0  0  0  0  0
  182.2150  179.1160  143.1210 C   0  0  0  0  0  3  0  0  0  0  0  0
  186.7010  178.3110  147.3210 C   0  0  0  0  0  3  0  0  0  0  0  0
  187.9900  177.8840  146.7620 C   0  0  0  0  0  0  0  0  0  0  0  0
  188.2550  177.7060  145.4670 C   0  0  0  0  0  3  0  0  0  0  0  0
  185.1660  178.4200  145.3100 C   0  0  0  0  0  0  0  0  0  0  0  0
  187.4030  177.8580  144.2840 C   0  0  0  0  0  3  0  0  0  0  0  0
  186.1080  178.1540  144.1650 C   0  0  0  0  0  0  0  0  0  0  0  0
  189.0840  177.6520  147.7280 C   0  0  0  0  0  0  0  0  0  0  0  0
  190.1250  176.7860  147.4110 O   0  0  0  0  0  0  0  0  0  0  0  0
  189.0900  178.2310  148.8480 O   0  0  0  0  0  1  0  0  0  0  0  0
  186.6920  178.6590  139.1710 N   0  0  0  0  0  2  0  0  0  0  0  0
  188.4360  175.9190  137.2860 C   0  0  0  0  0  3  0  0  0  0  0  0
  188.9390  177.7330  139.3370 C   0  0  0  0  0  3  0  0  0  0  0  0
  192.0000  174.8550  137.5060 C   0  0  0  0  0  0  0  0  0  0  0  0
  192.8640  175.8620  138.1620 C   0  0  0  0  0  0  0  0  0  0  0  0
  190.6660  174.9300  137.3850 C   0  0  0  0  0  3  0  0  0  0  0  0
  194.0960  175.6270  138.2690 O   0  0  0  0  0  0  0  0  0  0  0  0
  189.7010  175.9340  137.8850 C   0  0  0  0  0  0  0  0  0  0  0  0
  192.6200  173.7430  136.9530 O   0  0  0  0  0  1  0  0  0  0  0  0
  191.2410  176.9090  139.6640 C   0  0  0  0  0  2  0  0  0  0  0  0
  189.9470  176.8500  138.9330 C   0  0  0  0  0  0  0  0  0  0  0  0
  192.3570  177.1620  138.6800 C   0  0  0  0  0  2  0  0  0  0  0  0
  187.6830  177.7200  138.7260 C   0  0  0  0  0  0  0  0  0  0  0  0
  187.4390  176.8050  137.6950 C   0  0  0  0  0  3  0  0  0  0  0  0
  1 17  1  0  0  0  0
  2 12  2  0  0  0  0
  3 15  2  0  0  0  0
  4  5  2  0  0  0  0
  5  1  1  0  0  0  0
  6  7  1  0  0  0  0
  6 10  1  0  0  0  0
  7 11  2  0  0  0  0
  8  4  1  0  0  0  0
  8  6  1  0  0  0  0
  9  3  1  0  0  0  0
 10  1  2  0  0  0  0
 10  9  1  0  0  0  0
 11  9  1  0  0  0  0
 13 12  1  0  0  0  0
 13 18  1  0  0  0  0
 14 13  2  0  0  0  0
 15  2  1  0  0  0  0
 16 14  1  0  0  0  0
 17 16  2  0  0  0  0
 17 15  1  0  0  0  0
 18 20  1  0  0  0  0
 19 18  2  0  0  0  0
 21  4  1  0  0  0  0
 22 34  2  0  0  0  0
 22 28  1  0  0  0  0
 24 25  1  0  0  0  0
 25 27  2  0  0  0  0
 25 32  1  0  0  0  0
 26 24  2  0  0  0  0
 26 28  1  0  0  0  0
 28 31  2  0  0  0  0
 29 24  1  0  0  0  0
 31 23  1  0  0  0  0
 31 30  1  0  0  0  0
 32 30  1  0  0  0  0
 33 21  1  0  0  0  0
 33 23  2  0  0  0  0
 34 33  1  0  0  0  0
M  END
>  <MODEL>
5

>  <REMARK>
 VINA RESULT:     -11.2      1.414      1.985
  Name = 
  3 active torsions:
  status: ('A' for Active; 'I' for Inactive)
    1  A    between atoms: C_3  and  C_25
    2  A    between atoms: C_8  and  N_18
    3  A    between atoms: N_18  and  C_30
                            x       y       z     vdW  Elec       q    Type
                         _______ _______ _______ _____ _____    ______ ____

>  <TORSDO>
F 3

$$$$
=
 OpenBabel11052415583D

 34 39  0  0  0  0  0  0  0  0999 V2000
  184.4310  178.8610  142.0760 C   0  0  0  0  0  0  0  0  0  0  0  0
  185.2520  177.9980  138.3030 C   0  0  0  0  0  3  0  0  0  0  0  0
  183.2570  178.4560  139.4900 C   0  0  0  0  0  3  0  0  0  0  0  0
  184.0810  178.7930  144.5260 C   0  0  0  0  0  0  0  0  0  0  0  0
  184.9250  178.8310  143.4720 C   0  0  0  0  0  3  0  0  0  0  0  0
  182.2000  179.0030  142.9510 N   0  0  0  0  0  0  0  0  0  0  0  0
  180.9650  178.6910  142.2980 C   0  0  0  0  0  3  0  0  0  0  0  0
  182.5800  178.6620  144.3210 C   0  0  0  0  0  2  0  0  0  0  0  0
  182.5150  178.8280  140.6520 N   0  0  0  0  0  0  0  0  0  0  0  0
  183.1300  179.0080  141.8970 C   0  0  0  0  0  0  0  0  0  0  0  0
  181.1430  178.5950  140.9680 C   0  0  0  0  0  3  0  0  0  0  0  0
  186.5430  177.9000  138.0070 C   0  0  0  0  0  3  0  0  0  0  0  0
  187.7300  178.1480  138.8350 C   0  0  0  0  0  0  0  0  0  0  0  0
  187.7200  178.4590  140.1320 C   0  0  0  0  0  3  0  0  0  0  0  0
  184.6000  178.3840  139.5560 C   0  0  0  0  0  0  0  0  0  0  0  0
  186.6060  178.6490  141.0650 C   0  0  0  0  0  3  0  0  0  0  0  0
  185.2860  178.6280  140.8750 C   0  0  0  0  0  0  0  0  0  0  0  0
  189.0410  178.0210  138.1660 C   0  0  0  0  0  0  0  0  0  0  0  0
  189.2520  178.6100  136.9240 O   0  0  0  0  0  0  0  0  0  0  0  0
  189.9820  177.3800  138.7060 O   0  0  0  0  0  1  0  0  0  0  0  0
  184.5710  178.7550  145.8760 N   0  0  0  0  0  2  0  0  0  0  0  0
  187.4850  177.9470  148.1030 C   0  0  0  0  0  3  0  0  0  0  0  0
  186.9030  178.2360  145.3960 C   0  0  0  0  0  3  0  0  0  0  0  0
  190.9220  176.8880  147.1340 C   0  0  0  0  0  0  0  0  0  0  0  0
  191.0090  176.4180  145.7340 C   0  0  0  0  0  0  0  0  0  0  0  0
  189.8370  177.4200  147.7140 C   0  0  0  0  0  3  0  0  0  0  0  0
  192.1170  176.0060  145.2990 O   0  0  0  0  0  0  0  0  0  0  0  0
  188.5010  177.7420  147.1630 C   0  0  0  0  0  0  0  0  0  0  0  0
  192.0560  176.7530  147.9260 O   0  0  0  0  0  1  0  0  0  0  0  0
  189.2250  177.7520  144.7210 C   0  0  0  0  0  2  0  0  0  0  0  0
  188.2020  177.9000  145.7910 C   0  0  0  0  0  0  0  0  0  0  0  0
  189.8420  176.3780  144.8110 C   0  0  0  0  0  2  0  0  0  0  0  0
  185.8910  178.4270  146.3400 C   0  0  0  0  0  0  0  0  0  0  0  0
  186.1910  178.2790  147.6990 C   0  0  0  0  0  3  0  0  0  0  0  0
  1  5  1  0  0  0  0
  2 15  1  0  0  0  0
  3 15  2  0  0  0  0
  3  9  1  0  0  0  0
  4 21  1  0  0  0  0
  5  4  2  0  0  0  0
  6  8  1  0  0  0  0
  7  6  1  0  0  0  0
  8  4  1  0  0  0  0
  9 11  1  0  0  0  0
  9 10  1  0  0  0  0
 10  1  2  0  0  0  0
 10  6  1  0  0  0  0
 11  7  2  0  0  0  0
 12  2  2  0  0  0  0
 12 13  1  0  0  0  0
 13 14  2  0  0  0  0
 14 16  1  0  0  0  0
 15 17  1  0  0  0  0
 17 16  2  0  0  0  0
 17  1  1  0  0  0  0
 18 20  1  0  0  0  0
 18 13  1  0  0  0  0
 19 18  2  0  0  0  0
 21 33  1  0  0  0  0
 23 31  2  0  0  0  0
 23 33  1  0  0  0  0
 24 26  2  0  0  0  0
 24 29  1  0  0  0  0
 25 24  1  0  0  0  0
 27 25  2  0  0  0  0
 28 26  1  0  0  0  0
 28 22  2  0  0  0  0
 30 32  1  0  0  0  0
 30 31  1  0  0  0  0
 31 28  1  0  0  0  0
 32 25  1  0  0  0  0
 33 34  2  0  0  0  0
 34 22  1  0  0  0  0
M  END
>  <MODEL>
6

>  <REMARK>
 VINA RESULT:     -11.0      2.083      7.250
  Name = 
  3 active torsions:
  status: ('A' for Active; 'I' for Inactive)
    1  A    between atoms: C_3  and  C_25
    2  A    between atoms: C_8  and  N_18
    3  A    between atoms: N_18  and  C_30
                            x       y       z     vdW  Elec       q    Type
                         _______ _______ _______ _____ _____    ______ ____

>  <TORSDO>
F 3

$$$$
=
 OpenBabel11052415583D

 34 39  0  0  0  0  0  0  0  0999 V2000
  182.9790  178.8530  141.7700 C   0  0  0  0  0  0  0  0  0  0  0  0
  183.1370  177.8410  137.9490 C   0  0  0  0  0  3  0  0  0  0  0  0
  181.3730  178.1920  139.4880 C   0  0  0  0  0  3  0  0  0  0  0  0
  183.1170  178.9020  144.2420 C   0  0  0  0  0  0  0  0  0  0  0  0
  183.7340  178.9510  143.0410 C   0  0  0  0  0  3  0  0  0  0  0  0
  180.9570  178.8510  143.0630 N   0  0  0  0  0  0  0  0  0  0  0  0
  179.6550  178.3920  142.6810 C   0  0  0  0  0  3  0  0  0  0  0  0
  181.6250  178.6280  144.3440 C   0  0  0  0  0  2  0  0  0  0  0  0
  180.8370  178.5670  140.7570 N   0  0  0  0  0  0  0  0  0  0  0  0
  181.6600  178.8740  141.8460 C   0  0  0  0  0  0  0  0  0  0  0  0
  179.5820  178.2330  141.3480 C   0  0  0  0  0  3  0  0  0  0  0  0
  184.3490  177.8390  137.4070 C   0  0  0  0  0  3  0  0  0  0  0  0
  185.6440  178.2410  137.9730 C   0  0  0  0  0  0  0  0  0  0  0  0
  185.8540  178.6270  139.2320 C   0  0  0  0  0  3  0  0  0  0  0  0
  182.7040  178.2420  139.2890 C   0  0  0  0  0  0  0  0  0  0  0  0
  184.9280  178.7740  140.3590 C   0  0  0  0  0  3  0  0  0  0  0  0
  183.6040  178.6250  140.4340 C   0  0  0  0  0  0  0  0  0  0  0  0
  186.8060  178.1900  137.0630 C   0  0  0  0  0  0  0  0  0  0  0  0
  187.5680  179.3310  136.8370 O   0  0  0  0  0  1  0  0  0  0  0  0
  187.1230  177.1180  136.4810 O   0  0  0  0  0  0  0  0  0  0  0  0
  183.8600  178.9900  145.4680 N   0  0  0  0  0  2  0  0  0  0  0  0
  187.0890  178.1560  147.1950 C   0  0  0  0  0  3  0  0  0  0  0  0
  186.0560  178.3660  144.6180 C   0  0  0  0  0  3  0  0  0  0  0  0
  190.2730  176.9340  145.6960 C   0  0  0  0  0  0  0  0  0  0  0  0
  190.1020  176.4100  144.3230 C   0  0  0  0  0  0  0  0  0  0  0  0
  189.3210  177.5280  146.4310 C   0  0  0  0  0  3  0  0  0  0  0  0
  191.1050  175.9410  143.7220 O   0  0  0  0  0  0  0  0  0  0  0  0
  187.9210  177.8780  146.1040 C   0  0  0  0  0  0  0  0  0  0  0  0
  191.5220  176.7860  146.2870 O   0  0  0  0  0  1  0  0  0  0  0  0
  188.2110  177.7710  143.5760 C   0  0  0  0  0  2  0  0  0  0  0  0
  187.3940  177.9970  144.7980 C   0  0  0  0  0  0  0  0  0  0  0  0
  188.7920  176.3790  143.6170 C   0  0  0  0  0  2  0  0  0  0  0  0
  185.2290  178.6300  145.7120 C   0  0  0  0  0  0  0  0  0  0  0  0
  185.7560  178.5210  147.0050 C   0  0  0  0  0  3  0  0  0  0  0  0
  1 10  2  0  0  0  0
  1  5  1  0  0  0  0
  2 15  1  0  0  0  0
  3  9  1  0  0  0  0
  4  8  1  0  0  0  0
  4 21  1  0  0  0  0
  5  4  2  0  0  0  0
  6  8  1  0  0  0  0
  7  6  1  0  0  0  0
  9 11  1  0  0  0  0
  9 10  1  0  0  0  0
 10  6  1  0  0  0  0
 11  7  2  0  0  0  0
 12  2  2  0  0  0  0
 12 13  1  0  0  0  0
 13 14  2  0  0  0  0
 14 16  1  0  0  0  0
 15  3  2  0  0  0  0
 15 17  1  0  0  0  0
 16 17  2  0  0  0  0
 17  1  1  0  0  0  0
 18 13  1  0  0  0  0
 19 18  1  0  0  0  0
 20 18  2  0  0  0  0
 21 33  1  0  0  0  0
 23 31  2  0  0  0  0
 23 33  1  0  0  0  0
 24 29  1  0  0  0  0
 24 26  2  0  0  0  0
 25 24  1  0  0  0  0
 27 25  2  0  0  0  0
 28 26  1  0  0  0  0
 28 22  2  0  0  0  0
 30 32  1  0  0  0  0
 30 31  1  0  0  0  0
 31 28  1  0  0  0  0
 32 25  1  0  0  0  0
 33 34  2  0  0  0  0
 34 22  1  0  0  0  0
M  END
>  <MODEL>
7

>  <REMARK>
 VINA RESULT:     -10.9      3.061      7.621
  Name = 
  3 active torsions:
  status: ('A' for Active; 'I' for Inactive)
    1  A    between atoms: C_3  and  C_25
    2  A    between atoms: C_8  and  N_18
    3  A    between atoms: N_18  and  C_30
                            x       y       z     vdW  Elec       q    Type
                         _______ _______ _______ _____ _____    ______ ____

>  <TORSDO>
F 3

$$$$
=
 OpenBabel11052415583D

 34 39  0  0  0  0  0  0  0  0999 V2000
  187.8220  177.9050  144.3940 C   0  0  0  0  0  0  0  0  0  0  0  0
  184.1610  178.5010  145.7690 C   0  0  0  0  0  3  0  0  0  0  0  0
  186.2810  178.2460  146.7880 C   0  0  0  0  0  3  0  0  0  0  0  0
  189.8780  176.9600  143.3890 C   0  0  0  0  0  0  0  0  0  0  0  0
  188.6370  177.4710  143.2350 C   0  0  0  0  0  3  0  0  0  0  0  0
  189.7090  177.4300  145.7990 N   0  0  0  0  0  0  0  0  0  0  0  0
  189.7310  177.1910  147.2110 C   0  0  0  0  0  3  0  0  0  0  0  0
  190.4510  176.7000  144.7730 C   0  0  0  0  0  2  0  0  0  0  0  0
  187.7010  178.0940  146.7700 N   0  0  0  0  0  0  0  0  0  0  0  0
  188.4110  177.9230  145.5760 C   0  0  0  0  0  0  0  0  0  0  0  0
  188.5730  177.5790  147.7750 C   0  0  0  0  0  3  0  0  0  0  0  0
  183.2260  178.6890  144.8450 C   0  0  0  0  0  3  0  0  0  0  0  0
  183.3420  178.8030  143.3850 C   0  0  0  0  0  0  0  0  0  0  0  0
  184.4640  178.6500  142.6820 C   0  0  0  0  0  3  0  0  0  0  0  0
  185.6090  178.3430  145.6260 C   0  0  0  0  0  0  0  0  0  0  0  0
  185.8340  178.3540  143.1120 C   0  0  0  0  0  3  0  0  0  0  0  0
  186.3640  178.2160  144.3280 C   0  0  0  0  0  0  0  0  0  0  0  0
  182.0970  179.0940  142.6450 C   0  0  0  0  0  0  0  0  0  0  0  0
  181.9830  178.7460  141.3030 O   0  0  0  0  0  0  0  0  0  0  0  0
  181.1250  179.6610  143.2140 O   0  0  0  0  0  1  0  0  0  0  0  0
  190.6560  176.5340  142.2590 N   0  0  0  0  0  2  0  0  0  0  0  0
  191.1000  176.7750  138.5370 C   0  0  0  0  0  3  0  0  0  0  0  0
  189.1550  177.2380  140.4740 C   0  0  0  0  0  3  0  0  0  0  0  0
  188.5550  177.6040  135.9460 C   0  0  0  0  0  0  0  0  0  0  0  0
  187.1660  177.4830  136.4410 C   0  0  0  0  0  0  0  0  0  0  0  0
  189.6640  177.4670  136.6880 C   0  0  0  0  0  3  0  0  0  0  0  0
  186.2160  177.7110  135.6460 O   0  0  0  0  0  0  0  0  0  0  0  0
  189.8380  177.2300  138.1390 C   0  0  0  0  0  0  0  0  0  0  0  0
  188.7320  177.8680  134.5940 O   0  0  0  0  0  1  0  0  0  0  0  0
  187.5050  178.0030  138.8080 C   0  0  0  0  0  2  0  0  0  0  0  0
  188.8580  177.4730  139.1270 C   0  0  0  0  0  0  0  0  0  0  0  0
  186.8260  177.0750  137.8310 C   0  0  0  0  0  2  0  0  0  0  0  0
  190.4130  176.7730  140.8640 C   0  0  0  0  0  0  0  0  0  0  0  0
  191.3850  176.5420  139.8830 C   0  0  0  0  0  3  0  0  0  0  0  0
  1 10  2  0  0  0  0
  4  8  1  0  0  0  0
  5  4  2  0  0  0  0
  5  1  1  0  0  0  0
  6  7  1  0  0  0  0
  7 11  2  0  0  0  0
  8  6  1  0  0  0  0
  9  3  1  0  0  0  0
  9 11  1  0  0  0  0
 10  6  1  0  0  0  0
 10  9  1  0  0  0  0
 12  2  2  0  0  0  0
 13 12  1  0  0  0  0
 14 16  1  0  0  0  0
 14 13  2  0  0  0  0
 15  2  1  0  0  0  0
 15  3  2  0  0  0  0
 16 17  2  0  0  0  0
 17  1  1  0  0  0  0
 17 15  1  0  0  0  0
 18 20  1  0  0  0  0
 18 13  1  0  0  0  0
 19 18  2  0  0  0  0
 21  4  1  0  0  0  0
 22 34  1  0  0  0  0
 23 33  1  0  0  0  0
 24 25  1  0  0  0  0
 24 26  2  0  0  0  0
 25 32  1  0  0  0  0
 26 28  1  0  0  0  0
 27 25  2  0  0  0  0
 28 22  2  0  0  0  0
 28 31  1  0  0  0  0
 29 24  1  0  0  0  0
 30 31  1  0  0  0  0
 31 23  2  0  0  0  0
 32 30  1  0  0  0  0
 33 21  1  0  0  0  0
 34 33  2  0  0  0  0
M  END
>  <MODEL>
8

>  <REMARK>
 VINA RESULT:     -10.8      3.716      5.694
  Name = 
  3 active torsions:
  status: ('A' for Active; 'I' for Inactive)
    1  A    between atoms: C_3  and  C_25
    2  A    between atoms: C_8  and  N_18
    3  A    between atoms: N_18  and  C_30
                            x       y       z     vdW  Elec       q    Type
                         _______ _______ _______ _____ _____    ______ ____

>  <TORSDO>
F 3

$$$$
=
 OpenBabel11052415583D

 34 39  0  0  0  0  0  0  0  0999 V2000
  184.2300  178.4880  141.9330 C   0  0  0  0  0  0  0  0  0  0  0  0
  184.1840  178.6840  145.8840 C   0  0  0  0  0  3  0  0  0  0  0  0
  182.5220  178.8470  144.2080 C   0  0  0  0  0  3  0  0  0  0  0  0
  184.5570  178.9240  139.5180 C   0  0  0  0  0  0  0  0  0  0  0  0
  185.0700  178.5660  140.7150 C   0  0  0  0  0  3  0  0  0  0  0  0
  182.3260  178.9740  140.5560 N   0  0  0  0  0  0  0  0  0  0  0  0
  181.0480  179.4870  140.9510 C   0  0  0  0  0  3  0  0  0  0  0  0
  183.1110  179.3760  139.3910 C   0  0  0  0  0  2  0  0  0  0  0  0
  182.0530  178.7980  142.8600 N   0  0  0  0  0  0  0  0  0  0  0  0
  182.9260  178.6280  141.7790 C   0  0  0  0  0  0  0  0  0  0  0  0
  180.8860  179.3810  142.2820 C   0  0  0  0  0  3  0  0  0  0  0  0
  185.3450  178.4430  146.4830 C   0  0  0  0  0  3  0  0  0  0  0  0
  186.6350  178.0240  145.9200 C   0  0  0  0  0  0  0  0  0  0  0  0
  186.9050  177.8790  144.6220 C   0  0  0  0  0  3  0  0  0  0  0  0
  183.8210  178.6120  144.4680 C   0  0  0  0  0  0  0  0  0  0  0  0
  186.0610  178.0660  143.4390 C   0  0  0  0  0  3  0  0  0  0  0  0
  184.7680  178.3710  143.3200 C   0  0  0  0  0  0  0  0  0  0  0  0
  187.7220  177.7610  146.8850 C   0  0  0  0  0  0  0  0  0  0  0  0
  188.9490  177.2780  146.4430 O   0  0  0  0  0  0  0  0  0  0  0  0
  187.5550  177.9690  148.1180 O   0  0  0  0  0  1  0  0  0  0  0  0
  185.3820  179.0040  138.3450 N   0  0  0  0  0  2  0  0  0  0  0  0
  188.4630  177.2260  137.1390 C   0  0  0  0  0  3  0  0  0  0  0  0
  185.7290  176.7780  137.4170 C   0  0  0  0  0  3  0  0  0  0  0  0
  188.8130  173.6890  136.0240 C   0  0  0  0  0  0  0  0  0  0  0  0
  187.6760  172.8370  136.4380 C   0  0  0  0  0  0  0  0  0  0  0  0
  188.9010  175.0160  136.2000 C   0  0  0  0  0  3  0  0  0  0  0  0
  187.6950  171.6130  136.1420 O   0  0  0  0  0  0  0  0  0  0  0  0
  187.9350  175.9860  136.7630 C   0  0  0  0  0  0  0  0  0  0  0  0
  189.8930  173.0630  135.4160 O   0  0  0  0  0  1  0  0  0  0  0  0
  185.8840  174.5030  136.4790 C   0  0  0  0  0  2  0  0  0  0  0  0
  186.5450  175.7680  136.8970 C   0  0  0  0  0  0  0  0  0  0  0  0
  186.5130  173.3460  137.2150 C   0  0  0  0  0  2  0  0  0  0  0  0
  186.2650  178.0100  137.8020 C   0  0  0  0  0  0  0  0  0  0  0  0
  187.6410  178.2260  137.6590 C   0  0  0  0  0  3  0  0  0  0  0  0
  1 17  1  0  0  0  0
  2 12  2  0  0  0  0
  3 15  2  0  0  0  0
  4  5  2  0  0  0  0
  5  1  1  0  0  0  0
  6  7  1  0  0  0  0
  6 10  1  0  0  0  0
  7 11  2  0  0  0  0
  8  4  1  0  0  0  0
  8  6  1  0  0  0  0
  9  3  1  0  0  0  0
 10  1  2  0  0  0  0
 10  9  1  0  0  0  0
 11  9  1  0  0  0  0
 13 12  1  0  0  0  0
 13 18  1  0  0  0  0
 14 13  2  0  0  0  0
 15  2  1  0  0  0  0
 16 14  1  0  0  0  0
 17 16  2  0  0  0  0
 17 15  1  0  0  0  0
 18 20  1  0  0  0  0
 19 18  2  0  0  0  0
 21  4  1  0  0  0  0
 22 34  1  0  0  0  0
 23 33  1  0  0  0  0
 24 26  2  0  0  0  0
 24 25  1  0  0  0  0
 25 32  1  0  0  0  0
 26 28  1  0  0  0  0
 27 25  2  0  0  0  0
 28 31  1  0  0  0  0
 28 22  2  0  0  0  0
 29 24  1  0  0  0  0
 30 31  1  0  0  0  0
 30 32  1  0  0  0  0
 31 23  2  0  0  0  0
 33 21  1  0  0  0  0
 34 33  2  0  0  0  0
M  END
>  <MODEL>
9

>  <REMARK>
 VINA RESULT:     -10.5      2.953      4.282
  Name = 
  3 active torsions:
  status: ('A' for Active; 'I' for Inactive)
    1  A    between atoms: C_3  and  C_25
    2  A    between atoms: C_8  and  N_18
    3  A    between atoms: N_18  and  C_30
                            x       y       z     vdW  Elec       q    Type
                         _______ _______ _______ _____ _____    ______ ____

>  <TORSDO>
F 3

$$$$
