=
 OpenBabel11052412523D

 25 27  0  0  1  0  0  0  0  0999 V2000
  188.9710  177.6340  142.9270 C   0  0  1  0  0  0  0  0  0  0  0  0
  187.5090  178.0130  143.0410 C   0  0  0  0  0  0  0  0  0  0  0  0
  188.9370  177.8950  140.5300 C   0  0  0  0  0  2  0  0  0  0  0  0
  189.4540  176.5840  143.9330 C   0  0  0  0  0  2  0  0  0  0  0  0
  191.5960  177.1120  141.2910 C   0  0  0  0  0  1  0  0  0  0  0  0
  187.4620  178.3260  140.5000 C   0  0  0  0  0  2  0  0  0  0  0  0
  190.4670  175.7440  143.1600 C   0  0  2  0  0  3  0  0  0  0  0  0
  191.8400  175.8070  143.8140 C   0  0  0  0  0  1  0  0  0  0  0  0
  185.4790  178.8450  142.0010 C   0  0  0  0  0  0  0  0  0  0  0  0
  184.6850  179.2640  140.8110 C   0  0  0  0  0  1  0  0  0  0  0  0
  186.8660  178.0670  144.2830 C   0  0  0  0  0  3  0  0  0  0  0  0
  189.1310  176.9610  141.6390 N   0  0  1  0  0  0  0  0  0  0  0  0
  190.4020  176.2400  141.7050 C   0  0  1  0  0  3  0  0  0  0  0  0
  184.8860  178.8710  143.2250 N   0  0  0  0  0  0  0  0  0  0  0  0
  185.5440  178.5000  144.3550 C   0  0  0  0  0  0  0  0  0  0  0  0
  186.8150  178.4220  141.8760 C   0  0  0  0  0  0  0  0  0  0  0  0
  189.7990  178.7940  142.9670 O   0  0  0  0  0  0  0  0  0  0  0  0
  190.3490  178.9560  144.2510 C   0  0  0  0  0  1  0  0  0  0  0  0
  184.8430  178.5320  145.6670 C   0  0  0  0  0  2  0  0  0  0  0  0
  185.6480  177.7680  146.7040 C   0  0  0  0  0  2  0  0  0  0  0  0
  186.5550  178.7140  147.4790 C   0  0  0  0  0  2  0  0  0  0  0  0
  187.8510  178.0400  147.9170 C   0  0  0  0  0  0  0  0  0  0  0  0
  187.7790  176.6940  147.6180 F   0  0  0  0  0  0  0  0  0  0  0  0
  188.9300  178.5900  147.2510 F   0  0  0  0  0  0  0  0  0  0  0  0
  188.0260  178.1890  149.2810 F   0  0  0  0  0  0  0  0  0  0  0  0
  1 17  1  1  0  0  0
  1  2  1  0  0  0  0
  1  4  1  0  0  0  0
  2 11  1  0  0  0  0
  6  3  1  0  0  0  0
  6 16  1  0  0  0  0
  7  8  1  1  0  0  0
  7  4  1  0  0  0  0
  9 14  2  0  0  0  0
 10  9  1  0  0  0  0
 11 15  2  0  0  0  0
 12  3  1  6  0  0  0
 12 13  1  0  0  0  0
 12  1  1  0  0  0  0
 13  5  1  1  0  0  0
 13  7  1  0  0  0  0
 14 15  1  0  0  0  0
 15 19  1  0  0  0  0
 16  9  1  0  0  0  0
 16  2  2  0  0  0  0
 17 18  1  0  0  0  0
 19 20  1  0  0  0  0
 20 21  1  0  0  0  0
 21 22  1  0  0  0  0
 22 25  1  0  0  0  0
 23 22  1  0  0  0  0
 24 22  1  0  0  0  0
M  END
>  <MODEL>
1

>  <REMARK>
 VINA RESULT:      -7.8      0.000      0.000
  Name = 
  5 active torsions:
  status: ('A' for Active; 'I' for Inactive)
    1  A    between atoms: C_1  and  O_17
    2  A    between atoms: C_2  and  C_21
    3  A    between atoms: C_6  and  C_15
    4  A    between atoms: C_6  and  C_23
    5  A    between atoms: C_15  and  C_21
                            x       y       z     vdW  Elec       q    Type
                         _______ _______ _______ _____ _____    ______ ____

>  <TORSDO>
F 5

$$$$
=
 OpenBabel11052412523D

 25 27  0  0  1  0  0  0  0  0999 V2000
  189.3360  177.2500  143.6220 C   0  0  1  0  0  0  0  0  0  0  0  0
  189.4870  177.3240  145.1280 C   0  0  0  0  0  0  0  0  0  0  0  0
  191.5590  176.3560  143.3610 C   0  0  0  0  0  2  0  0  0  0  0  0
  188.4960  178.3670  142.9940 C   0  0  0  0  0  2  0  0  0  0  0  0
  190.3880  176.5740  140.7450 C   0  0  0  0  0  1  0  0  0  0  0  0
  191.8390  176.3460  144.8720 C   0  0  0  0  0  2  0  0  0  0  0  0
  189.1750  178.6570  141.6570 C   0  0  2  0  0  3  0  0  0  0  0  0
  188.2200  178.4100  140.4970 C   0  0  0  0  0  1  0  0  0  0  0  0
  190.7660  176.8150  147.1270 C   0  0  0  0  0  0  0  0  0  0  0  0
  191.9890  176.3130  147.8160 C   0  0  0  0  0  1  0  0  0  0  0  0
  188.4480  177.7910  145.9410 C   0  0  0  0  0  3  0  0  0  0  0  0
  190.6650  177.4730  143.0560 N   0  0  1  0  0  0  0  0  0  0  0  0
  190.4620  177.8140  141.6480 C   0  0  1  0  0  3  0  0  0  0  0  0
  189.7390  177.2880  147.8810 N   0  0  0  0  0  0  0  0  0  0  0  0
  188.5940  177.7670  147.3260 C   0  0  0  0  0  0  0  0  0  0  0  0
  190.6650  176.8120  145.7230 C   0  0  0  0  0  0  0  0  0  0  0  0
  188.8540  175.9690  143.2250 O   0  0  0  0  0  0  0  0  0  0  0  0
  187.4590  175.9000  143.3890 C   0  0  0  0  0  1  0  0  0  0  0  0
  187.5070  178.2880  148.1970 C   0  0  0  0  0  2  0  0  0  0  0  0
  186.5560  179.1470  147.3830 C   0  0  0  0  0  2  0  0  0  0  0  0
  185.3560  178.3300  146.9250 C   0  0  0  0  0  2  0  0  0  0  0  0
  184.8510  178.7650  145.5540 C   0  0  0  0  0  0  0  0  0  0  0  0
  185.4500  179.9620  145.2150 F   0  0  0  0  0  0  0  0  0  0  0  0
  185.1720  177.8170  144.5990 F   0  0  0  0  0  0  0  0  0  0  0  0
  183.4800  178.9410  145.5860 F   0  0  0  0  0  0  0  0  0  0  0  0
  1 17  1  6  0  0  0
  1  2  1  0  0  0  0
  2 16  2  0  0  0  0
  2 11  1  0  0  0  0
  3  6  1  0  0  0  0
  4  1  1  0  0  0  0
  6 16  1  0  0  0  0
  7  8  1  6  0  0  0
  7  4  1  0  0  0  0
  9 10  1  0  0  0  0
  9 14  2  0  0  0  0
 11 15  2  0  0  0  0
 12  3  1  6  0  0  0
 12  1  1  0  0  0  0
 13  5  1  6  0  0  0
 13  7  1  0  0  0  0
 13 12  1  0  0  0  0
 15 14  1  0  0  0  0
 15 19  1  0  0  0  0
 16  9  1  0  0  0  0
 17 18  1  0  0  0  0
 20 19  1  0  0  0  0
 21 20  1  0  0  0  0
 22 25  1  0  0  0  0
 22 21  1  0  0  0  0
 23 22  1  0  0  0  0
 24 22  1  0  0  0  0
M  END
>  <MODEL>
2

>  <REMARK>
 VINA RESULT:      -7.8      2.602      4.645
  Name = 
  5 active torsions:
  status: ('A' for Active; 'I' for Inactive)
    1  A    between atoms: C_1  and  O_17
    2  A    between atoms: C_2  and  C_21
    3  A    between atoms: C_6  and  C_15
    4  A    between atoms: C_6  and  C_23
    5  A    between atoms: C_15  and  C_21
                            x       y       z     vdW  Elec       q    Type
                         _______ _______ _______ _____ _____    ______ ____

>  <TORSDO>
F 5

$$$$
=
 OpenBabel11052412523D

 25 27  0  0  1  0  0  0  0  0999 V2000
  189.2450  177.4050  144.3630 C   0  0  1  0  0  0  0  0  0  0  0  0
  188.2240  177.8230  145.4010 C   0  0  0  0  0  0  0  0  0  0  0  0
  190.8970  176.9380  146.0550 C   0  0  0  0  0  2  0  0  0  0  0  0
  189.1830  178.1740  143.0390 C   0  0  0  0  0  2  0  0  0  0  0  0
  192.0740  176.3630  143.4960 C   0  0  0  0  0  1  0  0  0  0  0  0
  189.9560  177.3020  147.2140 C   0  0  0  0  0  2  0  0  0  0  0  0
  190.6380  178.3050  142.5990 C   0  0  2  0  0  3  0  0  0  0  0  0
  190.8630  177.6340  141.2500 C   0  0  0  0  0  1  0  0  0  0  0  0
  187.5720  178.0110  147.7310 C   0  0  0  0  0  0  0  0  0  0  0  0
  187.8590  177.9200  149.1920 C   0  0  0  0  0  1  0  0  0  0  0  0
  186.9380  178.2320  145.0330 C   0  0  0  0  0  3  0  0  0  0  0  0
  190.5570  177.7640  144.8960 N   0  0  1  0  0  0  0  0  0  0  0  0
  191.4810  177.7540  143.7620 C   0  0  1  0  0  3  0  0  0  0  0  0
  186.3370  178.4170  147.3330 N   0  0  0  0  0  0  0  0  0  0  0  0
  186.0010  178.5300  146.0200 C   0  0  0  0  0  0  0  0  0  0  0  0
  188.5510  177.6930  146.7730 C   0  0  0  0  0  0  0  0  0  0  0  0
  189.1880  175.9990  144.1360 O   0  0  0  0  0  0  0  0  0  0  0  0
  188.3300  175.7120  143.0590 C   0  0  0  0  0  1  0  0  0  0  0  0
  184.6410  178.9940  145.6390 C   0  0  0  0  0  2  0  0  0  0  0  0
  184.6600  179.5530  144.2260 C   0  0  0  0  0  2  0  0  0  0  0  0
  183.8120  178.6930  143.3000 C   0  0  0  0  0  2  0  0  0  0  0  0
  184.5450  178.3360  142.0120 C   0  0  0  0  0  0  0  0  0  0  0  0
  185.6780  177.6120  142.3270 F   0  0  0  0  0  0  0  0  0  0  0  0
  183.7360  177.5690  141.1930 F   0  0  0  0  0  0  0  0  0  0  0  0
  184.9180  179.4880  141.3430 F   0  0  0  0  0  0  0  0  0  0  0  0
  1 17  1  6  0  0  0
  1 12  1  0  0  0  0
  1  2  1  0  0  0  0
  2 16  1  0  0  0  0
  3  6  1  0  0  0  0
  4  1  1  0  0  0  0
  7  8  1  6  0  0  0
  7  4  1  0  0  0  0
  7 13  1  0  0  0  0
  9 10  1  0  0  0  0
 11  2  2  0  0  0  0
 11 15  1  0  0  0  0
 12  3  1  1  0  0  0
 13  5  1  6  0  0  0
 13 12  1  0  0  0  0
 14  9  1  0  0  0  0
 15 14  2  0  0  0  0
 16  6  1  0  0  0  0
 16  9  2  0  0  0  0
 18 17  1  0  0  0  0
 19 15  1  0  0  0  0
 20 19  1  0  0  0  0
 21 20  1  0  0  0  0
 22 23  1  0  0  0  0
 22 21  1  0  0  0  0
 24 22  1  0  0  0  0
 25 22  1  0  0  0  0
M  END
>  <MODEL>
3

>  <REMARK>
 VINA RESULT:      -7.7      3.001      4.872
  Name = 
  5 active torsions:
  status: ('A' for Active; 'I' for Inactive)
    1  A    between atoms: C_1  and  O_17
    2  A    between atoms: C_2  and  C_21
    3  A    between atoms: C_6  and  C_15
    4  A    between atoms: C_6  and  C_23
    5  A    between atoms: C_15  and  C_21
                            x       y       z     vdW  Elec       q    Type
                         _______ _______ _______ _____ _____    ______ ____

>  <TORSDO>
F 5

$$$$
=
 OpenBabel11052412523D

 25 27  0  0  1  0  0  0  0  0999 V2000
  188.7770  177.5840  144.0190 C   0  0  1  0  0  0  0  0  0  0  0  0
  187.3120  177.9520  144.1460 C   0  0  0  0  0  0  0  0  0  0  0  0
  189.0600  177.5490  146.4130 C   0  0  0  0  0  2  0  0  0  0  0  0
  189.5010  178.1920  142.8130 C   0  0  0  0  0  2  0  0  0  0  0  0
  191.5910  176.8890  145.2180 C   0  0  0  0  0  1  0  0  0  0  0  0
  187.5880  177.8880  146.6910 C   0  0  0  0  0  2  0  0  0  0  0  0
  190.9100  178.4920  143.3190 C   0  0  2  0  0  3  0  0  0  0  0  0
  191.9510  177.7240  142.5160 C   0  0  0  0  0  1  0  0  0  0  0  0
  185.3560  178.2850  145.5440 C   0  0  0  0  0  0  0  0  0  0  0  0
  184.6890  178.3920  146.8730 C   0  0  0  0  0  1  0  0  0  0  0  0
  186.5050  178.1260  143.0170 C   0  0  0  0  0  3  0  0  0  0  0  0
  189.4620  178.1880  145.1600 N   0  0  1  0  0  0  0  0  0  0  0  0
  190.8860  178.1970  144.8290 C   0  0  1  0  0  3  0  0  0  0  0  0
  184.6080  178.4600  144.4220 N   0  0  0  0  0  0  0  0  0  0  0  0
  185.1450  178.3830  143.1750 C   0  0  0  0  0  0  0  0  0  0  0  0
  186.7330  178.0170  145.4370 C   0  0  0  0  0  0  0  0  0  0  0  0
  188.9460  176.1690  144.0520 O   0  0  0  0  0  0  0  0  0  0  0  0
  189.0800  175.6630  142.7470 C   0  0  0  0  0  1  0  0  0  0  0  0
  184.2850  178.5970  141.9810 C   0  0  0  0  0  2  0  0  0  0  0  0
  185.1450  178.9340  140.7750 C   0  0  0  0  0  2  0  0  0  0  0  0
  184.2730  179.2870  139.5790 C   0  0  0  0  0  2  0  0  0  0  0  0
  184.0940  178.1080  138.6280 C   0  0  0  0  0  0  0  0  0  0  0  0
  185.3180  177.7920  138.0720 F   0  0  0  0  0  0  0  0  0  0  0  0
  183.6130  177.0060  139.3100 F   0  0  0  0  0  0  0  0  0  0  0  0
  183.2130  178.4440  137.6150 F   0  0  0  0  0  0  0  0  0  0  0  0
  1 17  1  1  0  0  0
  1  2  1  0  0  0  0
  1 12  1  0  0  0  0
  2 16  1  0  0  0  0
  3  6  1  0  0  0  0
  4  7  1  0  0  0  0
  4  1  1  0  0  0  0
  7  8  1  6  0  0  0
  7 13  1  0  0  0  0
  9 10  1  0  0  0  0
 11 15  1  0  0  0  0
 11  2  2  0  0  0  0
 12  3  1  1  0  0  0
 13 12  1  0  0  0  0
 13  5  1  6  0  0  0
 14  9  1  0  0  0  0
 15 14  2  0  0  0  0
 16  9  2  0  0  0  0
 16  6  1  0  0  0  0
 18 17  1  0  0  0  0
 19 15  1  0  0  0  0
 20 19  1  0  0  0  0
 21 20  1  0  0  0  0
 22 24  1  0  0  0  0
 22 21  1  0  0  0  0
 23 22  1  0  0  0  0
 25 22  1  0  0  0  0
M  END
>  <MODEL>
4

>  <REMARK>
 VINA RESULT:      -7.5      3.826      5.651
  Name = 
  5 active torsions:
  status: ('A' for Active; 'I' for Inactive)
    1  A    between atoms: C_1  and  O_17
    2  A    between atoms: C_2  and  C_21
    3  A    between atoms: C_6  and  C_15
    4  A    between atoms: C_6  and  C_23
    5  A    between atoms: C_15  and  C_21
                            x       y       z     vdW  Elec       q    Type
                         _______ _______ _______ _____ _____    ______ ____

>  <TORSDO>
F 5

$$$$
=
 OpenBabel11052412523D

 25 27  0  0  1  0  0  0  0  0999 V2000
  188.1680  177.6980  143.9250 C   0  0  1  0  0  0  0  0  0  0  0  0
  186.8080  178.1580  143.4400 C   0  0  0  0  0  0  0  0  0  0  0  0
  187.4210  177.6350  146.2160 C   0  0  0  0  0  2  0  0  0  0  0  0
  189.3630  178.2640  143.1510 C   0  0  0  0  0  2  0  0  0  0  0  0
  190.1780  176.8210  146.1680 C   0  0  0  0  0  1  0  0  0  0  0  0
  185.9890  178.0660  145.8650 C   0  0  0  0  0  2  0  0  0  0  0  0
  190.4450  178.4710  144.2070 C   0  0  2  0  0  3  0  0  0  0  0  0
  191.6820  177.6420  143.8890 C   0  0  0  0  0  1  0  0  0  0  0  0
  184.4680  178.6090  143.9030 C   0  0  0  0  0  0  0  0  0  0  0  0
  183.3130  178.7520  144.8350 C   0  0  0  0  0  1  0  0  0  0  0  0
  186.5590  178.3870  142.0830 C   0  0  0  0  0  3  0  0  0  0  0  0
  188.3460  178.2530  145.2650 N   0  0  1  0  0  0  0  0  0  0  0  0
  189.7760  178.1720  145.5600 C   0  0  1  0  0  3  0  0  0  0  0  0
  184.2690  178.8350  142.5770 N   0  0  0  0  0  0  0  0  0  0  0  0
  185.2740  178.7290  141.6670 C   0  0  0  0  0  0  0  0  0  0  0  0
  185.7460  178.2540  144.3730 C   0  0  0  0  0  0  0  0  0  0  0  0
  188.2280  176.2750  143.9830 O   0  0  0  0  0  0  0  0  0  0  0  0
  188.8770  175.7670  142.8430 C   0  0  0  0  0  1  0  0  0  0  0  0
  185.0060  179.0030  140.2300 C   0  0  0  0  0  2  0  0  0  0  0  0
  183.8170  178.1840  139.7590 C   0  0  0  0  0  2  0  0  0  0  0  0
  183.2370  178.7720  138.4800 C   0  0  0  0  0  2  0  0  0  0  0  0
  182.2740  179.9210  138.7590 C   0  0  0  0  0  0  0  0  0  0  0  0
  181.7280  179.7530  140.0150 F   0  0  0  0  0  0  0  0  0  0  0  0
  182.9420  181.1310  138.7180 F   0  0  0  0  0  0  0  0  0  0  0  0
  181.2560  179.9250  137.8220 F   0  0  0  0  0  0  0  0  0  0  0  0
  1 17  1  1  0  0  0
  1 12  1  0  0  0  0
  2  1  1  0  0  0  0
  2 16  1  0  0  0  0
  4  1  1  0  0  0  0
  4  7  1  0  0  0  0
  6  3  1  0  0  0  0
  7  8  1  6  0  0  0
  7 13  1  0  0  0  0
  9 16  2  0  0  0  0
  9 10  1  0  0  0  0
 11  2  2  0  0  0  0
 12 13  1  0  0  0  0
 12  3  1  1  0  0  0
 13  5  1  6  0  0  0
 14  9  1  0  0  0  0
 15 11  1  0  0  0  0
 15 14  2  0  0  0  0
 16  6  1  0  0  0  0
 18 17  1  0  0  0  0
 19 15  1  0  0  0  0
 20 19  1  0  0  0  0
 21 22  1  0  0  0  0
 21 20  1  0  0  0  0
 22 23  1  0  0  0  0
 24 22  1  0  0  0  0
 25 22  1  0  0  0  0
M  END
>  <MODEL>
5

>  <REMARK>
 VINA RESULT:      -7.3      4.202      6.009
  Name = 
  5 active torsions:
  status: ('A' for Active; 'I' for Inactive)
    1  A    between atoms: C_1  and  O_17
    2  A    between atoms: C_2  and  C_21
    3  A    between atoms: C_6  and  C_15
    4  A    between atoms: C_6  and  C_23
    5  A    between atoms: C_15  and  C_21
                            x       y       z     vdW  Elec       q    Type
                         _______ _______ _______ _____ _____    ______ ____

>  <TORSDO>
F 5

$$$$
=
 OpenBabel11052412523D

 25 27  0  0  1  0  0  0  0  0999 V2000
  188.1720  177.7040  143.9470 C   0  0  1  0  0  0  0  0  0  0  0  0
  186.7900  178.1650  143.5290 C   0  0  0  0  0  0  0  0  0  0  0  0
  187.5340  177.6280  146.2710 C   0  0  0  0  0  2  0  0  0  0  0  0
  189.3290  178.2760  143.1210 C   0  0  0  0  0  2  0  0  0  0  0  0
  190.2870  176.8180  146.0890 C   0  0  0  0  0  1  0  0  0  0  0  0
  186.0860  178.0580  145.9890 C   0  0  0  0  0  2  0  0  0  0  0  0
  190.4590  178.4790  144.1260 C   0  0  2  0  0  3  0  0  0  0  0  0
  191.6810  177.6540  143.7470 C   0  0  0  0  0  1  0  0  0  0  0  0
  184.4740  178.6090  144.1040 C   0  0  0  0  0  0  0  0  0  0  0  0
  183.3640  178.7450  145.0900 C   0  0  0  0  0  1  0  0  0  0  0  0
  186.4780  178.4000  142.1860 C   0  0  0  0  0  3  0  0  0  0  0  0
  188.4120  178.2520  145.2810 N   0  0  1  0  0  0  0  0  0  0  0  0
  189.8540  178.1730  145.5070 C   0  0  1  0  0  3  0  0  0  0  0  0
  184.2130  178.8420  142.7900 N   0  0  0  0  0  0  0  0  0  0  0  0
  185.1740  178.7420  141.8330 C   0  0  0  0  0  0  0  0  0  0  0  0
  185.7730  178.2540  144.5110 C   0  0  0  0  0  0  0  0  0  0  0  0
  188.2370  176.2810  143.9950 O   0  0  0  0  0  0  0  0  0  0  0  0
  188.8750  175.7830  142.8450 C   0  0  0  0  0  1  0  0  0  0  0  0
  184.8390  179.0230  140.4120 C   0  0  0  0  0  2  0  0  0  0  0  0
  185.9950  178.6160  139.5150 C   0  0  0  0  0  2  0  0  0  0  0  0
  185.4900  178.2500  138.1270 C   0  0  0  0  0  2  0  0  0  0  0  0
  186.6270  177.8900  137.1760 C   0  0  0  0  0  0  0  0  0  0  0  0
  186.0920  177.3920  136.0050 F   0  0  0  0  0  0  0  0  0  0  0  0
  187.3830  179.0110  136.8820 F   0  0  0  0  0  0  0  0  0  0  0  0
  187.4370  176.9250  137.7470 F   0  0  0  0  0  0  0  0  0  0  0  0
  1 17  1  1  0  0  0
  1 12  1  0  0  0  0
  2  1  1  0  0  0  0
  2 16  1  0  0  0  0
  4  1  1  0  0  0  0
  4  7  1  0  0  0  0
  6  3  1  0  0  0  0
  7  8  1  6  0  0  0
  7 13  1  0  0  0  0
  9 16  2  0  0  0  0
  9 10  1  0  0  0  0
 11  2  2  0  0  0  0
 12 13  1  0  0  0  0
 12  3  1  1  0  0  0
 13  5  1  6  0  0  0
 14  9  1  0  0  0  0
 15 11  1  0  0  0  0
 15 14  2  0  0  0  0
 16  6  1  0  0  0  0
 18 17  1  0  0  0  0
 19 15  1  0  0  0  0
 20 19  1  0  0  0  0
 21 20  1  0  0  0  0
 22 25  1  0  0  0  0
 22 21  1  0  0  0  0
 23 22  1  0  0  0  0
 24 22  1  0  0  0  0
M  END
>  <MODEL>
6

>  <REMARK>
 VINA RESULT:      -7.3      4.078      5.942
  Name = 
  5 active torsions:
  status: ('A' for Active; 'I' for Inactive)
    1  A    between atoms: C_1  and  O_17
    2  A    between atoms: C_2  and  C_21
    3  A    between atoms: C_6  and  C_15
    4  A    between atoms: C_6  and  C_23
    5  A    between atoms: C_15  and  C_21
                            x       y       z     vdW  Elec       q    Type
                         _______ _______ _______ _____ _____    ______ ____

>  <TORSDO>
F 5

$$$$
=
 OpenBabel11052412523D

 25 27  0  0  1  0  0  0  0  0999 V2000
  188.8380  177.5180  143.3900 C   0  0  1  0  0  0  0  0  0  0  0  0
  188.1320  177.9750  142.1290 C   0  0  0  0  0  0  0  0  0  0  0  0
  186.8350  177.7780  144.7060 C   0  0  0  0  0  2  0  0  0  0  0  0
  190.3110  177.9270  143.4980 C   0  0  0  0  0  2  0  0  0  0  0  0
  188.9170  176.8400  146.4520 C   0  0  0  0  0  1  0  0  0  0  0  0
  185.9870  178.2270  143.5060 C   0  0  0  0  0  2  0  0  0  0  0  0
  190.5250  178.2160  144.9810 C   0  0  2  0  0  3  0  0  0  0  0  0
  191.5880  177.2970  145.5680 C   0  0  0  0  0  1  0  0  0  0  0  0
  186.0770  178.5870  140.9920 C   0  0  0  0  0  0  0  0  0  0  0  0
  184.6190  178.8990  140.9820 C   0  0  0  0  0  1  0  0  0  0  0  0
  188.8030  178.0420  140.9040 C   0  0  0  0  0  3  0  0  0  0  0  0
  188.2120  178.2290  144.5030 N   0  0  1  0  0  0  0  0  0  0  0  0
  189.1340  178.1210  145.6330 C   0  0  1  0  0  3  0  0  0  0  0  0
  186.7670  178.6530  139.8220 N   0  0  0  0  0  0  0  0  0  0  0  0
  188.0990  178.3870  139.7520 C   0  0  0  0  0  0  0  0  0  0  0  0
  186.7410  178.2370  142.1820 C   0  0  0  0  0  0  0  0  0  0  0  0
  188.6870  176.1130  143.5720 O   0  0  0  0  0  0  0  0  0  0  0  0
  189.7850  175.4280  143.0230 C   0  0  0  0  0  1  0  0  0  0  0  0
  188.8090  178.4900  138.4500 C   0  0  0  0  0  2  0  0  0  0  0  0
  189.0870  177.1020  137.8990 C   0  0  0  0  0  2  0  0  0  0  0  0
  190.5390  176.9840  137.4570 C   0  0  0  0  0  2  0  0  0  0  0  0
  191.3790  176.1810  138.4440 C   0  0  0  0  0  0  0  0  0  0  0  0
  192.5490  176.8690  138.7000 F   0  0  0  0  0  0  0  0  0  0  0  0
  190.6930  176.0070  139.6320 F   0  0  0  0  0  0  0  0  0  0  0  0
  191.6920  174.9460  137.9070 F   0  0  0  0  0  0  0  0  0  0  0  0
  1  4  1  0  0  0  0
  1 17  1  1  0  0  0
  1 12  1  0  0  0  0
  2 16  1  0  0  0  0
  2  1  1  0  0  0  0
  4  7  1  0  0  0  0
  6  3  1  0  0  0  0
  7  8  1  1  0  0  0
  7 13  1  0  0  0  0
  9 16  2  0  0  0  0
 10  9  1  0  0  0  0
 11  2  2  0  0  0  0
 12  3  1  1  0  0  0
 12 13  1  0  0  0  0
 13  5  1  6  0  0  0
 14  9  1  0  0  0  0
 15 14  2  0  0  0  0
 15 11  1  0  0  0  0
 16  6  1  0  0  0  0
 18 17  1  0  0  0  0
 19 15  1  0  0  0  0
 20 19  1  0  0  0  0
 21 20  1  0  0  0  0
 21 22  1  0  0  0  0
 22 23  1  0  0  0  0
 22 24  1  0  0  0  0
 25 22  1  0  0  0  0
M  END
>  <MODEL>
7

>  <REMARK>
 VINA RESULT:      -7.3      3.761      6.020
  Name = 
  5 active torsions:
  status: ('A' for Active; 'I' for Inactive)
    1  A    between atoms: C_1  and  O_17
    2  A    between atoms: C_2  and  C_21
    3  A    between atoms: C_6  and  C_15
    4  A    between atoms: C_6  and  C_23
    5  A    between atoms: C_15  and  C_21
                            x       y       z     vdW  Elec       q    Type
                         _______ _______ _______ _____ _____    ______ ____

>  <TORSDO>
F 5

$$$$
=
 OpenBabel11052412523D

 25 27  0  0  1  0  0  0  0  0999 V2000
  188.8880  177.8950  142.8050 C   0  0  1  0  0  0  0  0  0  0  0  0
  188.0600  177.8040  144.0710 C   0  0  0  0  0  0  0  0  0  0  0  0
  186.9890  178.6320  141.5160 C   0  0  0  0  0  2  0  0  0  0  0  0
  189.9930  176.8410  142.6700 C   0  0  0  0  0  2  0  0  0  0  0  0
  189.2540  178.5060  139.7500 C   0  0  0  0  0  1  0  0  0  0  0  0
  186.0390  178.6170  142.7240 C   0  0  0  0  0  2  0  0  0  0  0  0
  190.0330  176.5100  141.1810 C   0  0  2  0  0  3  0  0  0  0  0  0
  191.4000  176.8280  140.5890 C   0  0  0  0  0  1  0  0  0  0  0  0
  185.9690  178.2160  145.2320 C   0  0  0  0  0  0  0  0  0  0  0  0
  184.5360  178.6280  145.2600 C   0  0  0  0  0  1  0  0  0  0  0  0
  188.6300  177.4080  145.2860 C   0  0  0  0  0  3  0  0  0  0  0  0
  187.9920  177.5820  141.6930 N   0  0  1  0  0  0  0  0  0  0  0  0
  188.8470  177.2610  140.5510 C   0  0  1  0  0  3  0  0  0  0  0  0
  186.5550  177.8120  146.3900 N   0  0  0  0  0  0  0  0  0  0  0  0
  187.8550  177.4170  146.4440 C   0  0  0  0  0  0  0  0  0  0  0  0
  186.7100  178.2310  144.0360 C   0  0  0  0  0  0  0  0  0  0  0  0
  189.4170  179.2080  142.6400 O   0  0  0  0  0  0  0  0  0  0  0  0
  190.6140  179.3470  143.3640 C   0  0  0  0  0  1  0  0  0  0  0  0
  188.4430  176.9700  147.7340 C   0  0  0  0  0  2  0  0  0  0  0  0
  189.9490  177.1670  147.7150 C   0  0  0  0  0  2  0  0  0  0  0  0
  190.6600  175.8330  147.5380 C   0  0  0  0  0  2  0  0  0  0  0  0
  192.0390  175.9940  146.9060 C   0  0  0  0  0  0  0  0  0  0  0  0
  192.9740  176.1630  147.9070 F   0  0  0  0  0  0  0  0  0  0  0  0
  192.3670  174.8690  146.1710 F   0  0  0  0  0  0  0  0  0  0  0  0
  192.0570  177.1040  146.0810 F   0  0  0  0  0  0  0  0  0  0  0  0
  1 17  1  6  0  0  0
  1  2  1  0  0  0  0
  2 11  1  0  0  0  0
  3  6  1  0  0  0  0
  4  1  1  0  0  0  0
  6 16  1  0  0  0  0
  7  8  1  6  0  0  0
  7  4  1  0  0  0  0
  9 10  1  0  0  0  0
  9 14  2  0  0  0  0
 11 15  2  0  0  0  0
 12  3  1  6  0  0  0
 12  1  1  0  0  0  0
 13  5  1  1  0  0  0
 13  7  1  0  0  0  0
 13 12  1  0  0  0  0
 14 15  1  0  0  0  0
 15 19  1  0  0  0  0
 16  2  2  0  0  0  0
 16  9  1  0  0  0  0
 17 18  1  0  0  0  0
 20 19  1  0  0  0  0
 21 20  1  0  0  0  0
 22 21  1  0  0  0  0
 22 23  1  0  0  0  0
 24 22  1  0  0  0  0
 25 22  1  0  0  0  0
M  END
>  <MODEL>
8

>  <REMARK>
 VINA RESULT:      -7.3      2.215      3.374
  Name = 
  5 active torsions:
  status: ('A' for Active; 'I' for Inactive)
    1  A    between atoms: C_1  and  O_17
    2  A    between atoms: C_2  and  C_21
    3  A    between atoms: C_6  and  C_15
    4  A    between atoms: C_6  and  C_23
    5  A    between atoms: C_15  and  C_21
                            x       y       z     vdW  Elec       q    Type
                         _______ _______ _______ _____ _____    ______ ____

>  <TORSDO>
F 5

$$$$
=
 OpenBabel11052412523D

 25 27  0  0  1  0  0  0  0  0999 V2000
  188.8690  177.5280  144.1440 C   0  0  1  0  0  0  0  0  0  0  0  0
  187.4010  177.8840  144.2640 C   0  0  0  0  0  0  0  0  0  0  0  0
  189.1320  177.4560  146.5390 C   0  0  0  0  0  2  0  0  0  0  0  0
  189.6000  178.1600  142.9550 C   0  0  0  0  0  2  0  0  0  0  0  0
  191.6770  176.8330  145.3570 C   0  0  0  0  0  1  0  0  0  0  0  0
  187.6550  177.7810  146.8100 C   0  0  0  0  0  2  0  0  0  0  0  0
  191.0020  178.4610  143.4780 C   0  0  2  0  0  3  0  0  0  0  0  0
  192.0560  177.7130  142.6720 C   0  0  0  0  0  1  0  0  0  0  0  0
  185.4300  178.1810  145.6490 C   0  0  0  0  0  0  0  0  0  0  0  0
  184.7510  178.2620  146.9740 C   0  0  0  0  0  1  0  0  0  0  0  0
  186.6030  178.0700  143.1300 C   0  0  0  0  0  3  0  0  0  0  0  0
  189.5400  178.1190  145.3000 N   0  0  1  0  0  0  0  0  0  0  0  0
  190.9670  178.1420  144.9830 C   0  0  1  0  0  3  0  0  0  0  0  0
  184.6910  178.3690  144.5230 N   0  0  0  0  0  0  0  0  0  0  0  0
  185.2400  178.3150  143.2800 C   0  0  0  0  0  0  0  0  0  0  0  0
  186.8100  177.9250  145.5500 C   0  0  0  0  0  0  0  0  0  0  0  0
  189.0480  176.1140  144.1560 O   0  0  0  0  0  0  0  0  0  0  0  0
  189.1590  175.6250  142.8420 C   0  0  0  0  0  1  0  0  0  0  0  0
  184.3890  178.5430  142.0820 C   0  0  0  0  0  2  0  0  0  0  0  0
  182.9390  178.7140  142.5000 C   0  0  0  0  0  2  0  0  0  0  0  0
  182.0100  178.4700  141.3190 C   0  0  0  0  0  2  0  0  0  0  0  0
  180.5610  178.8160  141.6440 C   0  0  0  0  0  0  0  0  0  0  0  0
  179.8250  178.8030  140.4750 F   0  0  0  0  0  0  0  0  0  0  0  0
  180.0280  177.8880  142.5200 F   0  0  0  0  0  0  0  0  0  0  0  0
  180.4890  180.0770  142.2070 F   0  0  0  0  0  0  0  0  0  0  0  0
  1 17  1  6  0  0  0
  1  2  1  0  0  0  0
  1 12  1  0  0  0  0
  2 16  1  0  0  0  0
  3  6  1  0  0  0  0
  4  7  1  0  0  0  0
  4  1  1  0  0  0  0
  7  8  1  6  0  0  0
  7 13  1  0  0  0  0
  9 10  1  0  0  0  0
 11 15  1  0  0  0  0
 11  2  2  0  0  0  0
 12  3  1  1  0  0  0
 13 12  1  0  0  0  0
 13  5  1  6  0  0  0
 14  9  1  0  0  0  0
 15 14  2  0  0  0  0
 16  9  2  0  0  0  0
 16  6  1  0  0  0  0
 18 17  1  0  0  0  0
 19 20  1  0  0  0  0
 19 15  1  0  0  0  0
 21 22  1  0  0  0  0
 21 20  1  0  0  0  0
 22 25  1  0  0  0  0
 22 24  1  0  0  0  0
 23 22  1  0  0  0  0
M  END
>  <MODEL>
9

>  <REMARK>
 VINA RESULT:      -7.3      3.914      5.509
  Name = 
  5 active torsions:
  status: ('A' for Active; 'I' for Inactive)
    1  A    between atoms: C_1  and  O_17
    2  A    between atoms: C_2  and  C_21
    3  A    between atoms: C_6  and  C_15
    4  A    between atoms: C_6  and  C_23
    5  A    between atoms: C_15  and  C_21
                            x       y       z     vdW  Elec       q    Type
                         _______ _______ _______ _____ _____    ______ ____

>  <TORSDO>
F 5

$$$$
