=
 OpenBabel11052415533D

 34 39  0  0  1  0  0  0  0  0999 V2000
  188.2160  176.8470  138.4530 C   0  0  2  0  0  3  0  0  0  0  0  0
  186.3510  177.5260  135.0620 C   0  0  0  0  0  2  0  0  0  0  0  0
  188.5830  176.6670  135.5980 O   0  0  0  0  0  0  0  0  0  0  0  0
  190.4940  176.7470  140.1100 C   0  0  0  0  0  2  0  0  0  0  0  0
  188.3500  178.0650  139.3580 C   0  0  0  0  0  2  0  0  0  0  0  0
  190.6670  176.4850  138.6430 C   0  0  0  0  0  0  0  0  0  0  0  0
  192.0360  175.9350  136.7200 C   0  0  0  0  0  3  0  0  0  0  0  0
  191.9080  176.1490  138.1010 C   0  0  0  0  0  3  0  0  0  0  0  0
  189.5160  177.9200  140.3710 C   0  0  1  0  0  3  0  0  0  0  0  0
  189.6810  176.4240  136.4260 C   0  0  0  0  0  0  0  0  0  0  0  0
  189.5430  176.5550  137.8130 C   0  0  0  0  0  0  0  0  0  0  0  0
  190.9240  176.0850  135.8830 C   0  0  0  0  0  3  0  0  0  0  0  0
  185.9030  176.1450  134.5940 C   0  0  0  0  0  2  0  0  0  0  0  0
  184.7630  175.5620  135.4300 C   0  0  2  0  0  3  0  0  0  0  0  0
  184.9080  175.7660  136.9440 C   0  0  0  0  0  2  0  0  0  0  0  0
  187.4800  177.4300  136.0890 C   0  0  2  0  0  3  0  0  0  0  0  0
  186.3360  175.5870  137.4400 C   0  0  0  0  0  2  0  0  0  0  0  0
  187.0310  176.9430  137.4820 C   0  0  1  0  0  3  0  0  0  0  0  0
  187.1320  177.8980  143.3570 C   0  0  0  0  0  3  0  0  0  0  0  0
  189.9170  177.8030  142.8380 C   0  0  0  0  0  3  0  0  0  0  0  0
  189.1270  177.6960  146.4560 N   0  0  0  0  0  0  0  0  0  0  0  0
  189.4070  177.6450  147.8600 C   0  0  0  0  0  0  0  0  0  0  0  0
  187.7850  177.7990  145.8710 C   0  0  0  0  0  2  0  0  0  0  0  0
  190.5830  177.4520  148.2680 O   0  0  0  0  0  0  0  0  0  0  0  0
  188.0580  177.8190  144.3950 C   0  0  0  0  0  0  0  0  0  0  0  0
  188.3110  177.7900  148.8550 C   0  0  0  0  0  1  0  0  0  0  0  0
  190.0860  177.7090  145.4020 C   0  0  0  0  0  0  0  0  0  0  0  0
  189.4080  177.7750  144.1350 C   0  0  0  0  0  0  0  0  0  0  0  0
  191.3350  177.6950  145.5690 O   0  0  0  0  0  0  0  0  0  0  0  0
  189.0020  177.8850  141.7740 C   0  0  0  0  0  0  0  0  0  0  0  0
  187.6130  177.9260  142.0370 C   0  0  0  0  0  3  0  0  0  0  0  0
  184.6010  174.0860  135.0900 C   0  0  0  0  0  2  0  0  0  0  0  0
  183.3030  173.3180  136.1060 S   0  0  0  0  0  0  0  0  0  0  0  0
  184.5010  172.2470  136.9480 C   0  0  0  0  0  1  0  0  0  0  0  0
  1  5  1  6  0  0  0
  3 16  1  0  0  0  0
  3 10  1  0  0  0  0
  4  9  1  0  0  0  0
  5  9  1  0  0  0  0
  6  4  1  0  0  0  0
  7  8  2  0  0  0  0
  8  6  1  0  0  0  0
  9 30  1  1  0  0  0
 10 11  1  0  0  0  0
 11  1  1  0  0  0  0
 11  6  2  0  0  0  0
 12 10  2  0  0  0  0
 12  7  1  0  0  0  0
 13  2  1  0  0  0  0
 13 14  1  0  0  0  0
 14 32  1  1  0  0  0
 14 15  1  0  0  0  0
 15 17  1  0  0  0  0
 16  2  1  6  0  0  0
 16 18  1  0  0  0  0
 18 17  1  6  0  0  0
 18  1  1  0  0  0  0
 19 25  1  0  0  0  0
 20 28  1  0  0  0  0
 21 22  1  0  0  0  0
 22 24  2  0  0  0  0
 22 26  1  0  0  0  0
 23 21  1  0  0  0  0
 25 23  1  0  0  0  0
 27 29  2  0  0  0  0
 27 21  1  0  0  0  0
 28 25  2  0  0  0  0
 28 27  1  0  0  0  0
 30 31  1  0  0  0  0
 30 20  2  0  0  0  0
 31 19  2  0  0  0  0
 32 33  1  0  0  0  0
 33 34  1  0  0  0  0
M  END
>  <MODEL>
1

>  <REMARK>
 VINA RESULT:      -8.8      0.000      0.000
  Name = 
  3 active torsions:
  status: ('A' for Active; 'I' for Inactive)
    1  A    between atoms: C_3  and  S_13
    2  A    between atoms: C_3  and  C_25
    3  A    between atoms: C_18  and  C_30
                            x       y       z     vdW  Elec       q    Type
                         _______ _______ _______ _____ _____    ______ ____

>  <TORSDO>
F 3

$$$$
=
 OpenBabel11052415533D

 34 39  0  0  1  0  0  0  0  0999 V2000
  183.0500  177.4080  139.8460 C   0  0  2  0  0  3  0  0  0  0  0  0
  179.6410  177.1810  137.9060 C   0  0  0  0  0  2  0  0  0  0  0  0
  181.9800  177.1910  137.1760 O   0  0  0  0  0  0  0  0  0  0  0  0
  185.7330  178.2120  140.1590 C   0  0  0  0  0  2  0  0  0  0  0  0
  183.2030  178.6490  140.7150 C   0  0  0  0  0  2  0  0  0  0  0  0
  185.2270  177.9360  138.7730 C   0  0  0  0  0  0  0  0  0  0  0  0
  185.5480  177.7820  136.3750 C   0  0  0  0  0  3  0  0  0  0  0  0
  186.0630  178.0220  137.6590 C   0  0  0  0  0  3  0  0  0  0  0  0
  184.6890  178.9830  141.0060 C   0  0  1  0  0  3  0  0  0  0  0  0
  183.3530  177.3980  137.3280 C   0  0  0  0  0  0  0  0  0  0  0  0
  183.8900  177.5580  138.6100 C   0  0  0  0  0  0  0  0  0  0  0  0
  184.1910  177.4810  136.2110 C   0  0  0  0  0  3  0  0  0  0  0  0
  179.5070  175.7040  137.5470 C   0  0  0  0  0  2  0  0  0  0  0  0
  179.2050  174.8130  138.7520 C   0  0  2  0  0  3  0  0  0  0  0  0
  180.0080  175.1480  140.0160 C   0  0  0  0  0  2  0  0  0  0  0  0
  181.0890  177.5490  138.2320 C   0  0  2  0  0  3  0  0  0  0  0  0
  181.4580  175.5090  139.7280 C   0  0  0  0  0  2  0  0  0  0  0  0
  181.5850  177.0230  139.5950 C   0  0  1  0  0  3  0  0  0  0  0  0
  184.3520  179.1970  144.8060 C   0  0  0  0  0  3  0  0  0  0  0  0
  186.2030  178.2740  142.8680 C   0  0  0  0  0  3  0  0  0  0  0  0
  187.3820  177.7560  146.3410 N   0  0  0  0  0  0  0  0  0  0  0  0
  188.2900  177.3500  147.3720 C   0  0  0  0  0  0  0  0  0  0  0  0
  186.0910  178.4110  146.5710 C   0  0  0  0  0  2  0  0  0  0  0  0
  189.3300  176.7000  147.0860 O   0  0  0  0  0  0  0  0  0  0  0  0
  185.5620  178.6180  145.1820 C   0  0  0  0  0  0  0  0  0  0  0  0
  188.0040  177.6630  148.7980 C   0  0  0  0  0  1  0  0  0  0  0  0
  187.5960  177.6460  144.9360 C   0  0  0  0  0  0  0  0  0  0  0  0
  186.4560  178.1740  144.2350 C   0  0  0  0  0  0  0  0  0  0  0  0
  188.6380  177.1830  144.4030 O   0  0  0  0  0  0  0  0  0  0  0  0
  184.9890  178.8570  142.4650 C   0  0  0  0  0  0  0  0  0  0  0  0
  184.0660  179.3120  143.4350 C   0  0  0  0  0  3  0  0  0  0  0  0
  179.3960  173.3550  138.3520 C   0  0  0  0  0  2  0  0  0  0  0  0
  180.0720  173.2200  136.6690 S   0  0  0  0  0  0  0  0  0  0  0  0
  181.2130  171.8970  137.1610 C   0  0  0  0  0  1  0  0  0  0  0  0
  1  5  1  6  0  0  0
  3 10  1  0  0  0  0
  3 16  1  0  0  0  0
  4  9  1  0  0  0  0
  5  9  1  0  0  0  0
  6  4  1  0  0  0  0
  7  8  1  0  0  0  0
  8  6  2  0  0  0  0
  9 30  1  1  0  0  0
 10 11  2  0  0  0  0
 11  6  1  0  0  0  0
 11  1  1  0  0  0  0
 12  7  2  0  0  0  0
 12 10  1  0  0  0  0
 13  2  1  0  0  0  0
 13 14  1  0  0  0  0
 14 32  1  6  0  0  0
 14 15  1  0  0  0  0
 16  2  1  6  0  0  0
 16 18  1  0  0  0  0
 17 15  1  0  0  0  0
 18 17  1  6  0  0  0
 18  1  1  0  0  0  0
 19 25  1  0  0  0  0
 20 28  1  0  0  0  0
 21 23  1  0  0  0  0
 21 22  1  0  0  0  0
 22 26  1  0  0  0  0
 24 22  2  0  0  0  0
 25 23  1  0  0  0  0
 27 21  1  0  0  0  0
 28 27  1  0  0  0  0
 28 25  2  0  0  0  0
 29 27  2  0  0  0  0
 30 20  2  0  0  0  0
 30 31  1  0  0  0  0
 31 19  2  0  0  0  0
 33 34  1  0  0  0  0
 33 32  1  0  0  0  0
M  END
>  <MODEL>
2

>  <REMARK>
 VINA RESULT:      -8.7      3.544      4.979
  Name = 
  3 active torsions:
  status: ('A' for Active; 'I' for Inactive)
    1  A    between atoms: C_3  and  S_13
    2  A    between atoms: C_3  and  C_25
    3  A    between atoms: C_18  and  C_30
                            x       y       z     vdW  Elec       q    Type
                         _______ _______ _______ _____ _____    ______ ____

>  <TORSDO>
F 3

$$$$
=
 OpenBabel11052415533D

 34 39  0  0  1  0  0  0  0  0999 V2000
  188.9210  176.8120  137.9540 C   0  0  2  0  0  3  0  0  0  0  0  0
  186.4470  177.8830  135.0940 C   0  0  0  0  0  2  0  0  0  0  0  0
  188.6110  176.7340  135.0860 O   0  0  0  0  0  0  0  0  0  0  0  0
  191.4790  176.3520  139.0430 C   0  0  0  0  0  2  0  0  0  0  0  0
  189.4110  177.9570  138.8300 C   0  0  0  0  0  2  0  0  0  0  0  0
  191.2830  176.1450  137.5700 C   0  0  0  0  0  0  0  0  0  0  0  0
  192.1040  175.5320  135.3730 C   0  0  0  0  0  3  0  0  0  0  0  0
  192.3170  175.6890  136.7510 C   0  0  0  0  0  3  0  0  0  0  0  0
  190.7450  177.6210  139.5460 C   0  0  1  0  0  3  0  0  0  0  0  0
  189.8260  176.3170  135.6370 C   0  0  0  0  0  0  0  0  0  0  0  0
  190.0210  176.3930  137.0200 C   0  0  0  0  0  0  0  0  0  0  0  0
  190.8610  175.8570  134.8160 C   0  0  0  0  0  3  0  0  0  0  0  0
  185.7300  176.5920  134.7110 C   0  0  0  0  0  2  0  0  0  0  0  0
  184.7420  176.1100  135.7730 C   0  0  2  0  0  3  0  0  0  0  0  0
  185.2470  176.2180  137.2180 C   0  0  0  0  0  2  0  0  0  0  0  0
  187.7560  177.5990  135.8340 C   0  0  2  0  0  3  0  0  0  0  0  0
  186.7140  175.8420  137.3700 C   0  0  0  0  0  2  0  0  0  0  0  0
  187.5710  177.0990  137.2810 C   0  0  1  0  0  3  0  0  0  0  0  0
  191.4950  177.4570  143.2880 C   0  0  0  0  0  3  0  0  0  0  0  0
  189.2560  177.6150  141.5580 C   0  0  0  0  0  3  0  0  0  0  0  0
  188.3010  177.5240  145.1350 N   0  0  0  0  0  0  0  0  0  0  0  0
  187.4070  177.5050  146.2550 C   0  0  0  0  0  0  0  0  0  0  0  0
  189.7620  177.4330  145.2260 C   0  0  0  0  0  2  0  0  0  0  0  0
  186.1730  177.6920  146.0890 O   0  0  0  0  0  0  0  0  0  0  0  0
  190.1960  177.4930  143.7900 C   0  0  0  0  0  0  0  0  0  0  0  0
  187.9280  177.2930  147.6320 C   0  0  0  0  0  1  0  0  0  0  0  0
  187.9300  177.5770  143.7600 C   0  0  0  0  0  0  0  0  0  0  0  0
  189.1140  177.5680  142.9430 C   0  0  0  0  0  0  0  0  0  0  0  0
  186.7440  177.6000  143.3370 O   0  0  0  0  0  0  0  0  0  0  0  0
  190.5580  177.5770  141.0280 C   0  0  0  0  0  0  0  0  0  0  0  0
  191.6720  177.5030  141.8950 C   0  0  0  0  0  3  0  0  0  0  0  0
  184.3170  174.6840  135.4470 C   0  0  0  0  0  2  0  0  0  0  0  0
  183.3700  173.9520  136.8170 S   0  0  0  0  0  0  0  0  0  0  0  0
  184.5920  172.6300  137.0450 C   0  0  0  0  0  1  0  0  0  0  0  0
  1  5  1  6  0  0  0
  3 10  1  0  0  0  0
  3 16  1  0  0  0  0
  4  9  1  0  0  0  0
  5  9  1  0  0  0  0
  6  4  1  0  0  0  0
  7  8  1  0  0  0  0
  8  6  2  0  0  0  0
  9 30  1  1  0  0  0
 10 11  2  0  0  0  0
 11  6  1  0  0  0  0
 11  1  1  0  0  0  0
 12  7  2  0  0  0  0
 12 10  1  0  0  0  0
 13  2  1  0  0  0  0
 13 14  1  0  0  0  0
 14 32  1  6  0  0  0
 14 15  1  0  0  0  0
 15 17  1  0  0  0  0
 16  2  1  6  0  0  0
 16 18  1  0  0  0  0
 18 17  1  6  0  0  0
 18  1  1  0  0  0  0
 19 25  1  0  0  0  0
 20 28  1  0  0  0  0
 21 23  1  0  0  0  0
 21 22  1  0  0  0  0
 22 26  1  0  0  0  0
 24 22  2  0  0  0  0
 25 23  1  0  0  0  0
 27 21  1  0  0  0  0
 28 27  1  0  0  0  0
 28 25  2  0  0  0  0
 29 27  2  0  0  0  0
 30 20  2  0  0  0  0
 30 31  1  0  0  0  0
 31 19  2  0  0  0  0
 32 33  1  0  0  0  0
 33 34  1  0  0  0  0
M  END
>  <MODEL>
3

>  <REMARK>
 VINA RESULT:      -8.5      1.521      2.028
  Name = 
  3 active torsions:
  status: ('A' for Active; 'I' for Inactive)
    1  A    between atoms: C_3  and  S_13
    2  A    between atoms: C_3  and  C_25
    3  A    between atoms: C_18  and  C_30
                            x       y       z     vdW  Elec       q    Type
                         _______ _______ _______ _____ _____    ______ ____

>  <TORSDO>
F 3

$$$$
=
 OpenBabel11052415533D

 34 39  0  0  1  0  0  0  0  0999 V2000
  190.9230  176.4520  138.4510 C   0  0  2  0  0  3  0  0  0  0  0  0
  192.4550  173.7270  136.0720 C   0  0  0  0  0  2  0  0  0  0  0  0
  191.0350  175.6840  135.6730 O   0  0  0  0  0  0  0  0  0  0  0  0
  188.9190  178.2590  139.2660 C   0  0  0  0  0  2  0  0  0  0  0  0
  190.0360  175.9000  139.5590 C   0  0  0  0  0  2  0  0  0  0  0  0
  189.0840  177.9910  137.7990 C   0  0  0  0  0  0  0  0  0  0  0  0
  188.4730  178.3520  135.4810 C   0  0  0  0  0  3  0  0  0  0  0  0
  188.3080  178.6480  136.8430 C   0  0  0  0  0  3  0  0  0  0  0  0
  189.0440  176.9610  140.1030 C   0  0  1  0  0  3  0  0  0  0  0  0
  190.1750  176.7200  136.0420 C   0  0  0  0  0  0  0  0  0  0  0  0
  190.0620  177.0780  137.3900 C   0  0  0  0  0  0  0  0  0  0  0  0
  189.3990  177.3800  135.0840 C   0  0  0  0  0  3  0  0  0  0  0  0
  193.6440  174.4230  135.4150 C   0  0  0  0  0  2  0  0  0  0  0  0
  194.8150  174.6530  136.3720 C   0  0  2  0  0  3  0  0  0  0  0  0
  194.4160  175.1380  137.7710 C   0  0  0  0  0  2  0  0  0  0  0  0
  191.4650  174.7380  136.6520 C   0  0  2  0  0  3  0  0  0  0  0  0
  193.2840  176.1560  137.7540 C   0  0  0  0  0  2  0  0  0  0  0  0
  191.9530  175.4370  137.9380 C   0  0  1  0  0  3  0  0  0  0  0  0
  190.9040  177.9410  143.2940 C   0  0  0  0  0  3  0  0  0  0  0  0
  188.2920  177.2030  142.4780 C   0  0  0  0  0  3  0  0  0  0  0  0
  188.5220  177.8810  146.1120 N   0  0  0  0  0  0  0  0  0  0  0  0
  188.0480  177.9880  147.4600 C   0  0  0  0  0  0  0  0  0  0  0  0
  189.9100  178.0990  145.6910 C   0  0  0  0  0  2  0  0  0  0  0  0
  186.8190  177.8850  147.7130 O   0  0  0  0  0  0  0  0  0  0  0  0
  189.8570  177.8590  144.2100 C   0  0  0  0  0  0  0  0  0  0  0  0
  188.9960  178.2530  148.5750 C   0  0  0  0  0  1  0  0  0  0  0  0
  187.7540  177.4960  144.9750 C   0  0  0  0  0  0  0  0  0  0  0  0
  188.5920  177.4990  143.8060 C   0  0  0  0  0  0  0  0  0  0  0  0
  186.5360  177.1780  145.0060 O   0  0  0  0  0  0  0  0  0  0  0  0
  189.3330  177.2760  141.5360 C   0  0  0  0  0  0  0  0  0  0  0  0
  190.6330  177.6500  141.9460 C   0  0  0  0  0  3  0  0  0  0  0  0
  195.8070  175.6100  135.7230 C   0  0  0  0  0  2  0  0  0  0  0  0
  194.9640  176.7600  134.5940 S   0  0  0  0  0  0  0  0  0  0  0  0
  196.1720  178.0740  134.9210 C   0  0  0  0  0  1  0  0  0  0  0  0
  1  5  1  1  0  0  0
  3 10  1  0  0  0  0
  3 16  1  0  0  0  0
  4  9  1  0  0  0  0
  5  9  1  0  0  0  0
  6  4  1  0  0  0  0
  7  8  1  0  0  0  0
  8  6  2  0  0  0  0
  9 30  1  1  0  0  0
 10 11  2  0  0  0  0
 11  6  1  0  0  0  0
 11  1  1  0  0  0  0
 12  7  2  0  0  0  0
 12 10  1  0  0  0  0
 13  2  1  0  0  0  0
 13 14  1  0  0  0  0
 14 32  1  6  0  0  0
 14 15  1  0  0  0  0
 16  2  1  6  0  0  0
 16 18  1  0  0  0  0
 17 15  1  0  0  0  0
 18 17  1  6  0  0  0
 18  1  1  0  0  0  0
 19 25  1  0  0  0  0
 20 28  1  0  0  0  0
 21 22  1  0  0  0  0
 22 24  2  0  0  0  0
 22 26  1  0  0  0  0
 23 21  1  0  0  0  0
 25 23  1  0  0  0  0
 27 29  2  0  0  0  0
 27 21  1  0  0  0  0
 28 25  2  0  0  0  0
 28 27  1  0  0  0  0
 30 31  1  0  0  0  0
 30 20  2  0  0  0  0
 31 19  2  0  0  0  0
 33 34  1  0  0  0  0
 33 32  1  0  0  0  0
M  END
>  <MODEL>
4

>  <REMARK>
 VINA RESULT:      -8.4      3.337      5.494
  Name = 
  3 active torsions:
  status: ('A' for Active; 'I' for Inactive)
    1  A    between atoms: C_3  and  S_13
    2  A    between atoms: C_3  and  C_25
    3  A    between atoms: C_18  and  C_30
                            x       y       z     vdW  Elec       q    Type
                         _______ _______ _______ _____ _____    ______ ____

>  <TORSDO>
F 3

$$$$
=
 OpenBabel11052415533D

 34 39  0  0  1  0  0  0  0  0999 V2000
  183.6310  177.9580  138.9160 C   0  0  2  0  0  3  0  0  0  0  0  0
  183.9790  175.5020  135.8690 C   0  0  0  0  0  2  0  0  0  0  0  0
  182.7260  177.5800  136.2030 O   0  0  0  0  0  0  0  0  0  0  0  0
  182.2200  179.7560  140.5660 C   0  0  0  0  0  2  0  0  0  0  0  0
  183.1110  177.3130  140.1940 C   0  0  0  0  0  2  0  0  0  0  0  0
  181.8560  179.6860  139.1120 C   0  0  0  0  0  0  0  0  0  0  0  0
  180.5490  180.4060  137.2020 C   0  0  0  0  0  3  0  0  0  0  0  0
  180.8810  180.5180  138.5610 C   0  0  0  0  0  3  0  0  0  0  0  0
  182.4780  178.3480  141.1600 C   0  0  1  0  0  3  0  0  0  0  0  0
  182.1550  178.6070  136.9580 C   0  0  0  0  0  0  0  0  0  0  0  0
  182.5380  178.7790  138.2930 C   0  0  0  0  0  0  0  0  0  0  0  0
  181.1780  179.4420  136.4060 C   0  0  0  0  0  3  0  0  0  0  0  0
  184.9480  176.2070  134.9240 C   0  0  0  0  0  2  0  0  0  0  0  0
  186.3880  176.2250  135.4370 C   0  0  2  0  0  3  0  0  0  0  0  0
  186.5340  176.5340  136.9320 C   0  0  0  0  0  2  0  0  0  0  0  0
  183.3540  176.4810  136.8630 C   0  0  2  0  0  3  0  0  0  0  0  0
  185.5780  177.6140  137.4180 C   0  0  0  0  0  2  0  0  0  0  0  0
  184.3150  176.9610  137.9700 C   0  0  1  0  0  3  0  0  0  0  0  0
  183.4260  179.0910  144.7860 C   0  0  0  0  0  3  0  0  0  0  0  0
  184.5810  177.9570  142.4600 C   0  0  0  0  0  3  0  0  0  0  0  0
  186.8970  177.9740  145.3500 N   0  0  0  0  0  0  0  0  0  0  0  0
  188.1280  177.7460  146.0480 C   0  0  0  0  0  0  0  0  0  0  0  0
  185.7120  178.6180  145.9280 C   0  0  0  0  0  2  0  0  0  0  0  0
  189.0570  177.0940  145.5040 O   0  0  0  0  0  0  0  0  0  0  0  0
  184.7320  178.6080  144.7910 C   0  0  0  0  0  0  0  0  0  0  0  0
  188.3150  178.2520  147.4340 C   0  0  0  0  0  1  0  0  0  0  0  0
  186.6320  177.6720  143.9830 C   0  0  0  0  0  0  0  0  0  0  0  0
  185.2860  178.0600  143.6570 C   0  0  0  0  0  0  0  0  0  0  0  0
  187.4670  177.1680  143.1850 O   0  0  0  0  0  0  0  0  0  0  0  0
  183.2610  178.4400  142.4300 C   0  0  0  0  0  0  0  0  0  0  0  0
  182.6870  179.0010  143.5940 C   0  0  0  0  0  3  0  0  0  0  0  0
  187.2030  177.1990  134.5950 C   0  0  0  0  0  2  0  0  0  0  0  0
  188.8350  177.5020  135.3380 S   0  0  0  0  0  0  0  0  0  0  0  0
  189.5010  175.9510  134.6740 C   0  0  0  0  0  1  0  0  0  0  0  0
  1  5  1  1  0  0  0
  3 16  1  0  0  0  0
  3 10  1  0  0  0  0
  4  9  1  0  0  0  0
  5  9  1  0  0  0  0
  6  4  1  0  0  0  0
  7  8  2  0  0  0  0
  8  6  1  0  0  0  0
  9 30  1  1  0  0  0
 10 11  1  0  0  0  0
 11  1  1  0  0  0  0
 11  6  2  0  0  0  0
 12 10  2  0  0  0  0
 12  7  1  0  0  0  0
 13 14  1  0  0  0  0
 13  2  1  0  0  0  0
 14 32  1  6  0  0  0
 14 15  1  0  0  0  0
 15 17  1  0  0  0  0
 16  2  1  6  0  0  0
 16 18  1  0  0  0  0
 18 17  1  6  0  0  0
 18  1  1  0  0  0  0
 19 25  1  0  0  0  0
 20 28  1  0  0  0  0
 21 23  1  0  0  0  0
 21 22  1  0  0  0  0
 22 26  1  0  0  0  0
 24 22  2  0  0  0  0
 25 23  1  0  0  0  0
 27 21  1  0  0  0  0
 28 27  1  0  0  0  0
 28 25  2  0  0  0  0
 29 27  2  0  0  0  0
 30 20  2  0  0  0  0
 30 31  1  0  0  0  0
 31 19  2  0  0  0  0
 32 33  1  0  0  0  0
 34 33  1  0  0  0  0
M  END
>  <MODEL>
5

>  <REMARK>
 VINA RESULT:      -8.4      3.730      5.881
  Name = 
  3 active torsions:
  status: ('A' for Active; 'I' for Inactive)
    1  A    between atoms: C_3  and  S_13
    2  A    between atoms: C_3  and  C_25
    3  A    between atoms: C_18  and  C_30
                            x       y       z     vdW  Elec       q    Type
                         _______ _______ _______ _____ _____    ______ ____

>  <TORSDO>
F 3

$$$$
=
 OpenBabel11052415533D

 34 39  0  0  1  0  0  0  0  0999 V2000
  182.7790  177.1460  139.1210 C   0  0  2  0  0  3  0  0  0  0  0  0
  181.3200  174.2410  136.9140 C   0  0  0  0  0  2  0  0  0  0  0  0
  181.3690  176.6760  136.6480 O   0  0  0  0  0  0  0  0  0  0  0  0
  182.7720  179.7510  140.1980 C   0  0  0  0  0  2  0  0  0  0  0  0
  182.2250  177.2050  140.5390 C   0  0  0  0  0  2  0  0  0  0  0  0
  182.1860  179.5420  138.8320 C   0  0  0  0  0  0  0  0  0  0  0  0
  181.1270  180.3690  136.8150 C   0  0  0  0  0  3  0  0  0  0  0  0
  181.6910  180.6060  138.0780 C   0  0  0  0  0  3  0  0  0  0  0  0
  182.3760  178.6120  141.1710 C   0  0  1  0  0  3  0  0  0  0  0  0
  181.5330  177.9940  137.0810 C   0  0  0  0  0  0  0  0  0  0  0  0
  182.1670  178.2480  138.3030 C   0  0  0  0  0  0  0  0  0  0  0  0
  181.0390  179.0610  136.3240 C   0  0  0  0  0  3  0  0  0  0  0  0
  182.3390  174.0710  135.7910 C   0  0  0  0  0  2  0  0  0  0  0  0
  183.6520  173.4400  136.2550 C   0  0  2  0  0  3  0  0  0  0  0  0
  184.1810  173.9690  137.5950 C   0  0  0  0  0  2  0  0  0  0  0  0
  181.4540  175.6060  137.5900 C   0  0  2  0  0  3  0  0  0  0  0  0
  184.0010  175.4710  137.7600 C   0  0  0  0  0  2  0  0  0  0  0  0
  182.6940  175.7470  138.4960 C   0  0  1  0  0  3  0  0  0  0  0  0
  183.7280  178.9690  144.7270 C   0  0  0  0  0  3  0  0  0  0  0  0
  184.6080  178.0950  142.1790 C   0  0  0  0  0  3  0  0  0  0  0  0
  187.2330  177.8150  144.7770 N   0  0  0  0  0  0  0  0  0  0  0  0
  188.5320  177.5200  145.3040 C   0  0  0  0  0  0  0  0  0  0  0  0
  186.1250  178.3880  145.5480 C   0  0  0  0  0  2  0  0  0  0  0  0
  189.3900  176.9340  144.5930 O   0  0  0  0  0  0  0  0  0  0  0  0
  185.0230  178.4940  144.5340 C   0  0  0  0  0  0  0  0  0  0  0  0
  188.8770  177.8760  146.7060 C   0  0  0  0  0  1  0  0  0  0  0  0
  186.8150  177.6590  143.4230 C   0  0  0  0  0  0  0  0  0  0  0  0
  185.4430  178.0730  143.2930 C   0  0  0  0  0  0  0  0  0  0  0  0
  187.5510  177.2470  142.4880 O   0  0  0  0  0  0  0  0  0  0  0  0
  183.2960  178.5720  142.3490 C   0  0  0  0  0  0  0  0  0  0  0  0
  182.8600  179.0030  143.6230 C   0  0  0  0  0  3  0  0  0  0  0  0
  184.6940  173.5950  135.1550 C   0  0  0  0  0  2  0  0  0  0  0  0
  186.3590  173.1930  135.7680 S   0  0  0  0  0  0  0  0  0  0  0  0
  186.9990  174.8240  135.3000 C   0  0  0  0  0  1  0  0  0  0  0  0
  1  5  1  1  0  0  0
  3 10  1  0  0  0  0
  3 16  1  0  0  0  0
  4  9  1  0  0  0  0
  5  9  1  0  0  0  0
  6  4  1  0  0  0  0
  7  8  1  0  0  0  0
  8  6  2  0  0  0  0
  9 30  1  1  0  0  0
 10 11  2  0  0  0  0
 11  6  1  0  0  0  0
 11  1  1  0  0  0  0
 12  7  2  0  0  0  0
 12 10  1  0  0  0  0
 13 14  1  0  0  0  0
 13  2  1  0  0  0  0
 14 32  1  6  0  0  0
 14 15  1  0  0  0  0
 15 17  1  0  0  0  0
 16  2  1  6  0  0  0
 16 18  1  0  0  0  0
 18 17  1  6  0  0  0
 18  1  1  0  0  0  0
 20 30  2  0  0  0  0
 20 28  1  0  0  0  0
 21 22  1  0  0  0  0
 21 23  1  0  0  0  0
 22 26  1  0  0  0  0
 24 22  2  0  0  0  0
 25 19  1  0  0  0  0
 25 23  1  0  0  0  0
 27 21  1  0  0  0  0
 28 27  1  0  0  0  0
 28 25  2  0  0  0  0
 29 27  2  0  0  0  0
 30 31  1  0  0  0  0
 31 19  2  0  0  0  0
 32 33  1  0  0  0  0
 34 33  1  0  0  0  0
M  END
>  <MODEL>
6

>  <REMARK>
 VINA RESULT:      -8.3      3.709      5.913
  Name = 
  3 active torsions:
  status: ('A' for Active; 'I' for Inactive)
    1  A    between atoms: C_3  and  S_13
    2  A    between atoms: C_3  and  C_25
    3  A    between atoms: C_18  and  C_30
                            x       y       z     vdW  Elec       q    Type
                         _______ _______ _______ _____ _____    ______ ____

>  <TORSDO>
F 3

$$$$
=
 OpenBabel11052415533D

 34 39  0  0  1  0  0  0  0  0999 V2000
  184.3670  177.2940  138.7480 C   0  0  2  0  0  3  0  0  0  0  0  0
  181.3060  177.1000  136.2930 C   0  0  0  0  0  2  0  0  0  0  0  0
  183.7270  177.2100  135.9360 O   0  0  0  0  0  0  0  0  0  0  0  0
  186.9420  178.1430  139.5160 C   0  0  0  0  0  2  0  0  0  0  0  0
  184.3450  178.4850  139.6970 C   0  0  0  0  0  2  0  0  0  0  0  0
  186.6650  177.9380  138.0560 C   0  0  0  0  0  0  0  0  0  0  0  0
  187.3540  177.9340  135.7320 C   0  0  0  0  0  3  0  0  0  0  0  0
  187.6580  178.1100  137.0910 C   0  0  0  0  0  3  0  0  0  0  0  0
  185.7560  178.8370  140.2320 C   0  0  1  0  0  3  0  0  0  0  0  0
  185.0530  177.4410  136.3100 C   0  0  0  0  0  0  0  0  0  0  0  0
  185.3820  177.5380  137.6670 C   0  0  0  0  0  0  0  0  0  0  0  0
  186.0490  177.6110  135.3430 C   0  0  0  0  0  3  0  0  0  0  0  0
  181.2780  175.6440  135.8370 C   0  0  0  0  0  2  0  0  0  0  0  0
  180.8240  174.6760  136.9300 C   0  0  2  0  0  3  0  0  0  0  0  0
  181.4120  174.9540  138.3190 C   0  0  0  0  0  2  0  0  0  0  0  0
  182.6730  177.4830  136.8600 C   0  0  2  0  0  3  0  0  0  0  0  0
  182.8760  175.3680  138.2800 C   0  0  0  0  0  2  0  0  0  0  0  0
  182.9720  176.8890  138.2510 C   0  0  1  0  0  3  0  0  0  0  0  0
  184.7780  178.6660  143.9220 C   0  0  0  0  0  3  0  0  0  0  0  0
  187.0450  178.2080  142.2830 C   0  0  0  0  0  3  0  0  0  0  0  0
  187.7160  177.5760  145.8710 N   0  0  0  0  0  0  0  0  0  0  0  0
  188.4990  177.2240  147.0180 C   0  0  0  0  0  0  0  0  0  0  0  0
  186.3140  178.0040  145.9120 C   0  0  0  0  0  2  0  0  0  0  0  0
  189.6650  176.7680  146.8780 O   0  0  0  0  0  0  0  0  0  0  0  0
  185.9900  178.2480  144.4670 C   0  0  0  0  0  0  0  0  0  0  0  0
  187.9380  177.3660  148.3880 C   0  0  0  0  0  1  0  0  0  0  0  0
  188.1690  177.6220  144.5200 C   0  0  0  0  0  0  0  0  0  0  0  0
  187.0860  178.0290  143.6650 C   0  0  0  0  0  0  0  0  0  0  0  0
  189.3460  177.3710  144.1490 O   0  0  0  0  0  0  0  0  0  0  0  0
  185.8330  178.6320  141.7110 C   0  0  0  0  0  0  0  0  0  0  0  0
  184.7030  178.8550  142.5320 C   0  0  0  0  0  3  0  0  0  0  0  0
  181.1220  173.2490  136.4850 C   0  0  0  0  0  2  0  0  0  0  0  0
  180.4480  172.0410  137.6660 S   0  0  0  0  0  0  0  0  0  0  0  0
  179.4390  171.2480  136.3840 C   0  0  0  0  0  1  0  0  0  0  0  0
  1  5  1  6  0  0  0
  3 10  1  0  0  0  0
  3 16  1  0  0  0  0
  4  9  1  0  0  0  0
  5  9  1  0  0  0  0
  6  4  1  0  0  0  0
  7  8  1  0  0  0  0
  8  6  2  0  0  0  0
  9 30  1  1  0  0  0
 10 11  2  0  0  0  0
 11  6  1  0  0  0  0
 11  1  1  0  0  0  0
 12  7  2  0  0  0  0
 12 10  1  0  0  0  0
 13  2  1  0  0  0  0
 13 14  1  0  0  0  0
 14 32  1  6  0  0  0
 14 15  1  0  0  0  0
 16  2  1  6  0  0  0
 16 18  1  0  0  0  0
 17 15  1  0  0  0  0
 18 17  1  6  0  0  0
 18  1  1  0  0  0  0
 19 25  1  0  0  0  0
 20 28  1  0  0  0  0
 21 23  1  0  0  0  0
 21 22  1  0  0  0  0
 22 26  1  0  0  0  0
 24 22  2  0  0  0  0
 25 23  1  0  0  0  0
 27 21  1  0  0  0  0
 28 25  2  0  0  0  0
 28 27  1  0  0  0  0
 29 27  2  0  0  0  0
 30 20  2  0  0  0  0
 30 31  1  0  0  0  0
 31 19  2  0  0  0  0
 32 33  1  0  0  0  0
 34 33  1  0  0  0  0
M  END
>  <MODEL>
7

>  <REMARK>
 VINA RESULT:      -8.3      2.621      3.749
  Name = 
  3 active torsions:
  status: ('A' for Active; 'I' for Inactive)
    1  A    between atoms: C_3  and  S_13
    2  A    between atoms: C_3  and  C_25
    3  A    between atoms: C_18  and  C_30
                            x       y       z     vdW  Elec       q    Type
                         _______ _______ _______ _____ _____    ______ ____

>  <TORSDO>
F 3

$$$$
=
 OpenBabel11052415533D

 34 39  0  0  1  0  0  0  0  0999 V2000
  188.7380  176.9690  138.9980 C   0  0  2  0  0  3  0  0  0  0  0  0
  189.3020  176.6520  135.1230 C   0  0  0  0  0  2  0  0  0  0  0  0
  190.8260  176.6070  137.0410 O   0  0  0  0  0  0  0  0  0  0  0  0
  189.4600  177.7750  141.6010 C   0  0  0  0  0  2  0  0  0  0  0  0
  188.0530  178.2570  139.4360 C   0  0  0  0  0  2  0  0  0  0  0  0
  190.5520  177.4240  140.6340 C   0  0  0  0  0  0  0  0  0  0  0  0
  192.8920  177.1320  140.0710 C   0  0  0  0  0  3  0  0  0  0  0  0
  191.8960  177.4420  141.0100 C   0  0  0  0  0  3  0  0  0  0  0  0
  188.3370  178.5990  140.9210 C   0  0  1  0  0  3  0  0  0  0  0  0
  191.1910  176.8150  138.3730 C   0  0  0  0  0  0  0  0  0  0  0  0
  190.2000  177.0450  139.3340 C   0  0  0  0  0  0  0  0  0  0  0  0
  192.5380  176.8310  138.7500 C   0  0  0  0  0  3  0  0  0  0  0  0
  189.5070  175.1570  134.8910 C   0  0  0  0  0  2  0  0  0  0  0  0
  188.2270  174.3380  135.0580 C   0  0  2  0  0  3  0  0  0  0  0  0
  187.3590  174.7390  136.2570 C   0  0  0  0  0  2  0  0  0  0  0  0
  189.5410  177.0300  136.5850 C   0  0  2  0  0  3  0  0  0  0  0  0
  188.1700  175.0760  137.5000 C   0  0  0  0  0  2  0  0  0  0  0  0
  188.4230  176.5790  137.5470 C   0  0  1  0  0  3  0  0  0  0  0  0
  185.9330  178.1910  143.8630 C   0  0  0  0  0  3  0  0  0  0  0  0
  185.8520  178.8360  141.1040 C   0  0  0  0  0  3  0  0  0  0  0  0
  182.4990  178.8430  142.6780 N   0  0  0  0  0  0  0  0  0  0  0  0
  181.0730  178.9730  142.7290 C   0  0  0  0  0  0  0  0  0  0  0  0
  183.3480  178.4620  143.8120 C   0  0  0  0  0  2  0  0  0  0  0  0
  180.4370  179.4060  141.7330 O   0  0  0  0  0  0  0  0  0  0  0  0
  184.7280  178.4720  143.2220 C   0  0  0  0  0  0  0  0  0  0  0  0
  180.3270  178.6270  143.9680 C   0  0  0  0  0  1  0  0  0  0  0  0
  183.3210  179.0060  141.5260 C   0  0  0  0  0  0  0  0  0  0  0  0
  184.6970  178.7830  141.8820 C   0  0  0  0  0  0  0  0  0  0  0  0
  182.8940  179.2740  140.3720 O   0  0  0  0  0  0  0  0  0  0  0  0
  187.0790  178.5540  141.7290 C   0  0  0  0  0  0  0  0  0  0  0  0
  187.1150  178.2380  143.1060 C   0  0  0  0  0  3  0  0  0  0  0  0
  188.5880  172.8590  135.1140 C   0  0  0  0  0  2  0  0  0  0  0  0
  187.1380  171.8460  135.5370 S   0  0  0  0  0  0  0  0  0  0  0  0
  187.9040  170.3460  134.8630 C   0  0  0  0  0  1  0  0  0  0  0  0
  1 11  1  0  0  0  0
  1  5  1  6  0  0  0
  3 10  1  0  0  0  0
  5  9  1  0  0  0  0
  6  8  1  0  0  0  0
  6  4  1  0  0  0  0
  7  8  2  0  0  0  0
  9  4  1  0  0  0  0
  9 30  1  1  0  0  0
 10 12  2  0  0  0  0
 10 11  1  0  0  0  0
 11  6  2  0  0  0  0
 12  7  1  0  0  0  0
 13 14  1  0  0  0  0
 13  2  1  0  0  0  0
 14 32  1  1  0  0  0
 14 15  1  0  0  0  0
 15 17  1  0  0  0  0
 16  2  1  6  0  0  0
 16  3  1  0  0  0  0
 16 18  1  0  0  0  0
 18 17  1  1  0  0  0
 18  1  1  0  0  0  0
 20 30  2  0  0  0  0
 20 28  1  0  0  0  0
 21 22  1  0  0  0  0
 21 23  1  0  0  0  0
 22 26  1  0  0  0  0
 24 22  2  0  0  0  0
 25 23  1  0  0  0  0
 25 19  1  0  0  0  0
 27 28  1  0  0  0  0
 27 21  1  0  0  0  0
 28 25  2  0  0  0  0
 29 27  2  0  0  0  0
 30 31  1  0  0  0  0
 31 19  2  0  0  0  0
 32 33  1  0  0  0  0
 34 33  1  0  0  0  0
M  END
>  <MODEL>
8

>  <REMARK>
 VINA RESULT:      -8.2      3.724      4.923
  Name = 
  3 active torsions:
  status: ('A' for Active; 'I' for Inactive)
    1  A    between atoms: C_3  and  S_13
    2  A    between atoms: C_3  and  C_25
    3  A    between atoms: C_18  and  C_30
                            x       y       z     vdW  Elec       q    Type
                         _______ _______ _______ _____ _____    ______ ____

>  <TORSDO>
F 3

$$$$
=
 OpenBabel11052415533D

 34 39  0  0  1  0  0  0  0  0999 V2000
  183.0890  177.1250  139.0860 C   0  0  2  0  0  3  0  0  0  0  0  0
  180.3980  174.4830  137.9830 C   0  0  0  0  0  2  0  0  0  0  0  0
  180.6770  176.8740  137.5240 O   0  0  0  0  0  0  0  0  0  0  0  0
  183.9400  179.7040  139.8410 C   0  0  0  0  0  2  0  0  0  0  0  0
  183.2380  177.2870  140.5930 C   0  0  0  0  0  2  0  0  0  0  0  0
  182.7850  179.5830  138.8910 C   0  0  0  0  0  0  0  0  0  0  0  0
  181.0730  180.5570  137.4780 C   0  0  0  0  0  3  0  0  0  0  0  0
  182.1670  180.7080  138.3440 C   0  0  0  0  0  3  0  0  0  0  0  0
  183.8560  178.6560  140.9800 C   0  0  1  0  0  3  0  0  0  0  0  0
  181.2050  178.1500  137.7330 C   0  0  0  0  0  0  0  0  0  0  0  0
  182.3450  178.3060  138.5300 C   0  0  0  0  0  0  0  0  0  0  0  0
  180.5870  179.2780  137.1830 C   0  0  0  0  0  3  0  0  0  0  0  0
  180.7750  174.1360  136.5460 C   0  0  0  0  0  2  0  0  0  0  0  0
  182.0510  173.3000  136.4400 C   0  0  2  0  0  3  0  0  0  0  0  0
  183.1900  173.7460  137.3660 C   0  0  0  0  0  2  0  0  0  0  0  0
  181.0150  175.8140  138.4190 C   0  0  2  0  0  3  0  0  0  0  0  0
  183.3220  175.2580  137.4700 C   0  0  0  0  0  2  0  0  0  0  0  0
  182.5340  175.7540  138.6770 C   0  0  1  0  0  3  0  0  0  0  0  0
  187.6340  178.4520  141.5160 C   0  0  0  0  0  3  0  0  0  0  0  0
  185.2400  178.1510  143.0030 C   0  0  0  0  0  3  0  0  0  0  0  0
  188.2780  177.6000  145.0490 N   0  0  0  0  0  0  0  0  0  0  0  0
  189.0270  177.2880  146.2300 C   0  0  0  0  0  0  0  0  0  0  0  0
  188.8640  177.8730  143.7320 C   0  0  0  0  0  2  0  0  0  0  0  0
  188.4450  177.1700  147.3400 O   0  0  0  0  0  0  0  0  0  0  0  0
  187.6620  178.1300  142.8710 C   0  0  0  0  0  0  0  0  0  0  0  0
  190.5040  177.1280  146.1670 C   0  0  0  0  0  1  0  0  0  0  0  0
  186.8580  177.6450  144.9360 C   0  0  0  0  0  0  0  0  0  0  0  0
  186.4950  177.9840  143.5860 C   0  0  0  0  0  0  0  0  0  0  0  0
  186.0560  177.3950  145.8740 O   0  0  0  0  0  0  0  0  0  0  0  0
  185.1870  178.4740  141.6360 C   0  0  0  0  0  0  0  0  0  0  0  0
  186.3840  178.6280  140.8990 C   0  0  0  0  0  3  0  0  0  0  0  0
  182.5060  173.2700  134.9870 C   0  0  0  0  0  2  0  0  0  0  0  0
  183.3680  171.7150  134.6020 S   0  0  0  0  0  0  0  0  0  0  0  0
  182.0750  170.7220  135.3990 C   0  0  0  0  0  1  0  0  0  0  0  0
  1  5  1  1  0  0  0
  3 10  1  0  0  0  0
  3 16  1  0  0  0  0
  4  9  1  0  0  0  0
  5  9  1  0  0  0  0
  6  4  1  0  0  0  0
  7  8  1  0  0  0  0
  8  6  2  0  0  0  0
  9 30  1  6  0  0  0
 10 11  2  0  0  0  0
 11  6  1  0  0  0  0
 11  1  1  0  0  0  0
 12  7  2  0  0  0  0
 12 10  1  0  0  0  0
 13  2  1  0  0  0  0
 14 32  1  6  0  0  0
 14 13  1  0  0  0  0
 14 15  1  0  0  0  0
 15 17  1  0  0  0  0
 16  2  1  6  0  0  0
 16 18  1  0  0  0  0
 18 17  1  6  0  0  0
 18  1  1  0  0  0  0
 19 25  1  0  0  0  0
 20 28  1  0  0  0  0
 21 22  1  0  0  0  0
 22 24  2  0  0  0  0
 23 21  1  0  0  0  0
 25 28  2  0  0  0  0
 25 23  1  0  0  0  0
 26 22  1  0  0  0  0
 27 21  1  0  0  0  0
 27 29  2  0  0  0  0
 28 27  1  0  0  0  0
 30 20  2  0  0  0  0
 31 19  2  0  0  0  0
 31 30  1  0  0  0  0
 33 32  1  0  0  0  0
 33 34  1  0  0  0  0
M  END
>  <MODEL>
9

>  <REMARK>
 VINA RESULT:      -7.9      3.671      5.741
  Name = 
  3 active torsions:
  status: ('A' for Active; 'I' for Inactive)
    1  A    between atoms: C_3  and  S_13
    2  A    between atoms: C_3  and  C_25
    3  A    between atoms: C_18  and  C_30
                            x       y       z     vdW  Elec       q    Type
                         _______ _______ _______ _____ _____    ______ ____

>  <TORSDO>
F 3

$$$$
