=
 OpenBabel11052415493D

 34 39  0  0  1  0  0  0  0  0999 V2000
  183.9070  178.7190  141.9070 N   0  0  0  0  0  0  0  0  0  0  0  0
  181.9190  177.4860  139.1240 C   0  0  0  0  0  3  0  0  0  0  0  0
  181.6770  178.7530  141.2920 C   0  0  0  0  0  0  0  0  0  0  0  0
  184.6310  179.1870  144.2030 C   0  0  1  0  0  3  0  0  0  0  0  0
  184.9320  178.4140  142.8990 C   0  0  0  0  0  2  0  0  0  0  0  0
  182.1640  179.0030  143.6260 C   0  0  0  0  0  0  0  0  0  0  0  0
  180.8270  179.0710  143.8880 N   0  0  0  0  0  0  0  0  0  0  0  0
  183.1950  178.9070  144.7180 C   0  0  0  0  0  2  0  0  0  0  0  0
  180.3060  178.8550  141.5360 C   0  0  0  0  0  3  0  0  0  0  0  0
  182.5680  178.8690  142.3110 C   0  0  0  0  0  0  0  0  0  0  0  0
  179.9000  179.0190  142.8770 C   0  0  0  0  0  3  0  0  0  0  0  0
  182.6570  176.9200  138.1480 C   0  0  0  0  0  3  0  0  0  0  0  0
  184.1300  177.1730  137.8730 C   0  0  2  0  0  3  0  0  0  0  0  0
  184.5980  178.6170  138.1430 C   0  0  0  0  0  2  0  0  0  0  0  0
  182.4370  178.5700  140.0230 C   0  0  1  0  0  3  0  0  0  0  0  0
  184.9140  178.8610  139.6290 C   0  0  0  0  0  2  0  0  0  0  0  0
  183.8580  178.2350  140.5320 C   0  0  1  0  0  3  0  0  0  0  0  0
  186.8110  178.1020  147.9710 C   0  0  0  0  0  2  0  0  0  0  0  0
  186.2140  177.4470  145.0750 C   0  0  0  0  0  2  0  0  0  0  0  0
  190.1960  177.0200  146.6680 C   0  0  0  0  0  0  0  0  0  0  0  0
  189.1660  177.4710  147.5030 C   0  0  0  0  0  3  0  0  0  0  0  0
  187.8640  177.6240  147.0170 C   0  0  0  0  0  0  0  0  0  0  0  0
  185.6640  178.8580  145.2780 C   0  0  2  0  0  3  0  0  0  0  0  0
  188.6140  176.8630  144.8350 C   0  0  0  0  0  3  0  0  0  0  0  0
  187.5850  177.3160  145.6650 C   0  0  0  0  0  0  0  0  0  0  0  0
  189.9110  176.7160  145.3310 C   0  0  0  0  0  3  0  0  0  0  0  0
  185.0750  178.9360  146.5490 O   0  0  0  0  0  0  0  0  0  0  0  0
  186.0920  179.3320  147.4280 C   0  0  0  0  0  2  0  0  0  0  0  0
  191.5610  176.8660  147.1950 C   0  0  0  0  0  0  0  0  0  0  0  0
  192.4170  176.1880  146.5660 O   0  0  0  0  0  0  0  0  0  0  0  0
  191.9200  177.4690  148.3960 O   0  0  0  0  0  1  0  0  0  0  0  0
  184.5000  176.6850  136.4710 C   0  0  0  0  0  3  0  0  0  0  0  0
  183.4890  177.1170  135.4190 C   0  0  0  0  0  1  0  0  0  0  0  0
  185.8880  177.1560  136.0810 C   0  0  0  0  0  1  0  0  0  0  0  0
  1 10  1  0  0  0  0
  1  5  1  0  0  0  0
  3  9  2  0  0  0  0
  3 10  1  0  0  0  0
  4  5  1  6  0  0  0
  4  8  1  0  0  0  0
  4 23  1  0  0  0  0
  6  7  1  0  0  0  0
  6  8  1  0  0  0  0
  9 11  1  0  0  0  0
 10  6  2  0  0  0  0
 11  7  2  0  0  0  0
 12  2  2  0  0  0  0
 13 32  1  6  0  0  0
 13 14  1  0  0  0  0
 13 12  1  0  0  0  0
 14 16  1  0  0  0  0
 15  2  1  1  0  0  0
 15 17  1  0  0  0  0
 15  3  1  0  0  0  0
 17 16  1  6  0  0  0
 17  1  1  0  0  0  0
 19 25  1  0  0  0  0
 20 29  1  0  0  0  0
 20 21  1  0  0  0  0
 22 21  2  0  0  0  0
 22 18  1  0  0  0  0
 23 19  1  6  0  0  0
 23 27  1  0  0  0  0
 24 26  1  0  0  0  0
 24 25  2  0  0  0  0
 25 22  1  0  0  0  0
 26 20  2  0  0  0  0
 27 28  1  0  0  0  0
 28 18  1  0  0  0  0
 29 31  1  0  0  0  0
 30 29  2  0  0  0  0
 33 32  1  0  0  0  0
 34 32  1  0  0  0  0
M  END
>  <MODEL>
1

>  <REMARK>
 VINA RESULT:     -10.6      0.000      0.000
  Name = 
  3 active torsions:
  status: ('A' for Active; 'I' for Inactive)
    1  A    between atoms: C_3  and  C_25
    2  A    between atoms: C_7  and  C_11
    3  A    between atoms: C_8  and  C_18
                            x       y       z     vdW  Elec       q    Type
                         _______ _______ _______ _____ _____    ______ ____

>  <TORSDO>
F 3

$$$$
=
 OpenBabel11052415493D

 34 39  0  0  1  0  0  0  0  0999 V2000
  189.8330  177.1490  138.7570 N   0  0  0  0  0  0  0  0  0  0  0  0
  190.9700  175.1810  135.9190 C   0  0  0  0  0  3  0  0  0  0  0  0
  189.3870  177.0610  136.4880 C   0  0  0  0  0  0  0  0  0  0  0  0
  188.3340  178.2790  140.3350 C   0  0  1  0  0  3  0  0  0  0  0  0
  189.3510  177.1330  140.1330 C   0  0  0  0  0  2  0  0  0  0  0  0
  187.6890  178.0030  137.8930 C   0  0  0  0  0  0  0  0  0  0  0  0
  186.8990  178.1890  136.7970 N   0  0  0  0  0  0  0  0  0  0  0  0
  187.1850  178.2160  139.2950 C   0  0  0  0  0  2  0  0  0  0  0  0
  188.6070  177.2750  135.3500 C   0  0  0  0  0  3  0  0  0  0  0  0
  188.9450  177.4580  137.7110 C   0  0  0  0  0  0  0  0  0  0  0  0
  187.3360  177.8570  135.5400 C   0  0  0  0  0  3  0  0  0  0  0  0
  191.9590  174.3190  136.2280 C   0  0  0  0  0  3  0  0  0  0  0  0
  192.9140  174.4300  137.4050 C   0  0  2  0  0  3  0  0  0  0  0  0
  193.3080  175.8710  137.7830 C   0  0  0  0  0  2  0  0  0  0  0  0
  190.7470  176.4730  136.6500 C   0  0  1  0  0  3  0  0  0  0  0  0
  192.2540  176.5520  138.6740 C   0  0  0  0  0  2  0  0  0  0  0  0
  190.8410  176.2670  138.1780 C   0  0  1  0  0  3  0  0  0  0  0  0
  185.8090  177.9480  144.0280 C   0  0  0  0  0  2  0  0  0  0  0  0
  188.2580  177.0230  142.5050 C   0  0  0  0  0  2  0  0  0  0  0  0
  188.4070  177.6580  146.7650 C   0  0  0  0  0  0  0  0  0  0  0  0
  187.2090  177.8860  146.0780 C   0  0  0  0  0  3  0  0  0  0  0  0
  187.1270  177.6930  144.6950 C   0  0  0  0  0  0  0  0  0  0  0  0
  187.7780  178.2670  141.7570 C   0  0  2  0  0  3  0  0  0  0  0  0
  189.4640  177.0290  144.6730 C   0  0  0  0  0  3  0  0  0  0  0  0
  188.2700  177.2590  143.9840 C   0  0  0  0  0  0  0  0  0  0  0  0
  189.5350  177.2280  146.0540 C   0  0  0  0  0  3  0  0  0  0  0  0
  186.3760  178.2620  141.7230 O   0  0  0  0  0  0  0  0  0  0  0  0
  185.9550  178.9370  142.8770 C   0  0  0  0  0  2  0  0  0  0  0  0
  188.4760  177.8680  148.2200 C   0  0  0  0  0  0  0  0  0  0  0  0
  187.5140  177.5310  148.9610 O   0  0  0  0  0  1  0  0  0  0  0  0
  189.6070  178.4420  148.7920 O   0  0  0  0  0  0  0  0  0  0  0  0
  194.1280  173.5220  137.1930 C   0  0  0  0  0  3  0  0  0  0  0  0
  194.9140  173.8850  135.9410 C   0  0  0  0  0  1  0  0  0  0  0  0
  195.0410  173.5440  138.4040 C   0  0  0  0  0  1  0  0  0  0  0  0
  1  5  1  0  0  0  0
  2 12  2  0  0  0  0
  3 15  1  0  0  0  0
  3 10  1  0  0  0  0
  4  8  1  6  0  0  0
  4 23  1  0  0  0  0
  5  4  1  0  0  0  0
  6  8  1  0  0  0  0
  7  6  1  0  0  0  0
  9 11  1  0  0  0  0
  9  3  2  0  0  0  0
 10  6  2  0  0  0  0
 10  1  1  0  0  0  0
 11  7  2  0  0  0  0
 12 13  1  0  0  0  0
 13 32  1  6  0  0  0
 13 14  1  0  0  0  0
 14 16  1  0  0  0  0
 15  2  1  6  0  0  0
 15 17  1  0  0  0  0
 17 16  1  1  0  0  0
 17  1  1  0  0  0  0
 18 22  1  0  0  0  0
 19 25  1  0  0  0  0
 20 29  1  0  0  0  0
 21 20  1  0  0  0  0
 22 21  2  0  0  0  0
 23 19  1  6  0  0  0
 24 26  1  0  0  0  0
 25 24  2  0  0  0  0
 25 22  1  0  0  0  0
 26 20  2  0  0  0  0
 27 23  1  0  0  0  0
 27 28  1  0  0  0  0
 28 18  1  0  0  0  0
 29 31  2  0  0  0  0
 29 30  1  0  0  0  0
 32 34  1  0  0  0  0
 33 32  1  0  0  0  0
M  END
>  <MODEL>
2

>  <REMARK>
 VINA RESULT:     -10.2      4.817      7.169
  Name = 
  3 active torsions:
  status: ('A' for Active; 'I' for Inactive)
    1  A    between atoms: C_3  and  C_25
    2  A    between atoms: C_7  and  C_11
    3  A    between atoms: C_8  and  C_18
                            x       y       z     vdW  Elec       q    Type
                         _______ _______ _______ _____ _____    ______ ____

>  <TORSDO>
F 3

$$$$
=
 OpenBabel11052415493D

 34 39  0  0  1  0  0  0  0  0999 V2000
  188.7520  178.1170  141.7180 N   0  0  0  0  0  0  0  0  0  0  0  0
  191.6650  176.2530  142.8400 C   0  0  0  0  0  3  0  0  0  0  0  0
  190.6550  177.2310  140.7450 C   0  0  0  0  0  0  0  0  0  0  0  0
  186.7970  178.7730  140.3910 C   0  0  1  0  0  3  0  0  0  0  0  0
  187.3000  178.2400  141.7520 C   0  0  0  0  0  2  0  0  0  0  0  0
  188.7680  177.5890  139.3120 C   0  0  0  0  0  0  0  0  0  0  0  0
  189.4790  177.0800  138.2640 N   0  0  0  0  0  0  0  0  0  0  0  0
  187.2990  177.9000  139.2120 C   0  0  0  0  0  2  0  0  0  0  0  0
  191.4100  176.7400  139.6790 C   0  0  0  0  0  3  0  0  0  0  0  0
  189.3880  177.6790  140.5430 C   0  0  0  0  0  0  0  0  0  0  0  0
  190.7810  176.6750  138.4180 C   0  0  0  0  0  3  0  0  0  0  0  0
  191.7080  176.0800  144.1760 C   0  0  0  0  0  3  0  0  0  0  0  0
  191.0070  176.9380  145.2170 C   0  0  2  0  0  3  0  0  0  0  0  0
  190.9140  178.4350  144.8620 C   0  0  0  0  0  2  0  0  0  0  0  0
  190.9970  177.4250  142.1830 C   0  0  1  0  0  3  0  0  0  0  0  0
  189.7320  178.7420  143.9270 C   0  0  0  0  0  2  0  0  0  0  0  0
  189.6160  177.7020  142.8180 C   0  0  1  0  0  3  0  0  0  0  0  0
  182.4150  178.4960  139.4740 C   0  0  0  0  0  2  0  0  0  0  0  0
  184.6680  177.9310  141.4170 C   0  0  0  0  0  2  0  0  0  0  0  0
  180.8320  179.3130  142.8140 C   0  0  0  0  0  0  0  0  0  0  0  0
  181.0370  179.1260  141.4420 C   0  0  0  0  0  3  0  0  0  0  0  0
  182.2700  178.6830  140.9550 C   0  0  0  0  0  0  0  0  0  0  0  0
  185.2740  178.8750  140.3790 C   0  0  2  0  0  3  0  0  0  0  0  0
  183.1140  178.6010  143.2320 C   0  0  0  0  0  3  0  0  0  0  0  0
  183.3220  178.4170  141.8620 C   0  0  0  0  0  0  0  0  0  0  0  0
  181.8780  179.0470  143.7060 C   0  0  0  0  0  3  0  0  0  0  0  0
  184.7800  178.5310  139.1110 O   0  0  0  0  0  0  0  0  0  0  0  0
  183.6070  179.2760  138.9330 C   0  0  0  0  0  2  0  0  0  0  0  0
  179.5290  179.7830  143.3090 C   0  0  0  0  0  0  0  0  0  0  0  0
  178.9310  180.7320  142.7350 O   0  0  0  0  0  0  0  0  0  0  0  0
  178.9430  179.1820  144.4190 O   0  0  0  0  0  1  0  0  0  0  0  0
  191.6130  176.6950  146.6010 C   0  0  0  0  0  3  0  0  0  0  0  0
  190.6560  177.0570  147.7270 C   0  0  0  0  0  1  0  0  0  0  0  0
  192.0690  175.2560  146.7490 C   0  0  0  0  0  1  0  0  0  0  0  0
  1  5  1  0  0  0  0
  1 17  1  0  0  0  0
  2 12  2  0  0  0  0
  3 15  1  0  0  0  0
  4  8  1  6  0  0  0
  4  5  1  0  0  0  0
  6 10  2  0  0  0  0
  7 11  2  0  0  0  0
  7  6  1  0  0  0  0
  8  6  1  0  0  0  0
  9  3  2  0  0  0  0
 10  3  1  0  0  0  0
 10  1  1  0  0  0  0
 11  9  1  0  0  0  0
 12 13  1  0  0  0  0
 13 32  1  1  0  0  0
 14 13  1  0  0  0  0
 15 17  1  0  0  0  0
 15  2  1  1  0  0  0
 16 14  1  0  0  0  0
 17 16  1  1  0  0  0
 18 22  1  0  0  0  0
 19 25  1  0  0  0  0
 20 29  1  0  0  0  0
 20 26  1  0  0  0  0
 21 20  2  0  0  0  0
 22 21  1  0  0  0  0
 22 25  2  0  0  0  0
 23  4  1  0  0  0  0
 23 19  1  1  0  0  0
 24 26  2  0  0  0  0
 25 24  1  0  0  0  0
 27 23  1  0  0  0  0
 28 27  1  0  0  0  0
 28 18  1  0  0  0  0
 29 31  1  0  0  0  0
 30 29  2  0  0  0  0
 32 34  1  0  0  0  0
 32 33  1  0  0  0  0
M  END
>  <MODEL>
3

>  <REMARK>
 VINA RESULT:      -9.3      4.049      9.444
  Name = 
  3 active torsions:
  status: ('A' for Active; 'I' for Inactive)
    1  A    between atoms: C_3  and  C_25
    2  A    between atoms: C_7  and  C_11
    3  A    between atoms: C_8  and  C_18
                            x       y       z     vdW  Elec       q    Type
                         _______ _______ _______ _____ _____    ______ ____

>  <TORSDO>
F 3

$$$$
=
 OpenBabel11052415493D

 34 39  0  0  1  0  0  0  0  0999 V2000
  191.1140  176.4570  138.1120 N   0  0  0  0  0  0  0  0  0  0  0  0
  191.9370  174.5230  135.1450 C   0  0  0  0  0  3  0  0  0  0  0  0
  190.4680  176.4340  135.8900 C   0  0  0  0  0  0  0  0  0  0  0  0
  189.7950  177.5920  139.8390 C   0  0  1  0  0  3  0  0  0  0  0  0
  190.7550  176.4230  139.5250 C   0  0  0  0  0  2  0  0  0  0  0  0
  188.9300  177.3910  137.4600 C   0  0  0  0  0  0  0  0  0  0  0  0
  188.0520  177.6250  136.4420 N   0  0  0  0  0  0  0  0  0  0  0  0
  188.5570  177.5860  138.9050 C   0  0  0  0  0  2  0  0  0  0  0  0
  189.5980  176.6960  134.8310 C   0  0  0  0  0  3  0  0  0  0  0  0
  190.1480  176.8150  137.1550 C   0  0  0  0  0  0  0  0  0  0  0  0
  188.3670  177.3090  135.1440 C   0  0  0  0  0  3  0  0  0  0  0  0
  192.9240  173.6260  135.3470 C   0  0  0  0  0  3  0  0  0  0  0  0
  193.9810  173.6830  136.4380 C   0  0  2  0  0  3  0  0  0  0  0  0
  194.4500  175.1040  136.8080 C   0  0  0  0  0  2  0  0  0  0  0  0
  191.8190  175.8040  135.9190 C   0  0  1  0  0  3  0  0  0  0  0  0
  193.5000  175.7930  137.8030 C   0  0  0  0  0  2  0  0  0  0  0  0
  192.0410  175.5600  137.4290 C   0  0  1  0  0  3  0  0  0  0  0  0
  187.6280  177.1400  143.7410 C   0  0  0  0  0  2  0  0  0  0  0  0
  189.9980  176.3680  142.0200 C   0  0  0  0  0  2  0  0  0  0  0  0
  190.4670  177.0820  146.2450 C   0  0  0  0  0  0  0  0  0  0  0  0
  189.2010  177.2120  145.6620 C   0  0  0  0  0  3  0  0  0  0  0  0
  189.0140  176.9910  144.2940 C   0  0  0  0  0  0  0  0  0  0  0  0
  189.3660  177.5620  141.3040 C   0  0  2  0  0  3  0  0  0  0  0  0
  191.3830  176.4970  144.0750 C   0  0  0  0  0  3  0  0  0  0  0  0
  190.1200  176.6290  143.4900 C   0  0  0  0  0  0  0  0  0  0  0  0
  191.5570  176.7220  145.4430 C   0  0  0  0  0  3  0  0  0  0  0  0
  187.9700  177.4560  141.3930 O   0  0  0  0  0  0  0  0  0  0  0  0
  187.6020  178.1170  142.5720 C   0  0  0  0  0  2  0  0  0  0  0  0
  190.6450  177.3190  147.6860 C   0  0  0  0  0  0  0  0  0  0  0  0
  191.7530  177.0850  148.2400 O   0  0  0  0  0  0  0  0  0  0  0  0
  189.5910  177.8050  148.4520 O   0  0  0  0  0  1  0  0  0  0  0  0
  195.1430  172.7470  136.1000 C   0  0  0  0  0  3  0  0  0  0  0  0
  196.3390  173.4880  135.5220 C   0  0  0  0  0  1  0  0  0  0  0  0
  195.5670  171.9470  137.3170 C   0  0  0  0  0  1  0  0  0  0  0  0
  1  5  1  0  0  0  0
  2 12  2  0  0  0  0
  3 15  1  0  0  0  0
  3 10  1  0  0  0  0
  4  8  1  6  0  0  0
  4 23  1  0  0  0  0
  5  4  1  0  0  0  0
  6  8  1  0  0  0  0
  7  6  1  0  0  0  0
  9 11  1  0  0  0  0
  9  3  2  0  0  0  0
 10  6  2  0  0  0  0
 10  1  1  0  0  0  0
 11  7  2  0  0  0  0
 12 13  1  0  0  0  0
 13 32  1  6  0  0  0
 13 14  1  0  0  0  0
 14 16  1  0  0  0  0
 15  2  1  6  0  0  0
 15 17  1  0  0  0  0
 17 16  1  1  0  0  0
 17  1  1  0  0  0  0
 18 22  1  0  0  0  0
 19 25  1  0  0  0  0
 20 29  1  0  0  0  0
 21 20  1  0  0  0  0
 22 21  2  0  0  0  0
 23 27  1  0  0  0  0
 23 19  1  1  0  0  0
 24 26  1  0  0  0  0
 25 24  2  0  0  0  0
 25 22  1  0  0  0  0
 26 20  2  0  0  0  0
 27 28  1  0  0  0  0
 28 18  1  0  0  0  0
 29 30  2  0  0  0  0
 29 31  1  0  0  0  0
 32 34  1  0  0  0  0
 33 32  1  0  0  0  0
M  END
>  <MODEL>
4

>  <REMARK>
 VINA RESULT:      -9.2      5.710      8.171
  Name = 
  3 active torsions:
  status: ('A' for Active; 'I' for Inactive)
    1  A    between atoms: C_3  and  C_25
    2  A    between atoms: C_7  and  C_11
    3  A    between atoms: C_8  and  C_18
                            x       y       z     vdW  Elec       q    Type
                         _______ _______ _______ _____ _____    ______ ____

>  <TORSDO>
F 3

$$$$
=
 OpenBabel11052415493D

 34 39  0  0  1  0  0  0  0  0999 V2000
  185.2710  178.4250  139.4160 N   0  0  0  0  0  0  0  0  0  0  0  0
  184.8230  176.9280  136.1330 C   0  0  0  0  0  3  0  0  0  0  0  0
  183.5500  178.2260  137.8820 C   0  0  0  0  0  0  0  0  0  0  0  0
  184.8630  179.0250  141.7580 C   0  0  1  0  0  3  0  0  0  0  0  0
  185.7680  178.2490  140.7750 C   0  0  0  0  0  2  0  0  0  0  0  0
  182.9300  178.5870  140.1690 C   0  0  0  0  0  0  0  0  0  0  0  0
  181.6150  178.5320  139.8110 N   0  0  0  0  0  0  0  0  0  0  0  0
  183.3730  178.6220  141.6070 C   0  0  0  0  0  2  0  0  0  0  0  0
  182.2100  178.2000  137.4910 C   0  0  0  0  0  3  0  0  0  0  0  0
  183.8850  178.4560  139.1790 C   0  0  0  0  0  0  0  0  0  0  0  0
  181.2400  178.3620  138.5030 C   0  0  0  0  0  3  0  0  0  0  0  0
  185.9570  176.4080  135.6220 C   0  0  0  0  0  3  0  0  0  0  0  0
  187.3760  176.7960  136.0060 C   0  0  2  0  0  3  0  0  0  0  0  0
  187.5660  178.2850  136.3550 C   0  0  0  0  0  2  0  0  0  0  0  0
  184.8060  178.0820  137.0920 C   0  0  1  0  0  3  0  0  0  0  0  0
  187.1710  178.6010  137.8080 C   0  0  0  0  0  2  0  0  0  0  0  0
  185.8730  177.9010  138.1950 C   0  0  1  0  0  3  0  0  0  0  0  0
  185.2200  178.2520  146.1620 C   0  0  0  0  0  2  0  0  0  0  0  0
  186.0350  177.4800  143.3500 C   0  0  0  0  0  2  0  0  0  0  0  0
  188.9100  177.5090  146.5600 C   0  0  0  0  0  0  0  0  0  0  0  0
  187.5820  177.8640  146.8240 C   0  0  0  0  0  3  0  0  0  0  0  0
  186.6250  177.8690  145.8050 C   0  0  0  0  0  0  0  0  0  0  0  0
  185.3330  178.8290  143.1980 C   0  0  2  0  0  3  0  0  0  0  0  0
  188.3310  177.1490  144.2310 C   0  0  0  0  0  3  0  0  0  0  0  0
  187.0040  177.5070  144.4910 C   0  0  0  0  0  0  0  0  0  0  0  0
  189.2780  177.1510  145.2580 C   0  0  0  0  0  3  0  0  0  0  0  0
  184.2350  178.8690  144.0700 O   0  0  0  0  0  0  0  0  0  0  0  0
  184.7150  179.3870  145.2790 C   0  0  0  0  0  2  0  0  0  0  0  0
  189.9040  177.5110  147.6440 C   0  0  0  0  0  0  0  0  0  0  0  0
  189.7150  178.1970  148.6840 O   0  0  0  0  0  1  0  0  0  0  0  0
  191.0660  176.7540  147.5310 O   0  0  0  0  0  0  0  0  0  0  0  0
  188.3660  176.3070  134.9460 C   0  0  0  0  0  3  0  0  0  0  0  0
  189.7990  176.7090  135.2580 C   0  0  0  0  0  1  0  0  0  0  0  0
  188.2740  174.8030  134.7710 C   0  0  0  0  0  1  0  0  0  0  0  0
  1  5  1  0  0  0  0
  3 10  1  0  0  0  0
  4  5  1  6  0  0  0
  4 23  1  0  0  0  0
  6  8  1  0  0  0  0
  7  6  1  0  0  0  0
  8  4  1  0  0  0  0
  9  3  2  0  0  0  0
  9 11  1  0  0  0  0
 10  1  1  0  0  0  0
 10  6  2  0  0  0  0
 11  7  2  0  0  0  0
 12 13  1  0  0  0  0
 12  2  2  0  0  0  0
 13 32  1  6  0  0  0
 13 14  1  0  0  0  0
 14 16  1  0  0  0  0
 15  2  1  6  0  0  0
 15  3  1  0  0  0  0
 15 17  1  0  0  0  0
 17 16  1  6  0  0  0
 17  1  1  0  0  0  0
 19 25  1  0  0  0  0
 20 21  1  0  0  0  0
 20 29  1  0  0  0  0
 22 18  1  0  0  0  0
 22 21  2  0  0  0  0
 23 19  1  6  0  0  0
 23 27  1  0  0  0  0
 24 25  2  0  0  0  0
 24 26  1  0  0  0  0
 25 22  1  0  0  0  0
 26 20  2  0  0  0  0
 27 28  1  0  0  0  0
 28 18  1  0  0  0  0
 29 30  1  0  0  0  0
 31 29  2  0  0  0  0
 32 33  1  0  0  0  0
 34 32  1  0  0  0  0
M  END
>  <MODEL>
5

>  <REMARK>
 VINA RESULT:      -9.0      1.794      3.216
  Name = 
  3 active torsions:
  status: ('A' for Active; 'I' for Inactive)
    1  A    between atoms: C_3  and  C_25
    2  A    between atoms: C_7  and  C_11
    3  A    between atoms: C_8  and  C_18
                            x       y       z     vdW  Elec       q    Type
                         _______ _______ _______ _____ _____    ______ ____

>  <TORSDO>
F 3

$$$$
=
 OpenBabel11052415493D

 34 39  0  0  1  0  0  0  0  0999 V2000
  187.4970  177.8430  139.0660 N   0  0  0  0  0  0  0  0  0  0  0  0
  188.1940  175.9080  136.0680 C   0  0  0  0  0  3  0  0  0  0  0  0
  186.4950  177.5200  137.0060 C   0  0  0  0  0  0  0  0  0  0  0  0
  186.2830  178.8030  140.9680 C   0  0  1  0  0  3  0  0  0  0  0  0
  187.4060  177.8400  140.5210 C   0  0  0  0  0  2  0  0  0  0  0  0
  185.0820  178.2490  138.8000 C   0  0  0  0  0  0  0  0  0  0  0  0
  184.0110  178.2180  137.9550 N   0  0  0  0  0  0  0  0  0  0  0  0
  184.9330  178.4690  140.2810 C   0  0  0  0  0  2  0  0  0  0  0  0
  185.4180  177.5150  136.1180 C   0  0  0  0  0  3  0  0  0  0  0  0
  186.3240  177.9190  138.2940 C   0  0  0  0  0  0  0  0  0  0  0  0
  184.1560  177.8800  136.6340 C   0  0  0  0  0  3  0  0  0  0  0  0
  189.3720  175.2550  136.1140 C   0  0  0  0  0  3  0  0  0  0  0  0
  190.5650  175.6120  136.9860 C   0  0  2  0  0  3  0  0  0  0  0  0
  190.7690  177.1230  137.2120 C   0  0  0  0  0  2  0  0  0  0  0  0
  187.9340  177.1900  136.8050 C   0  0  1  0  0  3  0  0  0  0  0  0
  189.8790  177.6710  138.3420 C   0  0  0  0  0  2  0  0  0  0  0  0
  188.4640  177.1110  138.2540 C   0  0  1  0  0  3  0  0  0  0  0  0
  184.8220  178.6210  145.2050 C   0  0  0  0  0  2  0  0  0  0  0  0
  186.6230  177.4650  143.0630 C   0  0  0  0  0  2  0  0  0  0  0  0
  187.9960  177.8740  147.1280 C   0  0  0  0  0  0  0  0  0  0  0  0
  186.7000  178.2850  146.7950 C   0  0  0  0  0  3  0  0  0  0  0  0
  186.2240  178.1690  145.4860 C   0  0  0  0  0  0  0  0  0  0  0  0
  186.1330  178.7940  142.4870 C   0  0  2  0  0  3  0  0  0  0  0  0
  188.3570  177.2160  144.8200 C   0  0  0  0  0  3  0  0  0  0  0  0
  187.0640  177.6280  144.4850 C   0  0  0  0  0  0  0  0  0  0  0  0
  188.8220  177.3380  146.1320 C   0  0  0  0  0  3  0  0  0  0  0  0
  184.7860  178.9690  142.8370 O   0  0  0  0  0  0  0  0  0  0  0  0
  184.7860  179.6360  144.0690 C   0  0  0  0  0  2  0  0  0  0  0  0
  188.4810  178.0040  148.5110 C   0  0  0  0  0  0  0  0  0  0  0  0
  187.6850  177.8870  149.4810 O   0  0  0  0  0  1  0  0  0  0  0  0
  189.8250  178.2600  148.7610 O   0  0  0  0  0  0  0  0  0  0  0  0
  191.8270  174.9170  136.4700 C   0  0  0  0  0  3  0  0  0  0  0  0
  192.7780  174.5300  137.5930 C   0  0  0  0  0  1  0  0  0  0  0  0
  191.4740  173.6940  135.6440 C   0  0  0  0  0  1  0  0  0  0  0  0
  1  5  1  0  0  0  0
  2 12  2  0  0  0  0
  3 10  1  0  0  0  0
  4  8  1  6  0  0  0
  4 23  1  0  0  0  0
  5  4  1  0  0  0  0
  6  8  1  0  0  0  0
  7  6  1  0  0  0  0
  9 11  1  0  0  0  0
  9  3  2  0  0  0  0
 10  6  2  0  0  0  0
 10  1  1  0  0  0  0
 11  7  2  0  0  0  0
 12 13  1  0  0  0  0
 13 32  1  6  0  0  0
 13 14  1  0  0  0  0
 14 16  1  0  0  0  0
 15  2  1  1  0  0  0
 15  3  1  0  0  0  0
 15 17  1  0  0  0  0
 17 16  1  6  0  0  0
 17  1  1  0  0  0  0
 18 22  1  0  0  0  0
 19 25  1  0  0  0  0
 20 29  1  0  0  0  0
 21 20  1  0  0  0  0
 22 21  2  0  0  0  0
 23 27  1  0  0  0  0
 23 19  1  6  0  0  0
 24 26  1  0  0  0  0
 25 24  2  0  0  0  0
 25 22  1  0  0  0  0
 26 20  2  0  0  0  0
 27 28  1  0  0  0  0
 28 18  1  0  0  0  0
 29 31  2  0  0  0  0
 29 30  1  0  0  0  0
 32 33  1  0  0  0  0
 34 32  1  0  0  0  0
M  END
>  <MODEL>
6

>  <REMARK>
 VINA RESULT:      -8.9      3.241      5.281
  Name = 
  3 active torsions:
  status: ('A' for Active; 'I' for Inactive)
    1  A    between atoms: C_3  and  C_25
    2  A    between atoms: C_7  and  C_11
    3  A    between atoms: C_8  and  C_18
                            x       y       z     vdW  Elec       q    Type
                         _______ _______ _______ _____ _____    ______ ____

>  <TORSDO>
F 3

$$$$
=
 OpenBabel11052415493D

 34 39  0  0  1  0  0  0  0  0999 V2000
  190.9500  176.2740  138.0590 N   0  0  0  0  0  0  0  0  0  0  0  0
  192.2620  174.2970  135.3040 C   0  0  0  0  0  3  0  0  0  0  0  0
  190.6190  176.1530  135.7720 C   0  0  0  0  0  0  0  0  0  0  0  0
  189.3540  177.3930  139.5480 C   0  0  1  0  0  3  0  0  0  0  0  0
  190.4010  176.2640  139.4100 C   0  0  0  0  0  2  0  0  0  0  0  0
  188.8360  177.0780  137.0810 C   0  0  0  0  0  0  0  0  0  0  0  0
  188.0980  177.2380  135.9450 N   0  0  0  0  0  0  0  0  0  0  0  0
  188.2590  177.2960  138.4530 C   0  0  0  0  0  2  0  0  0  0  0  0
  189.8920  176.3400  134.5950 C   0  0  0  0  0  3  0  0  0  0  0  0
  190.1090  176.5550  136.9670 C   0  0  0  0  0  0  0  0  0  0  0  0
  188.6030  176.9000  134.7150 C   0  0  0  0  0  3  0  0  0  0  0  0
  193.2510  173.4570  135.6710 C   0  0  0  0  0  3  0  0  0  0  0  0
  194.1440  173.5990  136.8930 C   0  0  2  0  0  3  0  0  0  0  0  0
  194.4920  175.0520  137.2730 C   0  0  0  0  0  2  0  0  0  0  0  0
  191.9790  175.5920  136.0080 C   0  0  1  0  0  3  0  0  0  0  0  0
  193.3830  175.7220  138.1030 C   0  0  0  0  0  2  0  0  0  0  0  0
  192.0010  175.4050  137.5420 C   0  0  1  0  0  3  0  0  0  0  0  0
  188.5260  177.3470  143.9560 C   0  0  0  0  0  2  0  0  0  0  0  0
  188.2240  178.7810  141.3060 C   0  0  0  0  0  2  0  0  0  0  0  0
  184.9700  178.6340  144.1280 C   0  0  0  0  0  0  0  0  0  0  0  0
  186.1810  178.0070  144.4430 C   0  0  0  0  0  3  0  0  0  0  0  0
  187.2550  178.0320  143.5480 C   0  0  0  0  0  0  0  0  0  0  0  0
  188.7290  177.3850  140.9410 C   0  0  2  0  0  3  0  0  0  0  0  0
  185.9060  179.3310  142.0010 C   0  0  0  0  0  3  0  0  0  0  0  0
  187.1160  178.7030  142.3110 C   0  0  0  0  0  0  0  0  0  0  0  0
  184.8390  179.2970  142.9020 C   0  0  0  0  0  3  0  0  0  0  0  0
  189.6800  176.9850  141.8910 O   0  0  0  0  0  0  0  0  0  0  0  0
  188.9680  176.3340  142.9070 C   0  0  0  0  0  2  0  0  0  0  0  0
  183.8490  178.5950  145.0800 C   0  0  0  0  0  0  0  0  0  0  0  0
  182.6590  178.5650  144.6670 O   0  0  0  0  0  0  0  0  0  0  0  0
  184.0930  178.5930  146.4500 O   0  0  0  0  0  1  0  0  0  0  0  0
  195.3820  172.7120  136.7520 C   0  0  0  0  0  3  0  0  0  0  0  0
  196.4010  173.2870  135.7780 C   0  0  0  0  0  1  0  0  0  0  0  0
  196.0330  172.4690  138.1000 C   0  0  0  0  0  1  0  0  0  0  0  0
  1  5  1  0  0  0  0
  2 12  2  0  0  0  0
  3 15  1  0  0  0  0
  3 10  1  0  0  0  0
  4  8  1  6  0  0  0
  4 23  1  0  0  0  0
  5  4  1  0  0  0  0
  6  8  1  0  0  0  0
  7  6  1  0  0  0  0
  9 11  1  0  0  0  0
  9  3  2  0  0  0  0
 10  6  2  0  0  0  0
 10  1  1  0  0  0  0
 11  7  2  0  0  0  0
 12 13  1  0  0  0  0
 13 32  1  6  0  0  0
 13 14  1  0  0  0  0
 14 16  1  0  0  0  0
 15  2  1  6  0  0  0
 15 17  1  0  0  0  0
 17  1  1  0  0  0  0
 17 16  1  1  0  0  0
 19 25  1  0  0  0  0
 20 21  1  0  0  0  0
 20 29  1  0  0  0  0
 22 18  1  0  0  0  0
 22 21  2  0  0  0  0
 23 19  1  1  0  0  0
 23 27  1  0  0  0  0
 24 25  2  0  0  0  0
 24 26  1  0  0  0  0
 25 22  1  0  0  0  0
 26 20  2  0  0  0  0
 27 28  1  0  0  0  0
 28 18  1  0  0  0  0
 29 31  1  0  0  0  0
 30 29  2  0  0  0  0
 32 34  1  0  0  0  0
 33 32  1  0  0  0  0
M  END
>  <MODEL>
7

>  <REMARK>
 VINA RESULT:      -8.7      5.758      8.898
  Name = 
  3 active torsions:
  status: ('A' for Active; 'I' for Inactive)
    1  A    between atoms: C_3  and  C_25
    2  A    between atoms: C_7  and  C_11
    3  A    between atoms: C_8  and  C_18
                            x       y       z     vdW  Elec       q    Type
                         _______ _______ _______ _____ _____    ______ ____

>  <TORSDO>
F 3

$$$$
=
 OpenBabel11052415493D

 34 39  0  0  1  0  0  0  0  0999 V2000
  189.0560  177.8550  141.4900 N   0  0  0  0  0  0  0  0  0  0  0  0
  187.0030  177.8780  144.4910 C   0  0  0  0  0  3  0  0  0  0  0  0
  189.4080  178.1080  143.7630 C   0  0  0  0  0  0  0  0  0  0  0  0
  190.8820  177.3230  139.9420 C   0  0  1  0  0  3  0  0  0  0  0  0
  189.3720  177.1780  140.2380 C   0  0  0  0  0  2  0  0  0  0  0  0
  191.2690  177.3580  142.4520 C   0  0  0  0  0  0  0  0  0  0  0  0
  192.0260  177.2860  143.5850 N   0  0  0  0  0  0  0  0  0  0  0  0
  191.7490  176.8280  141.1280 C   0  0  0  0  0  2  0  0  0  0  0  0
  190.1750  178.0730  144.9280 C   0  0  0  0  0  3  0  0  0  0  0  0
  189.9640  177.7980  142.5620 C   0  0  0  0  0  0  0  0  0  0  0  0
  191.5160  177.6490  144.8060 C   0  0  0  0  0  3  0  0  0  0  0  0
  185.6820  177.7890  144.2370 C   0  0  0  0  0  3  0  0  0  0  0  0
  184.9900  178.1600  142.9360 C   0  0  2  0  0  3  0  0  0  0  0  0
  185.6090  179.3630  142.1960 C   0  0  0  0  0  2  0  0  0  0  0  0
  187.9860  178.4900  143.5350 C   0  0  1  0  0  3  0  0  0  0  0  0
  186.8250  178.9630  141.3440 C   0  0  0  0  0  2  0  0  0  0  0  0
  187.7350  177.9970  142.0930 C   0  0  1  0  0  3  0  0  0  0  0  0
  191.5190  176.0030  135.7020 C   0  0  0  0  0  2  0  0  0  0  0  0
  192.7490  176.7430  138.3690 C   0  0  0  0  0  2  0  0  0  0  0  0
  194.2950  173.4530  136.0540 C   0  0  0  0  0  0  0  0  0  0  0  0
  193.2070  174.1860  135.5650 C   0  0  0  0  0  3  0  0  0  0  0  0
  192.6790  175.2570  136.2930 C   0  0  0  0  0  0  0  0  0  0  0  0
  191.2550  176.5900  138.6560 C   0  0  2  0  0  3  0  0  0  0  0  0
  194.3420  174.8730  138.0220 C   0  0  0  0  0  3  0  0  0  0  0  0
  193.2540  175.6050  137.5370 C   0  0  0  0  0  0  0  0  0  0  0  0
  194.8600  173.8040  137.2870 C   0  0  0  0  0  3  0  0  0  0  0  0
  190.5310  177.1170  137.5760 O   0  0  0  0  0  0  0  0  0  0  0  0
  190.3470  176.0600  136.6760 C   0  0  0  0  0  2  0  0  0  0  0  0
  194.8370  172.3280  135.2760 C   0  0  0  0  0  0  0  0  0  0  0  0
  194.0700  171.4430  134.8130 O   0  0  0  0  0  0  0  0  0  0  0  0
  196.2050  172.2310  135.0460 O   0  0  0  0  0  1  0  0  0  0  0  0
  183.4840  178.3160  143.1610 C   0  0  0  0  0  3  0  0  0  0  0  0
  183.1580  179.3770  144.2010 C   0  0  0  0  0  1  0  0  0  0  0  0
  182.7700  178.6280  141.8590 C   0  0  0  0  0  1  0  0  0  0  0  0
  1 17  1  0  0  0  0
  1 10  1  0  0  0  0
  3  9  1  0  0  0  0
  4  5  1  1  0  0  0
  4  8  1  0  0  0  0
  5  1  1  0  0  0  0
  6 10  1  0  0  0  0
  6  7  2  0  0  0  0
  7 11  1  0  0  0  0
  8  6  1  0  0  0  0
 10  3  2  0  0  0  0
 11  9  2  0  0  0  0
 12  2  2  0  0  0  0
 13 32  1  1  0  0  0
 13 12  1  0  0  0  0
 14 13  1  0  0  0  0
 15  3  1  0  0  0  0
 15  2  1  1  0  0  0
 16 14  1  0  0  0  0
 17 16  1  6  0  0  0
 17 15  1  0  0  0  0
 18 22  1  0  0  0  0
 18 28  1  0  0  0  0
 20 26  1  0  0  0  0
 21 20  2  0  0  0  0
 21 22  1  0  0  0  0
 22 25  2  0  0  0  0
 23 19  1  6  0  0  0
 23  4  1  0  0  0  0
 25 24  1  0  0  0  0
 25 19  1  0  0  0  0
 26 24  2  0  0  0  0
 27 23  1  0  0  0  0
 28 27  1  0  0  0  0
 29 20  1  0  0  0  0
 30 29  2  0  0  0  0
 31 29  1  0  0  0  0
 32 33  1  0  0  0  0
 34 32  1  0  0  0  0
M  END
>  <MODEL>
8

>  <REMARK>
 VINA RESULT:      -8.5      6.202      9.529
  Name = 
  3 active torsions:
  status: ('A' for Active; 'I' for Inactive)
    1  A    between atoms: C_3  and  C_25
    2  A    between atoms: C_7  and  C_11
    3  A    between atoms: C_8  and  C_18
                            x       y       z     vdW  Elec       q    Type
                         _______ _______ _______ _____ _____    ______ ____

>  <TORSDO>
F 3

$$$$
=
 OpenBabel11052415493D

 34 39  0  0  1  0  0  0  0  0999 V2000
  188.8740  177.9490  141.1010 N   0  0  0  0  0  0  0  0  0  0  0  0
  191.7240  176.4140  142.7560 C   0  0  0  0  0  3  0  0  0  0  0  0
  190.9790  177.2130  140.4830 C   0  0  0  0  0  0  0  0  0  0  0  0
  187.1050  178.3650  139.4540 C   0  0  1  0  0  3  0  0  0  0  0  0
  187.4290  177.9330  140.9030 C   0  0  0  0  0  2  0  0  0  0  0  0
  189.3190  177.3340  138.7570 C   0  0  0  0  0  0  0  0  0  0  0  0
  190.2300  176.8580  137.8610 N   0  0  0  0  0  0  0  0  0  0  0  0
  187.8630  177.5000  138.4140 C   0  0  0  0  0  2  0  0  0  0  0  0
  191.9340  176.7560  139.5740 C   0  0  0  0  0  3  0  0  0  0  0  0
  189.7250  177.5290  140.0630 C   0  0  0  0  0  0  0  0  0  0  0  0
  191.5220  176.5850  138.2350 C   0  0  0  0  0  3  0  0  0  0  0  0
  191.5690  176.2960  144.0900 C   0  0  0  0  0  3  0  0  0  0  0  0
  190.6380  177.1220  144.9640 C   0  0  2  0  0  3  0  0  0  0  0  0
  190.4700  178.5890  144.5220 C   0  0  0  0  0  2  0  0  0  0  0  0
  191.0680  177.4920  141.9440 C   0  0  1  0  0  3  0  0  0  0  0  0
  189.4300  178.7470  143.3990 C   0  0  0  0  0  2  0  0  0  0  0  0
  189.5840  177.6590  142.3420 C   0  0  1  0  0  3  0  0  0  0  0  0
  182.7870  179.2860  138.6600 C   0  0  0  0  0  2  0  0  0  0  0  0
  185.3150  177.8780  137.7650 C   0  0  0  0  0  2  0  0  0  0  0  0
  181.4680  175.9700  137.3970 C   0  0  0  0  0  0  0  0  0  0  0  0
  181.5470  177.2570  137.9410 C   0  0  0  0  0  3  0  0  0  0  0  0
  182.7790  177.9030  138.0780 C   0  0  0  0  0  0  0  0  0  0  0  0
  185.6000  178.3200  139.2000 C   0  0  2  0  0  3  0  0  0  0  0  0
  183.8780  175.9630  137.1130 C   0  0  0  0  0  3  0  0  0  0  0  0
  183.9600  177.2470  137.6580 C   0  0  0  0  0  0  0  0  0  0  0  0
  182.6410  175.3260  136.9840 C   0  0  0  0  0  3  0  0  0  0  0  0
  185.0420  179.5920  139.4010 O   0  0  0  0  0  0  0  0  0  0  0  0
  183.7330  179.3780  139.8510 C   0  0  0  0  0  2  0  0  0  0  0  0
  180.1630  175.3040  137.2620 C   0  0  0  0  0  0  0  0  0  0  0  0
  179.9690  174.4560  136.3500 O   0  0  0  0  0  0  0  0  0  0  0  0
  179.1280  175.6050  138.1420 O   0  0  0  0  0  1  0  0  0  0  0  0
  191.0340  176.9900  146.4360 C   0  0  0  0  0  3  0  0  0  0  0  0
  189.8360  176.7530  147.3430 C   0  0  0  0  0  1  0  0  0  0  0  0
  192.0550  175.8840  146.6260 C   0  0  0  0  0  1  0  0  0  0  0  0
  1 17  1  0  0  0  0
  2 12  2  0  0  0  0
  3 15  1  0  0  0  0
  4  8  1  6  0  0  0
  4  5  1  0  0  0  0
  5  1  1  0  0  0  0
  6 10  2  0  0  0  0
  7 11  2  0  0  0  0
  7  6  1  0  0  0  0
  8  6  1  0  0  0  0
  9  3  2  0  0  0  0
 10  3  1  0  0  0  0
 10  1  1  0  0  0  0
 11  9  1  0  0  0  0
 12 13  1  0  0  0  0
 13 32  1  1  0  0  0
 14 13  1  0  0  0  0
 15 17  1  0  0  0  0
 15  2  1  1  0  0  0
 16 14  1  0  0  0  0
 17 16  1  1  0  0  0
 18 28  1  0  0  0  0
 20 21  1  0  0  0  0
 21 22  2  0  0  0  0
 22 18  1  0  0  0  0
 23 19  1  6  0  0  0
 23 27  1  0  0  0  0
 23  4  1  0  0  0  0
 24 25  2  0  0  0  0
 25 19  1  0  0  0  0
 25 22  1  0  0  0  0
 26 24  1  0  0  0  0
 26 20  2  0  0  0  0
 27 28  1  0  0  0  0
 29 20  1  0  0  0  0
 29 31  1  0  0  0  0
 30 29  2  0  0  0  0
 32 34  1  0  0  0  0
 32 33  1  0  0  0  0
M  END
>  <MODEL>
9

>  <REMARK>
 VINA RESULT:      -8.4      4.361     10.274
  Name = 
  3 active torsions:
  status: ('A' for Active; 'I' for Inactive)
    1  A    between atoms: C_3  and  C_25
    2  A    between atoms: C_7  and  C_11
    3  A    between atoms: C_8  and  C_18
                            x       y       z     vdW  Elec       q    Type
                         _______ _______ _______ _____ _____    ______ ____

>  <TORSDO>
F 3

$$$$
