=
 OpenBabel11052412443D

 25 28  0  0  1  0  0  0  0  0999 V2000
  187.5230  177.9990  145.4300 N   0  0  0  0  0  0  0  0  0  0  0  0
  188.8880  177.7160  145.1210 C   0  0  0  0  0  0  0  0  0  0  0  0
  187.8420  177.5520  147.7680 C   0  0  0  0  0  3  0  0  0  0  0  0
  186.5120  178.7230  144.6820 C   0  0  2  0  0  3  0  0  0  0  0  0
  183.7020  178.6760  144.0410 C   0  0  0  0  0  3  0  0  0  0  0  0
  189.2430  177.1530  147.4710 C   0  0  0  0  0  3  0  0  0  0  0  0
  185.4160  178.8600  145.7090 C   0  0  0  0  0  0  0  0  0  0  0  0
  184.0330  179.0710  145.2780 C   0  0  0  0  0  3  0  0  0  0  0  0
  191.1500  176.8730  145.9290 C   0  0  0  0  0  0  0  0  0  0  0  0
  191.9890  176.3910  146.9260 O   0  0  0  0  0  1  0  0  0  0  0  0
  189.3860  177.8440  143.8890 C   0  0  0  0  0  3  0  0  0  0  0  0
  184.6980  178.0030  143.1640 C   0  0  0  0  0  3  0  0  0  0  0  0
  187.0600  177.9600  146.7650 C   0  0  0  0  0  0  0  0  0  0  0  0
  185.7320  178.4400  146.8960 N   0  0  0  0  0  0  0  0  0  0  0  0
  191.6130  177.0160  144.6830 C   0  0  0  0  0  3  0  0  0  0  0  0
  186.0010  177.9650  143.4850 C   0  0  0  0  0  3  0  0  0  0  0  0
  190.7620  177.5160  143.6360 N   0  0  0  0  0  0  0  0  0  0  0  0
  189.7500  177.2340  146.2260 C   0  0  0  0  0  0  0  0  0  0  0  0
  191.2850  177.6280  142.2860 C   0  0  0  0  0  2  0  0  0  0  0  0
  190.4500  176.7860  141.3350 C   0  0  0  0  0  2  0  0  0  0  0  0
  190.1210  177.5730  140.0770 C   0  0  2  0  0  3  0  0  0  0  0  0
  188.4040  178.1640  140.1560 S   0  0  0  0  0  1  0  0  0  0  0  0
  190.3350  176.7520  138.8400 C   0  0  0  0  0  0  0  0  0  0  0  0
  190.7770  175.6200  138.9410 O   0  0  0  0  0  0  0  0  0  0  0  0
  190.0220  177.3000  137.4850 C   0  0  0  0  0  1  0  0  0  0  0  0
  1 13  1  0  0  0  0
  2  1  1  0  0  0  0
  2 18  1  0  0  0  0
  4 16  1  6  0  0  0
  4  1  1  0  0  0  0
  4  7  1  0  0  0  0
  5  8  2  0  0  0  0
  6  3  1  0  0  0  0
  7 14  2  0  0  0  0
  8  7  1  0  0  0  0
  9 18  1  0  0  0  0
  9 10  1  0  0  0  0
 11  2  2  0  0  0  0
 12 16  2  0  0  0  0
 12  5  1  0  0  0  0
 13 14  1  0  0  0  0
 13  3  2  0  0  0  0
 15  9  2  0  0  0  0
 17 11  1  0  0  0  0
 17 15  1  0  0  0  0
 18  6  2  0  0  0  0
 19 17  1  0  0  0  0
 20 19  1  0  0  0  0
 21 22  1  1  0  0  0
 21 20  1  0  0  0  0
 23 24  2  0  0  0  0
 23 21  1  0  0  0  0
 25 23  1  0  0  0  0
M  END
>  <MODEL>
1

>  <REMARK>
 VINA RESULT:      -9.3      0.000      0.000
  Name = 
  4 active torsions:
  status: ('A' for Active; 'I' for Inactive)
    1  A    between atoms: C_2  and  C_21
    2  A    between atoms: C_6  and  C_15
    3  A    between atoms: C_6  and  N_23
    4  A    between atoms: C_15  and  C_21
                            x       y       z     vdW  Elec       q    Type
                         _______ _______ _______ _____ _____    ______ ____

>  <TORSDO>
F 4

$$$$
=
 OpenBabel11052412443D

 25 28  0  0  1  0  0  0  0  0999 V2000
  187.8160  177.7680  145.4650 N   0  0  0  0  0  0  0  0  0  0  0  0
  186.9150  178.1480  144.4240 C   0  0  0  0  0  0  0  0  0  0  0  0
  186.2320  178.3100  147.1880 C   0  0  0  0  0  3  0  0  0  0  0  0
  189.0090  176.9440  145.4320 C   0  0  2  0  0  3  0  0  0  0  0  0
  191.6580  176.7490  146.5510 C   0  0  0  0  0  3  0  0  0  0  0  0
  185.3040  178.8100  146.1380 C   0  0  0  0  0  3  0  0  0  0  0  0
  189.2850  176.7520  146.9020 C   0  0  0  0  0  0  0  0  0  0  0  0
  190.6380  176.4200  147.3550 C   0  0  0  0  0  3  0  0  0  0  0  0
  184.6850  179.1920  143.7800 C   0  0  0  0  0  0  0  0  0  0  0  0
  183.4650  179.7690  144.1100 O   0  0  0  0  0  1  0  0  0  0  0  0
  187.2200  178.0220  143.1300 C   0  0  0  0  0  3  0  0  0  0  0  0
  191.4200  177.4720  145.2730 C   0  0  0  0  0  3  0  0  0  0  0  0
  187.4150  177.8110  146.8210 C   0  0  0  0  0  0  0  0  0  0  0  0
  188.3730  177.2320  147.6920 N   0  0  0  0  0  0  0  0  0  0  0  0
  185.0250  179.0480  142.4950 C   0  0  0  0  0  3  0  0  0  0  0  0
  190.1820  177.6220  144.7750 C   0  0  0  0  0  3  0  0  0  0  0  0
  186.2820  178.4510  142.1290 N   0  0  0  0  0  0  0  0  0  0  0  0
  185.6140  178.7310  144.8290 C   0  0  0  0  0  0  0  0  0  0  0  0
  186.6360  178.3390  140.7260 C   0  0  0  0  0  2  0  0  0  0  0  0
  188.1060  178.6760  140.5350 C   0  0  0  0  0  2  0  0  0  0  0  0
  188.7880  177.6170  139.6830 C   0  0  2  0  0  3  0  0  0  0  0  0
  190.2080  176.9280  140.5830 S   0  0  0  0  0  1  0  0  0  0  0  0
  189.2270  178.1720  138.3600 C   0  0  0  0  0  0  0  0  0  0  0  0
  188.9940  179.3380  138.0920 O   0  0  0  0  0  0  0  0  0  0  0  0
  189.9390  177.3170  137.3610 C   0  0  0  0  0  1  0  0  0  0  0  0
  1 13  1  0  0  0  0
  2 18  1  0  0  0  0
  2  1  1  0  0  0  0
  4 16  1  1  0  0  0
  4  1  1  0  0  0  0
  4  7  1  0  0  0  0
  5  8  2  0  0  0  0
  6  3  1  0  0  0  0
  7  8  1  0  0  0  0
  7 14  2  0  0  0  0
  9 10  1  0  0  0  0
  9 18  1  0  0  0  0
 11  2  2  0  0  0  0
 12  5  1  0  0  0  0
 13  3  2  0  0  0  0
 13 14  1  0  0  0  0
 15  9  2  0  0  0  0
 16 12  2  0  0  0  0
 17 15  1  0  0  0  0
 17 11  1  0  0  0  0
 18  6  2  0  0  0  0
 19 17  1  0  0  0  0
 20 19  1  0  0  0  0
 21 20  1  0  0  0  0
 21 22  1  1  0  0  0
 23 21  1  0  0  0  0
 24 23  2  0  0  0  0
 25 23  1  0  0  0  0
M  END
>  <MODEL>
2

>  <REMARK>
 VINA RESULT:      -8.8      2.576      4.792
  Name = 
  4 active torsions:
  status: ('A' for Active; 'I' for Inactive)
    1  A    between atoms: C_2  and  C_21
    2  A    between atoms: C_6  and  C_15
    3  A    between atoms: C_6  and  N_23
    4  A    between atoms: C_15  and  C_21
                            x       y       z     vdW  Elec       q    Type
                         _______ _______ _______ _____ _____    ______ ____

>  <TORSDO>
F 4

$$$$
=
 OpenBabel11052412443D

 25 28  0  0  1  0  0  0  0  0999 V2000
  187.4020  177.9500  144.9920 N   0  0  0  0  0  0  0  0  0  0  0  0
  188.7100  177.6070  144.5320 C   0  0  0  0  0  0  0  0  0  0  0  0
  187.9660  177.4950  147.2820 C   0  0  0  0  0  3  0  0  0  0  0  0
  186.3450  178.7160  144.3590 C   0  0  2  0  0  3  0  0  0  0  0  0
  183.4810  178.7920  144.0430 C   0  0  0  0  0  3  0  0  0  0  0  0
  189.3060  177.0340  146.8310 C   0  0  0  0  0  3  0  0  0  0  0  0
  185.3810  178.9040  145.5030 C   0  0  0  0  0  0  0  0  0  0  0  0
  183.9670  179.1750  145.2310 C   0  0  0  0  0  3  0  0  0  0  0  0
  191.0100  176.6670  145.0840 C   0  0  0  0  0  0  0  0  0  0  0  0
  191.9350  176.1500  145.9830 O   0  0  0  0  0  1  0  0  0  0  0  0
  189.0690  177.7100  143.2510 C   0  0  0  0  0  3  0  0  0  0  0  0
  184.3400  178.0730  143.0630 C   0  0  0  0  0  3  0  0  0  0  0  0
  187.0930  177.9350  146.3720 C   0  0  0  0  0  0  0  0  0  0  0  0
  185.8110  178.4740  146.6500 N   0  0  0  0  0  0  0  0  0  0  0  0
  191.3330  176.7860  143.7930 C   0  0  0  0  0  3  0  0  0  0  0  0
  185.6680  177.9790  143.2340 C   0  0  0  0  0  3  0  0  0  0  0  0
  190.3920  177.3200  142.8450 N   0  0  0  0  0  0  0  0  0  0  0  0
  189.6690  177.0890  145.5360 C   0  0  0  0  0  0  0  0  0  0  0  0
  190.7620  177.4060  141.4440 C   0  0  0  0  0  2  0  0  0  0  0  0
  189.5300  177.6920  140.5990 C   0  0  0  0  0  2  0  0  0  0  0  0
  189.7110  177.1420  139.1940 C   0  0  2  0  0  3  0  0  0  0  0  0
  191.4410  176.6410  138.9490 S   0  0  0  0  0  1  0  0  0  0  0  0
  189.3040  178.1430  138.1530 C   0  0  0  0  0  0  0  0  0  0  0  0
  188.9800  179.2670  138.4970 O   0  0  0  0  0  0  0  0  0  0  0  0
  189.2820  177.7840  136.7020 C   0  0  0  0  0  1  0  0  0  0  0  0
  1 13  1  0  0  0  0
  2  1  1  0  0  0  0
  2 18  1  0  0  0  0
  4 16  1  6  0  0  0
  4  1  1  0  0  0  0
  4  7  1  0  0  0  0
  5  8  2  0  0  0  0
  6  3  1  0  0  0  0
  7 14  2  0  0  0  0
  8  7  1  0  0  0  0
  9 18  1  0  0  0  0
  9 10  1  0  0  0  0
 11  2  2  0  0  0  0
 12 16  2  0  0  0  0
 12  5  1  0  0  0  0
 13 14  1  0  0  0  0
 13  3  2  0  0  0  0
 15  9  2  0  0  0  0
 17 11  1  0  0  0  0
 17 15  1  0  0  0  0
 18  6  2  0  0  0  0
 19 17  1  0  0  0  0
 20 19  1  0  0  0  0
 21 22  1  6  0  0  0
 21 20  1  0  0  0  0
 23 24  2  0  0  0  0
 23 21  1  0  0  0  0
 25 23  1  0  0  0  0
M  END
>  <MODEL>
3

>  <REMARK>
 VINA RESULT:      -8.8      1.281      1.349
  Name = 
  4 active torsions:
  status: ('A' for Active; 'I' for Inactive)
    1  A    between atoms: C_2  and  C_21
    2  A    between atoms: C_6  and  C_15
    3  A    between atoms: C_6  and  N_23
    4  A    between atoms: C_15  and  C_21
                            x       y       z     vdW  Elec       q    Type
                         _______ _______ _______ _____ _____    ______ ____

>  <TORSDO>
F 4

$$$$
=
 OpenBabel11052412443D

 25 28  0  0  1  0  0  0  0  0999 V2000
  189.1300  177.3390  143.8530 N   0  0  0  0  0  0  0  0  0  0  0  0
  188.3020  177.6510  144.9740 C   0  0  0  0  0  0  0  0  0  0  0  0
  190.9860  176.7290  145.2500 C   0  0  0  0  0  3  0  0  0  0  0  0
  188.7890  177.0610  142.4710 C   0  0  2  0  0  3  0  0  0  0  0  0
  189.6940  177.5330  139.7750 C   0  0  0  0  0  3  0  0  0  0  0  0
  190.1900  177.1370  146.4380 C   0  0  0  0  0  3  0  0  0  0  0  0
  190.1050  176.5600  141.9300 C   0  0  0  0  0  0  0  0  0  0  0  0
  190.3780  176.6310  140.4930 C   0  0  0  0  0  3  0  0  0  0  0  0
  188.1100  177.9410  147.4960 C   0  0  0  0  0  0  0  0  0  0  0  0
  188.6520  177.9050  148.7750 O   0  0  0  0  0  1  0  0  0  0  0  0
  187.0300  178.0330  144.8420 C   0  0  0  0  0  3  0  0  0  0  0  0
  188.7330  178.4590  140.4320 C   0  0  0  0  0  3  0  0  0  0  0  0
  190.4370  176.8310  144.0370 C   0  0  0  0  0  0  0  0  0  0  0  0
  191.0370  176.4160  142.8210 N   0  0  0  0  0  0  0  0  0  0  0  0
  186.8390  178.3180  147.3230 C   0  0  0  0  0  3  0  0  0  0  0  0
  188.3530  178.2840  141.7080 C   0  0  0  0  0  3  0  0  0  0  0  0
  186.2560  178.3600  146.0080 N   0  0  0  0  0  0  0  0  0  0  0  0
  188.9190  177.5670  146.3190 C   0  0  0  0  0  0  0  0  0  0  0  0
  184.8840  178.8050  145.8510 C   0  0  0  0  0  2  0  0  0  0  0  0
  184.2580  178.1370  144.6370 C   0  0  0  0  0  2  0  0  0  0  0  0
  183.7640  179.1830  143.6510 C   0  0  2  0  0  3  0  0  0  0  0  0
  181.9620  179.0430  143.4600 S   0  0  0  0  0  1  0  0  0  0  0  0
  184.4430  179.0510  142.3190 C   0  0  0  0  0  0  0  0  0  0  0  0
  185.4170  179.7400  142.0720 O   0  0  0  0  0  0  0  0  0  0  0  0
  183.9400  178.0930  141.2880 C   0  0  0  0  0  1  0  0  0  0  0  0
  1 13  1  0  0  0  0
  1  2  1  0  0  0  0
  2 18  1  0  0  0  0
  3  6  1  0  0  0  0
  4 16  1  6  0  0  0
  4  1  1  0  0  0  0
  5 12  1  0  0  0  0
  5  8  2  0  0  0  0
  7  4  1  0  0  0  0
  7 14  2  0  0  0  0
  8  7  1  0  0  0  0
  9 10  1  0  0  0  0
 11  2  2  0  0  0  0
 11 17  1  0  0  0  0
 12 16  2  0  0  0  0
 13  3  2  0  0  0  0
 14 13  1  0  0  0  0
 15  9  2  0  0  0  0
 17 15  1  0  0  0  0
 18  6  2  0  0  0  0
 18  9  1  0  0  0  0
 19 17  1  0  0  0  0
 20 19  1  0  0  0  0
 21 22  1  6  0  0  0
 21 20  1  0  0  0  0
 23 21  1  0  0  0  0
 24 23  2  0  0  0  0
 25 23  1  0  0  0  0
M  END
>  <MODEL>
4

>  <REMARK>
 VINA RESULT:      -8.6      2.511      5.569
  Name = 
  4 active torsions:
  status: ('A' for Active; 'I' for Inactive)
    1  A    between atoms: C_2  and  C_21
    2  A    between atoms: C_6  and  C_15
    3  A    between atoms: C_6  and  N_23
    4  A    between atoms: C_15  and  C_21
                            x       y       z     vdW  Elec       q    Type
                         _______ _______ _______ _____ _____    ______ ____

>  <TORSDO>
F 4

$$$$
=
 OpenBabel11052412443D

 25 28  0  0  1  0  0  0  0  0999 V2000
  187.3330  178.1700  142.7170 N   0  0  0  0  0  0  0  0  0  0  0  0
  187.1300  178.1610  144.1310 C   0  0  0  0  0  0  0  0  0  0  0  0
  185.0360  178.7150  142.2770 C   0  0  0  0  0  3  0  0  0  0  0  0
  188.5500  178.2750  141.9350 C   0  0  2  0  0  3  0  0  0  0  0  0
  189.8010  177.2620  139.5440 C   0  0  0  0  0  3  0  0  0  0  0  0
  184.7630  178.6170  143.7360 C   0  0  0  0  0  3  0  0  0  0  0  0
  188.0010  178.4890  140.5470 C   0  0  0  0  0  0  0  0  0  0  0  0
  188.8170  178.1560  139.3780 C   0  0  0  0  0  3  0  0  0  0  0  0
  185.4900  178.2980  146.0730 C   0  0  0  0  0  0  0  0  0  0  0  0
  184.2050  178.4550  146.5780 O   0  0  0  0  0  1  0  0  0  0  0  0
  188.1250  177.9520  144.9970 C   0  0  0  0  0  3  0  0  0  0  0  0
  190.0160  176.5990  140.8590 C   0  0  0  0  0  3  0  0  0  0  0  0
  186.2790  178.5050  141.8370 C   0  0  0  0  0  0  0  0  0  0  0  0
  186.7120  178.6340  140.4920 N   0  0  0  0  0  0  0  0  0  0  0  0
  186.5120  178.0880  146.9090 C   0  0  0  0  0  3  0  0  0  0  0  0
  189.3890  177.0240  141.9670 C   0  0  0  0  0  3  0  0  0  0  0  0
  187.8510  177.9260  146.4080 N   0  0  0  0  0  0  0  0  0  0  0  0
  185.7460  178.3630  144.6200 C   0  0  0  0  0  0  0  0  0  0  0  0
  188.9330  177.6660  147.3390 C   0  0  0  0  0  2  0  0  0  0  0  0
  189.7750  176.5010  146.8430 C   0  0  0  0  0  2  0  0  0  0  0  0
  191.2270  176.9250  146.6830 C   0  0  2  0  0  3  0  0  0  0  0  0
  191.5220  177.4680  144.9740 S   0  0  0  0  0  1  0  0  0  0  0  0
  192.1690  175.8160  147.0500 C   0  0  0  0  0  0  0  0  0  0  0  0
  192.3990  174.9340  146.2400 O   0  0  0  0  0  0  0  0  0  0  0  0
  192.8240  175.7700  148.3920 C   0  0  0  0  0  1  0  0  0  0  0  0
  1  2  1  0  0  0  0
  2 18  1  0  0  0  0
  2 11  2  0  0  0  0
  3  6  1  0  0  0  0
  4 16  1  6  0  0  0
  4  1  1  0  0  0  0
  5 12  1  0  0  0  0
  6 18  2  0  0  0  0
  7  4  1  0  0  0  0
  8  5  2  0  0  0  0
  8  7  1  0  0  0  0
  9 10  1  0  0  0  0
  9 15  2  0  0  0  0
 11 17  1  0  0  0  0
 12 16  2  0  0  0  0
 13  3  2  0  0  0  0
 13  1  1  0  0  0  0
 14  7  2  0  0  0  0
 14 13  1  0  0  0  0
 17 15  1  0  0  0  0
 17 19  1  0  0  0  0
 18  9  1  0  0  0  0
 20 19  1  0  0  0  0
 21 22  1  6  0  0  0
 21 20  1  0  0  0  0
 21 23  1  0  0  0  0
 23 25  1  0  0  0  0
 24 23  2  0  0  0  0
M  END
>  <MODEL>
5

>  <REMARK>
 VINA RESULT:      -8.6      2.639      6.119
  Name = 
  4 active torsions:
  status: ('A' for Active; 'I' for Inactive)
    1  A    between atoms: C_2  and  C_21
    2  A    between atoms: C_6  and  C_15
    3  A    between atoms: C_6  and  N_23
    4  A    between atoms: C_15  and  C_21
                            x       y       z     vdW  Elec       q    Type
                         _______ _______ _______ _____ _____    ______ ____

>  <TORSDO>
F 4

$$$$
=
 OpenBabel11052412443D

 25 28  0  0  1  0  0  0  0  0999 V2000
  189.4240  177.4490  144.5460 N   0  0  0  0  0  0  0  0  0  0  0  0
  189.1300  177.5260  143.1510 C   0  0  0  0  0  0  0  0  0  0  0  0
  191.5790  176.4630  144.1530 C   0  0  0  0  0  3  0  0  0  0  0  0
  188.8340  178.1370  145.6780 C   0  0  2  0  0  3  0  0  0  0  0  0
  188.0440  177.7260  148.4200 C   0  0  0  0  0  3  0  0  0  0  0  0
  191.2690  176.4340  142.6990 C   0  0  0  0  0  3  0  0  0  0  0  0
  189.7970  177.7830  146.7830 C   0  0  0  0  0  0  0  0  0  0  0  0
  189.3580  177.8320  148.1800 C   0  0  0  0  0  3  0  0  0  0  0  0
  189.8180  176.9470  140.7700 C   0  0  0  0  0  0  0  0  0  0  0  0
  190.7010  176.3870  139.8540 O   0  0  0  0  0  1  0  0  0  0  0  0
  188.0050  178.0710  142.6840 C   0  0  0  0  0  3  0  0  0  0  0  0
  187.0800  177.5150  147.3070 C   0  0  0  0  0  3  0  0  0  0  0  0
  190.6740  176.9660  144.9970 C   0  0  0  0  0  0  0  0  0  0  0  0
  190.8500  177.1300  146.3950 N   0  0  0  0  0  0  0  0  0  0  0  0
  188.6810  177.5040  140.3400 C   0  0  0  0  0  3  0  0  0  0  0  0
  187.4540  177.6430  146.0240 C   0  0  0  0  0  3  0  0  0  0  0  0
  187.7530  178.0930  141.2690 N   0  0  0  0  0  0  0  0  0  0  0  0
  190.1180  176.9400  142.2150 C   0  0  0  0  0  0  0  0  0  0  0  0
  186.5120  178.6590  140.7740 C   0  0  0  0  0  2  0  0  0  0  0  0
  185.6840  179.1860  141.9350 C   0  0  0  0  0  2  0  0  0  0  0  0
  184.4730  178.2980  142.1700 C   0  0  2  0  0  3  0  0  0  0  0  0
  183.4630  178.2260  140.6600 S   0  0  0  0  0  1  0  0  0  0  0  0
  183.6490  178.7820  143.3270 C   0  0  0  0  0  0  0  0  0  0  0  0
  182.4620  179.0070  143.1640 O   0  0  0  0  0  0  0  0  0  0  0  0
  184.2610  178.9990  144.6730 C   0  0  0  0  0  1  0  0  0  0  0  0
  1 13  1  0  0  0  0
  1  4  1  0  0  0  0
  2  1  1  0  0  0  0
  3 13  2  0  0  0  0
  4 16  1  1  0  0  0
  4  7  1  0  0  0  0
  6  3  1  0  0  0  0
  7  8  1  0  0  0  0
  8  5  2  0  0  0  0
  9 18  1  0  0  0  0
 10  9  1  0  0  0  0
 11  2  2  0  0  0  0
 12  5  1  0  0  0  0
 13 14  1  0  0  0  0
 14  7  2  0  0  0  0
 15  9  2  0  0  0  0
 15 17  1  0  0  0  0
 16 12  2  0  0  0  0
 17 11  1  0  0  0  0
 18  6  2  0  0  0  0
 18  2  1  0  0  0  0
 19 17  1  0  0  0  0
 19 20  1  0  0  0  0
 20 21  1  0  0  0  0
 21 22  1  6  0  0  0
 21 23  1  0  0  0  0
 23 25  1  0  0  0  0
 24 23  2  0  0  0  0
M  END
>  <MODEL>
6

>  <REMARK>
 VINA RESULT:      -8.5      2.675      5.517
  Name = 
  4 active torsions:
  status: ('A' for Active; 'I' for Inactive)
    1  A    between atoms: C_2  and  C_21
    2  A    between atoms: C_6  and  C_15
    3  A    between atoms: C_6  and  N_23
    4  A    between atoms: C_15  and  C_21
                            x       y       z     vdW  Elec       q    Type
                         _______ _______ _______ _____ _____    ______ ____

>  <TORSDO>
F 4

$$$$
=
 OpenBabel11052412443D

 25 28  0  0  1  0  0  0  0  0999 V2000
  186.7210  178.0740  142.6440 N   0  0  0  0  0  0  0  0  0  0  0  0
  188.0680  177.6650  142.4010 C   0  0  0  0  0  0  0  0  0  0  0  0
  186.3610  178.6470  140.3390 C   0  0  0  0  0  3  0  0  0  0  0  0
  185.8290  177.7900  143.7510 C   0  0  2  0  0  3  0  0  0  0  0  0
  183.8050  179.0110  145.4010 C   0  0  0  0  0  3  0  0  0  0  0  0
  187.7870  178.3250  140.0660 C   0  0  0  0  0  3  0  0  0  0  0  0
  184.5140  178.3050  143.2210 C   0  0  0  0  0  0  0  0  0  0  0  0
  183.4490  178.6850  144.1510 C   0  0  0  0  0  3  0  0  0  0  0  0
  190.0060  177.4990  140.7600 C   0  0  0  0  0  0  0  0  0  0  0  0
  190.5590  177.6820  139.4980 O   0  0  0  0  0  1  0  0  0  0  0  0
  188.8470  177.1570  143.3590 C   0  0  0  0  0  3  0  0  0  0  0  0
  185.2370  179.0350  145.8050 C   0  0  0  0  0  3  0  0  0  0  0  0
  185.8920  178.5020  141.5810 C   0  0  0  0  0  0  0  0  0  0  0  0
  184.5460  178.6970  141.9830 N   0  0  0  0  0  0  0  0  0  0  0  0
  190.7550  176.9920  141.7450 C   0  0  0  0  0  3  0  0  0  0  0  0
  186.1950  178.5240  145.0140 C   0  0  0  0  0  3  0  0  0  0  0  0
  190.2040  176.7910  143.0590 N   0  0  0  0  0  0  0  0  0  0  0  0
  188.6000  177.8540  141.0310 C   0  0  0  0  0  0  0  0  0  0  0  0
  191.0510  176.2700  144.1150 C   0  0  0  0  0  2  0  0  0  0  0  0
  191.1380  177.2740  145.2540 C   0  0  0  0  0  2  0  0  0  0  0  0
  190.6290  176.6570  146.5470 C   0  0  2  0  0  3  0  0  0  0  0  0
  189.2250  177.6250  147.1760 S   0  0  0  0  0  1  0  0  0  0  0  0
  191.7120  176.5730  147.5820 C   0  0  0  0  0  0  0  0  0  0  0  0
  191.8510  177.4850  148.3790 O   0  0  0  0  0  0  0  0  0  0  0  0
  192.6280  175.3940  147.6470 C   0  0  0  0  0  1  0  0  0  0  0  0
  1  4  1  0  0  0  0
  2  1  1  0  0  0  0
  2 11  2  0  0  0  0
  3 13  2  0  0  0  0
  4 16  1  1  0  0  0
  5 12  1  0  0  0  0
  6  3  1  0  0  0  0
  6 18  2  0  0  0  0
  7  4  1  0  0  0  0
  7  8  1  0  0  0  0
  8  5  2  0  0  0  0
  9 18  1  0  0  0  0
  9 15  2  0  0  0  0
 10  9  1  0  0  0  0
 13 14  1  0  0  0  0
 13  1  1  0  0  0  0
 14  7  2  0  0  0  0
 15 17  1  0  0  0  0
 16 12  2  0  0  0  0
 17 11  1  0  0  0  0
 17 19  1  0  0  0  0
 18  2  1  0  0  0  0
 19 20  1  0  0  0  0
 20 21  1  0  0  0  0
 21 22  1  1  0  0  0
 21 23  1  0  0  0  0
 23 25  1  0  0  0  0
 23 24  2  0  0  0  0
M  END
>  <MODEL>
7

>  <REMARK>
 VINA RESULT:      -8.5      2.300      5.439
  Name = 
  4 active torsions:
  status: ('A' for Active; 'I' for Inactive)
    1  A    between atoms: C_2  and  C_21
    2  A    between atoms: C_6  and  C_15
    3  A    between atoms: C_6  and  N_23
    4  A    between atoms: C_15  and  C_21
                            x       y       z     vdW  Elec       q    Type
                         _______ _______ _______ _____ _____    ______ ____

>  <TORSDO>
F 4

$$$$
=
 OpenBabel11052412443D

 25 28  0  0  1  0  0  0  0  0999 V2000
  187.8470  177.5870  144.1470 N   0  0  0  0  0  0  0  0  0  0  0  0
  186.4820  177.9060  143.8760 C   0  0  0  0  0  0  0  0  0  0  0  0
  187.5660  177.8890  146.5130 C   0  0  0  0  0  3  0  0  0  0  0  0
  188.8380  176.9000  143.3400 C   0  0  2  0  0  3  0  0  0  0  0  0
  191.6390  176.9520  142.6630 C   0  0  0  0  0  3  0  0  0  0  0  0
  186.1660  178.3230  146.2620 C   0  0  0  0  0  3  0  0  0  0  0  0
  189.9460  176.6840  144.3410 C   0  0  0  0  0  0  0  0  0  0  0  0
  191.3210  176.4840  143.8780 C   0  0  0  0  0  3  0  0  0  0  0  0
  184.2430  178.7240  144.7680 C   0  0  0  0  0  0  0  0  0  0  0  0
  183.4240  179.1530  145.8060 O   0  0  0  0  0  1  0  0  0  0  0  0
  185.9650  177.8630  142.6450 C   0  0  0  0  0  3  0  0  0  0  0  0
  190.6410  177.6920  141.8450 C   0  0  0  0  0  3  0  0  0  0  0  0
  188.3290  177.5350  145.4750 C   0  0  0  0  0  0  0  0  0  0  0  0
  189.6520  177.0310  145.5570 N   0  0  0  0  0  0  0  0  0  0  0  0
  183.7610  178.6670  143.5230 C   0  0  0  0  0  3  0  0  0  0  0  0
  189.3440  177.7260  142.1870 C   0  0  0  0  0  3  0  0  0  0  0  0
  184.5910  178.2240  142.4330 N   0  0  0  0  0  0  0  0  0  0  0  0
  185.6420  178.3280  145.0210 C   0  0  0  0  0  0  0  0  0  0  0  0
  184.0480  178.2040  141.0870 C   0  0  0  0  0  2  0  0  0  0  0  0
  184.8150  179.1760  140.2050 C   0  0  0  0  0  2  0  0  0  0  0  0
  184.8670  178.6660  138.7730 C   0  0  2  0  0  3  0  0  0  0  0  0
  183.6160  177.3690  138.5390 S   0  0  0  0  0  1  0  0  0  0  0  0
  186.2300  178.1470  138.4220 C   0  0  0  0  0  0  0  0  0  0  0  0
  187.1870  178.4600  139.1110 O   0  0  0  0  0  0  0  0  0  0  0  0
  186.4370  177.2590  137.2380 C   0  0  0  0  0  1  0  0  0  0  0  0
  1 13  1  0  0  0  0
  2  1  1  0  0  0  0
  2 18  1  0  0  0  0
  4 16  1  6  0  0  0
  4  1  1  0  0  0  0
  4  7  1  0  0  0  0
  5  8  2  0  0  0  0
  6  3  1  0  0  0  0
  7 14  2  0  0  0  0
  8  7  1  0  0  0  0
  9 18  1  0  0  0  0
  9 10  1  0  0  0  0
 11  2  2  0  0  0  0
 12 16  2  0  0  0  0
 12  5  1  0  0  0  0
 13 14  1  0  0  0  0
 13  3  2  0  0  0  0
 15  9  2  0  0  0  0
 17 11  1  0  0  0  0
 17 15  1  0  0  0  0
 18  6  2  0  0  0  0
 19 17  1  0  0  0  0
 20 19  1  0  0  0  0
 21 22  1  1  0  0  0
 21 20  1  0  0  0  0
 23 21  1  0  0  0  0
 23 24  2  0  0  0  0
 25 23  1  0  0  0  0
M  END
>  <MODEL>
8

>  <REMARK>
 VINA RESULT:      -8.4      3.038      5.437
  Name = 
  4 active torsions:
  status: ('A' for Active; 'I' for Inactive)
    1  A    between atoms: C_2  and  C_21
    2  A    between atoms: C_6  and  C_15
    3  A    between atoms: C_6  and  N_23
    4  A    between atoms: C_15  and  C_21
                            x       y       z     vdW  Elec       q    Type
                         _______ _______ _______ _____ _____    ______ ____

>  <TORSDO>
F 4

$$$$
=
 OpenBabel11052412443D

 25 28  0  0  1  0  0  0  0  0999 V2000
  187.1790  178.2200  141.4740 N   0  0  0  0  0  0  0  0  0  0  0  0
  186.5890  178.2550  142.7740 C   0  0  0  0  0  0  0  0  0  0  0  0
  185.1050  178.7680  140.3940 C   0  0  0  0  0  3  0  0  0  0  0  0
  188.5680  178.2930  141.0620 C   0  0  2  0  0  3  0  0  0  0  0  0
  190.4220  177.2000  139.1440 C   0  0  0  0  0  3  0  0  0  0  0  0
  184.4340  178.7160  141.7200 C   0  0  0  0  0  3  0  0  0  0  0  0
  188.4310  178.4700  139.5700 C   0  0  0  0  0  0  0  0  0  0  0  0
  189.5370  178.0960  138.6850 C   0  0  0  0  0  3  0  0  0  0  0  0
  184.4740  178.4620  144.1750 C   0  0  0  0  0  0  0  0  0  0  0  0
  183.1010  178.6430  144.2960 O   0  0  0  0  0  1  0  0  0  0  0  0
  187.2980  178.0650  143.8890 C   0  0  0  0  0  3  0  0  0  0  0  0
  190.2500  176.5750  140.4830 C   0  0  0  0  0  3  0  0  0  0  0  0
  186.4190  178.5370  140.3250 C   0  0  0  0  0  0  0  0  0  0  0  0
  187.2120  178.6220  139.1520 N   0  0  0  0  0  0  0  0  0  0  0  0
  185.2170  178.2700  145.2690 C   0  0  0  0  0  3  0  0  0  0  0  0
  189.3450  177.0380  141.3600 C   0  0  0  0  0  3  0  0  0  0  0  0
  186.6400  178.0830  145.1670 N   0  0  0  0  0  0  0  0  0  0  0  0
  185.1260  178.4810  142.8510 C   0  0  0  0  0  0  0  0  0  0  0  0
  187.4150  177.8430  146.3710 C   0  0  0  0  0  2  0  0  0  0  0  0
  188.7080  177.1230  146.0210 C   0  0  0  0  0  2  0  0  0  0  0  0
  189.5430  176.8920  147.2700 C   0  0  2  0  0  3  0  0  0  0  0  0
  189.1680  178.1740  148.5030 S   0  0  0  0  0  1  0  0  0  0  0  0
  191.0100  176.8800  146.9580 C   0  0  0  0  0  0  0  0  0  0  0  0
  191.8170  176.9270  147.8710 O   0  0  0  0  0  0  0  0  0  0  0  0
  191.5000  176.8190  145.5480 C   0  0  0  0  0  1  0  0  0  0  0  0
  1  2  1  0  0  0  0
  2 18  1  0  0  0  0
  2 11  2  0  0  0  0
  3  6  1  0  0  0  0
  4 16  1  6  0  0  0
  4  1  1  0  0  0  0
  5 12  1  0  0  0  0
  6 18  2  0  0  0  0
  7  4  1  0  0  0  0
  8  5  2  0  0  0  0
  8  7  1  0  0  0  0
  9 10  1  0  0  0  0
  9 15  2  0  0  0  0
 11 17  1  0  0  0  0
 12 16  2  0  0  0  0
 13  3  2  0  0  0  0
 13  1  1  0  0  0  0
 14  7  2  0  0  0  0
 14 13  1  0  0  0  0
 17 15  1  0  0  0  0
 17 19  1  0  0  0  0
 18  9  1  0  0  0  0
 20 19  1  0  0  0  0
 20 21  1  0  0  0  0
 21 22  1  1  0  0  0
 23 21  1  0  0  0  0
 23 24  2  0  0  0  0
 25 23  1  0  0  0  0
M  END
>  <MODEL>
9

>  <REMARK>
 VINA RESULT:      -8.3      3.191      6.808
  Name = 
  4 active torsions:
  status: ('A' for Active; 'I' for Inactive)
    1  A    between atoms: C_2  and  C_21
    2  A    between atoms: C_6  and  C_15
    3  A    between atoms: C_6  and  N_23
    4  A    between atoms: C_15  and  C_21
                            x       y       z     vdW  Elec       q    Type
                         _______ _______ _______ _____ _____    ______ ____

>  <TORSDO>
F 4

$$$$
