=
 OpenBabel11052412433D

 25 27  0  0  1  0  0  0  0  0999 V2000
  183.0470  178.6860  140.7360 C   0  0  1  0  0  3  0  0  0  0  0  0
  181.8810  175.9080  138.2740 S   0  0  0  0  0  0  0  0  0  0  0  0
  182.0570  178.6030  137.4850 C   0  0  0  0  0  3  0  0  0  0  0  0
  182.7370  176.5530  139.7480 C   0  0  0  0  0  2  0  0  0  0  0  0
  180.9890  178.3710  139.8320 C   0  0  1  0  0  0  0  0  0  0  0  0
  180.2610  179.2770  140.8280 C   0  0  0  0  0  1  0  0  0  0  0  0
  182.2790  177.3060  137.1880 C   0  0  0  0  0  0  0  0  0  0  0  0
  183.0240  179.5940  139.5080 C   0  0  0  0  0  2  0  0  0  0  0  0
  179.9980  177.5600  139.2720 O   0  0  0  0  0  1  0  0  0  0  0  0
  181.7120  179.2500  138.8110 C   0  0  1  0  0  3  0  0  0  0  0  0
  182.0540  177.6160  140.5330 N   0  0  2  0  0  0  0  0  0  0  0  0
  184.4270  178.2500  141.2690 C   0  0  1  0  0  3  0  0  0  0  0  0
  185.6060  178.9070  140.5570 C   0  0  0  0  0  1  0  0  0  0  0  0
  184.5170  178.3970  142.7590 C   0  0  0  0  0  0  0  0  0  0  0  0
  184.5960  178.7510  145.5410 C   0  0  0  0  0  3  0  0  0  0  0  0
  185.6650  178.0280  143.4890 C   0  0  0  0  0  0  0  0  0  0  0  0
  185.6960  178.2050  144.8760 C   0  0  0  0  0  3  0  0  0  0  0  0
  183.4580  179.1220  144.8200 C   0  0  0  0  0  3  0  0  0  0  0  0
  186.7450  177.4920  142.8700 F   0  0  0  0  0  0  0  0  0  0  0  0
  183.4200  178.9460  143.4340 C   0  0  0  0  0  3  0  0  0  0  0  0
  182.7840  177.0160  135.8070 C   0  0  1  0  0  3  0  0  0  0  0  0
  182.1500  177.9340  134.7760 C   0  0  0  0  0  1  0  0  0  0  0  0
  184.2770  177.0710  135.7410 C   0  0  0  0  0  0  0  0  0  0  0  0
  185.0410  177.0000  136.8990 O   0  0  0  0  0  1  0  0  0  0  0  0
  184.8470  177.1580  134.6230 O   0  0  0  0  0  0  0  0  0  0  0  0
  1 12  1  6  0  0  0
  2  4  1  0  0  0  0
  5 11  1  0  0  0  0
  5  6  1  1  0  0  0
  7  3  2  0  0  0  0
  7  2  1  0  0  0  0
  8  1  1  0  0  0  0
  9  5  1  0  0  0  0
 10  3  1  6  0  0  0
 10  8  1  0  0  0  0
 10  5  1  0  0  0  0
 11  4  1  6  0  0  0
 11  1  1  0  0  0  0
 12 13  1  6  0  0  0
 12 14  1  0  0  0  0
 14 20  2  0  0  0  0
 14 16  1  0  0  0  0
 16 17  2  0  0  0  0
 17 15  1  0  0  0  0
 18 15  2  0  0  0  0
 19 16  1  0  0  0  0
 20 18  1  0  0  0  0
 21 22  1  6  0  0  0
 21  7  1  0  0  0  0
 23 21  1  0  0  0  0
 23 24  1  0  0  0  0
 25 23  2  0  0  0  0
M  END
>  <MODEL>
1

>  <REMARK>
 VINA RESULT:      -6.3      0.000      0.000
  Name = 
  4 active torsions:
  status: ('A' for Active; 'I' for Inactive)
    1  A    between atoms: C_1  and  C_3
    2  A    between atoms: C_1  and  C_5
    3  A    between atoms: C_2  and  C_21
    4  A    between atoms: C_15  and  C_21
                            x       y       z     vdW  Elec       q    Type
                         _______ _______ _______ _____ _____    ______ ____

>  <TORSDO>
F 4

$$$$
=
 OpenBabel11052412433D

 25 27  0  0  1  0  0  0  0  0999 V2000
  189.0820  177.3120  143.6100 C   0  0  1  0  0  3  0  0  0  0  0  0
  189.1990  178.9100  140.0640 S   0  0  0  0  0  0  0  0  0  0  0  0
  189.6130  176.1550  140.4580 C   0  0  0  0  0  3  0  0  0  0  0  0
  188.7190  178.8250  141.8210 C   0  0  0  0  0  2  0  0  0  0  0  0
  190.8670  177.5640  142.2310 C   0  0  1  0  0  0  0  0  0  0  0  0
  191.9160  177.3230  143.3190 C   0  0  0  0  0  1  0  0  0  0  0  0
  189.0360  177.1340  139.7310 C   0  0  0  0  0  0  0  0  0  0  0  0
  189.1830  175.9820  142.8650 C   0  0  0  0  0  2  0  0  0  0  0  0
  191.5450  178.2150  141.1970 O   0  0  0  0  0  1  0  0  0  0  0  0
  190.2700  176.2170  141.8220 C   0  0  1  0  0  3  0  0  0  0  0  0
  189.7400  178.3460  142.7920 N   0  0  2  0  0  0  0  0  0  0  0  0
  187.7120  177.6830  144.2150 C   0  0  1  0  0  3  0  0  0  0  0  0
  186.5680  176.7790  143.7660 C   0  0  0  0  0  1  0  0  0  0  0  0
  187.7810  177.8050  145.7080 C   0  0  0  0  0  0  0  0  0  0  0  0
  187.9890  177.9450  148.5020 C   0  0  0  0  0  3  0  0  0  0  0  0
  186.7620  178.4170  146.4660 C   0  0  0  0  0  0  0  0  0  0  0  0
  186.8740  178.4850  147.8580 C   0  0  0  0  0  3  0  0  0  0  0  0
  188.9980  177.3330  147.7550 C   0  0  0  0  0  3  0  0  0  0  0  0
  185.6710  178.9530  145.8660 F   0  0  0  0  0  0  0  0  0  0  0  0
  188.8930  177.2640  146.3630 C   0  0  0  0  0  3  0  0  0  0  0  0
  188.3090  176.7030  138.4920 C   0  0  1  0  0  3  0  0  0  0  0  0
  187.4240  177.8130  137.9520 C   0  0  0  0  0  1  0  0  0  0  0  0
  189.2490  176.1970  137.4460 C   0  0  0  0  0  0  0  0  0  0  0  0
  190.1980  177.0380  136.8780 O   0  0  0  0  0  0  0  0  0  0  0  0
  189.1980  174.9900  137.0950 O   0  0  0  0  0  1  0  0  0  0  0  0
  1 12  1  6  0  0  0
  2  4  1  0  0  0  0
  5 11  1  0  0  0  0
  5  6  1  1  0  0  0
  7  2  1  0  0  0  0
  7  3  2  0  0  0  0
  8  1  1  0  0  0  0
  9  5  1  0  0  0  0
 10  3  1  6  0  0  0
 10  5  1  0  0  0  0
 10  8  1  0  0  0  0
 11  4  1  6  0  0  0
 11  1  1  0  0  0  0
 12 13  1  1  0  0  0
 12 14  1  0  0  0  0
 14 20  2  0  0  0  0
 14 16  1  0  0  0  0
 16 17  2  0  0  0  0
 17 15  1  0  0  0  0
 18 15  2  0  0  0  0
 19 16  1  0  0  0  0
 20 18  1  0  0  0  0
 21 22  1  6  0  0  0
 21  7  1  0  0  0  0
 23 21  1  0  0  0  0
 24 23  2  0  0  0  0
 25 23  1  0  0  0  0
M  END
>  <MODEL>
2

>  <REMARK>
 VINA RESULT:      -5.9      5.336      7.045
  Name = 
  4 active torsions:
  status: ('A' for Active; 'I' for Inactive)
    1  A    between atoms: C_1  and  C_3
    2  A    between atoms: C_1  and  C_5
    3  A    between atoms: C_2  and  C_21
    4  A    between atoms: C_15  and  C_21
                            x       y       z     vdW  Elec       q    Type
                         _______ _______ _______ _____ _____    ______ ____

>  <TORSDO>
F 4

$$$$
=
 OpenBabel11052412433D

 25 27  0  0  1  0  0  0  0  0999 V2000
  186.9000  178.0540  142.4190 C   0  0  1  0  0  3  0  0  0  0  0  0
  190.0070  175.8250  143.1450 S   0  0  0  0  0  0  0  0  0  0  0  0
  190.2460  178.5910  142.6820 C   0  0  0  0  0  3  0  0  0  0  0  0
  188.2340  176.2490  143.1860 C   0  0  0  0  0  2  0  0  0  0  0  0
  188.5950  177.4910  141.0180 C   0  0  1  0  0  0  0  0  0  0  0  0
  187.8560  177.8930  139.7400 C   0  0  0  0  0  1  0  0  0  0  0  0
  190.6180  177.5140  143.4060 C   0  0  0  0  0  0  0  0  0  0  0  0
  187.8830  179.2190  142.5180 C   0  0  0  0  0  2  0  0  0  0  0  0
  189.6220  176.6390  140.6030 O   0  0  0  0  0  1  0  0  0  0  0  0
  189.0930  178.7590  141.7130 C   0  0  1  0  0  3  0  0  0  0  0  0
  187.6440  176.8650  141.9660 N   0  0  2  0  0  0  0  0  0  0  0  0
  185.9250  177.8460  143.5970 C   0  0  1  0  0  3  0  0  0  0  0  0
  186.3730  178.5040  144.8990 C   0  0  0  0  0  1  0  0  0  0  0  0
  184.5220  178.2260  143.2280 C   0  0  0  0  0  0  0  0  0  0  0  0
  181.9360  178.9580  142.4260 C   0  0  0  0  0  3  0  0  0  0  0  0
  183.5620  178.6050  144.1880 C   0  0  0  0  0  0  0  0  0  0  0  0
  182.2750  178.9670  143.7810 C   0  0  0  0  0  3  0  0  0  0  0  0
  182.8850  178.5870  141.4710 C   0  0  0  0  0  3  0  0  0  0  0  0
  183.8640  178.6190  145.5090 F   0  0  0  0  0  0  0  0  0  0  0  0
  184.1740  178.2240  141.8720 C   0  0  0  0  0  3  0  0  0  0  0  0
  191.7030  177.7330  144.4170 C   0  0  1  0  0  3  0  0  0  0  0  0
  192.0790  179.2010  144.5220 C   0  0  0  0  0  1  0  0  0  0  0  0
  191.3380  177.1660  145.7510 C   0  0  0  0  0  0  0  0  0  0  0  0
  190.1180  177.4720  146.3420 O   0  0  0  0  0  1  0  0  0  0  0  0
  192.1330  176.3840  146.3330 O   0  0  0  0  0  0  0  0  0  0  0  0
  1  8  1  0  0  0  0
  1 12  1  1  0  0  0
  2  4  1  0  0  0  0
  2  7  1  0  0  0  0
  3  7  2  0  0  0  0
  5  6  1  6  0  0  0
  5 10  1  0  0  0  0
  5 11  1  0  0  0  0
  7 21  1  0  0  0  0
  9  5  1  0  0  0  0
 10  8  1  1  0  0  0
 10  3  1  0  0  0  0
 11  1  1  0  0  0  0
 11  4  1  1  0  0  0
 12 13  1  1  0  0  0
 14 12  1  0  0  0  0
 14 16  1  0  0  0  0
 15 17  1  0  0  0  0
 16 19  1  0  0  0  0
 17 16  2  0  0  0  0
 18 20  1  0  0  0  0
 18 15  2  0  0  0  0
 20 14  2  0  0  0  0
 21 22  1  1  0  0  0
 21 23  1  0  0  0  0
 23 25  2  0  0  0  0
 23 24  1  0  0  0  0
M  END
>  <MODEL>
3

>  <REMARK>
 VINA RESULT:      -5.7      5.088      7.997
  Name = 
  4 active torsions:
  status: ('A' for Active; 'I' for Inactive)
    1  A    between atoms: C_1  and  C_3
    2  A    between atoms: C_1  and  C_5
    3  A    between atoms: C_2  and  C_21
    4  A    between atoms: C_15  and  C_21
                            x       y       z     vdW  Elec       q    Type
                         _______ _______ _______ _____ _____    ______ ____

>  <TORSDO>
F 4

$$$$
=
 OpenBabel11052412433D

 25 27  0  0  1  0  0  0  0  0999 V2000
  190.1950  177.2700  142.3830 C   0  0  1  0  0  3  0  0  0  0  0  0
  187.2060  176.2600  144.6620 S   0  0  0  0  0  0  0  0  0  0  0  0
  188.5070  178.7400  144.9420 C   0  0  0  0  0  3  0  0  0  0  0  0
  188.2340  176.1840  143.1580 C   0  0  0  0  0  2  0  0  0  0  0  0
  190.2030  176.8130  144.6070 C   0  0  1  0  0  0  0  0  0  0  0  0
  191.7190  176.6230  144.7020 C   0  0  0  0  0  1  0  0  0  0  0  0
  187.3460  178.0530  144.9050 C   0  0  0  0  0  0  0  0  0  0  0  0
  190.0700  178.6360  143.0570 C   0  0  0  0  0  2  0  0  0  0  0  0
  189.6770  176.1870  145.7400 O   0  0  0  0  0  1  0  0  0  0  0  0
  189.9020  178.3100  144.5370 C   0  0  1  0  0  3  0  0  0  0  0  0
  189.7120  176.2480  143.3290 N   0  0  2  0  0  0  0  0  0  0  0  0
  189.6990  177.1500  140.9280 C   0  0  1  0  0  3  0  0  0  0  0  0
  188.8020  178.3000  140.4790 C   0  0  0  0  0  1  0  0  0  0  0  0
  190.8320  176.9130  139.9740 C   0  0  0  0  0  0  0  0  0  0  0  0
  193.0140  176.5550  138.2480 C   0  0  0  0  0  3  0  0  0  0  0  0
  190.6480  176.3090  138.7140 C   0  0  0  0  0  0  0  0  0  0  0  0
  191.7410  176.1310  137.8600 C   0  0  0  0  0  3  0  0  0  0  0  0
  193.1990  177.1590  139.4940 C   0  0  0  0  0  3  0  0  0  0  0  0
  189.4240  175.8850  138.3140 F   0  0  0  0  0  0  0  0  0  0  0  0
  192.1110  177.3380  140.3530 C   0  0  0  0  0  3  0  0  0  0  0  0
  186.1010  178.8320  145.2040 C   0  0  1  0  0  3  0  0  0  0  0  0
  185.0090  178.5500  144.1870 C   0  0  0  0  0  1  0  0  0  0  0  0
  185.6210  178.5930  146.6000 C   0  0  0  0  0  0  0  0  0  0  0  0
  186.5200  178.5280  147.6580 O   0  0  0  0  0  1  0  0  0  0  0  0
  184.3890  178.4740  146.8220 O   0  0  0  0  0  0  0  0  0  0  0  0
  1 12  1  6  0  0  0
  1  8  1  0  0  0  0
  1 11  1  0  0  0  0
  2  7  1  0  0  0  0
  4  2  1  0  0  0  0
  5  6  1  1  0  0  0
  5  9  1  0  0  0  0
  7  3  2  0  0  0  0
  7 21  1  0  0  0  0
 10  8  1  6  0  0  0
 10  5  1  0  0  0  0
 10  3  1  0  0  0  0
 11  4  1  1  0  0  0
 11  5  1  0  0  0  0
 12 13  1  6  0  0  0
 14 20  1  0  0  0  0
 14 12  1  0  0  0  0
 15 18  1  0  0  0  0
 16 14  2  0  0  0  0
 17 15  2  0  0  0  0
 17 16  1  0  0  0  0
 18 20  2  0  0  0  0
 19 16  1  0  0  0  0
 21 22  1  6  0  0  0
 21 23  1  0  0  0  0
 23 25  2  0  0  0  0
 23 24  1  0  0  0  0
M  END
>  <MODEL>
4

>  <REMARK>
 VINA RESULT:      -5.5      6.311      9.339
  Name = 
  4 active torsions:
  status: ('A' for Active; 'I' for Inactive)
    1  A    between atoms: C_1  and  C_3
    2  A    between atoms: C_1  and  C_5
    3  A    between atoms: C_2  and  C_21
    4  A    between atoms: C_15  and  C_21
                            x       y       z     vdW  Elec       q    Type
                         _______ _______ _______ _____ _____    ______ ____

>  <TORSDO>
F 4

$$$$
=
 OpenBabel11052412433D

 25 27  0  0  1  0  0  0  0  0999 V2000
  182.8940  178.5930  140.9090 C   0  0  1  0  0  3  0  0  0  0  0  0
  181.7760  175.8300  138.4070 S   0  0  0  0  0  0  0  0  0  0  0  0
  181.6730  178.5610  137.7370 C   0  0  0  0  0  3  0  0  0  0  0  0
  182.6850  176.4830  139.8450 C   0  0  0  0  0  2  0  0  0  0  0  0
  180.8060  178.1420  140.1400 C   0  0  1  0  0  0  0  0  0  0  0  0
  180.0840  178.9410  141.2270 C   0  0  0  0  0  1  0  0  0  0  0  0
  181.9760  177.3000  137.3630 C   0  0  0  0  0  0  0  0  0  0  0  0
  182.7050  179.5450  139.7300 C   0  0  0  0  0  2  0  0  0  0  0  0
  179.8450  177.2750  139.6140 O   0  0  0  0  0  1  0  0  0  0  0  0
  181.3770  179.1210  139.1130 C   0  0  1  0  0  3  0  0  0  0  0  0
  181.9780  177.4520  140.7270 N   0  0  2  0  0  0  0  0  0  0  0  0
  184.3410  178.2530  141.3210 C   0  0  1  0  0  3  0  0  0  0  0  0
  185.4070  179.0000  140.5250 C   0  0  0  0  0  1  0  0  0  0  0  0
  184.5420  178.3930  142.8010 C   0  0  0  0  0  0  0  0  0  0  0  0
  185.0060  178.5740  145.5610 C   0  0  0  0  0  3  0  0  0  0  0  0
  183.5490  178.9150  143.6550 C   0  0  0  0  0  0  0  0  0  0  0  0
  183.7880  179.0040  145.0290 C   0  0  0  0  0  3  0  0  0  0  0  0
  185.9900  178.0520  144.7190 C   0  0  0  0  0  3  0  0  0  0  0  0
  182.3600  179.3420  143.1640 F   0  0  0  0  0  0  0  0  0  0  0  0
  185.7580  177.9610  143.3440 C   0  0  0  0  0  3  0  0  0  0  0  0
  182.3990  177.1110  135.9370 C   0  0  1  0  0  3  0  0  0  0  0  0
  181.9340  178.2620  135.0610 C   0  0  0  0  0  1  0  0  0  0  0  0
  183.8740  176.8980  135.8210 C   0  0  0  0  0  0  0  0  0  0  0  0
  184.7500  177.4920  136.7220 O   0  0  0  0  0  1  0  0  0  0  0  0
  184.3250  176.1530  134.9130 O   0  0  0  0  0  0  0  0  0  0  0  0
  1 12  1  6  0  0  0
  2  4  1  0  0  0  0
  5 11  1  0  0  0  0
  5  6  1  1  0  0  0
  7  3  2  0  0  0  0
  7  2  1  0  0  0  0
  8  1  1  0  0  0  0
  9  5  1  0  0  0  0
 10  3  1  6  0  0  0
 10  8  1  0  0  0  0
 10  5  1  0  0  0  0
 11  4  1  6  0  0  0
 11  1  1  0  0  0  0
 12 13  1  6  0  0  0
 12 14  1  0  0  0  0
 14 20  2  0  0  0  0
 14 16  1  0  0  0  0
 16 17  2  0  0  0  0
 17 15  1  0  0  0  0
 18 15  2  0  0  0  0
 19 16  1  0  0  0  0
 20 18  1  0  0  0  0
 21 22  1  6  0  0  0
 21  7  1  0  0  0  0
 23 21  1  0  0  0  0
 23 24  1  0  0  0  0
 25 23  2  0  0  0  0
M  END
>  <MODEL>
5

>  <REMARK>
 VINA RESULT:      -5.4      1.046      1.422
  Name = 
  4 active torsions:
  status: ('A' for Active; 'I' for Inactive)
    1  A    between atoms: C_1  and  C_3
    2  A    between atoms: C_1  and  C_5
    3  A    between atoms: C_2  and  C_21
    4  A    between atoms: C_15  and  C_21
                            x       y       z     vdW  Elec       q    Type
                         _______ _______ _______ _____ _____    ______ ____

>  <TORSDO>
F 4

$$$$
=
 OpenBabel11052412433D

 25 27  0  0  1  0  0  0  0  0999 V2000
  188.8900  177.4600  138.7290 C   0  0  1  0  0  3  0  0  0  0  0  0
  188.9520  174.4110  136.3120 S   0  0  0  0  0  0  0  0  0  0  0  0
  190.0960  176.8820  135.6040 C   0  0  0  0  0  3  0  0  0  0  0  0
  188.8370  175.2240  137.9390 C   0  0  0  0  0  2  0  0  0  0  0  0
  187.7990  177.1970  136.7550 C   0  0  1  0  0  0  0  0  0  0  0  0
  186.8100  178.3410  136.9910 C   0  0  0  0  0  1  0  0  0  0  0  0
  190.1940  175.5370  135.6170 C   0  0  0  0  0  0  0  0  0  0  0  0
  189.7990  178.1240  137.6960 C   0  0  0  0  0  2  0  0  0  0  0  0
  187.2220  176.4040  135.7610 O   0  0  0  0  0  1  0  0  0  0  0  0
  189.1490  177.7940  136.3560 C   0  0  1  0  0  3  0  0  0  0  0  0
  188.0410  176.4790  138.0280 N   0  0  2  0  0  0  0  0  0  0  0  0
  189.5390  176.9900  140.0470 C   0  0  1  0  0  3  0  0  0  0  0  0
  190.9590  177.5040  140.2590 C   0  0  0  0  0  1  0  0  0  0  0  0
  188.6570  177.2660  141.2270 C   0  0  0  0  0  0  0  0  0  0  0  0
  186.9790  177.8880  143.3880 C   0  0  0  0  0  3  0  0  0  0  0  0
  188.8050  176.5940  142.4580 C   0  0  0  0  0  0  0  0  0  0  0  0
  187.9640  176.9070  143.5290 C   0  0  0  0  0  3  0  0  0  0  0  0
  186.8320  178.5600  142.1720 C   0  0  0  0  0  3  0  0  0  0  0  0
  189.7500  175.6360  142.6210 F   0  0  0  0  0  0  0  0  0  0  0  0
  187.6690  178.2500  141.0970 C   0  0  0  0  0  3  0  0  0  0  0  0
  191.3680  174.9470  134.8950 C   0  0  1  0  0  3  0  0  0  0  0  0
  192.4230  175.9970  134.5940 C   0  0  0  0  0  1  0  0  0  0  0  0
  191.9490  173.7880  135.6380 C   0  0  0  0  0  0  0  0  0  0  0  0
  192.5360  173.9670  136.8860 O   0  0  0  0  0  1  0  0  0  0  0  0
  191.8850  172.6340  135.1410 O   0  0  0  0  0  0  0  0  0  0  0  0
  1 12  1  1  0  0  0
  2  4  1  0  0  0  0
  3  7  2  0  0  0  0
  5  6  1  1  0  0  0
  5 11  1  0  0  0  0
  7  2  1  0  0  0  0
  8  1  1  0  0  0  0
  9  5  1  0  0  0  0
 10  3  1  1  0  0  0
 10  5  1  0  0  0  0
 10  8  1  0  0  0  0
 11  4  1  6  0  0  0
 11  1  1  0  0  0  0
 12 13  1  1  0  0  0
 12 14  1  0  0  0  0
 14 16  1  0  0  0  0
 15 17  1  0  0  0  0
 16 19  1  0  0  0  0
 16 17  2  0  0  0  0
 18 15  2  0  0  0  0
 20 14  2  0  0  0  0
 20 18  1  0  0  0  0
 21 22  1  1  0  0  0
 21  7  1  0  0  0  0
 21 23  1  0  0  0  0
 23 24  1  0  0  0  0
 25 23  2  0  0  0  0
M  END
>  <MODEL>
6

>  <REMARK>
 VINA RESULT:      -5.3      5.402      6.868
  Name = 
  4 active torsions:
  status: ('A' for Active; 'I' for Inactive)
    1  A    between atoms: C_1  and  C_3
    2  A    between atoms: C_1  and  C_5
    3  A    between atoms: C_2  and  C_21
    4  A    between atoms: C_15  and  C_21
                            x       y       z     vdW  Elec       q    Type
                         _______ _______ _______ _____ _____    ______ ____

>  <TORSDO>
F 4

$$$$
=
 OpenBabel11052412433D

 25 27  0  0  1  0  0  0  0  0999 V2000
  189.1180  177.2900  143.5670 C   0  0  1  0  0  3  0  0  0  0  0  0
  189.1730  178.9310  140.0390 S   0  0  0  0  0  0  0  0  0  0  0  0
  189.5790  176.1690  140.3910 C   0  0  0  0  0  3  0  0  0  0  0  0
  188.7290  178.8280  141.8040 C   0  0  0  0  0  2  0  0  0  0  0  0
  190.8770  177.5500  142.1550 C   0  0  1  0  0  0  0  0  0  0  0  0
  191.9460  177.2890  143.2180 C   0  0  0  0  0  1  0  0  0  0  0  0
  188.9940  177.1600  139.6870 C   0  0  0  0  0  0  0  0  0  0  0  0
  189.1970  175.9690  142.8040 C   0  0  0  0  0  2  0  0  0  0  0  0
  191.5370  178.2090  141.1150 O   0  0  0  0  0  1  0  0  0  0  0  0
  190.2640  176.2110  141.7420 C   0  0  1  0  0  3  0  0  0  0  0  0
  189.7660  178.3310  142.7480 N   0  0  2  0  0  0  0  0  0  0  0  0
  187.7630  177.6620  144.2040 C   0  0  1  0  0  3  0  0  0  0  0  0
  186.6020  176.7780  143.7570 C   0  0  0  0  0  1  0  0  0  0  0  0
  187.8600  177.7520  145.6980 C   0  0  0  0  0  0  0  0  0  0  0  0
  187.9580  178.0060  148.4900 C   0  0  0  0  0  3  0  0  0  0  0  0
  188.9850  177.2940  146.4130 C   0  0  0  0  0  0  0  0  0  0  0  0
  189.0260  177.4210  147.8050 C   0  0  0  0  0  3  0  0  0  0  0  0
  186.8430  178.4660  147.7840 C   0  0  0  0  0  3  0  0  0  0  0  0
  190.0330  176.7200  145.7740 F   0  0  0  0  0  0  0  0  0  0  0  0
  186.7960  178.3390  146.3930 C   0  0  0  0  0  3  0  0  0  0  0  0
  188.2390  176.7490  138.4590 C   0  0  1  0  0  3  0  0  0  0  0  0
  187.3530  177.8720  137.9470 C   0  0  0  0  0  1  0  0  0  0  0  0
  189.1540  176.2460  137.3900 C   0  0  0  0  0  0  0  0  0  0  0  0
  190.2180  177.0210  136.9440 O   0  0  0  0  0  1  0  0  0  0  0  0
  188.9740  175.0990  136.9070 O   0  0  0  0  0  0  0  0  0  0  0  0
  1 12  1  6  0  0  0
  2  4  1  0  0  0  0
  5 11  1  0  0  0  0
  5  6  1  1  0  0  0
  7  2  1  0  0  0  0
  7  3  2  0  0  0  0
  8  1  1  0  0  0  0
  9  5  1  0  0  0  0
 10  3  1  6  0  0  0
 10  5  1  0  0  0  0
 10  8  1  0  0  0  0
 11  4  1  6  0  0  0
 11  1  1  0  0  0  0
 12 13  1  1  0  0  0
 12 14  1  0  0  0  0
 14 20  2  0  0  0  0
 14 16  1  0  0  0  0
 16 17  2  0  0  0  0
 17 15  1  0  0  0  0
 18 15  2  0  0  0  0
 19 16  1  0  0  0  0
 20 18  1  0  0  0  0
 21 22  1  6  0  0  0
 21  7  1  0  0  0  0
 23 21  1  0  0  0  0
 24 23  1  0  0  0  0
 25 23  2  0  0  0  0
M  END
>  <MODEL>
7

>  <REMARK>
 VINA RESULT:      -5.3      5.308      6.978
  Name = 
  4 active torsions:
  status: ('A' for Active; 'I' for Inactive)
    1  A    between atoms: C_1  and  C_3
    2  A    between atoms: C_1  and  C_5
    3  A    between atoms: C_2  and  C_21
    4  A    between atoms: C_15  and  C_21
                            x       y       z     vdW  Elec       q    Type
                         _______ _______ _______ _____ _____    ______ ____

>  <TORSDO>
F 4

$$$$
=
 OpenBabel11052412433D

 25 27  0  0  1  0  0  0  0  0999 V2000
  184.5860  178.0690  140.3340 C   0  0  1  0  0  3  0  0  0  0  0  0
  181.9550  180.3100  138.5460 S   0  0  0  0  0  0  0  0  0  0  0  0
  181.2860  177.7770  139.5750 C   0  0  0  0  0  3  0  0  0  0  0  0
  183.4980  179.9860  139.4610 C   0  0  0  0  0  2  0  0  0  0  0  0
  183.5600  177.7260  138.3390 C   0  0  1  0  0  0  0  0  0  0  0  0
  184.5500  176.6650  137.8550 C   0  0  0  0  0  1  0  0  0  0  0  0
  180.9490  179.0740  139.4150 C   0  0  0  0  0  0  0  0  0  0  0  0
  183.3960  177.1700  140.6640 C   0  0  0  0  0  2  0  0  0  0  0  0
  182.9150  178.1870  137.1880 O   0  0  0  0  0  1  0  0  0  0  0  0
  182.6160  177.0850  139.3560 C   0  0  1  0  0  3  0  0  0  0  0  0
  184.2870  178.7830  139.0800 N   0  0  2  0  0  0  0  0  0  0  0  0
  185.1760  178.9140  141.4820 C   0  0  1  0  0  3  0  0  0  0  0  0
  184.1960  179.1880  142.6190 C   0  0  0  0  0  1  0  0  0  0  0  0
  186.4710  178.3450  141.9790 C   0  0  0  0  0  0  0  0  0  0  0  0
  188.8570  177.2990  143.0210 C   0  0  0  0  0  3  0  0  0  0  0  0
  187.6280  178.2800  141.1760 C   0  0  0  0  0  0  0  0  0  0  0  0
  188.8130  177.7550  141.7010 C   0  0  0  0  0  3  0  0  0  0  0  0
  187.7140  177.3660  143.8210 C   0  0  0  0  0  3  0  0  0  0  0  0
  187.6120  178.7130  139.8920 F   0  0  0  0  0  0  0  0  0  0  0  0
  186.5260  177.8880  143.3020 C   0  0  0  0  0  3  0  0  0  0  0  0
  179.5870  179.4740  139.8970 C   0  0  1  0  0  3  0  0  0  0  0  0
  178.9310  178.3620  140.6970 C   0  0  0  0  0  1  0  0  0  0  0  0
  179.6270  180.7520  140.6700 C   0  0  0  0  0  0  0  0  0  0  0  0
  179.2040  181.9440  140.0930 O   0  0  0  0  0  0  0  0  0  0  0  0
  180.0230  180.7450  141.8630 O   0  0  0  0  0  1  0  0  0  0  0  0
  1  8  1  0  0  0  0
  1 12  1  1  0  0  0
  2  7  1  0  0  0  0
  2  4  1  0  0  0  0
  5  6  1  6  0  0  0
  5 11  1  0  0  0  0
  5 10  1  0  0  0  0
  7  3  2  0  0  0  0
  7 21  1  0  0  0  0
  9  5  1  0  0  0  0
 10  3  1  1  0  0  0
 10  8  1  0  0  0  0
 11  4  1  1  0  0  0
 11  1  1  0  0  0  0
 12 14  1  0  0  0  0
 12 13  1  1  0  0  0
 14 20  1  0  0  0  0
 15 18  1  0  0  0  0
 16 17  1  0  0  0  0
 16 14  2  0  0  0  0
 17 15  2  0  0  0  0
 19 16  1  0  0  0  0
 20 18  2  0  0  0  0
 21 23  1  0  0  0  0
 21 22  1  1  0  0  0
 23 25  1  0  0  0  0
 24 23  2  0  0  0  0
M  END
>  <MODEL>
8

>  <REMARK>
 VINA RESULT:      -5.2      2.371      4.628
  Name = 
  4 active torsions:
  status: ('A' for Active; 'I' for Inactive)
    1  A    between atoms: C_1  and  C_3
    2  A    between atoms: C_1  and  C_5
    3  A    between atoms: C_2  and  C_21
    4  A    between atoms: C_15  and  C_21
                            x       y       z     vdW  Elec       q    Type
                         _______ _______ _______ _____ _____    ______ ____

>  <TORSDO>
F 4

$$$$
=
 OpenBabel11052412433D

 25 27  0  0  1  0  0  0  0  0999 V2000
  180.0990  180.6130  138.5470 C   0  0  1  0  0  3  0  0  0  0  0  0
  182.4290  178.1930  140.5110 S   0  0  0  0  0  0  0  0  0  0  0  0
  179.7480  177.5410  139.9580 C   0  0  0  0  0  3  0  0  0  0  0  0
  182.0610  179.5610  139.3650 C   0  0  0  0  0  2  0  0  0  0  0  0
  179.9840  180.0000  140.7300 C   0  0  1  0  0  0  0  0  0  0  0  0
  179.0510  181.1410  141.1440 C   0  0  0  0  0  1  0  0  0  0  0  0
  181.0350  177.1410  140.0150 C   0  0  0  0  0  0  0  0  0  0  0  0
  179.1030  179.4550  138.5690 C   0  0  0  0  0  2  0  0  0  0  0  0
  180.5660  179.5450  141.9160 O   0  0  0  0  0  1  0  0  0  0  0  0
  179.1610  178.9370  140.0020 C   0  0  1  0  0  3  0  0  0  0  0  0
  180.9640  180.4960  139.7350 N   0  0  2  0  0  0  0  0  0  0  0  0
  180.8060  180.9150  137.2100 C   0  0  1  0  0  3  0  0  0  0  0  0
  180.3070  180.0750  136.0380 C   0  0  0  0  0  1  0  0  0  0  0  0
  180.7940  182.3820  136.8970 C   0  0  0  0  0  0  0  0  0  0  0  0
  180.7210  185.1000  136.2080 C   0  0  0  0  0  3  0  0  0  0  0  0
  181.6490  183.3010  137.5400 C   0  0  0  0  0  0  0  0  0  0  0  0
  181.6050  184.6540  137.1930 C   0  0  0  0  0  3  0  0  0  0  0  0
  179.8760  184.1920  135.5650 C   0  0  0  0  0  3  0  0  0  0  0  0
  182.5140  182.8950  138.5020 F   0  0  0  0  0  0  0  0  0  0  0  0
  179.9140  182.8380  135.9090 C   0  0  0  0  0  3  0  0  0  0  0  0
  181.2940  175.6870  139.7580 C   0  0  1  0  0  3  0  0  0  0  0  0
  180.0120  174.8750  139.8100 C   0  0  0  0  0  1  0  0  0  0  0  0
  182.0230  175.4750  138.4700 C   0  0  0  0  0  0  0  0  0  0  0  0
  181.3430  175.4980  137.2580 O   0  0  0  0  0  0  0  0  0  0  0  0
  183.2680  175.2990  138.4820 O   0  0  0  0  0  1  0  0  0  0  0  0
  1 12  1  6  0  0  0
  1  8  1  0  0  0  0
  1 11  1  0  0  0  0
  3 10  1  0  0  0  0
  3  7  2  0  0  0  0
  4  2  1  0  0  0  0
  5  6  1  1  0  0  0
  5  9  1  0  0  0  0
  7  2  1  0  0  0  0
 10  8  1  6  0  0  0
 10  5  1  0  0  0  0
 11  4  1  6  0  0  0
 11  5  1  0  0  0  0
 12 13  1  6  0  0  0
 14 12  1  0  0  0  0
 14 16  1  0  0  0  0
 15 17  1  0  0  0  0
 16 19  1  0  0  0  0
 17 16  2  0  0  0  0
 18 20  1  0  0  0  0
 18 15  2  0  0  0  0
 20 14  2  0  0  0  0
 21 22  1  6  0  0  0
 21  7  1  0  0  0  0
 23 25  1  0  0  0  0
 23 21  1  0  0  0  0
 24 23  2  0  0  0  0
M  END
>  <MODEL>
9

>  <REMARK>
 VINA RESULT:      -5.2      3.981      6.292
  Name = 
  4 active torsions:
  status: ('A' for Active; 'I' for Inactive)
    1  A    between atoms: C_1  and  C_3
    2  A    between atoms: C_1  and  C_5
    3  A    between atoms: C_2  and  C_21
    4  A    between atoms: C_15  and  C_21
                            x       y       z     vdW  Elec       q    Type
                         _______ _______ _______ _____ _____    ______ ____

>  <TORSDO>
F 4

$$$$
