=
 OpenBabel11052413003D

 31 33  0  0  1  0  0  0  0  0999 V2000
  184.7660  177.2930  137.8120 N   0  0  0  0  0  0  0  0  0  0  0  0
  185.6770  176.5210  136.9950 C   0  0  0  0  0  0  0  0  0  0  0  0
  186.2280  174.6760  135.4940 C   0  0  0  0  0  3  0  0  0  0  0  0
  185.2690  175.4790  136.2670 C   0  0  0  0  0  3  0  0  0  0  0  0
  187.5300  177.8280  137.8360 C   0  0  0  0  0  3  0  0  0  0  0  0
  187.4920  174.9830  135.4540 N   0  0  0  0  0  0  0  0  0  0  0  0
  185.3230  178.3190  138.6630 C   0  0  0  0  0  0  0  0  0  0  0  0
  188.5900  177.0680  135.1110 N   0  0  0  0  0  1  0  0  0  0  0  0
  186.6070  178.5410  138.6720 N   0  0  0  0  0  0  0  0  0  0  0  0
  187.1110  176.8600  137.0190 C   0  0  0  0  0  0  0  0  0  0  0  0
  188.0870  176.1490  136.1180 C   0  0  1  0  0  3  0  0  0  0  0  0
  184.4370  179.0990  139.5890 C   0  0  2  0  0  3  0  0  0  0  0  0
  184.2290  180.3900  139.0990 O   0  0  0  0  0  1  0  0  0  0  0  0
  185.0490  179.1550  140.9780 C   0  0  0  0  0  2  0  0  0  0  0  0
  183.2100  177.9010  141.3110 O   0  0  0  0  0  1  0  0  0  0  0  0
  184.4340  178.1540  141.8330 N   0  0  0  0  0  0  0  0  0  0  0  0
  184.2260  178.7590  143.0830 N   0  0  0  0  0  2  0  0  0  0  0  0
  187.1440  177.6580  145.1480 C   0  0  0  0  0  0  0  0  0  0  0  0
  185.4220  178.5400  146.6040 C   0  0  0  0  0  3  0  0  0  0  0  0
  188.4890  177.0550  144.9640 C   0  0  0  0  0  1  0  0  0  0  0  0
  186.3360  177.9140  144.0370 C   0  0  0  0  0  3  0  0  0  0  0  0
  184.6140  178.7950  145.4920 C   0  0  0  0  0  3  0  0  0  0  0  0
  185.0660  178.4840  144.2060 C   0  0  0  0  0  0  0  0  0  0  0  0
  186.6880  177.9710  146.4310 C   0  0  0  0  0  3  0  0  0  0  0  0
  183.3090  177.1020  137.8020 C   0  0  1  0  0  3  0  0  0  0  0  0
  181.6280  178.7750  136.9850 C   0  0  0  0  0  1  0  0  0  0  0  0
  182.0130  176.7290  135.6290 C   0  0  0  0  0  1  0  0  0  0  0  0
  182.6520  177.7380  136.5690 C   0  0  0  0  0  3  0  0  0  0  0  0
  182.9040  175.6640  138.1260 C   0  0  0  0  0  2  0  0  0  0  0  0
  180.5720  174.4940  138.2070 C   0  0  0  0  0  1  0  0  0  0  0  0
  181.4940  175.6390  139.2690 S   0  0  0  0  0  0  0  0  0  0  0  0
  1  7  1  0  0  0  0
  2 10  1  0  0  0  0
  2  1  1  0  0  0  0
  3  4  1  0  0  0  0
  4  2  2  0  0  0  0
  5  9  1  0  0  0  0
  6  3  2  0  0  0  0
  6 11  1  0  0  0  0
  7  9  2  0  0  0  0
  7 12  1  0  0  0  0
 10  5  2  0  0  0  0
 11  8  1  6  0  0  0
 11 10  1  0  0  0  0
 12 13  1  6  0  0  0
 12 14  1  0  0  0  0
 14 16  1  0  0  0  0
 15 16  1  0  0  0  0
 16 17  1  0  0  0  0
 17 23  1  0  0  0  0
 18 24  1  0  0  0  0
 20 18  1  0  0  0  0
 21 23  1  0  0  0  0
 21 18  2  0  0  0  0
 22 19  1  0  0  0  0
 23 22  2  0  0  0  0
 24 19  2  0  0  0  0
 25  1  1  0  0  0  0
 25 29  1  6  0  0  0
 27 28  1  0  0  0  0
 28 26  1  0  0  0  0
 28 25  1  0  0  0  0
 29 31  1  0  0  0  0
 30 31  1  0  0  0  0
M  END
>  <MODEL>
1

>  <REMARK>
 VINA RESULT:      -7.1      0.000      0.000
  Name = 
  9 active torsions:
  status: ('A' for Active; 'I' for Inactive)
    1  A    between atoms: N_3  and  N_9
    2  A    between atoms: N_3  and  C_22
    3  A    between atoms: N_4  and  C_12
    4  A    between atoms: N_9  and  C_23
    5  A    between atoms: C_12  and  C_25
    6  A    between atoms: C_12  and  C_27
    7  A    between atoms: C_15  and  C_21
    8  A    between atoms: C_15  and  C_23
    9  A    between atoms: C_27  and  S_28
                            x       y       z     vdW  Elec       q    Type
                         _______ _______ _______ _____ _____    ______ ____

>  <TORSDO>
F 9

$$$$
=
 OpenBabel11052413003D

 31 33  0  0  1  0  0  0  0  0999 V2000
  189.8680  176.5490  137.7460 N   0  0  0  0  0  0  0  0  0  0  0  0
  191.0130  176.1020  136.9810 C   0  0  0  0  0  0  0  0  0  0  0  0
  192.0630  175.0410  135.0500 C   0  0  0  0  0  3  0  0  0  0  0  0
  190.8860  175.5400  135.7770 C   0  0  0  0  0  3  0  0  0  0  0  0
  192.4630  176.6740  138.8290 C   0  0  0  0  0  3  0  0  0  0  0  0
  193.2640  175.1760  135.5300 N   0  0  0  0  0  0  0  0  0  0  0  0
  190.0960  177.0260  139.0900 C   0  0  0  0  0  0  0  0  0  0  0  0
  194.3610  177.0500  136.5080 N   0  0  0  0  0  1  0  0  0  0  0  0
  191.3040  177.0610  139.5800 N   0  0  0  0  0  0  0  0  0  0  0  0
  192.3540  176.2180  137.5810 C   0  0  0  0  0  0  0  0  0  0  0  0
  193.5850  175.8540  136.7920 C   0  0  1  0  0  3  0  0  0  0  0  0
  188.9400  177.4280  139.9570 C   0  0  2  0  0  3  0  0  0  0  0  0
  188.7450  178.8100  139.9060 O   0  0  0  0  0  1  0  0  0  0  0  0
  189.1790  176.9840  141.3910 C   0  0  0  0  0  2  0  0  0  0  0  0
  189.4340  178.4500  143.0800 O   0  0  0  0  0  1  0  0  0  0  0  0
  188.4840  177.8720  142.3080 N   0  0  0  0  0  0  0  0  0  0  0  0
  187.7120  177.0590  143.1530 N   0  0  0  0  0  2  0  0  0  0  0  0
  184.7110  178.7200  144.6430 C   0  0  0  0  0  0  0  0  0  0  0  0
  186.2300  178.0770  146.4150 C   0  0  0  0  0  3  0  0  0  0  0  0
  183.4330  179.3400  144.2040 C   0  0  0  0  0  1  0  0  0  0  0  0
  185.5930  178.1940  143.6950 C   0  0  0  0  0  3  0  0  0  0  0  0
  187.1120  177.5510  145.4670 C   0  0  0  0  0  3  0  0  0  0  0  0
  186.7990  177.6080  144.1050 C   0  0  0  0  0  0  0  0  0  0  0  0
  185.0280  178.6610  146.0030 C   0  0  0  0  0  3  0  0  0  0  0  0
  188.4970  176.5630  137.2180 C   0  0  1  0  0  3  0  0  0  0  0  0
  187.2140  178.6610  136.7220 C   0  0  0  0  0  1  0  0  0  0  0  0
  187.9180  177.2290  134.8170 C   0  0  0  0  0  1  0  0  0  0  0  0
  188.2750  177.7050  136.2160 C   0  0  0  0  0  3  0  0  0  0  0  0
  188.0200  175.1750  136.7880 C   0  0  0  0  0  2  0  0  0  0  0  0
  186.3900  173.1640  137.1170 C   0  0  0  0  0  1  0  0  0  0  0  0
  186.2500  174.9710  137.1360 S   0  0  0  0  0  0  0  0  0  0  0  0
  1  7  1  0  0  0  0
  2 10  1  0  0  0  0
  2  1  1  0  0  0  0
  3  6  2  0  0  0  0
  3  4  1  0  0  0  0
  4  2  2  0  0  0  0
  5  9  1  0  0  0  0
  6 11  1  0  0  0  0
  7  9  2  0  0  0  0
  7 12  1  0  0  0  0
 10  5  2  0  0  0  0
 11  8  1  6  0  0  0
 11 10  1  0  0  0  0
 12 13  1  1  0  0  0
 12 14  1  0  0  0  0
 14 16  1  0  0  0  0
 16 15  1  0  0  0  0
 16 17  1  0  0  0  0
 17 23  1  0  0  0  0
 18 24  1  0  0  0  0
 20 18  1  0  0  0  0
 21 23  1  0  0  0  0
 21 18  2  0  0  0  0
 22 19  1  0  0  0  0
 23 22  2  0  0  0  0
 24 19  2  0  0  0  0
 25 29  1  6  0  0  0
 25  1  1  0  0  0  0
 27 28  1  0  0  0  0
 28 26  1  0  0  0  0
 28 25  1  0  0  0  0
 29 31  1  0  0  0  0
 30 31  1  0  0  0  0
M  END
>  <MODEL>
2

>  <REMARK>
 VINA RESULT:      -7.0      3.587      4.893
  Name = 
  9 active torsions:
  status: ('A' for Active; 'I' for Inactive)
    1  A    between atoms: N_3  and  N_9
    2  A    between atoms: N_3  and  C_22
    3  A    between atoms: N_4  and  C_12
    4  A    between atoms: N_9  and  C_23
    5  A    between atoms: C_12  and  C_25
    6  A    between atoms: C_12  and  C_27
    7  A    between atoms: C_15  and  C_21
    8  A    between atoms: C_15  and  C_23
    9  A    between atoms: C_27  and  S_28
                            x       y       z     vdW  Elec       q    Type
                         _______ _______ _______ _____ _____    ______ ____

>  <TORSDO>
F 9

$$$$
=
 OpenBabel11052413003D

 31 33  0  0  1  0  0  0  0  0999 V2000
  189.9360  176.4310  137.5840 N   0  0  0  0  0  0  0  0  0  0  0  0
  191.0670  176.0000  136.7910 C   0  0  0  0  0  0  0  0  0  0  0  0
  192.0830  174.9500  134.8350 C   0  0  0  0  0  3  0  0  0  0  0  0
  190.9180  175.4320  135.5920 C   0  0  0  0  0  3  0  0  0  0  0  0
  192.5560  176.5980  138.6000 C   0  0  0  0  0  3  0  0  0  0  0  0
  193.2950  175.1040  135.2840 N   0  0  0  0  0  0  0  0  0  0  0  0
  190.1920  176.9150  138.9210 C   0  0  0  0  0  0  0  0  0  0  0  0
  194.3870  176.9970  136.2290 N   0  0  0  0  0  1  0  0  0  0  0  0
  191.4110  176.9690  139.3790 N   0  0  0  0  0  0  0  0  0  0  0  0
  192.4220  176.1370  137.3560 C   0  0  0  0  0  0  0  0  0  0  0  0
  193.6370  175.7900  136.5360 C   0  0  1  0  0  3  0  0  0  0  0  0
  189.0520  177.3020  139.8170 C   0  0  2  0  0  3  0  0  0  0  0  0
  188.8270  178.6790  139.7580 O   0  0  0  0  0  1  0  0  0  0  0  0
  189.3410  176.8770  141.2470 C   0  0  0  0  0  2  0  0  0  0  0  0
  189.6260  178.4430  142.8400 O   0  0  0  0  0  1  0  0  0  0  0  0
  188.6600  177.7640  142.1750 N   0  0  0  0  0  0  0  0  0  0  0  0
  188.0150  176.9480  143.1180 N   0  0  0  0  0  2  0  0  0  0  0  0
  187.0620  178.0180  146.5720 C   0  0  0  0  0  0  0  0  0  0  0  0
  185.2860  178.6070  145.0350 C   0  0  0  0  0  3  0  0  0  0  0  0
  187.6170  177.9960  147.9510 C   0  0  0  0  0  1  0  0  0  0  0  0
  187.7970  177.4740  145.5150 C   0  0  0  0  0  3  0  0  0  0  0  0
  186.0210  178.0620  143.9780 C   0  0  0  0  0  3  0  0  0  0  0  0
  187.2770  177.4930  144.2130 C   0  0  0  0  0  0  0  0  0  0  0  0
  185.8070  178.5850  146.3330 C   0  0  0  0  0  3  0  0  0  0  0  0
  188.5520  176.4230  137.0920 C   0  0  1  0  0  3  0  0  0  0  0  0
  187.1390  178.4610  136.7190 C   0  0  0  0  0  1  0  0  0  0  0  0
  187.9420  177.2020  134.7330 C   0  0  0  0  0  1  0  0  0  0  0  0
  188.2620  177.6090  136.1630 C   0  0  0  0  0  3  0  0  0  0  0  0
  188.1150  175.0440  136.5950 C   0  0  0  0  0  2  0  0  0  0  0  0
  186.6610  172.9610  137.1970 C   0  0  0  0  0  1  0  0  0  0  0  0
  186.3720  174.7400  137.0040 S   0  0  0  0  0  0  0  0  0  0  0  0
  1  7  1  0  0  0  0
  2 10  1  0  0  0  0
  2  1  1  0  0  0  0
  3  6  2  0  0  0  0
  3  4  1  0  0  0  0
  4  2  2  0  0  0  0
  5  9  1  0  0  0  0
  6 11  1  0  0  0  0
  7  9  2  0  0  0  0
  7 12  1  0  0  0  0
 10  5  2  0  0  0  0
 11  8  1  6  0  0  0
 11 10  1  0  0  0  0
 12 13  1  1  0  0  0
 12 14  1  0  0  0  0
 14 16  1  0  0  0  0
 16 15  1  0  0  0  0
 16 17  1  0  0  0  0
 17 23  1  0  0  0  0
 18 20  1  0  0  0  0
 19 24  2  0  0  0  0
 21 18  2  0  0  0  0
 22 23  2  0  0  0  0
 22 19  1  0  0  0  0
 23 21  1  0  0  0  0
 24 18  1  0  0  0  0
 25 29  1  6  0  0  0
 25  1  1  0  0  0  0
 27 28  1  0  0  0  0
 28 26  1  0  0  0  0
 28 25  1  0  0  0  0
 29 31  1  0  0  0  0
 31 30  1  0  0  0  0
M  END
>  <MODEL>
3

>  <REMARK>
 VINA RESULT:      -6.9      3.645      4.894
  Name = 
  9 active torsions:
  status: ('A' for Active; 'I' for Inactive)
    1  A    between atoms: N_3  and  N_9
    2  A    between atoms: N_3  and  C_22
    3  A    between atoms: N_4  and  C_12
    4  A    between atoms: N_9  and  C_23
    5  A    between atoms: C_12  and  C_25
    6  A    between atoms: C_12  and  C_27
    7  A    between atoms: C_15  and  C_21
    8  A    between atoms: C_15  and  C_23
    9  A    between atoms: C_27  and  S_28
                            x       y       z     vdW  Elec       q    Type
                         _______ _______ _______ _____ _____    ______ ____

>  <TORSDO>
F 9

$$$$
=
 OpenBabel11052413003D

 31 33  0  0  1  0  0  0  0  0999 V2000
  188.1980  177.9550  143.6410 N   0  0  0  0  0  0  0  0  0  0  0  0
  187.8780  177.8590  145.0490 C   0  0  2  0  0  3  0  0  0  0  0  0
  188.4300  177.4070  147.3830 C   0  0  0  0  0  3  0  0  0  0  0  0
  188.7970  177.5560  145.9670 C   0  0  0  0  0  3  0  0  0  0  0  0
  185.5440  178.2330  144.5370 C   0  0  0  0  0  3  0  0  0  0  0  0
  187.2120  177.6140  147.7930 N   0  0  0  0  0  0  0  0  0  0  0  0
  187.1120  178.1610  142.7120 C   0  0  0  0  0  0  0  0  0  0  0  0
  185.6810  179.3780  147.3300 N   0  0  0  0  0  1  0  0  0  0  0  0
  185.8880  178.2710  143.1440 N   0  0  0  0  0  0  0  0  0  0  0  0
  186.4770  178.0440  145.4700 C   0  0  0  0  0  0  0  0  0  0  0  0
  186.1060  178.0460  146.9300 C   0  0  0  0  0  0  0  0  0  0  0  0
  187.3740  178.1910  141.2350 C   0  0  2  0  0  3  0  0  0  0  0  0
  188.0140  179.3780  140.8720 O   0  0  0  0  0  1  0  0  0  0  0  0
  186.0710  178.0410  140.4670 C   0  0  0  0  0  2  0  0  0  0  0  0
  184.8180  179.7520  139.7130 O   0  0  0  0  0  1  0  0  0  0  0  0
  185.9670  179.0820  139.4580 N   0  0  0  0  0  0  0  0  0  0  0  0
  185.7950  178.4350  138.2240 N   0  0  0  0  0  2  0  0  0  0  0  0
  187.9990  176.0280  136.3970 C   0  0  0  0  0  0  0  0  0  0  0  0
  189.0520  178.2080  136.4310 C   0  0  0  0  0  3  0  0  0  0  0  0
  188.0150  174.5970  135.9960 C   0  0  0  0  0  1  0  0  0  0  0  0
  186.9150  176.5400  137.1150 C   0  0  0  0  0  3  0  0  0  0  0  0
  187.9680  178.7200  137.1490 C   0  0  0  0  0  3  0  0  0  0  0  0
  186.8970  177.8900  137.4950 C   0  0  0  0  0  0  0  0  0  0  0  0
  189.0680  176.8620  136.0540 C   0  0  0  0  0  3  0  0  0  0  0  0
  189.5680  177.8760  143.1150 C   0  0  1  0  0  3  0  0  0  0  0  0
  191.3870  179.3780  143.9680 C   0  0  0  0  0  1  0  0  0  0  0  0
  191.5930  176.9340  144.3630 C   0  0  0  0  0  1  0  0  0  0  0  0
  190.6210  178.0930  144.2110 C   0  0  0  0  0  3  0  0  0  0  0  0
  189.7750  176.6690  142.1990 C   0  0  0  0  0  2  0  0  0  0  0  0
  189.9190  176.4400  139.6030 C   0  0  0  0  0  1  0  0  0  0  0  0
  191.0090  177.0420  140.9210 S   0  0  0  0  0  0  0  0  0  0  0  0
  1  2  1  0  0  0  0
  2 10  1  0  0  0  0
  2  4  1  6  0  0  0
  3  6  1  0  0  0  0
  4  3  2  0  0  0  0
  5 10  2  0  0  0  0
  7  9  2  0  0  0  0
  7  1  1  0  0  0  0
  9  5  1  0  0  0  0
 10 11  1  0  0  0  0
 11  8  1  0  0  0  0
 11  6  2  0  0  0  0
 12 13  1  6  0  0  0
 12  7  1  0  0  0  0
 14 12  1  0  0  0  0
 16 15  1  0  0  0  0
 16 14  1  0  0  0  0
 17 16  1  0  0  0  0
 18 21  1  0  0  0  0
 19 22  2  0  0  0  0
 20 18  1  0  0  0  0
 21 23  2  0  0  0  0
 22 23  1  0  0  0  0
 23 17  1  0  0  0  0
 24 18  2  0  0  0  0
 24 19  1  0  0  0  0
 25 29  1  1  0  0  0
 25  1  1  0  0  0  0
 25 28  1  0  0  0  0
 26 28  1  0  0  0  0
 28 27  1  0  0  0  0
 30 31  1  0  0  0  0
 31 29  1  0  0  0  0
M  END
>  <MODEL>
4

>  <REMARK>
 VINA RESULT:      -6.2      3.292      8.802
  Name = 
  9 active torsions:
  status: ('A' for Active; 'I' for Inactive)
    1  A    between atoms: N_3  and  N_9
    2  A    between atoms: N_3  and  C_22
    3  A    between atoms: N_4  and  C_12
    4  A    between atoms: N_9  and  C_23
    5  A    between atoms: C_12  and  C_25
    6  A    between atoms: C_12  and  C_27
    7  A    between atoms: C_15  and  C_21
    8  A    between atoms: C_15  and  C_23
    9  A    between atoms: C_27  and  S_28
                            x       y       z     vdW  Elec       q    Type
                         _______ _______ _______ _____ _____    ______ ____

>  <TORSDO>
F 9

$$$$
=
 OpenBabel11052413003D

 31 33  0  0  1  0  0  0  0  0999 V2000
  184.9950  177.2790  137.6940 N   0  0  0  0  0  0  0  0  0  0  0  0
  185.9920  176.6110  136.8860 C   0  0  0  0  0  0  0  0  0  0  0  0
  186.7410  174.8720  135.3440 C   0  0  0  0  0  3  0  0  0  0  0  0
  185.6940  175.5680  136.1070 C   0  0  0  0  0  3  0  0  0  0  0  0
  187.7040  178.0280  137.8400 C   0  0  0  0  0  3  0  0  0  0  0  0
  187.9770  175.2790  135.3620 N   0  0  0  0  0  0  0  0  0  0  0  0
  185.4370  178.3130  138.5990 C   0  0  0  0  0  0  0  0  0  0  0  0
  188.9150  177.4550  135.1310 N   0  0  0  0  0  1  0  0  0  0  0  0
  186.6990  178.6350  138.6640 N   0  0  0  0  0  0  0  0  0  0  0  0
  187.3930  177.0620  136.9750 C   0  0  0  0  0  0  0  0  0  0  0  0
  188.4530  176.4630  136.0880 C   0  0  1  0  0  3  0  0  0  0  0  0
  184.4600  178.9860  139.5170 C   0  0  2  0  0  3  0  0  0  0  0  0
  184.2300  180.3020  139.1110 O   0  0  0  0  0  1  0  0  0  0  0  0
  184.9770  178.9590  140.9450 C   0  0  0  0  0  2  0  0  0  0  0  0
  182.7830  178.5690  141.2670 O   0  0  0  0  0  1  0  0  0  0  0  0
  183.9980  178.3300  141.8160 N   0  0  0  0  0  0  0  0  0  0  0  0
  184.0360  179.0220  143.0370 N   0  0  0  0  0  2  0  0  0  0  0  0
  186.9250  177.6220  144.9560 C   0  0  0  0  0  0  0  0  0  0  0  0
  185.2300  178.3850  146.5070 C   0  0  0  0  0  3  0  0  0  0  0  0
  188.2530  177.0050  144.7010 C   0  0  0  0  0  1  0  0  0  0  0  0
  186.1230  178.0200  143.8830 C   0  0  0  0  0  3  0  0  0  0  0  0
  184.4280  178.7830  145.4340 C   0  0  0  0  0  3  0  0  0  0  0  0
  184.8690  178.6020  144.1190 C   0  0  0  0  0  0  0  0  0  0  0  0
  186.4790  177.8040  146.2680 C   0  0  0  0  0  3  0  0  0  0  0  0
  183.5590  176.9740  137.6230 C   0  0  1  0  0  3  0  0  0  0  0  0
  182.8160  174.5920  137.8820 C   0  0  0  0  0  1  0  0  0  0  0  0
  181.9960  176.2690  139.5210 C   0  0  0  0  0  1  0  0  0  0  0  0
  183.1510  175.8760  138.6150 C   0  0  0  0  0  3  0  0  0  0  0  0
  182.6930  178.2350  137.6070 C   0  0  0  0  0  2  0  0  0  0  0  0
  180.8790  179.8360  136.6270 C   0  0  0  0  0  1  0  0  0  0  0  0
  181.5840  178.2300  136.1690 S   0  0  0  0  0  0  0  0  0  0  0  0
  1  7  1  0  0  0  0
  2 10  1  0  0  0  0
  2  1  1  0  0  0  0
  3  6  2  0  0  0  0
  3  4  1  0  0  0  0
  4  2  2  0  0  0  0
  5  9  1  0  0  0  0
  6 11  1  0  0  0  0
  7  9  2  0  0  0  0
  7 12  1  0  0  0  0
 10  5  2  0  0  0  0
 11  8  1  6  0  0  0
 11 10  1  0  0  0  0
 12 13  1  6  0  0  0
 12 14  1  0  0  0  0
 14 16  1  0  0  0  0
 15 16  1  0  0  0  0
 16 17  1  0  0  0  0
 17 23  1  0  0  0  0
 18 24  1  0  0  0  0
 20 18  1  0  0  0  0
 21 23  1  0  0  0  0
 21 18  2  0  0  0  0
 22 19  1  0  0  0  0
 23 22  2  0  0  0  0
 24 19  2  0  0  0  0
 25 29  1  1  0  0  0
 25  1  1  0  0  0  0
 25 28  1  0  0  0  0
 26 28  1  0  0  0  0
 28 27  1  0  0  0  0
 31 30  1  0  0  0  0
 31 29  1  0  0  0  0
M  END
>  <MODEL>
5

>  <REMARK>
 VINA RESULT:      -6.2      1.061      1.803
  Name = 
  9 active torsions:
  status: ('A' for Active; 'I' for Inactive)
    1  A    between atoms: N_3  and  N_9
    2  A    between atoms: N_3  and  C_22
    3  A    between atoms: N_4  and  C_12
    4  A    between atoms: N_9  and  C_23
    5  A    between atoms: C_12  and  C_25
    6  A    between atoms: C_12  and  C_27
    7  A    between atoms: C_15  and  C_21
    8  A    between atoms: C_15  and  C_23
    9  A    between atoms: C_27  and  S_28
                            x       y       z     vdW  Elec       q    Type
                         _______ _______ _______ _____ _____    ______ ____

>  <TORSDO>
F 9

$$$$
=
 OpenBabel11052413003D

 31 33  0  0  1  0  0  0  0  0999 V2000
  190.6210  177.3920  141.4470 N   0  0  0  0  0  0  0  0  0  0  0  0
  191.6700  177.1130  140.4890 C   0  0  0  0  0  0  0  0  0  0  0  0
  193.9960  176.7400  139.8520 C   0  0  0  0  0  3  0  0  0  0  0  0
  192.9450  176.9630  140.8550 C   0  0  0  0  0  3  0  0  0  0  0  0
  190.0690  177.3170  138.6880 C   0  0  0  0  0  3  0  0  0  0  0  0
  193.7140  176.6300  138.5870 N   0  0  0  0  0  0  0  0  0  0  0  0
  189.2970  177.6640  140.9410 C   0  0  0  0  0  0  0  0  0  0  0  0
  192.0330  175.3790  137.4570 N   0  0  0  0  0  1  0  0  0  0  0  0
  189.0640  177.6410  139.6580 N   0  0  0  0  0  0  0  0  0  0  0  0
  191.3230  177.0530  139.0570 C   0  0  0  0  0  0  0  0  0  0  0  0
  192.3570  176.6750  138.0290 C   0  0  1  0  0  3  0  0  0  0  0  0
  188.1880  178.0370  141.8810 C   0  0  2  0  0  3  0  0  0  0  0  0
  187.4190  176.9160  142.2030 O   0  0  0  0  0  1  0  0  0  0  0  0
  187.3140  179.1140  141.2620 C   0  0  0  0  0  2  0  0  0  0  0  0
  185.5330  178.7850  139.9240 O   0  0  0  0  0  1  0  0  0  0  0  0
  185.9320  178.6650  141.2130 N   0  0  0  0  0  0  0  0  0  0  0  0
  185.1800  179.5850  141.9600 N   0  0  0  0  0  2  0  0  0  0  0  0
  184.9920  178.8520  145.6220 C   0  0  0  0  0  0  0  0  0  0  0  0
  182.7650  178.7710  144.6770 C   0  0  0  0  0  3  0  0  0  0  0  0
  185.8980  178.7350  146.7950 C   0  0  0  0  0  1  0  0  0  0  0  0
  185.5160  179.1570  144.3630 C   0  0  0  0  0  3  0  0  0  0  0  0
  183.2900  179.0750  143.4170 C   0  0  0  0  0  3  0  0  0  0  0  0
  184.6650  179.2680  143.2540 C   0  0  0  0  0  0  0  0  0  0  0  0
  183.6170  178.6590  145.7800 C   0  0  0  0  0  3  0  0  0  0  0  0
  190.8320  177.3900  142.9010 C   0  0  1  0  0  3  0  0  0  0  0  0
  191.4050  179.5980  143.9440 C   0  0  0  0  0  1  0  0  0  0  0  0
  189.4090  178.3790  144.7830 C   0  0  0  0  0  1  0  0  0  0  0  0
  190.2780  178.6570  143.5670 C   0  0  0  0  0  3  0  0  0  0  0  0
  190.4480  176.0570  143.5460 C   0  0  0  0  0  2  0  0  0  0  0  0
  191.8260  176.0980  145.7620 C   0  0  0  0  0  1  0  0  0  0  0  0
  191.9210  175.2090  144.1850 S   0  0  0  0  0  0  0  0  0  0  0  0
  1 25  1  0  0  0  0
  2  4  2  0  0  0  0
  2  1  1  0  0  0  0
  3  4  1  0  0  0  0
  5 10  2  0  0  0  0
  5  9  1  0  0  0  0
  6  3  2  0  0  0  0
  7  1  1  0  0  0  0
  7 12  1  0  0  0  0
  9  7  2  0  0  0  0
 10  2  1  0  0  0  0
 11  8  1  1  0  0  0
 11  6  1  0  0  0  0
 11 10  1  0  0  0  0
 12 13  1  6  0  0  0
 14 12  1  0  0  0  0
 15 16  1  0  0  0  0
 16 14  1  0  0  0  0
 16 17  1  0  0  0  0
 17 23  1  0  0  0  0
 18 24  1  0  0  0  0
 18 20  1  0  0  0  0
 19 24  2  0  0  0  0
 21 18  2  0  0  0  0
 22 19  1  0  0  0  0
 23 22  2  0  0  0  0
 23 21  1  0  0  0  0
 25 29  1  1  0  0  0
 25 28  1  0  0  0  0
 28 26  1  0  0  0  0
 28 27  1  0  0  0  0
 29 31  1  0  0  0  0
 31 30  1  0  0  0  0
M  END
>  <MODEL>
6

>  <REMARK>
 VINA RESULT:      -6.2      4.613      6.764
  Name = 
  9 active torsions:
  status: ('A' for Active; 'I' for Inactive)
    1  A    between atoms: N_3  and  N_9
    2  A    between atoms: N_3  and  C_22
    3  A    between atoms: N_4  and  C_12
    4  A    between atoms: N_9  and  C_23
    5  A    between atoms: C_12  and  C_25
    6  A    between atoms: C_12  and  C_27
    7  A    between atoms: C_15  and  C_21
    8  A    between atoms: C_15  and  C_23
    9  A    between atoms: C_27  and  S_28
                            x       y       z     vdW  Elec       q    Type
                         _______ _______ _______ _____ _____    ______ ____

>  <TORSDO>
F 9

$$$$
=
 OpenBabel11052413003D

 31 33  0  0  1  0  0  0  0  0999 V2000
  186.9860  177.3060  138.2720 N   0  0  0  0  0  0  0  0  0  0  0  0
  188.3210  176.7530  138.3540 C   0  0  2  0  0  3  0  0  0  0  0  0
  190.1230  175.2910  137.5970 C   0  0  0  0  0  3  0  0  0  0  0  0
  188.7850  175.8830  137.4540 C   0  0  0  0  0  3  0  0  0  0  0  0
  188.6590  177.8950  140.4580 C   0  0  0  0  0  3  0  0  0  0  0  0
  190.9150  175.6320  138.5720 N   0  0  0  0  0  0  0  0  0  0  0  0
  186.5300  178.1380  139.3600 C   0  0  0  0  0  0  0  0  0  0  0  0
  191.5010  177.7700  139.4410 N   0  0  0  0  0  1  0  0  0  0  0  0
  187.3140  178.3870  140.3720 N   0  0  0  0  0  0  0  0  0  0  0  0
  189.1690  177.1170  139.5030 C   0  0  0  0  0  0  0  0  0  0  0  0
  190.5960  176.6420  139.5880 C   0  0  0  0  0  0  0  0  0  0  0  0
  185.1300  178.6770  139.3670 C   0  0  2  0  0  3  0  0  0  0  0  0
  184.9620  179.6230  138.3550 O   0  0  0  0  0  1  0  0  0  0  0  0
  184.8100  179.2910  140.7200 C   0  0  0  0  0  2  0  0  0  0  0  0
  183.0720  177.9380  141.1850 O   0  0  0  0  0  1  0  0  0  0  0  0
  184.3100  178.2690  141.6240 N   0  0  0  0  0  0  0  0  0  0  0  0
  184.1480  178.8790  142.8780 N   0  0  0  0  0  2  0  0  0  0  0  0
  187.0110  177.6820  144.9650 C   0  0  0  0  0  0  0  0  0  0  0  0
  185.1650  178.2850  146.4120 C   0  0  0  0  0  3  0  0  0  0  0  0
  188.3970  177.1760  144.7910 C   0  0  0  0  0  1  0  0  0  0  0  0
  186.2490  178.0310  143.8470 C   0  0  0  0  0  3  0  0  0  0  0  0
  184.4030  178.6350  145.2930 C   0  0  0  0  0  3  0  0  0  0  0  0
  184.9410  178.5100  144.0080 C   0  0  0  0  0  0  0  0  0  0  0  0
  186.4690  177.8080  146.2480 C   0  0  0  0  0  3  0  0  0  0  0  0
  186.0860  177.0840  137.1320 C   0  0  1  0  0  3  0  0  0  0  0  0
  186.9070  177.0350  134.7630 C   0  0  0  0  0  1  0  0  0  0  0  0
  187.5660  178.9510  136.2010 C   0  0  0  0  0  1  0  0  0  0  0  0
  186.4810  177.9270  135.9110 C   0  0  0  0  0  3  0  0  0  0  0  0
  185.8170  175.6000  136.8790 C   0  0  0  0  0  2  0  0  0  0  0  0
  184.6770  173.3610  137.5850 C   0  0  0  0  0  1  0  0  0  0  0  0
  184.2130  175.1140  137.5780 S   0  0  0  0  0  0  0  0  0  0  0  0
  1  2  1  0  0  0  0
  1  7  1  0  0  0  0
  2  4  1  1  0  0  0
  2 10  1  0  0  0  0
  3  6  1  0  0  0  0
  4  3  2  0  0  0  0
  6 11  2  0  0  0  0
  7 12  1  0  0  0  0
  7  9  2  0  0  0  0
  8 11  1  0  0  0  0
  9  5  1  0  0  0  0
 10 11  1  0  0  0  0
 10  5  2  0  0  0  0
 12 13  1  6  0  0  0
 12 14  1  0  0  0  0
 14 16  1  0  0  0  0
 15 16  1  0  0  0  0
 16 17  1  0  0  0  0
 17 23  1  0  0  0  0
 18 24  1  0  0  0  0
 20 18  1  0  0  0  0
 21 23  1  0  0  0  0
 21 18  2  0  0  0  0
 22 19  1  0  0  0  0
 23 22  2  0  0  0  0
 24 19  2  0  0  0  0
 25 29  1  6  0  0  0
 25  1  1  0  0  0  0
 26 28  1  0  0  0  0
 28 27  1  0  0  0  0
 28 25  1  0  0  0  0
 29 31  1  0  0  0  0
 31 30  1  0  0  0  0
M  END
>  <MODEL>
7

>  <REMARK>
 VINA RESULT:      -6.2      2.129      2.993
  Name = 
  9 active torsions:
  status: ('A' for Active; 'I' for Inactive)
    1  A    between atoms: N_3  and  N_9
    2  A    between atoms: N_3  and  C_22
    3  A    between atoms: N_4  and  C_12
    4  A    between atoms: N_9  and  C_23
    5  A    between atoms: C_12  and  C_25
    6  A    between atoms: C_12  and  C_27
    7  A    between atoms: C_15  and  C_21
    8  A    between atoms: C_15  and  C_23
    9  A    between atoms: C_27  and  S_28
                            x       y       z     vdW  Elec       q    Type
                         _______ _______ _______ _____ _____    ______ ____

>  <TORSDO>
F 9

$$$$
=
 OpenBabel11052413003D

 31 33  0  0  1  0  0  0  0  0999 V2000
  181.3040  178.6140  137.8520 N   0  0  0  0  0  0  0  0  0  0  0  0
  180.9770  179.6210  136.8650 C   0  0  0  0  0  0  0  0  0  0  0  0
  180.4770  180.3660  134.5950 C   0  0  0  0  0  3  0  0  0  0  0  0
  180.7470  179.3140  135.5870 C   0  0  0  0  0  3  0  0  0  0  0  0
  181.3030  181.3460  138.5280 C   0  0  0  0  0  3  0  0  0  0  0  0
  180.4030  181.6190  134.9390 N   0  0  0  0  0  0  0  0  0  0  0  0
  181.6620  179.0570  139.1790 C   0  0  0  0  0  0  0  0  0  0  0  0
  179.2700  182.6880  136.7400 N   0  0  0  0  0  1  0  0  0  0  0  0
  181.6720  180.3280  139.4690 N   0  0  0  0  0  0  0  0  0  0  0  0
  180.9600  181.0360  137.2780 C   0  0  0  0  0  0  0  0  0  0  0  0
  180.5360  182.1140  136.3140 C   0  0  1  0  0  3  0  0  0  0  0  0
  182.0850  178.0630  140.2210 C   0  0  2  0  0  3  0  0  0  0  0  0
  181.6560  178.4660  141.4870 O   0  0  0  0  0  1  0  0  0  0  0  0
  183.5950  177.8980  140.2060 C   0  0  0  0  0  2  0  0  0  0  0  0
  184.9670  179.6730  140.3840 O   0  0  0  0  0  1  0  0  0  0  0  0
  184.2070  178.8370  141.1310 N   0  0  0  0  0  0  0  0  0  0  0  0
  185.0870  178.0980  141.9370 N   0  0  0  0  0  2  0  0  0  0  0  0
  186.2530  178.0210  145.4900 C   0  0  0  0  0  0  0  0  0  0  0  0
  184.0180  178.9480  145.4030 C   0  0  0  0  0  3  0  0  0  0  0  0
  187.4470  177.6130  146.2740 C   0  0  0  0  0  1  0  0  0  0  0  0
  186.2420  177.8620  144.1020 C   0  0  0  0  0  3  0  0  0  0  0  0
  184.0070  178.7890  144.0140 C   0  0  0  0  0  3  0  0  0  0  0  0
  185.1160  178.2460  143.3580 C   0  0  0  0  0  0  0  0  0  0  0  0
  185.1420  178.5640  146.1410 C   0  0  0  0  0  3  0  0  0  0  0  0
  181.2670  177.1700  137.5790 C   0  0  1  0  0  3  0  0  0  0  0  0
  179.5350  175.9010  138.8740 C   0  0  0  0  0  1  0  0  0  0  0  0
  179.5350  175.7050  136.3980 C   0  0  0  0  0  1  0  0  0  0  0  0
  179.8340  176.6200  137.5740 C   0  0  0  0  0  3  0  0  0  0  0  0
  182.1540  176.7750  136.3970 C   0  0  0  0  0  2  0  0  0  0  0  0
  183.0850  174.9490  138.0130 C   0  0  0  0  0  1  0  0  0  0  0  0
  183.7940  176.2550  136.9750 S   0  0  0  0  0  0  0  0  0  0  0  0
  1  7  1  0  0  0  0
  2 10  1  0  0  0  0
  2  1  1  0  0  0  0
  3  6  2  0  0  0  0
  3  4  1  0  0  0  0
  4  2  2  0  0  0  0
  5  9  1  0  0  0  0
  6 11  1  0  0  0  0
  7  9  2  0  0  0  0
  7 12  1  0  0  0  0
 10  5  2  0  0  0  0
 11  8  1  1  0  0  0
 11 10  1  0  0  0  0
 12 13  1  1  0  0  0
 14 12  1  0  0  0  0
 14 16  1  0  0  0  0
 15 16  1  0  0  0  0
 16 17  1  0  0  0  0
 17 23  1  0  0  0  0
 18 24  1  0  0  0  0
 18 20  1  0  0  0  0
 19 24  2  0  0  0  0
 21 18  2  0  0  0  0
 22 19  1  0  0  0  0
 23 22  2  0  0  0  0
 23 21  1  0  0  0  0
 25 29  1  6  0  0  0
 25  1  1  0  0  0  0
 27 28  1  0  0  0  0
 28 25  1  0  0  0  0
 28 26  1  0  0  0  0
 29 31  1  0  0  0  0
 31 30  1  0  0  0  0
M  END
>  <MODEL>
8

>  <REMARK>
 VINA RESULT:      -6.2      3.093      4.811
  Name = 
  9 active torsions:
  status: ('A' for Active; 'I' for Inactive)
    1  A    between atoms: N_3  and  N_9
    2  A    between atoms: N_3  and  C_22
    3  A    between atoms: N_4  and  C_12
    4  A    between atoms: N_9  and  C_23
    5  A    between atoms: C_12  and  C_25
    6  A    between atoms: C_12  and  C_27
    7  A    between atoms: C_15  and  C_21
    8  A    between atoms: C_15  and  C_23
    9  A    between atoms: C_27  and  S_28
                            x       y       z     vdW  Elec       q    Type
                         _______ _______ _______ _____ _____    ______ ____

>  <TORSDO>
F 9

$$$$
=
 OpenBabel11052413003D

 31 33  0  0  1  0  0  0  0  0999 V2000
  185.1360  178.2490  139.1710 N   0  0  0  0  0  0  0  0  0  0  0  0
  185.9090  177.8490  138.0150 C   0  0  0  0  0  0  0  0  0  0  0  0
  186.1480  176.9590  135.7540 C   0  0  0  0  0  3  0  0  0  0  0  0
  185.3350  177.4160  136.8910 C   0  0  0  0  0  3  0  0  0  0  0  0
  187.9480  178.1860  139.2710 C   0  0  0  0  0  3  0  0  0  0  0  0
  187.4480  177.0090  135.7880 N   0  0  0  0  0  0  0  0  0  0  0  0
  185.8490  178.5800  140.3820 C   0  0  0  0  0  0  0  0  0  0  0  0
  188.9340  178.7400  136.4690 N   0  0  0  0  0  1  0  0  0  0  0  0
  187.1510  178.5290  140.4130 N   0  0  0  0  0  0  0  0  0  0  0  0
  187.3810  177.8630  138.1080 C   0  0  0  0  0  0  0  0  0  0  0  0
  188.2320  177.5450  136.9070 C   0  0  1  0  0  3  0  0  0  0  0  0
  185.0980  178.9260  141.6330 C   0  0  2  0  0  3  0  0  0  0  0  0
  185.5510  180.1380  142.1600 O   0  0  0  0  0  1  0  0  0  0  0  0
  185.2490  177.8170  142.6610 C   0  0  0  0  0  2  0  0  0  0  0  0
  187.1900  176.8240  143.2240 O   0  0  0  0  0  1  0  0  0  0  0  0
  186.4990  177.9780  143.3850 N   0  0  0  0  0  0  0  0  0  0  0  0
  186.1700  178.0690  144.7470 N   0  0  0  0  0  2  0  0  0  0  0  0
  189.4220  177.4450  146.4850 C   0  0  0  0  0  0  0  0  0  0  0  0
  187.7490  178.0670  148.1210 C   0  0  0  0  0  3  0  0  0  0  0  0
  190.8170  177.0530  146.1570 C   0  0  0  0  0  1  0  0  0  0  0  0
  188.4730  177.5650  145.4670 C   0  0  0  0  0  3  0  0  0  0  0  0
  186.7990  178.1860  147.1020 C   0  0  0  0  0  3  0  0  0  0  0  0
  187.1550  177.9350  145.7730 C   0  0  0  0  0  0  0  0  0  0  0  0
  189.0610  177.6960  147.8120 C   0  0  0  0  0  3  0  0  0  0  0  0
  183.6700  178.3580  139.1660 C   0  0  1  0  0  3  0  0  0  0  0  0
  182.7190  176.0480  139.3930 C   0  0  0  0  0  1  0  0  0  0  0  0
  181.7490  177.8660  140.7820 C   0  0  0  0  0  1  0  0  0  0  0  0
  183.0130  177.3470  140.1160 C   0  0  0  0  0  3  0  0  0  0  0  0
  183.1900  179.8050  139.2720 C   0  0  0  0  0  2  0  0  0  0  0  0
  181.8940  181.9000  138.4090 C   0  0  0  0  0  1  0  0  0  0  0  0
  181.8280  180.1130  138.1110 S   0  0  0  0  0  0  0  0  0  0  0  0
  1  7  1  0  0  0  0
  2 10  1  0  0  0  0
  2  1  1  0  0  0  0
  3  6  2  0  0  0  0
  3  4  1  0  0  0  0
  4  2  2  0  0  0  0
  5  9  1  0  0  0  0
  6 11  1  0  0  0  0
  7  9  2  0  0  0  0
  7 12  1  0  0  0  0
 10  5  2  0  0  0  0
 11  8  1  6  0  0  0
 11 10  1  0  0  0  0
 12 13  1  1  0  0  0
 12 14  1  0  0  0  0
 14 16  1  0  0  0  0
 15 16  1  0  0  0  0
 16 17  1  0  0  0  0
 17 23  1  0  0  0  0
 18 24  1  0  0  0  0
 20 18  1  0  0  0  0
 21 23  1  0  0  0  0
 21 18  2  0  0  0  0
 22 19  1  0  0  0  0
 23 22  2  0  0  0  0
 24 19  2  0  0  0  0
 25  1  1  0  0  0  0
 25 29  1  1  0  0  0
 25 28  1  0  0  0  0
 26 28  1  0  0  0  0
 28 27  1  0  0  0  0
 31 30  1  0  0  0  0
 31 29  1  0  0  0  0
M  END
>  <MODEL>
9

>  <REMARK>
 VINA RESULT:      -6.2      2.177      3.107
  Name = 
  9 active torsions:
  status: ('A' for Active; 'I' for Inactive)
    1  A    between atoms: N_3  and  N_9
    2  A    between atoms: N_3  and  C_22
    3  A    between atoms: N_4  and  C_12
    4  A    between atoms: N_9  and  C_23
    5  A    between atoms: C_12  and  C_25
    6  A    between atoms: C_12  and  C_27
    7  A    between atoms: C_15  and  C_21
    8  A    between atoms: C_15  and  C_23
    9  A    between atoms: C_27  and  S_28
                            x       y       z     vdW  Elec       q    Type
                         _______ _______ _______ _____ _____    ______ ____

>  <TORSDO>
F 9

$$$$
