=
 OpenBabel11052414503D

 55 62  0  0  1  0  0  0  0  0999 V2000
  185.9780  177.4730  135.1650 C   0  0  0  0  0  1  0  0  0  0  0  0
  186.3070  177.2670  136.6280 C   0  0  1  0  0  3  0  0  0  0  0  0
  184.8880  177.7810  137.6420 S   0  0  0  0  0  0  0  0  0  0  0  0
  180.4880  178.3060  135.8930 O   0  0  0  0  0  0  0  0  0  0  0  0
  183.7270  174.2840  137.5830 C   0  0  0  0  0  2  0  0  0  0  0  0
  183.0520  173.5270  136.4420 C   0  0  0  0  0  2  0  0  0  0  0  0
  183.1180  175.6750  137.7590 C   0  0  1  0  0  3  0  0  0  0  0  0
  181.1290  174.9580  136.5440 O   0  0  0  0  0  0  0  0  0  0  0  0
  181.5380  173.6150  136.6160 C   0  0  0  0  0  2  0  0  0  0  0  0
  183.7360  176.6770  136.7670 C   0  0  1  0  0  3  0  0  0  0  0  0
  181.0750  179.3650  136.6040 C   0  0  2  0  0  3  0  0  0  0  0  0
  180.9420  176.9800  137.8400 C   0  0  2  0  0  3  0  0  0  0  0  0
  181.5720  175.5880  137.7260 C   0  0  2  0  0  3  0  0  0  0  0  0
  182.7180  177.4880  135.9560 C   0  0  0  0  0  2  0  0  0  0  0  0
  181.5170  177.9490  136.7820 C   0  0  1  0  0  0  0  0  0  0  0  0
  179.9190  177.3030  140.0960 C   0  0  0  0  0  3  0  0  0  0  0  0
  181.1160  178.3790  141.9190 C   0  0  0  0  0  0  0  0  0  0  0  0
  182.1700  178.1150  139.7480 C   0  0  0  0  0  3  0  0  0  0  0  0
  182.2180  178.5590  141.0700 C   0  0  0  0  0  3  0  0  0  0  0  0
  179.9650  177.7470  141.4190 C   0  0  0  0  0  3  0  0  0  0  0  0
  181.0180  177.4870  139.2530 C   0  0  0  0  0  0  0  0  0  0  0  0
  181.1750  178.8290  143.2800 N   0  0  0  0  0  0  0  0  0  0  0  0
  182.3670  179.1500  143.8410 O   0  0  0  0  0  1  0  0  0  0  0  0
  179.9930  178.8280  144.1280 C   0  0  0  0  0  1  0  0  0  0  0  0
  180.0930  179.8610  137.6510 C   0  0  0  0  0  2  0  0  0  0  0  0
  180.5450  181.2090  138.1770 C   0  0  0  0  0  2  0  0  0  0  0  0
  180.5230  182.2340  137.0580 C   0  0  0  0  0  2  0  0  0  0  0  0
  181.2300  183.3740  137.4430 O   0  0  0  0  0  1  0  0  0  0  0  0
  186.5850  175.9180  136.8570 O   0  0  0  0  0  0  0  0  0  0  0  0
  187.7320  175.6610  136.1040 C   0  0  0  0  0  2  0  0  0  0  0  0
  188.9180  175.4330  137.0280 C   0  0  0  0  0  2  0  0  0  0  0  0
  189.7350  176.7090  137.2080 C   0  0  0  0  0  2  0  0  0  0  0  0
  188.4220  178.8880  138.7290 O   0  0  0  0  0  0  0  0  0  0  0  0
  189.9830  177.0520  138.6820 C   0  0  1  0  0  0  0  0  0  0  0  0
  189.7770  178.5410  138.8920 C   0  0  2  0  0  3  0  0  0  0  0  0
  188.5440  177.2300  140.4340 C   0  0  1  0  0  3  0  0  0  0  0  0
  188.8740  178.6510  140.0380 C   0  0  2  0  0  3  0  0  0  0  0  0
  189.0860  176.3340  139.4940 O   0  0  0  0  0  0  0  0  0  0  0  0
  190.8870  179.0430  143.1260 C   0  0  0  0  0  2  0  0  0  0  0  0
  189.0800  176.9250  141.8330 C   0  0  1  0  0  3  0  0  0  0  0  0
  190.8720  177.5340  143.0490 C   0  0  2  0  0  0  0  0  0  0  0  0
  190.4920  176.9540  141.8290 O   0  0  0  0  0  0  0  0  0  0  0  0
  189.7390  178.2360  143.7340 C   0  0  2  0  0  0  0  0  0  0  0  0
  191.7830  176.8440  143.8480 O   0  0  0  0  0  1  0  0  0  0  0  0
  188.5510  177.9300  142.8510 C   0  0  2  0  0  3  0  0  0  0  0  0
  187.3840  177.3530  143.5920 C   0  0  0  0  0  0  0  0  0  0  0  0
  186.3930  178.1810  144.1070 O   0  0  0  0  0  1  0  0  0  0  0  0
  187.3070  176.1080  143.7540 O   0  0  0  0  0  0  0  0  0  0  0  0
  189.7200  178.0940  145.2550 C   0  0  0  0  0  2  0  0  0  0  0  0
  189.9350  176.7630  145.6080 O   0  0  0  0  0  0  0  0  0  0  0  0
  190.0510  176.7870  146.9970 C   0  0  0  0  0  1  0  0  0  0  0  0
  191.6830  176.6240  139.1600 S   0  0  0  0  0  0  0  0  0  0  0  0
  192.4310  176.2140  137.7920 C   0  0  0  0  0  2  0  0  0  0  0  0
  193.8510  175.7710  137.8250 C   0  0  0  0  0  2  0  0  0  0  0  0
  194.4730  176.1130  136.6260 O   0  0  0  0  0  1  0  0  0  0  0  0
  2  1  1  6  0  0  0
  2 29  1  0  0  0  0
  2  3  1  0  0  0  0
  4 11  1  0  0  0  0
  4 15  1  0  0  0  0
  6  9  1  0  0  0  0
  6  5  1  0  0  0  0
  7  5  1  6  0  0  0
  8  9  1  0  0  0  0
 10  3  1  1  0  0  0
 10  7  1  0  0  0  0
 11 15  1  0  0  0  0
 11 25  1  1  0  0  0
 12 21  1  1  0  0  0
 13  8  1  6  0  0  0
 13  7  1  0  0  0  0
 13 12  1  0  0  0  0
 14 10  1  0  0  0  0
 15 14  1  6  0  0  0
 15 12  1  0  0  0  0
 16 20  1  0  0  0  0
 17 22  1  0  0  0  0
 18 19  2  0  0  0  0
 19 17  1  0  0  0  0
 20 17  2  0  0  0  0
 21 18  1  0  0  0  0
 21 16  2  0  0  0  0
 22 23  1  0  0  0  0
 22 24  1  0  0  0  0
 25 26  1  0  0  0  0
 27 28  1  0  0  0  0
 27 26  1  0  0  0  0
 30 29  1  0  0  0  0
 30 31  1  0  0  0  0
 31 32  1  0  0  0  0
 34 32  1  6  0  0  0
 34 35  1  0  0  0  0
 34 52  1  0  0  0  0
 34 38  1  0  0  0  0
 35 33  1  6  0  0  0
 35 37  1  0  0  0  0
 36 38  1  6  0  0  0
 36 40  1  0  0  0  0
 37 33  1  6  0  0  0
 37 36  1  0  0  0  0
 39 43  1  0  0  0  0
 40 42  1  6  0  0  0
 40 45  1  0  0  0  0
 41 39  1  0  0  0  0
 41 43  1  0  0  0  0
 41 44  1  1  0  0  0
 42 41  1  0  0  0  0
 43 49  1  1  0  0  0
 45 46  1  1  0  0  0
 45 43  1  0  0  0  0
 46 48  2  0  0  0  0
 46 47  1  0  0  0  0
 49 50  1  0  0  0  0
 50 51  1  0  0  0  0
 53 54  1  0  0  0  0
 53 52  1  0  0  0  0
 55 54  1  0  0  0  0
M  END
>  <MODEL>
1

>  <REMARK>
 VINA RESULT:      -6.4      0.000      0.000
  Name = 
  18 active torsions:
  status: ('A' for Active; 'I' for Inactive)
    1  A    between atoms: C_1  and  C_53
    2  A    between atoms: C_4  and  C_35
    3  A    between atoms: C_4  and  O_37
    4  A    between atoms: C_6  and  C_22
    5  A    between atoms: C_8  and  C_43
    6  A    between atoms: C_8  and  S_51
    7  A    between atoms: N_10  and  C_32
    8  A    between atoms: O_11  and  C_29
    9  A    between atoms: S_19  and  C_26
   10  A    between atoms: S_19  and  C_40
   11  A    between atoms: C_24  and  C_44
   12  A    between atoms: C_27  and  C_54
   13  A    between atoms: C_28  and  C_31
   14  A    between atoms: C_29  and  C_38
   15  A    between atoms: C_31  and  C_44
   16  A    between atoms: C_33  and  C_52
   17  A    between atoms: C_35  and  C_43
   18  A    between atoms: O_37  and  C_40
                            x       y       z     vdW  Elec       q    Type
                         _______ _______ _______ _____ _____    ______ ____

>  <TORSDO>
F 18

$$$$
=
 OpenBabel11052414503D

 55 62  0  0  1  0  0  0  0  0999 V2000
  179.0990  179.6850  140.2610 C   0  0  0  0  0  1  0  0  0  0  0  0
  180.1110  178.6930  140.7920 C   0  0  1  0  0  3  0  0  0  0  0  0
  180.7000  177.6440  139.4290 S   0  0  0  0  0  0  0  0  0  0  0  0
  179.2770  177.0980  134.9150 O   0  0  0  0  0  0  0  0  0  0  0  0
  181.2090  181.0460  138.1100 C   0  0  0  0  0  2  0  0  0  0  0  0
  180.2410  181.9050  137.2990 C   0  0  0  0  0  2  0  0  0  0  0  0
  181.2480  179.6120  137.5830 C   0  0  1  0  0  3  0  0  0  0  0  0
  180.3150  180.3650  135.4610 O   0  0  0  0  0  0  0  0  0  0  0  0
  180.5300  181.7090  135.8130 C   0  0  0  0  0  2  0  0  0  0  0  0
  180.0820  178.7840  138.1520 C   0  0  1  0  0  3  0  0  0  0  0  0
  179.7870  175.9920  135.6130 C   0  0  2  0  0  3  0  0  0  0  0  0
  181.3390  178.1850  135.4860 C   0  0  2  0  0  3  0  0  0  0  0  0
  181.3590  179.6130  136.0390 C   0  0  2  0  0  3  0  0  0  0  0  0
  179.2590  178.0280  137.1030 C   0  0  0  0  0  2  0  0  0  0  0  0
  180.1160  177.3960  136.0050 C   0  0  1  0  0  0  0  0  0  0  0  0
  183.3980  177.0750  134.6090 C   0  0  0  0  0  3  0  0  0  0  0  0
  185.1560  176.2600  136.0780 C   0  0  0  0  0  0  0  0  0  0  0  0
  183.1750  177.3140  137.0050 C   0  0  0  0  0  3  0  0  0  0  0  0
  184.4130  176.6950  137.1850 C   0  0  0  0  0  3  0  0  0  0  0  0
  184.6360  176.4560  134.7880 C   0  0  0  0  0  3  0  0  0  0  0  0
  182.6600  177.5040  135.7150 C   0  0  0  0  0  0  0  0  0  0  0  0
  186.4320  175.6330  136.2700 N   0  0  0  0  0  0  0  0  0  0  0  0
  186.5090  174.3980  136.8250 O   0  0  0  0  0  1  0  0  0  0  0  0
  187.6720  176.3460  136.0040 C   0  0  0  0  0  1  0  0  0  0  0  0
  180.8380  175.3090  134.7560 C   0  0  0  0  0  2  0  0  0  0  0  0
  181.4150  174.1230  135.5020 C   0  0  0  0  0  2  0  0  0  0  0  0
  180.9190  174.1240  136.9360 C   0  0  0  0  0  2  0  0  0  0  0  0
  182.0030  174.0860  137.8150 O   0  0  0  0  0  1  0  0  0  0  0  0
  181.1890  179.3830  141.3530 O   0  0  0  0  0  0  0  0  0  0  0  0
  182.0820  178.3840  141.7470 C   0  0  0  0  0  2  0  0  0  0  0  0
  183.5110  178.8510  141.5260 C   0  0  0  0  0  2  0  0  0  0  0  0
  184.5170  177.8460  142.0780 C   0  0  0  0  0  2  0  0  0  0  0  0
  183.7780  178.9290  144.7360 O   0  0  0  0  0  0  0  0  0  0  0  0
  185.4820  178.4680  143.0940 C   0  0  1  0  0  0  0  0  0  0  0  0
  184.7470  179.5220  143.9040 C   0  0  2  0  0  3  0  0  0  0  0  0
  185.8840  177.9580  145.2740 C   0  0  1  0  0  3  0  0  0  0  0  0
  185.0330  179.2070  145.3040 C   0  0  2  0  0  3  0  0  0  0  0  0
  185.9720  177.4700  143.9570 O   0  0  0  0  0  0  0  0  0  0  0  0
  188.1990  176.5730  148.2320 C   0  0  0  0  0  2  0  0  0  0  0  0
  187.2790  178.2470  145.8300 C   0  0  1  0  0  3  0  0  0  0  0  0
  188.3110  178.0210  147.8150 C   0  0  2  0  0  0  0  0  0  0  0  0
  187.1950  178.6020  147.1940 O   0  0  0  0  0  0  0  0  0  0  0  0
  188.9640  176.9710  146.9680 C   0  0  2  0  0  0  0  0  0  0  0  0
  189.1400  178.8440  148.5780 O   0  0  0  0  0  1  0  0  0  0  0  0
  188.1920  177.0350  145.6710 C   0  0  2  0  0  3  0  0  0  0  0  0
  189.0610  177.1940  144.4620 C   0  0  0  0  0  0  0  0  0  0  0  0
  189.7860  178.3630  144.2600 O   0  0  0  0  0  1  0  0  0  0  0  0
  189.1280  176.2620  143.6200 O   0  0  0  0  0  0  0  0  0  0  0  0
  190.4900  176.9420  147.0430 C   0  0  0  0  0  2  0  0  0  0  0  0
  190.9300  175.6280  147.1980 O   0  0  0  0  0  0  0  0  0  0  0  0
  192.3030  175.6920  146.9670 C   0  0  0  0  0  1  0  0  0  0  0  0
  186.8830  179.2540  142.2470 S   0  0  0  0  0  0  0  0  0  0  0  0
  187.3560  178.2040  141.1190 C   0  0  0  0  0  2  0  0  0  0  0  0
  188.5200  178.5200  140.2480 C   0  0  0  0  0  2  0  0  0  0  0  0
  188.1190  178.5140  138.9140 O   0  0  0  0  0  1  0  0  0  0  0  0
  2  1  1  6  0  0  0
  2 29  1  0  0  0  0
  3  2  1  0  0  0  0
  4 11  1  0  0  0  0
  4 15  1  0  0  0  0
  6  5  1  0  0  0  0
  7  5  1  6  0  0  0
  7 10  1  0  0  0  0
  8  9  1  0  0  0  0
  9  6  1  0  0  0  0
 10  3  1  1  0  0  0
 11 25  1  6  0  0  0
 11 15  1  0  0  0  0
 12 21  1  1  0  0  0
 12 15  1  0  0  0  0
 12 13  1  0  0  0  0
 13  8  1  6  0  0  0
 13  7  1  0  0  0  0
 14 10  1  0  0  0  0
 15 14  1  1  0  0  0
 16 20  2  0  0  0  0
 16 21  1  0  0  0  0
 17 22  1  0  0  0  0
 17 19  2  0  0  0  0
 18 19  1  0  0  0  0
 20 17  1  0  0  0  0
 21 18  2  0  0  0  0
 22 23  1  0  0  0  0
 24 22  1  0  0  0  0
 25 26  1  0  0  0  0
 26 27  1  0  0  0  0
 27 28  1  0  0  0  0
 29 30  1  0  0  0  0
 31 30  1  0  0  0  0
 31 32  1  0  0  0  0
 34 32  1  6  0  0  0
 34 35  1  0  0  0  0
 34 38  1  0  0  0  0
 35 33  1  1  0  0  0
 35 37  1  0  0  0  0
 36 38  1  6  0  0  0
 36 37  1  0  0  0  0
 36 40  1  0  0  0  0
 37 33  1  1  0  0  0
 40 42  1  1  0  0  0
 41 39  1  0  0  0  0
 41 44  1  1  0  0  0
 42 41  1  0  0  0  0
 43 49  1  6  0  0  0
 43 41  1  0  0  0  0
 43 39  1  0  0  0  0
 45 46  1  6  0  0  0
 45 40  1  0  0  0  0
 45 43  1  0  0  0  0
 47 46  1  0  0  0  0
 48 46  2  0  0  0  0
 49 50  1  0  0  0  0
 51 50  1  0  0  0  0
 52 34  1  0  0  0  0
 53 52  1  0  0  0  0
 54 53  1  0  0  0  0
 55 54  1  0  0  0  0
M  END
>  <MODEL>
2

>  <REMARK>
 VINA RESULT:      -6.2      2.785      6.241
  Name = 
  18 active torsions:
  status: ('A' for Active; 'I' for Inactive)
    1  A    between atoms: C_1  and  C_53
    2  A    between atoms: C_4  and  C_35
    3  A    between atoms: C_4  and  O_37
    4  A    between atoms: C_6  and  C_22
    5  A    between atoms: C_8  and  C_43
    6  A    between atoms: C_8  and  S_51
    7  A    between atoms: N_10  and  C_32
    8  A    between atoms: O_11  and  C_29
    9  A    between atoms: S_19  and  C_26
   10  A    between atoms: S_19  and  C_40
   11  A    between atoms: C_24  and  C_44
   12  A    between atoms: C_27  and  C_54
   13  A    between atoms: C_28  and  C_31
   14  A    between atoms: C_29  and  C_38
   15  A    between atoms: C_31  and  C_44
   16  A    between atoms: C_33  and  C_52
   17  A    between atoms: C_35  and  C_43
   18  A    between atoms: O_37  and  C_40
                            x       y       z     vdW  Elec       q    Type
                         _______ _______ _______ _____ _____    ______ ____

>  <TORSDO>
F 18

$$$$
=
 OpenBabel11052414503D

 55 62  0  0  1  0  0  0  0  0999 V2000
  179.8890  179.6670  141.5020 C   0  0  0  0  0  1  0  0  0  0  0  0
  180.7050  178.6420  140.7440 C   0  0  1  0  0  3  0  0  0  0  0  0
  181.7890  179.4930  139.5570 S   0  0  0  0  0  0  0  0  0  0  0  0
  179.4920  176.3300  136.8330 O   0  0  0  0  0  0  0  0  0  0  0  0
  180.6520  181.6390  136.7870 C   0  0  0  0  0  2  0  0  0  0  0  0
  179.2580  181.7360  136.1710 C   0  0  0  0  0  2  0  0  0  0  0  0
  181.0630  180.1820  136.9920 C   0  0  1  0  0  3  0  0  0  0  0  0
  179.3820  179.4770  135.3740 O   0  0  0  0  0  0  0  0  0  0  0  0
  179.1830  180.8080  134.9630 C   0  0  0  0  0  2  0  0  0  0  0  0
  180.4780  179.6230  138.3020 C   0  0  1  0  0  3  0  0  0  0  0  0
  180.5370  175.8920  137.6620 C   0  0  2  0  0  3  0  0  0  0  0  0
  181.0920  177.8750  135.9320 C   0  0  2  0  0  3  0  0  0  0  0  0
  180.7420  179.3520  135.7240 C   0  0  2  0  0  3  0  0  0  0  0  0
  179.7330  178.2910  138.1560 C   0  0  0  0  0  2  0  0  0  0  0  0
  180.4280  177.3120  137.2090 C   0  0  1  0  0  0  0  0  0  0  0  0
  183.3320  177.7570  137.0320 C   0  0  0  0  0  3  0  0  0  0  0  0
  185.3570  177.2340  135.7920 C   0  0  0  0  0  0  0  0  0  0  0  0
  183.2170  177.3470  134.6510 C   0  0  0  0  0  3  0  0  0  0  0  0
  184.5960  177.1370  134.6180 C   0  0  0  0  0  3  0  0  0  0  0  0
  184.7110  177.5480  137.0000 C   0  0  0  0  0  3  0  0  0  0  0  0
  182.5780  177.6620  135.8590 C   0  0  0  0  0  0  0  0  0  0  0  0
  186.7730  177.0080  135.7530 N   0  0  0  0  0  0  0  0  0  0  0  0
  187.6010  177.9510  135.2390 O   0  0  0  0  0  1  0  0  0  0  0  0
  187.3440  175.7240  136.1330 C   0  0  0  0  0  1  0  0  0  0  0  0
  181.4880  175.0360  136.8450 C   0  0  0  0  0  2  0  0  0  0  0  0
  182.1950  174.0490  137.7530 C   0  0  0  0  0  2  0  0  0  0  0  0
  183.6980  174.1960  137.6060 C   0  0  0  0  0  2  0  0  0  0  0  0
  184.0890  173.8320  136.3170 O   0  0  0  0  0  1  0  0  0  0  0  0
  181.4790  177.9060  141.6430 O   0  0  0  0  0  0  0  0  0  0  0  0
  182.5800  178.7220  141.9140 C   0  0  0  0  0  2  0  0  0  0  0  0
  183.8640  177.9210  141.7740 C   0  0  0  0  0  2  0  0  0  0  0  0
  185.0540  178.8270  141.4740 C   0  0  0  0  0  2  0  0  0  0  0  0
  184.9640  179.0980  144.4250 O   0  0  0  0  0  0  0  0  0  0  0  0
  186.2290  178.6010  142.4330 C   0  0  1  0  0  0  0  0  0  0  0  0
  186.0670  179.5000  143.6460 C   0  0  2  0  0  3  0  0  0  0  0  0
  186.4370  177.2350  144.2400 C   0  0  1  0  0  3  0  0  0  0  0  0
  186.2310  178.6220  144.8060 C   0  0  2  0  0  3  0  0  0  0  0  0
  186.2540  177.2560  142.8450 O   0  0  0  0  0  0  0  0  0  0  0  0
  190.2130  178.1160  143.2450 C   0  0  0  0  0  2  0  0  0  0  0  0
  187.8330  176.7180  144.5880 C   0  0  1  0  0  3  0  0  0  0  0  0
  189.8460  176.6900  143.5850 C   0  0  2  0  0  0  0  0  0  0  0  0
  188.5070  176.3110  143.4150 O   0  0  0  0  0  0  0  0  0  0  0  0
  190.0320  177.6750  144.6990 C   0  0  2  0  0  0  0  0  0  0  0  0
  190.8310  175.7180  143.4110 O   0  0  0  0  0  1  0  0  0  0  0  0
  188.6510  177.7910  145.3010 C   0  0  2  0  0  3  0  0  0  0  0  0
  188.6200  177.5690  146.7810 C   0  0  0  0  0  0  0  0  0  0  0  0
  188.5530  178.6460  147.6570 O   0  0  0  0  0  1  0  0  0  0  0  0
  188.6620  176.3950  147.2330 O   0  0  0  0  0  0  0  0  0  0  0  0
  191.3010  177.4790  145.5260 C   0  0  0  0  0  2  0  0  0  0  0  0
  191.5450  176.1180  145.7010 O   0  0  0  0  0  0  0  0  0  0  0  0
  192.0820  176.0230  146.9840 C   0  0  0  0  0  1  0  0  0  0  0  0
  187.8050  178.9970  141.6190 S   0  0  0  0  0  0  0  0  0  0  0  0
  187.8430  178.0960  140.2820 C   0  0  0  0  0  2  0  0  0  0  0  0
  189.0260  178.1510  139.3820 C   0  0  0  0  0  2  0  0  0  0  0  0
  188.8570  179.1740  138.4510 O   0  0  0  0  0  1  0  0  0  0  0  0
  2  1  1  1  0  0  0
  2 29  1  0  0  0  0
  3  2  1  0  0  0  0
  4 15  1  0  0  0  0
  4 11  1  0  0  0  0
  6  5  1  0  0  0  0
  7  5  1  6  0  0  0
  7 10  1  0  0  0  0
  9  8  1  0  0  0  0
  9  6  1  0  0  0  0
 10  3  1  1  0  0  0
 11 25  1  6  0  0  0
 12 21  1  1  0  0  0
 12 15  1  0  0  0  0
 13  8  1  1  0  0  0
 13 12  1  0  0  0  0
 13  7  1  0  0  0  0
 14 10  1  0  0  0  0
 15 11  1  0  0  0  0
 15 14  1  1  0  0  0
 17 20  2  0  0  0  0
 18 21  1  0  0  0  0
 19 18  2  0  0  0  0
 19 17  1  0  0  0  0
 20 16  1  0  0  0  0
 21 16  2  0  0  0  0
 22 17  1  0  0  0  0
 22 24  1  0  0  0  0
 23 22  1  0  0  0  0
 25 26  1  0  0  0  0
 27 26  1  0  0  0  0
 28 27  1  0  0  0  0
 29 30  1  0  0  0  0
 31 30  1  0  0  0  0
 32 31  1  0  0  0  0
 34 32  1  6  0  0  0
 34 38  1  0  0  0  0
 34 35  1  0  0  0  0
 35 33  1  1  0  0  0
 35 37  1  0  0  0  0
 36 38  1  6  0  0  0
 36 40  1  0  0  0  0
 36 37  1  0  0  0  0
 37 33  1  1  0  0  0
 39 41  1  0  0  0  0
 39 43  1  0  0  0  0
 40 42  1  6  0  0  0
 40 45  1  0  0  0  0
 41 44  1  6  0  0  0
 41 43  1  0  0  0  0
 42 41  1  0  0  0  0
 43 45  1  0  0  0  0
 43 49  1  1  0  0  0
 45 46  1  1  0  0  0
 46 48  2  0  0  0  0
 46 47  1  0  0  0  0
 49 50  1  0  0  0  0
 50 51  1  0  0  0  0
 52 34  1  0  0  0  0
 53 52  1  0  0  0  0
 54 53  1  0  0  0  0
 55 54  1  0  0  0  0
M  END
>  <MODEL>
3

>  <REMARK>
 VINA RESULT:      -5.6      2.578      5.865
  Name = 
  18 active torsions:
  status: ('A' for Active; 'I' for Inactive)
    1  A    between atoms: C_1  and  C_53
    2  A    between atoms: C_4  and  C_35
    3  A    between atoms: C_4  and  O_37
    4  A    between atoms: C_6  and  C_22
    5  A    between atoms: C_8  and  C_43
    6  A    between atoms: C_8  and  S_51
    7  A    between atoms: N_10  and  C_32
    8  A    between atoms: O_11  and  C_29
    9  A    between atoms: S_19  and  C_26
   10  A    between atoms: S_19  and  C_40
   11  A    between atoms: C_24  and  C_44
   12  A    between atoms: C_27  and  C_54
   13  A    between atoms: C_28  and  C_31
   14  A    between atoms: C_29  and  C_38
   15  A    between atoms: C_31  and  C_44
   16  A    between atoms: C_33  and  C_52
   17  A    between atoms: C_35  and  C_43
   18  A    between atoms: O_37  and  C_40
                            x       y       z     vdW  Elec       q    Type
                         _______ _______ _______ _____ _____    ______ ____

>  <TORSDO>
F 18

$$$$
=
 OpenBabel11052414503D

 55 62  0  0  1  0  0  0  0  0999 V2000
  181.8580  178.6550  143.8900 C   0  0  0  0  0  1  0  0  0  0  0  0
  183.0970  178.4740  143.0400 C   0  0  1  0  0  3  0  0  0  0  0  0
  182.7460  179.0130  141.3400 S   0  0  0  0  0  0  0  0  0  0  0  0
  183.3290  176.0100  137.6880 O   0  0  0  0  0  0  0  0  0  0  0  0
  179.5240  177.2260  141.3720 C   0  0  0  0  0  2  0  0  0  0  0  0
  179.2730  175.7210  141.3180 C   0  0  0  0  0  2  0  0  0  0  0  0
  180.5730  177.6470  140.3430 C   0  0  1  0  0  3  0  0  0  0  0  0
  180.1910  175.5810  139.1060 O   0  0  0  0  0  0  0  0  0  0  0  0
  179.0400  175.3080  139.8680 C   0  0  0  0  0  2  0  0  0  0  0  0
  181.9970  177.4190  140.8830 C   0  0  1  0  0  3  0  0  0  0  0  0
  184.0270  177.2280  137.6930 C   0  0  2  0  0  3  0  0  0  0  0  0
  181.3520  177.3440  137.9460 C   0  0  2  0  0  3  0  0  0  0  0  0
  180.2760  176.9830  138.9760 C   0  0  2  0  0  3  0  0  0  0  0  0
  182.9220  176.6340  139.9450 C   0  0  0  0  0  2  0  0  0  0  0  0
  182.7690  177.0320  138.4760 C   0  0  1  0  0  0  0  0  0  0  0  0
  181.5250  179.8120  138.2930 C   0  0  0  0  0  3  0  0  0  0  0  0
  180.8870  181.4090  136.5740 C   0  0  0  0  0  0  0  0  0  0  0  0
  180.6760  179.0250  136.1700 C   0  0  0  0  0  3  0  0  0  0  0  0
  180.5340  180.3430  135.7340 C   0  0  0  0  0  3  0  0  0  0  0  0
  181.3840  181.1310  137.8590 C   0  0  0  0  0  3  0  0  0  0  0  0
  181.1690  178.7530  137.4540 C   0  0  0  0  0  0  0  0  0  0  0  0
  180.7480  182.7620  136.1170 N   0  0  0  0  0  0  0  0  0  0  0  0
  181.4450  183.7600  136.7150 O   0  0  0  0  0  1  0  0  0  0  0  0
  179.7700  183.1190  135.1010 C   0  0  0  0  0  1  0  0  0  0  0  0
  183.8390  177.9100  136.3500 C   0  0  0  0  0  2  0  0  0  0  0  0
  184.2040  176.9510  135.2340 C   0  0  0  0  0  2  0  0  0  0  0  0
  185.6520  177.1580  134.8290 C   0  0  0  0  0  2  0  0  0  0  0  0
  186.2880  177.9980  135.7440 O   0  0  0  0  0  1  0  0  0  0  0  0
  184.1400  179.2370  143.5700 O   0  0  0  0  0  0  0  0  0  0  0  0
  184.1640  178.9090  144.9280 C   0  0  0  0  0  2  0  0  0  0  0  0
  185.4010  179.5050  145.5810 C   0  0  0  0  0  2  0  0  0  0  0  0
  186.3330  178.4160  146.1030 C   0  0  0  0  0  2  0  0  0  0  0  0
  186.1770  176.3410  143.9920 O   0  0  0  0  0  0  0  0  0  0  0  0
  187.4450  178.0600  145.1090 C   0  0  1  0  0  0  0  0  0  0  0  0
  187.3410  176.5900  144.7450 C   0  0  2  0  0  3  0  0  0  0  0  0
  187.4460  177.9910  142.8360 C   0  0  1  0  0  3  0  0  0  0  0  0
  187.3720  176.5480  143.2830 C   0  0  2  0  0  3  0  0  0  0  0  0
  187.3120  178.8430  143.9480 O   0  0  0  0  0  0  0  0  0  0  0  0
  190.8530  176.0090  142.1380 C   0  0  0  0  0  2  0  0  0  0  0  0
  188.7670  178.2600  142.1140 C   0  0  1  0  0  3  0  0  0  0  0  0
  190.8820  177.5140  142.2750 C   0  0  2  0  0  0  0  0  0  0  0  0
  189.8490  178.1140  143.0090 O   0  0  0  0  0  0  0  0  0  0  0  0
  190.4050  176.9130  140.9880 C   0  0  2  0  0  0  0  0  0  0  0  0
  192.1330  178.1320  142.2750 O   0  0  0  0  0  1  0  0  0  0  0  0
  188.9470  177.3090  140.9340 C   0  0  2  0  0  3  0  0  0  0  0  0
  188.5550  177.9860  139.6570 C   0  0  0  0  0  0  0  0  0  0  0  0
  187.7150  177.3520  138.7490 O   0  0  0  0  0  0  0  0  0  0  0  0
  188.9970  179.1360  139.4040 O   0  0  0  0  0  1  0  0  0  0  0  0
  191.3660  177.0660  139.8110 C   0  0  0  0  0  2  0  0  0  0  0  0
  191.3150  175.9270  139.0080 O   0  0  0  0  0  0  0  0  0  0  0  0
  191.1220  176.4200  137.7180 C   0  0  0  0  0  1  0  0  0  0  0  0
  189.0790  178.3670  145.8420 S   0  0  0  0  0  0  0  0  0  0  0  0
  189.5970  176.9340  146.3660 C   0  0  0  0  0  2  0  0  0  0  0  0
  190.9100  176.8250  147.0580 C   0  0  0  0  0  2  0  0  0  0  0  0
  191.9360  176.8320  146.1150 O   0  0  0  0  0  1  0  0  0  0  0  0
  2 29  1  0  0  0  0
  2  1  1  1  0  0  0
  3  2  1  0  0  0  0
  4 11  1  0  0  0  0
  4 15  1  0  0  0  0
  6  5  1  0  0  0  0
  7 10  1  0  0  0  0
  7  5  1  1  0  0  0
  8  9  1  0  0  0  0
  9  6  1  0  0  0  0
 10  3  1  6  0  0  0
 11 25  1  6  0  0  0
 11 15  1  0  0  0  0
 12 21  1  1  0  0  0
 12 15  1  0  0  0  0
 12 13  1  0  0  0  0
 13  8  1  1  0  0  0
 13  7  1  0  0  0  0
 14 10  1  0  0  0  0
 15 14  1  1  0  0  0
 17 20  2  0  0  0  0
 18 21  1  0  0  0  0
 19 18  2  0  0  0  0
 19 17  1  0  0  0  0
 20 16  1  0  0  0  0
 21 16  2  0  0  0  0
 22 17  1  0  0  0  0
 22 23  1  0  0  0  0
 24 22  1  0  0  0  0
 26 25  1  0  0  0  0
 27 26  1  0  0  0  0
 27 28  1  0  0  0  0
 29 30  1  0  0  0  0
 30 31  1  0  0  0  0
 31 32  1  0  0  0  0
 34 52  1  0  0  0  0
 34 32  1  1  0  0  0
 35 33  1  6  0  0  0
 35 34  1  0  0  0  0
 36 37  1  0  0  0  0
 36 38  1  1  0  0  0
 37 33  1  6  0  0  0
 37 35  1  0  0  0  0
 38 34  1  0  0  0  0
 39 41  1  0  0  0  0
 40 36  1  0  0  0  0
 40 42  1  1  0  0  0
 41 44  1  1  0  0  0
 41 42  1  0  0  0  0
 43 49  1  6  0  0  0
 43 39  1  0  0  0  0
 43 41  1  0  0  0  0
 45 46  1  6  0  0  0
 45 43  1  0  0  0  0
 45 40  1  0  0  0  0
 47 46  2  0  0  0  0
 48 46  1  0  0  0  0
 50 49  1  0  0  0  0
 51 50  1  0  0  0  0
 52 53  1  0  0  0  0
 53 54  1  0  0  0  0
 55 54  1  0  0  0  0
M  END
>  <MODEL>
4

>  <REMARK>
 VINA RESULT:      -5.5      2.426      6.140
  Name = 
  18 active torsions:
  status: ('A' for Active; 'I' for Inactive)
    1  A    between atoms: C_1  and  C_53
    2  A    between atoms: C_4  and  C_35
    3  A    between atoms: C_4  and  O_37
    4  A    between atoms: C_6  and  C_22
    5  A    between atoms: C_8  and  C_43
    6  A    between atoms: C_8  and  S_51
    7  A    between atoms: N_10  and  C_32
    8  A    between atoms: O_11  and  C_29
    9  A    between atoms: S_19  and  C_26
   10  A    between atoms: S_19  and  C_40
   11  A    between atoms: C_24  and  C_44
   12  A    between atoms: C_27  and  C_54
   13  A    between atoms: C_28  and  C_31
   14  A    between atoms: C_29  and  C_38
   15  A    between atoms: C_31  and  C_44
   16  A    between atoms: C_33  and  C_52
   17  A    between atoms: C_35  and  C_43
   18  A    between atoms: O_37  and  C_40
                            x       y       z     vdW  Elec       q    Type
                         _______ _______ _______ _____ _____    ______ ____

>  <TORSDO>
F 18

$$$$
=
 OpenBabel11052414503D

 55 62  0  0  1  0  0  0  0  0999 V2000
  183.3300  179.6130  139.7080 C   0  0  0  0  0  1  0  0  0  0  0  0
  181.9480  179.0400  139.9380 C   0  0  1  0  0  3  0  0  0  0  0  0
  182.0280  177.2250  139.8650 S   0  0  0  0  0  0  0  0  0  0  0  0
  181.5300  174.2110  136.2090 O   0  0  0  0  0  0  0  0  0  0  0  0
  180.2940  179.3630  137.4150 C   0  0  0  0  0  2  0  0  0  0  0  0
  179.0440  179.0470  136.5960 C   0  0  0  0  0  2  0  0  0  0  0  0
  181.2750  178.1910  137.3980 C   0  0  1  0  0  3  0  0  0  0  0  0
  180.1880  177.3080  135.4030 O   0  0  0  0  0  0  0  0  0  0  0  0
  179.4690  178.5050  135.2340 C   0  0  0  0  0  2  0  0  0  0  0  0
  180.8880  177.1330  138.4480 C   0  0  1  0  0  3  0  0  0  0  0  0
  182.5950  174.0330  137.1060 C   0  0  2  0  0  3  0  0  0  0  0  0
  182.3730  176.4390  135.9260 C   0  0  2  0  0  3  0  0  0  0  0  0
  181.4400  177.6530  135.9550 C   0  0  2  0  0  3  0  0  0  0  0  0
  180.8030  175.6990  137.9140 C   0  0  0  0  0  2  0  0  0  0  0  0
  181.9210  175.3540  136.9290 C   0  0  1  0  0  0  0  0  0  0  0  0
  184.6020  176.9700  134.9310 C   0  0  0  0  0  3  0  0  0  0  0  0
  186.4870  177.6920  136.2870 C   0  0  0  0  0  0  0  0  0  0  0  0
  184.3540  177.1790  137.3270 C   0  0  0  0  0  3  0  0  0  0  0  0
  185.6840  177.5880  137.4320 C   0  0  0  0  0  3  0  0  0  0  0  0
  185.9330  177.3780  135.0350 C   0  0  0  0  0  3  0  0  0  0  0  0
  183.8070  176.8640  136.0750 C   0  0  0  0  0  0  0  0  0  0  0  0
  187.8510  178.1220  136.4010 N   0  0  0  0  0  0  0  0  0  0  0  0
  188.1900  179.0850  137.2940 O   0  0  0  0  0  1  0  0  0  0  0  0
  188.8730  177.6430  135.4840 C   0  0  0  0  0  1  0  0  0  0  0  0
  183.8810  173.8650  136.3170 C   0  0  0  0  0  2  0  0  0  0  0  0
  184.6100  172.6210  136.7850 C   0  0  0  0  0  2  0  0  0  0  0  0
  185.8330  173.0110  137.5930 C   0  0  0  0  0  2  0  0  0  0  0  0
  186.3660  174.2060  137.1040 O   0  0  0  0  0  1  0  0  0  0  0  0
  181.4820  179.4400  141.1920 O   0  0  0  0  0  0  0  0  0  0  0  0
  182.1390  178.6040  142.0970 C   0  0  0  0  0  2  0  0  0  0  0  0
  182.7250  179.4290  143.2320 C   0  0  0  0  0  2  0  0  0  0  0  0
  183.1780  178.5430  144.3880 C   0  0  0  0  0  2  0  0  0  0  0  0
  185.0800  179.8370  146.2570 O   0  0  0  0  0  0  0  0  0  0  0  0
  184.6960  178.3310  144.4140 C   0  0  1  0  0  0  0  0  0  0  0  0
  185.3720  179.6010  144.8990 C   0  0  2  0  0  3  0  0  0  0  0  0
  186.0830  177.6830  146.0970 C   0  0  1  0  0  3  0  0  0  0  0  0
  186.2840  179.1750  145.9620 C   0  0  2  0  0  3  0  0  0  0  0  0
  185.0130  177.2690  145.2810 O   0  0  0  0  0  0  0  0  0  0  0  0
  189.0330  178.0960  143.4220 C   0  0  0  0  0  2  0  0  0  0  0  0
  187.3610  176.9340  145.7200 C   0  0  1  0  0  3  0  0  0  0  0  0
  188.6240  176.7120  143.8720 C   0  0  2  0  0  0  0  0  0  0  0  0
  187.3190  176.5520  144.3610 O   0  0  0  0  0  0  0  0  0  0  0  0
  189.4840  177.5430  144.7750 C   0  0  2  0  0  0  0  0  0  0  0  0
  189.2210  175.6280  143.2280 O   0  0  0  0  0  1  0  0  0  0  0  0
  188.5940  177.7980  145.9700 C   0  0  2  0  0  3  0  0  0  0  0  0
  189.2250  177.4360  147.2780 C   0  0  0  0  0  0  0  0  0  0  0  0
  189.6360  176.1310  147.5290 O   0  0  0  0  0  0  0  0  0  0  0  0
  189.3780  178.3210  148.1590 O   0  0  0  0  0  1  0  0  0  0  0  0
  190.9350  177.0800  144.8870 C   0  0  0  0  0  2  0  0  0  0  0  0
  191.7310  178.1290  145.3440 O   0  0  0  0  0  0  0  0  0  0  0  0
  192.0400  178.8570  144.1960 C   0  0  0  0  0  1  0  0  0  0  0  0
  185.3160  177.9390  142.7510 S   0  0  0  0  0  0  0  0  0  0  0  0
  186.0680  179.2700  142.2410 C   0  0  0  0  0  2  0  0  0  0  0  0
  186.6750  179.3070  140.8820 C   0  0  0  0  0  2  0  0  0  0  0  0
  187.0240  178.0160  140.4930 O   0  0  0  0  0  1  0  0  0  0  0  0
  2  1  1  1  0  0  0
  2 29  1  0  0  0  0
  3  2  1  0  0  0  0
  4 15  1  0  0  0  0
  4 11  1  0  0  0  0
  6  5  1  0  0  0  0
  7  5  1  6  0  0  0
  7 10  1  0  0  0  0
  9  8  1  0  0  0  0
  9  6  1  0  0  0  0
 10  3  1  1  0  0  0
 11 25  1  6  0  0  0
 12 13  1  0  0  0  0
 12 21  1  1  0  0  0
 12 15  1  0  0  0  0
 13  8  1  1  0  0  0
 13  7  1  0  0  0  0
 14 10  1  0  0  0  0
 15 11  1  0  0  0  0
 15 14  1  1  0  0  0
 16 20  2  0  0  0  0
 16 21  1  0  0  0  0
 17 22  1  0  0  0  0
 17 19  2  0  0  0  0
 18 19  1  0  0  0  0
 20 17  1  0  0  0  0
 21 18  2  0  0  0  0
 22 23  1  0  0  0  0
 24 22  1  0  0  0  0
 25 26  1  0  0  0  0
 26 27  1  0  0  0  0
 28 27  1  0  0  0  0
 29 30  1  0  0  0  0
 30 31  1  0  0  0  0
 31 32  1  0  0  0  0
 34 32  1  6  0  0  0
 34 35  1  0  0  0  0
 34 38  1  0  0  0  0
 35 37  1  0  0  0  0
 35 33  1  1  0  0  0
 36 38  1  6  0  0  0
 37 36  1  0  0  0  0
 37 33  1  1  0  0  0
 39 41  1  0  0  0  0
 39 43  1  0  0  0  0
 40 42  1  6  0  0  0
 40 45  1  0  0  0  0
 40 36  1  0  0  0  0
 41 44  1  6  0  0  0
 41 42  1  0  0  0  0
 41 43  1  0  0  0  0
 43 49  1  1  0  0  0
 43 45  1  0  0  0  0
 45 46  1  1  0  0  0
 46 47  2  0  0  0  0
 46 48  1  0  0  0  0
 49 50  1  0  0  0  0
 51 50  1  0  0  0  0
 52 34  1  0  0  0  0
 53 52  1  0  0  0  0
 54 53  1  0  0  0  0
 55 54  1  0  0  0  0
M  END
>  <MODEL>
5

>  <REMARK>
 VINA RESULT:      -5.3      2.865      6.485
  Name = 
  18 active torsions:
  status: ('A' for Active; 'I' for Inactive)
    1  A    between atoms: C_1  and  C_53
    2  A    between atoms: C_4  and  C_35
    3  A    between atoms: C_4  and  O_37
    4  A    between atoms: C_6  and  C_22
    5  A    between atoms: C_8  and  C_43
    6  A    between atoms: C_8  and  S_51
    7  A    between atoms: N_10  and  C_32
    8  A    between atoms: O_11  and  C_29
    9  A    between atoms: S_19  and  C_26
   10  A    between atoms: S_19  and  C_40
   11  A    between atoms: C_24  and  C_44
   12  A    between atoms: C_27  and  C_54
   13  A    between atoms: C_28  and  C_31
   14  A    between atoms: C_29  and  C_38
   15  A    between atoms: C_31  and  C_44
   16  A    between atoms: C_33  and  C_52
   17  A    between atoms: C_35  and  C_43
   18  A    between atoms: O_37  and  C_40
                            x       y       z     vdW  Elec       q    Type
                         _______ _______ _______ _____ _____    ______ ____

>  <TORSDO>
F 18

$$$$
=
 OpenBabel11052414503D

 55 62  0  0  1  0  0  0  0  0999 V2000
  179.5630  180.1800  141.3730 C   0  0  0  0  0  1  0  0  0  0  0  0
  180.3370  178.9380  141.7570 C   0  0  1  0  0  3  0  0  0  0  0  0
  181.6480  178.6410  140.5320 S   0  0  0  0  0  0  0  0  0  0  0  0
  179.8270  176.4400  136.7200 O   0  0  0  0  0  0  0  0  0  0  0  0
  181.1250  181.4890  138.2530 C   0  0  0  0  0  2  0  0  0  0  0  0
  179.8780  181.8420  137.4460 C   0  0  0  0  0  2  0  0  0  0  0  0
  181.4480  179.9990  138.1450 C   0  0  1  0  0  3  0  0  0  0  0  0
  180.0880  179.8490  136.1270 O   0  0  0  0  0  0  0  0  0  0  0  0
  180.0100  181.2510  136.0450 C   0  0  0  0  0  2  0  0  0  0  0  0
  180.6060  179.1790  139.1400 C   0  0  1  0  0  3  0  0  0  0  0  0
  180.6810  175.7310  137.5800 C   0  0  2  0  0  3  0  0  0  0  0  0
  181.6130  178.0330  136.5480 C   0  0  2  0  0  3  0  0  0  0  0  0
  181.3520  179.5370  136.6700 C   0  0  2  0  0  3  0  0  0  0  0  0
  179.8660  177.9860  138.5250 C   0  0  0  0  0  2  0  0  0  0  0  0
  180.7010  177.2230  137.4970 C   0  0  1  0  0  0  0  0  0  0  0  0
  183.8080  177.3820  135.5480 C   0  0  0  0  0  3  0  0  0  0  0  0
  185.8330  177.1940  136.8810 C   0  0  0  0  0  0  0  0  0  0  0  0
  183.7320  177.8170  137.9260 C   0  0  0  0  0  3  0  0  0  0  0  0
  185.0980  177.5480  138.0220 C   0  0  0  0  0  3  0  0  0  0  0  0
  185.1740  177.1130  135.6430 C   0  0  0  0  0  3  0  0  0  0  0  0
  183.0790  177.7310  136.6880 C   0  0  0  0  0  0  0  0  0  0  0  0
  187.2390  176.9290  136.9850 N   0  0  0  0  0  0  0  0  0  0  0  0
  187.8730  177.0630  138.1770 O   0  0  0  0  0  1  0  0  0  0  0  0
  188.0430  176.6430  135.8070 C   0  0  0  0  0  1  0  0  0  0  0  0
  181.7460  175.0340  136.7530 C   0  0  0  0  0  2  0  0  0  0  0  0
  182.4220  173.9630  137.5870 C   0  0  0  0  0  2  0  0  0  0  0  0
  182.5420  172.6820  136.7830 C   0  0  0  0  0  2  0  0  0  0  0  0
  181.3170  172.3760  136.1880 O   0  0  0  0  0  1  0  0  0  0  0  0
  180.9050  179.1150  143.0200 O   0  0  0  0  0  0  0  0  0  0  0  0
  182.2630  179.3260  142.7710 C   0  0  0  0  0  2  0  0  0  0  0  0
  183.0120  179.4850  144.0850 C   0  0  0  0  0  2  0  0  0  0  0  0
  184.4410  179.9650  143.8560 C   0  0  0  0  0  2  0  0  0  0  0  0
  185.3710  178.6690  141.3570 O   0  0  0  0  0  0  0  0  0  0  0  0
  185.4470  178.8120  143.7630 C   0  0  1  0  0  0  0  0  0  0  0  0
  185.1230  177.9600  142.5480 C   0  0  2  0  0  3  0  0  0  0  0  0
  187.3980  178.6240  142.6070 C   0  0  1  0  0  3  0  0  0  0  0  0
  186.3870  177.8170  141.8240 C   0  0  2  0  0  3  0  0  0  0  0  0
  186.7510  179.3270  143.6410 O   0  0  0  0  0  0  0  0  0  0  0  0
  190.5970  176.6570  141.2220 C   0  0  0  0  0  2  0  0  0  0  0  0
  188.4820  177.7110  143.1810 C   0  0  1  0  0  3  0  0  0  0  0  0
  189.8190  176.0870  142.3860 C   0  0  2  0  0  0  0  0  0  0  0  0
  188.4750  176.4680  142.5110 O   0  0  0  0  0  0  0  0  0  0  0  0
  190.7680  177.2200  142.6340 C   0  0  2  0  0  0  0  0  0  0  0  0
  190.1890  174.8230  142.8440 O   0  0  0  0  0  1  0  0  0  0  0  0
  189.8600  178.3540  143.0520 C   0  0  2  0  0  3  0  0  0  0  0  0
  190.2570  178.9950  144.3460 C   0  0  0  0  0  0  0  0  0  0  0  0
  189.6490  178.6180  145.5380 O   0  0  0  0  0  1  0  0  0  0  0  0
  191.1430  179.8870  144.3500 O   0  0  0  0  0  0  0  0  0  0  0  0
  192.0440  176.8390  143.3830 C   0  0  0  0  0  2  0  0  0  0  0  0
  191.7910  175.7580  144.2260 O   0  0  0  0  0  0  0  0  0  0  0  0
  191.8770  176.2920  145.5110 C   0  0  0  0  0  1  0  0  0  0  0  0
  185.3630  177.7680  145.2480 S   0  0  0  0  0  0  0  0  0  0  0  0
  186.3320  178.4700  146.3290 C   0  0  0  0  0  2  0  0  0  0  0  0
  186.5240  177.8510  147.6680 C   0  0  0  0  0  2  0  0  0  0  0  0
  187.6800  178.3600  148.2550 O   0  0  0  0  0  1  0  0  0  0  0  0
  2  1  1  6  0  0  0
  2 29  1  0  0  0  0
  3  2  1  0  0  0  0
  4 15  1  0  0  0  0
  4 11  1  0  0  0  0
  6  5  1  0  0  0  0
  7  5  1  6  0  0  0
  7 10  1  0  0  0  0
  9  8  1  0  0  0  0
  9  6  1  0  0  0  0
 10  3  1  1  0  0  0
 11 25  1  6  0  0  0
 12 13  1  0  0  0  0
 12 21  1  1  0  0  0
 12 15  1  0  0  0  0
 13  8  1  1  0  0  0
 13  7  1  0  0  0  0
 14 10  1  0  0  0  0
 15 11  1  0  0  0  0
 15 14  1  1  0  0  0
 16 20  2  0  0  0  0
 16 21  1  0  0  0  0
 17 22  1  0  0  0  0
 17 19  2  0  0  0  0
 18 19  1  0  0  0  0
 20 17  1  0  0  0  0
 21 18  2  0  0  0  0
 22 23  1  0  0  0  0
 24 22  1  0  0  0  0
 25 26  1  0  0  0  0
 27 26  1  0  0  0  0
 28 27  1  0  0  0  0
 30 29  1  0  0  0  0
 30 31  1  0  0  0  0
 32 31  1  0  0  0  0
 34 32  1  1  0  0  0
 34 52  1  0  0  0  0
 35 33  1  6  0  0  0
 35 34  1  0  0  0  0
 36 40  1  0  0  0  0
 36 38  1  1  0  0  0
 37 33  1  6  0  0  0
 37 35  1  0  0  0  0
 37 36  1  0  0  0  0
 38 34  1  0  0  0  0
 39 41  1  0  0  0  0
 39 43  1  0  0  0  0
 40 42  1  6  0  0  0
 41 42  1  0  0  0  0
 41 43  1  0  0  0  0
 41 44  1  1  0  0  0
 43 45  1  0  0  0  0
 43 49  1  1  0  0  0
 45 40  1  0  0  0  0
 45 46  1  1  0  0  0
 46 48  2  0  0  0  0
 46 47  1  0  0  0  0
 49 50  1  0  0  0  0
 50 51  1  0  0  0  0
 52 53  1  0  0  0  0
 53 54  1  0  0  0  0
 54 55  1  0  0  0  0
M  END
>  <MODEL>
6

>  <REMARK>
 VINA RESULT:      -5.0      2.712      6.621
  Name = 
  18 active torsions:
  status: ('A' for Active; 'I' for Inactive)
    1  A    between atoms: C_1  and  C_53
    2  A    between atoms: C_4  and  C_35
    3  A    between atoms: C_4  and  O_37
    4  A    between atoms: C_6  and  C_22
    5  A    between atoms: C_8  and  C_43
    6  A    between atoms: C_8  and  S_51
    7  A    between atoms: N_10  and  C_32
    8  A    between atoms: O_11  and  C_29
    9  A    between atoms: S_19  and  C_26
   10  A    between atoms: S_19  and  C_40
   11  A    between atoms: C_24  and  C_44
   12  A    between atoms: C_27  and  C_54
   13  A    between atoms: C_28  and  C_31
   14  A    between atoms: C_29  and  C_38
   15  A    between atoms: C_31  and  C_44
   16  A    between atoms: C_33  and  C_52
   17  A    between atoms: C_35  and  C_43
   18  A    between atoms: O_37  and  C_40
                            x       y       z     vdW  Elec       q    Type
                         _______ _______ _______ _____ _____    ______ ____

>  <TORSDO>
F 18

$$$$
=
 OpenBabel11052414503D

 55 62  0  0  1  0  0  0  0  0999 V2000
  185.6600  177.1370  137.2470 C   0  0  0  0  0  1  0  0  0  0  0  0
  185.4450  175.9100  136.3880 C   0  0  1  0  0  3  0  0  0  0  0  0
  184.2030  176.2770  135.1120 S   0  0  0  0  0  0  0  0  0  0  0  0
  179.6980  174.7310  134.9910 O   0  0  0  0  0  0  0  0  0  0  0  0
  184.4960  173.0990  136.9520 C   0  0  0  0  0  2  0  0  0  0  0  0
  183.9640  171.7220  136.5600 C   0  0  0  0  0  2  0  0  0  0  0  0
  183.4410  174.1810  136.7270 C   0  0  1  0  0  3  0  0  0  0  0  0
  181.6940  172.4810  136.7220 O   0  0  0  0  0  0  0  0  0  0  0  0
  182.5960  171.5160  137.2050 C   0  0  0  0  0  2  0  0  0  0  0  0
  183.4240  174.6380  135.2570 C   0  0  1  0  0  3  0  0  0  0  0  0
  179.9520  176.1110  134.9280 C   0  0  2  0  0  3  0  0  0  0  0  0
  180.9870  174.7650  137.0150 C   0  0  2  0  0  3  0  0  0  0  0  0
  182.0720  173.7180  137.2850 C   0  0  2  0  0  3  0  0  0  0  0  0
  182.0400  174.6350  134.5990 C   0  0  0  0  0  2  0  0  0  0  0  0
  180.9330  175.1500  135.5190 C   0  0  1  0  0  0  0  0  0  0  0  0
  180.2310  176.0490  139.0200 C   0  0  0  0  0  3  0  0  0  0  0  0
  181.3580  178.0720  139.7620 C   0  0  0  0  0  0  0  0  0  0  0  0
  182.1410  176.8860  137.7940 C   0  0  0  0  0  3  0  0  0  0  0  0
  182.2540  177.9490  138.6910 C   0  0  0  0  0  3  0  0  0  0  0  0
  180.3440  177.1120  139.9170 C   0  0  0  0  0  3  0  0  0  0  0  0
  181.1250  175.9320  137.9520 C   0  0  0  0  0  0  0  0  0  0  0  0
  181.4870  179.1620  140.6860 N   0  0  0  0  0  0  0  0  0  0  0  0
  180.7450  180.2860  140.5230 O   0  0  0  0  0  1  0  0  0  0  0  0
  182.4980  179.1510  141.7310 C   0  0  0  0  0  1  0  0  0  0  0  0
  179.0710  176.8210  135.9400 C   0  0  0  0  0  2  0  0  0  0  0  0
  178.9480  178.2860  135.5700 C   0  0  0  0  0  2  0  0  0  0  0  0
  180.3240  178.9230  135.5160 C   0  0  0  0  0  2  0  0  0  0  0  0
  180.2260  180.2280  135.0310 O   0  0  0  0  0  1  0  0  0  0  0  0
  186.6500  175.5500  135.7800 O   0  0  0  0  0  0  0  0  0  0  0  0
  187.5220  176.6000  136.0760 C   0  0  0  0  0  2  0  0  0  0  0  0
  188.8460  176.0470  136.5790 C   0  0  0  0  0  2  0  0  0  0  0  0
  189.8040  177.1670  136.9720 C   0  0  0  0  0  2  0  0  0  0  0  0
  188.4040  178.9710  138.8620 O   0  0  0  0  0  0  0  0  0  0  0  0
  190.0410  177.2420  138.4850 C   0  0  1  0  0  0  0  0  0  0  0  0
  189.7730  178.6570  138.9650 C   0  0  2  0  0  3  0  0  0  0  0  0
  188.5990  177.0330  140.2320 C   0  0  1  0  0  3  0  0  0  0  0  0
  188.8690  178.5160  140.1070 C   0  0  2  0  0  3  0  0  0  0  0  0
  189.1770  176.3490  139.1460 O   0  0  0  0  0  0  0  0  0  0  0  0
  191.1810  178.2620  143.0340 C   0  0  0  0  0  2  0  0  0  0  0  0
  189.1520  176.4980  141.5530 C   0  0  1  0  0  3  0  0  0  0  0  0
  191.0290  176.7840  142.7590 C   0  0  2  0  0  0  0  0  0  0  0  0
  190.5600  176.4090  141.4920 O   0  0  0  0  0  0  0  0  0  0  0  0
  189.9860  177.4790  143.5800 C   0  0  2  0  0  0  0  0  0  0  0  0
  191.9000  175.9180  143.4190 O   0  0  0  0  0  1  0  0  0  0  0  0
  188.7470  177.3970  142.7180 C   0  0  2  0  0  3  0  0  0  0  0  0
  187.5590  176.8240  143.4270 C   0  0  0  0  0  0  0  0  0  0  0  0
  186.5170  177.6470  143.8410 O   0  0  0  0  0  1  0  0  0  0  0  0
  187.5080  175.5880  143.6540 O   0  0  0  0  0  0  0  0  0  0  0  0
  190.0040  177.1350  145.0680 C   0  0  0  0  0  2  0  0  0  0  0  0
  189.0140  177.8580  145.7320 O   0  0  0  0  0  0  0  0  0  0  0  0
  189.2640  177.6280  147.0840 C   0  0  0  0  0  1  0  0  0  0  0  0
  191.7580  176.8040  138.8850 S   0  0  0  0  0  0  0  0  0  0  0  0
  192.3510  176.1060  137.5590 C   0  0  0  0  0  2  0  0  0  0  0  0
  193.7470  175.5890  137.5490 C   0  0  0  0  0  2  0  0  0  0  0  0
  194.5100  176.2950  138.4770 O   0  0  0  0  0  1  0  0  0  0  0  0
  2  1  1  6  0  0  0
  3  2  1  0  0  0  0
  4 15  1  0  0  0  0
  6  5  1  0  0  0  0
  6  9  1  0  0  0  0
  7  5  1  6  0  0  0
  7 13  1  0  0  0  0
  8  9  1  0  0  0  0
 10  3  1  1  0  0  0
 10  7  1  0  0  0  0
 11  4  1  0  0  0  0
 11 15  1  0  0  0  0
 11 25  1  1  0  0  0
 12 13  1  0  0  0  0
 12 21  1  1  0  0  0
 13  8  1  6  0  0  0
 14 10  1  0  0  0  0
 15 14  1  6  0  0  0
 15 12  1  0  0  0  0
 16 20  1  0  0  0  0
 17 20  2  0  0  0  0
 17 22  1  0  0  0  0
 18 21  1  0  0  0  0
 18 19  2  0  0  0  0
 19 17  1  0  0  0  0
 21 16  2  0  0  0  0
 22 24  1  0  0  0  0
 23 22  1  0  0  0  0
 26 25  1  0  0  0  0
 27 26  1  0  0  0  0
 28 27  1  0  0  0  0
 29 30  1  0  0  0  0
 29  2  1  0  0  0  0
 30 31  1  0  0  0  0
 31 32  1  0  0  0  0
 34 32  1  6  0  0  0
 34 52  1  0  0  0  0
 34 35  1  0  0  0  0
 34 38  1  0  0  0  0
 35 33  1  6  0  0  0
 35 37  1  0  0  0  0
 36 38  1  6  0  0  0
 36 40  1  0  0  0  0
 37 33  1  6  0  0  0
 37 36  1  0  0  0  0
 39 43  1  0  0  0  0
 40 42  1  6  0  0  0
 40 45  1  0  0  0  0
 41 39  1  0  0  0  0
 41 44  1  1  0  0  0
 41 43  1  0  0  0  0
 42 41  1  0  0  0  0
 43 49  1  1  0  0  0
 45 46  1  1  0  0  0
 45 43  1  0  0  0  0
 46 48  2  0  0  0  0
 46 47  1  0  0  0  0
 49 50  1  0  0  0  0
 50 51  1  0  0  0  0
 53 52  1  0  0  0  0
 54 53  1  0  0  0  0
 54 55  1  0  0  0  0
M  END
>  <MODEL>
7

>  <REMARK>
 VINA RESULT:      -4.8      1.639      2.096
  Name = 
  18 active torsions:
  status: ('A' for Active; 'I' for Inactive)
    1  A    between atoms: C_1  and  C_53
    2  A    between atoms: C_4  and  C_35
    3  A    between atoms: C_4  and  O_37
    4  A    between atoms: C_6  and  C_22
    5  A    between atoms: C_8  and  C_43
    6  A    between atoms: C_8  and  S_51
    7  A    between atoms: N_10  and  C_32
    8  A    between atoms: O_11  and  C_29
    9  A    between atoms: S_19  and  C_26
   10  A    between atoms: S_19  and  C_40
   11  A    between atoms: C_24  and  C_44
   12  A    between atoms: C_27  and  C_54
   13  A    between atoms: C_28  and  C_31
   14  A    between atoms: C_29  and  C_38
   15  A    between atoms: C_31  and  C_44
   16  A    between atoms: C_33  and  C_52
   17  A    between atoms: C_35  and  C_43
   18  A    between atoms: O_37  and  C_40
                            x       y       z     vdW  Elec       q    Type
                         _______ _______ _______ _____ _____    ______ ____

>  <TORSDO>
F 18

$$$$
=
 OpenBabel11052414503D

 55 62  0  0  1  0  0  0  0  0999 V2000
  186.3690  177.8370  135.2190 C   0  0  0  0  0  1  0  0  0  0  0  0
  186.0670  177.7490  136.6990 C   0  0  1  0  0  3  0  0  0  0  0  0
  184.2720  177.8810  136.9570 S   0  0  0  0  0  0  0  0  0  0  0  0
  181.1660  176.2010  140.1550 O   0  0  0  0  0  0  0  0  0  0  0  0
  185.8640  178.9320  140.1090 C   0  0  0  0  0  2  0  0  0  0  0  0
  186.1310  178.0990  141.3610 C   0  0  0  0  0  2  0  0  0  0  0  0
  184.4490  178.6940  139.5810 C   0  0  1  0  0  3  0  0  0  0  0  0
  183.7820  177.8230  141.7580 O   0  0  0  0  0  0  0  0  0  0  0  0
  184.9750  178.2880  142.3390 C   0  0  0  0  0  2  0  0  0  0  0  0
  184.3900  177.4230  138.7140 C   0  0  1  0  0  3  0  0  0  0  0  0
  180.7140  176.5340  138.8680 C   0  0  2  0  0  3  0  0  0  0  0  0
  182.0120  178.4440  140.2470 C   0  0  2  0  0  3  0  0  0  0  0  0
  183.4300  178.7400  140.7460 C   0  0  2  0  0  3  0  0  0  0  0  0
  183.2800  176.4370  139.0940 C   0  0  0  0  0  2  0  0  0  0  0  0
  181.9600  177.1230  139.4470 C   0  0  1  0  0  0  0  0  0  0  0  0
  181.7220  179.7900  138.1620 C   0  0  0  0  0  3  0  0  0  0  0  0
  180.3710  181.8110  138.1030 C   0  0  0  0  0  0  0  0  0  0  0  0
  180.6190  180.5630  140.1710 C   0  0  0  0  0  3  0  0  0  0  0  0
  180.0900  181.6460  139.4670 C   0  0  0  0  0  3  0  0  0  0  0  0
  181.1930  180.8720  137.4570 C   0  0  0  0  0  3  0  0  0  0  0  0
  181.4420  179.6310  139.5220 C   0  0  0  0  0  0  0  0  0  0  0  0
  179.8150  182.9210  137.3830 N   0  0  0  0  0  0  0  0  0  0  0  0
  179.8550  184.1680  137.9150 O   0  0  0  0  0  1  0  0  0  0  0  0
  179.0830  182.7250  136.1420 C   0  0  0  0  0  1  0  0  0  0  0  0
  179.4810  177.4110  138.9900 C   0  0  0  0  0  2  0  0  0  0  0  0
  178.9920  177.8020  137.6100 C   0  0  0  0  0  2  0  0  0  0  0  0
  179.9380  177.2580  136.5540 C   0  0  0  0  0  2  0  0  0  0  0  0
  179.2080  176.7140  135.4960 O   0  0  0  0  0  1  0  0  0  0  0  0
  186.5250  176.5270  137.1960 O   0  0  0  0  0  0  0  0  0  0  0  0
  187.6870  176.2620  136.4680 C   0  0  0  0  0  2  0  0  0  0  0  0
  188.5560  175.2700  137.2240 C   0  0  0  0  0  2  0  0  0  0  0  0
  190.0350  175.6280  137.1120 C   0  0  0  0  0  2  0  0  0  0  0  0
  189.4100  178.3060  138.2180 O   0  0  0  0  0  0  0  0  0  0  0  0
  190.6020  176.2190  138.4080 C   0  0  1  0  0  0  0  0  0  0  0  0
  190.6930  177.7290  138.2730 C   0  0  2  0  0  3  0  0  0  0  0  0
  189.5570  177.0640  140.2440 C   0  0  1  0  0  3  0  0  0  0  0  0
  190.0460  178.2670  139.4700 C   0  0  2  0  0  3  0  0  0  0  0  0
  189.7590  175.8940  139.4870 O   0  0  0  0  0  0  0  0  0  0  0  0
  190.3660  179.4920  143.3220 C   0  0  0  0  0  2  0  0  0  0  0  0
  190.2800  176.9610  141.5870 C   0  0  1  0  0  3  0  0  0  0  0  0
  191.3340  178.3850  142.9720 C   0  0  2  0  0  0  0  0  0  0  0  0
  191.3230  177.9110  141.6520 O   0  0  0  0  0  0  0  0  0  0  0  0
  190.0830  178.0430  143.7220 C   0  0  2  0  0  0  0  0  0  0  0  0
  192.5390  178.3450  143.6740 O   0  0  0  0  0  1  0  0  0  0  0  0
  189.3130  177.1830  142.7460 C   0  0  2  0  0  3  0  0  0  0  0  0
  188.8770  175.8690  143.3170 C   0  0  0  0  0  0  0  0  0  0  0  0
  189.7410  174.7800  143.3270 O   0  0  0  0  0  0  0  0  0  0  0  0
  187.7150  175.7520  143.7850 O   0  0  0  0  0  1  0  0  0  0  0  0
  190.2920  177.6750  145.1890 C   0  0  0  0  0  2  0  0  0  0  0  0
  189.1570  178.0090  145.9270 O   0  0  0  0  0  0  0  0  0  0  0  0
  189.1550  177.1070  146.9890 C   0  0  0  0  0  1  0  0  0  0  0  0
  192.2630  175.5600  138.7380 S   0  0  0  0  0  0  0  0  0  0  0  0
  193.0190  175.5510  137.3150 C   0  0  0  0  0  2  0  0  0  0  0  0
  194.4110  175.0350  137.2150 C   0  0  0  0  0  2  0  0  0  0  0  0
  195.2310  176.0100  136.6510 O   0  0  0  0  0  1  0  0  0  0  0  0
  2  1  1  6  0  0  0
  2  3  1  0  0  0  0
  2 29  1  0  0  0  0
  5  6  1  0  0  0  0
  6  9  1  0  0  0  0
  7  5  1  1  0  0  0
  7 13  1  0  0  0  0
  8  9  1  0  0  0  0
 10  3  1  6  0  0  0
 10 14  1  0  0  0  0
 10  7  1  0  0  0  0
 11 25  1  1  0  0  0
 11 15  1  0  0  0  0
 11  4  1  0  0  0  0
 12 21  1  6  0  0  0
 12 13  1  0  0  0  0
 13  8  1  1  0  0  0
 15 14  1  6  0  0  0
 15  4  1  0  0  0  0
 15 12  1  0  0  0  0
 16 21  1  0  0  0  0
 17 19  2  0  0  0  0
 19 18  1  0  0  0  0
 20 17  1  0  0  0  0
 20 16  2  0  0  0  0
 21 18  2  0  0  0  0
 22 23  1  0  0  0  0
 22 17  1  0  0  0  0
 24 22  1  0  0  0  0
 26 25  1  0  0  0  0
 27 26  1  0  0  0  0
 28 27  1  0  0  0  0
 30 29  1  0  0  0  0
 30 31  1  0  0  0  0
 32 31  1  0  0  0  0
 34 32  1  6  0  0  0
 34 52  1  0  0  0  0
 34 38  1  0  0  0  0
 35 33  1  6  0  0  0
 35 34  1  0  0  0  0
 35 37  1  0  0  0  0
 36 38  1  6  0  0  0
 36 40  1  0  0  0  0
 37 33  1  6  0  0  0
 37 36  1  0  0  0  0
 39 43  1  0  0  0  0
 40 42  1  6  0  0  0
 40 45  1  0  0  0  0
 41 39  1  0  0  0  0
 41 44  1  1  0  0  0
 41 43  1  0  0  0  0
 42 41  1  0  0  0  0
 43 49  1  1  0  0  0
 45 46  1  1  0  0  0
 45 43  1  0  0  0  0
 46 47  2  0  0  0  0
 46 48  1  0  0  0  0
 49 50  1  0  0  0  0
 50 51  1  0  0  0  0
 53 52  1  0  0  0  0
 54 53  1  0  0  0  0
 55 54  1  0  0  0  0
M  END
>  <MODEL>
8

>  <REMARK>
 VINA RESULT:      -4.6      1.975      3.708
  Name = 
  18 active torsions:
  status: ('A' for Active; 'I' for Inactive)
    1  A    between atoms: C_1  and  C_53
    2  A    between atoms: C_4  and  C_35
    3  A    between atoms: C_4  and  O_37
    4  A    between atoms: C_6  and  C_22
    5  A    between atoms: C_8  and  C_43
    6  A    between atoms: C_8  and  S_51
    7  A    between atoms: N_10  and  C_32
    8  A    between atoms: O_11  and  C_29
    9  A    between atoms: S_19  and  C_26
   10  A    between atoms: S_19  and  C_40
   11  A    between atoms: C_24  and  C_44
   12  A    between atoms: C_27  and  C_54
   13  A    between atoms: C_28  and  C_31
   14  A    between atoms: C_29  and  C_38
   15  A    between atoms: C_31  and  C_44
   16  A    between atoms: C_33  and  C_52
   17  A    between atoms: C_35  and  C_43
   18  A    between atoms: O_37  and  C_40
                            x       y       z     vdW  Elec       q    Type
                         _______ _______ _______ _____ _____    ______ ____

>  <TORSDO>
F 18

$$$$
=
 OpenBabel11052414503D

 55 62  0  0  1  0  0  0  0  0999 V2000
  183.1540  178.9300  140.0640 C   0  0  0  0  0  1  0  0  0  0  0  0
  181.6620  178.9140  140.3170 C   0  0  1  0  0  3  0  0  0  0  0  0
  180.9830  177.3040  139.8140 S   0  0  0  0  0  0  0  0  0  0  0  0
  179.2780  175.4010  135.7930 O   0  0  0  0  0  0  0  0  0  0  0  0
  181.1390  180.1990  137.5390 C   0  0  0  0  0  2  0  0  0  0  0  0
  180.0530  180.7350  136.6090 C   0  0  0  0  0  2  0  0  0  0  0  0
  181.2460  178.6770  137.4410 C   0  0  1  0  0  3  0  0  0  0  0  0
  180.1050  178.7340  135.2880 O   0  0  0  0  0  0  0  0  0  0  0  0
  180.2460  180.1310  135.2210 C   0  0  0  0  0  2  0  0  0  0  0  0
  180.1900  177.9920  138.3270 C   0  0  1  0  0  3  0  0  0  0  0  0
  179.9190  174.5720  136.7270 C   0  0  2  0  0  3  0  0  0  0  0  0
  181.2890  176.7090  135.8390 C   0  0  2  0  0  3  0  0  0  0  0  0
  181.2430  178.2360  135.9570 C   0  0  2  0  0  3  0  0  0  0  0  0
  179.3510  176.9230  137.6170 C   0  0  0  0  0  2  0  0  0  0  0  0
  180.1700  176.0440  136.6710 C   0  0  1  0  0  0  0  0  0  0  0  0
  182.9070  175.5490  137.3480 C   0  0  0  0  0  3  0  0  0  0  0  0
  185.2230  175.1680  136.7140 C   0  0  0  0  0  0  0  0  0  0  0  0
  183.7130  176.3170  135.2010 C   0  0  0  0  0  3  0  0  0  0  0  0
  184.9800  175.8110  135.4920 C   0  0  0  0  0  3  0  0  0  0  0  0
  184.1740  175.0420  137.6400 C   0  0  0  0  0  3  0  0  0  0  0  0
  182.6700  176.1920  136.1300 C   0  0  0  0  0  0  0  0  0  0  0  0
  186.5260  174.6410  137.0030 N   0  0  0  0  0  0  0  0  0  0  0  0
  187.6130  175.4510  136.9670 O   0  0  0  0  0  1  0  0  0  0  0  0
  186.7360  173.2160  137.2090 C   0  0  0  0  0  1  0  0  0  0  0  0
  180.9520  173.7240  136.0070 C   0  0  0  0  0  2  0  0  0  0  0  0
  181.1850  172.4400  136.7770 C   0  0  0  0  0  2  0  0  0  0  0  0
  179.8560  171.7880  137.1090 C   0  0  0  0  0  2  0  0  0  0  0  0
  179.4230  171.0110  136.0330 O   0  0  0  0  0  1  0  0  0  0  0  0
  181.4190  179.1230  141.6760 O   0  0  0  0  0  0  0  0  0  0  0  0
  182.4280  178.4120  142.3300 C   0  0  0  0  0  2  0  0  0  0  0  0
  182.8950  179.1850  143.5530 C   0  0  0  0  0  2  0  0  0  0  0  0
  183.4270  178.2490  144.6330 C   0  0  0  0  0  2  0  0  0  0  0  0
  185.2860  179.7600  146.3790 O   0  0  0  0  0  0  0  0  0  0  0  0
  184.9570  178.1400  144.6240 C   0  0  1  0  0  0  0  0  0  0  0  0
  185.5570  179.4760  145.0260 C   0  0  2  0  0  3  0  0  0  0  0  0
  186.4280  177.6730  146.2940 C   0  0  1  0  0  3  0  0  0  0  0  0
  186.5240  179.1660  146.0800 C   0  0  2  0  0  3  0  0  0  0  0  0
  185.3680  177.1470  145.5320 O   0  0  0  0  0  0  0  0  0  0  0  0
  189.4920  178.4010  143.8220 C   0  0  0  0  0  2  0  0  0  0  0  0
  187.7450  176.9930  145.9170 C   0  0  1  0  0  3  0  0  0  0  0  0
  189.1010  176.9720  144.1230 C   0  0  2  0  0  0  0  0  0  0  0  0
  187.7790  176.7370  144.5280 O   0  0  0  0  0  0  0  0  0  0  0  0
  189.8920  177.7360  145.1410 C   0  0  2  0  0  0  0  0  0  0  0  0
  189.7590  175.9670  143.4140 O   0  0  0  0  0  1  0  0  0  0  0  0
  188.9380  177.8590  146.3070 C   0  0  2  0  0  3  0  0  0  0  0  0
  189.5160  177.3930  147.6070 C   0  0  0  0  0  0  0  0  0  0  0  0
  190.1830  178.2800  148.4440 O   0  0  0  0  0  1  0  0  0  0  0  0
  189.4000  176.1850  147.9390 O   0  0  0  0  0  0  0  0  0  0  0  0
  191.3490  177.3000  145.2830 C   0  0  0  0  0  2  0  0  0  0  0  0
  191.4240  175.9090  145.3230 O   0  0  0  0  0  0  0  0  0  0  0  0
  192.2710  175.6380  146.3970 C   0  0  0  0  0  1  0  0  0  0  0  0
  185.5570  177.7060  142.9650 S   0  0  0  0  0  0  0  0  0  0  0  0
  186.2970  179.0260  142.4090 C   0  0  0  0  0  2  0  0  0  0  0  0
  186.8870  179.0290  141.0430 C   0  0  0  0  0  2  0  0  0  0  0  0
  187.7240  177.9250  140.8950 O   0  0  0  0  0  1  0  0  0  0  0  0
  2  1  1  1  0  0  0
  2 29  1  0  0  0  0
  3  2  1  0  0  0  0
  4 15  1  0  0  0  0
  4 11  1  0  0  0  0
  6  5  1  0  0  0  0
  7  5  1  6  0  0  0
  7 10  1  0  0  0  0
  9  8  1  0  0  0  0
  9  6  1  0  0  0  0
 10  3  1  1  0  0  0
 11 25  1  6  0  0  0
 12 13  1  0  0  0  0
 12 21  1  1  0  0  0
 12 15  1  0  0  0  0
 13  8  1  1  0  0  0
 13  7  1  0  0  0  0
 14 10  1  0  0  0  0
 15 11  1  0  0  0  0
 15 14  1  1  0  0  0
 16 20  1  0  0  0  0
 17 22  1  0  0  0  0
 17 20  2  0  0  0  0
 18 19  2  0  0  0  0
 18 21  1  0  0  0  0
 19 17  1  0  0  0  0
 21 16  2  0  0  0  0
 22 24  1  0  0  0  0
 23 22  1  0  0  0  0
 25 26  1  0  0  0  0
 26 27  1  0  0  0  0
 28 27  1  0  0  0  0
 29 30  1  0  0  0  0
 30 31  1  0  0  0  0
 31 32  1  0  0  0  0
 34 32  1  6  0  0  0
 34 35  1  0  0  0  0
 34 38  1  0  0  0  0
 35 37  1  0  0  0  0
 35 33  1  1  0  0  0
 36 38  1  6  0  0  0
 37 36  1  0  0  0  0
 37 33  1  1  0  0  0
 39 41  1  0  0  0  0
 39 43  1  0  0  0  0
 40 42  1  6  0  0  0
 40 36  1  0  0  0  0
 40 45  1  0  0  0  0
 41 44  1  6  0  0  0
 41 42  1  0  0  0  0
 41 43  1  0  0  0  0
 43 49  1  1  0  0  0
 43 45  1  0  0  0  0
 45 46  1  1  0  0  0
 46 48  2  0  0  0  0
 46 47  1  0  0  0  0
 49 50  1  0  0  0  0
 50 51  1  0  0  0  0
 52 34  1  0  0  0  0
 53 52  1  0  0  0  0
 54 53  1  0  0  0  0
 55 54  1  0  0  0  0
M  END
>  <MODEL>
9

>  <REMARK>
 VINA RESULT:      -4.3      3.095      6.455
  Name = 
  18 active torsions:
  status: ('A' for Active; 'I' for Inactive)
    1  A    between atoms: C_1  and  C_53
    2  A    between atoms: C_4  and  C_35
    3  A    between atoms: C_4  and  O_37
    4  A    between atoms: C_6  and  C_22
    5  A    between atoms: C_8  and  C_43
    6  A    between atoms: C_8  and  S_51
    7  A    between atoms: N_10  and  C_32
    8  A    between atoms: O_11  and  C_29
    9  A    between atoms: S_19  and  C_26
   10  A    between atoms: S_19  and  C_40
   11  A    between atoms: C_24  and  C_44
   12  A    between atoms: C_27  and  C_54
   13  A    between atoms: C_28  and  C_31
   14  A    between atoms: C_29  and  C_38
   15  A    between atoms: C_31  and  C_44
   16  A    between atoms: C_33  and  C_52
   17  A    between atoms: C_35  and  C_43
   18  A    between atoms: O_37  and  C_40
                            x       y       z     vdW  Elec       q    Type
                         _______ _______ _______ _____ _____    ______ ____

>  <TORSDO>
F 18

$$$$
