=
 OpenBabel11052413523D

 27 30  0  0  1  0  0  0  0  0999 V2000
  187.9150  178.7430  141.5080 C   0  0  0  0  0  2  0  0  0  0  0  0
  188.4940  177.7980  143.7970 C   0  0  2  0  0  3  0  0  0  0  0  0
  189.9610  176.5480  142.2700 C   0  0  0  0  0  2  0  0  0  0  0  0
  190.3480  176.8310  138.5240 C   0  0  0  0  0  3  0  0  0  0  0  0
  189.3770  177.7690  138.1760 C   0  0  0  0  0  0  0  0  0  0  0  0
  187.4400  177.8660  142.6570 C   0  0  1  0  0  3  0  0  0  0  0  0
  188.7460  177.9980  140.5100 C   0  0  0  0  0  0  0  0  0  0  0  0
  189.8740  177.5570  143.3420 N   0  0  1  0  0  0  0  0  0  0  0  0
  190.5260  176.4770  139.8620 C   0  0  0  0  0  3  0  0  0  0  0  0
  189.1560  178.2190  136.5000 Cl  0  0  0  0  0  0  0  0  0  0  0  0
  188.5860  178.3530  139.1660 C   0  0  0  0  0  3  0  0  0  0  0  0
  189.7480  177.0620  140.8670 C   0  0  0  0  0  0  0  0  0  0  0  0
  184.7560  179.5560  144.7680 C   0  0  0  0  0  3  0  0  0  0  0  0
  186.1160  178.3750  143.1390 C   0  0  0  0  0  0  0  0  0  0  0  0
  184.9770  178.1570  142.3550 C   0  0  0  0  0  3  0  0  0  0  0  0
  183.7320  178.6300  142.7780 C   0  0  0  0  0  3  0  0  0  0  0  0
  183.6210  179.3280  143.9850 C   0  0  0  0  0  3  0  0  0  0  0  0
  186.0020  179.0820  144.3460 C   0  0  0  0  0  3  0  0  0  0  0  0
  190.8040  179.5980  144.2950 C   0  0  0  0  0  2  0  0  0  0  0  0
  191.9360  178.8180  143.6660 C   0  0  0  0  0  2  0  0  0  0  0  0
  190.5610  178.8100  143.0220 C   0  0  0  0  0  3  0  0  0  0  0  0
  188.1570  176.8030  144.9210 C   0  0  2  0  0  3  0  0  0  0  0  0
  186.6820  176.4210  144.9810 C   0  0  0  0  0  1  0  0  0  0  0  0
  189.8620  176.8220  146.6080 O   0  0  0  0  0  0  0  0  0  0  0  0
  188.7160  177.2090  146.2580 C   0  0  0  0  0  0  0  0  0  0  0  0
  188.0940  177.8800  148.5510 C   0  0  0  0  0  1  0  0  0  0  0  0
  187.9740  177.9970  147.1420 O   0  0  0  0  0  0  0  0  0  0  0  0
  1  6  1  0  0  0  0
  2 22  1  1  0  0  0
  3  8  1  0  0  0  0
  4  9  1  0  0  0  0
  5  4  2  0  0  0  0
  5 11  1  0  0  0  0
  6 14  1  1  0  0  0
  6  2  1  0  0  0  0
  7 12  1  0  0  0  0
  7  1  1  0  0  0  0
  8 21  1  6  0  0  0
  8  2  1  0  0  0  0
  9 12  2  0  0  0  0
 10  5  1  0  0  0  0
 11  7  2  0  0  0  0
 12  3  1  0  0  0  0
 14 18  2  0  0  0  0
 15 16  2  0  0  0  0
 15 14  1  0  0  0  0
 16 17  1  0  0  0  0
 17 13  2  0  0  0  0
 18 13  1  0  0  0  0
 20 19  1  0  0  0  0
 21 20  1  0  0  0  0
 21 19  1  0  0  0  0
 22 23  1  1  0  0  0
 22 25  1  0  0  0  0
 25 24  2  0  0  0  0
 25 27  1  0  0  0  0
 27 26  1  0  0  0  0
M  END
>  <MODEL>
1

>  <REMARK>
 VINA RESULT:      -7.3      0.000      0.000
  Name = 
  5 active torsions:
  status: ('A' for Active; 'I' for Inactive)
    1  A    between atoms: C_2  and  C_6
    2  A    between atoms: C_6  and  C_17
    3  A    between atoms: C_9  and  C_15
    4  A    between atoms: C_14  and  N_19
    5  A    between atoms: O_16  and  C_17
                            x       y       z     vdW  Elec       q    Type
                         _______ _______ _______ _____ _____    ______ ____

>  <TORSDO>
F 5

$$$$
=
 OpenBabel11052413523D

 27 30  0  0  1  0  0  0  0  0999 V2000
  182.8120  180.0360  139.3730 C   0  0  0  0  0  2  0  0  0  0  0  0
  182.0700  177.6040  139.3990 C   0  0  2  0  0  3  0  0  0  0  0  0
  180.4300  178.6900  137.9240 C   0  0  0  0  0  2  0  0  0  0  0  0
  180.1960  182.2930  136.8160 C   0  0  0  0  0  3  0  0  0  0  0  0
  181.2260  182.9090  137.5240 C   0  0  0  0  0  0  0  0  0  0  0  0
  182.1660  178.9320  140.1980 C   0  0  1  0  0  3  0  0  0  0  0  0
  181.8310  180.7780  138.5200 C   0  0  0  0  0  0  0  0  0  0  0  0
  181.5620  177.7500  138.0240 N   0  0  1  0  0  0  0  0  0  0  0  0
  179.9820  180.9200  136.9510 C   0  0  0  0  0  3  0  0  0  0  0  0
  181.5010  184.6290  137.3530 Cl  0  0  0  0  0  0  0  0  0  0  0  0
  182.0430  182.1530  138.3660 C   0  0  0  0  0  3  0  0  0  0  0  0
  180.7980  180.1470  137.7830 C   0  0  0  0  0  0  0  0  0  0  0  0
  183.0460  178.7930  143.9020 C   0  0  0  0  0  3  0  0  0  0  0  0
  182.9310  178.7720  141.4760 C   0  0  0  0  0  0  0  0  0  0  0  0
  184.2800  178.4060  141.4210 C   0  0  0  0  0  3  0  0  0  0  0  0
  185.0120  178.2410  142.6000 C   0  0  0  0  0  3  0  0  0  0  0  0
  184.3960  178.4360  143.8400 C   0  0  0  0  0  3  0  0  0  0  0  0
  182.3130  178.9600  142.7230 C   0  0  0  0  0  3  0  0  0  0  0  0
  183.8080  177.0980  137.3390 C   0  0  0  0  0  2  0  0  0  0  0  0
  182.8700  176.8290  136.1840 C   0  0  0  0  0  2  0  0  0  0  0  0
  182.6430  178.0350  137.0790 C   0  0  0  0  0  3  0  0  0  0  0  0
  181.2840  176.4870  140.1070 C   0  0  2  0  0  3  0  0  0  0  0  0
  181.4210  175.1220  139.4410 C   0  0  0  0  0  1  0  0  0  0  0  0
  178.9310  176.4610  139.6410 O   0  0  0  0  0  0  0  0  0  0  0  0
  179.8550  176.8610  140.3970 C   0  0  0  0  0  0  0  0  0  0  0  0
  178.9500  178.9590  141.3330 C   0  0  0  0  0  1  0  0  0  0  0  0
  179.5270  177.6710  141.4870 O   0  0  0  0  0  0  0  0  0  0  0  0
  1  6  1  0  0  0  0
  2 22  1  1  0  0  0
  2  6  1  0  0  0  0
  3  8  1  0  0  0  0
  4  9  2  0  0  0  0
  4  5  1  0  0  0  0
  5 11  2  0  0  0  0
  6 14  1  1  0  0  0
  7  1  1  0  0  0  0
  8 21  1  6  0  0  0
  8  2  1  0  0  0  0
  9 12  1  0  0  0  0
 10  5  1  0  0  0  0
 11  7  1  0  0  0  0
 12  3  1  0  0  0  0
 12  7  2  0  0  0  0
 14 18  1  0  0  0  0
 15 14  2  0  0  0  0
 15 16  1  0  0  0  0
 16 17  2  0  0  0  0
 17 13  1  0  0  0  0
 18 13  2  0  0  0  0
 20 21  1  0  0  0  0
 20 19  1  0  0  0  0
 21 19  1  0  0  0  0
 22 23  1  6  0  0  0
 22 25  1  0  0  0  0
 24 25  2  0  0  0  0
 25 27  1  0  0  0  0
 26 27  1  0  0  0  0
M  END
>  <MODEL>
2

>  <REMARK>
 VINA RESULT:      -6.6      6.047      8.734
  Name = 
  5 active torsions:
  status: ('A' for Active; 'I' for Inactive)
    1  A    between atoms: C_2  and  C_6
    2  A    between atoms: C_6  and  C_17
    3  A    between atoms: C_9  and  C_15
    4  A    between atoms: C_14  and  N_19
    5  A    between atoms: O_16  and  C_17
                            x       y       z     vdW  Elec       q    Type
                         _______ _______ _______ _____ _____    ______ ____

>  <TORSDO>
F 5

$$$$
=
 OpenBabel11052413523D

 27 30  0  0  1  0  0  0  0  0999 V2000
  183.5590  178.2120  140.1220 C   0  0  0  0  0  2  0  0  0  0  0  0
  181.3690  178.0920  138.8370 C   0  0  2  0  0  3  0  0  0  0  0  0
  180.6550  178.5010  141.1540 C   0  0  0  0  0  2  0  0  0  0  0  0
  182.7340  178.9880  144.2690 C   0  0  0  0  0  3  0  0  0  0  0  0
  184.0370  178.7880  143.8140 C   0  0  0  0  0  0  0  0  0  0  0  0
  182.5810  177.3000  139.3960 C   0  0  1  0  0  3  0  0  0  0  0  0
  183.2050  178.4210  141.5620 C   0  0  0  0  0  0  0  0  0  0  0  0
  180.7660  179.0430  139.7870 N   0  0  1  0  0  0  0  0  0  0  0  0
  181.6650  178.9120  143.3750 C   0  0  0  0  0  3  0  0  0  0  0  0
  185.3800  178.8900  144.9310 Cl  0  0  0  0  0  0  0  0  0  0  0  0
  184.2690  178.5130  142.4650 C   0  0  0  0  0  3  0  0  0  0  0  0
  181.8830  178.6470  142.0190 C   0  0  0  0  0  0  0  0  0  0  0  0
  184.0360  174.4820  137.2860 C   0  0  0  0  0  3  0  0  0  0  0  0
  183.3170  176.5560  138.3240 C   0  0  0  0  0  0  0  0  0  0  0  0
  183.9600  177.2780  137.3130 C   0  0  0  0  0  3  0  0  0  0  0  0
  184.6450  176.6060  136.2960 C   0  0  0  0  0  3  0  0  0  0  0  0
  184.6840  175.2090  136.2840 C   0  0  0  0  0  3  0  0  0  0  0  0
  183.3520  175.1520  138.3040 C   0  0  0  0  0  3  0  0  0  0  0  0
  181.5750  180.7800  138.2810 C   0  0  0  0  0  2  0  0  0  0  0  0
  180.4730  181.3720  139.1280 C   0  0  0  0  0  2  0  0  0  0  0  0
  181.4220  180.3500  139.7280 C   0  0  0  0  0  3  0  0  0  0  0  0
  180.2570  177.2170  138.2310 C   0  0  2  0  0  3  0  0  0  0  0  0
  180.0100  175.9210  138.9960 C   0  0  0  0  0  1  0  0  0  0  0  0
  180.4800  177.9980  135.9740 O   0  0  0  0  0  0  0  0  0  0  0  0
  180.4100  177.0070  136.7490 C   0  0  0  0  0  0  0  0  0  0  0  0
  181.1680  175.4250  135.0110 C   0  0  0  0  0  1  0  0  0  0  0  0
  180.4550  175.7220  136.2020 O   0  0  0  0  0  0  0  0  0  0  0  0
  1  7  1  0  0  0  0
  2 22  1  1  0  0  0
  2  6  1  0  0  0  0
  2  8  1  0  0  0  0
  3 12  1  0  0  0  0
  5  4  1  0  0  0  0
  5 10  1  0  0  0  0
  6 14  1  6  0  0  0
  6  1  1  0  0  0  0
  7 12  2  0  0  0  0
  7 11  1  0  0  0  0
  8 21  1  1  0  0  0
  8  3  1  0  0  0  0
  9  4  2  0  0  0  0
 11  5  2  0  0  0  0
 12  9  1  0  0  0  0
 13 18  1  0  0  0  0
 15 14  1  0  0  0  0
 16 15  2  0  0  0  0
 17 16  1  0  0  0  0
 17 13  2  0  0  0  0
 18 14  2  0  0  0  0
 19 20  1  0  0  0  0
 19 21  1  0  0  0  0
 20 21  1  0  0  0  0
 22 23  1  1  0  0  0
 24 25  2  0  0  0  0
 25 22  1  0  0  0  0
 26 27  1  0  0  0  0
 27 25  1  0  0  0  0
M  END
>  <MODEL>
3

>  <REMARK>
 VINA RESULT:      -6.5      6.399      9.547
  Name = 
  5 active torsions:
  status: ('A' for Active; 'I' for Inactive)
    1  A    between atoms: C_2  and  C_6
    2  A    between atoms: C_6  and  C_17
    3  A    between atoms: C_9  and  C_15
    4  A    between atoms: C_14  and  N_19
    5  A    between atoms: O_16  and  C_17
                            x       y       z     vdW  Elec       q    Type
                         _______ _______ _______ _____ _____    ______ ____

>  <TORSDO>
F 5

$$$$
=
 OpenBabel11052413523D

 27 30  0  0  1  0  0  0  0  0999 V2000
  188.3040  178.4590  142.8300 C   0  0  0  0  0  2  0  0  0  0  0  0
  189.7520  177.5450  144.7090 C   0  0  2  0  0  3  0  0  0  0  0  0
  190.7070  176.5130  142.6920 C   0  0  0  0  0  2  0  0  0  0  0  0
  189.7100  176.9150  139.0720 C   0  0  0  0  0  3  0  0  0  0  0  0
  188.5850  177.7360  139.1430 C   0  0  0  0  0  0  0  0  0  0  0  0
  188.3630  177.5080  144.0160 C   0  0  1  0  0  3  0  0  0  0  0  0
  188.8010  177.8400  141.5600 C   0  0  0  0  0  0  0  0  0  0  0  0
  190.8990  177.4820  143.7860 N   0  0  1  0  0  0  0  0  0  0  0  0
  190.3870  176.5590  140.2390 C   0  0  0  0  0  3  0  0  0  0  0  0
  187.7370  178.1900  137.6810 Cl  0  0  0  0  0  0  0  0  0  0  0  0
  188.1380  178.2000  140.3820 C   0  0  0  0  0  3  0  0  0  0  0  0
  189.9570  177.0250  141.4860 C   0  0  0  0  0  0  0  0  0  0  0  0
  186.4510  178.6700  147.1000 C   0  0  0  0  0  3  0  0  0  0  0  0
  187.2490  177.8430  144.9610 C   0  0  0  0  0  0  0  0  0  0  0  0
  185.9250  177.6610  144.5440 C   0  0  0  0  0  3  0  0  0  0  0  0
  184.8690  177.9750  145.4040 C   0  0  0  0  0  3  0  0  0  0  0  0
  185.1310  178.4780  146.6820 C   0  0  0  0  0  3  0  0  0  0  0  0
  187.5090  178.3550  146.2420 C   0  0  0  0  0  3  0  0  0  0  0  0
  190.9900  179.8380  144.4040 C   0  0  0  0  0  2  0  0  0  0  0  0
  192.4070  179.3520  144.2020 C   0  0  0  0  0  2  0  0  0  0  0  0
  191.2910  178.8150  143.3250 C   0  0  0  0  0  3  0  0  0  0  0  0
  189.9430  176.4940  145.8170 C   0  0  2  0  0  3  0  0  0  0  0  0
  189.1870  176.8130  147.1020 C   0  0  0  0  0  1  0  0  0  0  0  0
  191.9730  175.3330  145.2850 O   0  0  0  0  0  0  0  0  0  0  0  0
  191.3860  176.1390  146.0540 C   0  0  0  0  0  0  0  0  0  0  0  0
  192.6820  175.8590  148.1370 C   0  0  0  0  0  1  0  0  0  0  0  0
  192.0930  176.6730  147.1350 O   0  0  0  0  0  0  0  0  0  0  0  0
  1  6  1  0  0  0  0
  2 22  1  1  0  0  0
  3  8  1  0  0  0  0
  4  5  2  0  0  0  0
  4  9  1  0  0  0  0
  5 11  1  0  0  0  0
  6  2  1  0  0  0  0
  6 14  1  1  0  0  0
  7  1  1  0  0  0  0
  8 21  1  6  0  0  0
  8  2  1  0  0  0  0
  9 12  2  0  0  0  0
 10  5  1  0  0  0  0
 11  7  2  0  0  0  0
 12  7  1  0  0  0  0
 12  3  1  0  0  0  0
 14 18  1  0  0  0  0
 15 14  2  0  0  0  0
 15 16  1  0  0  0  0
 16 17  2  0  0  0  0
 17 13  1  0  0  0  0
 18 13  2  0  0  0  0
 20 19  1  0  0  0  0
 21 20  1  0  0  0  0
 21 19  1  0  0  0  0
 22 25  1  0  0  0  0
 22 23  1  1  0  0  0
 24 25  2  0  0  0  0
 25 27  1  0  0  0  0
 27 26  1  0  0  0  0
M  END
>  <MODEL>
4

>  <REMARK>
 VINA RESULT:      -6.4      1.724      2.284
  Name = 
  5 active torsions:
  status: ('A' for Active; 'I' for Inactive)
    1  A    between atoms: C_2  and  C_6
    2  A    between atoms: C_6  and  C_17
    3  A    between atoms: C_9  and  C_15
    4  A    between atoms: C_14  and  N_19
    5  A    between atoms: O_16  and  C_17
                            x       y       z     vdW  Elec       q    Type
                         _______ _______ _______ _____ _____    ______ ____

>  <TORSDO>
F 5

$$$$
=
 OpenBabel11052413523D

 27 30  0  0  1  0  0  0  0  0999 V2000
  182.0160  180.3470  138.8530 C   0  0  0  0  0  2  0  0  0  0  0  0
  181.0810  177.9840  138.7690 C   0  0  2  0  0  3  0  0  0  0  0  0
  179.6290  179.2320  137.2270 C   0  0  0  0  0  2  0  0  0  0  0  0
  179.7540  182.8650  136.2030 C   0  0  0  0  0  3  0  0  0  0  0  0
  180.7840  183.3800  136.9890 C   0  0  0  0  0  0  0  0  0  0  0  0
  181.2330  179.2820  139.6070 C   0  0  1  0  0  3  0  0  0  0  0  0
  181.1520  181.1850  137.9620 C   0  0  0  0  0  0  0  0  0  0  0  0
  180.6730  178.2010  137.3700 N   0  0  1  0  0  0  0  0  0  0  0  0
  179.4220  181.5120  136.2880 C   0  0  0  0  0  3  0  0  0  0  0  0
  181.2060  185.0740  136.8810 Cl  0  0  0  0  0  0  0  0  0  0  0  0
  181.4830  182.5410  137.8590 C   0  0  0  0  0  3  0  0  0  0  0  0
  180.1210  180.6570  137.1470 C   0  0  0  0  0  0  0  0  0  0  0  0
  183.8330  178.3690  142.2370 C   0  0  0  0  0  3  0  0  0  0  0  0
  181.9000  179.0320  140.9250 C   0  0  0  0  0  0  0  0  0  0  0  0
  181.1900  179.2750  142.1060 C   0  0  0  0  0  3  0  0  0  0  0  0
  181.7940  179.0590  143.3470 C   0  0  0  0  0  3  0  0  0  0  0  0
  183.1150  178.6040  143.4130 C   0  0  0  0  0  3  0  0  0  0  0  0
  183.2290  178.5830  140.9950 C   0  0  0  0  0  3  0  0  0  0  0  0
  182.8900  177.3690  136.7910 C   0  0  0  0  0  2  0  0  0  0  0  0
  182.0040  177.2260  135.5750 C   0  0  0  0  0  2  0  0  0  0  0  0
  181.8310  178.4170  136.5010 C   0  0  0  0  0  3  0  0  0  0  0  0
  180.1650  176.9190  139.3980 C   0  0  2  0  0  3  0  0  0  0  0  0
  179.2150  177.4730  140.4550 C   0  0  0  0  0  1  0  0  0  0  0  0
  182.1620  175.6400  139.7540 O   0  0  0  0  0  0  0  0  0  0  0  0
  180.9080  175.6940  139.8570 C   0  0  0  0  0  0  0  0  0  0  0  0
  179.3470  173.7980  139.6030 C   0  0  0  0  0  1  0  0  0  0  0  0
  180.2290  174.5920  140.3820 O   0  0  0  0  0  0  0  0  0  0  0  0
  1  6  1  0  0  0  0
  2 22  1  1  0  0  0
  2  6  1  0  0  0  0
  3  8  1  0  0  0  0
  4  9  2  0  0  0  0
  4  5  1  0  0  0  0
  5 11  2  0  0  0  0
  6 14  1  1  0  0  0
  7  1  1  0  0  0  0
  8 21  1  6  0  0  0
  8  2  1  0  0  0  0
  9 12  1  0  0  0  0
 10  5  1  0  0  0  0
 11  7  1  0  0  0  0
 12  3  1  0  0  0  0
 12  7  2  0  0  0  0
 13 17  1  0  0  0  0
 14 18  1  0  0  0  0
 14 15  2  0  0  0  0
 15 16  1  0  0  0  0
 16 17  2  0  0  0  0
 18 13  2  0  0  0  0
 20 21  1  0  0  0  0
 20 19  1  0  0  0  0
 21 19  1  0  0  0  0
 22 25  1  0  0  0  0
 22 23  1  1  0  0  0
 24 25  2  0  0  0  0
 25 27  1  0  0  0  0
 26 27  1  0  0  0  0
M  END
>  <MODEL>
5

>  <REMARK>
 VINA RESULT:      -6.3      6.616      9.401
  Name = 
  5 active torsions:
  status: ('A' for Active; 'I' for Inactive)
    1  A    between atoms: C_2  and  C_6
    2  A    between atoms: C_6  and  C_17
    3  A    between atoms: C_9  and  C_15
    4  A    between atoms: C_14  and  N_19
    5  A    between atoms: O_16  and  C_17
                            x       y       z     vdW  Elec       q    Type
                         _______ _______ _______ _____ _____    ______ ____

>  <TORSDO>
F 5

$$$$
=
 OpenBabel11052413523D

 27 30  0  0  1  0  0  0  0  0999 V2000
  183.8170  178.8460  140.1980 C   0  0  0  0  0  2  0  0  0  0  0  0
  182.1290  178.6400  138.3080 C   0  0  2  0  0  3  0  0  0  0  0  0
  180.7430  178.5080  140.3350 C   0  0  0  0  0  2  0  0  0  0  0  0
  181.7550  178.7190  143.9680 C   0  0  0  0  0  3  0  0  0  0  0  0
  183.1460  178.8010  143.9040 C   0  0  0  0  0  0  0  0  0  0  0  0
  183.2720  177.9470  139.0980 C   0  0  1  0  0  3  0  0  0  0  0  0
  183.0500  178.7330  141.4790 C   0  0  0  0  0  0  0  0  0  0  0  0
  181.1150  179.3010  139.1500 N   0  0  1  0  0  0  0  0  0  0  0  0
  181.0070  178.6500  142.7910 C   0  0  0  0  0  3  0  0  0  0  0  0
  184.0860  178.8940  145.3770 Cl  0  0  0  0  0  0  0  0  0  0  0  0
  183.7870  178.8140  142.6650 C   0  0  0  0  0  3  0  0  0  0  0  0
  181.6350  178.6730  141.5420 C   0  0  0  0  0  0  0  0  0  0  0  0
  185.3430  176.0770  136.5040 C   0  0  0  0  0  3  0  0  0  0  0  0
  184.4030  177.5290  138.2090 C   0  0  0  0  0  0  0  0  0  0  0  0
  185.5990  178.2550  138.2410 C   0  0  0  0  0  3  0  0  0  0  0  0
  186.6650  177.8900  137.4140 C   0  0  0  0  0  3  0  0  0  0  0  0
  186.5380  176.8010  136.5470 C   0  0  0  0  0  3  0  0  0  0  0  0
  184.2760  176.4400  137.3320 C   0  0  0  0  0  3  0  0  0  0  0  0
  181.5500  181.4980  138.1880 C   0  0  0  0  0  2  0  0  0  0  0  0
  180.3560  181.6170  139.1060 C   0  0  0  0  0  2  0  0  0  0  0  0
  181.4950  180.6790  139.4640 C   0  0  0  0  0  3  0  0  0  0  0  0
  181.4180  177.7360  137.2860 C   0  0  2  0  0  3  0  0  0  0  0  0
  180.7190  178.5030  136.1690 C   0  0  0  0  0  1  0  0  0  0  0  0
  179.2850  176.7820  137.8310 O   0  0  0  0  0  0  0  0  0  0  0  0
  180.5380  176.6960  137.9260 C   0  0  0  0  0  0  0  0  0  0  0  0
  180.3310  174.8840  139.5910 C   0  0  0  0  0  1  0  0  0  0  0  0
  181.0860  175.6350  138.6520 O   0  0  0  0  0  0  0  0  0  0  0  0
  1  7  1  0  0  0  0
  2 22  1  1  0  0  0
  2  6  1  0  0  0  0
  2  8  1  0  0  0  0
  3 12  1  0  0  0  0
  5  4  1  0  0  0  0
  5 10  1  0  0  0  0
  6 14  1  6  0  0  0
  6  1  1  0  0  0  0
  7 12  2  0  0  0  0
  7 11  1  0  0  0  0
  8 21  1  1  0  0  0
  8  3  1  0  0  0  0
  9  4  2  0  0  0  0
 11  5  2  0  0  0  0
 12  9  1  0  0  0  0
 13 17  2  0  0  0  0
 13 18  1  0  0  0  0
 14 15  1  0  0  0  0
 16 15  2  0  0  0  0
 17 16  1  0  0  0  0
 18 14  2  0  0  0  0
 19 20  1  0  0  0  0
 19 21  1  0  0  0  0
 20 21  1  0  0  0  0
 22 23  1  6  0  0  0
 22 25  1  0  0  0  0
 24 25  2  0  0  0  0
 25 27  1  0  0  0  0
 27 26  1  0  0  0  0
M  END
>  <MODEL>
6

>  <REMARK>
 VINA RESULT:      -6.1      5.993      9.309
  Name = 
  5 active torsions:
  status: ('A' for Active; 'I' for Inactive)
    1  A    between atoms: C_2  and  C_6
    2  A    between atoms: C_6  and  C_17
    3  A    between atoms: C_9  and  C_15
    4  A    between atoms: C_14  and  N_19
    5  A    between atoms: O_16  and  C_17
                            x       y       z     vdW  Elec       q    Type
                         _______ _______ _______ _____ _____    ______ ____

>  <TORSDO>
F 5

$$$$
=
 OpenBabel11052413523D

 27 30  0  0  1  0  0  0  0  0999 V2000
  191.6830  177.1120  139.1930 C   0  0  0  0  0  2  0  0  0  0  0  0
  190.0950  176.2240  137.4160 C   0  0  2  0  0  3  0  0  0  0  0  0
  188.6820  176.3880  139.4210 C   0  0  0  0  0  2  0  0  0  0  0  0
  189.5460  177.6030  142.8910 C   0  0  0  0  0  3  0  0  0  0  0  0
  190.9140  177.8620  142.8040 C   0  0  0  0  0  0  0  0  0  0  0  0
  191.2990  175.9090  138.3450 C   0  0  1  0  0  3  0  0  0  0  0  0
  190.9000  177.2020  140.4670 C   0  0  0  0  0  0  0  0  0  0  0  0
  188.9760  176.9190  138.0780 N   0  0  1  0  0  0  0  0  0  0  0  0
  188.8500  177.1500  141.7700 C   0  0  0  0  0  3  0  0  0  0  0  0
  191.7880  178.4360  144.2070 Cl  0  0  0  0  0  0  0  0  0  0  0  0
  191.5840  177.6680  141.5950 C   0  0  0  0  0  3  0  0  0  0  0  0
  189.5060  176.9610  140.5490 C   0  0  0  0  0  0  0  0  0  0  0  0
  194.0330  173.7080  136.8620 C   0  0  0  0  0  3  0  0  0  0  0  0
  192.5030  175.4530  137.5780 C   0  0  0  0  0  0  0  0  0  0  0  0
  193.2160  176.3840  136.8140 C   0  0  0  0  0  3  0  0  0  0  0  0
  194.3360  175.9810  136.0820 C   0  0  0  0  0  3  0  0  0  0  0  0
  194.7460  174.6440  136.1070 C   0  0  0  0  0  3  0  0  0  0  0  0
  192.9130  174.1100  137.5950 C   0  0  0  0  0  3  0  0  0  0  0  0
  189.4280  178.8240  136.6270 C   0  0  0  0  0  2  0  0  0  0  0  0
  188.0490  179.0040  137.2200 C   0  0  0  0  0  2  0  0  0  0  0  0
  189.1530  178.3710  138.0490 C   0  0  0  0  0  3  0  0  0  0  0  0
  189.5460  175.0110  136.6450 C   0  0  2  0  0  3  0  0  0  0  0  0
  190.2350  174.7720  135.3060 C   0  0  0  0  0  1  0  0  0  0  0  0
  187.3720  174.1760  137.2160 O   0  0  0  0  0  0  0  0  0  0  0  0
  188.0450  175.0030  136.5470 C   0  0  0  0  0  0  0  0  0  0  0  0
  186.0020  176.2170  135.8760 C   0  0  0  0  0  1  0  0  0  0  0  0
  187.3710  175.8880  135.7010 O   0  0  0  0  0  0  0  0  0  0  0  0
  1  7  1  0  0  0  0
  2 22  1  1  0  0  0
  2  8  1  0  0  0  0
  2  6  1  0  0  0  0
  3 12  1  0  0  0  0
  5  4  1  0  0  0  0
  5 10  1  0  0  0  0
  6 14  1  6  0  0  0
  6  1  1  0  0  0  0
  7 12  2  0  0  0  0
  7 11  1  0  0  0  0
  8 21  1  1  0  0  0
  8  3  1  0  0  0  0
  9  4  2  0  0  0  0
 11  5  2  0  0  0  0
 12  9  1  0  0  0  0
 13 18  1  0  0  0  0
 14 18  2  0  0  0  0
 15 14  1  0  0  0  0
 16 17  1  0  0  0  0
 16 15  2  0  0  0  0
 17 13  2  0  0  0  0
 19 20  1  0  0  0  0
 19 21  1  0  0  0  0
 20 21  1  0  0  0  0
 22 23  1  6  0  0  0
 25 22  1  0  0  0  0
 25 24  2  0  0  0  0
 27 26  1  0  0  0  0
 27 25  1  0  0  0  0
M  END
>  <MODEL>
7

>  <REMARK>
 VINA RESULT:      -5.9      4.488      8.540
  Name = 
  5 active torsions:
  status: ('A' for Active; 'I' for Inactive)
    1  A    between atoms: C_2  and  C_6
    2  A    between atoms: C_6  and  C_17
    3  A    between atoms: C_9  and  C_15
    4  A    between atoms: C_14  and  N_19
    5  A    between atoms: O_16  and  C_17
                            x       y       z     vdW  Elec       q    Type
                         _______ _______ _______ _____ _____    ______ ____

>  <TORSDO>
F 5

$$$$
=
 OpenBabel11052413523D

 27 30  0  0  1  0  0  0  0  0999 V2000
  183.2100  177.1580  139.7840 C   0  0  0  0  0  2  0  0  0  0  0  0
  181.0080  178.1710  140.5490 C   0  0  2  0  0  3  0  0  0  0  0  0
  180.8730  178.2860  138.0970 C   0  0  0  0  0  2  0  0  0  0  0  0
  183.3410  177.1200  135.4870 C   0  0  0  0  0  3  0  0  0  0  0  0
  184.4210  176.6760  136.2490 C   0  0  0  0  0  0  0  0  0  0  0  0
  182.5440  178.3630  140.4300 C   0  0  1  0  0  3  0  0  0  0  0  0
  183.2230  177.2290  138.2880 C   0  0  0  0  0  0  0  0  0  0  0  0
  180.3570  177.6630  139.3290 N   0  0  1  0  0  0  0  0  0  0  0  0
  182.1980  177.6120  136.1190 C   0  0  0  0  0  3  0  0  0  0  0  0
  185.8530  176.0520  135.4600 Cl  0  0  0  0  0  0  0  0  0  0  0  0
  184.3580  176.7260  137.6420 C   0  0  0  0  0  3  0  0  0  0  0  0
  182.1160  177.6580  137.5150 C   0  0  0  0  0  0  0  0  0  0  0  0
  183.0560  178.9100  144.1650 C   0  0  0  0  0  3  0  0  0  0  0  0
  183.1890  178.6190  141.7570 C   0  0  0  0  0  0  0  0  0  0  0  0
  184.5780  178.7760  141.8210 C   0  0  0  0  0  3  0  0  0  0  0  0
  185.2040  179.0060  143.0500 C   0  0  0  0  0  3  0  0  0  0  0  0
  184.4430  179.0750  144.2210 C   0  0  0  0  0  3  0  0  0  0  0  0
  182.4290  178.6820  142.9370 C   0  0  0  0  0  3  0  0  0  0  0  0
  179.6970  175.6530  140.5400 C   0  0  0  0  0  2  0  0  0  0  0  0
  178.9310  175.6870  139.2380 C   0  0  0  0  0  2  0  0  0  0  0  0
  180.3590  176.2000  139.2880 C   0  0  0  0  0  3  0  0  0  0  0  0
  180.2440  179.4120  141.0440 C   0  0  2  0  0  3  0  0  0  0  0  0
  178.9470  179.0840  141.7750 C   0  0  0  0  0  1  0  0  0  0  0  0
  178.9320  180.6950  139.4990 O   0  0  0  0  0  0  0  0  0  0  0  0
  180.0720  180.4640  139.9820 C   0  0  0  0  0  0  0  0  0  0  0  0
  181.0990  181.9650  138.3120 C   0  0  0  0  0  1  0  0  0  0  0  0
  181.1660  181.1850  139.4950 O   0  0  0  0  0  0  0  0  0  0  0  0
  1  6  1  0  0  0  0
  2 22  1  6  0  0  0
  3  8  1  0  0  0  0
  4  9  2  0  0  0  0
  4  5  1  0  0  0  0
  5 11  2  0  0  0  0
  6  2  1  0  0  0  0
  6 14  1  1  0  0  0
  7  1  1  0  0  0  0
  8 21  1  6  0  0  0
  8  2  1  0  0  0  0
  9 12  1  0  0  0  0
 10  5  1  0  0  0  0
 11  7  1  0  0  0  0
 12  3  1  0  0  0  0
 12  7  2  0  0  0  0
 13 17  1  0  0  0  0
 14 15  2  0  0  0  0
 14 18  1  0  0  0  0
 15 16  1  0  0  0  0
 16 17  2  0  0  0  0
 18 13  2  0  0  0  0
 20 21  1  0  0  0  0
 20 19  1  0  0  0  0
 21 19  1  0  0  0  0
 22 23  1  6  0  0  0
 24 25  2  0  0  0  0
 25 22  1  0  0  0  0
 26 27  1  0  0  0  0
 27 25  1  0  0  0  0
M  END
>  <MODEL>
8

>  <REMARK>
 VINA RESULT:      -5.9      5.616      8.427
  Name = 
  5 active torsions:
  status: ('A' for Active; 'I' for Inactive)
    1  A    between atoms: C_2  and  C_6
    2  A    between atoms: C_6  and  C_17
    3  A    between atoms: C_9  and  C_15
    4  A    between atoms: C_14  and  N_19
    5  A    between atoms: O_16  and  C_17
                            x       y       z     vdW  Elec       q    Type
                         _______ _______ _______ _____ _____    ______ ____

>  <TORSDO>
F 5

$$$$
=
 OpenBabel11052413523D

 27 30  0  0  1  0  0  0  0  0999 V2000
  191.2760  175.3130  138.2330 C   0  0  0  0  0  2  0  0  0  0  0  0
  189.1890  176.5850  137.5330 C   0  0  2  0  0  3  0  0  0  0  0  0
  190.4930  176.4300  135.4540 C   0  0  0  0  0  2  0  0  0  0  0  0
  193.8260  174.7730  134.8140 C   0  0  0  0  0  3  0  0  0  0  0  0
  194.2080  174.3320  136.0800 C   0  0  0  0  0  0  0  0  0  0  0  0
  190.5290  176.6350  138.3170 C   0  0  1  0  0  3  0  0  0  0  0  0
  192.1480  175.2110  137.0200 C   0  0  0  0  0  0  0  0  0  0  0  0
  189.2890  175.9960  136.1860 N   0  0  1  0  0  0  0  0  0  0  0  0
  192.6050  175.4270  134.6430 C   0  0  0  0  0  3  0  0  0  0  0  0
  195.7360  173.5060  136.2970 Cl  0  0  0  0  0  0  0  0  0  0  0  0
  193.3690  174.5460  137.1750 C   0  0  0  0  0  3  0  0  0  0  0  0
  191.7490  175.6390  135.7290 C   0  0  0  0  0  0  0  0  0  0  0  0
  188.9340  177.1140  141.7440 C   0  0  0  0  0  3  0  0  0  0  0  0
  190.3290  176.9880  139.7590 C   0  0  0  0  0  0  0  0  0  0  0  0
  191.4050  177.5040  140.4900 C   0  0  0  0  0  3  0  0  0  0  0  0
  191.2460  177.8310  141.8390 C   0  0  0  0  0  3  0  0  0  0  0  0
  190.0110  177.6380  142.4660 C   0  0  0  0  0  3  0  0  0  0  0  0
  189.0920  176.7880  140.3930 C   0  0  0  0  0  3  0  0  0  0  0  0
  187.7880  174.2000  136.8640 C   0  0  0  0  0  2  0  0  0  0  0  0
  187.9320  174.1450  135.3610 C   0  0  0  0  0  2  0  0  0  0  0  0
  189.1190  174.5430  136.2210 C   0  0  0  0  0  3  0  0  0  0  0  0
  188.4530  177.9330  137.4360 C   0  0  2  0  0  3  0  0  0  0  0  0
  189.2690  179.1160  137.9470 C   0  0  0  0  0  1  0  0  0  0  0  0
  186.7480  178.6280  138.9720 O   0  0  0  0  0  0  0  0  0  0  0  0
  187.0600  177.8890  138.0010 C   0  0  0  0  0  0  0  0  0  0  0  0
  185.6070  177.1290  136.1550 C   0  0  0  0  0  1  0  0  0  0  0  0
  186.0970  177.0200  137.4820 O   0  0  0  0  0  0  0  0  0  0  0  0
  1  6  1  0  0  0  0
  2 22  1  6  0  0  0
  2  6  1  0  0  0  0
  3 12  1  0  0  0  0
  3  8  1  0  0  0  0
  4  5  1  0  0  0  0
  5 10  1  0  0  0  0
  5 11  2  0  0  0  0
  6 14  1  1  0  0  0
  7 11  1  0  0  0  0
  7  1  1  0  0  0  0
  8 21  1  1  0  0  0
  8  2  1  0  0  0  0
  9  4  2  0  0  0  0
  9 12  1  0  0  0  0
 12  7  2  0  0  0  0
 13 17  1  0  0  0  0
 14 18  1  0  0  0  0
 14 15  2  0  0  0  0
 15 16  1  0  0  0  0
 16 17  2  0  0  0  0
 18 13  2  0  0  0  0
 20 21  1  0  0  0  0
 20 19  1  0  0  0  0
 21 19  1  0  0  0  0
 22 23  1  1  0  0  0
 22 25  1  0  0  0  0
 25 24  2  0  0  0  0
 26 27  1  0  0  0  0
 27 25  1  0  0  0  0
M  END
>  <MODEL>
9

>  <REMARK>
 VINA RESULT:      -5.7      4.412      7.480
  Name = 
  5 active torsions:
  status: ('A' for Active; 'I' for Inactive)
    1  A    between atoms: C_2  and  C_6
    2  A    between atoms: C_6  and  C_17
    3  A    between atoms: C_9  and  C_15
    4  A    between atoms: C_14  and  N_19
    5  A    between atoms: O_16  and  C_17
                            x       y       z     vdW  Elec       q    Type
                         _______ _______ _______ _____ _____    ______ ____

>  <TORSDO>
F 5

$$$$
