=
 OpenBabel11052412443D

 25 28  0  0  1  0  0  0  0  0999 V2000
  187.0840  177.1160  144.1830 C   0  0  1  0  0  3  0  0  0  0  0  0
  188.1200  177.8740  143.3500 C   0  0  2  0  0  3  0  0  0  0  0  0
  189.9330  177.3480  146.6110 C   0  0  0  0  0  1  0  0  0  0  0  0
  189.0190  177.4370  145.4380 C   0  0  0  0  0  0  0  0  0  0  0  0
  190.6330  178.4120  143.6730 C   0  0  1  0  0  3  0  0  0  0  0  0
  191.8370  178.2190  144.5790 C   0  0  0  0  0  1  0  0  0  0  0  0
  188.4630  177.1280  142.0660 C   0  0  0  0  0  2  0  0  0  0  0  0
  187.6820  176.9730  145.5040 N   0  0  0  0  0  2  0  0  0  0  0  0
  190.9040  177.7220  142.3340 C   0  0  0  0  0  2  0  0  0  0  0  0
  189.6800  177.7800  141.3980 C   0  0  1  0  0  3  0  0  0  0  0  0
  189.3200  177.9120  144.2330 C   0  0  0  0  0  0  0  0  0  0  0  0
  185.7920  177.8720  144.2590 C   0  0  0  0  0  0  0  0  0  0  0  0
  183.3900  179.3140  144.3810 C   0  0  0  0  0  3  0  0  0  0  0  0
  185.0720  178.1460  143.0850 C   0  0  0  0  0  0  0  0  0  0  0  0
  183.8740  178.8650  143.1500 C   0  0  0  0  0  3  0  0  0  0  0  0
  184.1040  179.0490  145.5530 C   0  0  0  0  0  3  0  0  0  0  0  0
  185.5290  177.7220  141.8820 F   0  0  0  0  0  0  0  0  0  0  0  0
  185.3020  178.3320  145.4920 C   0  0  0  0  0  3  0  0  0  0  0  0
  189.9290  177.1610  140.0130 C   0  0  1  0  0  0  0  0  0  0  0  0
  191.2980  177.1000  139.4540 C   0  0  0  0  0  2  0  0  0  0  0  0
  190.6930  175.9830  140.0750 O   0  0  0  0  0  0  0  0  0  0  0  0
  188.7810  177.0300  139.0230 C   0  0  0  0  0  2  0  0  0  0  0  0
  186.9860  178.5960  139.0810 O   0  0  0  0  0  1  0  0  0  0  0  0
  188.9310  179.3550  138.1330 O   0  0  0  0  0  0  0  0  0  0  0  0
  188.1740  178.3610  138.7390 C   0  0  0  0  0  0  0  0  0  0  0  0
  1 12  1  1  0  0  0
  1  8  1  0  0  0  0
  2  7  1  6  0  0  0
  2  1  1  0  0  0  0
  2 11  1  0  0  0  0
  4  8  1  0  0  0  0
  4  3  1  0  0  0  0
  5 11  1  0  0  0  0
  5  6  1  1  0  0  0
  9  5  1  0  0  0  0
 10  7  1  1  0  0  0
 10  9  1  0  0  0  0
 11  4  2  0  0  0  0
 12 18  1  0  0  0  0
 13 16  1  0  0  0  0
 14 15  1  0  0  0  0
 14 12  2  0  0  0  0
 15 13  2  0  0  0  0
 17 14  1  0  0  0  0
 18 16  2  0  0  0  0
 19 22  1  6  0  0  0
 19 21  1  0  0  0  0
 19 10  1  0  0  0  0
 20 19  1  0  0  0  0
 20 21  1  0  0  0  0
 24 25  2  0  0  0  0
 25 22  1  0  0  0  0
 25 23  1  0  0  0  0
M  END
>  <MODEL>
1

>  <REMARK>
 VINA RESULT:      -8.9      0.000      0.000
  Name = 
  4 active torsions:
  status: ('A' for Active; 'I' for Inactive)
    1  A    between atoms: C_1  and  C_5
    2  A    between atoms: C_2  and  C_6
    3  A    between atoms: C_2  and  C_21
    4  A    between atoms: C_6  and  C_23
                            x       y       z     vdW  Elec       q    Type
                         _______ _______ _______ _____ _____    ______ ____

>  <TORSDO>
F 4

$$$$
=
 OpenBabel11052412443D

 25 28  0  0  1  0  0  0  0  0999 V2000
  188.0900  176.6920  144.3570 C   0  0  1  0  0  3  0  0  0  0  0  0
  187.5310  177.8600  143.5430 C   0  0  2  0  0  3  0  0  0  0  0  0
  190.3490  176.6320  141.3640 C   0  0  0  0  0  1  0  0  0  0  0  0
  189.3100  176.9330  142.3880 C   0  0  0  0  0  0  0  0  0  0  0  0
  187.9310  178.7180  141.1320 C   0  0  1  0  0  3  0  0  0  0  0  0
  188.6720  178.4630  139.8310 C   0  0  0  0  0  1  0  0  0  0  0  0
  186.0580  177.6580  143.2080 C   0  0  0  0  0  2  0  0  0  0  0  0
  189.2600  176.2340  143.6200 N   0  0  0  0  0  2  0  0  0  0  0  0
  186.4270  178.5720  140.8810 C   0  0  0  0  0  2  0  0  0  0  0  0
  185.6120  178.7080  142.1820 C   0  0  1  0  0  3  0  0  0  0  0  0
  188.3310  177.8260  142.2850 C   0  0  0  0  0  0  0  0  0  0  0  0
  188.4650  177.1270  145.7410 C   0  0  0  0  0  0  0  0  0  0  0  0
  189.1540  177.9740  148.3240 C   0  0  0  0  0  3  0  0  0  0  0  0
  187.4650  177.4980  146.6530 C   0  0  0  0  0  0  0  0  0  0  0  0
  187.8110  177.9190  147.9410 C   0  0  0  0  0  3  0  0  0  0  0  0
  190.1560  177.6110  147.4200 C   0  0  0  0  0  3  0  0  0  0  0  0
  186.1570  177.4550  146.2980 F   0  0  0  0  0  0  0  0  0  0  0  0
  189.8130  177.1900  146.1320 C   0  0  0  0  0  3  0  0  0  0  0  0
  184.0900  178.6400  141.9700 C   0  0  1  0  0  0  0  0  0  0  0  0
  183.4970  179.0160  140.6680 C   0  0  0  0  0  2  0  0  0  0  0  0
  183.7180  177.6670  141.0270 O   0  0  0  0  0  0  0  0  0  0  0  0
  183.1560  178.6390  143.1710 C   0  0  0  0  0  2  0  0  0  0  0  0
  184.3180  180.5310  144.0350 O   0  0  0  0  0  0  0  0  0  0  0  0
  183.5720  179.0290  145.5980 O   0  0  0  0  0  1  0  0  0  0  0  0
  183.7260  179.4490  144.2840 C   0  0  0  0  0  0  0  0  0  0  0  0
  1 12  1  1  0  0  0
  2  7  1  6  0  0  0
  2  1  1  0  0  0  0
  3  4  1  0  0  0  0
  4  8  1  0  0  0  0
  5  6  1  6  0  0  0
  5 11  1  0  0  0  0
  8  1  1  0  0  0  0
  9  5  1  0  0  0  0
 10  9  1  6  0  0  0
 10  7  1  0  0  0  0
 11  4  2  0  0  0  0
 11  2  1  0  0  0  0
 12 18  2  0  0  0  0
 12 14  1  0  0  0  0
 14 15  2  0  0  0  0
 15 13  1  0  0  0  0
 16 13  2  0  0  0  0
 17 14  1  0  0  0  0
 18 16  1  0  0  0  0
 19 10  1  0  0  0  0
 19 22  1  1  0  0  0
 20 21  1  0  0  0  0
 20 19  1  0  0  0  0
 21 19  1  0  0  0  0
 22 25  1  0  0  0  0
 23 25  2  0  0  0  0
 25 24  1  0  0  0  0
M  END
>  <MODEL>
2

>  <REMARK>
 VINA RESULT:      -8.4      2.664      5.404
  Name = 
  4 active torsions:
  status: ('A' for Active; 'I' for Inactive)
    1  A    between atoms: C_1  and  C_5
    2  A    between atoms: C_2  and  C_6
    3  A    between atoms: C_2  and  C_21
    4  A    between atoms: C_6  and  C_23
                            x       y       z     vdW  Elec       q    Type
                         _______ _______ _______ _____ _____    ______ ____

>  <TORSDO>
F 4

$$$$
=
 OpenBabel11052412443D

 25 28  0  0  1  0  0  0  0  0999 V2000
  187.1650  177.0640  144.1980 C   0  0  1  0  0  3  0  0  0  0  0  0
  188.1060  177.8900  143.3190 C   0  0  2  0  0  3  0  0  0  0  0  0
  190.2290  177.2080  146.3570 C   0  0  0  0  0  1  0  0  0  0  0  0
  189.2060  177.3480  145.2820 C   0  0  0  0  0  0  0  0  0  0  0  0
  190.6300  178.4590  143.4370 C   0  0  1  0  0  3  0  0  0  0  0  0
  191.9170  178.2360  144.2110 C   0  0  0  0  0  1  0  0  0  0  0  0
  188.3350  177.2300  141.9650 C   0  0  0  0  0  2  0  0  0  0  0  0
  187.8880  176.8540  145.4450 N   0  0  0  0  0  2  0  0  0  0  0  0
  190.7830  177.8560  142.0380 C   0  0  0  0  0  2  0  0  0  0  0  0
  189.4740  177.9440  141.2270 C   0  0  1  0  0  3  0  0  0  0  0  0
  189.3840  177.9000  144.0860 C   0  0  0  0  0  0  0  0  0  0  0  0
  185.8750  177.7880  144.4410 C   0  0  0  0  0  0  0  0  0  0  0  0
  183.4750  179.1710  144.8760 C   0  0  0  0  0  3  0  0  0  0  0  0
  185.0210  178.0770  143.3650 C   0  0  0  0  0  0  0  0  0  0  0  0
  183.8240  178.7660  143.5850 C   0  0  0  0  0  3  0  0  0  0  0  0
  184.3220  178.8910  145.9520 C   0  0  0  0  0  3  0  0  0  0  0  0
  185.3470  177.6950  142.1050 F   0  0  0  0  0  0  0  0  0  0  0  0
  185.5200  178.2030  145.7350 C   0  0  0  0  0  3  0  0  0  0  0  0
  189.5990  177.4150  139.7890 C   0  0  1  0  0  0  0  0  0  0  0  0
  188.5540  177.7160  138.7860 C   0  0  0  0  0  2  0  0  0  0  0  0
  189.7640  178.4440  138.8460 O   0  0  0  0  0  0  0  0  0  0  0  0
  190.5100  176.2320  139.4920 C   0  0  0  0  0  2  0  0  0  0  0  0
  192.7270  177.0900  139.3330 O   0  0  0  0  0  1  0  0  0  0  0  0
  191.7190  176.5780  137.3390 O   0  0  0  0  0  0  0  0  0  0  0  0
  191.7090  176.6700  138.7240 C   0  0  0  0  0  0  0  0  0  0  0  0
  1 12  1  1  0  0  0
  1  8  1  0  0  0  0
  2  7  1  6  0  0  0
  2 11  1  0  0  0  0
  2  1  1  0  0  0  0
  4  8  1  0  0  0  0
  4  3  1  0  0  0  0
  5 11  1  0  0  0  0
  5  6  1  1  0  0  0
  9  5  1  0  0  0  0
 10  7  1  1  0  0  0
 10  9  1  0  0  0  0
 11  4  2  0  0  0  0
 12 18  1  0  0  0  0
 13 16  1  0  0  0  0
 14 15  1  0  0  0  0
 14 12  2  0  0  0  0
 15 13  2  0  0  0  0
 17 14  1  0  0  0  0
 18 16  2  0  0  0  0
 19 22  1  6  0  0  0
 19 10  1  0  0  0  0
 20 21  1  0  0  0  0
 20 19  1  0  0  0  0
 21 19  1  0  0  0  0
 24 25  2  0  0  0  0
 25 23  1  0  0  0  0
 25 22  1  0  0  0  0
M  END
>  <MODEL>
3

>  <REMARK>
 VINA RESULT:      -8.4      0.932      1.891
  Name = 
  4 active torsions:
  status: ('A' for Active; 'I' for Inactive)
    1  A    between atoms: C_1  and  C_5
    2  A    between atoms: C_2  and  C_6
    3  A    between atoms: C_2  and  C_21
    4  A    between atoms: C_6  and  C_23
                            x       y       z     vdW  Elec       q    Type
                         _______ _______ _______ _____ _____    ______ ____

>  <TORSDO>
F 4

$$$$
=
 OpenBabel11052412443D

 25 28  0  0  1  0  0  0  0  0999 V2000
  188.0900  176.7550  144.4460 C   0  0  1  0  0  3  0  0  0  0  0  0
  187.5590  177.8880  143.5650 C   0  0  2  0  0  3  0  0  0  0  0  0
  190.5420  176.6750  141.6090 C   0  0  0  0  0  1  0  0  0  0  0  0
  189.4310  176.9760  142.5550 C   0  0  0  0  0  0  0  0  0  0  0  0
  188.0970  178.6930  141.1630 C   0  0  1  0  0  3  0  0  0  0  0  0
  188.9280  178.4230  139.9210 C   0  0  0  0  0  1  0  0  0  0  0  0
  186.1160  177.6410  143.1410 C   0  0  0  0  0  2  0  0  0  0  0  0
  189.3160  176.3070  143.7990 N   0  0  0  0  0  2  0  0  0  0  0  0
  186.6170  178.5040  140.8190 C   0  0  0  0  0  2  0  0  0  0  0  0
  185.7140  178.6520  142.0600 C   0  0  1  0  0  3  0  0  0  0  0  0
  188.4400  177.8420  142.3640 C   0  0  0  0  0  0  0  0  0  0  0  0
  188.3630  177.2350  145.8400 C   0  0  0  0  0  0  0  0  0  0  0  0
  188.8610  178.1660  148.4370 C   0  0  0  0  0  3  0  0  0  0  0  0
  187.2980  177.6300  146.6650 C   0  0  0  0  0  0  0  0  0  0  0  0
  187.5500  178.0930  147.9600 C   0  0  0  0  0  3  0  0  0  0  0  0
  189.9260  177.7790  147.6200 C   0  0  0  0  0  3  0  0  0  0  0  0
  186.0200  177.5700  146.2170 F   0  0  0  0  0  0  0  0  0  0  0  0
  189.6780  177.3160  146.3240 C   0  0  0  0  0  3  0  0  0  0  0  0
  184.2120  178.5410  141.7510 C   0  0  1  0  0  0  0  0  0  0  0  0
  183.2320  178.3710  142.8470 C   0  0  0  0  0  2  0  0  0  0  0  0
  183.4750  179.6290  142.2490 O   0  0  0  0  0  0  0  0  0  0  0  0
  183.7510  178.1460  140.3560 C   0  0  0  0  0  2  0  0  0  0  0  0
  182.1090  179.5570  139.3640 O   0  0  0  0  0  1  0  0  0  0  0  0
  184.2810  180.2480  139.1260 O   0  0  0  0  0  0  0  0  0  0  0  0
  183.3300  179.3450  139.5800 C   0  0  0  0  0  0  0  0  0  0  0  0
  1 12  1  1  0  0  0
  2  7  1  6  0  0  0
  2  1  1  0  0  0  0
  3  4  1  0  0  0  0
  4  8  1  0  0  0  0
  5  6  1  6  0  0  0
  5 11  1  0  0  0  0
  8  1  1  0  0  0  0
  9  5  1  0  0  0  0
 10  9  1  6  0  0  0
 10  7  1  0  0  0  0
 11  4  2  0  0  0  0
 11  2  1  0  0  0  0
 12 18  2  0  0  0  0
 12 14  1  0  0  0  0
 14 15  2  0  0  0  0
 15 13  1  0  0  0  0
 16 13  2  0  0  0  0
 17 14  1  0  0  0  0
 18 16  1  0  0  0  0
 19 22  1  6  0  0  0
 19 10  1  0  0  0  0
 19 21  1  0  0  0  0
 19 20  1  0  0  0  0
 21 20  1  0  0  0  0
 23 25  1  0  0  0  0
 24 25  2  0  0  0  0
 25 22  1  0  0  0  0
M  END
>  <MODEL>
4

>  <REMARK>
 VINA RESULT:      -8.2      2.650      4.957
  Name = 
  4 active torsions:
  status: ('A' for Active; 'I' for Inactive)
    1  A    between atoms: C_1  and  C_5
    2  A    between atoms: C_2  and  C_6
    3  A    between atoms: C_2  and  C_21
    4  A    between atoms: C_6  and  C_23
                            x       y       z     vdW  Elec       q    Type
                         _______ _______ _______ _____ _____    ______ ____

>  <TORSDO>
F 4

$$$$
=
 OpenBabel11052412443D

 25 28  0  0  1  0  0  0  0  0999 V2000
  189.4450  178.3800  142.4920 C   0  0  1  0  0  3  0  0  0  0  0  0
  188.4620  177.6590  143.4160 C   0  0  2  0  0  3  0  0  0  0  0  0
  191.6800  177.4900  145.3700 C   0  0  0  0  0  1  0  0  0  0  0  0
  190.5490  177.6760  144.4180 C   0  0  0  0  0  0  0  0  0  0  0  0
  188.5870  176.8240  145.8650 C   0  0  1  0  0  3  0  0  0  0  0  0
  189.4560  176.7530  147.1090 C   0  0  0  0  0  1  0  0  0  0  0  0
  187.2900  178.5540  143.7990 C   0  0  0  0  0  2  0  0  0  0  0  0
  190.7440  178.2580  143.1410 N   0  0  0  0  0  0  0  0  0  0  0  0
  187.3550  177.6810  146.1700 C   0  0  0  0  0  2  0  0  0  0  0  0
  186.4780  177.8930  144.9200 C   0  0  1  0  0  3  0  0  0  0  0  0
  189.2740  177.3640  144.6310 C   0  0  1  0  0  3  0  0  0  0  0  0
  189.4650  177.7570  141.1290 C   0  0  0  0  0  0  0  0  0  0  0  0
  189.4740  176.5690  138.5890 C   0  0  0  0  0  3  0  0  0  0  0  0
  188.3790  177.9410  140.2600 C   0  0  0  0  0  0  0  0  0  0  0  0
  188.3870  177.3490  138.9930 C   0  0  0  0  0  3  0  0  0  0  0  0
  190.5570  176.3780  139.4510 C   0  0  0  0  0  3  0  0  0  0  0  0
  187.3130  178.6900  140.6370 F   0  0  0  0  0  0  0  0  0  0  0  0
  190.5520  176.9680  140.7180 C   0  0  0  0  0  3  0  0  0  0  0  0
  185.1910  178.6880  145.1930 C   0  0  1  0  0  0  0  0  0  0  0  0
  184.2920  178.3010  146.3030 C   0  0  0  0  0  2  0  0  0  0  0  0
  185.2210  179.3590  146.4280 O   0  0  0  0  0  0  0  0  0  0  0  0
  184.5900  179.5580  144.0990 C   0  0  0  0  0  2  0  0  0  0  0  0
  182.4610  178.8300  143.3150 O   0  0  0  0  0  1  0  0  0  0  0  0
  184.2730  177.9430  142.2270 O   0  0  0  0  0  0  0  0  0  0  0  0
  183.7120  178.7520  143.2060 C   0  0  0  0  0  0  0  0  0  0  0  0
  1 12  1  6  0  0  0
  1  8  1  0  0  0  0
  1  2  1  0  0  0  0
  2  7  1  1  0  0  0
  2 11  1  0  0  0  0
  4  3  1  0  0  0  0
  5  9  1  0  0  0  0
  5  6  1  1  0  0  0
  8  4  2  0  0  0  0
 10  7  1  6  0  0  0
 10 19  1  0  0  0  0
 10  9  1  0  0  0  0
 11  4  1  1  0  0  0
 11  5  1  0  0  0  0
 13 15  2  0  0  0  0
 13 16  1  0  0  0  0
 14 17  1  0  0  0  0
 14 12  2  0  0  0  0
 15 14  1  0  0  0  0
 16 18  2  0  0  0  0
 18 12  1  0  0  0  0
 19 22  1  6  0  0  0
 19 20  1  0  0  0  0
 19 21  1  0  0  0  0
 20 21  1  0  0  0  0
 24 25  2  0  0  0  0
 25 23  1  0  0  0  0
 25 22  1  0  0  0  0
M  END
>  <MODEL>
5

>  <REMARK>
 VINA RESULT:      -8.1      2.503      5.731
  Name = 
  4 active torsions:
  status: ('A' for Active; 'I' for Inactive)
    1  A    between atoms: C_1  and  C_5
    2  A    between atoms: C_2  and  C_6
    3  A    between atoms: C_2  and  C_21
    4  A    between atoms: C_6  and  C_23
                            x       y       z     vdW  Elec       q    Type
                         _______ _______ _______ _____ _____    ______ ____

>  <TORSDO>
F 4

$$$$
=
 OpenBabel11052412443D

 25 28  0  0  1  0  0  0  0  0999 V2000
  186.3520  179.0980  143.0170 C   0  0  1  0  0  3  0  0  0  0  0  0
  187.1130  177.8640  143.5060 C   0  0  2  0  0  3  0  0  0  0  0  0
  188.3150  178.1980  139.9500 C   0  0  0  0  0  1  0  0  0  0  0  0
  187.6920  178.2700  141.3020 C   0  0  0  0  0  0  0  0  0  0  0  0
  189.0540  176.4520  142.5310 C   0  0  1  0  0  3  0  0  0  0  0  0
  190.0290  176.3150  141.3740 C   0  0  0  0  0  1  0  0  0  0  0  0
  187.9770  178.1810  144.7200 C   0  0  0  0  0  2  0  0  0  0  0  0
  186.6890  179.2240  141.6060 N   0  0  0  0  0  0  0  0  0  0  0  0
  189.8420  176.7380  143.8120 C   0  0  0  0  0  2  0  0  0  0  0  0
  188.9120  177.0000  145.0130 C   0  0  1  0  0  3  0  0  0  0  0  0
  187.9920  177.5140  142.3540 C   0  0  1  0  0  3  0  0  0  0  0  0
  184.8740  178.9310  143.2030 C   0  0  0  0  0  0  0  0  0  0  0  0
  182.1160  178.5910  143.5730 C   0  0  0  0  0  3  0  0  0  0  0  0
  184.3100  179.0720  144.4810 C   0  0  0  0  0  0  0  0  0  0  0  0
  182.9340  178.9020  144.6620 C   0  0  0  0  0  3  0  0  0  0  0  0
  182.6710  178.4450  142.2990 C   0  0  0  0  0  3  0  0  0  0  0  0
  185.0890  179.3690  145.5500 F   0  0  0  0  0  0  0  0  0  0  0  0
  184.0460  178.6130  142.1150 C   0  0  0  0  0  3  0  0  0  0  0  0
  189.6590  177.2220  146.3390 C   0  0  1  0  0  0  0  0  0  0  0  0
  188.9220  177.6260  147.5560 C   0  0  0  0  0  2  0  0  0  0  0  0
  189.3020  176.2850  147.3240 O   0  0  0  0  0  0  0  0  0  0  0  0
  191.1590  177.4800  146.3310 C   0  0  0  0  0  2  0  0  0  0  0  0
  192.1060  175.3110  146.0570 O   0  0  0  0  0  0  0  0  0  0  0  0
  192.4060  176.2690  148.1180 O   0  0  0  0  0  1  0  0  0  0  0  0
  191.9030  176.2880  146.8240 C   0  0  0  0  0  0  0  0  0  0  0  0
  1 12  1  6  0  0  0
  1  2  1  0  0  0  0
  2  7  1  1  0  0  0
  3  4  1  0  0  0  0
  4  8  2  0  0  0  0
  5  6  1  6  0  0  0
  5  9  1  0  0  0  0
  7 10  1  0  0  0  0
  8  1  1  0  0  0  0
 10  9  1  6  0  0  0
 10 19  1  0  0  0  0
 11  4  1  1  0  0  0
 11  5  1  0  0  0  0
 11  2  1  0  0  0  0
 12 14  1  0  0  0  0
 13 15  1  0  0  0  0
 14 15  2  0  0  0  0
 14 17  1  0  0  0  0
 16 13  2  0  0  0  0
 18 16  1  0  0  0  0
 18 12  2  0  0  0  0
 19 22  1  6  0  0  0
 19 21  1  0  0  0  0
 19 20  1  0  0  0  0
 21 20  1  0  0  0  0
 22 25  1  0  0  0  0
 23 25  2  0  0  0  0
 25 24  1  0  0  0  0
M  END
>  <MODEL>
6

>  <REMARK>
 VINA RESULT:      -8.1      3.361      5.379
  Name = 
  4 active torsions:
  status: ('A' for Active; 'I' for Inactive)
    1  A    between atoms: C_1  and  C_5
    2  A    between atoms: C_2  and  C_6
    3  A    between atoms: C_2  and  C_21
    4  A    between atoms: C_6  and  C_23
                            x       y       z     vdW  Elec       q    Type
                         _______ _______ _______ _____ _____    ______ ____

>  <TORSDO>
F 4

$$$$
=
 OpenBabel11052412443D

 25 28  0  0  1  0  0  0  0  0999 V2000
  187.2690  176.9000  143.9700 C   0  0  1  0  0  3  0  0  0  0  0  0
  187.0790  177.9890  142.9110 C   0  0  2  0  0  3  0  0  0  0  0  0
  190.3230  176.3910  141.8520 C   0  0  0  0  0  1  0  0  0  0  0  0
  189.0480  176.8550  142.4670 C   0  0  0  0  0  0  0  0  0  0  0  0
  188.2620  178.5400  140.6740 C   0  0  1  0  0  3  0  0  0  0  0  0
  189.3430  178.1010  139.7010 C   0  0  0  0  0  1  0  0  0  0  0  0
  185.7680  177.8140  142.1550 C   0  0  0  0  0  2  0  0  0  0  0  0
  188.5690  176.3080  143.6830 N   0  0  0  0  0  2  0  0  0  0  0  0
  186.9000  178.4320  139.9820 C   0  0  0  0  0  2  0  0  0  0  0  0
  185.7390  178.7550  140.9440 C   0  0  1  0  0  3  0  0  0  0  0  0
  188.2200  177.7720  141.9760 C   0  0  0  0  0  0  0  0  0  0  0  0
  187.2370  177.4780  145.3520 C   0  0  0  0  0  0  0  0  0  0  0  0
  187.1700  178.5910  147.9250 C   0  0  0  0  0  3  0  0  0  0  0  0
  186.0600  178.0720  145.8350 C   0  0  0  0  0  0  0  0  0  0  0  0
  186.0300  178.6250  147.1180 C   0  0  0  0  0  3  0  0  0  0  0  0
  188.3470  178.0060  147.4500 C   0  0  0  0  0  3  0  0  0  0  0  0
  184.9450  178.1180  145.0640 F   0  0  0  0  0  0  0  0  0  0  0  0
  188.3800  177.4520  146.1670 C   0  0  0  0  0  3  0  0  0  0  0  0
  184.3550  178.7290  140.2750 C   0  0  1  0  0  0  0  0  0  0  0  0
  183.9510  179.8070  139.3460 C   0  0  0  0  0  2  0  0  0  0  0  0
  184.4300  178.5610  138.8810 O   0  0  0  0  0  0  0  0  0  0  0  0
  183.2360  177.8940  140.8790 C   0  0  0  0  0  2  0  0  0  0  0  0
  182.7070  179.0180  142.9120 O   0  0  0  0  0  1  0  0  0  0  0  0
  181.1630  179.2350  141.2310 O   0  0  0  0  0  0  0  0  0  0  0  0
  182.3550  178.7340  141.7380 C   0  0  0  0  0  0  0  0  0  0  0  0
  1 12  1  1  0  0  0
  2  7  1  6  0  0  0
  2  1  1  0  0  0  0
  3  4  1  0  0  0  0
  4  8  1  0  0  0  0
  5  6  1  6  0  0  0
  5 11  1  0  0  0  0
  8  1  1  0  0  0  0
  9  5  1  0  0  0  0
 10  9  1  6  0  0  0
 10  7  1  0  0  0  0
 11  4  2  0  0  0  0
 11  2  1  0  0  0  0
 12 14  2  0  0  0  0
 12 18  1  0  0  0  0
 14 15  1  0  0  0  0
 15 13  2  0  0  0  0
 16 13  1  0  0  0  0
 17 14  1  0  0  0  0
 18 16  2  0  0  0  0
 19 22  1  1  0  0  0
 19 10  1  0  0  0  0
 20 19  1  0  0  0  0
 21 20  1  0  0  0  0
 21 19  1  0  0  0  0
 22 25  1  0  0  0  0
 24 25  2  0  0  0  0
 25 23  1  0  0  0  0
M  END
>  <MODEL>
7

>  <REMARK>
 VINA RESULT:      -8.0      2.588      4.747
  Name = 
  4 active torsions:
  status: ('A' for Active; 'I' for Inactive)
    1  A    between atoms: C_1  and  C_5
    2  A    between atoms: C_2  and  C_6
    3  A    between atoms: C_2  and  C_21
    4  A    between atoms: C_6  and  C_23
                            x       y       z     vdW  Elec       q    Type
                         _______ _______ _______ _____ _____    ______ ____

>  <TORSDO>
F 4

$$$$
=
 OpenBabel11052412443D

 25 28  0  0  1  0  0  0  0  0999 V2000
  188.9080  176.3920  143.7530 C   0  0  1  0  0  3  0  0  0  0  0  0
  188.3360  177.6910  143.1820 C   0  0  2  0  0  3  0  0  0  0  0  0
  190.4510  176.4190  140.3340 C   0  0  0  0  0  1  0  0  0  0  0  0
  189.7000  176.7140  141.5870 C   0  0  0  0  0  0  0  0  0  0  0  0
  188.3140  178.7540  140.8190 C   0  0  1  0  0  3  0  0  0  0  0  0
  188.7230  178.5630  139.3700 C   0  0  0  0  0  1  0  0  0  0  0  0
  186.8120  177.6770  143.1710 C   0  0  0  0  0  2  0  0  0  0  0  0
  189.8280  175.8970  142.7370 N   0  0  0  0  0  2  0  0  0  0  0  0
  186.7850  178.7900  140.9020 C   0  0  0  0  0  2  0  0  0  0  0  0
  186.2900  178.8690  142.3600 C   0  0  1  0  0  3  0  0  0  0  0  0
  188.8390  177.7090  141.7780 C   0  0  0  0  0  0  0  0  0  0  0  0
  189.6220  176.6380  145.0480 C   0  0  0  0  0  0  0  0  0  0  0  0
  190.9450  177.1320  147.4700 C   0  0  0  0  0  3  0  0  0  0  0  0
  188.8930  177.0140  146.1870 C   0  0  0  0  0  0  0  0  0  0  0  0
  189.5560  177.2590  147.3940 C   0  0  0  0  0  3  0  0  0  0  0  0
  191.6780  176.7620  146.3390 C   0  0  0  0  0  3  0  0  0  0  0  0
  187.5450  177.1470  146.1300 F   0  0  0  0  0  0  0  0  0  0  0  0
  191.0180  176.5170  145.1310 C   0  0  0  0  0  3  0  0  0  0  0  0
  184.7610  178.9800  142.4900 C   0  0  1  0  0  0  0  0  0  0  0  0
  183.8860  178.6440  141.3450 C   0  0  0  0  0  2  0  0  0  0  0  0
  184.1190  177.7330  142.4000 O   0  0  0  0  0  0  0  0  0  0  0  0
  184.1530  179.8440  143.5850 C   0  0  0  0  0  2  0  0  0  0  0  0
  184.4010  178.6550  145.6340 O   0  0  0  0  0  1  0  0  0  0  0  0
  182.2990  178.6240  144.7200 O   0  0  0  0  0  0  0  0  0  0  0  0
  183.6350  179.0000  144.6970 C   0  0  0  0  0  0  0  0  0  0  0  0
  1 12  1  1  0  0  0
  2  7  1  6  0  0  0
  2  1  1  0  0  0  0
  3  4  1  0  0  0  0
  4 11  2  0  0  0  0
  4  8  1  0  0  0  0
  5  6  1  6  0  0  0
  5  9  1  0  0  0  0
  5 11  1  0  0  0  0
  8  1  1  0  0  0  0
 10  9  1  6  0  0  0
 10 19  1  0  0  0  0
 10  7  1  0  0  0  0
 11  2  1  0  0  0  0
 12 18  2  0  0  0  0
 12 14  1  0  0  0  0
 14 15  2  0  0  0  0
 15 13  1  0  0  0  0
 16 13  2  0  0  0  0
 17 14  1  0  0  0  0
 18 16  1  0  0  0  0
 19 22  1  1  0  0  0
 20 21  1  0  0  0  0
 20 19  1  0  0  0  0
 21 19  1  0  0  0  0
 22 25  1  0  0  0  0
 25 24  2  0  0  0  0
 25 23  1  0  0  0  0
M  END
>  <MODEL>
8

>  <REMARK>
 VINA RESULT:      -7.9      2.808      5.831
  Name = 
  4 active torsions:
  status: ('A' for Active; 'I' for Inactive)
    1  A    between atoms: C_1  and  C_5
    2  A    between atoms: C_2  and  C_6
    3  A    between atoms: C_2  and  C_21
    4  A    between atoms: C_6  and  C_23
                            x       y       z     vdW  Elec       q    Type
                         _______ _______ _______ _____ _____    ______ ____

>  <TORSDO>
F 4

$$$$
=
 OpenBabel11052412443D

 25 28  0  0  1  0  0  0  0  0999 V2000
  186.2720  179.1020  142.6110 C   0  0  1  0  0  3  0  0  0  0  0  0
  186.9710  177.8380  143.1150 C   0  0  2  0  0  3  0  0  0  0  0  0
  188.6250  178.3980  139.7760 C   0  0  0  0  0  1  0  0  0  0  0  0
  187.8310  178.3850  141.0360 C   0  0  0  0  0  0  0  0  0  0  0  0
  189.0330  176.4890  142.3140 C   0  0  1  0  0  3  0  0  0  0  0  0
  190.1510  176.4250  141.2890 C   0  0  0  0  0  1  0  0  0  0  0  0
  187.6670  178.0760  144.4500 C   0  0  0  0  0  2  0  0  0  0  0  0
  186.7900  179.3180  141.2660 N   0  0  0  0  0  0  0  0  0  0  0  0
  189.6450  176.6910  143.7030 C   0  0  0  0  0  2  0  0  0  0  0  0
  188.5640  176.8770  144.7870 C   0  0  1  0  0  3  0  0  0  0  0  0
  187.9960  177.5620  142.0680 C   0  0  1  0  0  3  0  0  0  0  0  0
  184.7840  178.9260  142.5910 C   0  0  0  0  0  0  0  0  0  0  0  0
  182.0020  178.5690  142.5770 C   0  0  0  0  0  3  0  0  0  0  0  0
  184.0410  179.1170  143.7670 C   0  0  0  0  0  0  0  0  0  0  0  0
  182.6540  178.9390  143.7560 C   0  0  0  0  0  3  0  0  0  0  0  0
  182.7360  178.3730  141.4030 C   0  0  0  0  0  3  0  0  0  0  0  0
  184.6570  179.4710  144.9210 F   0  0  0  0  0  0  0  0  0  0  0  0
  184.1220  178.5500  141.4110 C   0  0  0  0  0  3  0  0  0  0  0  0
  189.1300  177.0120  146.2100 C   0  0  1  0  0  0  0  0  0  0  0  0
  190.5920  177.0430  146.4360 C   0  0  0  0  0  2  0  0  0  0  0  0
  189.8150  178.2230  146.4080 O   0  0  0  0  0  0  0  0  0  0  0  0
  188.2610  176.6590  147.4080 C   0  0  0  0  0  2  0  0  0  0  0  0
  188.3220  178.3050  149.1300 O   0  0  0  0  0  1  0  0  0  0  0  0
  186.7090  178.6060  147.5300 O   0  0  0  0  0  0  0  0  0  0  0  0
  187.7640  177.8920  148.0810 C   0  0  0  0  0  0  0  0  0  0  0  0
  1 12  1  6  0  0  0
  1  2  1  0  0  0  0
  2  7  1  1  0  0  0
  3  4  1  0  0  0  0
  4  8  2  0  0  0  0
  5  6  1  6  0  0  0
  5  9  1  0  0  0  0
  7 10  1  0  0  0  0
  8  1  1  0  0  0  0
 10  9  1  6  0  0  0
 10 19  1  0  0  0  0
 11  4  1  1  0  0  0
 11  5  1  0  0  0  0
 11  2  1  0  0  0  0
 12 14  1  0  0  0  0
 13 15  1  0  0  0  0
 14 17  1  0  0  0  0
 15 14  2  0  0  0  0
 16 18  1  0  0  0  0
 16 13  2  0  0  0  0
 18 12  2  0  0  0  0
 19 21  1  0  0  0  0
 19 20  1  0  0  0  0
 19 22  1  1  0  0  0
 21 20  1  0  0  0  0
 22 25  1  0  0  0  0
 24 25  2  0  0  0  0
 25 23  1  0  0  0  0
M  END
>  <MODEL>
9

>  <REMARK>
 VINA RESULT:      -7.9      3.406      5.350
  Name = 
  4 active torsions:
  status: ('A' for Active; 'I' for Inactive)
    1  A    between atoms: C_1  and  C_5
    2  A    between atoms: C_2  and  C_6
    3  A    between atoms: C_2  and  C_21
    4  A    between atoms: C_6  and  C_23
                            x       y       z     vdW  Elec       q    Type
                         _______ _______ _______ _____ _____    ______ ____

>  <TORSDO>
F 4

$$$$
