=
 OpenBabel11052412253D

 30 35  0  0  1  0  0  0  0  0999 V2000
  187.1290  178.0810  141.1030 C   0  0  0  0  0  0  0  0  0  0  0  0
  184.7940  179.0490  140.6570 C   0  0  0  0  0  0  0  0  0  0  0  0
  186.2710  177.5530  145.1830 N   0  0  0  0  0  2  0  0  0  0  0  0
  188.0430  177.5090  142.0140 C   0  0  0  0  0  0  0  0  0  0  0  0
  187.6210  178.4300  139.7280 C   0  0  0  0  0  2  0  0  0  0  0  0
  190.4910  176.1460  139.6970 O   0  0  0  0  0  0  0  0  0  0  0  0
  190.2980  178.6720  143.4140 C   0  0  1  0  0  3  0  0  0  0  0  0
  189.5660  176.8300  140.1090 C   0  0  0  0  0  0  0  0  0  0  0  0
  189.6270  178.1090  144.6680 C   0  0  2  0  0  3  0  0  0  0  0  0
  187.5610  177.1010  145.5960 C   0  0  0  0  0  0  0  0  0  0  0  0
  188.5500  177.3740  139.1280 C   0  0  2  0  0  3  0  0  0  0  0  0
  189.4030  177.0150  141.5940 C   0  0  1  0  0  3  0  0  0  0  0  0
  183.3540  179.0910  141.0840 C   0  0  0  0  0  2  0  0  0  0  0  0
  190.6320  177.7250  145.5630 O   0  0  0  0  0  0  0  0  0  0  0  0
  191.5620  179.2570  143.9790 C   0  0  0  0  0  2  0  0  0  0  0  0
  185.0940  179.5000  139.5200 O   0  0  0  0  0  0  0  0  0  0  0  0
  186.4160  177.7160  143.7810 C   0  0  0  0  0  0  0  0  0  0  0  0
  183.1830  179.0720  142.5780 C   0  0  0  0  0  3  0  0  0  0  0  0
  185.8190  178.4400  141.5480 C   0  0  0  0  0  0  0  0  0  0  0  0
  187.6700  177.3720  143.3450 C   0  0  0  0  0  0  0  0  0  0  0  0
  187.8190  176.8070  146.7920 O   0  0  0  0  0  0  0  0  0  0  0  0
  188.5650  177.0140  144.4820 C   0  0  1  0  0  3  0  0  0  0  0  0
  191.6490  178.6790  145.3850 C   0  0  0  0  0  2  0  0  0  0  0  0
  191.5810  176.5620  142.7250 C   0  0  0  0  0  1  0  0  0  0  0  0
  184.1390  178.6460  143.4050 C   0  0  0  0  0  3  0  0  0  0  0  0
  185.4610  178.2330  142.9050 C   0  0  0  0  0  0  0  0  0  0  0  0
  190.6200  177.6590  142.2830 C   0  0  2  0  0  3  0  0  0  0  0  0
  189.1940  177.8860  137.8340 C   0  0  0  0  0  2  0  0  0  0  0  0
  187.4870  178.2880  136.0500 C   0  0  0  0  0  1  0  0  0  0  0  0
  188.3500  178.9360  137.1150 C   0  0  0  0  0  2  0  0  0  0  0  0
  1 19  2  0  0  0  0
  1  4  1  0  0  0  0
  2 13  1  0  0  0  0
  2 19  1  0  0  0  0
  3 10  1  0  0  0  0
  4 20  2  0  0  0  0
  5  1  1  0  0  0  0
  6  8  2  0  0  0  0
  7 15  1  1  0  0  0
  7  9  1  0  0  0  0
  9 14  1  1  0  0  0
 10 21  2  0  0  0  0
 11 28  1  6  0  0  0
 11  5  1  0  0  0  0
 11  8  1  0  0  0  0
 12  8  1  6  0  0  0
 12  4  1  0  0  0  0
 12 27  1  0  0  0  0
 13 18  1  0  0  0  0
 15 23  1  0  0  0  0
 16  2  2  0  0  0  0
 17  3  1  0  0  0  0
 18 25  2  0  0  0  0
 19 26  1  0  0  0  0
 20 17  1  0  0  0  0
 22 20  1  6  0  0  0
 22  9  1  0  0  0  0
 22 10  1  0  0  0  0
 23 14  1  0  0  0  0
 26 25  1  0  0  0  0
 26 17  2  0  0  0  0
 27 24  1  1  0  0  0
 27  7  1  0  0  0  0
 29 30  1  0  0  0  0
 30 28  1  0  0  0  0
M  END
>  <MODEL>
1

>  <REMARK>
 VINA RESULT:      -8.8      0.000      0.000
  Name = 
  2 active torsions:
  status: ('A' for Active; 'I' for Inactive)
    1  A    between atoms: C_9  and  C_12
    2  A    between atoms: C_9  and  C_21
                            x       y       z     vdW  Elec       q    Type
                         _______ _______ _______ _____ _____    ______ ____

>  <TORSDO>
F 2

$$$$
=
 OpenBabel11052412253D

 30 35  0  0  1  0  0  0  0  0999 V2000
  185.9010  178.1670  142.5350 C   0  0  0  0  0  0  0  0  0  0  0  0
  186.8270  177.8850  144.9130 C   0  0  0  0  0  0  0  0  0  0  0  0
  182.0840  179.1380  143.9980 N   0  0  0  0  0  2  0  0  0  0  0  0
  184.8170  178.5010  141.6950 C   0  0  0  0  0  0  0  0  0  0  0  0
  187.1470  177.6180  141.9020 C   0  0  0  0  0  2  0  0  0  0  0  0
  186.5690  178.9800  138.5450 O   0  0  0  0  0  0  0  0  0  0  0  0
  182.9890  176.8190  140.2030 C   0  0  1  0  0  3  0  0  0  0  0  0
  186.3620  178.6120  139.6920 C   0  0  0  0  0  0  0  0  0  0  0  0
  181.8970  177.6170  140.9170 C   0  0  2  0  0  3  0  0  0  0  0  0
  181.4090  179.2230  142.7420 C   0  0  0  0  0  0  0  0  0  0  0  0
  187.5350  178.3300  140.6050 C   0  0  2  0  0  3  0  0  0  0  0  0
  184.9440  178.5620  140.1950 C   0  0  1  0  0  3  0  0  0  0  0  0
  186.7070  178.2810  146.3570 C   0  0  0  0  0  2  0  0  0  0  0  0
  180.8110  177.7450  140.0440 O   0  0  0  0  0  0  0  0  0  0  0  0
  182.1790  175.9280  139.3040 C   0  0  0  0  0  2  0  0  0  0  0  0
  187.8810  177.3070  144.5360 O   0  0  0  0  0  0  0  0  0  0  0  0
  183.4260  178.8650  143.6300 C   0  0  0  0  0  0  0  0  0  0  0  0
  185.2800  178.4290  146.8100 C   0  0  0  0  0  3  0  0  0  0  0  0
  185.7390  178.2220  143.9540 C   0  0  0  0  0  0  0  0  0  0  0  0
  183.5910  178.8120  142.2700 C   0  0  0  0  0  0  0  0  0  0  0  0
  180.1840  179.4940  142.6530 O   0  0  0  0  0  0  0  0  0  0  0  0
  182.2910  178.9590  141.5550 C   0  0  1  0  0  3  0  0  0  0  0  0
  180.7820  176.5310  139.3350 C   0  0  0  0  0  2  0  0  0  0  0  0
  183.3840  178.4330  138.2510 C   0  0  0  0  0  1  0  0  0  0  0  0
  184.2710  178.6070  145.9560 C   0  0  0  0  0  3  0  0  0  0  0  0
  184.4840  178.5960  144.4990 C   0  0  0  0  0  0  0  0  0  0  0  0
  184.0230  177.6340  139.3820 C   0  0  2  0  0  3  0  0  0  0  0  0
  188.6710  177.5860  139.8940 C   0  0  0  0  0  2  0  0  0  0  0  0
  191.1360  177.2170  140.1130 C   0  0  0  0  0  1  0  0  0  0  0  0
  189.8020  177.1710  140.8320 C   0  0  0  0  0  2  0  0  0  0  0  0
  1 19  1  0  0  0  0
  2 13  1  0  0  0  0
  4 20  1  0  0  0  0
  4  1  2  0  0  0  0
  5  1  1  0  0  0  0
  6  8  2  0  0  0  0
  7 15  1  6  0  0  0
  7  9  1  0  0  0  0
  8 11  1  0  0  0  0
  9 14  1  6  0  0  0
  9 22  1  0  0  0  0
 10  3  1  0  0  0  0
 11 28  1  6  0  0  0
 11  5  1  0  0  0  0
 12  8  1  1  0  0  0
 12  4  1  0  0  0  0
 13 18  1  0  0  0  0
 15 23  1  0  0  0  0
 16  2  2  0  0  0  0
 17  3  1  0  0  0  0
 17 26  1  0  0  0  0
 19 26  2  0  0  0  0
 19  2  1  0  0  0  0
 20 17  2  0  0  0  0
 21 10  2  0  0  0  0
 22 20  1  1  0  0  0
 22 10  1  0  0  0  0
 23 14  1  0  0  0  0
 25 18  2  0  0  0  0
 26 25  1  0  0  0  0
 27 24  1  6  0  0  0
 27 12  1  0  0  0  0
 27  7  1  0  0  0  0
 28 30  1  0  0  0  0
 29 30  1  0  0  0  0
M  END
>  <MODEL>
2

>  <REMARK>
 VINA RESULT:      -8.8      2.439      6.349
  Name = 
  2 active torsions:
  status: ('A' for Active; 'I' for Inactive)
    1  A    between atoms: C_9  and  C_12
    2  A    between atoms: C_9  and  C_21
                            x       y       z     vdW  Elec       q    Type
                         _______ _______ _______ _____ _____    ______ ____

>  <TORSDO>
F 2

$$$$
=
 OpenBabel11052412253D

 30 35  0  0  1  0  0  0  0  0999 V2000
  188.5640  177.6850  141.2260 C   0  0  0  0  0  0  0  0  0  0  0  0
  186.5510  178.1090  142.7630 C   0  0  0  0  0  0  0  0  0  0  0  0
  186.3170  178.6430  137.8060 N   0  0  0  0  0  2  0  0  0  0  0  0
  189.1090  177.6910  139.9240 C   0  0  0  0  0  0  0  0  0  0  0  0
  189.3900  177.1090  142.3390 C   0  0  0  0  0  2  0  0  0  0  0  0
  192.6540  177.5050  140.7100 O   0  0  0  0  0  0  0  0  0  0  0  0
  189.6020  175.5210  138.0680 C   0  0  1  0  0  3  0  0  0  0  0  0
  191.4440  177.4260  140.8660 C   0  0  0  0  0  0  0  0  0  0  0  0
  188.7980  176.3710  137.0820 C   0  0  2  0  0  3  0  0  0  0  0  0
  187.3130  178.3400  136.8280 C   0  0  0  0  0  0  0  0  0  0  0  0
  190.8680  177.4970  142.2630 C   0  0  2  0  0  3  0  0  0  0  0  0
  190.5560  177.3760  139.6500 C   0  0  1  0  0  3  0  0  0  0  0  0
  185.2580  178.8490  142.9550 C   0  0  0  0  0  2  0  0  0  0  0  0
  189.3280  176.1710  135.8020 O   0  0  0  0  0  0  0  0  0  0  0  0
  190.0100  174.3590  137.2070 C   0  0  0  0  0  2  0  0  0  0  0  0
  187.0780  177.5530  143.7630 O   0  0  0  0  0  0  0  0  0  0  0  0
  186.9850  178.4090  139.0360 C   0  0  0  0  0  0  0  0  0  0  0  0
  184.4590  178.9760  141.6870 C   0  0  0  0  0  3  0  0  0  0  0  0
  187.2070  178.0870  141.4260 C   0  0  0  0  0  0  0  0  0  0  0  0
  188.2890  178.0240  138.8530 C   0  0  0  0  0  0  0  0  0  0  0  0
  187.1030  178.4660  135.5940 O   0  0  0  0  0  0  0  0  0  0  0  0
  188.6140  177.8630  137.4070 C   0  0  1  0  0  3  0  0  0  0  0  0
  189.7130  174.8180  135.7870 C   0  0  0  0  0  2  0  0  0  0  0  0
  191.8910  176.6100  137.6860 C   0  0  0  0  0  1  0  0  0  0  0  0
  185.0040  178.8360  140.4780 C   0  0  0  0  0  3  0  0  0  0  0  0
  186.4200  178.4710  140.3100 C   0  0  0  0  0  0  0  0  0  0  0  0
  190.8440  176.1900  138.7120 C   0  0  2  0  0  3  0  0  0  0  0  0
  191.6930  176.7030  143.2830 C   0  0  0  0  0  2  0  0  0  0  0  0
  191.6790  176.7410  145.7840 C   0  0  0  0  0  1  0  0  0  0  0  0
  190.9090  176.3390  144.5410 C   0  0  0  0  0  2  0  0  0  0  0  0
  1 19  1  0  0  0  0
  1  5  1  0  0  0  0
  2 13  1  0  0  0  0
  2 16  2  0  0  0  0
  3 17  1  0  0  0  0
  4  1  2  0  0  0  0
  6  8  2  0  0  0  0
  7 15  1  6  0  0  0
  7 27  1  0  0  0  0
  8 11  1  0  0  0  0
  9 14  1  6  0  0  0
  9 22  1  0  0  0  0
  9  7  1  0  0  0  0
 10  3  1  0  0  0  0
 11  5  1  0  0  0  0
 11 28  1  1  0  0  0
 12  4  1  1  0  0  0
 12  8  1  0  0  0  0
 17 26  1  0  0  0  0
 18 13  1  0  0  0  0
 19  2  1  0  0  0  0
 20 17  2  0  0  0  0
 20  4  1  0  0  0  0
 21 10  2  0  0  0  0
 22 10  1  6  0  0  0
 22 20  1  0  0  0  0
 23 14  1  0  0  0  0
 23 15  1  0  0  0  0
 25 18  2  0  0  0  0
 26 25  1  0  0  0  0
 26 19  2  0  0  0  0
 27 24  1  6  0  0  0
 27 12  1  0  0  0  0
 28 30  1  0  0  0  0
 30 29  1  0  0  0  0
M  END
>  <MODEL>
3

>  <REMARK>
 VINA RESULT:      -8.7      2.458      6.100
  Name = 
  2 active torsions:
  status: ('A' for Active; 'I' for Inactive)
    1  A    between atoms: C_9  and  C_12
    2  A    between atoms: C_9  and  C_21
                            x       y       z     vdW  Elec       q    Type
                         _______ _______ _______ _____ _____    ______ ____

>  <TORSDO>
F 2

$$$$
=
 OpenBabel11052412253D

 30 35  0  0  1  0  0  0  0  0999 V2000
  186.9780  178.0450  141.5540 C   0  0  0  0  0  0  0  0  0  0  0  0
  186.4110  177.8780  144.0520 C   0  0  0  0  0  0  0  0  0  0  0  0
  183.1010  179.3760  140.6310 N   0  0  0  0  0  2  0  0  0  0  0  0
  186.5740  178.3880  140.2460 C   0  0  0  0  0  0  0  0  0  0  0  0
  188.3070  177.3680  141.7310 C   0  0  0  0  0  2  0  0  0  0  0  0
  189.8060  178.5150  138.5840 O   0  0  0  0  0  0  0  0  0  0  0  0
  185.7150  176.7270  138.0320 C   0  0  1  0  0  3  0  0  0  0  0  0
  188.9680  178.2470  139.4330 C   0  0  0  0  0  0  0  0  0  0  0  0
  184.4930  177.6470  138.0020 C   0  0  2  0  0  3  0  0  0  0  0  0
  183.2410  179.4120  139.2100 C   0  0  0  0  0  0  0  0  0  0  0  0
  189.4120  177.9550  140.8500 C   0  0  2  0  0  3  0  0  0  0  0  0
  187.5090  178.3300  139.0670 C   0  0  1  0  0  3  0  0  0  0  0  0
  185.5560  178.3860  145.1780 C   0  0  0  0  0  2  0  0  0  0  0  0
  184.0850  177.7830  136.6700 O   0  0  0  0  0  0  0  0  0  0  0  0
  185.4510  175.8290  136.8570 C   0  0  0  0  0  2  0  0  0  0  0  0
  187.4370  177.2040  144.3360 O   0  0  0  0  0  0  0  0  0  0  0  0
  184.3910  178.9860  141.0760 C   0  0  0  0  0  0  0  0  0  0  0  0
  184.1380  178.6620  144.7590 C   0  0  0  0  0  3  0  0  0  0  0  0
  186.0690  178.2150  142.6430 C   0  0  0  0  0  0  0  0  0  0  0  0
  185.2700  178.8220  140.0370 C   0  0  0  0  0  0  0  0  0  0  0  0
  182.2990  179.7580  138.4510 O   0  0  0  0  0  0  0  0  0  0  0  0
  184.5990  179.0030  138.7180 C   0  0  1  0  0  3  0  0  0  0  0  0
  184.3340  176.5250  136.0930 C   0  0  0  0  0  2  0  0  0  0  0  0
  187.2720  178.1630  136.5880 C   0  0  0  0  0  1  0  0  0  0  0  0
  183.7870  178.8440  143.4850 C   0  0  0  0  0  3  0  0  0  0  0  0
  184.7640  178.7120  142.3920 C   0  0  0  0  0  0  0  0  0  0  0  0
  187.1030  177.4090  137.9020 C   0  0  2  0  0  3  0  0  0  0  0  0
  190.6730  177.0860  140.9060 C   0  0  0  0  0  2  0  0  0  0  0  0
  191.4970  176.6050  143.2190 C   0  0  0  0  0  1  0  0  0  0  0  0
  191.6460  177.5030  142.0060 C   0  0  0  0  0  2  0  0  0  0  0  0
  1  5  1  0  0  0  0
  1 19  1  0  0  0  0
  2 16  2  0  0  0  0
  2 13  1  0  0  0  0
  3 17  1  0  0  0  0
  4  1  2  0  0  0  0
  6  8  2  0  0  0  0
  7 15  1  6  0  0  0
  8 11  1  0  0  0  0
  9 14  1  6  0  0  0
  9  7  1  0  0  0  0
  9 22  1  0  0  0  0
 10  3  1  0  0  0  0
 11 28  1  6  0  0  0
 11  5  1  0  0  0  0
 12  8  1  1  0  0  0
 12  4  1  0  0  0  0
 17 26  1  0  0  0  0
 18 13  1  0  0  0  0
 19  2  1  0  0  0  0
 20  4  1  0  0  0  0
 20 17  2  0  0  0  0
 21 10  2  0  0  0  0
 22 10  1  1  0  0  0
 22 20  1  0  0  0  0
 23 14  1  0  0  0  0
 23 15  1  0  0  0  0
 25 18  2  0  0  0  0
 26 19  2  0  0  0  0
 26 25  1  0  0  0  0
 27 24  1  6  0  0  0
 27  7  1  0  0  0  0
 27 12  1  0  0  0  0
 28 30  1  0  0  0  0
 30 29  1  0  0  0  0
M  END
>  <MODEL>
4

>  <REMARK>
 VINA RESULT:      -7.9      2.146      6.085
  Name = 
  2 active torsions:
  status: ('A' for Active; 'I' for Inactive)
    1  A    between atoms: C_9  and  C_12
    2  A    between atoms: C_9  and  C_21
                            x       y       z     vdW  Elec       q    Type
                         _______ _______ _______ _____ _____    ______ ____

>  <TORSDO>
F 2

$$$$
=
 OpenBabel11052412253D

 30 35  0  0  1  0  0  0  0  0999 V2000
  188.3170  177.7290  142.7400 C   0  0  0  0  0  0  0  0  0  0  0  0
  186.0970  177.7330  144.0300 C   0  0  0  0  0  0  0  0  0  0  0  0
  186.4150  178.9770  139.2070 N   0  0  0  0  0  2  0  0  0  0  0  0
  189.0140  177.9790  141.5390 C   0  0  0  0  0  0  0  0  0  0  0  0
  189.0590  177.0710  143.8680 C   0  0  0  0  0  2  0  0  0  0  0  0
  192.4340  178.0020  142.7710 O   0  0  0  0  0  0  0  0  0  0  0  0
  189.9660  176.1650  139.4900 C   0  0  1  0  0  3  0  0  0  0  0  0
  191.2310  177.7910  142.7470 C   0  0  0  0  0  0  0  0  0  0  0  0
  189.2010  177.0750  138.5280 C   0  0  2  0  0  3  0  0  0  0  0  0
  187.5500  178.9160  138.3430 C   0  0  0  0  0  0  0  0  0  0  0  0
  190.4830  177.5990  144.0490 C   0  0  2  0  0  3  0  0  0  0  0  0
  190.5090  177.8420  141.4260 C   0  0  1  0  0  3  0  0  0  0  0  0
  184.7160  178.3150  144.1420 C   0  0  0  0  0  2  0  0  0  0  0  0
  189.9030  177.1170  137.3180 O   0  0  0  0  0  0  0  0  0  0  0  0
  190.6020  175.1860  138.5440 C   0  0  0  0  0  2  0  0  0  0  0  0
  186.5540  177.0850  145.0080 O   0  0  0  0  0  0  0  0  0  0  0  0
  186.9490  178.6250  140.4740 C   0  0  0  0  0  0  0  0  0  0  0  0
  184.0700  178.5560  142.8060 C   0  0  0  0  0  3  0  0  0  0  0  0
  186.9090  177.9710  142.8050 C   0  0  0  0  0  0  0  0  0  0  0  0
  188.2990  178.3920  140.4210 C   0  0  0  0  0  0  0  0  0  0  0  0
  187.4810  179.2050  137.1200 O   0  0  0  0  0  0  0  0  0  0  0  0
  188.8150  178.4780  139.0250 C   0  0  1  0  0  3  0  0  0  0  0  0
  190.4330  175.8230  137.1720 C   0  0  0  0  0  2  0  0  0  0  0  0
  192.1510  177.5020  139.5780 C   0  0  0  0  0  1  0  0  0  0  0  0
  184.7700  178.6480  141.6740 C   0  0  0  0  0  3  0  0  0  0  0  0
  186.2280  178.4440  141.6540 C   0  0  0  0  0  0  0  0  0  0  0  0
  191.0390  176.8410  140.3840 C   0  0  2  0  0  3  0  0  0  0  0  0
  191.2590  176.7410  145.0550 C   0  0  0  0  0  2  0  0  0  0  0  0
  191.7100  176.2410  147.4640 C   0  0  0  0  0  1  0  0  0  0  0  0
  190.7350  176.8620  146.4830 C   0  0  0  0  0  2  0  0  0  0  0  0
  1 19  1  0  0  0  0
  1  5  1  0  0  0  0
  2 13  1  0  0  0  0
  2 16  2  0  0  0  0
  3 17  1  0  0  0  0
  4  1  2  0  0  0  0
  5 11  1  0  0  0  0
  7 15  1  6  0  0  0
  7 27  1  0  0  0  0
  8  6  2  0  0  0  0
  8 11  1  0  0  0  0
  9 14  1  6  0  0  0
  9 22  1  0  0  0  0
  9  7  1  0  0  0  0
 10  3  1  0  0  0  0
 11 28  1  1  0  0  0
 12  4  1  1  0  0  0
 12  8  1  0  0  0  0
 17 26  1  0  0  0  0
 18 13  1  0  0  0  0
 19  2  1  0  0  0  0
 20 17  2  0  0  0  0
 20  4  1  0  0  0  0
 21 10  2  0  0  0  0
 22 10  1  6  0  0  0
 22 20  1  0  0  0  0
 23 14  1  0  0  0  0
 23 15  1  0  0  0  0
 25 18  2  0  0  0  0
 26 25  1  0  0  0  0
 26 19  2  0  0  0  0
 27 24  1  6  0  0  0
 27 12  1  0  0  0  0
 28 30  1  0  0  0  0
 30 29  1  0  0  0  0
M  END
>  <MODEL>
5

>  <REMARK>
 VINA RESULT:      -7.8      2.083      5.723
  Name = 
  2 active torsions:
  status: ('A' for Active; 'I' for Inactive)
    1  A    between atoms: C_9  and  C_12
    2  A    between atoms: C_9  and  C_21
                            x       y       z     vdW  Elec       q    Type
                         _______ _______ _______ _____ _____    ______ ____

>  <TORSDO>
F 2

$$$$
=
 OpenBabel11052412253D

 30 35  0  0  1  0  0  0  0  0999 V2000
  187.8020  177.8370  141.1560 C   0  0  0  0  0  0  0  0  0  0  0  0
  187.8980  177.4580  143.6930 C   0  0  0  0  0  0  0  0  0  0  0  0
  183.7740  179.0190  141.3550 N   0  0  0  0  0  2  0  0  0  0  0  0
  187.0650  178.2510  140.0250 C   0  0  0  0  0  0  0  0  0  0  0  0
  189.1530  177.2210  140.9350 C   0  0  0  0  0  2  0  0  0  0  0  0
  189.7590  178.6730  137.6200 O   0  0  0  0  0  0  0  0  0  0  0  0
  185.7260  176.7110  137.9690 C   0  0  1  0  0  3  0  0  0  0  0  0
  189.1750  178.2990  138.6270 C   0  0  0  0  0  0  0  0  0  0  0  0
  184.5060  177.5630  138.3240 C   0  0  2  0  0  3  0  0  0  0  0  0
  183.5450  179.1660  139.9530 C   0  0  0  0  0  0  0  0  0  0  0  0
  189.9760  177.9300  139.8560 C   0  0  2  0  0  3  0  0  0  0  0  0
  187.6700  178.3290  138.6480 C   0  0  1  0  0  3  0  0  0  0  0  0
  187.3410  177.8360  145.0370 C   0  0  0  0  0  2  0  0  0  0  0  0
  183.7670  177.7740  137.1540 O   0  0  0  0  0  0  0  0  0  0  0  0
  185.2010  175.8870  136.8260 C   0  0  0  0  0  2  0  0  0  0  0  0
  188.9840  176.8220  143.6520 O   0  0  0  0  0  0  0  0  0  0  0  0
  185.1470  178.6680  141.4260 C   0  0  0  0  0  0  0  0  0  0  0  0
  185.8550  178.0650  145.0140 C   0  0  0  0  0  3  0  0  0  0  0  0
  187.1950  177.8780  142.4490 C   0  0  0  0  0  0  0  0  0  0  0  0
  185.7380  178.6280  140.1890 C   0  0  0  0  0  0  0  0  0  0  0  0
  182.4290  179.5150  139.4870 O   0  0  0  0  0  0  0  0  0  0  0  0
  184.7460  178.8680  139.1020 C   0  0  1  0  0  3  0  0  0  0  0  0
  183.9030  176.5760  136.4300 C   0  0  0  0  0  2  0  0  0  0  0  0
  186.8130  178.3300  136.3040 C   0  0  0  0  0  1  0  0  0  0  0  0
  185.1840  178.3200  143.8890 C   0  0  0  0  0  3  0  0  0  0  0  0
  185.8530  178.3200  142.5780 C   0  0  0  0  0  0  0  0  0  0  0  0
  187.0100  177.4740  137.5500 C   0  0  2  0  0  3  0  0  0  0  0  0
  191.2380  177.1280  139.5200 C   0  0  0  0  0  2  0  0  0  0  0  0
  191.9320  175.8050  137.5130 C   0  0  0  0  0  1  0  0  0  0  0  0
  190.9590  175.8890  138.6730 C   0  0  0  0  0  2  0  0  0  0  0  0
  1 19  1  0  0  0  0
  2 13  1  0  0  0  0
  3 17  1  0  0  0  0
  4 20  1  0  0  0  0
  4  1  2  0  0  0  0
  5  1  1  0  0  0  0
  6  8  2  0  0  0  0
  7 15  1  6  0  0  0
  7  9  1  0  0  0  0
  8 11  1  0  0  0  0
  9 14  1  6  0  0  0
  9 22  1  0  0  0  0
 10  3  1  0  0  0  0
 11 28  1  6  0  0  0
 11  5  1  0  0  0  0
 12  8  1  1  0  0  0
 12  4  1  0  0  0  0
 16  2  2  0  0  0  0
 17 26  1  0  0  0  0
 18 13  1  0  0  0  0
 19 26  2  0  0  0  0
 19  2  1  0  0  0  0
 20 17  2  0  0  0  0
 21 10  2  0  0  0  0
 22 10  1  1  0  0  0
 22 20  1  0  0  0  0
 23 15  1  0  0  0  0
 23 14  1  0  0  0  0
 25 18  2  0  0  0  0
 26 25  1  0  0  0  0
 27 24  1  6  0  0  0
 27  7  1  0  0  0  0
 27 12  1  0  0  0  0
 29 30  1  0  0  0  0
 30 28  1  0  0  0  0
M  END
>  <MODEL>
6

>  <REMARK>
 VINA RESULT:      -7.6      2.189      5.873
  Name = 
  2 active torsions:
  status: ('A' for Active; 'I' for Inactive)
    1  A    between atoms: C_9  and  C_12
    2  A    between atoms: C_9  and  C_21
                            x       y       z     vdW  Elec       q    Type
                         _______ _______ _______ _____ _____    ______ ____

>  <TORSDO>
F 2

$$$$
=
 OpenBabel11052412253D

 30 35  0  0  1  0  0  0  0  0999 V2000
  185.4750  178.5750  140.4570 C   0  0  0  0  0  0  0  0  0  0  0  0
  188.0210  178.4050  140.1720 C   0  0  0  0  0  0  0  0  0  0  0  0
  184.8200  177.3370  136.4960 N   0  0  0  0  0  2  0  0  0  0  0  0
  184.1870  178.4040  139.9080 C   0  0  0  0  0  0  0  0  0  0  0  0
  185.5930  179.2370  141.8000 C   0  0  0  0  0  2  0  0  0  0  0  0
  182.1750  178.5330  142.9350 O   0  0  0  0  0  0  0  0  0  0  0  0
  182.3220  180.3340  138.8150 C   0  0  1  0  0  3  0  0  0  0  0  0
  183.1390  178.6770  142.1980 C   0  0  0  0  0  0  0  0  0  0  0  0
  182.3050  179.4130  137.5940 C   0  0  2  0  0  3  0  0  0  0  0  0
  183.4000  177.4900  136.4770 C   0  0  0  0  0  0  0  0  0  0  0  0
  184.5250  178.7840  142.7970 C   0  0  2  0  0  3  0  0  0  0  0  0
  182.9290  178.6280  140.7070 C   0  0  1  0  0  3  0  0  0  0  0  0
  189.1570  177.7430  139.4450 C   0  0  0  0  0  2  0  0  0  0  0  0
  181.0210  179.4490  137.0390 O   0  0  0  0  0  0  0  0  0  0  0  0
  181.3130  181.3770  138.4260 C   0  0  0  0  0  2  0  0  0  0  0  0
  188.2770  179.0460  141.2260 O   0  0  0  0  0  0  0  0  0  0  0  0
  185.1670  177.6780  137.8290 C   0  0  0  0  0  0  0  0  0  0  0  0
  188.8660  177.5090  137.9880 C   0  0  0  0  0  3  0  0  0  0  0  0
  186.6270  178.2530  139.6740 C   0  0  0  0  0  0  0  0  0  0  0  0
  184.0680  177.9880  138.5880 C   0  0  0  0  0  0  0  0  0  0  0  0
  182.7100  177.2370  135.4550 O   0  0  0  0  0  0  0  0  0  0  0  0
  182.8200  177.9750  137.7740 C   0  0  1  0  0  3  0  0  0  0  0  0
  180.5920  180.7750  137.2280 C   0  0  0  0  0  2  0  0  0  0  0  0
  180.5370  179.1190  140.1960 C   0  0  0  0  0  1  0  0  0  0  0  0
  187.6260  177.4930  137.4970 C   0  0  0  0  0  3  0  0  0  0  0  0
  186.4580  177.7800  138.3470 C   0  0  0  0  0  0  0  0  0  0  0  0
  181.9490  179.6900  140.1770 C   0  0  2  0  0  3  0  0  0  0  0  0
  184.5550  179.6520  144.0610 C   0  0  0  0  0  2  0  0  0  0  0  0
  186.0800  178.1130  145.3110 C   0  0  0  0  0  1  0  0  0  0  0  0
  184.7540  178.8470  145.3420 C   0  0  0  0  0  2  0  0  0  0  0  0
  1  5  1  0  0  0  0
  2 16  2  0  0  0  0
  3 17  1  0  0  0  0
  4  1  1  0  0  0  0
  5 11  1  0  0  0  0
  7 15  1  6  0  0  0
  7 27  1  0  0  0  0
  8 11  1  0  0  0  0
  8  6  2  0  0  0  0
  9 14  1  1  0  0  0
  9 22  1  0  0  0  0
  9  7  1  0  0  0  0
 10  3  1  0  0  0  0
 11 28  1  1  0  0  0
 12  4  1  6  0  0  0
 12  8  1  0  0  0  0
 13  2  1  0  0  0  0
 14 23  1  0  0  0  0
 17 26  2  0  0  0  0
 17 20  1  0  0  0  0
 18 13  1  0  0  0  0
 19  2  1  0  0  0  0
 19  1  2  0  0  0  0
 20  4  2  0  0  0  0
 21 10  2  0  0  0  0
 22 10  1  6  0  0  0
 22 20  1  0  0  0  0
 23 15  1  0  0  0  0
 25 18  2  0  0  0  0
 25 26  1  0  0  0  0
 26 19  1  0  0  0  0
 27 24  1  6  0  0  0
 27 12  1  0  0  0  0
 28 30  1  0  0  0  0
 29 30  1  0  0  0  0
M  END
>  <MODEL>
7

>  <REMARK>
 VINA RESULT:      -7.2      3.313      8.300
  Name = 
  2 active torsions:
  status: ('A' for Active; 'I' for Inactive)
    1  A    between atoms: C_9  and  C_12
    2  A    between atoms: C_9  and  C_21
                            x       y       z     vdW  Elec       q    Type
                         _______ _______ _______ _____ _____    ______ ____

>  <TORSDO>
F 2

$$$$
=
 OpenBabel11052412253D

 30 35  0  0  1  0  0  0  0  0999 V2000
  185.4730  178.3890  141.2700 C   0  0  0  0  0  0  0  0  0  0  0  0
  184.5180  178.4510  143.6530 C   0  0  0  0  0  0  0  0  0  0  0  0
  181.6850  179.1010  139.5960 N   0  0  0  0  0  2  0  0  0  0  0  0
  185.2580  178.5200  139.8810 C   0  0  0  0  0  0  0  0  0  0  0  0
  186.8170  177.9110  141.7390 C   0  0  0  0  0  2  0  0  0  0  0  0
  188.6900  178.8530  138.7280 O   0  0  0  0  0  0  0  0  0  0  0  0
  184.9590  176.5120  137.8140 C   0  0  1  0  0  3  0  0  0  0  0  0
  187.7550  178.5850  139.4680 C   0  0  0  0  0  0  0  0  0  0  0  0
  183.6700  177.2600  137.4720 C   0  0  2  0  0  3  0  0  0  0  0  0
  182.0550  178.9860  138.2210 C   0  0  0  0  0  0  0  0  0  0  0  0
  187.9850  178.5230  140.9620 C   0  0  2  0  0  3  0  0  0  0  0  0
  186.3780  178.4390  138.8770 C   0  0  1  0  0  3  0  0  0  0  0  0
  183.4390  178.9780  144.5550 C   0  0  0  0  0  2  0  0  0  0  0  0
  183.4770  177.1840  136.0880 O   0  0  0  0  0  0  0  0  0  0  0  0
  184.9910  175.4540  136.7480 C   0  0  0  0  0  2  0  0  0  0  0  0
  185.5470  177.9510  144.1790 O   0  0  0  0  0  0  0  0  0  0  0  0
  182.9160  178.9340  140.2810 C   0  0  0  0  0  0  0  0  0  0  0  0
  182.0890  179.0220  143.8920 C   0  0  0  0  0  3  0  0  0  0  0  0
  184.3820  178.5720  142.1750 C   0  0  0  0  0  0  0  0  0  0  0  0
  183.9690  178.7580  139.4200 C   0  0  0  0  0  0  0  0  0  0  0  0
  181.2220  179.1170  137.2880 O   0  0  0  0  0  0  0  0  0  0  0  0
  183.5120  178.6950  138.0020 C   0  0  1  0  0  3  0  0  0  0  0  0
  183.9490  175.9080  135.7350 C   0  0  0  0  0  2  0  0  0  0  0  0
  186.5750  177.9490  136.4380 C   0  0  0  0  0  1  0  0  0  0  0  0
  181.9380  179.0050  142.5670 C   0  0  0  0  0  3  0  0  0  0  0  0
  183.0920  178.8670  141.6630 C   0  0  0  0  0  0  0  0  0  0  0  0
  186.2700  177.3420  137.8030 C   0  0  2  0  0  3  0  0  0  0  0  0
  189.3040  177.8320  141.3280 C   0  0  0  0  0  2  0  0  0  0  0  0
  190.3430  176.7730  143.3420 C   0  0  0  0  0  1  0  0  0  0  0  0
  189.7050  178.0310  142.7870 C   0  0  0  0  0  2  0  0  0  0  0  0
  1  5  1  0  0  0  0
  1 19  1  0  0  0  0
  2 16  2  0  0  0  0
  2 13  1  0  0  0  0
  3 17  1  0  0  0  0
  4  1  2  0  0  0  0
  6  8  2  0  0  0  0
  7 15  1  6  0  0  0
  8 11  1  0  0  0  0
  9 14  1  6  0  0  0
  9  7  1  0  0  0  0
  9 22  1  0  0  0  0
 10  3  1  0  0  0  0
 11 28  1  6  0  0  0
 11  5  1  0  0  0  0
 12  8  1  1  0  0  0
 12  4  1  0  0  0  0
 17 26  1  0  0  0  0
 18 13  1  0  0  0  0
 19  2  1  0  0  0  0
 20  4  1  0  0  0  0
 20 17  2  0  0  0  0
 21 10  2  0  0  0  0
 22 10  1  1  0  0  0
 22 20  1  0  0  0  0
 23 14  1  0  0  0  0
 23 15  1  0  0  0  0
 25 18  2  0  0  0  0
 26 19  2  0  0  0  0
 26 25  1  0  0  0  0
 27 24  1  6  0  0  0
 27  7  1  0  0  0  0
 27 12  1  0  0  0  0
 28 30  1  0  0  0  0
 30 29  1  0  0  0  0
M  END
>  <MODEL>
8

>  <REMARK>
 VINA RESULT:      -7.0      2.743      6.626
  Name = 
  2 active torsions:
  status: ('A' for Active; 'I' for Inactive)
    1  A    between atoms: C_9  and  C_12
    2  A    between atoms: C_9  and  C_21
                            x       y       z     vdW  Elec       q    Type
                         _______ _______ _______ _____ _____    ______ ____

>  <TORSDO>
F 2

$$$$
=
 OpenBabel11052412253D

 30 35  0  0  1  0  0  0  0  0999 V2000
  188.5660  177.3230  139.2910 C   0  0  0  0  0  0  0  0  0  0  0  0
  190.0120  176.1660  137.5130 C   0  0  0  0  0  0  0  0  0  0  0  0
  191.8510  177.7350  141.8790 N   0  0  0  0  0  2  0  0  0  0  0  0
  188.4800  177.9590  140.5480 C   0  0  0  0  0  0  0  0  0  0  0  0
  187.2900  177.0300  138.5550 C   0  0  0  0  0  2  0  0  0  0  0  0
  185.2230  179.5470  140.2430 O   0  0  0  0  0  0  0  0  0  0  0  0
  187.5480  176.9760  143.1090 C   0  0  1  0  0  3  0  0  0  0  0  0
  186.1470  178.7830  140.0070 C   0  0  0  0  0  0  0  0  0  0  0  0
  188.9000  177.4670  143.6290 C   0  0  2  0  0  3  0  0  0  0  0  0
  191.1510  178.2880  142.9940 C   0  0  0  0  0  0  0  0  0  0  0  0
  186.2690  178.1670  138.6310 C   0  0  2  0  0  3  0  0  0  0  0  0
  187.2020  178.5700  141.0610 C   0  0  1  0  0  3  0  0  0  0  0  0
  191.3880  175.9990  136.9340 C   0  0  0  0  0  2  0  0  0  0  0  0
  188.7220  177.9250  144.9390 O   0  0  0  0  0  0  0  0  0  0  0  0
  186.8920  176.4930  144.3720 C   0  0  0  0  0  2  0  0  0  0  0  0
  189.0270  175.7540  136.8440 O   0  0  0  0  0  0  0  0  0  0  0  0
  190.8390  177.5990  140.8940 C   0  0  0  0  0  0  0  0  0  0  0  0
  192.4680  175.9890  137.9810 C   0  0  0  0  0  3  0  0  0  0  0  0
  189.8310  176.8500  138.8230 C   0  0  0  0  0  0  0  0  0  0  0  0
  189.6210  178.0510  141.3340 C   0  0  0  0  0  0  0  0  0  0  0  0
  191.7320  178.5900  144.0690 O   0  0  0  0  0  0  0  0  0  0  0  0
  189.6790  178.4710  142.7630 C   0  0  1  0  0  3  0  0  0  0  0  0
  187.7570  177.0610  145.4880 C   0  0  0  0  0  2  0  0  0  0  0  0
  186.2750  179.1920  143.2920 C   0  0  0  0  0  1  0  0  0  0  0  0
  192.2870  176.4850  139.2050 C   0  0  0  0  0  3  0  0  0  0  0  0
  190.9810  177.0120  139.6360 C   0  0  0  0  0  0  0  0  0  0  0  0
  186.6560  178.0230  142.3920 C   0  0  2  0  0  3  0  0  0  0  0  0
  184.9170  177.7230  138.0610 C   0  0  0  0  0  2  0  0  0  0  0  0
  184.8870  176.9050  135.6970 C   0  0  0  0  0  1  0  0  0  0  0  0
  185.0160  176.5000  137.1520 C   0  0  0  0  0  2  0  0  0  0  0  0
  1  4  1  0  0  0  0
  2 19  1  0  0  0  0
  3 10  1  0  0  0  0
  4 12  1  0  0  0  0
  4 20  2  0  0  0  0
  5 11  1  0  0  0  0
  5  1  1  0  0  0  0
  7  9  1  0  0  0  0
  7 15  1  1  0  0  0
  8  6  2  0  0  0  0
  9 14  1  1  0  0  0
 10 21  2  0  0  0  0
 11 28  1  1  0  0  0
 11  8  1  0  0  0  0
 12  8  1  6  0  0  0
 12 27  1  0  0  0  0
 13  2  1  0  0  0  0
 13 18  1  0  0  0  0
 14 23  1  0  0  0  0
 15 23  1  0  0  0  0
 16  2  2  0  0  0  0
 17 20  1  0  0  0  0
 17  3  1  0  0  0  0
 18 25  2  0  0  0  0
 19  1  2  0  0  0  0
 19 26  1  0  0  0  0
 22 20  1  6  0  0  0
 22 10  1  0  0  0  0
 22  9  1  0  0  0  0
 25 26  1  0  0  0  0
 26 17  2  0  0  0  0
 27  7  1  0  0  0  0
 27 24  1  1  0  0  0
 29 30  1  0  0  0  0
 30 28  1  0  0  0  0
M  END
>  <MODEL>
9

>  <REMARK>
 VINA RESULT:      -6.9      2.230      5.226
  Name = 
  2 active torsions:
  status: ('A' for Active; 'I' for Inactive)
    1  A    between atoms: C_9  and  C_12
    2  A    between atoms: C_9  and  C_21
                            x       y       z     vdW  Elec       q    Type
                         _______ _______ _______ _____ _____    ______ ____

>  <TORSDO>
F 2

$$$$
