=
 OpenBabel11052414203D

 34 37  0  0  1  0  0  0  0  0999 V2000
  188.1380  177.8220  141.9070 N   0  0  0  0  0  0  0  0  0  0  0  0
  190.1250  178.1440  143.2520 C   0  0  2  0  0  3  0  0  0  0  0  0
  189.3130  177.6680  141.0550 C   0  0  1  0  0  3  0  0  0  0  0  0
  190.5120  177.4670  141.9550 C   0  0  1  0  0  3  0  0  0  0  0  0
  188.6080  178.0650  143.2750 C   0  0  2  0  0  3  0  0  0  0  0  0
  190.5060  179.4870  143.2490 O   0  0  0  0  0  1  0  0  0  0  0  0
  189.7750  177.0050  146.1070 C   0  0  0  0  0  3  0  0  0  0  0  0
  187.5240  177.8080  146.5520 C   0  0  0  0  0  0  0  0  0  0  0  0
  188.1160  176.9510  144.2200 C   0  0  2  0  0  3  0  0  0  0  0  0
  187.9020  178.1050  147.8650 C   0  0  0  0  0  3  0  0  0  0  0  0
  186.0760  177.9630  146.1770 C   0  0  0  0  0  2  0  0  0  0  0  0
  186.6060  176.7280  144.0700 C   0  0  0  0  0  2  0  0  0  0  0  0
  188.4690  177.2480  145.6600 C   0  0  0  0  0  0  0  0  0  0  0  0
  189.2100  177.8690  148.2950 C   0  0  0  0  0  3  0  0  0  0  0  0
  190.1450  177.3160  147.4170 C   0  0  0  0  0  3  0  0  0  0  0  0
  185.8430  177.9030  144.6700 C   0  0  0  0  0  2  0  0  0  0  0  0
  191.6570  178.0390  141.3910 O   0  0  0  0  0  0  0  0  0  0  0  0
  192.5550  176.9810  141.2540 C   0  0  0  0  0  2  0  0  0  0  0  0
  193.4420  177.1430  139.6800 S   0  0  0  0  0  1  0  0  0  0  0  0
  187.4510  179.0270  141.4740 C   0  0  0  0  0  2  0  0  0  0  0  0
  186.2330  178.6040  140.1990 S   0  0  0  0  0  0  0  0  0  0  0  0
  184.8500  178.9890  141.3050 C   0  0  0  0  0  2  0  0  0  0  0  0
  183.5420  178.7420  140.5810 C   0  0  0  0  0  2  0  0  0  0  0  0
  180.0810  178.4800  141.8950 C   0  0  0  0  0  2  0  0  0  0  0  0
  182.4250  179.0550  141.4560 N   0  0  0  0  0  0  0  0  0  0  0  0
  181.3240  178.1780  141.0610 C   0  0  0  0  0  2  0  0  0  0  0  0
  179.4950  178.2280  144.2090 N   0  0  0  0  0  2  0  0  0  0  0  0
  181.7200  179.0340  143.8070 C   0  0  0  0  0  2  0  0  0  0  0  0
  182.8270  178.6840  142.8140 C   0  0  0  0  0  2  0  0  0  0  0  0
  180.4260  178.4260  143.3540 C   0  0  0  0  0  0  0  0  0  0  0  0
  189.1280  176.4660  140.1450 C   0  0  0  0  0  2  0  0  0  0  0  0
  189.9160  176.7660  138.5360 S   0  0  0  0  0  0  0  0  0  0  0  0
  189.4460  178.5160  138.5610 C   0  0  0  0  0  2  0  0  0  0  0  0
  188.8720  178.9020  137.2140 C   0  0  0  0  0  1  0  0  0  0  0  0
  2  6  1  6  0  0  0
  2  5  1  0  0  0  0
  3 31  1  6  0  0  0
  3  1  1  0  0  0  0
  3  4  1  0  0  0  0
  4 17  1  6  0  0  0
  4  2  1  0  0  0  0
  5  1  1  6  0  0  0
  5  9  1  0  0  0  0
  7 15  1  0  0  0  0
  8 10  2  0  0  0  0
  9 12  1  1  0  0  0
  9 13  1  0  0  0  0
 10 14  1  0  0  0  0
 11  8  1  0  0  0  0
 12 16  1  0  0  0  0
 13  7  2  0  0  0  0
 13  8  1  0  0  0  0
 15 14  2  0  0  0  0
 16 11  1  0  0  0  0
 18 17  1  0  0  0  0
 19 18  1  0  0  0  0
 20  1  1  0  0  0  0
 21 22  1  0  0  0  0
 21 20  1  0  0  0  0
 23 22  1  0  0  0  0
 23 25  1  0  0  0  0
 24 30  1  0  0  0  0
 25 29  1  0  0  0  0
 26 25  1  0  0  0  0
 26 24  1  0  0  0  0
 29 28  1  0  0  0  0
 30 28  1  0  0  0  0
 30 27  2  0  0  0  0
 32 33  1  0  0  0  0
 32 31  1  0  0  0  0
 34 33  1  0  0  0  0
M  END
>  <MODEL>
1

>  <REMARK>
 VINA RESULT:      -6.7      0.000      0.000
  Name = 
  11 active torsions:
  status: ('A' for Active; 'I' for Inactive)
    1  A    between atoms: C_3  and  N_13
    2  A    between atoms: C_3  and  C_17
    3  A    between atoms: C_4  and  C_31
    4  A    between atoms: N_5  and  C_18
    5  A    between atoms: C_7  and  O_8
    6  A    between atoms: O_8  and  C_28
    7  A    between atoms: C_12  and  S_16
    8  A    between atoms: S_16  and  C_23
    9  A    between atoms: C_17  and  S_29
   10  A    between atoms: C_18  and  S_29
   11  A    between atoms: C_23  and  C_26
                            x       y       z     vdW  Elec       q    Type
                         _______ _______ _______ _____ _____    ______ ____

>  <TORSDO>
F 11

$$$$
=
 OpenBabel11052414203D

 34 37  0  0  1  0  0  0  0  0999 V2000
  186.7690  177.8920  139.2120 N   0  0  0  0  0  0  0  0  0  0  0  0
  188.7790  178.4180  137.9710 C   0  0  2  0  0  3  0  0  0  0  0  0
  186.4460  177.9340  137.7890 C   0  0  1  0  0  3  0  0  0  0  0  0
  187.7460  177.8570  137.0190 C   0  0  1  0  0  3  0  0  0  0  0  0
  188.2080  178.1360  139.3500 C   0  0  2  0  0  3  0  0  0  0  0  0
  188.9090  179.7990  137.8100 O   0  0  0  0  0  1  0  0  0  0  0  0
  190.7440  176.3530  138.3990 C   0  0  0  0  0  3  0  0  0  0  0  0
  191.3640  177.3450  140.5310 C   0  0  0  0  0  0  0  0  0  0  0  0
  188.8990  176.9260  140.0080 C   0  0  2  0  0  3  0  0  0  0  0  0
  192.7080  177.3040  140.1450 C   0  0  0  0  0  3  0  0  0  0  0  0
  191.0400  177.7720  141.9360 C   0  0  0  0  0  2  0  0  0  0  0  0
  188.7160  176.9480  141.5310 C   0  0  0  0  0  2  0  0  0  0  0  0
  190.3670  176.8610  139.6500 C   0  0  0  0  0  0  0  0  0  0  0  0
  193.0690  176.8060  138.8910 C   0  0  0  0  0  3  0  0  0  0  0  0
  192.0870  176.3280  138.0200 C   0  0  0  0  0  3  0  0  0  0  0  0
  189.5570  178.0630  142.1410 C   0  0  0  0  0  2  0  0  0  0  0  0
  187.6670  178.6010  135.8370 O   0  0  0  0  0  0  0  0  0  0  0  0
  187.7600  177.6580  134.8140 C   0  0  0  0  0  2  0  0  0  0  0  0
  189.4820  177.1170  134.6470 S   0  0  0  0  0  1  0  0  0  0  0  0
  186.0870  179.0120  139.8390 C   0  0  0  0  0  2  0  0  0  0  0  0
  184.6730  178.4010  140.7960 S   0  0  0  0  0  0  0  0  0  0  0  0
  185.2530  179.2320  142.2980 C   0  0  0  0  0  2  0  0  0  0  0  0
  184.8280  178.4300  143.5130 C   0  0  0  0  0  2  0  0  0  0  0  0
  185.9270  178.8550  147.0320 C   0  0  0  0  0  2  0  0  0  0  0  0
  185.7780  178.6290  144.5930 N   0  0  0  0  0  0  0  0  0  0  0  0
  185.0110  178.5930  145.8380 C   0  0  0  0  0  2  0  0  0  0  0  0
  187.7310  177.6610  148.0710 N   0  0  0  0  0  2  0  0  0  0  0  0
  187.7480  177.6370  145.6710 C   0  0  0  0  0  2  0  0  0  0  0  0
  186.6800  177.4760  144.5900 C   0  0  0  0  0  2  0  0  0  0  0  0
  187.0910  177.9090  146.9920 C   0  0  0  0  0  0  0  0  0  0  0  0
  185.5510  176.7590  137.4350 C   0  0  0  0  0  2  0  0  0  0  0  0
  186.5460  175.2590  137.1920 S   0  0  0  0  0  0  0  0  0  0  0  0
  185.0780  174.1970  137.2620 C   0  0  0  0  0  2  0  0  0  0  0  0
  185.4840  172.8050  137.6980 C   0  0  0  0  0  1  0  0  0  0  0  0
  1 20  1  0  0  0  0
  2  6  1  6  0  0  0
  2  5  1  0  0  0  0
  3 31  1  6  0  0  0
  3  1  1  0  0  0  0
  4 17  1  6  0  0  0
  4  3  1  0  0  0  0
  4  2  1  0  0  0  0
  5  1  1  6  0  0  0
  5  9  1  0  0  0  0
  7 13  1  0  0  0  0
  8 11  1  0  0  0  0
  9 12  1  1  0  0  0
 10  8  1  0  0  0  0
 11 16  1  0  0  0  0
 12 16  1  0  0  0  0
 13  9  1  0  0  0  0
 13  8  2  0  0  0  0
 14 10  2  0  0  0  0
 15  7  2  0  0  0  0
 15 14  1  0  0  0  0
 18 17  1  0  0  0  0
 19 18  1  0  0  0  0
 20 21  1  0  0  0  0
 21 22  1  0  0  0  0
 22 23  1  0  0  0  0
 23 25  1  0  0  0  0
 25 26  1  0  0  0  0
 26 24  1  0  0  0  0
 28 30  1  0  0  0  0
 29 25  1  0  0  0  0
 29 28  1  0  0  0  0
 30 24  1  0  0  0  0
 30 27  2  0  0  0  0
 32 33  1  0  0  0  0
 32 31  1  0  0  0  0
 33 34  1  0  0  0  0
M  END
>  <MODEL>
2

>  <REMARK>
 VINA RESULT:      -6.4      3.024      6.134
  Name = 
  11 active torsions:
  status: ('A' for Active; 'I' for Inactive)
    1  A    between atoms: C_3  and  N_13
    2  A    between atoms: C_3  and  C_17
    3  A    between atoms: C_4  and  C_31
    4  A    between atoms: N_5  and  C_18
    5  A    between atoms: C_7  and  O_8
    6  A    between atoms: O_8  and  C_28
    7  A    between atoms: C_12  and  S_16
    8  A    between atoms: S_16  and  C_23
    9  A    between atoms: C_17  and  S_29
   10  A    between atoms: C_18  and  S_29
   11  A    between atoms: C_23  and  C_26
                            x       y       z     vdW  Elec       q    Type
                         _______ _______ _______ _____ _____    ______ ____

>  <TORSDO>
F 11

$$$$
=
 OpenBabel11052414203D

 34 37  0  0  1  0  0  0  0  0999 V2000
  182.6160  178.0100  138.1460 N   0  0  0  0  0  0  0  0  0  0  0  0
  184.3950  179.0020  139.4540 C   0  0  2  0  0  3  0  0  0  0  0  0
  183.8740  177.8600  137.4200 C   0  0  1  0  0  3  0  0  0  0  0  0
  185.0020  178.1040  138.3980 C   0  0  1  0  0  3  0  0  0  0  0  0
  182.9140  178.6640  139.4240 C   0  0  2  0  0  3  0  0  0  0  0  0
  184.5570  180.3480  139.1200 O   0  0  0  0  0  1  0  0  0  0  0  0
  184.4650  177.9560  142.1810 C   0  0  0  0  0  3  0  0  0  0  0  0
  182.3640  178.9970  142.8250 C   0  0  0  0  0  0  0  0  0  0  0  0
  182.5210  177.7500  140.6010 C   0  0  2  0  0  3  0  0  0  0  0  0
  182.9660  179.4590  143.9990 C   0  0  0  0  0  3  0  0  0  0  0  0
  180.8850  179.2090  142.6530 C   0  0  0  0  0  2  0  0  0  0  0  0
  180.9960  177.6290  140.7200 C   0  0  0  0  0  2  0  0  0  0  0  0
  183.1200  178.2330  141.9030 C   0  0  0  0  0  0  0  0  0  0  0  0
  184.3120  179.1860  144.2590 C   0  0  0  0  0  3  0  0  0  0  0  0
  185.0600  178.4330  143.3520 C   0  0  0  0  0  3  0  0  0  0  0  0
  180.4080  178.9390  141.2290 C   0  0  0  0  0  2  0  0  0  0  0  0
  186.0880  178.7120  137.7600 O   0  0  0  0  0  0  0  0  0  0  0  0
  187.1240  177.7840  137.8570 C   0  0  0  0  0  2  0  0  0  0  0  0
  188.0980  178.1210  139.3490 S   0  0  0  0  0  1  0  0  0  0  0  0
  181.7880  178.9300  137.3820 C   0  0  0  0  0  2  0  0  0  0  0  0
  180.5000  178.0000  136.5080 S   0  0  0  0  0  0  0  0  0  0  0  0
  180.0460  179.4460  135.5140 C   0  0  0  0  0  2  0  0  0  0  0  0
  178.9410  180.2120  136.2150 C   0  0  0  0  0  2  0  0  0  0  0  0
  179.9460  183.4100  137.8060 C   0  0  0  0  0  2  0  0  0  0  0  0
  179.2740  181.6250  136.2630 N   0  0  0  0  0  0  0  0  0  0  0  0
  179.6360  181.9230  137.6480 C   0  0  0  0  0  2  0  0  0  0  0  0
  181.6740  184.8710  137.0050 N   0  0  0  0  0  2  0  0  0  0  0  0
  180.8520  183.2920  135.3950 C   0  0  0  0  0  2  0  0  0  0  0  0
  180.4680  181.8140  135.4380 C   0  0  0  0  0  2  0  0  0  0  0  0
  180.9720  183.8230  136.7920 C   0  0  0  0  0  0  0  0  0  0  0  0
  183.9660  176.4570  136.8460 C   0  0  0  0  0  2  0  0  0  0  0  0
  183.3580  175.2410  138.0510 S   0  0  0  0  0  0  0  0  0  0  0  0
  182.1810  174.5520  136.8570 C   0  0  0  0  0  2  0  0  0  0  0  0
  182.1950  173.0410  136.9530 C   0  0  0  0  0  1  0  0  0  0  0  0
  2  6  1  6  0  0  0
  3 31  1  1  0  0  0
  3  1  1  0  0  0  0
  3  4  1  0  0  0  0
  4 17  1  6  0  0  0
  4  2  1  0  0  0  0
  5  1  1  6  0  0  0
  5  2  1  0  0  0  0
  5  9  1  0  0  0  0
  7 15  1  0  0  0  0
  8 10  2  0  0  0  0
  9 12  1  1  0  0  0
  9 13  1  0  0  0  0
 10 14  1  0  0  0  0
 11  8  1  0  0  0  0
 12 16  1  0  0  0  0
 13  7  2  0  0  0  0
 13  8  1  0  0  0  0
 15 14  2  0  0  0  0
 16 11  1  0  0  0  0
 17 18  1  0  0  0  0
 18 19  1  0  0  0  0
 20  1  1  0  0  0  0
 21 20  1  0  0  0  0
 22 23  1  0  0  0  0
 22 21  1  0  0  0  0
 23 25  1  0  0  0  0
 25 26  1  0  0  0  0
 26 24  1  0  0  0  0
 28 29  1  0  0  0  0
 28 30  1  0  0  0  0
 29 25  1  0  0  0  0
 30 27  2  0  0  0  0
 30 24  1  0  0  0  0
 31 32  1  0  0  0  0
 33 34  1  0  0  0  0
 33 32  1  0  0  0  0
M  END
>  <MODEL>
3

>  <REMARK>
 VINA RESULT:      -6.2      4.593      7.068
  Name = 
  11 active torsions:
  status: ('A' for Active; 'I' for Inactive)
    1  A    between atoms: C_3  and  N_13
    2  A    between atoms: C_3  and  C_17
    3  A    between atoms: C_4  and  C_31
    4  A    between atoms: N_5  and  C_18
    5  A    between atoms: C_7  and  O_8
    6  A    between atoms: O_8  and  C_28
    7  A    between atoms: C_12  and  S_16
    8  A    between atoms: S_16  and  C_23
    9  A    between atoms: C_17  and  S_29
   10  A    between atoms: C_18  and  S_29
   11  A    between atoms: C_23  and  C_26
                            x       y       z     vdW  Elec       q    Type
                         _______ _______ _______ _____ _____    ______ ____

>  <TORSDO>
F 11

$$$$
=
 OpenBabel11052414203D

 34 37  0  0  1  0  0  0  0  0999 V2000
  188.5880  177.7050  141.6480 N   0  0  0  0  0  0  0  0  0  0  0  0
  190.6660  177.9390  142.8660 C   0  0  2  0  0  3  0  0  0  0  0  0
  189.6990  177.5920  140.7080 C   0  0  1  0  0  3  0  0  0  0  0  0
  190.9560  177.3340  141.5100 C   0  0  1  0  0  3  0  0  0  0  0  0
  189.1530  177.8680  142.9900 C   0  0  2  0  0  3  0  0  0  0  0  0
  191.0590  179.2790  142.9110 O   0  0  0  0  0  1  0  0  0  0  0  0
  190.3700  176.7930  145.7960 C   0  0  0  0  0  3  0  0  0  0  0  0
  188.0800  177.4690  146.2560 C   0  0  0  0  0  0  0  0  0  0  0  0
  188.7180  176.7060  143.9040 C   0  0  2  0  0  3  0  0  0  0  0  0
  188.4410  177.7500  147.5780 C   0  0  0  0  0  3  0  0  0  0  0  0
  186.6260  177.5600  145.8820 C   0  0  0  0  0  2  0  0  0  0  0  0
  187.2210  176.4100  143.7440 C   0  0  0  0  0  2  0  0  0  0  0  0
  189.0540  176.9820  145.3520 C   0  0  0  0  0  0  0  0  0  0  0  0
  189.7590  177.5690  148.0050 C   0  0  0  0  0  3  0  0  0  0  0  0
  190.7220  177.0880  147.1150 C   0  0  0  0  0  3  0  0  0  0  0  0
  186.3990  177.5280  144.3730 C   0  0  0  0  0  2  0  0  0  0  0  0
  192.0640  177.9310  140.8990 O   0  0  0  0  0  0  0  0  0  0  0  0
  192.9170  176.8700  140.5930 C   0  0  0  0  0  2  0  0  0  0  0  0
  193.0550  176.7080  138.7920 S   0  0  0  0  0  1  0  0  0  0  0  0
  187.8830  178.9370  141.3310 C   0  0  0  0  0  2  0  0  0  0  0  0
  186.4950  178.5720  140.2230 S   0  0  0  0  0  0  0  0  0  0  0  0
  185.2900  179.1700  141.4370 C   0  0  0  0  0  2  0  0  0  0  0  0
  184.0580  178.2880  141.4000 C   0  0  0  0  0  2  0  0  0  0  0  0
  182.3620  176.5870  138.5700 C   0  0  0  0  0  2  0  0  0  0  0  0
  183.6180  178.1110  140.0260 N   0  0  0  0  0  0  0  0  0  0  0  0
  182.8200  176.8860  139.9970 C   0  0  0  0  0  2  0  0  0  0  0  0
  180.8630  177.6410  137.0200 N   0  0  0  0  0  2  0  0  0  0  0  0
  182.2660  179.1450  138.2580 C   0  0  0  0  0  2  0  0  0  0  0  0
  182.7310  179.2310  139.7110 C   0  0  0  0  0  2  0  0  0  0  0  0
  181.6750  177.7910  137.9980 C   0  0  0  0  0  0  0  0  0  0  0  0
  189.4400  176.4440  139.7480 C   0  0  0  0  0  2  0  0  0  0  0  0
  189.2890  177.0660  138.0480 S   0  0  0  0  0  0  0  0  0  0  0  0
  189.5720  175.4160  137.3520 C   0  0  0  0  0  2  0  0  0  0  0  0
  188.2640  174.8620  136.8250 C   0  0  0  0  0  1  0  0  0  0  0  0
  2  6  1  6  0  0  0
  2  5  1  0  0  0  0
  3 31  1  6  0  0  0
  3  4  1  0  0  0  0
  3  1  1  0  0  0  0
  4 17  1  6  0  0  0
  4  2  1  0  0  0  0
  5  1  1  6  0  0  0
  5  9  1  0  0  0  0
  7 15  1  0  0  0  0
  8 10  2  0  0  0  0
  9 12  1  1  0  0  0
  9 13  1  0  0  0  0
 10 14  1  0  0  0  0
 11  8  1  0  0  0  0
 12 16  1  0  0  0  0
 13  7  2  0  0  0  0
 13  8  1  0  0  0  0
 15 14  2  0  0  0  0
 16 11  1  0  0  0  0
 18 17  1  0  0  0  0
 19 18  1  0  0  0  0
 20  1  1  0  0  0  0
 21 20  1  0  0  0  0
 21 22  1  0  0  0  0
 23 22  1  0  0  0  0
 24 26  1  0  0  0  0
 25 23  1  0  0  0  0
 26 25  1  0  0  0  0
 27 30  2  0  0  0  0
 28 29  1  0  0  0  0
 29 25  1  0  0  0  0
 30 28  1  0  0  0  0
 30 24  1  0  0  0  0
 32 31  1  0  0  0  0
 33 32  1  0  0  0  0
 34 33  1  0  0  0  0
M  END
>  <MODEL>
4

>  <REMARK>
 VINA RESULT:      -6.2      1.872      2.395
  Name = 
  11 active torsions:
  status: ('A' for Active; 'I' for Inactive)
    1  A    between atoms: C_3  and  N_13
    2  A    between atoms: C_3  and  C_17
    3  A    between atoms: C_4  and  C_31
    4  A    between atoms: N_5  and  C_18
    5  A    between atoms: C_7  and  O_8
    6  A    between atoms: O_8  and  C_28
    7  A    between atoms: C_12  and  S_16
    8  A    between atoms: S_16  and  C_23
    9  A    between atoms: C_17  and  S_29
   10  A    between atoms: C_18  and  S_29
   11  A    between atoms: C_23  and  C_26
                            x       y       z     vdW  Elec       q    Type
                         _______ _______ _______ _____ _____    ______ ____

>  <TORSDO>
F 11

$$$$
=
 OpenBabel11052414203D

 34 37  0  0  1  0  0  0  0  0999 V2000
  188.4850  177.4700  143.3480 N   0  0  0  0  0  0  0  0  0  0  0  0
  190.4710  176.1810  142.8420 C   0  0  2  0  0  3  0  0  0  0  0  0
  189.1750  177.1590  144.5960 C   0  0  1  0  0  3  0  0  0  0  0  0
  190.5830  176.7250  144.2490 C   0  0  1  0  0  3  0  0  0  0  0  0
  189.2860  176.9240  142.2480 C   0  0  2  0  0  3  0  0  0  0  0  0
  190.1850  174.8140  142.8550 O   0  0  0  0  0  1  0  0  0  0  0  0
  192.1520  177.4920  140.8420 C   0  0  0  0  0  3  0  0  0  0  0  0
  190.5500  177.1950  139.0370 C   0  0  0  0  0  0  0  0  0  0  0  0
  189.7450  178.0530  141.3040 C   0  0  2  0  0  3  0  0  0  0  0  0
  191.5810  176.7300  138.2150 C   0  0  0  0  0  3  0  0  0  0  0  0
  189.1910  177.4020  138.4260 C   0  0  0  0  0  2  0  0  0  0  0  0
  188.5620  178.6250  140.5120 C   0  0  0  0  0  2  0  0  0  0  0  0
  190.8360  177.5850  140.3670 C   0  0  0  0  0  0  0  0  0  0  0  0
  192.8860  176.6310  138.7040 C   0  0  0  0  0  3  0  0  0  0  0  0
  193.1720  177.0150  140.0160 C   0  0  0  0  0  3  0  0  0  0  0  0
  188.0980  177.6170  139.4680 C   0  0  0  0  0  2  0  0  0  0  0  0
  191.0390  175.7550  145.1480 O   0  0  0  0  0  0  0  0  0  0  0  0
  192.0550  176.3840  145.8660 C   0  0  0  0  0  2  0  0  0  0  0  0
  192.1710  175.6460  147.5190 S   0  0  0  0  0  1  0  0  0  0  0  0
  187.2280  176.7390  143.3610 C   0  0  0  0  0  2  0  0  0  0  0  0
  185.8710  177.8750  143.7540 S   0  0  0  0  0  0  0  0  0  0  0  0
  185.5920  178.2450  142.0020 C   0  0  0  0  0  2  0  0  0  0  0  0
  184.4430  179.2250  141.8720 C   0  0  0  0  0  2  0  0  0  0  0  0
  181.5560  178.6110  144.1220 C   0  0  0  0  0  2  0  0  0  0  0  0
  183.2070  178.5970  142.3070 N   0  0  0  0  0  0  0  0  0  0  0  0
  182.8220  179.2520  143.5570 C   0  0  0  0  0  2  0  0  0  0  0  0
  179.2600  178.5090  143.4310 N   0  0  0  0  0  2  0  0  0  0  0  0
  180.8640  178.2410  141.6660 C   0  0  0  0  0  2  0  0  0  0  0  0
  182.1880  178.9140  141.3050 C   0  0  0  0  0  2  0  0  0  0  0  0
  180.4850  178.5980  143.0720 C   0  0  0  0  0  0  0  0  0  0  0  0
  189.2050  178.3920  145.4820 C   0  0  0  0  0  2  0  0  0  0  0  0
  188.9940  177.9220  147.2240 S   0  0  0  0  0  0  0  0  0  0  0  0
  187.2420  177.5300  146.9710 C   0  0  0  0  0  2  0  0  0  0  0  0
  186.3990  178.7330  147.3420 C   0  0  0  0  0  1  0  0  0  0  0  0
  1 20  1  0  0  0  0
  1  3  1  0  0  0  0
  2  6  1  1  0  0  0
  2  4  1  0  0  0  0
  3 31  1  1  0  0  0
  4  3  1  0  0  0  0
  4 17  1  1  0  0  0
  5  2  1  0  0  0  0
  5  1  1  1  0  0  0
  8 13  2  0  0  0  0
  9 12  1  6  0  0  0
  9  5  1  0  0  0  0
 10 14  2  0  0  0  0
 10  8  1  0  0  0  0
 11  8  1  0  0  0  0
 11 16  1  0  0  0  0
 13  7  1  0  0  0  0
 13  9  1  0  0  0  0
 14 15  1  0  0  0  0
 15  7  2  0  0  0  0
 16 12  1  0  0  0  0
 17 18  1  0  0  0  0
 18 19  1  0  0  0  0
 20 21  1  0  0  0  0
 22 21  1  0  0  0  0
 23 22  1  0  0  0  0
 23 25  1  0  0  0  0
 25 26  1  0  0  0  0
 26 24  1  0  0  0  0
 28 30  1  0  0  0  0
 29 28  1  0  0  0  0
 29 25  1  0  0  0  0
 30 27  2  0  0  0  0
 30 24  1  0  0  0  0
 31 32  1  0  0  0  0
 33 32  1  0  0  0  0
 33 34  1  0  0  0  0
M  END
>  <MODEL>
5

>  <REMARK>
 VINA RESULT:      -5.8      2.587      5.568
  Name = 
  11 active torsions:
  status: ('A' for Active; 'I' for Inactive)
    1  A    between atoms: C_3  and  N_13
    2  A    between atoms: C_3  and  C_17
    3  A    between atoms: C_4  and  C_31
    4  A    between atoms: N_5  and  C_18
    5  A    between atoms: C_7  and  O_8
    6  A    between atoms: O_8  and  C_28
    7  A    between atoms: C_12  and  S_16
    8  A    between atoms: S_16  and  C_23
    9  A    between atoms: C_17  and  S_29
   10  A    between atoms: C_18  and  S_29
   11  A    between atoms: C_23  and  C_26
                            x       y       z     vdW  Elec       q    Type
                         _______ _______ _______ _____ _____    ______ ____

>  <TORSDO>
F 11

$$$$
=
 OpenBabel11052414203D

 34 37  0  0  1  0  0  0  0  0999 V2000
  188.4380  177.4650  143.4540 N   0  0  0  0  0  0  0  0  0  0  0  0
  190.3920  176.1750  142.8390 C   0  0  2  0  0  3  0  0  0  0  0  0
  189.1900  177.1440  144.6630 C   0  0  1  0  0  3  0  0  0  0  0  0
  190.5760  176.7100  144.2420 C   0  0  1  0  0  3  0  0  0  0  0  0
  189.1810  176.9250  142.3110 C   0  0  2  0  0  3  0  0  0  0  0  0
  190.1030  174.8090  142.8580 O   0  0  0  0  0  1  0  0  0  0  0  0
  191.9800  177.5070  140.7820 C   0  0  0  0  0  3  0  0  0  0  0  0
  190.3010  177.2120  139.0490 C   0  0  0  0  0  0  0  0  0  0  0  0
  189.5950  178.0590  141.3530 C   0  0  2  0  0  3  0  0  0  0  0  0
  191.2960  176.7530  138.1800 C   0  0  0  0  0  3  0  0  0  0  0  0
  188.9160  177.4170  138.4990 C   0  0  0  0  0  2  0  0  0  0  0  0
  188.3770  178.6300  140.6160 C   0  0  0  0  0  2  0  0  0  0  0  0
  190.6450  177.5970  140.3660 C   0  0  0  0  0  0  0  0  0  0  0  0
  192.6210  176.6550  138.6100 C   0  0  0  0  0  3  0  0  0  0  0  0
  192.9640  177.0350  139.9100 C   0  0  0  0  0  3  0  0  0  0  0  0
  187.8700  177.6250  139.5890 C   0  0  0  0  0  2  0  0  0  0  0  0
  191.0740  175.7330  145.1110 O   0  0  0  0  0  0  0  0  0  0  0  0
  192.0560  176.3850  145.8570 C   0  0  0  0  0  2  0  0  0  0  0  0
  192.1680  175.6250  147.5000 S   0  0  0  0  0  1  0  0  0  0  0  0
  187.1820  176.7370  143.5250 C   0  0  0  0  0  2  0  0  0  0  0  0
  185.8530  177.8700  144.0170 S   0  0  0  0  0  0  0  0  0  0  0  0
  185.1610  177.8830  142.3420 C   0  0  0  0  0  2  0  0  0  0  0  0
  183.8360  178.6190  142.3510 C   0  0  0  0  0  2  0  0  0  0  0  0
  183.8060  179.3580  138.7140 C   0  0  0  0  0  2  0  0  0  0  0  0
  183.2840  178.6590  141.0070 N   0  0  0  0  0  0  0  0  0  0  0  0
  184.3220  179.2230  140.1450 C   0  0  0  0  0  2  0  0  0  0  0  0
  183.1710  177.8100  136.9930 N   0  0  0  0  0  2  0  0  0  0  0  0
  182.4310  177.2310  139.2020 C   0  0  0  0  0  2  0  0  0  0  0  0
  183.0630  177.2730  140.5930 C   0  0  0  0  0  2  0  0  0  0  0  0
  183.2580  178.0410  138.2480 C   0  0  0  0  0  0  0  0  0  0  0  0
  189.2680  178.3720  145.5540 C   0  0  0  0  0  2  0  0  0  0  0  0
  189.1280  177.8930  147.3010 S   0  0  0  0  0  0  0  0  0  0  0  0
  187.3660  177.5070  147.1190 C   0  0  0  0  0  2  0  0  0  0  0  0
  186.5440  178.7210  147.4990 C   0  0  0  0  0  1  0  0  0  0  0  0
  1 20  1  0  0  0  0
  1  3  1  0  0  0  0
  2  6  1  1  0  0  0
  2  4  1  0  0  0  0
  3 31  1  1  0  0  0
  4  3  1  0  0  0  0
  4 17  1  1  0  0  0
  5  2  1  0  0  0  0
  5  1  1  1  0  0  0
  8 13  2  0  0  0  0
  9 12  1  6  0  0  0
  9  5  1  0  0  0  0
 10 14  2  0  0  0  0
 10  8  1  0  0  0  0
 11  8  1  0  0  0  0
 11 16  1  0  0  0  0
 13  7  1  0  0  0  0
 13  9  1  0  0  0  0
 14 15  1  0  0  0  0
 15  7  2  0  0  0  0
 16 12  1  0  0  0  0
 17 18  1  0  0  0  0
 18 19  1  0  0  0  0
 20 21  1  0  0  0  0
 22 23  1  0  0  0  0
 22 21  1  0  0  0  0
 24 26  1  0  0  0  0
 25 23  1  0  0  0  0
 26 25  1  0  0  0  0
 27 30  2  0  0  0  0
 28 29  1  0  0  0  0
 29 25  1  0  0  0  0
 30 24  1  0  0  0  0
 30 28  1  0  0  0  0
 31 32  1  0  0  0  0
 33 32  1  0  0  0  0
 33 34  1  0  0  0  0
M  END
>  <MODEL>
6

>  <REMARK>
 VINA RESULT:      -5.7      2.832      5.927
  Name = 
  11 active torsions:
  status: ('A' for Active; 'I' for Inactive)
    1  A    between atoms: C_3  and  N_13
    2  A    between atoms: C_3  and  C_17
    3  A    between atoms: C_4  and  C_31
    4  A    between atoms: N_5  and  C_18
    5  A    between atoms: C_7  and  O_8
    6  A    between atoms: O_8  and  C_28
    7  A    between atoms: C_12  and  S_16
    8  A    between atoms: S_16  and  C_23
    9  A    between atoms: C_17  and  S_29
   10  A    between atoms: C_18  and  S_29
   11  A    between atoms: C_23  and  C_26
                            x       y       z     vdW  Elec       q    Type
                         _______ _______ _______ _____ _____    ______ ____

>  <TORSDO>
F 11

$$$$
=
 OpenBabel11052414203D

 34 37  0  0  1  0  0  0  0  0999 V2000
  189.6090  177.6690  142.1260 N   0  0  0  0  0  0  0  0  0  0  0  0
  187.7430  177.0720  143.5480 C   0  0  2  0  0  3  0  0  0  0  0  0
  188.3670  177.9080  141.3970 C   0  0  1  0  0  3  0  0  0  0  0  0
  187.2380  177.9240  142.4040 C   0  0  1  0  0  3  0  0  0  0  0  0
  189.2550  177.2020  143.4700 C   0  0  2  0  0  3  0  0  0  0  0  0
  187.3960  175.7310  143.3650 O   0  0  0  0  0  1  0  0  0  0  0  0
  187.8390  178.4820  146.0910 C   0  0  0  0  0  3  0  0  0  0  0  0
  189.7420  177.2000  146.8960 C   0  0  0  0  0  0  0  0  0  0  0  0
  189.7920  178.1770  144.5370 C   0  0  2  0  0  3  0  0  0  0  0  0
  189.0720  176.9880  148.1050 C   0  0  0  0  0  3  0  0  0  0  0  0
  191.1670  176.7320  146.7810 C   0  0  0  0  0  2  0  0  0  0  0  0
  191.3150  178.0620  144.6710 C   0  0  0  0  0  2  0  0  0  0  0  0
  189.1220  177.9590  145.8750 C   0  0  0  0  0  0  0  0  0  0  0  0
  187.7890  177.5040  148.3030 C   0  0  0  0  0  3  0  0  0  0  0  0
  187.1750  178.2540  147.2980 C   0  0  0  0  0  3  0  0  0  0  0  0
  191.6820  176.7450  145.3450 C   0  0  0  0  0  2  0  0  0  0  0  0
  186.0660  177.4030  141.8440 O   0  0  0  0  0  0  0  0  0  0  0  0
  185.0990  178.3820  142.0650 C   0  0  0  0  0  2  0  0  0  0  0  0
  184.4940  179.0030  140.4720 S   0  0  0  0  0  1  0  0  0  0  0  0
  190.2900  176.5700  141.4610 C   0  0  0  0  0  2  0  0  0  0  0  0
  191.9140  177.1280  140.8780 S   0  0  0  0  0  0  0  0  0  0  0  0
  191.5840  176.5320  139.1990 C   0  0  0  0  0  2  0  0  0  0  0  0
  192.8240  176.7190  138.3460 C   0  0  0  0  0  2  0  0  0  0  0  0
  194.3170  173.8700  136.4950 C   0  0  0  0  0  2  0  0  0  0  0  0
  192.8870  175.6790  137.3330 N   0  0  0  0  0  0  0  0  0  0  0  0
  194.1360  174.9520  137.5580 C   0  0  0  0  0  2  0  0  0  0  0  0
  193.1830  171.8240  135.9550 N   0  0  0  0  0  2  0  0  0  0  0  0
  191.7470  173.6590  136.5320 C   0  0  0  0  0  2  0  0  0  0  0  0
  191.7800  174.7580  137.5930 C   0  0  0  0  0  2  0  0  0  0  0  0
  193.0930  173.0040  136.4430 C   0  0  0  0  0  0  0  0  0  0  0  0
  188.4490  179.2400  140.6730 C   0  0  0  0  0  2  0  0  0  0  0  0
  188.9930  178.9930  138.9580 S   0  0  0  0  0  0  0  0  0  0  0  0
  187.8930  177.5680  138.7480 C   0  0  0  0  0  2  0  0  0  0  0  0
  186.8690  177.8760  137.6750 C   0  0  0  0  0  1  0  0  0  0  0  0
  2  6  1  6  0  0  0
  3 31  1  1  0  0  0
  3  1  1  0  0  0  0
  3  4  1  0  0  0  0
  4 17  1  6  0  0  0
  4  2  1  0  0  0  0
  5  1  1  6  0  0  0
  5  2  1  0  0  0  0
  5  9  1  0  0  0  0
  7 15  1  0  0  0  0
  8 10  2  0  0  0  0
  9 12  1  1  0  0  0
  9 13  1  0  0  0  0
 10 14  1  0  0  0  0
 11  8  1  0  0  0  0
 12 16  1  0  0  0  0
 13  7  2  0  0  0  0
 13  8  1  0  0  0  0
 15 14  2  0  0  0  0
 16 11  1  0  0  0  0
 17 18  1  0  0  0  0
 19 18  1  0  0  0  0
 20  1  1  0  0  0  0
 21 20  1  0  0  0  0
 22 21  1  0  0  0  0
 23 22  1  0  0  0  0
 24 26  1  0  0  0  0
 25 26  1  0  0  0  0
 25 29  1  0  0  0  0
 25 23  1  0  0  0  0
 27 30  2  0  0  0  0
 28 29  1  0  0  0  0
 30 24  1  0  0  0  0
 30 28  1  0  0  0  0
 32 31  1  0  0  0  0
 33 32  1  0  0  0  0
 34 33  1  0  0  0  0
M  END
>  <MODEL>
7

>  <REMARK>
 VINA RESULT:      -5.7      3.414      7.631
  Name = 
  11 active torsions:
  status: ('A' for Active; 'I' for Inactive)
    1  A    between atoms: C_3  and  N_13
    2  A    between atoms: C_3  and  C_17
    3  A    between atoms: C_4  and  C_31
    4  A    between atoms: N_5  and  C_18
    5  A    between atoms: C_7  and  O_8
    6  A    between atoms: O_8  and  C_28
    7  A    between atoms: C_12  and  S_16
    8  A    between atoms: S_16  and  C_23
    9  A    between atoms: C_17  and  S_29
   10  A    between atoms: C_18  and  S_29
   11  A    between atoms: C_23  and  C_26
                            x       y       z     vdW  Elec       q    Type
                         _______ _______ _______ _____ _____    ______ ____

>  <TORSDO>
F 11

$$$$
=
 OpenBabel11052414203D

 34 37  0  0  1  0  0  0  0  0999 V2000
  182.3440  177.8730  137.8550 N   0  0  0  0  0  0  0  0  0  0  0  0
  182.9310  179.8010  139.1960 C   0  0  2  0  0  3  0  0  0  0  0  0
  182.8510  177.4130  139.1440 C   0  0  1  0  0  3  0  0  0  0  0  0
  182.8270  178.5890  140.0950 C   0  0  1  0  0  3  0  0  0  0  0  0
  182.3340  179.3390  137.8770 C   0  0  2  0  0  3  0  0  0  0  0  0
  184.2660  180.1550  138.9870 O   0  0  0  0  0  1  0  0  0  0  0  0
  181.1510  182.3560  137.9800 C   0  0  0  0  0  3  0  0  0  0  0  0
  180.6870  181.5130  135.7470 C   0  0  0  0  0  0  0  0  0  0  0  0
  180.9000  179.8710  137.6920 C   0  0  2  0  0  3  0  0  0  0  0  0
  180.7310  182.8220  135.2570 C   0  0  0  0  0  3  0  0  0  0  0  0
  180.2710  180.4150  134.8070 C   0  0  0  0  0  2  0  0  0  0  0  0
  180.0730  178.9300  136.8070 C   0  0  0  0  0  2  0  0  0  0  0  0
  180.8960  181.2740  137.1260 C   0  0  0  0  0  0  0  0  0  0  0  0
  180.9980  183.8900  136.1160 C   0  0  0  0  0  3  0  0  0  0  0  0
  181.2050  183.6580  137.4770 C   0  0  0  0  0  3  0  0  0  0  0  0
  180.5490  179.0210  135.3620 C   0  0  0  0  0  2  0  0  0  0  0  0
  183.8920  178.5170  140.9990 O   0  0  0  0  0  0  0  0  0  0  0  0
  183.3090  178.6920  142.2540 C   0  0  0  0  0  2  0  0  0  0  0  0
  184.6080  178.7820  143.5160 S   0  0  0  0  0  1  0  0  0  0  0  0
  183.3110  177.4710  136.8470 C   0  0  0  0  0  2  0  0  0  0  0  0
  184.7250  176.6680  137.6500 S   0  0  0  0  0  0  0  0  0  0  0  0
  185.8980  177.4740  136.5280 C   0  0  0  0  0  2  0  0  0  0  0  0
  186.8400  178.3490  137.3310 C   0  0  0  0  0  2  0  0  0  0  0  0
  190.1590  176.6870  137.3630 C   0  0  0  0  0  2  0  0  0  0  0  0
  187.9180  177.5430  137.8780 N   0  0  0  0  0  0  0  0  0  0  0  0
  188.9990  177.5640  136.8940 C   0  0  0  0  0  2  0  0  0  0  0  0
  191.7460  176.8020  139.1600 N   0  0  0  0  0  2  0  0  0  0  0  0
  189.4990  177.4050  139.7500 C   0  0  0  0  0  2  0  0  0  0  0  0
  188.3950  178.2230  139.0830 C   0  0  0  0  0  2  0  0  0  0  0  0
  190.5700  177.0910  138.7480 C   0  0  0  0  0  0  0  0  0  0  0  0
  181.9700  176.2910  139.6670 C   0  0  0  0  0  2  0  0  0  0  0  0
  180.3530  176.9440  140.1750 S   0  0  0  0  0  0  0  0  0  0  0  0
  179.4980  175.4560  139.5930 C   0  0  0  0  0  2  0  0  0  0  0  0
  179.4070  175.4880  138.0810 C   0  0  0  0  0  1  0  0  0  0  0  0
  1  3  1  0  0  0  0
  2  6  1  6  0  0  0
  2  4  1  0  0  0  0
  3 31  1  1  0  0  0
  3  4  1  0  0  0  0
  4 17  1  1  0  0  0
  5  1  1  1  0  0  0
  5  2  1  0  0  0  0
  8 13  1  0  0  0  0
  9 12  1  6  0  0  0
  9  5  1  0  0  0  0
 10  8  2  0  0  0  0
 10 14  1  0  0  0  0
 11 16  1  0  0  0  0
 11  8  1  0  0  0  0
 13  9  1  0  0  0  0
 13  7  2  0  0  0  0
 14 15  2  0  0  0  0
 15  7  1  0  0  0  0
 16 12  1  0  0  0  0
 17 18  1  0  0  0  0
 18 19  1  0  0  0  0
 20 21  1  0  0  0  0
 20  1  1  0  0  0  0
 22 23  1  0  0  0  0
 22 21  1  0  0  0  0
 23 25  1  0  0  0  0
 24 30  1  0  0  0  0
 25 29  1  0  0  0  0
 26 24  1  0  0  0  0
 26 25  1  0  0  0  0
 29 28  1  0  0  0  0
 30 27  2  0  0  0  0
 30 28  1  0  0  0  0
 31 32  1  0  0  0  0
 33 32  1  0  0  0  0
 34 33  1  0  0  0  0
M  END
>  <MODEL>
8

>  <REMARK>
 VINA RESULT:      -5.5      4.773     10.032
  Name = 
  11 active torsions:
  status: ('A' for Active; 'I' for Inactive)
    1  A    between atoms: C_3  and  N_13
    2  A    between atoms: C_3  and  C_17
    3  A    between atoms: C_4  and  C_31
    4  A    between atoms: N_5  and  C_18
    5  A    between atoms: C_7  and  O_8
    6  A    between atoms: O_8  and  C_28
    7  A    between atoms: C_12  and  S_16
    8  A    between atoms: S_16  and  C_23
    9  A    between atoms: C_17  and  S_29
   10  A    between atoms: C_18  and  S_29
   11  A    between atoms: C_23  and  C_26
                            x       y       z     vdW  Elec       q    Type
                         _______ _______ _______ _____ _____    ______ ____

>  <TORSDO>
F 11

$$$$
=
 OpenBabel11052414203D

 34 37  0  0  1  0  0  0  0  0999 V2000
  181.9320  178.4020  139.8830 N   0  0  0  0  0  0  0  0  0  0  0  0
  182.0160  180.2150  138.2810 C   0  0  2  0  0  3  0  0  0  0  0  0
  180.9510  179.4130  140.2650 C   0  0  1  0  0  3  0  0  0  0  0  0
  180.7290  180.3140  139.0700 C   0  0  1  0  0  3  0  0  0  0  0  0
  182.5670  178.8450  138.6380 C   0  0  2  0  0  3  0  0  0  0  0  0
  182.9300  181.1880  138.6900 O   0  0  0  0  0  1  0  0  0  0  0  0
  184.4890  177.7780  136.2540 C   0  0  0  0  0  3  0  0  0  0  0  0
  183.9060  175.8310  137.5890 C   0  0  0  0  0  0  0  0  0  0  0  0
  182.3120  177.8240  137.5110 C   0  0  2  0  0  3  0  0  0  0  0  0
  185.1130  175.2300  137.2170 C   0  0  0  0  0  3  0  0  0  0  0  0
  182.9220  175.0170  138.3830 C   0  0  0  0  0  2  0  0  0  0  0  0
  181.2400  176.8060  137.9220 C   0  0  0  0  0  2  0  0  0  0  0  0
  183.5860  177.1200  137.1010 C   0  0  0  0  0  0  0  0  0  0  0  0
  186.0100  175.9020  136.3830 C   0  0  0  0  0  3  0  0  0  0  0  0
  185.6960  177.1740  135.8990 C   0  0  0  0  0  3  0  0  0  0  0  0
  181.7980  175.8600  138.9770 C   0  0  0  0  0  2  0  0  0  0  0  0
  180.4690  181.6260  139.4790 O   0  0  0  0  0  0  0  0  0  0  0  0
  179.4570  182.0720  138.6290 C   0  0  0  0  0  2  0  0  0  0  0  0
  180.0990  183.3970  137.5710 S   0  0  0  0  0  1  0  0  0  0  0  0
  182.9630  178.3990  140.9080 C   0  0  0  0  0  2  0  0  0  0  0  0
  184.5870  178.6230  140.1320 S   0  0  0  0  0  0  0  0  0  0  0  0
  185.3630  179.0060  141.7240 C   0  0  0  0  0  2  0  0  0  0  0  0
  184.3200  178.9310  142.8220 C   0  0  0  0  0  2  0  0  0  0  0  0
  186.9050  177.1470  144.8000 C   0  0  0  0  0  2  0  0  0  0  0  0
  184.8700  178.2440  143.9790 N   0  0  0  0  0  0  0  0  0  0  0  0
  186.2610  177.9280  143.6560 C   0  0  0  0  0  2  0  0  0  0  0  0
  187.5120  177.6590  147.0650 N   0  0  0  0  0  2  0  0  0  0  0  0
  185.3920  178.5350  146.3600 C   0  0  0  0  0  2  0  0  0  0  0  0
  184.8730  179.2020  145.0860 C   0  0  0  0  0  2  0  0  0  0  0  0
  186.7200  177.8930  146.0880 C   0  0  0  0  0  0  0  0  0  0  0  0
  179.6510  178.7360  140.6660 C   0  0  0  0  0  2  0  0  0  0  0  0
  179.0410  179.4210  142.2330 S   0  0  0  0  0  0  0  0  0  0  0  0
  179.7950  178.0770  143.1870 C   0  0  0  0  0  2  0  0  0  0  0  0
  180.9160  178.6330  144.0400 C   0  0  0  0  0  1  0  0  0  0  0  0
  1  3  1  0  0  0  0
  1 20  1  0  0  0  0
  2  5  1  0  0  0  0
  2  6  1  1  0  0  0
  2  4  1  0  0  0  0
  3 31  1  6  0  0  0
  4 17  1  1  0  0  0
  4  3  1  0  0  0  0
  5  1  1  1  0  0  0
  7 13  1  0  0  0  0
  8 11  1  0  0  0  0
  9 12  1  1  0  0  0
  9  5  1  0  0  0  0
 10  8  1  0  0  0  0
 11 16  1  0  0  0  0
 12 16  1  0  0  0  0
 13  9  1  0  0  0  0
 13  8  2  0  0  0  0
 14 10  2  0  0  0  0
 15  7  2  0  0  0  0
 15 14  1  0  0  0  0
 18 17  1  0  0  0  0
 19 18  1  0  0  0  0
 21 20  1  0  0  0  0
 21 22  1  0  0  0  0
 22 23  1  0  0  0  0
 23 25  1  0  0  0  0
 24 30  1  0  0  0  0
 25 29  1  0  0  0  0
 26 25  1  0  0  0  0
 26 24  1  0  0  0  0
 29 28  1  0  0  0  0
 30 28  1  0  0  0  0
 30 27  2  0  0  0  0
 31 32  1  0  0  0  0
 32 33  1  0  0  0  0
 33 34  1  0  0  0  0
M  END
>  <MODEL>
9

>  <REMARK>
 VINA RESULT:      -5.4      4.189      9.086
  Name = 
  11 active torsions:
  status: ('A' for Active; 'I' for Inactive)
    1  A    between atoms: C_3  and  N_13
    2  A    between atoms: C_3  and  C_17
    3  A    between atoms: C_4  and  C_31
    4  A    between atoms: N_5  and  C_18
    5  A    between atoms: C_7  and  O_8
    6  A    between atoms: O_8  and  C_28
    7  A    between atoms: C_12  and  S_16
    8  A    between atoms: S_16  and  C_23
    9  A    between atoms: C_17  and  S_29
   10  A    between atoms: C_18  and  S_29
   11  A    between atoms: C_23  and  C_26
                            x       y       z     vdW  Elec       q    Type
                         _______ _______ _______ _____ _____    ______ ____

>  <TORSDO>
F 11

$$$$
