=
 OpenBabel11052416563D

 32 35  0  0  1  0  0  0  0  0999 V2000
  188.1440  176.3150  143.0730 C   0  0  0  0  0  2  0  0  0  0  0  0
  184.5470  179.1940  140.2730 C   0  0  0  0  0  1  0  0  0  0  0  0
  184.2720  178.7710  142.7990 C   0  0  0  0  0  3  0  0  0  0  0  0
  190.4950  176.8510  140.2330 N   0  0  0  0  0  0  0  0  0  0  0  0
  188.3000  177.8060  140.3030 C   0  0  0  0  0  0  0  0  0  0  0  0
  189.5160  177.9440  138.2010 C   0  0  0  0  0  0  0  0  0  0  0  0
  185.0800  178.9090  141.5960 N   0  0  0  0  0  0  0  0  0  0  0  0
  187.3080  178.2300  141.0240 C   0  0  0  0  0  0  0  0  0  0  0  0
  186.4130  178.5700  141.9050 C   0  0  0  0  0  0  0  0  0  0  0  0
  187.7730  177.5940  143.8230 C   0  0  1  0  0  3  0  0  0  0  0  0
  191.3310  176.2410  138.0270 C   0  0  0  0  0  1  0  0  0  0  0  0
  188.3950  178.1780  138.8950 C   0  0  0  0  0  3  0  0  0  0  0  0
  190.7380  177.3520  138.8730 C   0  0  2  0  0  3  0  0  0  0  0  0
  185.2440  178.2990  143.9010 C   0  0  0  0  0  3  0  0  0  0  0  0
  186.5490  178.1780  143.2550 N   0  0  0  0  0  0  0  0  0  0  0  0
  189.4140  177.0550  140.9270 C   0  0  0  0  0  0  0  0  0  0  0  0
  189.3450  176.5040  142.2580 N   0  0  0  0  0  2  0  0  0  0  0  0
  189.6070  178.2950  136.8460 O   0  0  0  0  0  0  0  0  0  0  0  0
  188.6680  177.8820  135.8580 C   0  0  0  0  0  2  0  0  0  0  0  0
  188.3790  175.3810  135.8470 C   0  0  0  0  0  0  0  0  0  0  0  0
  189.0170  176.5600  135.3590 N   0  0  0  0  0  2  0  0  0  0  0  0
  187.4930  175.4520  136.7400 O   0  0  0  0  0  0  0  0  0  0  0  0
  188.7560  174.0550  135.2910 C   0  0  0  0  0  1  0  0  0  0  0  0
  187.6280  177.2920  145.3090 C   0  0  0  0  0  2  0  0  0  0  0  0
  190.0850  177.6140  145.4550 C   0  0  1  0  0  3  0  0  0  0  0  0
  188.8920  177.2460  147.4220 C   0  0  1  0  0  3  0  0  0  0  0  0
  190.1580  176.5290  147.3740 N   0  0  0  0  0  2  0  0  0  0  0  0
  190.9520  177.1520  146.4580 O   0  0  0  0  0  0  0  0  0  0  0  0
  188.9350  178.2830  148.5300 C   0  0  0  0  0  1  0  0  0  0  0  0
  188.7590  177.9300  146.0990 C   0  0  2  0  0  3  0  0  0  0  0  0
  191.6400  178.7100  143.8630 C   0  0  0  0  0  2  0  0  0  0  0  0
  190.6610  178.8140  144.7650 C   0  0  0  0  0  3  0  0  0  0  0  0
  1 10  1  0  0  0  0
  2  7  1  0  0  0  0
  3 14  2  0  0  0  0
  4 16  2  0  0  0  0
  5 16  1  0  0  0  0
  5  8  2  0  0  0  0
  6 13  1  0  0  0  0
  6 12  2  0  0  0  0
  7  9  1  0  0  0  0
  7  3  1  0  0  0  0
  8  9  2  0  0  0  0
  9 15  1  0  0  0  0
 10 24  1  1  0  0  0
 12  5  1  0  0  0  0
 13 11  1  6  0  0  0
 13  4  1  0  0  0  0
 15 10  1  0  0  0  0
 15 14  1  0  0  0  0
 16 17  1  0  0  0  0
 17  1  1  0  0  0  0
 18  6  1  0  0  0  0
 19 18  1  0  0  0  0
 20 22  2  0  0  0  0
 21 20  1  0  0  0  0
 21 19  1  0  0  0  0
 23 20  1  0  0  0  0
 25 32  1  1  0  0  0
 25 30  1  0  0  0  0
 25 28  1  0  0  0  0
 26 29  1  1  0  0  0
 27 26  1  0  0  0  0
 28 27  1  0  0  0  0
 30 24  1  6  0  0  0
 30 26  1  0  0  0  0
 31 32  2  0  0  0  0
M  END
>  <MODEL>
1

>  <REMARK>
 VINA RESULT:      -8.8      0.000      0.000
  Name = 
  6 active torsions:
  status: ('A' for Active; 'I' for Inactive)
    1  A    between atoms: O_2  and  C_12
    2  A    between atoms: O_2  and  C_24
    3  A    between atoms: C_7  and  C_29
    4  A    between atoms: N_10  and  C_24
    5  A    between atoms: C_16  and  C_27
    6  A    between atoms: C_27  and  C_32
                            x       y       z     vdW  Elec       q    Type
                         _______ _______ _______ _____ _____    ______ ____

>  <TORSDO>
F 6

$$$$
=
 OpenBabel11052416563D

 32 35  0  0  1  0  0  0  0  0999 V2000
  185.9950  179.0980  141.5050 C   0  0  0  0  0  2  0  0  0  0  0  0
  186.2150  178.4230  146.8490 C   0  0  0  0  0  1  0  0  0  0  0  0
  183.9960  178.9140  145.6370 C   0  0  0  0  0  3  0  0  0  0  0  0
  189.3420  177.4710  141.3560 N   0  0  0  0  0  0  0  0  0  0  0  0
  188.1190  177.7440  143.3950 C   0  0  0  0  0  0  0  0  0  0  0  0
  190.4370  177.0260  143.5670 C   0  0  0  0  0  0  0  0  0  0  0  0
  185.3560  178.3960  145.6760 N   0  0  0  0  0  0  0  0  0  0  0  0
  186.9660  177.8700  143.9770 C   0  0  0  0  0  0  0  0  0  0  0  0
  185.7340  178.0200  144.3710 C   0  0  0  0  0  0  0  0  0  0  0  0
  184.8750  178.1740  141.9800 C   0  0  1  0  0  3  0  0  0  0  0  0
  191.7700  177.5920  141.5350 C   0  0  0  0  0  1  0  0  0  0  0  0
  189.2980  177.3820  144.1750 C   0  0  0  0  0  3  0  0  0  0  0  0
  190.5120  176.9230  142.0570 C   0  0  2  0  0  3  0  0  0  0  0  0
  183.5610  178.8300  144.1580 C   0  0  0  0  0  3  0  0  0  0  0  0
  184.7090  178.2840  143.4360 N   0  0  0  0  0  0  0  0  0  0  0  0
  188.2290  177.8330  141.9210 C   0  0  0  0  0  0  0  0  0  0  0  0
  187.1710  178.3380  141.0810 N   0  0  0  0  0  2  0  0  0  0  0  0
  191.5730  176.6840  144.3140 O   0  0  0  0  0  0  0  0  0  0  0  0
  191.5190  176.0930  145.6080 C   0  0  0  0  0  2  0  0  0  0  0  0
  190.2100  177.1590  147.4770 C   0  0  0  0  0  0  0  0  0  0  0  0
  191.3510  177.1250  146.6220 N   0  0  0  0  0  2  0  0  0  0  0  0
  189.3010  176.2920  147.3700 O   0  0  0  0  0  0  0  0  0  0  0  0
  190.0940  178.2200  148.5100 C   0  0  0  0  0  1  0  0  0  0  0  0
  183.5890  178.5010  141.2310 C   0  0  0  0  0  2  0  0  0  0  0  0
  183.7170  178.5290  138.7520 C   0  0  1  0  0  3  0  0  0  0  0  0
  182.0580  177.2460  139.7660 C   0  0  1  0  0  3  0  0  0  0  0  0
  181.5900  177.9670  138.5910 N   0  0  0  0  0  2  0  0  0  0  0  0
  182.6810  178.2820  137.8370 O   0  0  0  0  0  0  0  0  0  0  0  0
  182.0000  175.7520  139.5020 C   0  0  0  0  0  1  0  0  0  0  0  0
  183.4790  177.6660  139.9650 C   0  0  2  0  0  3  0  0  0  0  0  0
  185.2850  177.1430  137.4200 C   0  0  0  0  0  2  0  0  0  0  0  0
  185.0530  178.2490  138.1310 C   0  0  0  0  0  3  0  0  0  0  0  0
  1 10  1  0  0  0  0
  3  7  1  0  0  0  0
  4 16  2  0  0  0  0
  4 13  1  0  0  0  0
  5  8  2  0  0  0  0
  5 12  1  0  0  0  0
  6 12  2  0  0  0  0
  6 18  1  0  0  0  0
  7  2  1  0  0  0  0
  8  9  2  0  0  0  0
  9  7  1  0  0  0  0
 10 24  1  6  0  0  0
 10 15  1  0  0  0  0
 13 11  1  6  0  0  0
 13  6  1  0  0  0  0
 14  3  2  0  0  0  0
 15 14  1  0  0  0  0
 15  9  1  0  0  0  0
 16  5  1  0  0  0  0
 17  1  1  0  0  0  0
 17 16  1  0  0  0  0
 18 19  1  0  0  0  0
 19 21  1  0  0  0  0
 20 23  1  0  0  0  0
 21 20  1  0  0  0  0
 22 20  2  0  0  0  0
 25 32  1  6  0  0  0
 25 30  1  0  0  0  0
 26 29  1  6  0  0  0
 26 30  1  0  0  0  0
 27 26  1  0  0  0  0
 28 27  1  0  0  0  0
 28 25  1  0  0  0  0
 30 24  1  1  0  0  0
 31 32  2  0  0  0  0
M  END
>  <MODEL>
2

>  <REMARK>
 VINA RESULT:      -8.3      2.932      7.642
  Name = 
  6 active torsions:
  status: ('A' for Active; 'I' for Inactive)
    1  A    between atoms: O_2  and  C_12
    2  A    between atoms: O_2  and  C_24
    3  A    between atoms: C_7  and  C_29
    4  A    between atoms: N_10  and  C_24
    5  A    between atoms: C_16  and  C_27
    6  A    between atoms: C_27  and  C_32
                            x       y       z     vdW  Elec       q    Type
                         _______ _______ _______ _____ _____    ______ ____

>  <TORSDO>
F 6

$$$$
=
 OpenBabel11052416563D

 32 35  0  0  1  0  0  0  0  0999 V2000
  184.9400  179.9030  142.8620 C   0  0  0  0  0  2  0  0  0  0  0  0
  188.1510  177.4490  146.4310 C   0  0  0  0  0  1  0  0  0  0  0  0
  185.7900  178.2590  147.0660 C   0  0  0  0  0  3  0  0  0  0  0  0
  187.1610  178.5240  140.2080 N   0  0  0  0  0  0  0  0  0  0  0  0
  187.4640  178.0480  142.5340 C   0  0  0  0  0  0  0  0  0  0  0  0
  189.2430  177.3830  141.0130 C   0  0  0  0  0  0  0  0  0  0  0  0
  186.7780  177.7990  146.1020 N   0  0  0  0  0  0  0  0  0  0  0  0
  186.9310  177.9330  143.7110 C   0  0  0  0  0  0  0  0  0  0  0  0
  186.2290  177.9030  144.8070 C   0  0  0  0  0  0  0  0  0  0  0  0
  184.1690  178.8390  143.6410 C   0  0  1  0  0  3  0  0  0  0  0  0
  189.1900  178.6480  138.8630 C   0  0  0  0  0  1  0  0  0  0  0  0
  188.7800  177.4760  142.2660 C   0  0  0  0  0  3  0  0  0  0  0  0
  188.3870  177.8050  139.8360 C   0  0  2  0  0  3  0  0  0  0  0  0
  184.5570  178.6720  146.2340 C   0  0  0  0  0  3  0  0  0  0  0  0
  184.9230  178.4400  144.8380 N   0  0  0  0  0  0  0  0  0  0  0  0
  186.6940  178.6380  141.4150 C   0  0  0  0  0  0  0  0  0  0  0  0
  185.4650  179.3680  141.6050 N   0  0  0  0  0  2  0  0  0  0  0  0
  190.5090  176.8400  140.7540 O   0  0  0  0  0  0  0  0  0  0  0  0
  191.6940  177.2360  141.4380 C   0  0  0  0  0  2  0  0  0  0  0  0
  191.6640  177.5390  143.9370 C   0  0  0  0  0  0  0  0  0  0  0  0
  191.6950  176.6940  142.7890 N   0  0  0  0  0  2  0  0  0  0  0  0
  191.6420  178.7930  143.8120 O   0  0  0  0  0  0  0  0  0  0  0  0
  191.6460  176.9370  145.2960 C   0  0  0  0  0  1  0  0  0  0  0  0
  182.7810  179.3640  143.9870 C   0  0  0  0  0  2  0  0  0  0  0  0
  181.4850  179.1150  141.8850 C   0  0  1  0  0  3  0  0  0  0  0  0
  180.3830  178.8070  143.9140 C   0  0  1  0  0  3  0  0  0  0  0  0
  179.6000  179.5570  142.9420 N   0  0  0  0  0  2  0  0  0  0  0  0
  180.1030  179.2800  141.7050 O   0  0  0  0  0  0  0  0  0  0  0  0
  179.7020  177.4830  144.2050 C   0  0  0  0  0  1  0  0  0  0  0  0
  181.7090  178.5600  143.2690 C   0  0  2  0  0  3  0  0  0  0  0  0
  181.3020  177.3210  140.1810 C   0  0  0  0  0  2  0  0  0  0  0  0
  182.0540  178.2110  140.8320 C   0  0  0  0  0  3  0  0  0  0  0  0
  1 10  1  0  0  0  0
  4 16  2  0  0  0  0
  5  8  2  0  0  0  0
  6 12  2  0  0  0  0
  7  2  1  0  0  0  0
  7  3  1  0  0  0  0
  8  9  2  0  0  0  0
  9 15  1  0  0  0  0
  9  7  1  0  0  0  0
 10 24  1  1  0  0  0
 10 15  1  0  0  0  0
 12  5  1  0  0  0  0
 13 11  1  6  0  0  0
 13  4  1  0  0  0  0
 13  6  1  0  0  0  0
 14  3  2  0  0  0  0
 15 14  1  0  0  0  0
 16 17  1  0  0  0  0
 16  5  1  0  0  0  0
 17  1  1  0  0  0  0
 18  6  1  0  0  0  0
 18 19  1  0  0  0  0
 19 21  1  0  0  0  0
 20 23  1  0  0  0  0
 21 20  1  0  0  0  0
 22 20  2  0  0  0  0
 25 32  1  6  0  0  0
 25 30  1  0  0  0  0
 26 29  1  6  0  0  0
 27 26  1  0  0  0  0
 28 25  1  0  0  0  0
 28 27  1  0  0  0  0
 30 26  1  0  0  0  0
 30 24  1  1  0  0  0
 31 32  2  0  0  0  0
M  END
>  <MODEL>
3

>  <REMARK>
 VINA RESULT:      -8.3      3.049      6.890
  Name = 
  6 active torsions:
  status: ('A' for Active; 'I' for Inactive)
    1  A    between atoms: O_2  and  C_12
    2  A    between atoms: O_2  and  C_24
    3  A    between atoms: C_7  and  C_29
    4  A    between atoms: N_10  and  C_24
    5  A    between atoms: C_16  and  C_27
    6  A    between atoms: C_27  and  C_32
                            x       y       z     vdW  Elec       q    Type
                         _______ _______ _______ _____ _____    ______ ____

>  <TORSDO>
F 6

$$$$
=
 OpenBabel11052416563D

 32 35  0  0  1  0  0  0  0  0999 V2000
  184.3230  178.1890  141.2630 C   0  0  0  0  0  2  0  0  0  0  0  0
  189.5580  176.9110  141.0890 C   0  0  0  0  0  1  0  0  0  0  0  0
  188.2410  177.5170  138.9600 C   0  0  0  0  0  3  0  0  0  0  0  0
  184.7790  178.7410  144.9190 N   0  0  0  0  0  0  0  0  0  0  0  0
  186.5820  178.1520  143.4580 C   0  0  0  0  0  0  0  0  0  0  0  0
  187.0080  178.0740  145.8520 C   0  0  0  0  0  0  0  0  0  0  0  0
  188.4680  177.5800  140.3960 N   0  0  0  0  0  0  0  0  0  0  0  0
  187.0760  178.1690  142.2580 C   0  0  0  0  0  0  0  0  0  0  0  0
  187.3850  178.2530  140.9970 C   0  0  0  0  0  0  0  0  0  0  0  0
  185.0920  179.1750  140.3850 C   0  0  1  0  0  3  0  0  0  0  0  0
  184.9140  177.8780  147.1940 C   0  0  0  0  0  1  0  0  0  0  0  0
  187.4450  177.8730  144.6020 C   0  0  0  0  0  3  0  0  0  0  0  0
  185.6340  178.6590  146.1110 C   0  0  2  0  0  3  0  0  0  0  0  0
  186.8870  178.2210  138.7220 C   0  0  0  0  0  3  0  0  0  0  0  0
  186.4130  178.6270  140.0430 N   0  0  0  0  0  0  0  0  0  0  0  0
  185.1740  178.5430  143.6960 C   0  0  0  0  0  0  0  0  0  0  0  0
  184.2040  178.6780  142.6370 N   0  0  0  0  0  2  0  0  0  0  0  0
  187.8330  177.8010  146.9520 O   0  0  0  0  0  0  0  0  0  0  0  0
  189.1990  178.1930  147.0320 C   0  0  0  0  0  2  0  0  0  0  0  0
  191.2570  176.7540  146.8450 C   0  0  0  0  0  0  0  0  0  0  0  0
  190.0160  177.0700  147.4720 N   0  0  0  0  0  2  0  0  0  0  0  0
  191.6820  177.4400  145.8760 O   0  0  0  0  0  0  0  0  0  0  0  0
  192.0650  175.6100  147.3430 C   0  0  0  0  0  1  0  0  0  0  0  0
  184.2700  179.5050  139.1460 C   0  0  0  0  0  2  0  0  0  0  0  0
  182.7230  177.9660  137.9630 C   0  0  1  0  0  3  0  0  0  0  0  0
  181.8300  179.8240  139.0480 C   0  0  1  0  0  3  0  0  0  0  0  0
  181.2210  179.5670  137.7520 N   0  0  0  0  0  2  0  0  0  0  0  0
  181.4560  178.2620  137.4350 O   0  0  0  0  0  0  0  0  0  0  0  0
  180.7980  179.6280  140.1440 C   0  0  0  0  0  1  0  0  0  0  0  0
  182.9190  178.8100  139.1970 C   0  0  2  0  0  3  0  0  0  0  0  0
  182.2960  175.9660  139.3670 C   0  0  0  0  0  2  0  0  0  0  0  0
  182.8410  176.5030  138.2740 C   0  0  0  0  0  3  0  0  0  0  0  0
  1 17  1  0  0  0  0
  3  7  1  0  0  0  0
  4 13  1  0  0  0  0
  5 16  1  0  0  0  0
  5 12  1  0  0  0  0
  6 13  1  0  0  0  0
  6 18  1  0  0  0  0
  7  9  1  0  0  0  0
  7  2  1  0  0  0  0
  8  5  2  0  0  0  0
  9  8  2  0  0  0  0
 10 24  1  6  0  0  0
 10  1  1  0  0  0  0
 12  6  2  0  0  0  0
 13 11  1  1  0  0  0
 14  3  2  0  0  0  0
 14 15  1  0  0  0  0
 15 10  1  0  0  0  0
 15  9  1  0  0  0  0
 16  4  2  0  0  0  0
 17 16  1  0  0  0  0
 18 19  1  0  0  0  0
 19 21  1  0  0  0  0
 20 23  1  0  0  0  0
 20 21  1  0  0  0  0
 22 20  2  0  0  0  0
 25 32  1  1  0  0  0
 25 30  1  0  0  0  0
 26 30  1  0  0  0  0
 26 29  1  1  0  0  0
 27 26  1  0  0  0  0
 28 27  1  0  0  0  0
 28 25  1  0  0  0  0
 30 24  1  6  0  0  0
 32 31  2  0  0  0  0
M  END
>  <MODEL>
4

>  <REMARK>
 VINA RESULT:      -8.0      2.898      8.776
  Name = 
  6 active torsions:
  status: ('A' for Active; 'I' for Inactive)
    1  A    between atoms: O_2  and  C_12
    2  A    between atoms: O_2  and  C_24
    3  A    between atoms: C_7  and  C_29
    4  A    between atoms: N_10  and  C_24
    5  A    between atoms: C_16  and  C_27
    6  A    between atoms: C_27  and  C_32
                            x       y       z     vdW  Elec       q    Type
                         _______ _______ _______ _____ _____    ______ ____

>  <TORSDO>
F 6

$$$$
=
 OpenBabel11052416563D

 32 35  0  0  1  0  0  0  0  0999 V2000
  185.4180  179.7520  142.5150 C   0  0  0  0  0  2  0  0  0  0  0  0
  189.1730  177.1800  145.4060 C   0  0  0  0  0  1  0  0  0  0  0  0
  186.9150  177.8770  146.4320 C   0  0  0  0  0  3  0  0  0  0  0  0
  187.2510  178.6100  139.4790 N   0  0  0  0  0  0  0  0  0  0  0  0
  187.9040  177.9990  141.7000 C   0  0  0  0  0  0  0  0  0  0  0  0
  189.4520  177.4840  139.8950 C   0  0  0  0  0  0  0  0  0  0  0  0
  187.7590  177.5080  145.3050 N   0  0  0  0  0  0  0  0  0  0  0  0
  187.5540  177.7950  142.9320 C   0  0  0  0  0  0  0  0  0  0  0  0
  187.0230  177.6760  144.1150 C   0  0  0  0  0  0  0  0  0  0  0  0
  184.7940  178.6190  143.3270 C   0  0  1  0  0  3  0  0  0  0  0  0
  189.0560  178.8790  137.8640 C   0  0  0  0  0  1  0  0  0  0  0  0
  189.1780  177.4850  141.2050 C   0  0  0  0  0  3  0  0  0  0  0  0
  188.4230  177.9520  138.8850 C   0  0  2  0  0  3  0  0  0  0  0  0
  185.5640  178.3030  145.8180 C   0  0  0  0  0  3  0  0  0  0  0  0
  185.7250  178.1700  144.3720 N   0  0  0  0  0  0  0  0  0  0  0  0
  186.9650  178.6330  140.7470 C   0  0  0  0  0  0  0  0  0  0  0  0
  185.7620  179.3130  141.1620 N   0  0  0  0  0  2  0  0  0  0  0  0
  190.6770  176.9980  139.4180 O   0  0  0  0  0  0  0  0  0  0  0  0
  190.8220  175.7580  138.7320 C   0  0  0  0  0  2  0  0  0  0  0  0
  193.0200  176.2200  137.5920 C   0  0  0  0  0  0  0  0  0  0  0  0
  191.6210  175.9440  137.5290 N   0  0  0  0  0  2  0  0  0  0  0  0
  193.6060  176.3190  138.7030 O   0  0  0  0  0  0  0  0  0  0  0  0
  193.7970  176.3810  136.3360 C   0  0  0  0  0  1  0  0  0  0  0  0
  183.4620  179.0790  143.9060 C   0  0  0  0  0  2  0  0  0  0  0  0
  182.2970  178.9540  141.7170 C   0  0  1  0  0  3  0  0  0  0  0  0
  181.0120  179.0110  143.6590 C   0  0  1  0  0  3  0  0  0  0  0  0
  180.4720  179.8350  142.5870 N   0  0  0  0  0  2  0  0  0  0  0  0
  180.9950  179.3800  141.4130 O   0  0  0  0  0  0  0  0  0  0  0  0
  180.0540  177.8720  143.9580 C   0  0  0  0  0  1  0  0  0  0  0  0
  182.3020  178.4600  143.1420 C   0  0  2  0  0  3  0  0  0  0  0  0
  181.8750  177.0850  140.1400 C   0  0  0  0  0  2  0  0  0  0  0  0
  182.7430  177.8850  140.7640 C   0  0  0  0  0  3  0  0  0  0  0  0
  1 10  1  0  0  0  0
  4 16  2  0  0  0  0
  5  8  2  0  0  0  0
  6 12  2  0  0  0  0
  7  2  1  0  0  0  0
  7  3  1  0  0  0  0
  8  9  2  0  0  0  0
  9 15  1  0  0  0  0
  9  7  1  0  0  0  0
 10 24  1  1  0  0  0
 10 15  1  0  0  0  0
 12  5  1  0  0  0  0
 13 11  1  6  0  0  0
 13  4  1  0  0  0  0
 13  6  1  0  0  0  0
 14  3  2  0  0  0  0
 15 14  1  0  0  0  0
 16 17  1  0  0  0  0
 16  5  1  0  0  0  0
 17  1  1  0  0  0  0
 18  6  1  0  0  0  0
 19 18  1  0  0  0  0
 20 22  2  0  0  0  0
 21 20  1  0  0  0  0
 21 19  1  0  0  0  0
 23 20  1  0  0  0  0
 25 32  1  6  0  0  0
 25 30  1  0  0  0  0
 26 29  1  6  0  0  0
 27 26  1  0  0  0  0
 28 25  1  0  0  0  0
 28 27  1  0  0  0  0
 30 26  1  0  0  0  0
 30 24  1  1  0  0  0
 31 32  2  0  0  0  0
M  END
>  <MODEL>
5

>  <REMARK>
 VINA RESULT:      -7.9      2.799      5.944
  Name = 
  6 active torsions:
  status: ('A' for Active; 'I' for Inactive)
    1  A    between atoms: O_2  and  C_12
    2  A    between atoms: O_2  and  C_24
    3  A    between atoms: C_7  and  C_29
    4  A    between atoms: N_10  and  C_24
    5  A    between atoms: C_16  and  C_27
    6  A    between atoms: C_27  and  C_32
                            x       y       z     vdW  Elec       q    Type
                         _______ _______ _______ _____ _____    ______ ____

>  <TORSDO>
F 6

$$$$
=
 OpenBabel11052416563D

 32 35  0  0  1  0  0  0  0  0999 V2000
  184.9860  179.3900  140.3130 C   0  0  0  0  0  2  0  0  0  0  0  0
  184.8120  178.6020  145.6440 C   0  0  0  0  0  1  0  0  0  0  0  0
  182.6900  179.1350  144.2840 C   0  0  0  0  0  3  0  0  0  0  0  0
  188.3260  177.7430  140.3740 N   0  0  0  0  0  0  0  0  0  0  0  0
  186.9580  177.9820  142.3240 C   0  0  0  0  0  0  0  0  0  0  0  0
  189.2540  177.2440  142.6500 C   0  0  0  0  0  0  0  0  0  0  0  0
  184.0400  178.6060  144.4110 N   0  0  0  0  0  0  0  0  0  0  0  0
  185.7670  178.1040  142.8240 C   0  0  0  0  0  0  0  0  0  0  0  0
  184.5110  178.2550  143.1300 C   0  0  0  0  0  0  0  0  0  0  0  0
  183.8290  178.4640  140.6860 C   0  0  1  0  0  3  0  0  0  0  0  0
  190.7350  177.8420  140.7330 C   0  0  0  0  0  1  0  0  0  0  0  0
  188.0760  177.5950  143.1800 C   0  0  0  0  0  3  0  0  0  0  0  0
  189.4380  177.1720  141.1470 C   0  0  2  0  0  3  0  0  0  0  0  0
  182.3640  179.0840  142.7760 C   0  0  0  0  0  3  0  0  0  0  0  0
  183.5580  178.5460  142.1290 N   0  0  0  0  0  0  0  0  0  0  0  0
  187.1770  178.1000  140.8650 C   0  0  0  0  0  0  0  0  0  0  0  0
  186.1860  178.6310  139.9610 N   0  0  0  0  0  2  0  0  0  0  0  0
  190.3300  176.8780  143.4700 O   0  0  0  0  0  0  0  0  0  0  0  0
  190.7000  177.5840  144.6500 C   0  0  0  0  0  2  0  0  0  0  0  0
  191.4250  176.4420  146.7740 C   0  0  0  0  0  0  0  0  0  0  0  0
  191.6640  176.8070  145.4160 N   0  0  0  0  0  2  0  0  0  0  0  0
  190.3650  176.7960  147.3570 O   0  0  0  0  0  0  0  0  0  0  0  0
  192.4300  175.6300  147.5070 C   0  0  0  0  0  1  0  0  0  0  0  0
  182.6040  178.8160  139.8520 C   0  0  0  0  0  2  0  0  0  0  0  0
  182.3880  176.3570  139.5820 C   0  0  1  0  0  3  0  0  0  0  0  0
  183.3450  177.5870  137.8500 C   0  0  1  0  0  3  0  0  0  0  0  0
  184.0310  176.3300  138.1100 N   0  0  0  0  0  2  0  0  0  0  0  0
  183.1610  175.5130  138.7700 O   0  0  0  0  0  0  0  0  0  0  0  0
  182.7180  177.5490  136.4680 C   0  0  0  0  0  1  0  0  0  0  0  0
  182.2710  177.6900  138.8860 C   0  0  2  0  0  3  0  0  0  0  0  0
  180.5190  174.8130  139.0550 C   0  0  0  0  0  2  0  0  0  0  0  0
  181.0390  175.7550  139.8450 C   0  0  0  0  0  3  0  0  0  0  0  0
  1 10  1  0  0  0  0
  3  7  1  0  0  0  0
  4 16  2  0  0  0  0
  4 13  1  0  0  0  0
  5  8  2  0  0  0  0
  5 12  1  0  0  0  0
  6 12  2  0  0  0  0
  6 18  1  0  0  0  0
  7  2  1  0  0  0  0
  8  9  2  0  0  0  0
  9  7  1  0  0  0  0
 10 24  1  6  0  0  0
 10 15  1  0  0  0  0
 13 11  1  1  0  0  0
 13  6  1  0  0  0  0
 14  3  2  0  0  0  0
 15 14  1  0  0  0  0
 15  9  1  0  0  0  0
 16  5  1  0  0  0  0
 17  1  1  0  0  0  0
 17 16  1  0  0  0  0
 18 19  1  0  0  0  0
 19 21  1  0  0  0  0
 20 22  2  0  0  0  0
 20 23  1  0  0  0  0
 21 20  1  0  0  0  0
 25 32  1  6  0  0  0
 26 29  1  6  0  0  0
 26 27  1  0  0  0  0
 26 30  1  0  0  0  0
 27 28  1  0  0  0  0
 28 25  1  0  0  0  0
 30 25  1  0  0  0  0
 30 24  1  1  0  0  0
 31 32  2  0  0  0  0
M  END
>  <MODEL>
6

>  <REMARK>
 VINA RESULT:      -7.7      3.063      7.833
  Name = 
  6 active torsions:
  status: ('A' for Active; 'I' for Inactive)
    1  A    between atoms: O_2  and  C_12
    2  A    between atoms: O_2  and  C_24
    3  A    between atoms: C_7  and  C_29
    4  A    between atoms: N_10  and  C_24
    5  A    between atoms: C_16  and  C_27
    6  A    between atoms: C_27  and  C_32
                            x       y       z     vdW  Elec       q    Type
                         _______ _______ _______ _____ _____    ______ ____

>  <TORSDO>
F 6

$$$$
=
 OpenBabel11052416563D

 32 35  0  0  1  0  0  0  0  0999 V2000
  187.2660  177.8250  139.2990 C   0  0  0  0  0  2  0  0  0  0  0  0
  190.4890  176.4690  143.4030 C   0  0  0  0  0  1  0  0  0  0  0  0
  191.3460  176.5390  140.9750 C   0  0  0  0  0  3  0  0  0  0  0  0
  184.9610  179.2730  141.8410 N   0  0  0  0  0  0  0  0  0  0  0  0
  187.0780  178.3090  142.4050 C   0  0  0  0  0  0  0  0  0  0  0  0
  185.5620  178.8310  144.2350 C   0  0  0  0  0  0  0  0  0  0  0  0
  190.4390  176.9580  142.0340 N   0  0  0  0  0  0  0  0  0  0  0  0
  188.2870  178.0170  142.0350 C   0  0  0  0  0  0  0  0  0  0  0  0
  189.4370  177.7760  141.4740 C   0  0  0  0  0  0  0  0  0  0  0  0
  188.6080  178.5470  139.1940 C   0  0  1  0  0  3  0  0  0  0  0  0
  183.1870  179.0090  143.4910 C   0  0  0  0  0  1  0  0  0  0  0  0
  186.7270  178.3160  143.8220 C   0  0  0  0  0  3  0  0  0  0  0  0
  184.6090  179.4810  143.2530 C   0  0  2  0  0  3  0  0  0  0  0  0
  190.7970  177.1790  139.6810 C   0  0  0  0  0  3  0  0  0  0  0  0
  189.5970  177.9120  140.0780 N   0  0  0  0  0  0  0  0  0  0  0  0
  186.0790  178.7670  141.4130 C   0  0  0  0  0  0  0  0  0  0  0  0
  186.2710  178.6460  139.9890 N   0  0  0  0  0  2  0  0  0  0  0  0
  185.2190  178.8320  145.5940 O   0  0  0  0  0  0  0  0  0  0  0  0
  185.5910  177.8020  146.5040 C   0  0  0  0  0  2  0  0  0  0  0  0
  187.9210  177.8280  147.4580 C   0  0  0  0  0  0  0  0  0  0  0  0
  186.5760  178.3040  147.4510 N   0  0  0  0  0  2  0  0  0  0  0  0
  188.2950  176.9440  146.6410 O   0  0  0  0  0  0  0  0  0  0  0  0
  188.8950  178.3870  148.4320 C   0  0  0  0  0  1  0  0  0  0  0  0
  189.0670  178.5660  137.7420 C   0  0  0  0  0  2  0  0  0  0  0  0
  189.3660  176.5130  136.3780 C   0  0  1  0  0  3  0  0  0  0  0  0
  187.7830  178.0800  135.6960 C   0  0  1  0  0  3  0  0  0  0  0  0
  188.5560  177.5260  134.5940 N   0  0  0  0  0  2  0  0  0  0  0  0
  189.0840  176.3410  135.0140 O   0  0  0  0  0  0  0  0  0  0  0  0
  186.3300  177.6660  135.5590 C   0  0  0  0  0  1  0  0  0  0  0  0
  188.3600  177.4840  136.9410 C   0  0  2  0  0  3  0  0  0  0  0  0
  190.3880  174.3940  137.1660 C   0  0  0  0  0  2  0  0  0  0  0  0
  189.3250  175.1990  137.1000 C   0  0  0  0  0  3  0  0  0  0  0  0
  1 17  1  0  0  0  0
  3  7  1  0  0  0  0
  4 13  1  0  0  0  0
  5 12  1  0  0  0  0
  6 18  1  0  0  0  0
  7  2  1  0  0  0  0
  8  5  2  0  0  0  0
  9  7  1  0  0  0  0
  9  8  2  0  0  0  0
 10 24  1  6  0  0  0
 10  1  1  0  0  0  0
 10 15  1  0  0  0  0
 12  6  2  0  0  0  0
 13 11  1  6  0  0  0
 13  6  1  0  0  0  0
 14 15  1  0  0  0  0
 14  3  2  0  0  0  0
 15  9  1  0  0  0  0
 16  4  2  0  0  0  0
 16  5  1  0  0  0  0
 17 16  1  0  0  0  0
 18 19  1  0  0  0  0
 19 21  1  0  0  0  0
 20 23  1  0  0  0  0
 21 20  1  0  0  0  0
 22 20  2  0  0  0  0
 25 30  1  0  0  0  0
 25 32  1  1  0  0  0
 26 29  1  6  0  0  0
 26 30  1  0  0  0  0
 27 28  1  0  0  0  0
 27 26  1  0  0  0  0
 28 25  1  0  0  0  0
 30 24  1  1  0  0  0
 32 31  2  0  0  0  0
M  END
>  <MODEL>
7

>  <REMARK>
 VINA RESULT:      -7.7      1.952      8.626
  Name = 
  6 active torsions:
  status: ('A' for Active; 'I' for Inactive)
    1  A    between atoms: O_2  and  C_12
    2  A    between atoms: O_2  and  C_24
    3  A    between atoms: C_7  and  C_29
    4  A    between atoms: N_10  and  C_24
    5  A    between atoms: C_16  and  C_27
    6  A    between atoms: C_27  and  C_32
                            x       y       z     vdW  Elec       q    Type
                         _______ _______ _______ _____ _____    ______ ____

>  <TORSDO>
F 6

$$$$
=
 OpenBabel11052416563D

 32 35  0  0  1  0  0  0  0  0999 V2000
  183.1470  179.5360  139.2720 C   0  0  0  0  0  2  0  0  0  0  0  0
  183.9380  179.2310  144.5960 C   0  0  0  0  0  1  0  0  0  0  0  0
  181.5720  179.3230  143.5820 C   0  0  0  0  0  3  0  0  0  0  0  0
  186.6730  178.3990  138.8790 N   0  0  0  0  0  0  0  0  0  0  0  0
  185.6080  178.6190  141.0110 C   0  0  0  0  0  0  0  0  0  0  0  0
  188.0130  178.2530  140.9930 C   0  0  0  0  0  0  0  0  0  0  0  0
  182.9920  179.0090  143.5150 N   0  0  0  0  0  0  0  0  0  0  0  0
  184.5050  178.6150  141.6960 C   0  0  0  0  0  0  0  0  0  0  0  0
  183.3050  178.6110  142.1990 C   0  0  0  0  0  0  0  0  0  0  0  0
  182.2240  178.4920  139.8970 C   0  0  1  0  0  3  0  0  0  0  0  0
  189.0620  178.8770  138.8170 C   0  0  0  0  0  1  0  0  0  0  0  0
  186.8920  178.4790  141.6900 C   0  0  0  0  0  3  0  0  0  0  0  0
  187.9680  178.0690  139.4890 C   0  0  2  0  0  3  0  0  0  0  0  0
  181.0260  179.0860  142.1580 C   0  0  0  0  0  3  0  0  0  0  0  0
  182.1730  178.6670  141.3560 N   0  0  0  0  0  0  0  0  0  0  0  0
  185.5730  178.6310  139.5310 C   0  0  0  0  0  0  0  0  0  0  0  0
  184.3810  178.9270  138.7740 N   0  0  0  0  0  2  0  0  0  0  0  0
  189.2490  178.1240  141.6420 O   0  0  0  0  0  0  0  0  0  0  0  0
  189.6150  176.9940  142.4280 C   0  0  0  0  0  2  0  0  0  0  0  0
  188.8340  177.2410  144.8090 C   0  0  0  0  0  0  0  0  0  0  0  0
  189.8390  177.3980  143.8090 N   0  0  0  0  0  2  0  0  0  0  0  0
  187.7100  176.7510  144.5200 O   0  0  0  0  0  0  0  0  0  0  0  0
  189.1180  177.6500  146.2100 C   0  0  0  0  0  1  0  0  0  0  0  0
  180.8430  178.5840  139.2610 C   0  0  0  0  0  2  0  0  0  0  0  0
  181.0400  176.1160  139.4440 C   0  0  1  0  0  3  0  0  0  0  0  0
  181.1210  177.0840  137.3270 C   0  0  1  0  0  3  0  0  0  0  0  0
  182.0880  176.0110  137.5060 N   0  0  0  0  0  2  0  0  0  0  0  0
  181.6580  175.2360  138.5420 O   0  0  0  0  0  0  0  0  0  0  0  0
  180.1000  176.6810  136.2780 C   0  0  0  0  0  1  0  0  0  0  0  0
  180.4440  177.2500  138.6490 C   0  0  2  0  0  3  0  0  0  0  0  0
  179.6710  174.1290  140.0220 C   0  0  0  0  0  2  0  0  0  0  0  0
  179.9970  175.4030  140.2530 C   0  0  0  0  0  3  0  0  0  0  0  0
  1 10  1  0  0  0  0
  4 13  1  0  0  0  0
  4 16  2  0  0  0  0
  5 12  1  0  0  0  0
  5  8  2  0  0  0  0
  6 18  1  0  0  0  0
  6 12  2  0  0  0  0
  7  3  1  0  0  0  0
  7  2  1  0  0  0  0
  8  9  2  0  0  0  0
  9  7  1  0  0  0  0
 10 24  1  6  0  0  0
 10 15  1  0  0  0  0
 13 11  1  6  0  0  0
 13  6  1  0  0  0  0
 14  3  2  0  0  0  0
 15 14  1  0  0  0  0
 15  9  1  0  0  0  0
 16  5  1  0  0  0  0
 17  1  1  0  0  0  0
 17 16  1  0  0  0  0
 18 19  1  0  0  0  0
 19 21  1  0  0  0  0
 20 23  1  0  0  0  0
 21 20  1  0  0  0  0
 22 20  2  0  0  0  0
 25 32  1  6  0  0  0
 26 29  1  6  0  0  0
 26 27  1  0  0  0  0
 26 30  1  0  0  0  0
 27 28  1  0  0  0  0
 28 25  1  0  0  0  0
 30 24  1  1  0  0  0
 30 25  1  0  0  0  0
 31 32  2  0  0  0  0
M  END
>  <MODEL>
8

>  <REMARK>
 VINA RESULT:      -7.3      3.553      8.116
  Name = 
  6 active torsions:
  status: ('A' for Active; 'I' for Inactive)
    1  A    between atoms: O_2  and  C_12
    2  A    between atoms: O_2  and  C_24
    3  A    between atoms: C_7  and  C_29
    4  A    between atoms: N_10  and  C_24
    5  A    between atoms: C_16  and  C_27
    6  A    between atoms: C_27  and  C_32
                            x       y       z     vdW  Elec       q    Type
                         _______ _______ _______ _____ _____    ______ ____

>  <TORSDO>
F 6

$$$$
=
 OpenBabel11052416563D

 32 35  0  0  1  0  0  0  0  0999 V2000
  192.8470  177.1590  138.4070 C   0  0  0  0  0  2  0  0  0  0  0  0
  187.5530  176.5670  137.5770 C   0  0  0  0  0  1  0  0  0  0  0  0
  189.2880  175.8390  135.8190 C   0  0  0  0  0  3  0  0  0  0  0  0
  192.0390  177.5570  142.0210 N   0  0  0  0  0  0  0  0  0  0  0  0
  190.3790  177.0880  140.3620 C   0  0  0  0  0  0  0  0  0  0  0  0
  189.6000  177.7020  142.5830 C   0  0  0  0  0  0  0  0  0  0  0  0
  188.8800  176.1190  137.1870 N   0  0  0  0  0  0  0  0  0  0  0  0
  190.0940  176.5700  139.2070 C   0  0  0  0  0  0  0  0  0  0  0  0
  190.0120  176.0340  138.0230 C   0  0  0  0  0  0  0  0  0  0  0  0
  192.5380  175.7700  137.8500 C   0  0  1  0  0  3  0  0  0  0  0  0
  191.3240  178.9400  143.8960 C   0  0  0  0  0  1  0  0  0  0  0  0
  189.3140  177.3850  141.3140 C   0  0  0  0  0  3  0  0  0  0  0  0
  191.0310  177.6940  143.0820 C   0  0  2  0  0  3  0  0  0  0  0  0
  190.8080  175.5750  135.8830 C   0  0  0  0  0  3  0  0  0  0  0  0
  191.1810  175.7390  137.2870 N   0  0  0  0  0  0  0  0  0  0  0  0
  191.7880  177.2590  140.7810 C   0  0  0  0  0  0  0  0  0  0  0  0
  192.9000  177.1480  139.8690 N   0  0  0  0  0  2  0  0  0  0  0  0
  188.5790  177.9950  143.4980 O   0  0  0  0  0  0  0  0  0  0  0  0
  188.0250  177.0400  144.3960 C   0  0  0  0  0  2  0  0  0  0  0  0
  189.0010  177.4510  146.6810 C   0  0  0  0  0  0  0  0  0  0  0  0
  187.9430  177.6030  145.7360 N   0  0  0  0  0  2  0  0  0  0  0  0
  190.0440  176.8090  146.3800 O   0  0  0  0  0  0  0  0  0  0  0  0
  188.8790  178.0620  148.0300 C   0  0  0  0  0  1  0  0  0  0  0  0
  193.5940  175.3850  136.8210 C   0  0  0  0  0  2  0  0  0  0  0  0
  195.5400  173.9000  137.2340 C   0  0  1  0  0  3  0  0  0  0  0  0
  193.8900  173.1860  135.7520 C   0  0  1  0  0  3  0  0  0  0  0  0
  195.2400  172.8940  135.2940 N   0  0  0  0  0  2  0  0  0  0  0  0
  196.0600  172.9110  136.3830 O   0  0  0  0  0  0  0  0  0  0  0  0
  193.1510  171.8880  136.0210 C   0  0  0  0  0  1  0  0  0  0  0  0
  194.0470  173.9490  137.0290 C   0  0  2  0  0  3  0  0  0  0  0  0
  196.0480  174.5800  139.5650 C   0  0  0  0  0  2  0  0  0  0  0  0
  195.8890  173.6090  138.6640 C   0  0  0  0  0  3  0  0  0  0  0  0
  1 17  1  0  0  0  0
  3 14  2  0  0  0  0
  3  7  1  0  0  0  0
  4 13  1  0  0  0  0
  5 16  1  0  0  0  0
  5 12  1  0  0  0  0
  6 13  1  0  0  0  0
  6 18  1  0  0  0  0
  7  2  1  0  0  0  0
  7  9  1  0  0  0  0
  8  5  2  0  0  0  0
  9  8  2  0  0  0  0
 10 24  1  6  0  0  0
 10  1  1  0  0  0  0
 12  6  2  0  0  0  0
 13 11  1  6  0  0  0
 14 15  1  0  0  0  0
 15 10  1  0  0  0  0
 15  9  1  0  0  0  0
 16  4  2  0  0  0  0
 17 16  1  0  0  0  0
 18 19  1  0  0  0  0
 19 21  1  0  0  0  0
 20 23  1  0  0  0  0
 21 20  1  0  0  0  0
 22 20  2  0  0  0  0
 25 32  1  1  0  0  0
 26 29  1  1  0  0  0
 26 30  1  0  0  0  0
 27 26  1  0  0  0  0
 27 28  1  0  0  0  0
 28 25  1  0  0  0  0
 30 24  1  6  0  0  0
 30 25  1  0  0  0  0
 32 31  2  0  0  0  0
M  END
>  <MODEL>
9

>  <REMARK>
 VINA RESULT:      -7.3      3.310      8.730
  Name = 
  6 active torsions:
  status: ('A' for Active; 'I' for Inactive)
    1  A    between atoms: O_2  and  C_12
    2  A    between atoms: O_2  and  C_24
    3  A    between atoms: C_7  and  C_29
    4  A    between atoms: N_10  and  C_24
    5  A    between atoms: C_16  and  C_27
    6  A    between atoms: C_27  and  C_32
                            x       y       z     vdW  Elec       q    Type
                         _______ _______ _______ _____ _____    ______ ____

>  <TORSDO>
F 6

$$$$
