=
 OpenBabel11052415413D

 34 38  0  0  1  0  0  0  0  0999 V2000
  183.1300  178.3280  140.8380 C   0  0  0  0  0  0  0  0  0  0  0  0
  179.3580  178.3560  141.8120 C   0  0  0  0  0  2  0  0  0  0  0  0
  181.3740  179.2080  143.0870 C   0  0  0  0  0  2  0  0  0  0  0  0
  183.9020  177.9620  139.9630 O   0  0  0  0  0  0  0  0  0  0  0  0
  185.0190  179.6550  143.8110 N   0  0  0  0  0  2  0  0  0  0  0  0
  183.6270  179.5760  144.2720 C   0  0  1  0  0  3  0  0  0  0  0  0
  185.0400  179.1900  142.4180 C   0  0  2  0  0  3  0  0  0  0  0  0
  182.8530  178.8470  143.2030 C   0  0  2  0  0  3  0  0  0  0  0  0
  183.5920  179.2180  141.9600 C   0  0  2  0  0  3  0  0  0  0  0  0
  183.5620  178.8060  145.5760 C   0  0  0  0  0  1  0  0  0  0  0  0
  178.9310  177.4710  140.6310 C   0  0  0  0  0  2  0  0  0  0  0  0
  179.5810  177.8930  139.3040 C   0  0  2  0  0  3  0  0  0  0  0  0
  180.8000  178.8560  141.6960 C   0  0  1  0  0  3  0  0  0  0  0  0
  181.1170  177.9090  139.3790 C   0  0  0  0  0  2  0  0  0  0  0  0
  181.6700  177.9250  140.8100 C   0  0  1  0  0  3  0  0  0  0  0  0
  185.6520  177.7880  142.3610 C   0  0  0  0  0  2  0  0  0  0  0  0
  186.8870  177.1860  144.8510 F   0  0  0  0  0  0  0  0  0  0  0  0
  189.3400  178.2910  141.6780 C   0  0  0  0  0  3  0  0  0  0  0  0
  191.1510  176.9910  145.3090 C   0  0  1  0  0  3  0  0  0  0  0  0
  189.6600  177.3500  145.3620 C   0  0  0  0  0  2  0  0  0  0  0  0
  189.0820  177.6010  143.9950 C   0  0  0  0  0  0  0  0  0  0  0  0
  187.1310  177.8390  142.5640 C   0  0  0  0  0  0  0  0  0  0  0  0
  191.4050  178.0220  143.0460 C   0  0  0  0  0  2  0  0  0  0  0  0
  189.9080  178.0010  142.9210 C   0  0  0  0  0  0  0  0  0  0  0  0
  191.8630  178.0790  144.5000 C   0  0  0  0  0  2  0  0  0  0  0  0
  187.9570  178.2170  141.5010 C   0  0  0  0  0  3  0  0  0  0  0  0
  187.6910  177.5370  143.8140 C   0  0  0  0  0  0  0  0  0  0  0  0
  190.6250  177.0000  147.6260 C   0  0  0  0  0  1  0  0  0  0  0  0
  191.7140  176.8900  146.6630 N   0  0  0  0  0  0  0  0  0  0  0  0
  192.2440  175.5460  146.8470 C   0  0  0  0  0  1  0  0  0  0  0  0
  179.0730  179.2510  138.8310 C   0  0  0  0  0  2  0  0  0  0  0  0
  180.1940  180.0870  138.2260 C   0  0  0  0  0  2  0  0  0  0  0  0
  180.3540  181.4180  138.9470 C   0  0  0  0  0  2  0  0  0  0  0  0
  179.2160  181.6290  139.9280 C   0  0  0  0  0  1  0  0  0  0  0  0
  4  1  2  0  0  0  0
  5  6  1  0  0  0  0
  6 10  1  1  0  0  0
  7 16  1  1  0  0  0
  7  5  1  0  0  0  0
  8  3  1  6  0  0  0
  8  6  1  0  0  0  0
  9  1  1  6  0  0  0
  9  7  1  0  0  0  0
  9  8  1  0  0  0  0
 11  2  1  0  0  0  0
 12 31  1  1  0  0  0
 12 14  1  0  0  0  0
 12 11  1  0  0  0  0
 13  2  1  1  0  0  0
 13  3  1  0  0  0  0
 15 14  1  6  0  0  0
 15  1  1  0  0  0  0
 15 13  1  0  0  0  0
 16 22  1  0  0  0  0
 18 24  1  0  0  0  0
 19 20  1  0  0  0  0
 19 29  1  1  0  0  0
 21 20  1  0  0  0  0
 22 27  2  0  0  0  0
 23 25  1  0  0  0  0
 24 23  1  0  0  0  0
 24 21  2  0  0  0  0
 25 19  1  0  0  0  0
 26 18  2  0  0  0  0
 26 22  1  0  0  0  0
 27 21  1  0  0  0  0
 27 17  1  0  0  0  0
 29 30  1  0  0  0  0
 29 28  1  0  0  0  0
 32 31  1  0  0  0  0
 32 33  1  0  0  0  0
 33 34  1  0  0  0  0
M  END
>  <MODEL>
1

>  <REMARK>
 VINA RESULT:      -8.5      0.000      0.000
  Name = 
  6 active torsions:
  status: ('A' for Active; 'I' for Inactive)
    1  A    between atoms: C_3  and  C_24
    2  A    between atoms: C_7  and  N_15
    3  A    between atoms: C_8  and  C_17
    4  A    between atoms: C_8  and  C_18
    5  A    between atoms: C_24  and  C_25
    6  A    between atoms: C_25  and  C_27
                            x       y       z     vdW  Elec       q    Type
                         _______ _______ _______ _____ _____    ______ ____

>  <TORSDO>
F 6

$$$$
=
 OpenBabel11052415413D

 34 38  0  0  1  0  0  0  0  0999 V2000
  190.6040  175.9440  138.2990 C   0  0  0  0  0  0  0  0  0  0  0  0
  190.5330  174.7380  134.5950 C   0  0  0  0  0  2  0  0  0  0  0  0
  189.7480  176.9220  135.6110 C   0  0  0  0  0  2  0  0  0  0  0  0
  190.9060  175.5860  139.4290 O   0  0  0  0  0  0  0  0  0  0  0  0
  188.8470  179.2720  138.3810 N   0  0  0  0  0  2  0  0  0  0  0  0
  188.6880  178.8130  136.9960 C   0  0  1  0  0  3  0  0  0  0  0  0
  189.6120  178.2400  139.0940 C   0  0  2  0  0  3  0  0  0  0  0  0
  189.1790  177.3880  136.9490 C   0  0  2  0  0  3  0  0  0  0  0  0
  190.2280  177.3720  138.0110 C   0  0  2  0  0  3  0  0  0  0  0  0
  187.2260  178.8720  136.6010 C   0  0  0  0  0  1  0  0  0  0  0  0
  190.9500  173.3000  134.9380 C   0  0  0  0  0  2  0  0  0  0  0  0
  192.1110  173.2390  135.9430 C   0  0  2  0  0  3  0  0  0  0  0  0
  190.6850  175.7030  135.7740 C   0  0  1  0  0  3  0  0  0  0  0  0
  191.7990  173.9870  137.2500 C   0  0  0  0  0  2  0  0  0  0  0  0
  190.6240  174.9700  137.1390 C   0  0  1  0  0  3  0  0  0  0  0  0
  188.6710  177.4580  140.0150 C   0  0  0  0  0  2  0  0  0  0  0  0
  186.9480  177.4960  142.2780 F   0  0  0  0  0  0  0  0  0  0  0  0
  191.0530  177.4640  142.9560 C   0  0  0  0  0  3  0  0  0  0  0  0
  188.4230  177.1150  146.2920 C   0  0  1  0  0  3  0  0  0  0  0  0
  187.8110  177.5870  144.9660 C   0  0  0  0  0  2  0  0  0  0  0  0
  188.7790  177.4830  143.8180 C   0  0  0  0  0  0  0  0  0  0  0  0
  189.1790  177.4530  141.4200 C   0  0  0  0  0  0  0  0  0  0  0  0
  190.7480  177.4380  145.4300 C   0  0  0  0  0  2  0  0  0  0  0  0
  190.1740  177.4970  144.0430 C   0  0  0  0  0  0  0  0  0  0  0  0
  189.7400  177.8720  146.4900 C   0  0  0  0  0  2  0  0  0  0  0  0
  190.5580  177.4490  141.6510 C   0  0  0  0  0  3  0  0  0  0  0  0
  188.2880  177.4760  142.5020 C   0  0  0  0  0  0  0  0  0  0  0  0
  188.1540  178.2550  148.3590 C   0  0  0  0  0  1  0  0  0  0  0  0
  187.5030  177.3600  147.4100 N   0  0  0  0  0  0  0  0  0  0  0  0
  186.3570  178.1090  146.9130 C   0  0  0  0  0  1  0  0  0  0  0  0
  193.4080  173.7700  135.3420 C   0  0  0  0  0  2  0  0  0  0  0  0
  194.2860  174.4270  136.4010 C   0  0  0  0  0  2  0  0  0  0  0  0
  194.5500  175.8900  136.0810 C   0  0  0  0  0  2  0  0  0  0  0  0
  194.1570  176.2000  134.6490 C   0  0  0  0  0  1  0  0  0  0  0  0
  1  4  2  0  0  0  0
  2 11  1  0  0  0  0
  3 13  1  0  0  0  0
  5  7  1  0  0  0  0
  6 10  1  1  0  0  0
  6  5  1  0  0  0  0
  7 16  1  1  0  0  0
  8  3  1  6  0  0  0
  8  6  1  0  0  0  0
  8  9  1  0  0  0  0
  9  1  1  1  0  0  0
  9  7  1  0  0  0  0
 11 12  1  0  0  0  0
 12 31  1  6  0  0  0
 12 14  1  0  0  0  0
 13  2  1  6  0  0  0
 13 15  1  0  0  0  0
 15 14  1  1  0  0  0
 15  1  1  0  0  0  0
 16 22  1  0  0  0  0
 17 27  1  0  0  0  0
 18 24  1  0  0  0  0
 19 25  1  0  0  0  0
 19 29  1  1  0  0  0
 20 19  1  0  0  0  0
 21 24  2  0  0  0  0
 21 20  1  0  0  0  0
 22 26  1  0  0  0  0
 22 27  2  0  0  0  0
 23 25  1  0  0  0  0
 24 23  1  0  0  0  0
 26 18  2  0  0  0  0
 27 21  1  0  0  0  0
 29 28  1  0  0  0  0
 30 29  1  0  0  0  0
 31 32  1  0  0  0  0
 33 32  1  0  0  0  0
 34 33  1  0  0  0  0
M  END
>  <MODEL>
2

>  <REMARK>
 VINA RESULT:      -8.0      5.269      8.982
  Name = 
  6 active torsions:
  status: ('A' for Active; 'I' for Inactive)
    1  A    between atoms: C_3  and  C_24
    2  A    between atoms: C_7  and  N_15
    3  A    between atoms: C_8  and  C_17
    4  A    between atoms: C_8  and  C_18
    5  A    between atoms: C_24  and  C_25
    6  A    between atoms: C_25  and  C_27
                            x       y       z     vdW  Elec       q    Type
                         _______ _______ _______ _____ _____    ______ ____

>  <TORSDO>
F 6

$$$$
=
 OpenBabel11052415413D

 34 38  0  0  1  0  0  0  0  0999 V2000
  187.9400  177.6310  143.9950 C   0  0  0  0  0  0  0  0  0  0  0  0
  187.8990  178.1330  147.8580 C   0  0  0  0  0  2  0  0  0  0  0  0
  185.9820  178.0900  146.2020 C   0  0  0  0  0  2  0  0  0  0  0  0
  188.6950  177.4720  143.0470 O   0  0  0  0  0  0  0  0  0  0  0  0
  184.3960  178.0910  142.8120 N   0  0  0  0  0  2  0  0  0  0  0  0
  184.3430  178.4060  144.2460 C   0  0  1  0  0  3  0  0  0  0  0  0
  185.7870  177.7410  142.4970 C   0  0  2  0  0  3  0  0  0  0  0  0
  185.7690  178.4530  144.7350 C   0  0  2  0  0  3  0  0  0  0  0  0
  186.4520  177.4760  143.8370 C   0  0  2  0  0  3  0  0  0  0  0  0
  183.6790  179.7530  144.4500 C   0  0  0  0  0  1  0  0  0  0  0  0
  189.4260  178.2530  147.9720 C   0  0  0  0  0  2  0  0  0  0  0  0
  190.1700  177.1870  147.1520 C   0  0  2  0  0  3  0  0  0  0  0  0
  187.4360  177.6460  146.4830 C   0  0  1  0  0  3  0  0  0  0  0  0
  189.7820  177.2100  145.6640 C   0  0  0  0  0  2  0  0  0  0  0  0
  188.4740  177.9590  145.3740 C   0  0  1  0  0  3  0  0  0  0  0  0
  186.4400  178.8960  141.7320 C   0  0  0  0  0  2  0  0  0  0  0  0
  188.9090  178.2180  140.4940 F   0  0  0  0  0  0  0  0  0  0  0  0
  185.5050  178.3540  138.1060 C   0  0  0  0  0  3  0  0  0  0  0  0
  189.1510  176.9570  136.3970 C   0  0  1  0  0  3  0  0  0  0  0  0
  189.2460  177.6970  137.7390 C   0  0  0  0  0  2  0  0  0  0  0  0
  187.8940  177.9670  138.3420 C   0  0  0  0  0  0  0  0  0  0  0  0
  186.5550  178.5770  140.2780 C   0  0  0  0  0  0  0  0  0  0  0  0
  186.7790  177.6780  136.0730 C   0  0  0  0  0  2  0  0  0  0  0  0
  186.7400  178.0380  137.5310 C   0  0  0  0  0  0  0  0  0  0  0  0
  188.1920  177.7450  135.5000 C   0  0  0  0  0  2  0  0  0  0  0  0
  185.4140  178.6280  139.4710 C   0  0  0  0  0  3  0  0  0  0  0  0
  187.7980  178.2530  139.7140 C   0  0  0  0  0  0  0  0  0  0  0  0
  191.4040  176.2950  136.7550 C   0  0  0  0  0  1  0  0  0  0  0  0
  190.4750  176.8350  135.7710 N   0  0  0  0  0  0  0  0  0  0  0  0
  190.4030  175.8230  134.7270 C   0  0  0  0  0  1  0  0  0  0  0  0
  189.9580  175.7870  147.7190 C   0  0  0  0  0  2  0  0  0  0  0  0
  191.2450  174.9720  147.6920 C   0  0  0  0  0  2  0  0  0  0  0  0
  192.4700  175.8620  147.5500 C   0  0  0  0  0  2  0  0  0  0  0  0
  193.1800  176.0030  148.8830 C   0  0  0  0  0  1  0  0  0  0  0  0
  1 15  1  0  0  0  0
  2 11  1  0  0  0  0
  4  1  2  0  0  0  0
  5  6  1  0  0  0  0
  6 10  1  6  0  0  0
  6  8  1  0  0  0  0
  7 16  1  1  0  0  0
  7  5  1  0  0  0  0
  7  9  1  0  0  0  0
  8  3  1  1  0  0  0
  9  1  1  6  0  0  0
  9  8  1  0  0  0  0
 12 31  1  1  0  0  0
 12 11  1  0  0  0  0
 13  3  1  6  0  0  0
 13  2  1  0  0  0  0
 14 12  1  0  0  0  0
 15 14  1  1  0  0  0
 15 13  1  0  0  0  0
 18 26  1  0  0  0  0
 19 29  1  6  0  0  0
 19 20  1  0  0  0  0
 20 21  1  0  0  0  0
 21 27  2  0  0  0  0
 22 16  1  0  0  0  0
 23 24  1  0  0  0  0
 24 18  2  0  0  0  0
 24 21  1  0  0  0  0
 25 23  1  0  0  0  0
 25 19  1  0  0  0  0
 26 22  2  0  0  0  0
 27 22  1  0  0  0  0
 27 17  1  0  0  0  0
 29 28  1  0  0  0  0
 30 29  1  0  0  0  0
 32 31  1  0  0  0  0
 33 32  1  0  0  0  0
 33 34  1  0  0  0  0
M  END
>  <MODEL>
3

>  <REMARK>
 VINA RESULT:      -7.8      3.845      8.906
  Name = 
  6 active torsions:
  status: ('A' for Active; 'I' for Inactive)
    1  A    between atoms: C_3  and  C_24
    2  A    between atoms: C_7  and  N_15
    3  A    between atoms: C_8  and  C_17
    4  A    between atoms: C_8  and  C_18
    5  A    between atoms: C_24  and  C_25
    6  A    between atoms: C_25  and  C_27
                            x       y       z     vdW  Elec       q    Type
                         _______ _______ _______ _____ _____    ______ ____

>  <TORSDO>
F 6

$$$$
=
 OpenBabel11052415413D

 34 38  0  0  1  0  0  0  0  0999 V2000
  181.4480  180.2870  139.2050 C   0  0  0  0  0  0  0  0  0  0  0  0
  178.9910  179.5150  136.2830 C   0  0  0  0  0  2  0  0  0  0  0  0
  178.9560  178.7250  138.6900 C   0  0  0  0  0  2  0  0  0  0  0  0
  182.4840  180.8820  139.4690 O   0  0  0  0  0  0  0  0  0  0  0  0
  180.3240  178.2070  142.1350 N   0  0  0  0  0  2  0  0  0  0  0  0
  179.4440  177.7910  141.0360 C   0  0  1  0  0  3  0  0  0  0  0  0
  181.2280  179.2340  141.6000 C   0  0  2  0  0  3  0  0  0  0  0  0
  179.9830  178.4260  139.7790 C   0  0  2  0  0  3  0  0  0  0  0  0
  180.6000  179.6850  140.2920 C   0  0  2  0  0  3  0  0  0  0  0  0
  179.4660  176.2810  140.9050 C   0  0  0  0  0  1  0  0  0  0  0  0
  179.8790  180.1700  135.2140 C   0  0  0  0  0  2  0  0  0  0  0  0
  180.4420  181.5290  135.6580 C   0  0  2  0  0  3  0  0  0  0  0  0
  179.4510  179.8150  137.7110 C   0  0  1  0  0  3  0  0  0  0  0  0
  181.2360  181.4370  136.9720 C   0  0  0  0  0  2  0  0  0  0  0  0
  180.9630  180.1590  137.7760 C   0  0  1  0  0  3  0  0  0  0  0  0
  182.6230  178.6320  141.4080 C   0  0  0  0  0  2  0  0  0  0  0  0
  185.3150  177.7350  141.6000 F   0  0  0  0  0  0  0  0  0  0  0  0
  183.4330  179.0070  145.0850 C   0  0  0  0  0  3  0  0  0  0  0  0
  187.5800  178.0360  145.2350 C   0  0  1  0  0  3  0  0  0  0  0  0
  186.7980  177.5720  143.9980 C   0  0  0  0  0  2  0  0  0  0  0  0
  185.4030  178.1360  143.9570 C   0  0  0  0  0  0  0  0  0  0  0  0
  183.3800  178.6150  142.6950 C   0  0  0  0  0  0  0  0  0  0  0  0
  185.4740  178.6030  146.4570 C   0  0  0  0  0  2  0  0  0  0  0  0
  184.7520  178.5460  145.1410 C   0  0  0  0  0  0  0  0  0  0  0  0
  186.7240  177.7280  146.4670 C   0  0  0  0  0  2  0  0  0  0  0  0
  182.7490  179.0350  143.8690 C   0  0  0  0  0  3  0  0  0  0  0  0
  184.7060  178.1590  142.7380 C   0  0  0  0  0  0  0  0  0  0  0  0
  189.9000  178.2460  144.7720 C   0  0  0  0  0  1  0  0  0  0  0  0
  188.8810  177.3580  145.3160 N   0  0  0  0  0  0  0  0  0  0  0  0
  189.2340  177.1950  146.7200 C   0  0  0  0  0  1  0  0  0  0  0  0
  179.3450  182.5800  135.7920 C   0  0  0  0  0  2  0  0  0  0  0  0
  179.5930  183.7680  134.8700 C   0  0  0  0  0  2  0  0  0  0  0  0
  180.7500  184.6250  135.3590 C   0  0  0  0  0  2  0  0  0  0  0  0
  180.4660  185.1540  136.7520 C   0  0  0  0  0  1  0  0  0  0  0  0
  1  4  2  0  0  0  0
  6 10  1  6  0  0  0
  6  5  1  0  0  0  0
  7 16  1  6  0  0  0
  7  5  1  0  0  0  0
  8  3  1  6  0  0  0
  8  9  1  0  0  0  0
  8  6  1  0  0  0  0
  9  1  1  6  0  0  0
  9  7  1  0  0  0  0
 11 12  1  0  0  0  0
 11  2  1  0  0  0  0
 12 31  1  1  0  0  0
 12 14  1  0  0  0  0
 13  2  1  6  0  0  0
 13 15  1  0  0  0  0
 13  3  1  0  0  0  0
 15 14  1  6  0  0  0
 15  1  1  0  0  0  0
 16 22  1  0  0  0  0
 17 27  1  0  0  0  0
 18 24  1  0  0  0  0
 19 29  1  1  0  0  0
 19 25  1  0  0  0  0
 20 19  1  0  0  0  0
 21 20  1  0  0  0  0
 21 24  2  0  0  0  0
 22 27  2  0  0  0  0
 22 26  1  0  0  0  0
 23 25  1  0  0  0  0
 24 23  1  0  0  0  0
 26 18  2  0  0  0  0
 27 21  1  0  0  0  0
 28 29  1  0  0  0  0
 29 30  1  0  0  0  0
 32 33  1  0  0  0  0
 32 31  1  0  0  0  0
 33 34  1  0  0  0  0
M  END
>  <MODEL>
4

>  <REMARK>
 VINA RESULT:      -7.8      2.445      4.685
  Name = 
  6 active torsions:
  status: ('A' for Active; 'I' for Inactive)
    1  A    between atoms: C_3  and  C_24
    2  A    between atoms: C_7  and  N_15
    3  A    between atoms: C_8  and  C_17
    4  A    between atoms: C_8  and  C_18
    5  A    between atoms: C_24  and  C_25
    6  A    between atoms: C_25  and  C_27
                            x       y       z     vdW  Elec       q    Type
                         _______ _______ _______ _____ _____    ______ ____

>  <TORSDO>
F 6

$$$$
=
 OpenBabel11052415413D

 34 38  0  0  1  0  0  0  0  0999 V2000
  186.8530  177.7010  143.7430 C   0  0  0  0  0  0  0  0  0  0  0  0
  190.5010  177.8720  145.0990 C   0  0  0  0  0  2  0  0  0  0  0  0
  188.2970  178.1240  146.3220 C   0  0  0  0  0  2  0  0  0  0  0  0
  186.2070  177.5640  142.7140 O   0  0  0  0  0  0  0  0  0  0  0  0
  184.5910  178.5420  146.6320 N   0  0  0  0  0  2  0  0  0  0  0  0
  185.9460  178.7360  147.1640 C   0  0  1  0  0  3  0  0  0  0  0  0
  184.7320  178.1110  145.2350 C   0  0  2  0  0  3  0  0  0  0  0  0
  186.8930  178.6280  145.9970 C   0  0  2  0  0  3  0  0  0  0  0  0
  186.1820  177.6800  145.0900 C   0  0  2  0  0  3  0  0  0  0  0  0
  186.0560  180.1100  147.7960 C   0  0  0  0  0  1  0  0  0  0  0  0
  191.1400  177.8590  143.7020 C   0  0  0  0  0  2  0  0  0  0  0  0
  190.5130  176.8110  142.7690 C   0  0  2  0  0  3  0  0  0  0  0  0
  189.0060  177.5430  145.0770 C   0  0  1  0  0  3  0  0  0  0  0  0
  188.9940  176.9930  142.6150 C   0  0  0  0  0  2  0  0  0  0  0  0
  188.3580  177.8660  143.7060 C   0  0  1  0  0  3  0  0  0  0  0  0
  184.3650  179.2710  144.3060 C   0  0  0  0  0  2  0  0  0  0  0  0
  184.1720  179.0760  141.4750 F   0  0  0  0  0  0  0  0  0  0  0  0
  180.6850  178.6280  143.6990 C   0  0  0  0  0  3  0  0  0  0  0  0
  180.5330  177.9490  139.4950 C   0  0  1  0  0  3  0  0  0  0  0  0
  181.7720  178.6710  140.0420 C   0  0  0  0  0  2  0  0  0  0  0  0
  181.8140  178.6800  141.5470 C   0  0  0  0  0  0  0  0  0  0  0  0
  183.0770  179.0030  143.5990 C   0  0  0  0  0  0  0  0  0  0  0  0
  179.3110  178.2310  141.6580 C   0  0  0  0  0  2  0  0  0  0  0  0
  180.6280  178.5530  142.3050 C   0  0  0  0  0  0  0  0  0  0  0  0
  179.3020  178.5640  140.1690 C   0  0  0  0  0  2  0  0  0  0  0  0
  181.9020  178.8580  144.3430 C   0  0  0  0  0  3  0  0  0  0  0  0
  183.0340  178.9200  142.1990 C   0  0  0  0  0  0  0  0  0  0  0  0
  180.7340  179.4660  137.6780 C   0  0  0  0  0  1  0  0  0  0  0  0
  180.4520  178.0810  138.0340 N   0  0  0  0  0  0  0  0  0  0  0  0
  181.5350  177.3110  137.4380 C   0  0  0  0  0  1  0  0  0  0  0  0
  190.8190  175.3900  143.2280 C   0  0  0  0  0  2  0  0  0  0  0  0
  192.1490  175.3150  143.9680 C   0  0  0  0  0  2  0  0  0  0  0  0
  192.0550  174.4310  145.2020 C   0  0  0  0  0  2  0  0  0  0  0  0
  192.2570  175.2530  146.4610 C   0  0  0  0  0  1  0  0  0  0  0  0
  4  1  2  0  0  0  0
  5  6  1  0  0  0  0
  6 10  1  6  0  0  0
  7 16  1  6  0  0  0
  7  5  1  0  0  0  0
  8  3  1  1  0  0  0
  8  6  1  0  0  0  0
  9  1  1  6  0  0  0
  9  7  1  0  0  0  0
  9  8  1  0  0  0  0
 11  2  1  0  0  0  0
 12 31  1  1  0  0  0
 12 11  1  0  0  0  0
 13  2  1  6  0  0  0
 13  3  1  0  0  0  0
 14 12  1  0  0  0  0
 15 14  1  6  0  0  0
 15  1  1  0  0  0  0
 15 13  1  0  0  0  0
 17 27  1  0  0  0  0
 18 26  1  0  0  0  0
 19 29  1  6  0  0  0
 19 20  1  0  0  0  0
 19 25  1  0  0  0  0
 20 21  1  0  0  0  0
 21 27  2  0  0  0  0
 21 24  1  0  0  0  0
 22 16  1  0  0  0  0
 22 26  2  0  0  0  0
 23 24  1  0  0  0  0
 24 18  2  0  0  0  0
 25 23  1  0  0  0  0
 27 22  1  0  0  0  0
 28 29  1  0  0  0  0
 30 29  1  0  0  0  0
 31 32  1  0  0  0  0
 32 33  1  0  0  0  0
 33 34  1  0  0  0  0
M  END
>  <MODEL>
5

>  <REMARK>
 VINA RESULT:      -7.4      2.279      9.686
  Name = 
  6 active torsions:
  status: ('A' for Active; 'I' for Inactive)
    1  A    between atoms: C_3  and  C_24
    2  A    between atoms: C_7  and  N_15
    3  A    between atoms: C_8  and  C_17
    4  A    between atoms: C_8  and  C_18
    5  A    between atoms: C_24  and  C_25
    6  A    between atoms: C_25  and  C_27
                            x       y       z     vdW  Elec       q    Type
                         _______ _______ _______ _____ _____    ______ ____

>  <TORSDO>
F 6

$$$$
=
 OpenBabel11052415413D

 34 38  0  0  1  0  0  0  0  0999 V2000
  188.7150  177.4440  141.0900 C   0  0  0  0  0  0  0  0  0  0  0  0
  192.5950  177.0950  141.0460 C   0  0  0  0  0  2  0  0  0  0  0  0
  190.9520  176.7560  142.9440 C   0  0  0  0  0  2  0  0  0  0  0  0
  187.7610  177.7470  140.3870 O   0  0  0  0  0  0  0  0  0  0  0  0
  187.6290  176.9280  144.6570 N   0  0  0  0  0  2  0  0  0  0  0  0
  189.0960  176.9030  144.7180 C   0  0  1  0  0  3  0  0  0  0  0  0
  187.2570  177.1360  143.2510 C   0  0  2  0  0  3  0  0  0  0  0  0
  189.5960  177.3220  143.3590 C   0  0  2  0  0  3  0  0  0  0  0  0
  188.5140  176.8370  142.4520 C   0  0  2  0  0  3  0  0  0  0  0  0
  189.5800  177.8780  145.7730 C   0  0  0  0  0  1  0  0  0  0  0  0
  192.7450  177.6920  139.6380 C   0  0  0  0  0  2  0  0  0  0  0  0
  191.7200  177.1300  138.6400 C   0  0  2  0  0  3  0  0  0  0  0  0
  191.1430  176.7760  141.4100 C   0  0  1  0  0  3  0  0  0  0  0  0
  190.2690  177.3290  139.1090 C   0  0  0  0  0  2  0  0  0  0  0  0
  190.1360  177.6410  140.6060 C   0  0  1  0  0  3  0  0  0  0  0  0
  186.7660  178.5740  143.0640 C   0  0  0  0  0  2  0  0  0  0  0  0
  184.8980  178.3480  140.9320 F   0  0  0  0  0  0  0  0  0  0  0  0
  183.4110  179.0010  144.7620 C   0  0  0  0  0  3  0  0  0  0  0  0
  180.6570  178.2540  141.5960 C   0  0  1  0  0  3  0  0  0  0  0  0
  182.0980  178.6060  141.2010 C   0  0  0  0  0  2  0  0  0  0  0  0
  183.0230  178.6520  142.3870 C   0  0  0  0  0  0  0  0  0  0  0  0
  185.2890  178.6660  143.2690 C   0  0  0  0  0  0  0  0  0  0  0  0
  181.0500  178.9490  143.9660 C   0  0  0  0  0  2  0  0  0  0  0  0
  182.5250  178.8980  143.6860 C   0  0  0  0  0  0  0  0  0  0  0  0
  180.2320  179.2200  142.7070 C   0  0  0  0  0  2  0  0  0  0  0  0
  184.7870  178.8910  144.5540 C   0  0  0  0  0  3  0  0  0  0  0  0
  184.4090  178.5520  142.1820 C   0  0  0  0  0  0  0  0  0  0  0  0
  180.5070  178.8990  139.3150 C   0  0  0  0  0  1  0  0  0  0  0  0
  179.7570  178.3550  140.4390 N   0  0  0  0  0  0  0  0  0  0  0  0
  179.3810  177.0100  140.0250 C   0  0  0  0  0  1  0  0  0  0  0  0
  191.9690  175.6540  138.3440 C   0  0  0  0  0  2  0  0  0  0  0  0
  193.1020  175.4690  137.3420 C   0  0  0  0  0  2  0  0  0  0  0  0
  193.8660  174.1770  137.5910 C   0  0  0  0  0  2  0  0  0  0  0  0
  195.0660  174.4340  138.4810 C   0  0  0  0  0  1  0  0  0  0  0  0
  4  1  2  0  0  0  0
  5  6  1  0  0  0  0
  6 10  1  1  0  0  0
  7 16  1  1  0  0  0
  7  5  1  0  0  0  0
  8  3  1  6  0  0  0
  8  6  1  0  0  0  0
  9  1  1  6  0  0  0
  9  7  1  0  0  0  0
  9  8  1  0  0  0  0
 11  2  1  0  0  0  0
 12 31  1  1  0  0  0
 12 14  1  0  0  0  0
 12 11  1  0  0  0  0
 13  2  1  1  0  0  0
 13  3  1  0  0  0  0
 15 14  1  6  0  0  0
 15  1  1  0  0  0  0
 15 13  1  0  0  0  0
 16 22  1  0  0  0  0
 17 27  1  0  0  0  0
 19 29  1  6  0  0  0
 19 25  1  0  0  0  0
 20 19  1  0  0  0  0
 20 21  1  0  0  0  0
 21 24  1  0  0  0  0
 22 26  2  0  0  0  0
 24 23  1  0  0  0  0
 24 18  2  0  0  0  0
 25 23  1  0  0  0  0
 26 18  1  0  0  0  0
 27 21  2  0  0  0  0
 27 22  1  0  0  0  0
 28 29  1  0  0  0  0
 30 29  1  0  0  0  0
 32 33  1  0  0  0  0
 32 31  1  0  0  0  0
 33 34  1  0  0  0  0
M  END
>  <MODEL>
6

>  <REMARK>
 VINA RESULT:      -7.4      3.102      9.768
  Name = 
  6 active torsions:
  status: ('A' for Active; 'I' for Inactive)
    1  A    between atoms: C_3  and  C_24
    2  A    between atoms: C_7  and  N_15
    3  A    between atoms: C_8  and  C_17
    4  A    between atoms: C_8  and  C_18
    5  A    between atoms: C_24  and  C_25
    6  A    between atoms: C_25  and  C_27
                            x       y       z     vdW  Elec       q    Type
                         _______ _______ _______ _____ _____    ______ ____

>  <TORSDO>
F 6

$$$$
=
 OpenBabel11052415413D

 34 38  0  0  1  0  0  0  0  0999 V2000
  183.4080  178.4180  140.0990 C   0  0  0  0  0  0  0  0  0  0  0  0
  179.6300  178.0260  139.2360 C   0  0  0  0  0  2  0  0  0  0  0  0
  180.7360  178.8800  141.3480 C   0  0  0  0  0  2  0  0  0  0  0  0
  184.5290  178.2220  139.6530 O   0  0  0  0  0  0  0  0  0  0  0  0
  183.5810  179.5320  143.6910 N   0  0  0  0  0  2  0  0  0  0  0  0
  182.1530  179.2870  143.4560 C   0  0  1  0  0  3  0  0  0  0  0  0
  184.2830  179.2390  142.4340 C   0  0  2  0  0  3  0  0  0  0  0  0
  182.0380  178.6300  142.1040 C   0  0  2  0  0  3  0  0  0  0  0  0
  183.2030  179.2030  141.3660 C   0  0  2  0  0  3  0  0  0  0  0  0
  181.6080  178.3650  144.5290 C   0  0  0  0  0  1  0  0  0  0  0  0
  179.8920  177.2550  137.9330 C   0  0  0  0  0  2  0  0  0  0  0  0
  181.0090  177.8820  137.0840 C   0  0  2  0  0  3  0  0  0  0  0  0
  180.8950  178.6510  139.8280 C   0  0  1  0  0  3  0  0  0  0  0  0
  182.3330  178.0140  137.8550 C   0  0  0  0  0  2  0  0  0  0  0  0
  182.1790  177.9050  139.3780 C   0  0  1  0  0  3  0  0  0  0  0  0
  185.0270  177.9070  142.5670 C   0  0  0  0  0  2  0  0  0  0  0  0
  187.7710  177.1630  142.5040 F   0  0  0  0  0  0  0  0  0  0  0  0
  186.1240  178.2190  146.1750 C   0  0  0  0  0  3  0  0  0  0  0  0
  190.3160  177.4850  145.9470 C   0  0  1  0  0  3  0  0  0  0  0  0
  189.4580  177.0140  144.7630 C   0  0  0  0  0  2  0  0  0  0  0  0
  188.0360  177.4980  144.8580 C   0  0  0  0  0  0  0  0  0  0  0  0
  185.8900  177.8950  143.7860 C   0  0  0  0  0  0  0  0  0  0  0  0
  188.2930  177.8920  147.3590 C   0  0  0  0  0  2  0  0  0  0  0  0
  187.4660  177.8340  146.1060 C   0  0  0  0  0  0  0  0  0  0  0  0
  189.5860  177.0920  147.2340 C   0  0  0  0  0  2  0  0  0  0  0  0
  185.3380  178.2430  145.0220 C   0  0  0  0  0  3  0  0  0  0  0  0
  187.2380  177.5160  143.7020 C   0  0  0  0  0  0  0  0  0  0  0  0
  191.8250  176.0330  147.0680 C   0  0  0  0  0  1  0  0  0  0  0  0
  191.6550  176.8820  145.8960 N   0  0  0  0  0  0  0  0  0  0  0  0
  191.7110  175.9720  144.7600 C   0  0  0  0  0  1  0  0  0  0  0  0
  180.6000  179.2410  136.5260 C   0  0  0  0  0  2  0  0  0  0  0  0
  181.1760  179.4690  135.1330 C   0  0  0  0  0  2  0  0  0  0  0  0
  180.8150  180.8460  134.5950 C   0  0  0  0  0  2  0  0  0  0  0  0
  180.4690  181.7860  135.7340 C   0  0  0  0  0  1  0  0  0  0  0  0
  4  1  2  0  0  0  0
  6  5  1  0  0  0  0
  6 10  1  1  0  0  0
  7 16  1  1  0  0  0
  7  5  1  0  0  0  0
  8  3  1  6  0  0  0
  8  6  1  0  0  0  0
  9  1  1  6  0  0  0
  9  8  1  0  0  0  0
  9  7  1  0  0  0  0
 11  2  1  0  0  0  0
 12 31  1  1  0  0  0
 12 14  1  0  0  0  0
 12 11  1  0  0  0  0
 13  2  1  1  0  0  0
 13  3  1  0  0  0  0
 15 14  1  6  0  0  0
 15 13  1  0  0  0  0
 15  1  1  0  0  0  0
 16 22  1  0  0  0  0
 17 27  1  0  0  0  0
 19 29  1  1  0  0  0
 19 25  1  0  0  0  0
 20 21  1  0  0  0  0
 20 19  1  0  0  0  0
 21 24  2  0  0  0  0
 22 26  1  0  0  0  0
 24 18  1  0  0  0  0
 24 23  1  0  0  0  0
 25 23  1  0  0  0  0
 26 18  2  0  0  0  0
 27 22  2  0  0  0  0
 27 21  1  0  0  0  0
 29 28  1  0  0  0  0
 30 29  1  0  0  0  0
 32 31  1  0  0  0  0
 33 32  1  0  0  0  0
 33 34  1  0  0  0  0
M  END
>  <MODEL>
7

>  <REMARK>
 VINA RESULT:      -7.3      1.709      2.637
  Name = 
  6 active torsions:
  status: ('A' for Active; 'I' for Inactive)
    1  A    between atoms: C_3  and  C_24
    2  A    between atoms: C_7  and  N_15
    3  A    between atoms: C_8  and  C_17
    4  A    between atoms: C_8  and  C_18
    5  A    between atoms: C_24  and  C_25
    6  A    between atoms: C_25  and  C_27
                            x       y       z     vdW  Elec       q    Type
                         _______ _______ _______ _____ _____    ______ ____

>  <TORSDO>
F 6

$$$$
=
 OpenBabel11052415413D

 34 38  0  0  1  0  0  0  0  0999 V2000
  187.5980  177.8600  144.0530 C   0  0  0  0  0  0  0  0  0  0  0  0
  187.3800  178.3410  147.9130 C   0  0  0  0  0  2  0  0  0  0  0  0
  185.5340  178.2070  146.1830 C   0  0  0  0  0  2  0  0  0  0  0  0
  188.3960  177.7460  143.1340 O   0  0  0  0  0  0  0  0  0  0  0  0
  184.0830  178.1420  142.7340 N   0  0  0  0  0  2  0  0  0  0  0  0
  183.9590  178.4470  144.1650 C   0  0  1  0  0  3  0  0  0  0  0  0
  185.5020  177.8660  142.4720 C   0  0  2  0  0  3  0  0  0  0  0  0
  185.3590  178.5660  144.7100 C   0  0  2  0  0  3  0  0  0  0  0  0
  186.1270  177.6300  143.8370 C   0  0  2  0  0  3  0  0  0  0  0  0
  183.2180  179.7570  144.3470 C   0  0  0  0  0  1  0  0  0  0  0  0
  188.8940  178.5400  148.0860 C   0  0  0  0  0  2  0  0  0  0  0  0
  189.7230  177.5170  147.2930 C   0  0  2  0  0  3  0  0  0  0  0  0
  186.9970  177.8370  146.5190 C   0  0  1  0  0  3  0  0  0  0  0  0
  189.3930  177.5280  145.7920 C   0  0  0  0  0  2  0  0  0  0  0  0
  188.0600  178.2100  145.4520 C   0  0  1  0  0  3  0  0  0  0  0  0
  186.1230  179.0570  141.7360 C   0  0  0  0  0  2  0  0  0  0  0  0
  184.5670  178.3370  139.4670 F   0  0  0  0  0  0  0  0  0  0  0  0
  188.7090  178.1350  139.1320 C   0  0  0  0  0  3  0  0  0  0  0  0
  186.3380  177.4600  135.6550 C   0  0  1  0  0  3  0  0  0  0  0  0
  185.6180  177.4220  137.0110 C   0  0  0  0  0  2  0  0  0  0  0  0
  186.5040  177.8660  138.1440 C   0  0  0  0  0  0  0  0  0  0  0  0
  186.7310  178.6280  140.4410 C   0  0  0  0  0  0  0  0  0  0  0  0
  188.5840  177.4030  136.7530 C   0  0  0  0  0  2  0  0  0  0  0  0
  187.9100  177.7760  138.0430 C   0  0  0  0  0  0  0  0  0  0  0  0
  187.6430  176.6710  135.8010 C   0  0  0  0  0  2  0  0  0  0  0  0
  188.1220  178.5530  140.3280 C   0  0  0  0  0  3  0  0  0  0  0  0
  185.9190  178.2790  139.3520 C   0  0  0  0  0  0  0  0  0  0  0  0
  185.6660  175.4420  134.5970 C   0  0  0  0  0  1  0  0  0  0  0  0
  185.4930  176.8890  134.5980 N   0  0  0  0  0  0  0  0  0  0  0  0
  184.0970  177.1010  134.9530 C   0  0  0  0  0  1  0  0  0  0  0  0
  189.5620  176.1050  147.8470 C   0  0  0  0  0  2  0  0  0  0  0  0
  190.7320  175.2130  147.4500 C   0  0  0  0  0  2  0  0  0  0  0  0
  192.0280  176.0010  147.3440 C   0  0  0  0  0  2  0  0  0  0  0  0
  192.9740  175.6200  148.4680 C   0  0  0  0  0  1  0  0  0  0  0  0
  1 15  1  0  0  0  0
  2 11  1  0  0  0  0
  4  1  2  0  0  0  0
  5  6  1  0  0  0  0
  6 10  1  6  0  0  0
  6  8  1  0  0  0  0
  7 16  1  1  0  0  0
  7  5  1  0  0  0  0
  7  9  1  0  0  0  0
  8  3  1  1  0  0  0
  9  1  1  6  0  0  0
  9  8  1  0  0  0  0
 12 31  1  1  0  0  0
 12 11  1  0  0  0  0
 13  3  1  6  0  0  0
 13  2  1  0  0  0  0
 14 12  1  0  0  0  0
 15 14  1  1  0  0  0
 15 13  1  0  0  0  0
 18 26  1  0  0  0  0
 19 29  1  6  0  0  0
 19 25  1  0  0  0  0
 19 20  1  0  0  0  0
 20 21  1  0  0  0  0
 21 27  2  0  0  0  0
 22 16  1  0  0  0  0
 23 24  1  0  0  0  0
 24 21  1  0  0  0  0
 24 18  2  0  0  0  0
 25 23  1  0  0  0  0
 26 22  2  0  0  0  0
 27 17  1  0  0  0  0
 27 22  1  0  0  0  0
 28 29  1  0  0  0  0
 29 30  1  0  0  0  0
 32 31  1  0  0  0  0
 33 32  1  0  0  0  0
 33 34  1  0  0  0  0
M  END
>  <MODEL>
8

>  <REMARK>
 VINA RESULT:      -7.2      3.935      9.101
  Name = 
  6 active torsions:
  status: ('A' for Active; 'I' for Inactive)
    1  A    between atoms: C_3  and  C_24
    2  A    between atoms: C_7  and  N_15
    3  A    between atoms: C_8  and  C_17
    4  A    between atoms: C_8  and  C_18
    5  A    between atoms: C_24  and  C_25
    6  A    between atoms: C_25  and  C_27
                            x       y       z     vdW  Elec       q    Type
                         _______ _______ _______ _____ _____    ______ ____

>  <TORSDO>
F 6

$$$$
=
 OpenBabel11052415413D

 34 38  0  0  1  0  0  0  0  0999 V2000
  182.3320  176.6910  138.9890 C   0  0  0  0  0  0  0  0  0  0  0  0
  180.3800  176.4830  135.6240 C   0  0  0  0  0  2  0  0  0  0  0  0
  181.4790  178.4690  136.7470 C   0  0  0  0  0  2  0  0  0  0  0  0
  182.6820  176.0200  139.9490 O   0  0  0  0  0  0  0  0  0  0  0  0
  183.1450  180.3250  139.5380 N   0  0  0  0  0  2  0  0  0  0  0  0
  182.3140  180.3190  138.3270 C   0  0  1  0  0  3  0  0  0  0  0  0
  183.2820  178.9300  139.9760 C   0  0  2  0  0  3  0  0  0  0  0  0
  181.7730  178.9200  138.1760 C   0  0  2  0  0  3  0  0  0  0  0  0
  182.8520  178.0880  138.7870 C   0  0  2  0  0  3  0  0  0  0  0  0
  181.1710  181.3020  138.4850 C   0  0  0  0  0  1  0  0  0  0  0  0
  179.8990  175.0430  135.8620 C   0  0  0  0  0  2  0  0  0  0  0  0
  181.0140  174.1210  136.3820 C   0  0  2  0  0  3  0  0  0  0  0  0
  181.4530  176.9290  136.6190 C   0  0  1  0  0  3  0  0  0  0  0  0
  181.6590  174.6470  137.6750 C   0  0  0  0  0  2  0  0  0  0  0  0
  181.3830  176.1320  137.9480 C   0  0  1  0  0  3  0  0  0  0  0  0
  182.4080  178.6980  141.2110 C   0  0  0  0  0  2  0  0  0  0  0  0
  185.0930  177.7600  141.2350 F   0  0  0  0  0  0  0  0  0  0  0  0
  183.4320  179.0020  144.8410 C   0  0  0  0  0  3  0  0  0  0  0  0
  187.5650  177.9690  144.7400 C   0  0  1  0  0  3  0  0  0  0  0  0
  186.7070  177.5370  143.5420 C   0  0  0  0  0  2  0  0  0  0  0  0
  185.3210  178.1220  143.5890 C   0  0  0  0  0  0  0  0  0  0  0  0
  183.2370  178.6490  142.4520 C   0  0  0  0  0  0  0  0  0  0  0  0
  185.5410  178.5460  146.0890 C   0  0  0  0  0  2  0  0  0  0  0  0
  184.7440  178.5220  144.8150 C   0  0  0  0  0  0  0  0  0  0  0  0
  186.7760  177.6540  146.0140 C   0  0  0  0  0  2  0  0  0  0  0  0
  182.6790  179.0600  143.6670 C   0  0  0  0  0  3  0  0  0  0  0  0
  184.5560  178.1730  142.4120 C   0  0  0  0  0  0  0  0  0  0  0  0
  188.8980  176.3770  143.5860 C   0  0  0  0  0  1  0  0  0  0  0  0
  188.8580  177.2720  144.7360 N   0  0  0  0  0  0  0  0  0  0  0  0
  189.9110  178.2470  144.4910 C   0  0  0  0  0  1  0  0  0  0  0  0
  182.0910  173.8850  135.3280 C   0  0  0  0  0  2  0  0  0  0  0  0
  183.4880  173.9480  135.9330 C   0  0  0  0  0  2  0  0  0  0  0  0
  184.3270  175.0450  135.2960 C   0  0  0  0  0  2  0  0  0  0  0  0
  185.0160  175.8730  136.3640 C   0  0  0  0  0  1  0  0  0  0  0  0
  1  4  2  0  0  0  0
  2 11  1  0  0  0  0
  5  7  1  0  0  0  0
  6 10  1  1  0  0  0
  6  5  1  0  0  0  0
  7 16  1  1  0  0  0
  8  3  1  6  0  0  0
  8  6  1  0  0  0  0
  8  9  1  0  0  0  0
  9  1  1  1  0  0  0
  9  7  1  0  0  0  0
 11 12  1  0  0  0  0
 12 31  1  6  0  0  0
 12 14  1  0  0  0  0
 13  2  1  6  0  0  0
 13  3  1  0  0  0  0
 13 15  1  0  0  0  0
 15 14  1  6  0  0  0
 15  1  1  0  0  0  0
 16 22  1  0  0  0  0
 17 27  1  0  0  0  0
 19 29  1  1  0  0  0
 19 25  1  0  0  0  0
 20 21  1  0  0  0  0
 20 19  1  0  0  0  0
 21 24  2  0  0  0  0
 22 26  1  0  0  0  0
 24 18  1  0  0  0  0
 24 23  1  0  0  0  0
 25 23  1  0  0  0  0
 26 18  2  0  0  0  0
 27 22  2  0  0  0  0
 27 21  1  0  0  0  0
 28 29  1  0  0  0  0
 30 29  1  0  0  0  0
 31 32  1  0  0  0  0
 33 32  1  0  0  0  0
 33 34  1  0  0  0  0
M  END
>  <MODEL>
9

>  <REMARK>
 VINA RESULT:      -7.2      3.062      5.307
  Name = 
  6 active torsions:
  status: ('A' for Active; 'I' for Inactive)
    1  A    between atoms: C_3  and  C_24
    2  A    between atoms: C_7  and  N_15
    3  A    between atoms: C_8  and  C_17
    4  A    between atoms: C_8  and  C_18
    5  A    between atoms: C_24  and  C_25
    6  A    between atoms: C_25  and  C_27
                            x       y       z     vdW  Elec       q    Type
                         _______ _______ _______ _____ _____    ______ ____

>  <TORSDO>
F 6

$$$$
