=
 OpenBabel11052412333D

 30 33  0  0  1  0  0  0  0  0999 V2000
  187.4460  177.6180  143.5610 N   0  0  0  0  0  0  0  0  0  0  0  0
  185.1970  178.2510  142.8230 C   0  0  0  0  0  0  0  0  0  0  0  0
  186.4240  178.5060  147.5940 C   0  0  0  0  0  3  0  0  0  0  0  0
  188.3890  177.1810  144.5890 C   0  0  0  0  0  0  0  0  0  0  0  0
  187.3570  178.3400  148.6200 C   0  0  0  0  0  3  0  0  0  0  0  0
  183.9040  178.6950  143.1090 C   0  0  0  0  0  3  0  0  0  0  0  0
  185.5520  178.0110  141.5370 F   0  0  0  0  0  0  0  0  0  0  0  0
  186.7420  178.1510  146.2740 C   0  0  0  0  0  0  0  0  0  0  0  0
  183.5270  178.9520  144.4290 C   0  0  0  0  0  3  0  0  0  0  0  0
  186.1160  178.0510  143.8610 C   0  0  0  0  0  0  0  0  0  0  0  0
  188.0270  177.6380  145.9860 C   0  0  0  0  0  0  0  0  0  0  0  0
  188.6150  177.8070  148.3390 C   0  0  0  0  0  3  0  0  0  0  0  0
  188.9450  177.4500  147.0310 C   0  0  0  0  0  3  0  0  0  0  0  0
  184.4450  178.7680  145.4650 C   0  0  0  0  0  3  0  0  0  0  0  0
  185.7470  178.3190  145.1910 C   0  0  0  0  0  0  0  0  0  0  0  0
  191.1920  178.8070  142.8860 O   0  0  0  0  0  0  0  0  0  0  0  0
  190.1370  178.1190  142.9430 C   0  0  0  0  0  0  0  0  0  0  0  0
  189.7640  177.5060  144.1990 N   0  0  0  0  0  0  0  0  0  0  0  0
  188.5550  178.9690  141.1580 C   0  0  0  0  0  3  0  0  0  0  0  0
  189.2890  176.8770  140.9430 N   0  0  0  0  0  0  0  0  0  0  0  0
  189.3320  177.9770  141.7120 C   0  0  1  0  0  3  0  0  0  0  0  0
  188.0050  178.4750  140.0330 N   0  0  0  0  0  0  0  0  0  0  0  0
  188.4660  177.2120  139.9300 C   0  0  0  0  0  3  0  0  0  0  0  0
  190.7790  177.3140  145.2260 C   0  0  0  0  0  2  0  0  0  0  0  0
  191.4750  175.9760  145.0300 C   0  0  0  0  0  2  0  0  0  0  0  0
  192.0820  176.2790  147.3840 C   0  0  0  0  0  3  0  0  0  0  0  0
  192.2420  175.6060  146.2520 C   0  0  0  0  0  3  0  0  0  0  0  0
  193.4930  176.9030  149.3300 O   0  0  0  0  0  1  0  0  0  0  0  0
  192.8290  175.9280  148.5950 C   0  0  0  0  0  0  0  0  0  0  0  0
  192.8680  174.7290  148.9730 O   0  0  0  0  0  0  0  0  0  0  0  0
  1 10  2  0  0  0  0
  1  4  1  0  0  0  0
  2  6  2  0  0  0  0
  2 10  1  0  0  0  0
  3  5  2  0  0  0  0
  4 11  2  0  0  0  0
  6  9  1  0  0  0  0
  7  2  1  0  0  0  0
  8  3  1  0  0  0  0
  9 14  2  0  0  0  0
 10 15  1  0  0  0  0
 11  8  1  0  0  0  0
 11 13  1  0  0  0  0
 12  5  1  0  0  0  0
 13 12  2  0  0  0  0
 15 14  1  0  0  0  0
 15  8  2  0  0  0  0
 16 17  2  0  0  0  0
 17 18  1  0  0  0  0
 18  4  1  0  0  0  0
 18 24  1  0  0  0  0
 19 21  1  0  0  0  0
 20 21  1  0  0  0  0
 21 17  1  6  0  0  0
 22 19  2  0  0  0  0
 23 22  1  0  0  0  0
 23 20  2  0  0  0  0
 25 24  1  0  0  0  0
 25 27  1  0  0  0  0
 26 29  1  0  0  0  0
 27 26  2  0  0  0  0
 29 30  2  0  0  0  0
 29 28  1  0  0  0  0
M  END
>  <MODEL>
1

>  <REMARK>
 VINA RESULT:      -9.2      0.000      0.000
  Name = 
  6 active torsions:
  status: ('A' for Active; 'I' for Inactive)
    1  A    between atoms: C_4  and  N_13
    2  A    between atoms: C_7  and  C_15
    3  A    between atoms: C_8  and  C_12
    4  A    between atoms: N_13  and  C_27
    5  A    between atoms: C_16  and  C_30
    6  A    between atoms: C_27  and  C_30
                            x       y       z     vdW  Elec       q    Type
                         _______ _______ _______ _____ _____    ______ ____

>  <TORSDO>
F 6

$$$$
=
 OpenBabel11052412333D

 30 33  0  0  0  0  0  0  0  0999 V2000
  186.9330  177.9730  144.6580 N   0  0  0  0  0  0  0  0  0  0  0  0
  186.6060  178.4670  147.0360 C   0  0  0  0  0  0  0  0  0  0  0  0
  190.8970  176.6380  145.4300 C   0  0  0  0  0  3  0  0  0  0  0  0
  187.6140  177.2770  143.5700 C   0  0  0  0  0  0  0  0  0  0  0  0
  191.7090  176.1730  144.3930 C   0  0  0  0  0  3  0  0  0  0  0  0
  187.0790  178.4830  148.3510 C   0  0  0  0  0  3  0  0  0  0  0  0
  185.3620  178.9350  146.7680 F   0  0  0  0  0  0  0  0  0  0  0  0
  189.5680  177.0160  145.1840 C   0  0  0  0  0  0  0  0  0  0  0  0
  188.3610  178.0090  148.6390 C   0  0  0  0  0  3  0  0  0  0  0  0
  187.4120  177.9660  146.0060 C   0  0  0  0  0  0  0  0  0  0  0  0
  189.0600  176.9410  143.8670 C   0  0  0  0  0  0  0  0  0  0  0  0
  191.1970  176.0730  143.0990 C   0  0  0  0  0  3  0  0  0  0  0  0
  189.8780  176.4470  142.8400 C   0  0  0  0  0  3  0  0  0  0  0  0
  189.1730  177.5210  147.6130 C   0  0  0  0  0  3  0  0  0  0  0  0
  188.7080  177.4980  146.2880 C   0  0  0  0  0  0  0  0  0  0  0  0
  186.5400  179.8420  141.1890 O   0  0  0  0  0  0  0  0  0  0  0  0
  186.3600  178.9360  142.0470 C   0  0  0  0  0  0  0  0  0  0  0  0
  187.4220  177.9880  142.3020 N   0  0  0  0  0  0  0  0  0  0  0  0
  184.6720  179.7590  143.7460 C   0  0  0  0  0  3  0  0  0  0  0  0
  184.0670  178.0300  142.4790 N   0  0  0  0  0  0  0  0  0  0  0  0
  185.0610  178.8910  142.7490 C   0  0  0  0  0  0  0  0  0  0  0  0
  183.4220  179.4240  144.1130 N   0  0  0  0  0  2  0  0  0  0  0  0
  183.0840  178.3770  143.3310 C   0  0  0  0  0  3  0  0  0  0  0  0
  188.4710  177.8090  141.3070 C   0  0  0  0  0  2  0  0  0  0  0  0
  187.8690  177.7920  139.9100 C   0  0  0  0  0  2  0  0  0  0  0  0
  190.0110  176.7580  139.3210 C   0  0  0  0  0  3  0  0  0  0  0  0
  188.7760  177.0870  138.9630 C   0  0  0  0  0  3  0  0  0  0  0  0
  191.9650  176.7400  137.7900 O   0  0  0  0  0  0  0  0  0  0  0  0
  190.9160  176.0640  138.4020 C   0  0  0  0  0  0  0  0  0  0  0  0
  190.7400  174.8410  138.1640 O   0  0  0  0  0  1  0  0  0  0  0  0
  1 10  1  0  0  0  0
  2  6  1  0  0  0  0
  4 11  1  0  0  0  0
  4  1  2  0  0  0  0
  5  3  2  0  0  0  0
  6  9  2  0  0  0  0
  7  2  1  0  0  0  0
  8  3  1  0  0  0  0
  8 15  1  0  0  0  0
 10 15  1  0  0  0  0
 10  2  2  0  0  0  0
 11  8  2  0  0  0  0
 12  5  1  0  0  0  0
 13 12  2  0  0  0  0
 13 11  1  0  0  0  0
 14  9  1  0  0  0  0
 15 14  2  0  0  0  0
 16 17  2  0  0  0  0
 17 18  1  0  0  0  0
 17 21  1  0  0  0  0
 18  4  1  0  0  0  0
 19 22  1  0  0  0  0
 20 21  1  0  0  0  0
 20 23  2  0  0  0  0
 21 19  2  0  0  0  0
 23 22  1  0  0  0  0
 24 18  1  0  0  0  0
 25 24  1  0  0  0  0
 27 26  2  0  0  0  0
 27 25  1  0  0  0  0
 28 29  2  0  0  0  0
 29 26  1  0  0  0  0
 30 29  1  0  0  0  0
M  END
>  <MODEL>
2

>  <REMARK>
 VINA RESULT:      -8.7      3.500      6.023
  Name = 
  6 active torsions:
  status: ('A' for Active; 'I' for Inactive)
    1  A    between atoms: C_4  and  N_13
    2  A    between atoms: C_7  and  C_15
    3  A    between atoms: C_8  and  C_12
    4  A    between atoms: N_13  and  C_27
    5  A    between atoms: C_16  and  C_30
    6  A    between atoms: C_27  and  C_30
                            x       y       z     vdW  Elec       q    Type
                         _______ _______ _______ _____ _____    ______ ____

>  <TORSDO>
F 6

$$$$
=
 OpenBabel11052412333D

 30 33  0  0  0  0  0  0  0  0999 V2000
  188.0880  178.1650  143.4840 N   0  0  0  0  0  0  0  0  0  0  0  0
  187.4000  178.0060  145.8300 C   0  0  0  0  0  0  0  0  0  0  0  0
  184.0280  178.5200  142.2650 C   0  0  0  0  0  3  0  0  0  0  0  0
  187.8510  178.5560  142.0960 C   0  0  0  0  0  0  0  0  0  0  0  0
  183.6980  178.6600  140.9150 C   0  0  0  0  0  3  0  0  0  0  0  0
  186.4000  178.0000  146.8050 C   0  0  0  0  0  3  0  0  0  0  0  0
  188.6940  177.8450  146.1990 F   0  0  0  0  0  0  0  0  0  0  0  0
  185.3710  178.4690  142.6710 C   0  0  0  0  0  0  0  0  0  0  0  0
  185.0610  178.1590  146.4380 C   0  0  0  0  0  3  0  0  0  0  0  0
  187.0640  178.1830  144.4820 C   0  0  0  0  0  0  0  0  0  0  0  0
  186.3910  178.5410  141.6960 C   0  0  0  0  0  0  0  0  0  0  0  0
  184.7070  178.7590  139.9570 C   0  0  0  0  0  3  0  0  0  0  0  0
  186.0460  178.7090  140.3460 C   0  0  0  0  0  3  0  0  0  0  0  0
  184.7210  178.3220  145.0930 C   0  0  0  0  0  3  0  0  0  0  0  0
  185.7180  178.3320  144.1030 C   0  0  0  0  0  0  0  0  0  0  0  0
  190.2120  176.0220  140.9090 O   0  0  0  0  0  0  0  0  0  0  0  0
  189.8520  177.0020  141.6150 C   0  0  0  0  0  0  0  0  0  0  0  0
  188.7190  177.7950  141.1910 N   0  0  0  0  0  0  0  0  0  0  0  0
  190.8150  176.3970  143.8770 C   0  0  0  0  0  3  0  0  0  0  0  0
  191.2520  178.4410  143.1090 N   0  0  0  0  0  0  0  0  0  0  0  0
  190.6130  177.2890  142.8480 C   0  0  0  0  0  0  0  0  0  0  0  0
  191.5780  177.0070  144.8020 N   0  0  0  0  0  2  0  0  0  0  0  0
  191.8250  178.2390  144.3110 C   0  0  0  0  0  3  0  0  0  0  0  0
  188.2970  177.7460  139.7970 C   0  0  0  0  0  2  0  0  0  0  0  0
  189.2050  178.6190  138.9450 C   0  0  0  0  0  2  0  0  0  0  0  0
  187.8270  178.2380  136.9550 C   0  0  0  0  0  3  0  0  0  0  0  0
  189.0350  178.2920  137.5020 C   0  0  0  0  0  3  0  0  0  0  0  0
  188.7270  177.5820  134.7360 O   0  0  0  0  0  0  0  0  0  0  0  0
  187.6420  177.9170  135.5380 C   0  0  0  0  0  0  0  0  0  0  0  0
  186.4870  177.9450  135.0420 O   0  0  0  0  0  1  0  0  0  0  0  0
  1 10  1  0  0  0  0
  2  7  1  0  0  0  0
  2  6  1  0  0  0  0
  3  8  1  0  0  0  0
  4  1  2  0  0  0  0
  5  3  2  0  0  0  0
  8 15  1  0  0  0  0
  9  6  2  0  0  0  0
 10  2  2  0  0  0  0
 11  4  1  0  0  0  0
 11  8  2  0  0  0  0
 12 13  2  0  0  0  0
 12  5  1  0  0  0  0
 13 11  1  0  0  0  0
 14  9  1  0  0  0  0
 15 10  1  0  0  0  0
 15 14  2  0  0  0  0
 16 17  2  0  0  0  0
 17 21  1  0  0  0  0
 18 17  1  0  0  0  0
 18  4  1  0  0  0  0
 19 22  1  0  0  0  0
 20 23  2  0  0  0  0
 21 20  1  0  0  0  0
 21 19  2  0  0  0  0
 23 22  1  0  0  0  0
 24 18  1  0  0  0  0
 25 24  1  0  0  0  0
 26 27  2  0  0  0  0
 27 25  1  0  0  0  0
 28 29  2  0  0  0  0
 29 26  1  0  0  0  0
 30 29  1  0  0  0  0
M  END
>  <MODEL>
3

>  <REMARK>
 VINA RESULT:      -8.5      3.121      7.050
  Name = 
  6 active torsions:
  status: ('A' for Active; 'I' for Inactive)
    1  A    between atoms: C_4  and  N_13
    2  A    between atoms: C_7  and  C_15
    3  A    between atoms: C_8  and  C_12
    4  A    between atoms: N_13  and  C_27
    5  A    between atoms: C_16  and  C_30
    6  A    between atoms: C_27  and  C_30
                            x       y       z     vdW  Elec       q    Type
                         _______ _______ _______ _____ _____    ______ ____

>  <TORSDO>
F 6

$$$$
=
 OpenBabel11052412333D

 30 33  0  0  1  0  0  0  0  0999 V2000
  183.8150  178.5390  141.3370 N   0  0  0  0  0  0  0  0  0  0  0  0
  185.4520  178.4640  143.1590 C   0  0  0  0  0  0  0  0  0  0  0  0
  180.6380  178.9130  144.1400 C   0  0  0  0  0  3  0  0  0  0  0  0
  182.5030  178.8890  140.7980 C   0  0  0  0  0  0  0  0  0  0  0  0
  179.3130  179.0140  143.7090 C   0  0  0  0  0  3  0  0  0  0  0  0
  185.7560  178.5030  144.5220 C   0  0  0  0  0  3  0  0  0  0  0  0
  186.4490  178.2960  142.2560 F   0  0  0  0  0  0  0  0  0  0  0  0
  181.6900  178.8550  143.2130 C   0  0  0  0  0  0  0  0  0  0  0  0
  184.7370  178.6690  145.4630 C   0  0  0  0  0  3  0  0  0  0  0  0
  184.1250  178.6030  142.7320 C   0  0  0  0  0  0  0  0  0  0  0  0
  181.3950  178.8820  141.8310 C   0  0  0  0  0  0  0  0  0  0  0  0
  179.0270  179.0680  142.3450 C   0  0  0  0  0  3  0  0  0  0  0  0
  180.0630  179.0120  141.4110 C   0  0  0  0  0  3  0  0  0  0  0  0
  183.4110  178.7940  145.0410 C   0  0  0  0  0  3  0  0  0  0  0  0
  183.0930  178.7590  143.6740 C   0  0  0  0  0  0  0  0  0  0  0  0
  182.1690  177.9480  137.2760 O   0  0  0  0  0  0  0  0  0  0  0  0
  181.9160  178.6380  138.3010 C   0  0  0  0  0  0  0  0  0  0  0  0
  182.2040  178.0880  139.6070 N   0  0  0  0  0  0  0  0  0  0  0  0
  180.0290  180.2330  137.7450 C   0  0  0  0  0  3  0  0  0  0  0  0
  181.9830  181.1400  138.3090 N   0  0  0  0  0  0  0  0  0  0  0  0
  181.3340  179.9820  138.1080 C   0  0  1  0  0  3  0  0  0  0  0  0
  179.8670  181.5670  137.7040 N   0  0  0  0  0  0  0  0  0  0  0  0
  181.0630  182.0870  138.0480 C   0  0  0  0  0  3  0  0  0  0  0  0
  182.3540  176.6460  139.7550 C   0  0  0  0  0  2  0  0  0  0  0  0
  180.9880  175.9820  139.8270 C   0  0  0  0  0  2  0  0  0  0  0  0
  180.0050  173.9690  138.8340 C   0  0  0  0  0  3  0  0  0  0  0  0
  180.8280  175.0030  138.7160 C   0  0  0  0  0  3  0  0  0  0  0  0
  180.4620  171.7560  137.8050 O   0  0  0  0  0  1  0  0  0  0  0  0
  179.8370  172.9970  137.7520 C   0  0  0  0  0  0  0  0  0  0  0  0
  179.1170  173.2890  136.7620 O   0  0  0  0  0  0  0  0  0  0  0  0
  1 10  1  0  0  0  0
  2  6  1  0  0  0  0
  4  1  2  0  0  0  0
  4 11  1  0  0  0  0
  5  3  1  0  0  0  0
  6  9  2  0  0  0  0
  7  2  1  0  0  0  0
  8 15  1  0  0  0  0
  8  3  2  0  0  0  0
 10  2  2  0  0  0  0
 10 15  1  0  0  0  0
 11  8  1  0  0  0  0
 12  5  2  0  0  0  0
 13 11  2  0  0  0  0
 13 12  1  0  0  0  0
 14  9  1  0  0  0  0
 15 14  2  0  0  0  0
 16 17  2  0  0  0  0
 17 18  1  0  0  0  0
 18 24  1  0  0  0  0
 18  4  1  0  0  0  0
 19 21  1  0  0  0  0
 21 17  1  1  0  0  0
 21 20  1  0  0  0  0
 22 19  2  0  0  0  0
 22 23  1  0  0  0  0
 23 20  2  0  0  0  0
 24 25  1  0  0  0  0
 27 26  2  0  0  0  0
 27 25  1  0  0  0  0
 29 28  1  0  0  0  0
 29 26  1  0  0  0  0
 30 29  2  0  0  0  0
M  END
>  <MODEL>
4

>  <REMARK>
 VINA RESULT:      -8.5      6.261      9.793
  Name = 
  6 active torsions:
  status: ('A' for Active; 'I' for Inactive)
    1  A    between atoms: C_4  and  N_13
    2  A    between atoms: C_7  and  C_15
    3  A    between atoms: C_8  and  C_12
    4  A    between atoms: N_13  and  C_27
    5  A    between atoms: C_16  and  C_30
    6  A    between atoms: C_27  and  C_30
                            x       y       z     vdW  Elec       q    Type
                         _______ _______ _______ _____ _____    ______ ____

>  <TORSDO>
F 6

$$$$
=
 OpenBabel11052412333D

 30 33  0  0  1  0  0  0  0  0999 V2000
  181.7380  178.4600  141.6960 N   0  0  0  0  0  0  0  0  0  0  0  0
  182.4770  178.8570  143.9970 C   0  0  0  0  0  0  0  0  0  0  0  0
  185.7570  178.6600  140.3170 C   0  0  0  0  0  3  0  0  0  0  0  0
  181.9820  178.0310  140.3200 C   0  0  0  0  0  0  0  0  0  0  0  0
  186.0560  178.4950  138.9630 C   0  0  0  0  0  3  0  0  0  0  0  0
  183.4990  179.0730  144.9260 C   0  0  0  0  0  3  0  0  0  0  0  0
  181.1880  178.8400  144.4150 F   0  0  0  0  0  0  0  0  0  0  0  0
  184.4380  178.5290  140.7790 C   0  0  0  0  0  0  0  0  0  0  0  0
  184.8320  179.1000  144.5080 C   0  0  0  0  0  3  0  0  0  0  0  0
  182.7880  178.6570  142.6470 C   0  0  0  0  0  0  0  0  0  0  0  0
  183.4070  178.2450  139.8560 C   0  0  0  0  0  0  0  0  0  0  0  0
  185.0410  178.1880  138.0570 C   0  0  0  0  0  3  0  0  0  0  0  0
  183.7250  178.0550  138.5020 C   0  0  0  0  0  3  0  0  0  0  0  0
  185.1440  178.9130  143.1590 C   0  0  0  0  0  3  0  0  0  0  0  0
  184.1260  178.6940  142.2170 C   0  0  0  0  0  0  0  0  0  0  0  0
  178.9310  178.3280  138.3200 O   0  0  0  0  0  0  0  0  0  0  0  0
  180.0340  177.8130  138.6460 C   0  0  0  0  0  0  0  0  0  0  0  0
  180.9750  178.5950  139.4170 N   0  0  0  0  0  0  0  0  0  0  0  0
  179.8710  175.2960  138.8740 C   0  0  0  0  0  3  0  0  0  0  0  0
  180.9780  176.0800  137.1070 N   0  0  0  0  0  0  0  0  0  0  0  0
  180.3080  176.4260  138.2180 C   0  0  1  0  0  3  0  0  0  0  0  0
  180.2890  174.2290  138.1690 N   0  0  0  0  0  0  0  0  0  0  0  0
  180.9530  174.7340  137.1090 C   0  0  0  0  0  3  0  0  0  0  0  0
  180.8510  180.0470  139.4310 C   0  0  0  0  0  2  0  0  0  0  0  0
  181.1740  180.6130  138.0570 C   0  0  0  0  0  2  0  0  0  0  0  0
  181.0080  182.9130  137.2280 C   0  0  0  0  0  3  0  0  0  0  0  0
  181.4580  182.0720  138.1510 C   0  0  0  0  0  3  0  0  0  0  0  0
  180.2860  185.2790  137.0140 O   0  0  0  0  0  0  0  0  0  0  0  0
  181.2790  184.3500  137.3050 C   0  0  0  0  0  0  0  0  0  0  0  0
  182.4240  184.7480  137.6400 O   0  0  0  0  0  1  0  0  0  0  0  0
  1 10  1  0  0  0  0
  2  7  1  0  0  0  0
  2  6  1  0  0  0  0
  3  8  1  0  0  0  0
  4  1  2  0  0  0  0
  5  3  2  0  0  0  0
  8 15  1  0  0  0  0
  9  6  2  0  0  0  0
 10  2  2  0  0  0  0
 11  4  1  0  0  0  0
 11  8  2  0  0  0  0
 12 13  2  0  0  0  0
 12  5  1  0  0  0  0
 13 11  1  0  0  0  0
 14  9  1  0  0  0  0
 15 10  1  0  0  0  0
 15 14  2  0  0  0  0
 16 17  2  0  0  0  0
 17 18  1  0  0  0  0
 18 24  1  0  0  0  0
 18  4  1  0  0  0  0
 20 23  2  0  0  0  0
 20 21  1  0  0  0  0
 21 17  1  6  0  0  0
 21 19  1  0  0  0  0
 22 19  2  0  0  0  0
 23 22  1  0  0  0  0
 25 27  1  0  0  0  0
 25 24  1  0  0  0  0
 26 29  1  0  0  0  0
 26 27  2  0  0  0  0
 28 29  2  0  0  0  0
 29 30  1  0  0  0  0
M  END
>  <MODEL>
5

>  <REMARK>
 VINA RESULT:      -8.5      7.154     10.531
  Name = 
  6 active torsions:
  status: ('A' for Active; 'I' for Inactive)
    1  A    between atoms: C_4  and  N_13
    2  A    between atoms: C_7  and  C_15
    3  A    between atoms: C_8  and  C_12
    4  A    between atoms: N_13  and  C_27
    5  A    between atoms: C_16  and  C_30
    6  A    between atoms: C_27  and  C_30
                            x       y       z     vdW  Elec       q    Type
                         _______ _______ _______ _____ _____    ______ ____

>  <TORSDO>
F 6

$$$$
=
 OpenBabel11052412333D

 30 33  0  0  0  0  0  0  0  0999 V2000
  188.0000  178.1690  143.6800 N   0  0  0  0  0  0  0  0  0  0  0  0
  187.2750  178.0800  146.0190 C   0  0  0  0  0  0  0  0  0  0  0  0
  183.9610  178.5110  142.3900 C   0  0  0  0  0  3  0  0  0  0  0  0
  187.7870  178.5210  142.2790 C   0  0  0  0  0  0  0  0  0  0  0  0
  183.6520  178.6140  141.0320 C   0  0  0  0  0  3  0  0  0  0  0  0
  186.2600  178.1070  146.9790 C   0  0  0  0  0  3  0  0  0  0  0  0
  188.5630  177.9220  146.4120 F   0  0  0  0  0  0  0  0  0  0  0  0
  185.2970  178.4640  142.8180 C   0  0  0  0  0  0  0  0  0  0  0  0
  184.9280  178.2620  146.5870 C   0  0  0  0  0  3  0  0  0  0  0  0
  186.9610  178.2200  144.6620 C   0  0  0  0  0  0  0  0  0  0  0  0
  186.3330  178.5030  141.8570 C   0  0  0  0  0  0  0  0  0  0  0  0
  184.6760  178.6800  140.0870 C   0  0  0  0  0  3  0  0  0  0  0  0
  186.0090  178.6340  140.4980 C   0  0  0  0  0  3  0  0  0  0  0  0
  184.6100  178.3890  145.2330 C   0  0  0  0  0  3  0  0  0  0  0  0
  185.6210  178.3660  144.2590 C   0  0  0  0  0  0  0  0  0  0  0  0
  190.2230  176.0040  141.2170 O   0  0  0  0  0  0  0  0  0  0  0  0
  189.8390  177.0180  141.8590 C   0  0  0  0  0  0  0  0  0  0  0  0
  188.6630  177.7310  141.4090 N   0  0  0  0  0  0  0  0  0  0  0  0
  190.9100  176.6120  144.1170 C   0  0  0  0  0  3  0  0  0  0  0  0
  191.1840  178.6320  143.2190 N   0  0  0  0  0  0  0  0  0  0  0  0
  190.6170  177.4270  143.0460 C   0  0  0  0  0  0  0  0  0  0  0  0
  191.6590  177.3250  144.9790 N   0  0  0  0  0  2  0  0  0  0  0  0
  191.8060  178.5390  144.4100 C   0  0  0  0  0  3  0  0  0  0  0  0
  188.2110  177.5610  140.0340 C   0  0  0  0  0  2  0  0  0  0  0  0
  189.0720  178.3900  139.0940 C   0  0  0  0  0  2  0  0  0  0  0  0
  189.4930  176.2390  137.9980 C   0  0  0  0  0  3  0  0  0  0  0  0
  189.8540  177.5020  138.1890 C   0  0  0  0  0  3  0  0  0  0  0  0
  190.5680  174.0560  137.5020 O   0  0  0  0  0  1  0  0  0  0  0  0
  190.2510  175.3520  137.1110 C   0  0  0  0  0  0  0  0  0  0  0  0
  190.6180  175.7700  135.9830 O   0  0  0  0  0  0  0  0  0  0  0  0
  1 10  1  0  0  0  0
  2  7  1  0  0  0  0
  2  6  1  0  0  0  0
  3  8  1  0  0  0  0
  4  1  2  0  0  0  0
  5  3  2  0  0  0  0
  8 15  1  0  0  0  0
  9  6  2  0  0  0  0
 10  2  2  0  0  0  0
 11  4  1  0  0  0  0
 11  8  2  0  0  0  0
 12 13  2  0  0  0  0
 12  5  1  0  0  0  0
 13 11  1  0  0  0  0
 14  9  1  0  0  0  0
 15 10  1  0  0  0  0
 15 14  2  0  0  0  0
 16 17  2  0  0  0  0
 17 21  1  0  0  0  0
 18 17  1  0  0  0  0
 18  4  1  0  0  0  0
 19 22  1  0  0  0  0
 20 23  2  0  0  0  0
 21 20  1  0  0  0  0
 21 19  2  0  0  0  0
 23 22  1  0  0  0  0
 24 18  1  0  0  0  0
 25 24  1  0  0  0  0
 26 27  2  0  0  0  0
 27 25  1  0  0  0  0
 29 28  1  0  0  0  0
 29 26  1  0  0  0  0
 30 29  2  0  0  0  0
M  END
>  <MODEL>
6

>  <REMARK>
 VINA RESULT:      -8.4      3.027      6.359
  Name = 
  6 active torsions:
  status: ('A' for Active; 'I' for Inactive)
    1  A    between atoms: C_4  and  N_13
    2  A    between atoms: C_7  and  C_15
    3  A    between atoms: C_8  and  C_12
    4  A    between atoms: N_13  and  C_27
    5  A    between atoms: C_16  and  C_30
    6  A    between atoms: C_27  and  C_30
                            x       y       z     vdW  Elec       q    Type
                         _______ _______ _______ _____ _____    ______ ____

>  <TORSDO>
F 6

$$$$
=
 OpenBabel11052412333D

 30 33  0  0  1  0  0  0  0  0999 V2000
  186.8430  177.7840  142.6250 N   0  0  0  0  0  0  0  0  0  0  0  0
  185.0780  178.4720  144.1780 C   0  0  0  0  0  0  0  0  0  0  0  0
  189.5420  177.2230  145.8660 C   0  0  0  0  0  3  0  0  0  0  0  0
  188.0970  177.0970  142.3240 C   0  0  0  0  0  0  0  0  0  0  0  0
  190.8500  176.7910  145.6380 C   0  0  0  0  0  3  0  0  0  0  0  0
  184.6280  178.7100  145.4790 C   0  0  0  0  0  3  0  0  0  0  0  0
  184.2440  178.6940  143.1320 F   0  0  0  0  0  0  0  0  0  0  0  0
  188.6340  177.3450  144.8020 C   0  0  0  0  0  0  0  0  0  0  0  0
  185.4790  178.4930  146.5660 C   0  0  0  0  0  3  0  0  0  0  0  0
  186.3790  178.0040  143.9600 C   0  0  0  0  0  0  0  0  0  0  0  0
  189.0620  177.0420  143.4900 C   0  0  0  0  0  0  0  0  0  0  0  0
  191.2620  176.4660  144.3460 C   0  0  0  0  0  3  0  0  0  0  0  0
  190.3710  176.5830  143.2790 C   0  0  0  0  0  3  0  0  0  0  0  0
  186.7820  178.0380  146.3510 C   0  0  0  0  0  3  0  0  0  0  0  0
  187.2450  177.7930  145.0480 C   0  0  0  0  0  0  0  0  0  0  0  0
  188.7120  179.3010  139.4660 O   0  0  0  0  0  0  0  0  0  0  0  0
  188.0200  178.5230  140.1780 C   0  0  0  0  0  0  0  0  0  0  0  0
  188.6900  177.6230  141.0910 N   0  0  0  0  0  0  0  0  0  0  0  0
  185.8000  177.7100  139.2720 C   0  0  0  0  0  3  0  0  0  0  0  0
  185.7450  179.4370  140.6770 N   0  0  0  0  0  0  0  0  0  0  0  0
  186.5510  178.5740  140.0380 C   0  0  1  0  0  3  0  0  0  0  0  0
  184.5070  178.0490  139.4230 N   0  0  0  0  0  0  0  0  0  0  0  0
  184.5060  179.0940  140.2760 C   0  0  0  0  0  3  0  0  0  0  0  0
  190.0970  177.3100  140.8770 C   0  0  0  0  0  2  0  0  0  0  0  0
  190.2940  176.7040  139.4960 C   0  0  0  0  0  2  0  0  0  0  0  0
  192.1610  176.3340  137.9530 C   0  0  0  0  0  3  0  0  0  0  0  0
  191.7460  176.5690  139.1910 C   0  0  0  0  0  3  0  0  0  0  0  0
  194.1310  176.8320  136.5260 O   0  0  0  0  0  0  0  0  0  0  0  0
  193.5850  176.1980  137.6360 C   0  0  0  0  0  0  0  0  0  0  0  0
  194.3210  175.5000  138.3800 O   0  0  0  0  0  1  0  0  0  0  0  0
  1 10  1  0  0  0  0
  2  6  1  0  0  0  0
  4  1  2  0  0  0  0
  4 11  1  0  0  0  0
  5  3  1  0  0  0  0
  6  9  2  0  0  0  0
  7  2  1  0  0  0  0
  8 15  1  0  0  0  0
  8  3  2  0  0  0  0
 10  2  2  0  0  0  0
 10 15  1  0  0  0  0
 11  8  1  0  0  0  0
 12  5  2  0  0  0  0
 13 11  2  0  0  0  0
 13 12  1  0  0  0  0
 14  9  1  0  0  0  0
 15 14  2  0  0  0  0
 16 17  2  0  0  0  0
 17 18  1  0  0  0  0
 18  4  1  0  0  0  0
 19 22  2  0  0  0  0
 19 21  1  0  0  0  0
 21 17  1  1  0  0  0
 21 20  1  0  0  0  0
 22 23  1  0  0  0  0
 23 20  2  0  0  0  0
 24 18  1  0  0  0  0
 25 24  1  0  0  0  0
 26 27  2  0  0  0  0
 27 25  1  0  0  0  0
 28 29  2  0  0  0  0
 29 26  1  0  0  0  0
 29 30  1  0  0  0  0
M  END
>  <MODEL>
7

>  <REMARK>
 VINA RESULT:      -8.3      3.332      5.288
  Name = 
  6 active torsions:
  status: ('A' for Active; 'I' for Inactive)
    1  A    between atoms: C_4  and  N_13
    2  A    between atoms: C_7  and  C_15
    3  A    between atoms: C_8  and  C_12
    4  A    between atoms: N_13  and  C_27
    5  A    between atoms: C_16  and  C_30
    6  A    between atoms: C_27  and  C_30
                            x       y       z     vdW  Elec       q    Type
                         _______ _______ _______ _____ _____    ______ ____

>  <TORSDO>
F 6

$$$$
=
 OpenBabel11052412333D

 30 33  0  0  1  0  0  0  0  0999 V2000
  182.4150  178.4780  141.0110 N   0  0  0  0  0  0  0  0  0  0  0  0
  180.0540  178.9560  141.4590 C   0  0  0  0  0  0  0  0  0  0  0  0
  183.3410  178.9320  145.1380 C   0  0  0  0  0  3  0  0  0  0  0  0
  183.7450  178.0480  141.4360 C   0  0  0  0  0  0  0  0  0  0  0  0
  184.6500  178.7690  145.5980 C   0  0  0  0  0  3  0  0  0  0  0  0
  179.0220  179.2530  142.3530 C   0  0  0  0  0  3  0  0  0  0  0  0
  179.7830  178.8570  140.1340 F   0  0  0  0  0  0  0  0  0  0  0  0
  183.0260  178.7180  143.7870 C   0  0  0  0  0  0  0  0  0  0  0  0
  179.2900  179.3640  143.7190 C   0  0  0  0  0  3  0  0  0  0  0  0
  181.3580  178.7590  141.9320 C   0  0  0  0  0  0  0  0  0  0  0  0
  184.0530  178.3520  142.8870 C   0  0  0  0  0  0  0  0  0  0  0  0
  185.6560  178.3820  144.7130 C   0  0  0  0  0  3  0  0  0  0  0  0
  185.3580  178.1660  143.3680 C   0  0  0  0  0  3  0  0  0  0  0  0
  180.5910  179.1810  144.1930 C   0  0  0  0  0  3  0  0  0  0  0  0
  181.6360  178.8800  143.3050 C   0  0  0  0  0  0  0  0  0  0  0  0
  185.2590  179.4530  138.4140 O   0  0  0  0  0  0  0  0  0  0  0  0
  184.5980  178.6010  139.0670 C   0  0  0  0  0  0  0  0  0  0  0  0
  184.7670  178.5310  140.5020 N   0  0  0  0  0  0  0  0  0  0  0  0
  182.6300  178.1400  137.5420 C   0  0  0  0  0  3  0  0  0  0  0  0
  183.7750  176.3750  138.2730 N   0  0  0  0  0  0  0  0  0  0  0  0
  183.6800  177.7130  138.3250 C   0  0  1  0  0  3  0  0  0  0  0  0
  182.0520  177.0490  137.0070 N   0  0  0  0  0  0  0  0  0  0  0  0
  182.7640  176.0000  137.4670 C   0  0  0  0  0  3  0  0  0  0  0  0
  185.9640  179.1000  141.1070 C   0  0  0  0  0  2  0  0  0  0  0  0
  187.2000  178.3670  140.6110 C   0  0  0  0  0  2  0  0  0  0  0  0
  188.8240  177.7710  142.3470 C   0  0  0  0  0  3  0  0  0  0  0  0
  188.3690  178.6700  141.4830 C   0  0  0  0  0  3  0  0  0  0  0  0
  191.2650  178.0600  142.7010 O   0  0  0  0  0  0  0  0  0  0  0  0
  189.9720  178.0540  143.2120 C   0  0  0  0  0  0  0  0  0  0  0  0
  189.7830  178.2950  144.4320 O   0  0  0  0  0  1  0  0  0  0  0  0
  1  4  2  0  0  0  0
  1 10  1  0  0  0  0
  2 10  2  0  0  0  0
  2  6  1  0  0  0  0
  3  5  1  0  0  0  0
  4 11  1  0  0  0  0
  6  9  2  0  0  0  0
  7  2  1  0  0  0  0
  8  3  2  0  0  0  0
  9 14  1  0  0  0  0
 10 15  1  0  0  0  0
 11 13  2  0  0  0  0
 11  8  1  0  0  0  0
 12  5  2  0  0  0  0
 13 12  1  0  0  0  0
 15  8  1  0  0  0  0
 15 14  2  0  0  0  0
 16 17  2  0  0  0  0
 17 18  1  0  0  0  0
 18 24  1  0  0  0  0
 18  4  1  0  0  0  0
 19 21  1  0  0  0  0
 20 21  1  0  0  0  0
 21 17  1  6  0  0  0
 22 23  1  0  0  0  0
 22 19  2  0  0  0  0
 23 20  2  0  0  0  0
 25 24  1  0  0  0  0
 25 27  1  0  0  0  0
 26 29  1  0  0  0  0
 27 26  2  0  0  0  0
 28 29  2  0  0  0  0
 29 30  1  0  0  0  0
M  END
>  <MODEL>
8

>  <REMARK>
 VINA RESULT:      -8.0      3.729      5.859
  Name = 
  6 active torsions:
  status: ('A' for Active; 'I' for Inactive)
    1  A    between atoms: C_4  and  N_13
    2  A    between atoms: C_7  and  C_15
    3  A    between atoms: C_8  and  C_12
    4  A    between atoms: N_13  and  C_27
    5  A    between atoms: C_16  and  C_30
    6  A    between atoms: C_27  and  C_30
                            x       y       z     vdW  Elec       q    Type
                         _______ _______ _______ _____ _____    ______ ____

>  <TORSDO>
F 6

$$$$
=
 OpenBabel11052412333D

 30 33  0  0  1  0  0  0  0  0999 V2000
  187.9190  177.9290  140.7070 N   0  0  0  0  0  0  0  0  0  0  0  0
  189.9640  176.8830  141.5590 C   0  0  0  0  0  0  0  0  0  0  0  0
  186.2110  177.8770  144.6040 C   0  0  0  0  0  3  0  0  0  0  0  0
  186.6910  178.6990  140.8960 C   0  0  0  0  0  0  0  0  0  0  0  0
  184.9290  178.3840  144.8280 C   0  0  0  0  0  3  0  0  0  0  0  0
  190.7150  176.3660  142.6180 C   0  0  0  0  0  3  0  0  0  0  0  0
  190.4750  176.8610  140.3040 F   0  0  0  0  0  0  0  0  0  0  0  0
  186.7980  177.9550  143.3310 C   0  0  0  0  0  0  0  0  0  0  0  0
  190.1970  176.3770  143.9150 C   0  0  0  0  0  3  0  0  0  0  0  0
  188.6940  177.4230  141.7980 C   0  0  0  0  0  0  0  0  0  0  0  0
  186.0710  178.5360  142.2680 C   0  0  0  0  0  0  0  0  0  0  0  0
  184.2240  178.9820  143.7840 C   0  0  0  0  0  3  0  0  0  0  0  0
  184.7950  179.0660  142.5130 C   0  0  0  0  0  3  0  0  0  0  0  0
  188.9250  176.9020  144.1540 C   0  0  0  0  0  3  0  0  0  0  0  0
  188.1610  177.4260  143.0990 C   0  0  0  0  0  0  0  0  0  0  0  0
  185.2360  177.2340  137.8730 O   0  0  0  0  0  0  0  0  0  0  0  0
  186.1170  177.8520  138.5300 C   0  0  0  0  0  0  0  0  0  0  0  0
  185.7560  178.4580  139.7930 N   0  0  0  0  0  0  0  0  0  0  0  0
  188.3070  176.8440  137.7570 C   0  0  0  0  0  3  0  0  0  0  0  0
  188.0800  179.0490  137.5420 N   0  0  0  0  0  0  0  0  0  0  0  0
  187.4810  177.9260  137.9680 C   0  0  1  0  0  3  0  0  0  0  0  0
  189.4460  177.3020  137.2060 N   0  0  0  0  0  0  0  0  0  0  0  0
  189.2790  178.6360  137.0890 C   0  0  0  0  0  3  0  0  0  0  0  0
  184.3530  178.7300  140.0770 C   0  0  0  0  0  2  0  0  0  0  0  0
  183.8090  179.7520  139.0910 C   0  0  0  0  0  2  0  0  0  0  0  0
  181.7210  179.3560  140.3110 C   0  0  0  0  0  3  0  0  0  0  0  0
  182.3490  179.9560  139.3070 C   0  0  0  0  0  3  0  0  0  0  0  0
  179.4000  178.4810  140.4180 O   0  0  0  0  0  0  0  0  0  0  0  0
  180.2860  179.5450  140.5380 C   0  0  0  0  0  0  0  0  0  0  0  0
  179.8520  180.6850  140.8450 O   0  0  0  0  0  1  0  0  0  0  0  0
  1  4  2  0  0  0  0
  1 10  1  0  0  0  0
  2 10  2  0  0  0  0
  2  6  1  0  0  0  0
  3  5  1  0  0  0  0
  4 11  1  0  0  0  0
  6  9  2  0  0  0  0
  7  2  1  0  0  0  0
  8  3  2  0  0  0  0
  9 14  1  0  0  0  0
 10 15  1  0  0  0  0
 11 13  2  0  0  0  0
 11  8  1  0  0  0  0
 12  5  2  0  0  0  0
 13 12  1  0  0  0  0
 15  8  1  0  0  0  0
 15 14  2  0  0  0  0
 16 17  2  0  0  0  0
 17 18  1  0  0  0  0
 18 24  1  0  0  0  0
 18  4  1  0  0  0  0
 19 21  1  0  0  0  0
 20 21  1  0  0  0  0
 21 17  1  6  0  0  0
 22 19  2  0  0  0  0
 23 22  1  0  0  0  0
 23 20  2  0  0  0  0
 25 27  1  0  0  0  0
 25 24  1  0  0  0  0
 26 29  1  0  0  0  0
 27 26  2  0  0  0  0
 28 29  2  0  0  0  0
 29 30  1  0  0  0  0
M  END
>  <MODEL>
9

>  <REMARK>
 VINA RESULT:      -8.0      4.633      7.907
  Name = 
  6 active torsions:
  status: ('A' for Active; 'I' for Inactive)
    1  A    between atoms: C_4  and  N_13
    2  A    between atoms: C_7  and  C_15
    3  A    between atoms: C_8  and  C_12
    4  A    between atoms: N_13  and  C_27
    5  A    between atoms: C_16  and  C_30
    6  A    between atoms: C_27  and  C_30
                            x       y       z     vdW  Elec       q    Type
                         _______ _______ _______ _____ _____    ______ ____

>  <TORSDO>
F 6

$$$$
