=
 OpenBabel11052416203D

 43 48  0  0  1  0  0  0  0  0999 V2000
  184.7140  178.7610  145.5960 C   0  0  0  0  0  0  0  0  0  0  0  0
  182.4640  178.6950  141.0710 C   0  0  0  0  0  0  0  0  0  0  0  0
  184.5530  178.2000  139.1720 C   0  0  0  0  0  0  0  0  0  0  0  0
  183.0870  178.8040  143.7990 C   0  0  0  0  0  0  0  0  0  0  0  0
  185.7460  178.6250  144.6620 C   0  0  0  0  0  3  0  0  0  0  0  0
  184.9950  178.7940  146.9170 F   0  0  0  0  0  0  0  0  0  0  0  0
  184.1280  178.6620  142.8500 C   0  0  0  0  0  0  0  0  0  0  0  0
  183.3870  178.8490  145.1640 C   0  0  0  0  0  3  0  0  0  0  0  0
  185.4550  178.5760  143.2970 C   0  0  0  0  0  3  0  0  0  0  0  0
  184.8610  178.4630  140.4480 C   0  0  0  0  0  3  0  0  0  0  0  0
  183.8110  178.6020  141.4800 C   0  0  0  0  0  0  0  0  0  0  0  0
  181.4510  178.8500  142.0200 C   0  0  0  0  0  3  0  0  0  0  0  0
  182.1220  178.7330  139.6050 C   0  0  2  0  0  3  0  0  0  0  0  0
  183.1220  177.9060  138.7860 C   0  0  0  0  0  2  0  0  0  0  0  0
  181.7600  178.8980  143.3790 C   0  0  0  0  0  3  0  0  0  0  0  0
  185.6150  178.1210  138.1570 C   0  0  0  0  0  0  0  0  0  0  0  0
  186.0680  176.8390  137.6960 N   0  0  0  0  0  2  0  0  0  0  0  0
  186.1140  179.1830  137.6950 O   0  0  0  0  0  0  0  0  0  0  0  0
  187.2420  176.5550  136.9200 C   0  0  0  0  0  0  0  0  0  0  0  0
  187.2500  176.6550  135.2830 S   0  0  0  0  0  0  0  0  0  0  0  0
  188.5130  176.1930  137.6130 C   0  0  2  0  0  3  0  0  0  0  0  0
  189.1930  177.4520  138.1500 C   0  0  0  0  0  2  0  0  0  0  0  0
  191.3160  176.0410  138.0620 C   0  0  0  0  0  2  0  0  0  0  0  0
  189.3780  175.5160  136.7370 O   0  0  0  0  0  0  0  0  0  0  0  0
  190.5180  177.0960  138.8370 C   0  0  2  0  0  3  0  0  0  0  0  0
  190.3870  174.9470  137.5320 C   0  0  0  0  0  2  0  0  0  0  0  0
  190.3510  176.7490  140.3190 C   0  0  0  0  0  2  0  0  0  0  0  0
  189.0870  177.3360  140.9340 C   0  0  0  0  0  2  0  0  0  0  0  0
  189.3600  177.7830  142.2890 N   0  0  0  0  0  0  0  0  0  0  0  0
  189.2210  177.0030  144.6340 C   0  0  0  0  0  2  0  0  0  0  0  0
  191.1890  177.8830  143.9590 C   0  0  0  0  0  2  0  0  0  0  0  0
  190.0490  178.1390  144.7450 O   0  0  0  0  0  0  0  0  0  0  0  0
  190.8150  177.7590  142.4700 C   0  0  0  0  0  2  0  0  0  0  0  0
  188.7340  176.8080  143.1870 C   0  0  0  0  0  2  0  0  0  0  0  0
  182.1300  180.0580  139.1530 O   0  0  0  0  0  0  0  0  0  0  0  0
  180.7530  182.4440  137.6720 N   0  0  0  0  0  0  0  0  0  0  0  0
  180.0410  181.1300  139.4290 C   0  0  0  0  0  2  0  0  0  0  0  0
  181.0540  181.0730  137.3010 C   0  0  0  0  0  2  0  0  0  0  0  0
  180.8850  180.2480  138.5470 C   0  0  1  0  0  3  0  0  0  0  0  0
  179.8040  182.3770  138.7100 N   0  0  0  0  0  2  0  0  0  0  0  0
  180.0950  183.0580  136.5290 C   0  0  0  0  0  2  0  0  0  0  0  0
  181.6160  184.8920  137.2520 C   0  0  0  0  0  1  0  0  0  0  0  0
  180.8600  184.2910  136.0810 C   0  0  0  0  0  2  0  0  0  0  0  0
  1  6  1  0  0  0  0
  2 11  2  0  0  0  0
  2 12  1  0  0  0  0
  3 10  2  0  0  0  0
  4  8  2  0  0  0  0
  5  1  2  0  0  0  0
  7  9  2  0  0  0  0
  7  4  1  0  0  0  0
  8  1  1  0  0  0  0
  9  5  1  0  0  0  0
 10 11  1  0  0  0  0
 11  7  1  0  0  0  0
 12 15  2  0  0  0  0
 13 35  1  6  0  0  0
 13  2  1  0  0  0  0
 14  3  1  0  0  0  0
 14 13  1  0  0  0  0
 15  4  1  0  0  0  0
 16  3  1  0  0  0  0
 17 16  1  0  0  0  0
 18 16  2  0  0  0  0
 19 17  1  0  0  0  0
 20 19  2  0  0  0  0
 21 19  1  6  0  0  0
 21 22  1  0  0  0  0
 22 25  1  0  0  0  0
 23 25  1  0  0  0  0
 24 26  1  0  0  0  0
 24 21  1  0  0  0  0
 25 27  1  1  0  0  0
 26 23  1  0  0  0  0
 27 28  1  0  0  0  0
 28 29  1  0  0  0  0
 29 33  1  0  0  0  0
 29 34  1  0  0  0  0
 30 32  1  0  0  0  0
 31 32  1  0  0  0  0
 33 31  1  0  0  0  0
 34 30  1  0  0  0  0
 36 40  1  0  0  0  0
 38 36  1  0  0  0  0
 38 39  1  0  0  0  0
 39 35  1  1  0  0  0
 39 37  1  0  0  0  0
 40 37  1  0  0  0  0
 41 36  1  0  0  0  0
 43 41  1  0  0  0  0
 43 42  1  0  0  0  0
M  END
>  <MODEL>
1

>  <REMARK>
 VINA RESULT:      -9.2      0.000      0.000
  Name = 
  10 active torsions:
  status: ('A' for Active; 'I' for Inactive)
    1  A    between atoms: O_1  and  C_34
    2  A    between atoms: O_1  and  C_35
    3  A    between atoms: C_2  and  C_13
    4  A    between atoms: C_3  and  C_12
    5  A    between atoms: N_6  and  C_12
    6  A    between atoms: C_9  and  N_19
    7  A    between atoms: C_9  and  C_37
    8  A    between atoms: N_11  and  C_14
    9  A    between atoms: C_14  and  C_41
   10  A    between atoms: C_22  and  C_41
                            x       y       z     vdW  Elec       q    Type
                         _______ _______ _______ _____ _____    ______ ____

>  <TORSDO>
F 10

$$$$
=
 OpenBabel11052416203D

 43 48  0  0  1  0  0  0  0  0999 V2000
  185.4700  178.5980  145.8150 C   0  0  0  0  0  0  0  0  0  0  0  0
  182.3300  178.6610  141.8560 C   0  0  0  0  0  0  0  0  0  0  0  0
  183.9500  178.0620  139.5690 C   0  0  0  0  0  0  0  0  0  0  0  0
  183.5100  178.7310  144.3940 C   0  0  0  0  0  0  0  0  0  0  0  0
  186.2770  178.4100  144.6890 C   0  0  0  0  0  3  0  0  0  0  0  0
  186.0210  178.6120  147.0480 F   0  0  0  0  0  0  0  0  0  0  0  0
  184.3220  178.5360  143.2510 C   0  0  0  0  0  0  0  0  0  0  0  0
  184.0890  178.7570  145.6670 C   0  0  0  0  0  3  0  0  0  0  0  0
  185.7080  178.3790  143.4140 C   0  0  0  0  0  3  0  0  0  0  0  0
  184.5300  178.3060  140.7510 C   0  0  0  0  0  3  0  0  0  0  0  0
  183.7250  178.4970  141.9770 C   0  0  0  0  0  0  0  0  0  0  0  0
  181.5450  178.8670  142.9930 C   0  0  0  0  0  3  0  0  0  0  0  0
  181.6930  178.7210  140.4920 C   0  0  2  0  0  3  0  0  0  0  0  0
  182.4570  177.8440  139.4910 C   0  0  0  0  0  2  0  0  0  0  0  0
  182.1310  178.8950  144.2580 C   0  0  0  0  0  3  0  0  0  0  0  0
  184.7730  177.9310  138.3560 C   0  0  0  0  0  0  0  0  0  0  0  0
  184.4650  176.9120  137.3920 N   0  0  0  0  0  2  0  0  0  0  0  0
  185.7390  178.7200  138.1710 O   0  0  0  0  0  0  0  0  0  0  0  0
  185.2840  176.4690  136.2990 C   0  0  0  0  0  0  0  0  0  0  0  0
  184.8520  176.7060  134.7350 S   0  0  0  0  0  0  0  0  0  0  0  0
  186.5890  175.8030  136.5810 C   0  0  2  0  0  3  0  0  0  0  0  0
  187.7340  176.6240  135.9880 C   0  0  0  0  0  2  0  0  0  0  0  0
  189.0080  174.4150  136.0310 C   0  0  0  0  0  2  0  0  0  0  0  0
  186.6050  174.5030  136.0470 O   0  0  0  0  0  0  0  0  0  0  0  0
  189.0800  175.9320  136.2420 C   0  0  2  0  0  3  0  0  0  0  0  0
  187.7130  173.8510  136.6150 C   0  0  0  0  0  2  0  0  0  0  0  0
  189.7100  176.3200  137.5830 C   0  0  0  0  0  2  0  0  0  0  0  0
  189.4500  177.7690  137.9710 C   0  0  0  0  0  2  0  0  0  0  0  0
  189.7430  177.9620  139.3810 N   0  0  0  0  0  0  0  0  0  0  0  0
  188.6480  177.8750  141.6000 C   0  0  0  0  0  2  0  0  0  0  0  0
  190.5850  176.7370  141.3630 C   0  0  0  0  0  2  0  0  0  0  0  0
  190.0160  177.8890  141.9400 O   0  0  0  0  0  0  0  0  0  0  0  0
  190.5180  176.8000  139.8270 C   0  0  0  0  0  2  0  0  0  0  0  0
  188.4530  177.9920  140.0770 C   0  0  0  0  0  2  0  0  0  0  0  0
  181.6760  180.0450  140.0370 O   0  0  0  0  0  0  0  0  0  0  0  0
  180.5360  182.2000  138.0780 N   0  0  0  0  0  0  0  0  0  0  0  0
  179.5990  181.1690  139.9170 C   0  0  0  0  0  2  0  0  0  0  0  0
  180.8380  180.7860  137.9480 C   0  0  0  0  0  2  0  0  0  0  0  0
  180.5100  180.1570  139.2740 C   0  0  1  0  0  3  0  0  0  0  0  0
  179.4780  182.2980  139.0020 N   0  0  0  0  0  2  0  0  0  0  0  0
  180.0240  182.6450  136.7920 C   0  0  0  0  0  2  0  0  0  0  0  0
  181.0610  184.8060  136.1190 C   0  0  0  0  0  1  0  0  0  0  0  0
  179.8610  184.1550  136.7830 C   0  0  0  0  0  2  0  0  0  0  0  0
  1  6  1  0  0  0  0
  2 11  2  0  0  0  0
  2 12  1  0  0  0  0
  3 10  2  0  0  0  0
  4  8  2  0  0  0  0
  5  1  2  0  0  0  0
  7  9  2  0  0  0  0
  7  4  1  0  0  0  0
  8  1  1  0  0  0  0
  9  5  1  0  0  0  0
 10 11  1  0  0  0  0
 11  7  1  0  0  0  0
 12 15  2  0  0  0  0
 13 35  1  6  0  0  0
 13  2  1  0  0  0  0
 14  3  1  0  0  0  0
 14 13  1  0  0  0  0
 15  4  1  0  0  0  0
 16  3  1  0  0  0  0
 17 16  1  0  0  0  0
 18 16  2  0  0  0  0
 19 17  1  0  0  0  0
 20 19  2  0  0  0  0
 21 19  1  6  0  0  0
 22 25  1  0  0  0  0
 22 21  1  0  0  0  0
 23 25  1  0  0  0  0
 23 26  1  0  0  0  0
 24 21  1  0  0  0  0
 24 26  1  0  0  0  0
 25 27  1  1  0  0  0
 27 28  1  0  0  0  0
 28 29  1  0  0  0  0
 29 33  1  0  0  0  0
 29 34  1  0  0  0  0
 30 32  1  0  0  0  0
 31 32  1  0  0  0  0
 33 31  1  0  0  0  0
 34 30  1  0  0  0  0
 36 40  1  0  0  0  0
 38 36  1  0  0  0  0
 38 39  1  0  0  0  0
 39 37  1  0  0  0  0
 39 35  1  1  0  0  0
 40 37  1  0  0  0  0
 41 36  1  0  0  0  0
 42 43  1  0  0  0  0
 43 41  1  0  0  0  0
M  END
>  <MODEL>
2

>  <REMARK>
 VINA RESULT:      -8.6      1.397      1.896
  Name = 
  10 active torsions:
  status: ('A' for Active; 'I' for Inactive)
    1  A    between atoms: O_1  and  C_34
    2  A    between atoms: O_1  and  C_35
    3  A    between atoms: C_2  and  C_13
    4  A    between atoms: C_3  and  C_12
    5  A    between atoms: N_6  and  C_12
    6  A    between atoms: C_9  and  N_19
    7  A    between atoms: C_9  and  C_37
    8  A    between atoms: N_11  and  C_14
    9  A    between atoms: C_14  and  C_41
   10  A    between atoms: C_22  and  C_41
                            x       y       z     vdW  Elec       q    Type
                         _______ _______ _______ _____ _____    ______ ____

>  <TORSDO>
F 10

$$$$
=
 OpenBabel11052416203D

 43 48  0  0  1  0  0  0  0  0999 V2000
  188.8830  177.4250  146.3370 C   0  0  0  0  0  0  0  0  0  0  0  0
  190.5980  177.3560  141.5830 C   0  0  0  0  0  0  0  0  0  0  0  0
  188.3250  177.9120  139.9290 C   0  0  0  0  0  0  0  0  0  0  0  0
  190.2900  177.2990  144.3660 C   0  0  0  0  0  0  0  0  0  0  0  0
  187.7570  177.5910  145.5260 C   0  0  0  0  0  3  0  0  0  0  0  0
  188.7550  177.4170  147.6810 F   0  0  0  0  0  0  0  0  0  0  0  0
  189.1530  177.4720  143.5410 C   0  0  0  0  0  0  0  0  0  0  0  0
  190.1470  177.2800  145.7570 C   0  0  0  0  0  3  0  0  0  0  0  0
  187.8890  177.6150  144.1360 C   0  0  0  0  0  3  0  0  0  0  0  0
  188.1560  177.6740  141.2350 C   0  0  0  0  0  3  0  0  0  0  0  0
  189.3120  177.5050  142.1420 C   0  0  0  0  0  0  0  0  0  0  0  0
  191.7070  177.1710  142.4120 C   0  0  0  0  0  3  0  0  0  0  0  0
  190.7670  177.2890  140.0880 C   0  0  2  0  0  3  0  0  0  0  0  0
  189.7120  178.1460  139.3770 C   0  0  0  0  0  2  0  0  0  0  0  0
  191.5550  177.1490  143.7980 C   0  0  0  0  0  3  0  0  0  0  0  0
  187.1560  178.0210  139.0410 C   0  0  0  0  0  0  0  0  0  0  0  0
  187.0770  177.2050  137.8620 N   0  0  0  0  0  2  0  0  0  0  0  0
  186.2290  178.8270  139.3280 O   0  0  0  0  0  0  0  0  0  0  0  0
  186.1650  177.3450  136.7630 C   0  0  0  0  0  0  0  0  0  0  0  0
  186.6720  177.7380  135.2530 S   0  0  0  0  0  0  0  0  0  0  0  0
  184.7100  177.0940  136.9780 C   0  0  2  0  0  3  0  0  0  0  0  0
  184.4850  175.6340  137.3760 C   0  0  0  0  0  2  0  0  0  0  0  0
  182.1250  176.0170  136.4880 C   0  0  0  0  0  2  0  0  0  0  0  0
  183.9800  177.3920  135.8140 O   0  0  0  0  0  0  0  0  0  0  0  0
  182.9880  175.3540  137.5670 C   0  0  2  0  0  3  0  0  0  0  0  0
  182.6260  177.4310  136.1910 C   0  0  0  0  0  2  0  0  0  0  0  0
  182.5000  175.6480  138.9880 C   0  0  0  0  0  2  0  0  0  0  0  0
  180.9890  175.8140  139.0820 C   0  0  0  0  0  2  0  0  0  0  0  0
  180.6710  177.0860  139.7080 N   0  0  0  0  0  0  0  0  0  0  0  0
  179.6100  178.0130  141.7440 C   0  0  0  0  0  2  0  0  0  0  0  0
  181.6540  178.8040  141.1990 C   0  0  0  0  0  2  0  0  0  0  0  0
  180.2850  179.1340  141.2210 O   0  0  0  0  0  0  0  0  0  0  0  0
  181.9250  177.6400  140.2280 C   0  0  0  0  0  2  0  0  0  0  0  0
  179.7630  176.7900  140.8210 C   0  0  0  0  0  2  0  0  0  0  0  0
  190.6570  175.9600  139.6600 O   0  0  0  0  0  0  0  0  0  0  0  0
  190.3210  173.9160  137.3160 N   0  0  0  0  0  0  0  0  0  0  0  0
  192.1360  175.1690  137.9930 C   0  0  0  0  0  2  0  0  0  0  0  0
  189.8210  175.2580  137.5570 C   0  0  0  0  0  2  0  0  0  0  0  0
  190.9110  175.9940  138.2860 C   0  0  1  0  0  3  0  0  0  0  0  0
  191.7180  174.0300  137.1840 N   0  0  0  0  0  2  0  0  0  0  0  0
  189.8010  173.4940  136.0260 C   0  0  0  0  0  2  0  0  0  0  0  0
  187.8470  172.3170  137.0250 C   0  0  0  0  0  1  0  0  0  0  0  0
  188.2840  173.4130  136.0700 C   0  0  0  0  0  2  0  0  0  0  0  0
  1  6  1  0  0  0  0
  2 11  2  0  0  0  0
  2 12  1  0  0  0  0
  3 10  2  0  0  0  0
  4  8  2  0  0  0  0
  5  1  2  0  0  0  0
  7  9  2  0  0  0  0
  7  4  1  0  0  0  0
  8  1  1  0  0  0  0
  9  5  1  0  0  0  0
 10 11  1  0  0  0  0
 11  7  1  0  0  0  0
 12 15  2  0  0  0  0
 13 35  1  6  0  0  0
 13  2  1  0  0  0  0
 14  3  1  0  0  0  0
 14 13  1  0  0  0  0
 15  4  1  0  0  0  0
 16 18  2  0  0  0  0
 16  3  1  0  0  0  0
 17 16  1  0  0  0  0
 19 17  1  0  0  0  0
 20 19  2  0  0  0  0
 21 19  1  6  0  0  0
 21 22  1  0  0  0  0
 22 25  1  0  0  0  0
 23 25  1  0  0  0  0
 24 26  1  0  0  0  0
 24 21  1  0  0  0  0
 25 27  1  1  0  0  0
 26 23  1  0  0  0  0
 27 28  1  0  0  0  0
 28 29  1  0  0  0  0
 29 33  1  0  0  0  0
 29 34  1  0  0  0  0
 31 32  1  0  0  0  0
 32 30  1  0  0  0  0
 33 31  1  0  0  0  0
 34 30  1  0  0  0  0
 36 38  1  0  0  0  0
 37 39  1  0  0  0  0
 38 39  1  0  0  0  0
 39 35  1  1  0  0  0
 40 36  1  0  0  0  0
 40 37  1  0  0  0  0
 41 43  1  0  0  0  0
 41 36  1  0  0  0  0
 43 42  1  0  0  0  0
M  END
>  <MODEL>
3

>  <REMARK>
 VINA RESULT:      -8.3      3.220      8.455
  Name = 
  10 active torsions:
  status: ('A' for Active; 'I' for Inactive)
    1  A    between atoms: O_1  and  C_34
    2  A    between atoms: O_1  and  C_35
    3  A    between atoms: C_2  and  C_13
    4  A    between atoms: C_3  and  C_12
    5  A    between atoms: N_6  and  C_12
    6  A    between atoms: C_9  and  N_19
    7  A    between atoms: C_9  and  C_37
    8  A    between atoms: N_11  and  C_14
    9  A    between atoms: C_14  and  C_41
   10  A    between atoms: C_22  and  C_41
                            x       y       z     vdW  Elec       q    Type
                         _______ _______ _______ _____ _____    ______ ____

>  <TORSDO>
F 10

$$$$
=
 OpenBabel11052416203D

 43 48  0  0  1  0  0  0  0  0999 V2000
  182.7560  178.6700  143.8310 C   0  0  0  0  0  0  0  0  0  0  0  0
  187.7150  178.1250  143.0230 C   0  0  0  0  0  0  0  0  0  0  0  0
  188.0610  178.2820  140.1820 C   0  0  0  0  0  0  0  0  0  0  0  0
  185.1490  178.4030  144.1110 C   0  0  0  0  0  0  0  0  0  0  0  0
  182.9120  178.6400  142.4420 C   0  0  0  0  0  3  0  0  0  0  0  0
  181.5280  178.8250  144.3720 F   0  0  0  0  0  0  0  0  0  0  0  0
  185.3130  178.3780  142.7050 C   0  0  0  0  0  0  0  0  0  0  0  0
  183.8730  178.5520  144.6630 C   0  0  0  0  0  3  0  0  0  0  0  0
  184.1820  178.4950  141.8810 C   0  0  0  0  0  3  0  0  0  0  0  0
  186.8290  178.2020  140.7000 C   0  0  0  0  0  3  0  0  0  0  0  0
  186.6050  178.2430  142.1610 C   0  0  0  0  0  0  0  0  0  0  0  0
  187.5330  178.1370  144.4080 C   0  0  0  0  0  3  0  0  0  0  0  0
  189.0880  177.8800  142.4550 C   0  0  2  0  0  3  0  0  0  0  0  0
  189.2430  178.5520  141.0840 C   0  0  0  0  0  2  0  0  0  0  0  0
  186.2570  178.2810  144.9500 C   0  0  0  0  0  3  0  0  0  0  0  0
  188.2580  178.1830  138.7270 C   0  0  0  0  0  0  0  0  0  0  0  0
  187.8720  176.9850  138.0350 N   0  0  0  0  0  2  0  0  0  0  0  0
  188.7590  179.1550  138.0990 O   0  0  0  0  0  0  0  0  0  0  0  0
  188.2110  176.6060  136.6920 C   0  0  0  0  0  0  0  0  0  0  0  0
  187.2900  177.0380  135.4060 S   0  0  0  0  0  0  0  0  0  0  0  0
  189.4570  175.8240  136.4410 C   0  0  2  0  0  3  0  0  0  0  0  0
  190.4930  176.7030  135.7400 C   0  0  0  0  0  2  0  0  0  0  0  0
  191.4670  174.4850  134.9420 C   0  0  0  0  0  2  0  0  0  0  0  0
  189.1800  174.6910  135.6580 O   0  0  0  0  0  0  0  0  0  0  0  0
  191.7680  175.9010  135.4460 C   0  0  2  0  0  3  0  0  0  0  0  0
  190.3150  173.8660  135.7340 C   0  0  0  0  0  2  0  0  0  0  0  0
  192.7700  175.9230  136.6030 C   0  0  0  0  0  2  0  0  0  0  0  0
  193.7680  174.7740  136.5550 C   0  0  0  0  0  2  0  0  0  0  0  0
  195.1150  175.2820  136.7520 N   0  0  0  0  0  0  0  0  0  0  0  0
  197.3650  174.5360  137.4660 C   0  0  0  0  0  2  0  0  0  0  0  0
  197.2300  175.6750  135.5210 C   0  0  0  0  0  2  0  0  0  0  0  0
  197.6390  175.7810  136.8640 O   0  0  0  0  0  0  0  0  0  0  0  0
  195.7070  175.4700  135.4230 C   0  0  0  0  0  2  0  0  0  0  0  0
  195.8530  174.2450  137.4790 C   0  0  0  0  0  2  0  0  0  0  0  0
  189.3070  176.5020  142.3280 O   0  0  0  0  0  0  0  0  0  0  0  0
  190.9220  176.7090  144.9980 N   0  0  0  0  0  0  0  0  0  0  0  0
  191.2870  177.6490  142.9230 C   0  0  0  0  0  2  0  0  0  0  0  0
  190.7170  175.6470  144.0300 C   0  0  0  0  0  2  0  0  0  0  0  0
  190.6450  176.3080  142.6810 C   0  0  1  0  0  3  0  0  0  0  0  0
  191.6470  177.7180  144.3350 N   0  0  0  0  0  2  0  0  0  0  0  0
  191.7860  176.1740  146.0380 C   0  0  0  0  0  2  0  0  0  0  0  0
  189.8760  177.0290  147.3880 C   0  0  0  0  0  1  0  0  0  0  0  0
  191.3570  176.6950  147.3990 C   0  0  0  0  0  2  0  0  0  0  0  0
  1  6  1  0  0  0  0
  1  8  1  0  0  0  0
  2 12  1  0  0  0  0
  3 10  2  0  0  0  0
  3 14  1  0  0  0  0
  4  8  2  0  0  0  0
  4 15  1  0  0  0  0
  5  1  2  0  0  0  0
  7  4  1  0  0  0  0
  9  5  1  0  0  0  0
  9  7  2  0  0  0  0
 10 11  1  0  0  0  0
 11  7  1  0  0  0  0
 11  2  2  0  0  0  0
 12 15  2  0  0  0  0
 13 35  1  6  0  0  0
 13  2  1  0  0  0  0
 14 13  1  0  0  0  0
 16  3  1  0  0  0  0
 17 16  1  0  0  0  0
 18 16  2  0  0  0  0
 19 17  1  0  0  0  0
 20 19  2  0  0  0  0
 21 19  1  6  0  0  0
 22 21  1  0  0  0  0
 23 25  1  0  0  0  0
 23 26  1  0  0  0  0
 24 26  1  0  0  0  0
 24 21  1  0  0  0  0
 25 22  1  0  0  0  0
 25 27  1  1  0  0  0
 28 27  1  0  0  0  0
 28 29  1  0  0  0  0
 29 34  1  0  0  0  0
 30 34  1  0  0  0  0
 31 32  1  0  0  0  0
 32 30  1  0  0  0  0
 33 31  1  0  0  0  0
 33 29  1  0  0  0  0
 36 41  1  0  0  0  0
 37 40  1  0  0  0  0
 38 36  1  0  0  0  0
 39 35  1  1  0  0  0
 39 37  1  0  0  0  0
 39 38  1  0  0  0  0
 40 36  1  0  0  0  0
 41 43  1  0  0  0  0
 42 43  1  0  0  0  0
M  END
>  <MODEL>
4

>  <REMARK>
 VINA RESULT:      -8.2      3.850      7.941
  Name = 
  10 active torsions:
  status: ('A' for Active; 'I' for Inactive)
    1  A    between atoms: O_1  and  C_34
    2  A    between atoms: O_1  and  C_35
    3  A    between atoms: C_2  and  C_13
    4  A    between atoms: C_3  and  C_12
    5  A    between atoms: N_6  and  C_12
    6  A    between atoms: C_9  and  N_19
    7  A    between atoms: C_9  and  C_37
    8  A    between atoms: N_11  and  C_14
    9  A    between atoms: C_14  and  C_41
   10  A    between atoms: C_22  and  C_41
                            x       y       z     vdW  Elec       q    Type
                         _______ _______ _______ _____ _____    ______ ____

>  <TORSDO>
F 10

$$$$
=
 OpenBabel11052416203D

 43 48  0  0  1  0  0  0  0  0999 V2000
  189.4600  177.2290  146.7520 C   0  0  0  0  0  0  0  0  0  0  0  0
  190.3830  177.5580  141.7940 C   0  0  0  0  0  0  0  0  0  0  0  0
  187.8860  178.2770  140.5840 C   0  0  0  0  0  0  0  0  0  0  0  0
  190.5270  177.2620  144.5750 C   0  0  0  0  0  0  0  0  0  0  0  0
  188.2220  177.4750  146.1520 C   0  0  0  0  0  3  0  0  0  0  0  0
  189.5500  177.1050  148.0930 F   0  0  0  0  0  0  0  0  0  0  0  0
  189.2760  177.5170  143.9630 C   0  0  0  0  0  0  0  0  0  0  0  0
  190.6110  177.1240  145.9640 C   0  0  0  0  0  3  0  0  0  0  0  0
  188.1290  177.6190  144.7660 C   0  0  0  0  0  3  0  0  0  0  0  0
  187.9250  177.9280  141.8760 C   0  0  0  0  0  3  0  0  0  0  0  0
  189.2080  177.6700  142.5650 C   0  0  0  0  0  0  0  0  0  0  0  0
  191.6070  177.2920  142.4130 C   0  0  0  0  0  3  0  0  0  0  0  0
  190.3080  177.6200  140.2910 C   0  0  2  0  0  3  0  0  0  0  0  0
  189.1710  178.5450  139.8360 C   0  0  0  0  0  2  0  0  0  0  0  0
  191.6810  177.1510  143.7970 C   0  0  0  0  0  3  0  0  0  0  0  0
  186.5920  178.4730  139.9110 C   0  0  0  0  0  0  0  0  0  0  0  0
  185.4770  178.9980  140.6490 N   0  0  0  0  0  2  0  0  0  0  0  0
  186.4760  178.1860  138.6890 O   0  0  0  0  0  0  0  0  0  0  0  0
  184.0990  179.0200  140.2480 C   0  0  0  0  0  0  0  0  0  0  0  0
  183.6420  179.3960  138.7180 S   0  0  0  0  0  0  0  0  0  0  0  0
  183.0400  178.6550  141.2340 C   0  0  2  0  0  3  0  0  0  0  0  0
  181.7310  179.3620  140.8820 C   0  0  0  0  0  2  0  0  0  0  0  0
  181.1730  179.0190  143.3470 C   0  0  0  0  0  2  0  0  0  0  0  0
  183.4380  179.0030  142.5360 O   0  0  0  0  0  0  0  0  0  0  0  0
  180.6420  179.0210  141.9090 C   0  0  2  0  0  3  0  0  0  0  0  0
  182.5490  178.3550  143.4110 C   0  0  0  0  0  2  0  0  0  0  0  0
  179.8640  177.7500  141.5570 C   0  0  0  0  0  2  0  0  0  0  0  0
  179.5110  177.6520  140.0790 C   0  0  0  0  0  2  0  0  0  0  0  0
  179.1610  176.2820  139.7450 N   0  0  0  0  0  0  0  0  0  0  0  0
  180.0560  174.3060  138.5520 C   0  0  0  0  0  2  0  0  0  0  0  0
  179.2920  173.9800  140.6520 C   0  0  0  0  0  2  0  0  0  0  0  0
  178.9940  173.7520  139.2950 O   0  0  0  0  0  0  0  0  0  0  0  0
  179.3060  175.4870  140.9690 C   0  0  0  0  0  2  0  0  0  0  0  0
  180.1340  175.8320  138.7460 C   0  0  0  0  0  2  0  0  0  0  0  0
  190.0990  176.3350  139.7750 O   0  0  0  0  0  0  0  0  0  0  0  0
  191.2880  174.3040  137.7150 N   0  0  0  0  0  0  0  0  0  0  0  0
  191.9840  176.4100  138.3490 C   0  0  0  0  0  2  0  0  0  0  0  0
  190.0980  175.1370  137.7310 C   0  0  0  0  0  2  0  0  0  0  0  0
  190.4800  176.4110  138.4330 C   0  0  1  0  0  3  0  0  0  0  0  0
  192.3870  175.1810  137.6750 N   0  0  0  0  0  2  0  0  0  0  0  0
  191.2760  173.5720  136.4590 C   0  0  0  0  0  2  0  0  0  0  0  0
  193.1810  172.0110  136.0920 C   0  0  0  0  0  1  0  0  0  0  0  0
  192.6880  173.4360  135.9160 C   0  0  0  0  0  2  0  0  0  0  0  0
  1  6  1  0  0  0  0
  2 12  2  0  0  0  0
  2 11  1  0  0  0  0
  3 10  2  0  0  0  0
  4  8  1  0  0  0  0
  5  1  1  0  0  0  0
  7  4  1  0  0  0  0
  7  9  1  0  0  0  0
  8  1  2  0  0  0  0
  9  5  2  0  0  0  0
 10 11  1  0  0  0  0
 11  7  2  0  0  0  0
 12 15  1  0  0  0  0
 13 35  1  6  0  0  0
 13  2  1  0  0  0  0
 14 13  1  0  0  0  0
 14  3  1  0  0  0  0
 15  4  2  0  0  0  0
 16  3  1  0  0  0  0
 16 17  1  0  0  0  0
 18 16  2  0  0  0  0
 19 17  1  0  0  0  0
 20 19  2  0  0  0  0
 21 19  1  6  0  0  0
 21 24  1  0  0  0  0
 22 21  1  0  0  0  0
 22 25  1  0  0  0  0
 23 26  1  0  0  0  0
 24 26  1  0  0  0  0
 25 27  1  6  0  0  0
 25 23  1  0  0  0  0
 28 27  1  0  0  0  0
 29 28  1  0  0  0  0
 29 33  1  0  0  0  0
 30 34  1  0  0  0  0
 30 32  1  0  0  0  0
 31 33  1  0  0  0  0
 32 31  1  0  0  0  0
 34 29  1  0  0  0  0
 36 38  1  0  0  0  0
 37 39  1  0  0  0  0
 38 39  1  0  0  0  0
 39 35  1  1  0  0  0
 40 36  1  0  0  0  0
 40 37  1  0  0  0  0
 41 36  1  0  0  0  0
 43 42  1  0  0  0  0
 43 41  1  0  0  0  0
M  END
>  <MODEL>
5

>  <REMARK>
 VINA RESULT:      -8.1      3.265      9.564
  Name = 
  10 active torsions:
  status: ('A' for Active; 'I' for Inactive)
    1  A    between atoms: O_1  and  C_34
    2  A    between atoms: O_1  and  C_35
    3  A    between atoms: C_2  and  C_13
    4  A    between atoms: C_3  and  C_12
    5  A    between atoms: N_6  and  C_12
    6  A    between atoms: C_9  and  N_19
    7  A    between atoms: C_9  and  C_37
    8  A    between atoms: N_11  and  C_14
    9  A    between atoms: C_14  and  C_41
   10  A    between atoms: C_22  and  C_41
                            x       y       z     vdW  Elec       q    Type
                         _______ _______ _______ _____ _____    ______ ____

>  <TORSDO>
F 10

$$$$
=
 OpenBabel11052416203D

 43 48  0  0  1  0  0  0  0  0999 V2000
  184.2100  178.6140  145.3470 C   0  0  0  0  0  0  0  0  0  0  0  0
  182.6000  178.9900  140.5720 C   0  0  0  0  0  0  0  0  0  0  0  0
  184.8830  178.4280  138.9340 C   0  0  0  0  0  0  0  0  0  0  0  0
  182.8510  178.8940  143.3590 C   0  0  0  0  0  0  0  0  0  0  0  0
  185.3460  178.4440  144.5500 C   0  0  0  0  0  3  0  0  0  0  0  0
  184.3110  178.5490  146.6920 F   0  0  0  0  0  0  0  0  0  0  0  0
  183.9980  178.7180  142.5470 C   0  0  0  0  0  0  0  0  0  0  0  0
  182.9650  178.8370  144.7510 C   0  0  0  0  0  3  0  0  0  0  0  0
  185.2420  178.4950  143.1580 C   0  0  0  0  0  3  0  0  0  0  0  0
  185.0340  178.5930  140.2540 C   0  0  0  0  0  3  0  0  0  0  0  0
  183.8670  178.7610  141.1460 C   0  0  0  0  0  0  0  0  0  0  0  0
  181.4810  179.1770  141.3880 C   0  0  0  0  0  3  0  0  0  0  0  0
  182.4640  179.1390  139.0790 C   0  0  2  0  0  3  0  0  0  0  0  0
  183.5000  178.2770  138.3450 C   0  0  0  0  0  2  0  0  0  0  0  0
  181.6040  179.1230  142.7750 C   0  0  0  0  0  3  0  0  0  0  0  0
  186.0660  178.3170  138.0640 C   0  0  0  0  0  0  0  0  0  0  0  0
  186.7560  177.0630  137.9560 N   0  0  0  0  0  2  0  0  0  0  0  0
  186.4580  179.3250  137.4160 O   0  0  0  0  0  0  0  0  0  0  0  0
  188.0470  176.8250  137.3750 C   0  0  0  0  0  0  0  0  0  0  0  0
  188.2870  176.8280  135.7530 S   0  0  0  0  0  0  0  0  0  0  0  0
  189.2240  176.6020  138.2650 C   0  0  2  0  0  3  0  0  0  0  0  0
  189.2440  177.6500  139.3780 C   0  0  0  0  0  2  0  0  0  0  0  0
  191.7380  177.1260  139.4850 C   0  0  0  0  0  2  0  0  0  0  0  0
  190.4190  176.6620  137.5280 O   0  0  0  0  0  0  0  0  0  0  0  0
  190.4690  177.4530  140.2810 C   0  0  2  0  0  3  0  0  0  0  0  0
  191.4270  176.1410  138.3580 C   0  0  0  0  0  2  0  0  0  0  0  0
  190.2150  176.4720  141.4300 C   0  0  0  0  0  2  0  0  0  0  0  0
  189.2890  177.0310  142.5020 C   0  0  0  0  0  2  0  0  0  0  0  0
  189.7690  176.6460  143.8180 N   0  0  0  0  0  0  0  0  0  0  0  0
  191.5460  177.1960  145.4520 C   0  0  0  0  0  2  0  0  0  0  0  0
  189.4230  177.1400  146.2210 C   0  0  0  0  0  2  0  0  0  0  0  0
  190.6450  176.4410  146.2310 O   0  0  0  0  0  0  0  0  0  0  0  0
  188.8310  177.1960  144.8010 C   0  0  0  0  0  2  0  0  0  0  0  0
  191.0830  177.2730  143.9850 C   0  0  0  0  0  2  0  0  0  0  0  0
  182.6340  180.4820  138.7210 O   0  0  0  0  0  0  0  0  0  0  0  0
  180.4830  180.7500  136.4670 N   0  0  0  0  0  0  0  0  0  0  0  0
  181.3850  182.3150  137.9020 C   0  0  0  0  0  2  0  0  0  0  0  0
  180.4850  180.1390  137.7840 C   0  0  0  0  0  2  0  0  0  0  0  0
  181.3430  181.0130  138.6570 C   0  0  1  0  0  3  0  0  0  0  0  0
  180.6240  182.1360  136.6710 N   0  0  0  0  0  2  0  0  0  0  0  0
  179.1610  180.5330  135.9010 C   0  0  0  0  0  2  0  0  0  0  0  0
  180.3740  178.7100  134.7150 C   0  0  0  0  0  1  0  0  0  0  0  0
  179.2660  179.7420  134.6080 C   0  0  0  0  0  2  0  0  0  0  0  0
  1  6  1  0  0  0  0
  2 11  2  0  0  0  0
  2 12  1  0  0  0  0
  3 10  2  0  0  0  0
  4  8  2  0  0  0  0
  5  1  2  0  0  0  0
  7  9  2  0  0  0  0
  7  4  1  0  0  0  0
  8  1  1  0  0  0  0
  9  5  1  0  0  0  0
 10 11  1  0  0  0  0
 11  7  1  0  0  0  0
 12 15  2  0  0  0  0
 13 35  1  1  0  0  0
 13  2  1  0  0  0  0
 14  3  1  0  0  0  0
 14 13  1  0  0  0  0
 15  4  1  0  0  0  0
 16  3  1  0  0  0  0
 17 16  1  0  0  0  0
 18 16  2  0  0  0  0
 19 17  1  0  0  0  0
 20 19  2  0  0  0  0
 21 19  1  6  0  0  0
 21 22  1  0  0  0  0
 22 25  1  0  0  0  0
 23 25  1  0  0  0  0
 24 21  1  0  0  0  0
 24 26  1  0  0  0  0
 25 27  1  1  0  0  0
 26 23  1  0  0  0  0
 27 28  1  0  0  0  0
 28 29  1  0  0  0  0
 29 34  1  0  0  0  0
 29 33  1  0  0  0  0
 30 32  1  0  0  0  0
 31 32  1  0  0  0  0
 33 31  1  0  0  0  0
 34 30  1  0  0  0  0
 36 40  1  0  0  0  0
 36 38  1  0  0  0  0
 37 39  1  0  0  0  0
 38 39  1  0  0  0  0
 39 35  1  6  0  0  0
 40 37  1  0  0  0  0
 41 36  1  0  0  0  0
 43 42  1  0  0  0  0
 43 41  1  0  0  0  0
M  END
>  <MODEL>
6

>  <REMARK>
 VINA RESULT:      -8.1      1.307      1.950
  Name = 
  10 active torsions:
  status: ('A' for Active; 'I' for Inactive)
    1  A    between atoms: O_1  and  C_34
    2  A    between atoms: O_1  and  C_35
    3  A    between atoms: C_2  and  C_13
    4  A    between atoms: C_3  and  C_12
    5  A    between atoms: N_6  and  C_12
    6  A    between atoms: C_9  and  N_19
    7  A    between atoms: C_9  and  C_37
    8  A    between atoms: N_11  and  C_14
    9  A    between atoms: C_14  and  C_41
   10  A    between atoms: C_22  and  C_41
                            x       y       z     vdW  Elec       q    Type
                         _______ _______ _______ _____ _____    ______ ____

>  <TORSDO>
F 10

$$$$
=
 OpenBabel11052416203D

 43 48  0  0  1  0  0  0  0  0999 V2000
  188.1790  177.2250  147.3280 C   0  0  0  0  0  0  0  0  0  0  0  0
  188.9520  178.0190  142.3980 C   0  0  0  0  0  0  0  0  0  0  0  0
  186.3910  178.7030  141.3090 C   0  0  0  0  0  0  0  0  0  0  0  0
  189.1850  177.4980  145.1390 C   0  0  0  0  0  0  0  0  0  0  0  0
  186.9140  177.4550  146.7790 C   0  0  0  0  0  3  0  0  0  0  0  0
  188.3100  176.9940  148.6530 F   0  0  0  0  0  0  0  0  0  0  0  0
  187.9060  177.7370  144.5790 C   0  0  0  0  0  0  0  0  0  0  0  0
  189.3120  177.2480  146.5090 C   0  0  0  0  0  3  0  0  0  0  0  0
  186.7770  177.7100  145.4130 C   0  0  0  0  0  3  0  0  0  0  0  0
  186.4820  178.2490  142.5660 C   0  0  0  0  0  3  0  0  0  0  0  0
  187.7940  178.0030  143.2020 C   0  0  0  0  0  0  0  0  0  0  0  0
  190.2040  177.7670  142.9650 C   0  0  0  0  0  3  0  0  0  0  0  0
  188.8340  178.2030  140.9080 C   0  0  2  0  0  3  0  0  0  0  0  0
  187.6400  179.1020  140.5580 C   0  0  0  0  0  2  0  0  0  0  0  0
  190.3210  177.5140  144.3300 C   0  0  0  0  0  3  0  0  0  0  0  0
  185.0710  178.8870  140.6840 C   0  0  0  0  0  0  0  0  0  0  0  0
  183.9590  178.0910  141.1200 N   0  0  0  0  0  2  0  0  0  0  0  0
  184.9280  179.7480  139.7750 O   0  0  0  0  0  0  0  0  0  0  0  0
  182.6850  177.9440  140.4750 C   0  0  0  0  0  0  0  0  0  0  0  0
  181.3480  178.7390  140.9940 S   0  0  0  0  0  0  0  0  0  0  0  0
  182.5670  177.0720  139.2690 C   0  0  2  0  0  3  0  0  0  0  0  0
  182.5860  177.9270  138.0010 C   0  0  0  0  0  2  0  0  0  0  0  0
  181.3850  175.9410  136.9450 C   0  0  0  0  0  2  0  0  0  0  0  0
  181.3840  176.3160  139.3210 O   0  0  0  0  0  0  0  0  0  0  0  0
  182.4320  177.0440  136.7560 C   0  0  2  0  0  3  0  0  0  0  0  0
  181.5040  175.3190  138.3370 C   0  0  0  0  0  2  0  0  0  0  0  0
  183.7680  176.5160  136.2260 C   0  0  0  0  0  2  0  0  0  0  0  0
  184.9110  176.6730  137.2200 C   0  0  0  0  0  2  0  0  0  0  0  0
  185.7270  175.4700  137.2260 N   0  0  0  0  0  0  0  0  0  0  0  0
  185.5150  173.0050  137.3210 C   0  0  0  0  0  2  0  0  0  0  0  0
  186.8100  173.8630  135.6810 C   0  0  0  0  0  2  0  0  0  0  0  0
  186.8520  173.1760  136.9090 O   0  0  0  0  0  0  0  0  0  0  0  0
  186.2250  175.2770  135.8610 C   0  0  0  0  0  2  0  0  0  0  0  0
  184.8380  174.3620  137.5890 C   0  0  0  0  0  2  0  0  0  0  0  0
  188.6780  176.9570  140.2890 O   0  0  0  0  0  0  0  0  0  0  0  0
  190.8590  175.5020  138.5820 N   0  0  0  0  0  0  0  0  0  0  0  0
  190.5550  177.7340  139.0790 C   0  0  0  0  0  2  0  0  0  0  0  0
  189.4460  175.7730  138.3850 C   0  0  0  0  0  2  0  0  0  0  0  0
  189.1820  177.1220  138.9960 C   0  0  1  0  0  3  0  0  0  0  0  0
  191.5080  176.7510  138.5780 N   0  0  0  0  0  2  0  0  0  0  0  0
  191.3190  174.7750  137.4110 C   0  0  0  0  0  2  0  0  0  0  0  0
  190.5430  173.3070  135.5560 C   0  0  0  0  0  1  0  0  0  0  0  0
  190.2800  173.7530  136.9830 C   0  0  0  0  0  2  0  0  0  0  0  0
  1  6  1  0  0  0  0
  2 12  2  0  0  0  0
  2 11  1  0  0  0  0
  3 10  2  0  0  0  0
  4  8  1  0  0  0  0
  5  1  1  0  0  0  0
  7  4  1  0  0  0  0
  7  9  1  0  0  0  0
  8  1  2  0  0  0  0
  9  5  2  0  0  0  0
 10 11  1  0  0  0  0
 11  7  2  0  0  0  0
 12 15  1  0  0  0  0
 13 35  1  6  0  0  0
 13  2  1  0  0  0  0
 14 13  1  0  0  0  0
 14  3  1  0  0  0  0
 15  4  2  0  0  0  0
 16 17  1  0  0  0  0
 16  3  1  0  0  0  0
 18 16  2  0  0  0  0
 19 20  2  0  0  0  0
 19 17  1  0  0  0  0
 21 24  1  0  0  0  0
 21 19  1  1  0  0  0
 22 21  1  0  0  0  0
 23 26  1  0  0  0  0
 25 27  1  1  0  0  0
 25 23  1  0  0  0  0
 25 22  1  0  0  0  0
 26 24  1  0  0  0  0
 27 28  1  0  0  0  0
 28 29  1  0  0  0  0
 29 34  1  0  0  0  0
 30 34  1  0  0  0  0
 31 33  1  0  0  0  0
 31 32  1  0  0  0  0
 32 30  1  0  0  0  0
 33 29  1  0  0  0  0
 38 36  1  0  0  0  0
 38 39  1  0  0  0  0
 39 37  1  0  0  0  0
 39 35  1  1  0  0  0
 40 36  1  0  0  0  0
 40 37  1  0  0  0  0
 41 36  1  0  0  0  0
 42 43  1  0  0  0  0
 43 41  1  0  0  0  0
M  END
>  <MODEL>
7

>  <REMARK>
 VINA RESULT:      -8.1      3.406      8.104
  Name = 
  10 active torsions:
  status: ('A' for Active; 'I' for Inactive)
    1  A    between atoms: O_1  and  C_34
    2  A    between atoms: O_1  and  C_35
    3  A    between atoms: C_2  and  C_13
    4  A    between atoms: C_3  and  C_12
    5  A    between atoms: N_6  and  C_12
    6  A    between atoms: C_9  and  N_19
    7  A    between atoms: C_9  and  C_37
    8  A    between atoms: N_11  and  C_14
    9  A    between atoms: C_14  and  C_41
   10  A    between atoms: C_22  and  C_41
                            x       y       z     vdW  Elec       q    Type
                         _______ _______ _______ _____ _____    ______ ____

>  <TORSDO>
F 10

$$$$
=
 OpenBabel11052416203D

 43 48  0  0  1  0  0  0  0  0999 V2000
  188.6360  177.4230  145.6960 C   0  0  0  0  0  0  0  0  0  0  0  0
  190.6320  177.4300  141.0530 C   0  0  0  0  0  0  0  0  0  0  0  0
  188.4330  177.8390  139.2620 C   0  0  0  0  0  0  0  0  0  0  0  0
  190.1620  177.3700  143.8130 C   0  0  0  0  0  0  0  0  0  0  0  0
  187.5520  177.5170  144.8180 C   0  0  0  0  0  3  0  0  0  0  0  0
  188.4280  177.4150  147.0300 F   0  0  0  0  0  0  0  0  0  0  0  0
  189.0680  177.4700  142.9200 C   0  0  0  0  0  0  0  0  0  0  0  0
  189.9380  177.3510  145.1930 C   0  0  0  0  0  3  0  0  0  0  0  0
  187.7660  177.5410  143.4380 C   0  0  0  0  0  3  0  0  0  0  0  0
  188.2000  177.5990  140.5580 C   0  0  0  0  0  3  0  0  0  0  0  0
  189.3080  177.5050  141.5340 C   0  0  0  0  0  0  0  0  0  0  0  0
  191.6990  177.3170  141.9480 C   0  0  0  0  0  3  0  0  0  0  0  0
  190.8940  177.3650  139.5720 C   0  0  2  0  0  3  0  0  0  0  0  0
  189.8340  178.1530  138.7910 C   0  0  0  0  0  2  0  0  0  0  0  0
  191.4660  177.2930  143.3220 C   0  0  0  0  0  3  0  0  0  0  0  0
  187.3150  177.8730  138.3050 C   0  0  0  0  0  0  0  0  0  0  0  0
  187.0650  176.7400  137.4600 N   0  0  0  0  0  2  0  0  0  0  0  0
  186.5800  178.8960  138.2420 O   0  0  0  0  0  0  0  0  0  0  0  0
  186.2050  176.6800  136.3120 C   0  0  0  0  0  0  0  0  0  0  0  0
  186.7900  176.4890  134.7920 S   0  0  0  0  0  0  0  0  0  0  0  0
  184.7260  176.7550  136.4970 C   0  0  2  0  0  3  0  0  0  0  0  0
  184.2790  175.7480  137.5570 C   0  0  0  0  0  2  0  0  0  0  0  0
  182.0140  175.9080  136.3970 C   0  0  0  0  0  2  0  0  0  0  0  0
  184.0630  176.5010  135.2850 O   0  0  0  0  0  0  0  0  0  0  0  0
  182.7550  175.7920  137.7330 C   0  0  2  0  0  3  0  0  0  0  0  0
  182.7260  176.8940  135.4700 C   0  0  0  0  0  2  0  0  0  0  0  0
  182.3010  176.8320  138.7610 C   0  0  0  0  0  2  0  0  0  0  0  0
  183.4380  177.7060  139.2740 C   0  0  0  0  0  2  0  0  0  0  0  0
  183.3740  177.7970  140.7230 N   0  0  0  0  0  0  0  0  0  0  0  0
  184.4160  178.9990  142.6200 C   0  0  0  0  0  2  0  0  0  0  0  0
  182.1590  178.9780  142.5310 C   0  0  0  0  0  2  0  0  0  0  0  0
  183.2670  178.4400  143.2140 O   0  0  0  0  0  0  0  0  0  0  0  0
  182.1500  178.5310  141.0580 C   0  0  0  0  0  2  0  0  0  0  0  0
  184.5450  178.5710  141.1470 C   0  0  0  0  0  2  0  0  0  0  0  0
  190.8890  176.0290  139.1500 O   0  0  0  0  0  0  0  0  0  0  0  0
  193.3570  174.5050  137.9780 N   0  0  0  0  0  0  0  0  0  0  0  0
  192.8580  176.7560  138.0610 C   0  0  0  0  0  2  0  0  0  0  0  0
  191.9680  174.6290  137.5710 C   0  0  0  0  0  2  0  0  0  0  0  0
  191.5470  176.0310  137.9160 C   0  0  1  0  0  3  0  0  0  0  0  0
  193.9250  175.7860  137.8450 N   0  0  0  0  0  2  0  0  0  0  0  0
  194.0080  173.6440  137.0050 C   0  0  0  0  0  2  0  0  0  0  0  0
  196.2620  172.9720  137.8230 C   0  0  0  0  0  1  0  0  0  0  0  0
  194.8050  172.5600  137.7110 C   0  0  0  0  0  2  0  0  0  0  0  0
  1  6  1  0  0  0  0
  2 11  2  0  0  0  0
  2 12  1  0  0  0  0
  3 10  2  0  0  0  0
  4  8  2  0  0  0  0
  5  1  2  0  0  0  0
  7  9  2  0  0  0  0
  7  4  1  0  0  0  0
  8  1  1  0  0  0  0
  9  5  1  0  0  0  0
 10 11  1  0  0  0  0
 11  7  1  0  0  0  0
 12 15  2  0  0  0  0
 13 35  1  6  0  0  0
 13  2  1  0  0  0  0
 14  3  1  0  0  0  0
 14 13  1  0  0  0  0
 15  4  1  0  0  0  0
 16  3  1  0  0  0  0
 17 16  1  0  0  0  0
 18 16  2  0  0  0  0
 19 17  1  0  0  0  0
 20 19  2  0  0  0  0
 21 19  1  6  0  0  0
 21 22  1  0  0  0  0
 22 25  1  0  0  0  0
 23 25  1  0  0  0  0
 24 26  1  0  0  0  0
 24 21  1  0  0  0  0
 25 27  1  1  0  0  0
 26 23  1  0  0  0  0
 27 28  1  0  0  0  0
 28 29  1  0  0  0  0
 29 33  1  0  0  0  0
 29 34  1  0  0  0  0
 30 32  1  0  0  0  0
 31 32  1  0  0  0  0
 33 31  1  0  0  0  0
 34 30  1  0  0  0  0
 38 39  1  0  0  0  0
 38 36  1  0  0  0  0
 39 37  1  0  0  0  0
 39 35  1  1  0  0  0
 40 36  1  0  0  0  0
 40 37  1  0  0  0  0
 41 43  1  0  0  0  0
 41 36  1  0  0  0  0
 43 42  1  0  0  0  0
M  END
>  <MODEL>
8

>  <REMARK>
 VINA RESULT:      -8.0      3.208      8.811
  Name = 
  10 active torsions:
  status: ('A' for Active; 'I' for Inactive)
    1  A    between atoms: O_1  and  C_34
    2  A    between atoms: O_1  and  C_35
    3  A    between atoms: C_2  and  C_13
    4  A    between atoms: C_3  and  C_12
    5  A    between atoms: N_6  and  C_12
    6  A    between atoms: C_9  and  N_19
    7  A    between atoms: C_9  and  C_37
    8  A    between atoms: N_11  and  C_14
    9  A    between atoms: C_14  and  C_41
   10  A    between atoms: C_22  and  C_41
                            x       y       z     vdW  Elec       q    Type
                         _______ _______ _______ _____ _____    ______ ____

>  <TORSDO>
F 10

$$$$
=
 OpenBabel11052416203D

 43 48  0  0  1  0  0  0  0  0999 V2000
  180.8530  172.1010  136.8360 C   0  0  0  0  0  0  0  0  0  0  0  0
  181.8030  176.4790  139.1740 C   0  0  0  0  0  0  0  0  0  0  0  0
  184.2640  177.4360  138.0610 C   0  0  0  0  0  0  0  0  0  0  0  0
  180.7160  174.0740  138.2370 C   0  0  0  0  0  0  0  0  0  0  0  0
  182.1050  172.5140  136.3700 C   0  0  0  0  0  3  0  0  0  0  0  0
  180.3050  170.9540  136.3780 F   0  0  0  0  0  0  0  0  0  0  0  0
  181.9810  174.5000  137.7650 C   0  0  0  0  0  0  0  0  0  0  0  0
  180.1600  172.8810  137.7670 C   0  0  0  0  0  3  0  0  0  0  0  0
  182.6660  173.7070  136.8310 C   0  0  0  0  0  3  0  0  0  0  0  0
  183.8430  176.1970  137.7800 C   0  0  0  0  0  3  0  0  0  0  0  0
  182.5220  175.7120  138.2340 C   0  0  0  0  0  0  0  0  0  0  0  0
  180.5630  176.0360  139.6410 C   0  0  0  0  0  3  0  0  0  0  0  0
  182.4160  177.7250  139.7580 C   0  0  2  0  0  3  0  0  0  0  0  0
  183.3340  178.4140  138.7400 C   0  0  0  0  0  2  0  0  0  0  0  0
  180.0180  174.8430  139.1700 C   0  0  0  0  0  3  0  0  0  0  0  0
  185.6060  177.8730  137.6430 C   0  0  0  0  0  0  0  0  0  0  0  0
  186.4090  177.0160  136.8170 N   0  0  0  0  0  2  0  0  0  0  0  0
  186.0360  179.0000  138.0090 O   0  0  0  0  0  0  0  0  0  0  0  0
  187.8090  177.1480  136.5230 C   0  0  0  0  0  0  0  0  0  0  0  0
  188.3470  177.7420  135.0920 S   0  0  0  0  0  0  0  0  0  0  0  0
  188.8160  176.7710  137.5580 C   0  0  2  0  0  3  0  0  0  0  0  0
  189.1930  177.9970  138.3910 C   0  0  0  0  0  2  0  0  0  0  0  0
  191.3330  176.6970  138.8760 C   0  0  0  0  0  2  0  0  0  0  0  0
  189.9640  176.2290  136.9550 O   0  0  0  0  0  0  0  0  0  0  0  0
  190.2540  177.6300  139.4380 C   0  0  2  0  0  3  0  0  0  0  0  0
  190.7070  175.6250  137.9840 C   0  0  0  0  0  2  0  0  0  0  0  0
  189.6500  177.1230  140.7510 C   0  0  0  0  0  2  0  0  0  0  0  0
  188.4900  177.9770  141.2460 C   0  0  0  0  0  2  0  0  0  0  0  0
  188.5640  178.1170  142.6910 N   0  0  0  0  0  0  0  0  0  0  0  0
  188.3370  176.7850  144.7650 C   0  0  0  0  0  2  0  0  0  0  0  0
  190.1930  178.0540  144.5570 C   0  0  0  0  0  2  0  0  0  0  0  0
  188.9610  177.9600  145.2300 O   0  0  0  0  0  0  0  0  0  0  0  0
  189.9820  178.2430  143.0430 C   0  0  0  0  0  2  0  0  0  0  0  0
  188.0210  176.8810  143.2610 C   0  0  0  0  0  2  0  0  0  0  0  0
  183.1510  177.3960  140.9040 O   0  0  0  0  0  0  0  0  0  0  0  0
  184.2170  178.2580  143.7160 N   0  0  0  0  0  0  0  0  0  0  0  0
  182.4050  178.9860  142.4880 C   0  0  0  0  0  2  0  0  0  0  0  0
  184.6970  178.4510  142.3590 C   0  0  0  0  0  2  0  0  0  0  0  0
  183.4770  178.6200  141.4960 C   0  0  1  0  0  3  0  0  0  0  0  0
  183.0080  178.9730  143.8150 N   0  0  0  0  0  2  0  0  0  0  0  0
  185.1720  178.9060  144.5990 C   0  0  0  0  0  2  0  0  0  0  0  0
  186.0420  179.0000  146.9300 C   0  0  0  0  0  1  0  0  0  0  0  0
  184.9200  178.4970  146.0400 C   0  0  0  0  0  2  0  0  0  0  0  0
  1  8  1  0  0  0  0
  2 12  1  0  0  0  0
  2 13  1  0  0  0  0
  3 14  1  0  0  0  0
  4 15  1  0  0  0  0
  5  9  1  0  0  0  0
  5  1  2  0  0  0  0
  6  1  1  0  0  0  0
  7 11  1  0  0  0  0
  7  4  1  0  0  0  0
  8  4  2  0  0  0  0
  9  7  2  0  0  0  0
 10  3  2  0  0  0  0
 10 11  1  0  0  0  0
 11  2  2  0  0  0  0
 13 35  1  1  0  0  0
 14 13  1  0  0  0  0
 15 12  2  0  0  0  0
 16 18  2  0  0  0  0
 16  3  1  0  0  0  0
 17 16  1  0  0  0  0
 19 17  1  0  0  0  0
 20 19  2  0  0  0  0
 21 19  1  6  0  0  0
 21 22  1  0  0  0  0
 22 25  1  0  0  0  0
 23 25  1  0  0  0  0
 24 21  1  0  0  0  0
 24 26  1  0  0  0  0
 25 27  1  1  0  0  0
 26 23  1  0  0  0  0
 27 28  1  0  0  0  0
 28 29  1  0  0  0  0
 29 33  1  0  0  0  0
 29 34  1  0  0  0  0
 30 32  1  0  0  0  0
 31 32  1  0  0  0  0
 33 31  1  0  0  0  0
 34 30  1  0  0  0  0
 36 40  1  0  0  0  0
 36 41  1  0  0  0  0
 37 40  1  0  0  0  0
 38 36  1  0  0  0  0
 39 35  1  1  0  0  0
 39 38  1  0  0  0  0
 39 37  1  0  0  0  0
 41 43  1  0  0  0  0
 43 42  1  0  0  0  0
M  END
>  <MODEL>
9

>  <REMARK>
 VINA RESULT:      -8.0      3.467      5.825
  Name = 
  10 active torsions:
  status: ('A' for Active; 'I' for Inactive)
    1  A    between atoms: O_1  and  C_34
    2  A    between atoms: O_1  and  C_35
    3  A    between atoms: C_2  and  C_13
    4  A    between atoms: C_3  and  C_12
    5  A    between atoms: N_6  and  C_12
    6  A    between atoms: C_9  and  N_19
    7  A    between atoms: C_9  and  C_37
    8  A    between atoms: N_11  and  C_14
    9  A    between atoms: C_14  and  C_41
   10  A    between atoms: C_22  and  C_41
                            x       y       z     vdW  Elec       q    Type
                         _______ _______ _______ _____ _____    ______ ____

>  <TORSDO>
F 10

$$$$
