=
 OpenBabel11052414293D

 32 35  0  0  1  0  0  0  0  0999 V2000
  180.6870  177.6990  138.4990 C   0  0  1  0  0  3  0  0  0  0  0  0
  181.1940  178.8070  139.4560 C   0  0  2  0  0  3  0  0  0  0  0  0
  181.2870  177.6970  137.0820 C   0  0  2  0  0  3  0  0  0  0  0  0
  181.3670  183.0790  137.5780 C   0  0  0  0  0  2  0  0  0  0  0  0
  182.3870  179.6410  138.9730 C   0  0  0  0  0  2  0  0  0  0  0  0
  180.4060  181.3560  136.0540 C   0  0  0  0  0  2  0  0  0  0  0  0
  180.7720  180.2490  137.0400 C   0  0  1  0  0  3  0  0  0  0  0  0
  182.7470  177.3790  136.9830 C   0  0  0  0  0  3  0  0  0  0  0  0
  180.5630  176.2880  139.0720 C   0  0  2  0  0  3  0  0  0  0  0  0
  180.9730  178.9490  136.2520 C   0  0  0  0  0  2  0  0  0  0  0  0
  181.8480  175.6430  139.4840 C   0  0  0  0  0  3  0  0  0  0  0  0
  179.8720  175.4570  138.1890 O   0  0  0  0  0  1  0  0  0  0  0  0
  183.4610  176.5430  137.7390 C   0  0  0  0  0  3  0  0  0  0  0  0
  181.9910  180.6660  137.9030 C   0  0  1  0  0  3  0  0  0  0  0  0
  183.0460  175.7400  138.9040 C   0  0  0  0  0  3  0  0  0  0  0  0
  180.1320  182.6620  136.7890 C   0  0  0  0  0  2  0  0  0  0  0  0
  181.7200  182.0020  138.5960 C   0  0  0  0  0  2  0  0  0  0  0  0
  179.9440  177.6130  141.2990 C   0  0  0  0  0  1  0  0  0  0  0  0
  180.8350  178.8080  140.9670 C   0  0  1  0  0  0  0  0  0  0  0  0
  183.2880  178.6520  143.9490 C   0  0  0  0  0  3  0  0  0  0  0  0
  184.5210  178.2750  141.9130 C   0  0  0  0  0  3  0  0  0  0  0  0
  182.1110  178.6740  141.8080 C   0  0  0  0  0  0  0  0  0  0  0  0
  184.5030  178.3900  143.3050 C   0  0  0  0  0  0  0  0  0  0  0  0
  183.3440  178.4150  141.1780 C   0  0  0  0  0  3  0  0  0  0  0  0
  182.1020  178.7960  143.2240 C   0  0  0  0  0  0  0  0  0  0  0  0
  180.8580  179.0800  143.9980 C   0  0  0  0  0  1  0  0  0  0  0  0
  185.7570  178.4880  145.4830 N   0  0  0  0  0  1  0  0  0  0  0  0
  186.8450  177.8760  143.4980 N   0  0  0  0  0  2  0  0  0  0  0  0
  185.7490  178.2380  144.0800 C   0  0  0  0  0  0  0  0  0  0  0  0
  180.0610  180.0980  141.3250 C   0  0  0  0  0  2  0  0  0  0  0  0
  178.9830  180.5040  140.3230 C   0  0  0  0  0  2  0  0  0  0  0  0
  178.9400  182.0110  140.1730 C   0  0  0  0  0  1  0  0  0  0  0  0
  1  9  1  0  0  0  0
  1  2  1  0  0  0  0
  2 19  1  0  0  0  0
  3  1  1  0  0  0  0
  4 17  1  0  0  0  0
  5  2  1  0  0  0  0
  6 16  1  0  0  0  0
  6  7  1  0  0  0  0
  7 14  1  0  0  0  0
  8  3  1  0  0  0  0
  8 13  2  0  0  0  0
  9 11  1  0  0  0  0
 10  7  1  0  0  0  0
 10  3  1  0  0  0  0
 12  9  1  0  0  0  0
 13 15  1  0  0  0  0
 14 17  1  0  0  0  0
 14  5  1  0  0  0  0
 15 11  2  0  0  0  0
 16  4  1  0  0  0  0
 19 18  1  0  0  0  0
 19 30  1  0  0  0  0
 19 22  1  0  0  0  0
 21 23  2  0  0  0  0
 22 25  1  0  0  0  0
 23 20  1  0  0  0  0
 23 29  1  0  0  0  0
 24 22  2  0  0  0  0
 24 21  1  0  0  0  0
 25 20  2  0  0  0  0
 25 26  1  0  0  0  0
 28 29  2  0  0  0  0
 29 27  1  0  0  0  0
 31 30  1  0  0  0  0
 32 31  1  0  0  0  0
M  END
>  <MODEL>
1

>  <REMARK>
 VINA RESULT:      -6.8      0.000      0.000
  Name = 
  5 active torsions:
  status: ('A' for Active; 'I' for Inactive)
    1  A    between atoms: C_1  and  C_4
    2  A    between atoms: C_1  and  C_27
    3  A    between atoms: C_5  and  C_27
    4  A    between atoms: C_16  and  C_27
    5  A    between atoms: C_19  and  C_26
                            x       y       z     vdW  Elec       q    Type
                         _______ _______ _______ _____ _____    ______ ____

>  <TORSDO>
F 5

$$$$
=
 OpenBabel11052414293D

 32 35  0  0  1  0  0  0  0  0999 V2000
  181.1230  178.3530  138.6820 C   0  0  1  0  0  3  0  0  0  0  0  0
  182.4830  177.7480  139.1160 C   0  0  2  0  0  3  0  0  0  0  0  0
  179.9250  177.3880  138.6640 C   0  0  2  0  0  3  0  0  0  0  0  0
  183.5150  173.6470  137.1370 C   0  0  0  0  0  2  0  0  0  0  0  0
  182.4530  176.3250  139.6870 C   0  0  0  0  0  2  0  0  0  0  0  0
  181.3940  174.6540  136.3000 C   0  0  0  0  0  2  0  0  0  0  0  0
  181.4740  175.7520  137.3570 C   0  0  1  0  0  3  0  0  0  0  0  0
  179.4820  176.8590  139.9930 C   0  0  0  0  0  3  0  0  0  0  0  0
  180.7530  179.7180  139.2600 C   0  0  2  0  0  3  0  0  0  0  0  0
  180.0490  176.2310  137.6620 C   0  0  0  0  0  2  0  0  0  0  0  0
  180.5420  179.7570  140.7400 C   0  0  0  0  0  3  0  0  0  0  0  0
  179.6400  180.2440  138.6040 O   0  0  0  0  0  1  0  0  0  0  0  0
  179.4990  177.4800  141.1740 C   0  0  0  0  0  3  0  0  0  0  0  0
  182.2610  175.2610  138.5990 C   0  0  1  0  0  3  0  0  0  0  0  0
  179.9950  178.8240  141.5220 C   0  0  0  0  0  3  0  0  0  0  0  0
  182.7890  174.1810  135.9090 C   0  0  0  0  0  2  0  0  0  0  0  0
  183.6400  174.7460  138.1840 C   0  0  0  0  0  2  0  0  0  0  0  0
  183.4230  180.0920  139.0080 C   0  0  0  0  0  1  0  0  0  0  0  0
  183.7270  178.6410  139.3780 C   0  0  1  0  0  0  0  0  0  0  0  0
  185.7070  178.5770  142.6950 C   0  0  0  0  0  3  0  0  0  0  0  0
  183.3510  178.6120  143.2010 C   0  0  0  0  0  3  0  0  0  0  0  0
  184.0840  178.6140  140.8690 C   0  0  0  0  0  0  0  0  0  0  0  0
  184.6760  178.5910  143.6430 C   0  0  0  0  0  0  0  0  0  0  0  0
  183.0610  178.6220  141.8370 C   0  0  0  0  0  3  0  0  0  0  0  0
  185.4290  178.5860  141.3260 C   0  0  0  0  0  0  0  0  0  0  0  0
  186.5940  178.5640  140.3930 C   0  0  0  0  0  1  0  0  0  0  0  0
  186.2580  178.1590  145.5490 N   0  0  0  0  0  2  0  0  0  0  0  0
  184.0910  178.9590  145.9470 N   0  0  0  0  0  1  0  0  0  0  0  0
  184.9790  178.5830  145.0870 C   0  0  0  0  0  0  0  0  0  0  0  0
  184.9130  178.1620  138.5090 C   0  0  0  0  0  2  0  0  0  0  0  0
  184.5620  177.8400  137.0580 C   0  0  0  0  0  2  0  0  0  0  0  0
  185.7100  177.1140  136.3850 C   0  0  0  0  0  1  0  0  0  0  0  0
  1  2  1  0  0  0  0
  1  9  1  0  0  0  0
  2 19  1  0  0  0  0
  2  5  1  0  0  0  0
  3  1  1  0  0  0  0
  3  8  1  0  0  0  0
  4 17  1  0  0  0  0
  6  7  1  0  0  0  0
  7 10  1  0  0  0  0
  7 14  1  0  0  0  0
  8 13  2  0  0  0  0
  9 11  1  0  0  0  0
 10  3  1  0  0  0  0
 11 15  2  0  0  0  0
 12  9  1  0  0  0  0
 13 15  1  0  0  0  0
 14  5  1  0  0  0  0
 16  6  1  0  0  0  0
 16  4  1  0  0  0  0
 17 14  1  0  0  0  0
 18 19  1  0  0  0  0
 19 22  1  0  0  0  0
 20 23  1  0  0  0  0
 21 23  2  0  0  0  0
 22 25  1  0  0  0  0
 22 24  2  0  0  0  0
 23 29  1  0  0  0  0
 24 21  1  0  0  0  0
 25 20  2  0  0  0  0
 26 25  1  0  0  0  0
 29 27  2  0  0  0  0
 29 28  1  0  0  0  0
 30 19  1  0  0  0  0
 31 30  1  0  0  0  0
 32 31  1  0  0  0  0
M  END
>  <MODEL>
2

>  <REMARK>
 VINA RESULT:      -6.2      2.057      4.944
  Name = 
  5 active torsions:
  status: ('A' for Active; 'I' for Inactive)
    1  A    between atoms: C_1  and  C_4
    2  A    between atoms: C_1  and  C_27
    3  A    between atoms: C_5  and  C_27
    4  A    between atoms: C_16  and  C_27
    5  A    between atoms: C_19  and  C_26
                            x       y       z     vdW  Elec       q    Type
                         _______ _______ _______ _____ _____    ______ ____

>  <TORSDO>
F 5

$$$$
=
 OpenBabel11052414293D

 32 35  0  0  1  0  0  0  0  0999 V2000
  181.4550  174.9000  136.0730 C   0  0  1  0  0  3  0  0  0  0  0  0
  182.6050  175.4890  136.9300 C   0  0  2  0  0  3  0  0  0  0  0  0
  181.2440  173.3800  136.1710 C   0  0  2  0  0  3  0  0  0  0  0  0
  186.6150  173.1070  136.7140 C   0  0  0  0  0  2  0  0  0  0  0  0
  183.2630  174.5430  137.9420 C   0  0  0  0  0  2  0  0  0  0  0  0
  184.8410  172.2150  135.2080 C   0  0  0  0  0  2  0  0  0  0  0  0
  183.8160  173.1680  135.8160 C   0  0  1  0  0  3  0  0  0  0  0  0
  180.7790  172.8610  137.4960 C   0  0  0  0  0  3  0  0  0  0  0  0
  180.1320  175.6650  136.0670 C   0  0  2  0  0  3  0  0  0  0  0  0
  182.4260  172.5360  135.6710 C   0  0  0  0  0  2  0  0  0  0  0  0
  179.4130  175.7240  137.3770 C   0  0  0  0  0  3  0  0  0  0  0  0
  179.2820  175.1670  135.0770 O   0  0  0  0  0  1  0  0  0  0  0  0
  179.9620  173.4510  138.3720 C   0  0  0  0  0  3  0  0  0  0  0  0
  184.2020  173.5310  137.2730 C   0  0  1  0  0  3  0  0  0  0  0  0
  179.3320  174.7820  138.3190 C   0  0  0  0  0  3  0  0  0  0  0  0
  186.2390  172.8190  135.2660 C   0  0  0  0  0  2  0  0  0  0  0  0
  185.6240  174.0910  137.3210 C   0  0  0  0  0  2  0  0  0  0  0  0
  182.2950  177.4790  138.4570 C   0  0  0  0  0  1  0  0  0  0  0  0
  182.8010  177.0220  137.0910 C   0  0  1  0  0  0  0  0  0  0  0  0
  186.4170  177.5020  135.8150 C   0  0  0  0  0  3  0  0  0  0  0  0
  186.2990  178.2480  138.1040 C   0  0  0  0  0  3  0  0  0  0  0  0
  184.2940  177.3660  137.0180 C   0  0  0  0  0  0  0  0  0  0  0  0
  187.0460  178.0480  136.9410 C   0  0  0  0  0  0  0  0  0  0  0  0
  184.9460  177.9110  138.1410 C   0  0  0  0  0  3  0  0  0  0  0  0
  185.0630  177.1600  135.8400 C   0  0  0  0  0  0  0  0  0  0  0  0
  184.4820  176.5790  134.5940 C   0  0  0  0  0  1  0  0  0  0  0  0
  189.4040  177.5930  136.1940 N   0  0  0  0  0  2  0  0  0  0  0  0
  188.9040  179.4650  137.5150 N   0  0  0  0  0  1  0  0  0  0  0  0
  188.4760  178.4080  136.9050 C   0  0  0  0  0  0  0  0  0  0  0  0
  181.9980  177.7740  136.0040 C   0  0  0  0  0  2  0  0  0  0  0  0
  181.3330  179.0660  136.4710 C   0  0  0  0  0  2  0  0  0  0  0  0
  180.7180  179.7990  135.2960 C   0  0  0  0  0  1  0  0  0  0  0  0
  1  3  1  0  0  0  0
  1  2  1  0  0  0  0
  2 19  1  0  0  0  0
  2  5  1  0  0  0  0
  3  8  1  0  0  0  0
  4 17  1  0  0  0  0
  6 16  1  0  0  0  0
  6  7  1  0  0  0  0
  7 14  1  0  0  0  0
  8 13  2  0  0  0  0
  9  1  1  0  0  0  0
  9 11  1  0  0  0  0
 10  7  1  0  0  0  0
 10  3  1  0  0  0  0
 11 15  2  0  0  0  0
 12  9  1  0  0  0  0
 14 17  1  0  0  0  0
 14  5  1  0  0  0  0
 15 13  1  0  0  0  0
 16  4  1  0  0  0  0
 19 18  1  0  0  0  0
 20 25  2  0  0  0  0
 20 23  1  0  0  0  0
 21 24  1  0  0  0  0
 22 19  1  0  0  0  0
 22 24  2  0  0  0  0
 23 21  2  0  0  0  0
 25 22  1  0  0  0  0
 26 25  1  0  0  0  0
 27 29  2  0  0  0  0
 29 23  1  0  0  0  0
 29 28  1  0  0  0  0
 30 31  1  0  0  0  0
 30 19  1  0  0  0  0
 32 31  1  0  0  0  0
M  END
>  <MODEL>
3

>  <REMARK>
 VINA RESULT:      -6.2      3.914      6.773
  Name = 
  5 active torsions:
  status: ('A' for Active; 'I' for Inactive)
    1  A    between atoms: C_1  and  C_4
    2  A    between atoms: C_1  and  C_27
    3  A    between atoms: C_5  and  C_27
    4  A    between atoms: C_16  and  C_27
    5  A    between atoms: C_19  and  C_26
                            x       y       z     vdW  Elec       q    Type
                         _______ _______ _______ _____ _____    ______ ____

>  <TORSDO>
F 5

$$$$
=
 OpenBabel11052414293D

 32 35  0  0  1  0  0  0  0  0999 V2000
  182.4520  176.5520  138.9810 C   0  0  1  0  0  3  0  0  0  0  0  0
  182.6850  178.0590  139.2590 C   0  0  2  0  0  3  0  0  0  0  0  0
  181.0360  176.1540  138.5310 C   0  0  2  0  0  3  0  0  0  0  0  0
  179.3530  180.1070  141.8120 C   0  0  0  0  0  2  0  0  0  0  0  0
  181.5580  179.0160  138.8520 C   0  0  0  0  0  2  0  0  0  0  0  0
  179.0180  177.6560  141.5140 C   0  0  0  0  0  2  0  0  0  0  0  0
  180.1780  177.5950  140.5240 C   0  0  1  0  0  3  0  0  0  0  0  0
  180.6000  176.6650  137.1930 C   0  0  0  0  0  3  0  0  0  0  0  0
  183.5330  175.8170  138.1910 C   0  0  2  0  0  3  0  0  0  0  0  0
  179.9360  176.4200  139.5690 C   0  0  0  0  0  2  0  0  0  0  0  0
  183.7220  176.2690  136.7780 C   0  0  0  0  0  3  0  0  0  0  0  0
  183.3170  174.4380  138.2270 O   0  0  0  0  0  1  0  0  0  0  0  0
  181.3440  176.8580  136.1010 C   0  0  0  0  0  3  0  0  0  0  0  0
  180.3660  178.9620  139.8170 C   0  0  1  0  0  3  0  0  0  0  0  0
  182.7950  176.6790  135.9100 C   0  0  0  0  0  3  0  0  0  0  0  0
  179.2350  178.7690  142.5310 C   0  0  0  0  0  2  0  0  0  0  0  0
  180.5350  180.0760  140.8500 C   0  0  0  0  0  2  0  0  0  0  0  0
  184.1830  180.0840  139.0510 C   0  0  0  0  0  1  0  0  0  0  0  0
  184.1050  178.6320  139.5190 C   0  0  1  0  0  0  0  0  0  0  0  0
  185.9580  178.6180  142.9100 C   0  0  0  0  0  3  0  0  0  0  0  0
  183.5840  178.6230  143.3260 C   0  0  0  0  0  3  0  0  0  0  0  0
  184.4050  178.6200  141.0240 C   0  0  0  0  0  0  0  0  0  0  0  0
  184.8920  178.6240  143.8170 C   0  0  0  0  0  0  0  0  0  0  0  0
  183.3460  178.6200  141.9520 C   0  0  0  0  0  3  0  0  0  0  0  0
  185.7330  178.6150  141.5310 C   0  0  0  0  0  0  0  0  0  0  0  0
  186.9320  178.6030  140.6430 C   0  0  0  0  0  1  0  0  0  0  0  0
  184.0570  178.7830  146.1840 N   0  0  0  0  0  1  0  0  0  0  0  0
  186.3390  178.4950  145.7340 N   0  0  0  0  0  2  0  0  0  0  0  0
  185.1400  178.6300  145.2720 C   0  0  0  0  0  0  0  0  0  0  0  0
  185.1560  177.8150  138.7310 C   0  0  0  0  0  2  0  0  0  0  0  0
  185.9010  178.5950  137.6500 C   0  0  0  0  0  2  0  0  0  0  0  0
  187.0620  177.7800  137.1170 C   0  0  0  0  0  1  0  0  0  0  0  0
  1  2  1  0  0  0  0
  2 19  1  0  0  0  0
  3  1  1  0  0  0  0
  3 10  1  0  0  0  0
  4 16  1  0  0  0  0
  5  2  1  0  0  0  0
  5 14  1  0  0  0  0
  6 16  1  0  0  0  0
  7  6  1  0  0  0  0
  8  3  1  0  0  0  0
  9 12  1  0  0  0  0
  9  1  1  0  0  0  0
 10  7  1  0  0  0  0
 11  9  1  0  0  0  0
 13  8  2  0  0  0  0
 14  7  1  0  0  0  0
 14 17  1  0  0  0  0
 15 13  1  0  0  0  0
 15 11  2  0  0  0  0
 17  4  1  0  0  0  0
 18 19  1  0  0  0  0
 19 22  1  0  0  0  0
 20 23  1  0  0  0  0
 21 23  2  0  0  0  0
 22 25  1  0  0  0  0
 22 24  2  0  0  0  0
 23 29  1  0  0  0  0
 24 21  1  0  0  0  0
 25 20  2  0  0  0  0
 26 25  1  0  0  0  0
 29 28  2  0  0  0  0
 29 27  1  0  0  0  0
 30 19  1  0  0  0  0
 31 30  1  0  0  0  0
 32 31  1  0  0  0  0
M  END
>  <MODEL>
4

>  <REMARK>
 VINA RESULT:      -5.7      2.005      4.248
  Name = 
  5 active torsions:
  status: ('A' for Active; 'I' for Inactive)
    1  A    between atoms: C_1  and  C_4
    2  A    between atoms: C_1  and  C_27
    3  A    between atoms: C_5  and  C_27
    4  A    between atoms: C_16  and  C_27
    5  A    between atoms: C_19  and  C_26
                            x       y       z     vdW  Elec       q    Type
                         _______ _______ _______ _____ _____    ______ ____

>  <TORSDO>
F 5

$$$$
=
 OpenBabel11052414293D

 32 35  0  0  1  0  0  0  0  0999 V2000
  181.8670  178.6000  139.7800 C   0  0  1  0  0  3  0  0  0  0  0  0
  181.3830  177.7940  138.5480 C   0  0  2  0  0  3  0  0  0  0  0  0
  182.8480  179.7510  139.4980 C   0  0  2  0  0  3  0  0  0  0  0  0
  184.7640  176.5770  135.5650 C   0  0  0  0  0  2  0  0  0  0  0  0
  181.7530  178.3570  137.1700 C   0  0  0  0  0  2  0  0  0  0  0  0
  185.6020  177.7390  137.6040 C   0  0  0  0  0  2  0  0  0  0  0  0
  184.1730  178.0450  138.0440 C   0  0  1  0  0  3  0  0  0  0  0  0
  182.3030  180.9070  138.7170 C   0  0  0  0  0  3  0  0  0  0  0  0
  180.8120  178.9850  140.8160 C   0  0  2  0  0  3  0  0  0  0  0  0
  184.1940  179.3140  138.9040 C   0  0  0  0  0  2  0  0  0  0  0  0
  179.7560  179.9320  140.3420 C   0  0  0  0  0  3  0  0  0  0  0  0
  181.4160  179.4820  141.9720 O   0  0  0  0  0  1  0  0  0  0  0  0
  181.0670  181.4100  138.7440 C   0  0  0  0  0  3  0  0  0  0  0  0
  183.2270  178.1220  136.8170 C   0  0  1  0  0  3  0  0  0  0  0  0
  179.8830  180.9550  139.4940 C   0  0  0  0  0  3  0  0  0  0  0  0
  185.6530  176.4490  136.7950 C   0  0  0  0  0  2  0  0  0  0  0  0
  183.3250  176.8400  135.9900 C   0  0  0  0  0  2  0  0  0  0  0  0
  178.9310  177.3380  138.1460 C   0  0  0  0  0  1  0  0  0  0  0  0
  180.2430  176.7450  138.6540 C   0  0  1  0  0  0  0  0  0  0  0  0
  181.9630  173.6170  137.1730 C   0  0  0  0  0  3  0  0  0  0  0  0
  179.9690  174.0790  135.9010 C   0  0  0  0  0  3  0  0  0  0  0  0
  180.5670  175.5310  137.7740 C   0  0  0  0  0  0  0  0  0  0  0  0
  181.0960  173.2850  136.1250 C   0  0  0  0  0  0  0  0  0  0  0  0
  179.7100  175.1840  136.7120 C   0  0  0  0  0  3  0  0  0  0  0  0
  181.7150  174.7220  137.9920 C   0  0  0  0  0  0  0  0  0  0  0  0
  182.6990  175.0000  139.0800 C   0  0  0  0  0  1  0  0  0  0  0  0
  180.3150  171.2100  134.9370 N   0  0  0  0  0  1  0  0  0  0  0  0
  182.5520  171.8990  134.8040 N   0  0  0  0  0  2  0  0  0  0  0  0
  181.3650  172.1150  135.2670 C   0  0  0  0  0  0  0  0  0  0  0  0
  180.0430  176.3300  140.1300 C   0  0  0  0  0  2  0  0  0  0  0  0
  178.9320  175.3110  140.3700 C   0  0  0  0  0  2  0  0  0  0  0  0
  179.5000  174.0400  140.9680 C   0  0  0  0  0  1  0  0  0  0  0  0
  1  9  1  0  0  0  0
  2 19  1  0  0  0  0
  2  1  1  0  0  0  0
  3  1  1  0  0  0  0
  4 17  1  0  0  0  0
  4 16  1  0  0  0  0
  5  2  1  0  0  0  0
  6  7  1  0  0  0  0
  7 10  1  0  0  0  0
  8 13  2  0  0  0  0
  8  3  1  0  0  0  0
  9 12  1  0  0  0  0
 10  3  1  0  0  0  0
 11  9  1  0  0  0  0
 13 15  1  0  0  0  0
 14  5  1  0  0  0  0
 14  7  1  0  0  0  0
 15 11  2  0  0  0  0
 16  6  1  0  0  0  0
 17 14  1  0  0  0  0
 18 19  1  0  0  0  0
 19 30  1  0  0  0  0
 20 25  1  0  0  0  0
 21 23  1  0  0  0  0
 21 24  2  0  0  0  0
 22 25  2  0  0  0  0
 22 19  1  0  0  0  0
 23 20  2  0  0  0  0
 24 22  1  0  0  0  0
 25 26  1  0  0  0  0
 27 29  1  0  0  0  0
 28 29  2  0  0  0  0
 29 23  1  0  0  0  0
 30 31  1  0  0  0  0
 31 32  1  0  0  0  0
M  END
>  <MODEL>
5

>  <REMARK>
 VINA RESULT:      -5.6      3.842      6.630
  Name = 
  5 active torsions:
  status: ('A' for Active; 'I' for Inactive)
    1  A    between atoms: C_1  and  C_4
    2  A    between atoms: C_1  and  C_27
    3  A    between atoms: C_5  and  C_27
    4  A    between atoms: C_16  and  C_27
    5  A    between atoms: C_19  and  C_26
                            x       y       z     vdW  Elec       q    Type
                         _______ _______ _______ _____ _____    ______ ____

>  <TORSDO>
F 5

$$$$
=
 OpenBabel11052414293D

 32 35  0  0  1  0  0  0  0  0999 V2000
  186.8180  174.0590  137.0360 C   0  0  1  0  0  3  0  0  0  0  0  0
  186.6630  175.4060  136.2850 C   0  0  2  0  0  3  0  0  0  0  0  0
  185.6260  173.0900  136.9480 C   0  0  2  0  0  3  0  0  0  0  0  0
  182.5640  177.5450  136.9440 C   0  0  0  0  0  2  0  0  0  0  0  0
  185.4450  175.5430  135.3620 C   0  0  0  0  0  2  0  0  0  0  0  0
  182.8300  175.4610  138.2850 C   0  0  0  0  0  2  0  0  0  0  0  0
  184.1330  175.1350  137.5600 C   0  0  1  0  0  3  0  0  0  0  0  0
  185.3340  172.5210  135.5950 C   0  0  0  0  0  3  0  0  0  0  0  0
  188.1570  173.3360  136.8960 C   0  0  2  0  0  3  0  0  0  0  0  0
  184.3280  173.6140  137.5790 C   0  0  0  0  0  2  0  0  0  0  0  0
  188.4910  172.8540  135.5210 C   0  0  0  0  0  3  0  0  0  0  0  0
  188.2430  172.2820  137.8070 O   0  0  0  0  0  1  0  0  0  0  0  0
  186.2010  172.2020  134.6310 C   0  0  0  0  0  3  0  0  0  0  0  0
  184.1410  175.7610  136.1410 C   0  0  1  0  0  3  0  0  0  0  0  0
  187.6660  172.3610  134.5940 C   0  0  0  0  0  3  0  0  0  0  0  0
  182.6140  176.9680  138.3530 C   0  0  0  0  0  2  0  0  0  0  0  0
  183.8760  177.2640  136.2220 C   0  0  0  0  0  2  0  0  0  0  0  0
  187.3730  177.6990  135.4970 C   0  0  0  0  0  1  0  0  0  0  0  0
  187.8540  176.3880  136.1140 C   0  0  1  0  0  0  0  0  0  0  0  0
  188.3720  177.8270  139.6620 C   0  0  0  0  0  3  0  0  0  0  0  0
  190.2740  176.4580  139.0970 C   0  0  0  0  0  3  0  0  0  0  0  0
  188.4560  176.7210  137.4850 C   0  0  0  0  0  0  0  0  0  0  0  0
  189.6120  177.2790  140.0130 C   0  0  0  0  0  0  0  0  0  0  0  0
  189.7050  176.1850  137.8540 C   0  0  0  0  0  3  0  0  0  0  0  0
  187.7920  177.5610  138.4190 C   0  0  0  0  0  0  0  0  0  0  0  0
  186.4710  178.1940  138.1330 C   0  0  0  0  0  1  0  0  0  0  0  0
  191.6260  177.4620  141.5090 N   0  0  0  0  0  2  0  0  0  0  0  0
  189.4760  177.9090  142.3310 N   0  0  0  0  0  1  0  0  0  0  0  0
  190.2160  177.5640  141.3290 C   0  0  0  0  0  0  0  0  0  0  0  0
  188.9140  175.7730  135.1700 C   0  0  0  0  0  2  0  0  0  0  0  0
  190.0750  176.6970  134.8140 C   0  0  0  0  0  2  0  0  0  0  0  0
  191.3420  175.8950  134.5950 C   0  0  0  0  0  1  0  0  0  0  0  0
  2  1  1  0  0  0  0
  3  1  1  0  0  0  0
  3 10  1  0  0  0  0
  4 16  1  0  0  0  0
  5 14  1  0  0  0  0
  5  2  1  0  0  0  0
  6 16  1  0  0  0  0
  7 10  1  0  0  0  0
  7  6  1  0  0  0  0
  8  3  1  0  0  0  0
  9  1  1  0  0  0  0
  9 12  1  0  0  0  0
 11  9  1  0  0  0  0
 13  8  2  0  0  0  0
 14 17  1  0  0  0  0
 14  7  1  0  0  0  0
 15 13  1  0  0  0  0
 15 11  2  0  0  0  0
 17  4  1  0  0  0  0
 18 19  1  0  0  0  0
 19  2  1  0  0  0  0
 19 22  1  0  0  0  0
 20 23  1  0  0  0  0
 21 23  2  0  0  0  0
 22 24  2  0  0  0  0
 22 25  1  0  0  0  0
 23 29  1  0  0  0  0
 24 21  1  0  0  0  0
 25 20  2  0  0  0  0
 26 25  1  0  0  0  0
 29 27  2  0  0  0  0
 29 28  1  0  0  0  0
 30 19  1  0  0  0  0
 31 30  1  0  0  0  0
 32 31  1  0  0  0  0
M  END
>  <MODEL>
6

>  <REMARK>
 VINA RESULT:      -5.6      4.998      7.778
  Name = 
  5 active torsions:
  status: ('A' for Active; 'I' for Inactive)
    1  A    between atoms: C_1  and  C_4
    2  A    between atoms: C_1  and  C_27
    3  A    between atoms: C_5  and  C_27
    4  A    between atoms: C_16  and  C_27
    5  A    between atoms: C_19  and  C_26
                            x       y       z     vdW  Elec       q    Type
                         _______ _______ _______ _____ _____    ______ ____

>  <TORSDO>
F 5

$$$$
=
 OpenBabel11052414293D

 32 35  0  0  1  0  0  0  0  0999 V2000
  187.0200  175.8630  136.9320 C   0  0  1  0  0  3  0  0  0  0  0  0
  185.8500  175.2950  136.0890 C   0  0  2  0  0  3  0  0  0  0  0  0
  188.4360  175.6220  136.3810 C   0  0  2  0  0  3  0  0  0  0  0  0
  186.4700  170.9120  134.6010 C   0  0  0  0  0  2  0  0  0  0  0  0
  186.2040  174.7490  134.7000 C   0  0  0  0  0  2  0  0  0  0  0  0
  188.3030  171.7340  136.0760 C   0  0  0  0  0  2  0  0  0  0  0  0
  187.7090  173.1410  136.0650 C   0  0  1  0  0  3  0  0  0  0  0  0
  188.7720  176.3150  135.0970 C   0  0  0  0  0  3  0  0  0  0  0  0
  186.8530  177.2770  137.4880 C   0  0  2  0  0  3  0  0  0  0  0  0
  188.8460  174.1450  136.2950 C   0  0  0  0  0  2  0  0  0  0  0  0
  186.7750  178.3670  136.4670 C   0  0  0  0  0  3  0  0  0  0  0  0
  187.8550  177.5620  138.4160 O   0  0  0  0  0  1  0  0  0  0  0  0
  188.3590  177.5110  134.6740 C   0  0  0  0  0  3  0  0  0  0  0  0
  186.8980  173.3830  134.7660 C   0  0  1  0  0  3  0  0  0  0  0  0
  187.4280  178.4620  135.3070 C   0  0  0  0  0  3  0  0  0  0  0  0
  187.2080  170.6870  135.9140 C   0  0  0  0  0  2  0  0  0  0  0  0
  185.8350  172.2970  134.5940 C   0  0  0  0  0  2  0  0  0  0  0  0
  183.8330  176.6560  135.4080 C   0  0  0  0  0  1  0  0  0  0  0  0
  184.3690  175.6370  136.4110 C   0  0  1  0  0  0  0  0  0  0  0  0
  182.9390  172.0830  136.9150 C   0  0  0  0  0  3  0  0  0  0  0  0
  181.5940  173.2330  135.2780 C   0  0  0  0  0  3  0  0  0  0  0  0
  183.5040  174.3760  136.2890 C   0  0  0  0  0  0  0  0  0  0  0  0
  181.8500  172.0860  136.0330 C   0  0  0  0  0  0  0  0  0  0  0  0
  182.4090  174.3580  135.4040 C   0  0  0  0  0  3  0  0  0  0  0  0
  183.7630  173.2030  137.0490 C   0  0  0  0  0  0  0  0  0  0  0  0
  184.9010  173.1030  138.0090 C   0  0  0  0  0  1  0  0  0  0  0  0
  179.7030  170.8710  136.5210 N   0  0  0  0  0  1  0  0  0  0  0  0
  181.3780  169.8730  135.2190 N   0  0  0  0  0  2  0  0  0  0  0  0
  180.9850  170.8990  135.9000 C   0  0  0  0  0  0  0  0  0  0  0  0
  184.2650  176.2530  137.8250 C   0  0  0  0  0  2  0  0  0  0  0  0
  182.8520  176.6310  138.2630 C   0  0  0  0  0  2  0  0  0  0  0  0
  182.3440  175.6590  139.3080 C   0  0  0  0  0  1  0  0  0  0  0  0
  1  9  1  0  0  0  0
  2 19  1  0  0  0  0
  2  1  1  0  0  0  0
  3  1  1  0  0  0  0
  4 16  1  0  0  0  0
  5 14  1  0  0  0  0
  5  2  1  0  0  0  0
  7  6  1  0  0  0  0
  7 10  1  0  0  0  0
  8  3  1  0  0  0  0
  9 12  1  0  0  0  0
 10  3  1  0  0  0  0
 11  9  1  0  0  0  0
 13  8  2  0  0  0  0
 13 15  1  0  0  0  0
 14  7  1  0  0  0  0
 15 11  2  0  0  0  0
 16  6  1  0  0  0  0
 17  4  1  0  0  0  0
 17 14  1  0  0  0  0
 18 19  1  0  0  0  0
 19 30  1  0  0  0  0
 20 25  1  0  0  0  0
 21 24  2  0  0  0  0
 21 23  1  0  0  0  0
 22 19  1  0  0  0  0
 22 25  2  0  0  0  0
 23 20  2  0  0  0  0
 24 22  1  0  0  0  0
 25 26  1  0  0  0  0
 28 29  2  0  0  0  0
 29 23  1  0  0  0  0
 29 27  1  0  0  0  0
 30 31  1  0  0  0  0
 31 32  1  0  0  0  0
M  END
>  <MODEL>
7

>  <REMARK>
 VINA RESULT:      -5.5      5.603      9.084
  Name = 
  5 active torsions:
  status: ('A' for Active; 'I' for Inactive)
    1  A    between atoms: C_1  and  C_4
    2  A    between atoms: C_1  and  C_27
    3  A    between atoms: C_5  and  C_27
    4  A    between atoms: C_16  and  C_27
    5  A    between atoms: C_19  and  C_26
                            x       y       z     vdW  Elec       q    Type
                         _______ _______ _______ _____ _____    ______ ____

>  <TORSDO>
F 5

$$$$
=
 OpenBabel11052414293D

 32 35  0  0  1  0  0  0  0  0999 V2000
  182.3750  177.9620  139.7110 C   0  0  1  0  0  3  0  0  0  0  0  0
  182.1990  177.1100  138.4280 C   0  0  2  0  0  3  0  0  0  0  0  0
  183.1040  179.3060  139.5390 C   0  0  2  0  0  3  0  0  0  0  0  0
  186.0330  176.7440  135.7870 C   0  0  0  0  0  2  0  0  0  0  0  0
  182.5670  177.7810  137.0990 C   0  0  0  0  0  2  0  0  0  0  0  0
  186.3990  177.9960  137.9110 C   0  0  0  0  0  2  0  0  0  0  0  0
  184.9020  177.9720  138.2080 C   0  0  1  0  0  3  0  0  0  0  0  0
  182.3980  180.3410  138.7190 C   0  0  0  0  0  3  0  0  0  0  0  0
  181.1680  178.0780  140.6390 C   0  0  2  0  0  3  0  0  0  0  0  0
  184.5640  179.1890  139.0780 C   0  0  0  0  0  2  0  0  0  0  0  0
  179.9810  178.7890  140.0710 C   0  0  0  0  0  3  0  0  0  0  0  0
  181.5360  178.6570  141.8550 O   0  0  0  0  0  1  0  0  0  0  0  0
  181.0850  180.5640  138.6260 C   0  0  0  0  0  3  0  0  0  0  0  0
  184.0840  177.8820  136.8940 C   0  0  1  0  0  3  0  0  0  0  0  0
  179.9630  179.8410  139.2500 C   0  0  0  0  0  3  0  0  0  0  0  0
  186.8060  176.7730  137.0990 C   0  0  0  0  0  2  0  0  0  0  0  0
  184.5370  176.6770  136.0680 C   0  0  0  0  0  2  0  0  0  0  0  0
  180.0720  176.0680  137.5450 C   0  0  0  0  0  1  0  0  0  0  0  0
  181.3100  175.8360  138.4100 C   0  0  1  0  0  0  0  0  0  0  0  0
  182.2460  172.7330  136.3050 C   0  0  0  0  0  3  0  0  0  0  0  0
  184.1700  173.4040  137.5940 C   0  0  0  0  0  3  0  0  0  0  0  0
  182.0860  174.6660  137.7920 C   0  0  0  0  0  0  0  0  0  0  0  0
  183.5850  172.5380  136.6670 C   0  0  0  0  0  0  0  0  0  0  0  0
  183.4320  174.4500  138.1470 C   0  0  0  0  0  3  0  0  0  0  0  0
  181.4960  173.7770  136.8530 C   0  0  0  0  0  0  0  0  0  0  0  0
  180.0760  173.9030  136.4110 C   0  0  0  0  0  1  0  0  0  0  0  0
  183.8060  170.1290  135.9770 N   0  0  0  0  0  1  0  0  0  0  0  0
  185.5740  171.6360  135.6580 N   0  0  0  0  0  2  0  0  0  0  0  0
  184.3690  171.4340  136.0820 C   0  0  0  0  0  0  0  0  0  0  0  0
  180.8380  175.5010  139.8440 C   0  0  0  0  0  2  0  0  0  0  0  0
  179.5570  174.6740  139.9260 C   0  0  0  0  0  2  0  0  0  0  0  0
  179.5980  173.7520  141.1280 C   0  0  0  0  0  1  0  0  0  0  0  0
  1  9  1  0  0  0  0
  2  1  1  0  0  0  0
  3  1  1  0  0  0  0
  4 17  1  0  0  0  0
  4 16  1  0  0  0  0
  5  2  1  0  0  0  0
  6  7  1  0  0  0  0
  7 10  1  0  0  0  0
  8  3  1  0  0  0  0
  9 12  1  0  0  0  0
 10  3  1  0  0  0  0
 11  9  1  0  0  0  0
 13  8  2  0  0  0  0
 13 15  1  0  0  0  0
 14  5  1  0  0  0  0
 14  7  1  0  0  0  0
 15 11  2  0  0  0  0
 16  6  1  0  0  0  0
 17 14  1  0  0  0  0
 18 19  1  0  0  0  0
 19  2  1  0  0  0  0
 19 30  1  0  0  0  0
 20 23  2  0  0  0  0
 20 25  1  0  0  0  0
 21 24  2  0  0  0  0
 22 24  1  0  0  0  0
 22 19  1  0  0  0  0
 23 21  1  0  0  0  0
 25 22  2  0  0  0  0
 26 25  1  0  0  0  0
 27 29  1  0  0  0  0
 28 29  2  0  0  0  0
 29 23  1  0  0  0  0
 30 31  1  0  0  0  0
 31 32  1  0  0  0  0
M  END
>  <MODEL>
8

>  <REMARK>
 VINA RESULT:      -5.4      3.680      6.599
  Name = 
  5 active torsions:
  status: ('A' for Active; 'I' for Inactive)
    1  A    between atoms: C_1  and  C_4
    2  A    between atoms: C_1  and  C_27
    3  A    between atoms: C_5  and  C_27
    4  A    between atoms: C_16  and  C_27
    5  A    between atoms: C_19  and  C_26
                            x       y       z     vdW  Elec       q    Type
                         _______ _______ _______ _____ _____    ______ ____

>  <TORSDO>
F 5

$$$$
=
 OpenBabel11052414293D

 32 35  0  0  1  0  0  0  0  0999 V2000
  183.5570  177.3160  139.2700 C   0  0  1  0  0  3  0  0  0  0  0  0
  184.5520  177.1280  138.0960 C   0  0  2  0  0  3  0  0  0  0  0  0
  183.6420  178.6540  140.0260 C   0  0  2  0  0  3  0  0  0  0  0  0
  188.9510  178.3730  139.0480 C   0  0  0  0  0  2  0  0  0  0  0  0
  185.3570  178.3630  137.6720 C   0  0  0  0  0  2  0  0  0  0  0  0
  187.4170  178.5490  141.0050 C   0  0  0  0  0  2  0  0  0  0  0  0
  186.2130  178.2500  140.1160 C   0  0  1  0  0  3  0  0  0  0  0  0
  183.2550  179.8760  139.2510 C   0  0  0  0  0  3  0  0  0  0  0  0
  182.1120  176.8810  139.0330 C   0  0  2  0  0  3  0  0  0  0  0  0
  184.9750  178.8990  140.7460 C   0  0  0  0  0  2  0  0  0  0  0  0
  181.3660  177.6550  137.9940 C   0  0  0  0  0  3  0  0  0  0  0  0
  181.3970  176.8760  140.2320 O   0  0  0  0  0  1  0  0  0  0  0  0
  182.3210  179.9900  138.3060 C   0  0  0  0  0  3  0  0  0  0  0  0
  186.4890  178.6900  138.6550 C   0  0  1  0  0  3  0  0  0  0  0  0
  181.4470  178.9590  137.7180 C   0  0  0  0  0  3  0  0  0  0  0  0
  188.6700  177.8750  140.4600 C   0  0  0  0  0  2  0  0  0  0  0  0
  187.7740  178.0420  138.1390 C   0  0  0  0  0  2  0  0  0  0  0  0
  183.5530  176.2830  135.9340 C   0  0  0  0  0  1  0  0  0  0  0  0
  184.4450  175.9240  137.1210 C   0  0  1  0  0  0  0  0  0  0  0  0
  187.6200  175.8560  134.9190 C   0  0  0  0  0  3  0  0  0  0  0  0
  187.9150  174.3160  136.7490 C   0  0  0  0  0  3  0  0  0  0  0  0
  185.8320  175.5820  136.5610 C   0  0  0  0  0  0  0  0  0  0  0  0
  188.4150  174.9220  135.5940 C   0  0  0  0  0  0  0  0  0  0  0  0
  186.6440  174.6400  137.2230 C   0  0  0  0  0  3  0  0  0  0  0  0
  186.3450  176.1890  135.3840 C   0  0  0  0  0  0  0  0  0  0  0  0
  185.5700  177.1910  134.5940 C   0  0  0  0  0  1  0  0  0  0  0  0
  190.2100  173.2260  135.1170 N   0  0  0  0  0  1  0  0  0  0  0  0
  190.5460  175.4960  134.6360 N   0  0  0  0  0  2  0  0  0  0  0  0
  189.7610  174.5780  135.0970 C   0  0  0  0  0  0  0  0  0  0  0  0
  183.8180  174.7110  137.8460 C   0  0  0  0  0  2  0  0  0  0  0  0
  183.0080  173.7730  136.9530 C   0  0  0  0  0  2  0  0  0  0  0  0
  183.6070  172.3820  136.9670 C   0  0  0  0  0  1  0  0  0  0  0  0
  1  3  1  0  0  0  0
  2  1  1  0  0  0  0
  3 10  1  0  0  0  0
  4 16  1  0  0  0  0
  5  2  1  0  0  0  0
  5 14  1  0  0  0  0
  7 10  1  0  0  0  0
  7  6  1  0  0  0  0
  8  3  1  0  0  0  0
  9  1  1  0  0  0  0
  9 12  1  0  0  0  0
 11  9  1  0  0  0  0
 13  8  2  0  0  0  0
 14  7  1  0  0  0  0
 15 11  2  0  0  0  0
 15 13  1  0  0  0  0
 16  6  1  0  0  0  0
 17 14  1  0  0  0  0
 17  4  1  0  0  0  0
 18 19  1  0  0  0  0
 19 30  1  0  0  0  0
 19  2  1  0  0  0  0
 20 25  2  0  0  0  0
 20 23  1  0  0  0  0
 21 24  1  0  0  0  0
 22 19  1  0  0  0  0
 22 24  2  0  0  0  0
 23 21  2  0  0  0  0
 25 22  1  0  0  0  0
 26 25  1  0  0  0  0
 28 29  2  0  0  0  0
 29 27  1  0  0  0  0
 29 23  1  0  0  0  0
 31 32  1  0  0  0  0
 31 30  1  0  0  0  0
M  END
>  <MODEL>
9

>  <REMARK>
 VINA RESULT:      -5.3      4.118      7.448
  Name = 
  5 active torsions:
  status: ('A' for Active; 'I' for Inactive)
    1  A    between atoms: C_1  and  C_4
    2  A    between atoms: C_1  and  C_27
    3  A    between atoms: C_5  and  C_27
    4  A    between atoms: C_16  and  C_27
    5  A    between atoms: C_19  and  C_26
                            x       y       z     vdW  Elec       q    Type
                         _______ _______ _______ _____ _____    ______ ____

>  <TORSDO>
F 5

$$$$
