=
 OpenBabel11052415213D

 37 42  0  0  1  0  0  0  0  0999 V2000
  179.2640  180.9920  139.7290 C   0  0  0  0  0  2  0  0  0  0  0  0
  183.3080  179.2860  140.9220 C   0  0  0  0  0  0  0  0  0  0  0  0
  186.5440  178.3020  139.5500 N   0  0  0  0  0  2  0  0  0  0  0  0
  180.7990  179.2030  140.4970 C   0  0  0  0  0  0  0  0  0  0  0  0
  184.5130  179.3470  140.3730 C   0  0  0  0  0  3  0  0  0  0  0  0
  182.1500  179.7320  140.0320 C   0  0  0  0  0  0  0  0  0  0  0  0
  185.7820  178.6940  140.7040 C   0  0  0  0  0  0  0  0  0  0  0  0
  180.6570  178.6130  141.6850 C   0  0  0  0  0  3  0  0  0  0  0  0
  182.4470  179.4680  138.5200 C   0  0  2  0  0  3  0  0  0  0  0  0
  181.1770  181.8580  137.9210 S   0  0  0  0  0  0  0  0  0  0  0  0
  184.0560  178.5810  143.2980 C   0  0  0  0  0  3  0  0  0  0  0  0
  181.7930  178.3880  142.5880 C   0  0  0  0  0  3  0  0  0  0  0  0
  181.4630  180.1010  137.5420 C   0  0  0  0  0  2  0  0  0  0  0  0
  186.4070  177.3020  137.4440 C   0  0  1  0  0  3  0  0  0  0  0  0
  185.9880  178.4450  138.2650 N   0  0  1  0  0  0  0  0  0  0  0  0
  183.0460  178.6800  142.2420 C   0  0  1  0  0  3  0  0  0  0  0  0
  182.6420  177.9860  138.2000 C   0  0  0  0  0  2  0  0  0  0  0  0
  179.5520  179.4980  139.7280 C   0  0  0  0  0  2  0  0  0  0  0  0
  186.1960  178.3460  141.9400 C   0  0  0  0  0  0  0  0  0  0  0  0
  179.4230  181.5720  138.3300 C   0  0  0  0  0  2  0  0  0  0  0  0
  185.0700  177.3010  138.0820 C   0  0  1  0  0  3  0  0  0  0  0  0
  183.8380  177.7540  137.2720 C   0  0  1  0  0  3  0  0  0  0  0  0
  185.3760  178.4680  143.1660 C   0  0  0  0  0  3  0  0  0  0  0  0
  187.7700  176.9310  143.1520 C   0  0  0  0  0  3  0  0  0  0  0  0
  187.5600  177.7950  142.1440 C   0  0  0  0  0  0  0  0  0  0  0  0
  188.6670  178.1420  141.1710 C   0  0  0  0  0  2  0  0  0  0  0  0
  190.9560  177.8160  140.6200 F   0  0  0  0  0  0  0  0  0  0  0  0
  190.0340  176.3570  142.2510 C   0  0  0  0  0  2  0  0  0  0  0  0
  190.0610  177.7620  141.6700 C   0  0  2  0  0  3  0  0  0  0  0  0
  189.1210  176.3530  143.4700 C   0  0  0  0  0  2  0  0  0  0  0  0
  186.4290  177.7230  135.9810 C   0  0  0  0  0  2  0  0  0  0  0  0
  187.7040  177.2270  135.3310 C   0  0  0  0  0  1  0  0  0  0  0  0
  183.4810  176.7790  136.1340 C   0  0  0  0  0  2  0  0  0  0  0  0
  182.9330  175.3990  136.5360 C   0  0  1  0  0  3  0  0  0  0  0  0
  181.7740  175.0780  135.8280 O   0  0  0  0  0  1  0  0  0  0  0  0
  184.4560  173.7200  137.4880 C   0  0  0  0  0  2  0  0  0  0  0  0
  183.9410  174.3020  136.4080 C   0  0  0  0  0  3  0  0  0  0  0  0
  2 16  1  0  0  0  0
  3  7  1  0  0  0  0
  4  8  1  0  0  0  0
  5  7  1  0  0  0  0
  5  2  2  0  0  0  0
  6  4  2  0  0  0  0
  6  2  1  0  0  0  0
  7 19  2  0  0  0  0
  8 12  2  0  0  0  0
  9 13  1  6  0  0  0
  9  6  1  0  0  0  0
 10 20  1  0  0  0  0
 13 10  1  0  0  0  0
 14 31  1  6  0  0  0
 14 21  1  0  0  0  0
 14 15  1  0  0  0  0
 15  3  1  1  0  0  0
 16 12  1  1  0  0  0
 16 11  1  0  0  0  0
 17  9  1  0  0  0  0
 18  1  1  0  0  0  0
 18  4  1  0  0  0  0
 19 25  1  0  0  0  0
 19 23  1  0  0  0  0
 20  1  1  0  0  0  0
 21 15  1  0  0  0  0
 22 21  1  0  0  0  0
 22 17  1  0  0  0  0
 23 11  2  0  0  0  0
 24 30  1  0  0  0  0
 25 24  2  0  0  0  0
 26 29  1  0  0  0  0
 26 25  1  0  0  0  0
 27 29  1  0  0  0  0
 28 30  1  0  0  0  0
 29 28  1  0  0  0  0
 32 31  1  0  0  0  0
 33 34  1  0  0  0  0
 33 22  1  0  0  0  0
 35 34  1  0  0  0  0
 37 34  1  0  0  0  0
 37 36  2  0  0  0  0
M  END
>  <MODEL>
1

>  <REMARK>
 VINA RESULT:      -7.4      0.000      0.000
  Name = 
  5 active torsions:
  status: ('A' for Active; 'I' for Inactive)
    1  A    between atoms: C_1  and  C_5
    2  A    between atoms: C_1  and  C_36
    3  A    between atoms: C_5  and  C_23
    4  A    between atoms: C_6  and  C_31
    5  A    between atoms: C_11  and  C_26
                            x       y       z     vdW  Elec       q    Type
                         _______ _______ _______ _____ _____    ______ ____

>  <TORSDO>
F 5

$$$$
=
 OpenBabel11052415213D

 37 42  0  0  1  0  0  0  0  0999 V2000
  180.4590  180.1300  143.0990 C   0  0  0  0  0  2  0  0  0  0  0  0
  184.1590  178.8290  140.7950 C   0  0  0  0  0  0  0  0  0  0  0  0
  185.2290  177.4850  137.5750 N   0  0  0  0  0  2  0  0  0  0  0  0
  182.3710  178.6330  142.5970 C   0  0  0  0  0  0  0  0  0  0  0  0
  184.4290  178.7270  139.5020 C   0  0  0  0  0  3  0  0  0  0  0  0
  182.6850  179.0040  141.1530 C   0  0  0  0  0  0  0  0  0  0  0  0
  185.5840  178.1940  138.7750 C   0  0  0  0  0  0  0  0  0  0  0  0
  183.3440  178.4090  143.4820 C   0  0  0  0  0  3  0  0  0  0  0  0
  181.7500  178.3160  140.1060 C   0  0  2  0  0  3  0  0  0  0  0  0
  179.9860  180.4360  140.3860 S   0  0  0  0  0  0  0  0  0  0  0  0
  186.6020  178.8340  141.6500 C   0  0  0  0  0  3  0  0  0  0  0  0
  184.7650  178.4510  143.1120 C   0  0  0  0  0  3  0  0  0  0  0  0
  180.2660  178.6430  140.2420 C   0  0  0  0  0  2  0  0  0  0  0  0
  183.7490  175.9230  136.6700 C   0  0  1  0  0  3  0  0  0  0  0  0
  183.8740  177.2540  137.2750 N   0  0  1  0  0  0  0  0  0  0  0  0
  185.1670  178.6280  141.8550 C   0  0  1  0  0  3  0  0  0  0  0  0
  181.9590  176.8040  140.0210 C   0  0  0  0  0  2  0  0  0  0  0  0
  180.9730  178.6980  143.1210 C   0  0  0  0  0  2  0  0  0  0  0  0
  186.8660  178.2140  139.1960 C   0  0  0  0  0  0  0  0  0  0  0  0
  179.3360  180.2830  142.0830 C   0  0  0  0  0  2  0  0  0  0  0  0
  183.4550  176.1080  138.1100 C   0  0  1  0  0  3  0  0  0  0  0  0
  181.9980  176.3120  138.5710 C   0  0  1  0  0  3  0  0  0  0  0  0
  187.3040  178.6850  140.5290 C   0  0  0  0  0  3  0  0  0  0  0  0
  188.3510  178.5270  137.2880 C   0  0  0  0  0  3  0  0  0  0  0  0
  187.9540  177.7420  138.3030 C   0  0  0  0  0  0  0  0  0  0  0  0
  188.6560  176.4320  138.5970 C   0  0  0  0  0  2  0  0  0  0  0  0
  190.3600  174.9300  137.8970 F   0  0  0  0  0  0  0  0  0  0  0  0
  190.3550  177.0800  136.8900 C   0  0  0  0  0  2  0  0  0  0  0  0
  189.5250  175.9330  137.4440 C   0  0  2  0  0  3  0  0  0  0  0  0
  189.4110  178.1210  136.3020 C   0  0  0  0  0  2  0  0  0  0  0  0
  182.5320  175.9060  135.7550 C   0  0  0  0  0  2  0  0  0  0  0  0
  182.6720  176.9890  134.7060 C   0  0  0  0  0  1  0  0  0  0  0  0
  181.1310  175.0520  138.3850 C   0  0  0  0  0  2  0  0  0  0  0  0
  179.6040  175.2410  138.4020 C   0  0  1  0  0  3  0  0  0  0  0  0
  179.0250  174.8680  137.1890 O   0  0  0  0  0  1  0  0  0  0  0  0
  179.6450  174.0350  140.5450 C   0  0  0  0  0  2  0  0  0  0  0  0
  178.9340  174.5350  139.5370 C   0  0  0  0  0  3  0  0  0  0  0  0
  1 18  1  0  0  0  0
  2  6  1  0  0  0  0
  2 16  1  0  0  0  0
  3  7  1  0  0  0  0
  4 18  1  0  0  0  0
  4  8  1  0  0  0  0
  5  2  2  0  0  0  0
  6  4  2  0  0  0  0
  7 19  2  0  0  0  0
  7  5  1  0  0  0  0
  9 17  1  1  0  0  0
  9 13  1  0  0  0  0
  9  6  1  0  0  0  0
 10 20  1  0  0  0  0
 12  8  2  0  0  0  0
 13 10  1  0  0  0  0
 14 31  1  6  0  0  0
 14 15  1  0  0  0  0
 14 21  1  0  0  0  0
 15  3  1  1  0  0  0
 15 21  1  0  0  0  0
 16 11  1  1  0  0  0
 16 12  1  0  0  0  0
 19 23  1  0  0  0  0
 20  1  1  0  0  0  0
 21 22  1  0  0  0  0
 22 17  1  0  0  0  0
 23 11  2  0  0  0  0
 24 25  2  0  0  0  0
 25 26  1  0  0  0  0
 25 19  1  0  0  0  0
 28 29  1  0  0  0  0
 29 27  1  0  0  0  0
 29 26  1  0  0  0  0
 30 28  1  0  0  0  0
 30 24  1  0  0  0  0
 32 31  1  0  0  0  0
 33 34  1  0  0  0  0
 33 22  1  0  0  0  0
 34 37  1  0  0  0  0
 35 34  1  0  0  0  0
 37 36  2  0  0  0  0
M  END
>  <MODEL>
2

>  <REMARK>
 VINA RESULT:      -7.1      2.290      3.704
  Name = 
  5 active torsions:
  status: ('A' for Active; 'I' for Inactive)
    1  A    between atoms: C_1  and  C_5
    2  A    between atoms: C_1  and  C_36
    3  A    between atoms: C_5  and  C_23
    4  A    between atoms: C_6  and  C_31
    5  A    between atoms: C_11  and  C_26
                            x       y       z     vdW  Elec       q    Type
                         _______ _______ _______ _____ _____    ______ ____

>  <TORSDO>
F 5

$$$$
=
 OpenBabel11052415213D

 37 42  0  0  1  0  0  0  0  0999 V2000
  190.8700  175.6940  136.9400 C   0  0  0  0  0  2  0  0  0  0  0  0
  189.9420  176.6990  141.2790 C   0  0  0  0  0  0  0  0  0  0  0  0
  187.1680  177.3030  143.5710 N   0  0  0  0  0  2  0  0  0  0  0  0
  190.7880  177.1780  138.9250 C   0  0  0  0  0  0  0  0  0  0  0  0
  188.8780  176.5050  142.0440 C   0  0  0  0  0  3  0  0  0  0  0  0
  189.7290  176.4950  139.7810 C   0  0  2  0  0  3  0  0  0  0  0  0
  188.5490  176.9400  143.4030 C   0  0  0  0  0  0  0  0  0  0  0  0
  191.8930  177.6910  139.4690 C   0  0  0  0  0  3  0  0  0  0  0  0
  188.2610  176.8260  139.3550 C   0  0  2  0  0  3  0  0  0  0  0  0
  188.3650  174.6990  137.5810 S   0  0  0  0  0  0  0  0  0  0  0  0
  191.6530  177.1060  143.1780 C   0  0  0  0  0  3  0  0  0  0  0  0
  192.1310  177.6790  140.9190 C   0  0  0  0  0  3  0  0  0  0  0  0
  187.8870  176.4190  137.9330 C   0  0  0  0  0  2  0  0  0  0  0  0
  185.3890  178.4680  142.6080 C   0  0  1  0  0  3  0  0  0  0  0  0
  186.3150  177.3400  142.4530 N   0  0  1  0  0  0  0  0  0  0  0  0
  191.2210  177.2350  141.7840 C   0  0  0  0  0  0  0  0  0  0  0  0
  187.8800  178.2840  139.6120 C   0  0  0  0  0  2  0  0  0  0  0  0
  190.7230  177.1260  137.4330 C   0  0  0  0  0  2  0  0  0  0  0  0
  189.4270  177.1300  144.4110 C   0  0  0  0  0  0  0  0  0  0  0  0
  189.5720  175.2050  136.3120 C   0  0  0  0  0  2  0  0  0  0  0  0
  186.5950  178.6160  141.7610 C   0  0  1  0  0  3  0  0  0  0  0  0
  186.4870  178.4090  140.2370 C   0  0  1  0  0  3  0  0  0  0  0  0
  190.8970  177.0360  144.2710 C   0  0  0  0  0  3  0  0  0  0  0  0
  189.7930  177.3700  146.8090 C   0  0  0  0  0  3  0  0  0  0  0  0
  188.9410  177.4590  145.7750 C   0  0  0  0  0  0  0  0  0  0  0  0
  187.5280  177.9700  145.9690 C   0  0  0  0  0  2  0  0  0  0  0  0
  185.9280  178.7320  147.5530 F   0  0  0  0  0  0  0  0  0  0  0  0
  188.1730  178.5530  148.3070 C   0  0  0  0  0  2  0  0  0  0  0  0
  187.0760  177.9730  147.4290 C   0  0  2  0  0  3  0  0  0  0  0  0
  189.3880  177.6380  148.2320 C   0  0  0  0  0  2  0  0  0  0  0  0
  184.1010  178.1610  141.8570 C   0  0  0  0  0  2  0  0  0  0  0  0
  182.9220  178.7250  142.6220 C   0  0  0  0  0  1  0  0  0  0  0  0
  185.6610  179.5090  139.5430 C   0  0  0  0  0  2  0  0  0  0  0  0
  184.5900  179.0540  138.5360 C   0  0  1  0  0  3  0  0  0  0  0  0
  184.5210  177.6630  138.4490 O   0  0  0  0  0  1  0  0  0  0  0  0
  182.1470  178.8630  138.7470 C   0  0  0  0  0  2  0  0  0  0  0  0
  183.2360  179.6260  138.8130 C   0  0  0  0  0  3  0  0  0  0  0  0
  1 18  1  0  0  0  0
  2 16  1  0  0  0  0
  2  5  2  0  0  0  0
  4  8  2  0  0  0  0
  5  7  1  0  0  0  0
  6  4  1  6  0  0  0
  6  2  1  0  0  0  0
  7  3  1  0  0  0  0
  7 19  2  0  0  0  0
  8 12  1  0  0  0  0
  9 13  1  6  0  0  0
  9 17  1  0  0  0  0
  9  6  1  0  0  0  0
 10 13  1  0  0  0  0
 11 23  2  0  0  0  0
 12 16  2  0  0  0  0
 14 31  1  6  0  0  0
 15 14  1  0  0  0  0
 15  3  1  1  0  0  0
 16 11  1  0  0  0  0
 17 22  1  0  0  0  0
 18  4  1  0  0  0  0
 19 25  1  0  0  0  0
 20  1  1  0  0  0  0
 20 10  1  0  0  0  0
 21 15  1  0  0  0  0
 21 14  1  0  0  0  0
 22 21  1  0  0  0  0
 23 19  1  0  0  0  0
 24 30  1  0  0  0  0
 25 26  1  0  0  0  0
 25 24  2  0  0  0  0
 26 29  1  0  0  0  0
 29 27  1  0  0  0  0
 29 28  1  0  0  0  0
 30 28  1  0  0  0  0
 31 32  1  0  0  0  0
 33 22  1  0  0  0  0
 34 37  1  0  0  0  0
 34 33  1  0  0  0  0
 35 34  1  0  0  0  0
 36 37  2  0  0  0  0
M  END
>  <MODEL>
3

>  <REMARK>
 VINA RESULT:      -6.8      3.396      7.302
  Name = 
  5 active torsions:
  status: ('A' for Active; 'I' for Inactive)
    1  A    between atoms: C_1  and  C_5
    2  A    between atoms: C_1  and  C_36
    3  A    between atoms: C_5  and  C_23
    4  A    between atoms: C_6  and  C_31
    5  A    between atoms: C_11  and  C_26
                            x       y       z     vdW  Elec       q    Type
                         _______ _______ _______ _____ _____    ______ ____

>  <TORSDO>
F 5

$$$$
=
 OpenBabel11052415213D

 37 42  0  0  1  0  0  0  0  0999 V2000
  186.4320  178.7290  146.2650 C   0  0  0  0  0  2  0  0  0  0  0  0
  187.4820  178.0270  141.8950 C   0  0  0  0  0  0  0  0  0  0  0  0
  186.2420  178.5680  138.5060 N   0  0  0  0  0  2  0  0  0  0  0  0
  186.7770  177.3370  144.2430 C   0  0  0  0  0  0  0  0  0  0  0  0
  187.1160  178.6240  140.7710 C   0  0  0  0  0  3  0  0  0  0  0  0
  186.6510  178.3690  143.1290 C   0  0  0  0  0  0  0  0  0  0  0  0
  187.3690  178.3130  139.3620 C   0  0  0  0  0  0  0  0  0  0  0  0
  187.7020  176.3770  144.1960 C   0  0  0  0  0  3  0  0  0  0  0  0
  185.1730  178.7160  142.7530 C   0  0  2  0  0  3  0  0  0  0  0  0
  185.2020  180.6710  144.7190 S   0  0  0  0  0  0  0  0  0  0  0  0
  189.5940  176.8440  140.9770 C   0  0  0  0  0  3  0  0  0  0  0  0
  188.6130  176.2220  143.0540 C   0  0  0  0  0  3  0  0  0  0  0  0
  184.3340  179.3070  143.8820 C   0  0  0  0  0  2  0  0  0  0  0  0
  183.9290  178.3190  138.3010 C   0  0  1  0  0  3  0  0  0  0  0  0
  185.0100  178.9490  139.0700 N   0  0  1  0  0  0  0  0  0  0  0  0
  188.5140  176.9740  141.9590 C   0  0  1  0  0  3  0  0  0  0  0  0
  184.4370  177.5520  142.0920 C   0  0  0  0  0  2  0  0  0  0  0  0
  186.0030  177.4770  145.5140 C   0  0  0  0  0  2  0  0  0  0  0  0
  188.4760  177.7210  138.8660 C   0  0  0  0  0  0  0  0  0  0  0  0
  185.3060  179.7530  146.2910 C   0  0  0  0  0  2  0  0  0  0  0  0
  184.3830  177.7080  139.5710 C   0  0  1  0  0  3  0  0  0  0  0  0
  183.6210  178.0070  140.8770 C   0  0  1  0  0  3  0  0  0  0  0  0
  189.5800  177.1830  139.6900 C   0  0  0  0  0  3  0  0  0  0  0  0
  189.2470  178.5570  136.7090 C   0  0  0  0  0  3  0  0  0  0  0  0
  188.6500  177.5710  137.3990 C   0  0  0  0  0  0  0  0  0  0  0  0
  188.2350  176.2840  136.7170 C   0  0  0  0  0  2  0  0  0  0  0  0
  188.1170  175.1190  134.6480 F   0  0  0  0  0  0  0  0  0  0  0  0
  189.4340  177.0950  134.6860 C   0  0  0  0  0  2  0  0  0  0  0  0
  188.1880  176.3870  135.1930 C   0  0  2  0  0  3  0  0  0  0  0  0
  189.4300  178.5230  135.2180 C   0  0  0  0  0  2  0  0  0  0  0  0
  182.6780  179.1810  138.4050 C   0  0  0  0  0  2  0  0  0  0  0  0
  181.6680  178.7330  137.3700 C   0  0  0  0  0  1  0  0  0  0  0  0
  182.2060  177.3990  140.8960 C   0  0  0  0  0  2  0  0  0  0  0  0
  181.0310  178.3580  141.1570 C   0  0  1  0  0  3  0  0  0  0  0  0
  179.8030  177.6980  141.0970 O   0  0  0  0  0  1  0  0  0  0  0  0
  180.6270  178.6270  143.5680 C   0  0  0  0  0  2  0  0  0  0  0  0
  181.1550  179.1080  142.4450 C   0  0  0  0  0  3  0  0  0  0  0  0
  1 20  1  0  0  0  0
  2 16  1  0  0  0  0
  2  6  1  0  0  0  0
  3  7  1  0  0  0  0
  4 18  1  0  0  0  0
  5  2  2  0  0  0  0
  6  4  2  0  0  0  0
  7  5  1  0  0  0  0
  8  4  1  0  0  0  0
  9 17  1  1  0  0  0
  9  6  1  0  0  0  0
  9 13  1  0  0  0  0
 10 20  1  0  0  0  0
 12  8  2  0  0  0  0
 13 10  1  0  0  0  0
 14 31  1  1  0  0  0
 14 15  1  0  0  0  0
 14 21  1  0  0  0  0
 15  3  1  6  0  0  0
 15 21  1  0  0  0  0
 16 11  1  1  0  0  0
 16 12  1  0  0  0  0
 18  1  1  0  0  0  0
 19  7  2  0  0  0  0
 19 23  1  0  0  0  0
 21 22  1  0  0  0  0
 22 33  1  0  0  0  0
 22 17  1  0  0  0  0
 23 11  2  0  0  0  0
 24 25  2  0  0  0  0
 25 19  1  0  0  0  0
 26 25  1  0  0  0  0
 27 29  1  0  0  0  0
 28 29  1  0  0  0  0
 28 30  1  0  0  0  0
 29 26  1  0  0  0  0
 30 24  1  0  0  0  0
 32 31  1  0  0  0  0
 33 34  1  0  0  0  0
 34 37  1  0  0  0  0
 35 34  1  0  0  0  0
 37 36  2  0  0  0  0
M  END
>  <MODEL>
4

>  <REMARK>
 VINA RESULT:      -5.8      2.800      6.237
  Name = 
  5 active torsions:
  status: ('A' for Active; 'I' for Inactive)
    1  A    between atoms: C_1  and  C_5
    2  A    between atoms: C_1  and  C_36
    3  A    between atoms: C_5  and  C_23
    4  A    between atoms: C_6  and  C_31
    5  A    between atoms: C_11  and  C_26
                            x       y       z     vdW  Elec       q    Type
                         _______ _______ _______ _____ _____    ______ ____

>  <TORSDO>
F 5

$$$$
=
 OpenBabel11052415213D

 37 42  0  0  1  0  0  0  0  0999 V2000
  192.9320  175.3080  137.9360 C   0  0  0  0  0  2  0  0  0  0  0  0
  190.4010  176.6850  141.4550 C   0  0  0  0  0  0  0  0  0  0  0  0
  186.9720  177.5080  142.3970 N   0  0  0  0  0  2  0  0  0  0  0  0
  192.1310  176.9550  139.6070 C   0  0  0  0  0  0  0  0  0  0  0  0
  189.1130  176.5670  141.7430 C   0  0  0  0  0  3  0  0  0  0  0  0
  190.7910  176.3570  140.0160 C   0  0  0  0  0  0  0  0  0  0  0  0
  188.2890  177.1190  142.8220 C   0  0  0  0  0  0  0  0  0  0  0  0
  192.9500  177.5010  140.5070 C   0  0  0  0  0  3  0  0  0  0  0  0
  189.6290  176.6650  139.0160 C   0  0  2  0  0  3  0  0  0  0  0  0
  190.3390  174.3940  137.5940 S   0  0  0  0  0  0  0  0  0  0  0  0
  191.2320  177.2360  143.8440 C   0  0  0  0  0  3  0  0  0  0  0  0
  192.5920  177.6100  141.9280 C   0  0  0  0  0  3  0  0  0  0  0  0
  189.8330  176.1430  137.5970 C   0  0  0  0  0  2  0  0  0  0  0  0
  185.7740  178.6050  140.7190 C   0  0  1  0  0  3  0  0  0  0  0  0
  186.6360  177.4590  141.0310 N   0  0  1  0  0  0  0  0  0  0  0  0
  191.3950  177.2500  142.3880 C   0  0  1  0  0  3  0  0  0  0  0  0
  189.2400  178.1430  138.9910 C   0  0  0  0  0  2  0  0  0  0  0  0
  192.6620  176.7770  138.2210 C   0  0  0  0  0  2  0  0  0  0  0  0
  188.7020  177.3850  144.0790 C   0  0  0  0  0  0  0  0  0  0  0  0
  191.9710  174.7800  136.8790 C   0  0  0  0  0  2  0  0  0  0  0  0
  187.2230  178.6680  140.4170 C   0  0  1  0  0  3  0  0  0  0  0  0
  187.7200  178.3350  138.9960 C   0  0  1  0  0  3  0  0  0  0  0  0
  190.1010  177.2650  144.5460 C   0  0  0  0  0  3  0  0  0  0  0  0
  188.1120  177.8760  146.3930 C   0  0  0  0  0  3  0  0  0  0  0  0
  187.7290  177.8340  145.1070 C   0  0  0  0  0  0  0  0  0  0  0  0
  186.3560  178.3160  144.6860 C   0  0  0  0  0  2  0  0  0  0  0  0
  184.2740  179.1810  145.4400 F   0  0  0  0  0  0  0  0  0  0  0  0
  186.0490  179.1510  147.0160 C   0  0  0  0  0  2  0  0  0  0  0  0
  185.3730  178.4500  145.8480 C   0  0  2  0  0  3  0  0  0  0  0  0
  187.1910  178.2720  147.5130 C   0  0  0  0  0  2  0  0  0  0  0  0
  184.8790  178.2480  139.5410 C   0  0  0  0  0  2  0  0  0  0  0  0
  183.8760  179.3590  139.3120 C   0  0  0  0  0  1  0  0  0  0  0  0
  187.2860  179.3790  137.9510 C   0  0  0  0  0  2  0  0  0  0  0  0
  187.1470  178.9010  136.4940 C   0  0  1  0  0  3  0  0  0  0  0  0
  188.3890  178.6270  135.9210 O   0  0  0  0  0  1  0  0  0  0  0  0
  186.6770  176.5780  135.8390 C   0  0  0  0  0  2  0  0  0  0  0  0
  186.2330  177.7280  136.3420 C   0  0  0  0  0  3  0  0  0  0  0  0
  1 18  1  0  0  0  0
  2  5  2  0  0  0  0
  2 16  1  0  0  0  0
  3  7  1  0  0  0  0
  4  6  2  0  0  0  0
  4  8  1  0  0  0  0
  5  7  1  0  0  0  0
  6  2  1  0  0  0  0
  7 19  2  0  0  0  0
  8 12  2  0  0  0  0
  9 13  1  6  0  0  0
  9  6  1  0  0  0  0
 10 13  1  0  0  0  0
 11 23  2  0  0  0  0
 14 31  1  6  0  0  0
 14 15  1  0  0  0  0
 15  3  1  1  0  0  0
 16 12  1  1  0  0  0
 16 11  1  0  0  0  0
 17 22  1  0  0  0  0
 17  9  1  0  0  0  0
 18  4  1  0  0  0  0
 19 23  1  0  0  0  0
 19 25  1  0  0  0  0
 20 10  1  0  0  0  0
 20  1  1  0  0  0  0
 21 14  1  0  0  0  0
 21 15  1  0  0  0  0
 22 21  1  0  0  0  0
 24 30  1  0  0  0  0
 25 24  2  0  0  0  0
 26 25  1  0  0  0  0
 26 29  1  0  0  0  0
 27 29  1  0  0  0  0
 28 30  1  0  0  0  0
 29 28  1  0  0  0  0
 32 31  1  0  0  0  0
 33 22  1  0  0  0  0
 34 33  1  0  0  0  0
 35 34  1  0  0  0  0
 36 37  2  0  0  0  0
 37 34  1  0  0  0  0
M  END
>  <MODEL>
5

>  <REMARK>
 VINA RESULT:      -5.7      3.719      7.655
  Name = 
  5 active torsions:
  status: ('A' for Active; 'I' for Inactive)
    1  A    between atoms: C_1  and  C_5
    2  A    between atoms: C_1  and  C_36
    3  A    between atoms: C_5  and  C_23
    4  A    between atoms: C_6  and  C_31
    5  A    between atoms: C_11  and  C_26
                            x       y       z     vdW  Elec       q    Type
                         _______ _______ _______ _____ _____    ______ ____

>  <TORSDO>
F 5

$$$$
=
 OpenBabel11052415213D

 37 42  0  0  1  0  0  0  0  0999 V2000
  191.2190  176.1870  145.4680 C   0  0  0  0  0  2  0  0  0  0  0  0
  186.9670  177.5700  144.6320 C   0  0  0  0  0  0  0  0  0  0  0  0
  184.5480  177.9900  141.9320 N   0  0  0  0  0  2  0  0  0  0  0  0
  189.4200  177.8780  145.2420 C   0  0  0  0  0  0  0  0  0  0  0  0
  186.1030  177.3000  143.6640 C   0  0  0  0  0  3  0  0  0  0  0  0
  188.4100  177.1420  144.3710 C   0  0  0  0  0  0  0  0  0  0  0  0
  184.7810  177.8440  143.3430 C   0  0  0  0  0  0  0  0  0  0  0  0
  189.0280  178.6330  146.2700 C   0  0  0  0  0  3  0  0  0  0  0  0
  188.7530  177.1670  142.8460 C   0  0  2  0  0  3  0  0  0  0  0  0
  190.2710  174.8770  143.2180 S   0  0  0  0  0  0  0  0  0  0  0  0
  185.2690  178.4970  146.3520 C   0  0  0  0  0  3  0  0  0  0  0  0
  187.6100  178.8470  146.5900 C   0  0  0  0  0  3  0  0  0  0  0  0
  190.0840  176.5240  142.4670 C   0  0  0  0  0  2  0  0  0  0  0  0
  185.4970  178.7090  139.9230 C   0  0  1  0  0  3  0  0  0  0  0  0
  185.5920  177.7410  141.0220 N   0  0  1  0  0  0  0  0  0  0  0  0
  186.6300  178.3720  145.8240 C   0  0  1  0  0  3  0  0  0  0  0  0
  188.6380  178.5620  142.2310 C   0  0  0  0  0  2  0  0  0  0  0  0
  190.8860  177.6260  145.1010 C   0  0  0  0  0  2  0  0  0  0  0  0
  183.8750  178.3050  144.2310 C   0  0  0  0  0  0  0  0  0  0  0  0
  191.6820  175.4120  144.2430 C   0  0  0  0  0  2  0  0  0  0  0  0
  186.4470  178.9460  141.0340 C   0  0  1  0  0  3  0  0  0  0  0  0
  187.9240  178.5310  140.8750 C   0  0  1  0  0  3  0  0  0  0  0  0
  184.1190  178.4410  145.6840 C   0  0  0  0  0  3  0  0  0  0  0  0
  181.4950  178.6490  144.6350 C   0  0  0  0  0  3  0  0  0  0  0  0
  182.5250  178.7210  143.7750 C   0  0  0  0  0  0  0  0  0  0  0  0
  182.3420  179.2960  142.3860 C   0  0  0  0  0  2  0  0  0  0  0  0
  180.7820  180.2000  140.8360 F   0  0  0  0  0  0  0  0  0  0  0  0
  180.0430  179.9680  143.0800 C   0  0  0  0  0  2  0  0  0  0  0  0
  180.8800  179.3900  141.9510 C   0  0  2  0  0  3  0  0  0  0  0  0
  180.0840  179.0030  144.2580 C   0  0  0  0  0  2  0  0  0  0  0  0
  186.1020  178.0970  138.6680 C   0  0  0  0  0  2  0  0  0  0  0  0
  184.9950  177.7030  137.7130 C   0  0  0  0  0  1  0  0  0  0  0  0
  188.6730  179.3790  139.8310 C   0  0  0  0  0  2  0  0  0  0  0  0
  189.4630  178.6240  138.7470 C   0  0  1  0  0  3  0  0  0  0  0  0
  189.3940  177.2430  138.9270 O   0  0  0  0  0  1  0  0  0  0  0  0
  189.0550  178.0780  136.3840 C   0  0  0  0  0  2  0  0  0  0  0  0
  189.0560  178.9890  137.3550 C   0  0  0  0  0  3  0  0  0  0  0  0
  2 16  1  0  0  0  0
  3  7  1  0  0  0  0
  4  8  1  0  0  0  0
  5  2  2  0  0  0  0
  6  2  1  0  0  0  0
  6  4  2  0  0  0  0
  7  5  1  0  0  0  0
  7 19  2  0  0  0  0
  8 12  2  0  0  0  0
  9 17  1  1  0  0  0
  9  6  1  0  0  0  0
 10 20  1  0  0  0  0
 13  9  1  0  0  0  0
 13 10  1  0  0  0  0
 14 31  1  6  0  0  0
 14 15  1  0  0  0  0
 14 21  1  0  0  0  0
 15 21  1  0  0  0  0
 15  3  1  1  0  0  0
 16 11  1  1  0  0  0
 16 12  1  0  0  0  0
 18  4  1  0  0  0  0
 18  1  1  0  0  0  0
 19 23  1  0  0  0  0
 20  1  1  0  0  0  0
 22 21  1  0  0  0  0
 22 17  1  0  0  0  0
 23 11  2  0  0  0  0
 25 19  1  0  0  0  0
 25 24  2  0  0  0  0
 26 25  1  0  0  0  0
 27 29  1  0  0  0  0
 28 30  1  0  0  0  0
 29 26  1  0  0  0  0
 29 28  1  0  0  0  0
 30 24  1  0  0  0  0
 32 31  1  0  0  0  0
 33 22  1  0  0  0  0
 34 35  1  0  0  0  0
 34 33  1  0  0  0  0
 36 37  2  0  0  0  0
 37 34  1  0  0  0  0
M  END
>  <MODEL>
6

>  <REMARK>
 VINA RESULT:      -5.7      3.711      7.817
  Name = 
  5 active torsions:
  status: ('A' for Active; 'I' for Inactive)
    1  A    between atoms: C_1  and  C_5
    2  A    between atoms: C_1  and  C_36
    3  A    between atoms: C_5  and  C_23
    4  A    between atoms: C_6  and  C_31
    5  A    between atoms: C_11  and  C_26
                            x       y       z     vdW  Elec       q    Type
                         _______ _______ _______ _____ _____    ______ ____

>  <TORSDO>
F 5

$$$$
=
 OpenBabel11052415213D

 37 42  0  0  1  0  0  0  0  0999 V2000
  191.7950  176.1060  148.4750 C   0  0  0  0  0  2  0  0  0  0  0  0
  188.0790  177.3820  146.1830 C   0  0  0  0  0  0  0  0  0  0  0  0
  186.6540  177.4900  142.8250 N   0  0  0  0  0  2  0  0  0  0  0  0
  190.2220  177.7600  147.5060 C   0  0  0  0  0  0  0  0  0  0  0  0
  187.5560  177.0030  145.0260 C   0  0  0  0  0  3  0  0  0  0  0  0
  189.5130  176.9280  146.4430 C   0  0  0  0  0  0  0  0  0  0  0  0
  186.4240  177.5060  144.2440 C   0  0  0  0  0  0  0  0  0  0  0  0
  189.5530  178.6280  148.2670 C   0  0  0  0  0  3  0  0  0  0  0  0
  190.3230  176.7780  145.1140 C   0  0  2  0  0  3  0  0  0  0  0  0
  191.5610  174.5470  146.1970 S   0  0  0  0  0  0  0  0  0  0  0  0
  185.9580  178.4990  147.1620 C   0  0  0  0  0  3  0  0  0  0  0  0
  188.1150  178.8760  148.0930 C   0  0  0  0  0  3  0  0  0  0  0  0
  191.6810  176.0970  145.2510 C   0  0  0  0  0  2  0  0  0  0  0  0
  188.2150  177.9740  141.1570 C   0  0  1  0  0  3  0  0  0  0  0  0
  187.9230  177.1380  142.3280 N   0  0  1  0  0  0  0  0  0  0  0  0
  187.4110  178.3160  147.1110 C   0  0  1  0  0  3  0  0  0  0  0  0
  190.4580  178.0930  144.3460 C   0  0  0  0  0  2  0  0  0  0  0  0
  191.6470  177.4930  147.8670 C   0  0  0  0  0  2  0  0  0  0  0  0
  185.3010  178.0660  144.7420 C   0  0  0  0  0  0  0  0  0  0  0  0
  192.5930  175.1960  147.5530 C   0  0  0  0  0  2  0  0  0  0  0  0
  188.7740  178.3370  142.4800 C   0  0  1  0  0  3  0  0  0  0  0  0
  190.2080  177.9070  142.8460 C   0  0  1  0  0  3  0  0  0  0  0  0
  185.0770  178.3670  146.1730 C   0  0  0  0  0  3  0  0  0  0  0  0
  184.4060  178.4930  142.5140 C   0  0  0  0  0  3  0  0  0  0  0  0
  184.1800  178.4260  143.8370 C   0  0  0  0  0  0  0  0  0  0  0  0
  182.7890  178.6280  144.4020 C   0  0  0  0  0  2  0  0  0  0  0  0
  180.5270  179.1420  143.8850 F   0  0  0  0  0  0  0  0  0  0  0  0
  181.9490  178.6290  142.0540 C   0  0  0  0  0  2  0  0  0  0  0  0
  181.8200  179.2840  143.4200 C   0  0  2  0  0  3  0  0  0  0  0  0
  183.3510  178.8920  141.5200 C   0  0  0  0  0  2  0  0  0  0  0  0
  189.1640  177.2220  140.2340 C   0  0  0  0  0  2  0  0  0  0  0  0
  189.2030  177.9050  138.8830 C   0  0  0  0  0  1  0  0  0  0  0  0
  191.2800  178.6300  142.0080 C   0  0  0  0  0  2  0  0  0  0  0  0
  192.4800  177.7950  141.5290 C   0  0  1  0  0  3  0  0  0  0  0  0
  192.3740  176.4630  141.9290 O   0  0  0  0  0  1  0  0  0  0  0  0
  192.7950  176.7740  139.3130 C   0  0  0  0  0  2  0  0  0  0  0  0
  192.7060  177.8780  140.0530 C   0  0  0  0  0  3  0  0  0  0  0  0
  2  6  1  0  0  0  0
  2 16  1  0  0  0  0
  3  7  1  0  0  0  0
  4 18  1  0  0  0  0
  4  8  1  0  0  0  0
  5  2  2  0  0  0  0
  6  4  2  0  0  0  0
  7 19  2  0  0  0  0
  7  5  1  0  0  0  0
  9 17  1  1  0  0  0
  9 13  1  0  0  0  0
  9  6  1  0  0  0  0
 10 20  1  0  0  0  0
 12  8  2  0  0  0  0
 13 10  1  0  0  0  0
 14 31  1  6  0  0  0
 14 15  1  0  0  0  0
 14 21  1  0  0  0  0
 15 21  1  0  0  0  0
 15  3  1  1  0  0  0
 16 11  1  1  0  0  0
 16 12  1  0  0  0  0
 18  1  1  0  0  0  0
 19 23  1  0  0  0  0
 20  1  1  0  0  0  0
 21 22  1  0  0  0  0
 22 17  1  0  0  0  0
 23 11  2  0  0  0  0
 24 25  2  0  0  0  0
 25 26  1  0  0  0  0
 25 19  1  0  0  0  0
 28 29  1  0  0  0  0
 29 27  1  0  0  0  0
 29 26  1  0  0  0  0
 30 28  1  0  0  0  0
 30 24  1  0  0  0  0
 32 31  1  0  0  0  0
 33 22  1  0  0  0  0
 34 35  1  0  0  0  0
 34 33  1  0  0  0  0
 36 37  2  0  0  0  0
 37 34  1  0  0  0  0
M  END
>  <MODEL>
7

>  <REMARK>
 VINA RESULT:      -5.7      4.971      9.230
  Name = 
  5 active torsions:
  status: ('A' for Active; 'I' for Inactive)
    1  A    between atoms: C_1  and  C_5
    2  A    between atoms: C_1  and  C_36
    3  A    between atoms: C_5  and  C_23
    4  A    between atoms: C_6  and  C_31
    5  A    between atoms: C_11  and  C_26
                            x       y       z     vdW  Elec       q    Type
                         _______ _______ _______ _____ _____    ______ ____

>  <TORSDO>
F 5

$$$$
=
 OpenBabel11052415213D

 37 42  0  0  1  0  0  0  0  0999 V2000
  192.3290  177.8340  142.3150 C   0  0  0  0  0  2  0  0  0  0  0  0
  188.2120  178.2290  140.4230 C   0  0  0  0  0  0  0  0  0  0  0  0
  184.7820  179.2340  141.1600 N   0  0  0  0  0  2  0  0  0  0  0  0
  190.2140  176.9640  141.3580 C   0  0  0  0  0  0  0  0  0  0  0  0
  187.1530  178.9730  140.7090 C   0  0  0  0  0  3  0  0  0  0  0  0
  189.2900  178.1660  141.5030 C   0  0  2  0  0  3  0  0  0  0  0  0
  185.7930  179.0030  140.1650 C   0  0  0  0  0  0  0  0  0  0  0  0
  190.1960  176.2040  140.2610 C   0  0  0  0  0  3  0  0  0  0  0  0
  188.6840  178.3290  142.9350 C   0  0  2  0  0  3  0  0  0  0  0  0
  190.9160  179.8160  143.6380 S   0  0  0  0  0  0  0  0  0  0  0  0
  187.5570  177.6310  137.9910 C   0  0  0  0  0  3  0  0  0  0  0  0
  189.2550  176.4420  139.1590 C   0  0  0  0  0  3  0  0  0  0  0  0
  189.7010  178.5260  144.0550 C   0  0  0  0  0  2  0  0  0  0  0  0
  184.0700  178.6460  143.3050 C   0  0  1  0  0  3  0  0  0  0  0  0
  185.1380  179.2780  142.5210 N   0  0  1  0  0  0  0  0  0  0  0  0
  188.3050  177.3740  139.2240 C   0  0  0  0  0  0  0  0  0  0  0  0
  187.6990  177.2170  143.2970 C   0  0  0  0  0  2  0  0  0  0  0  0
  191.3060  176.7090  142.3460 C   0  0  0  0  0  2  0  0  0  0  0  0
  185.4410  178.7200  138.8930 C   0  0  0  0  0  0  0  0  0  0  0  0
  192.2970  178.6270  143.6150 C   0  0  0  0  0  2  0  0  0  0  0  0
  185.2840  177.8730  142.9560 C   0  0  1  0  0  3  0  0  0  0  0  0
  186.4390  177.7670  143.9720 C   0  0  1  0  0  3  0  0  0  0  0  0
  186.3700  178.2190  137.8570 C   0  0  0  0  0  3  0  0  0  0  0  0
  183.4330  177.9160  137.7680 C   0  0  0  0  0  3  0  0  0  0  0  0
  184.0370  178.9050  138.4470 C   0  0  0  0  0  0  0  0  0  0  0  0
  183.2810  180.1600  138.8340 C   0  0  0  0  0  2  0  0  0  0  0  0
  181.2110  181.3180  138.6820 F   0  0  0  0  0  0  0  0  0  0  0  0
  181.2090  179.0390  138.0160 C   0  0  0  0  0  2  0  0  0  0  0  0
  181.9770  180.3500  138.0610 C   0  0  2  0  0  3  0  0  0  0  0  0
  182.0320  178.0220  137.2350 C   0  0  0  0  0  2  0  0  0  0  0  0
  184.0600  179.2460  144.7040 C   0  0  0  0  0  2  0  0  0  0  0  0
  182.8600  178.7270  145.4690 C   0  0  0  0  0  1  0  0  0  0  0  0
  186.0650  176.9380  145.2150 C   0  0  0  0  0  2  0  0  0  0  0  0
  186.7380  177.3220  146.5450 C   0  0  1  0  0  3  0  0  0  0  0  0
  188.0090  176.7590  146.6610 O   0  0  0  0  0  1  0  0  0  0  0  0
  186.0560  179.3770  147.7110 C   0  0  0  0  0  2  0  0  0  0  0  0
  186.8010  178.7980  146.7720 C   0  0  0  0  0  3  0  0  0  0  0  0
  1 18  1  0  0  0  0
  1 20  1  0  0  0  0
  2  5  2  0  0  0  0
  4  6  1  0  0  0  0
  4 18  1  0  0  0  0
  6  2  1  6  0  0  0
  6  9  1  0  0  0  0
  7  5  1  0  0  0  0
  7  3  1  0  0  0  0
  8  4  2  0  0  0  0
  9 17  1  1  0  0  0
  9 13  1  0  0  0  0
 10 13  1  0  0  0  0
 11 16  1  0  0  0  0
 12 16  2  0  0  0  0
 12  8  1  0  0  0  0
 14 31  1  1  0  0  0
 15  3  1  6  0  0  0
 15 21  1  0  0  0  0
 15 14  1  0  0  0  0
 16  2  1  0  0  0  0
 17 22  1  0  0  0  0
 19  7  2  0  0  0  0
 20 10  1  0  0  0  0
 21 14  1  0  0  0  0
 21 22  1  0  0  0  0
 22 33  1  0  0  0  0
 23 11  2  0  0  0  0
 23 19  1  0  0  0  0
 24 25  2  0  0  0  0
 25 26  1  0  0  0  0
 25 19  1  0  0  0  0
 28 29  1  0  0  0  0
 29 27  1  0  0  0  0
 29 26  1  0  0  0  0
 30 24  1  0  0  0  0
 30 28  1  0  0  0  0
 31 32  1  0  0  0  0
 33 34  1  0  0  0  0
 34 35  1  0  0  0  0
 34 37  1  0  0  0  0
 37 36  2  0  0  0  0
M  END
>  <MODEL>
8

>  <REMARK>
 VINA RESULT:      -5.5      3.873      8.813
  Name = 
  5 active torsions:
  status: ('A' for Active; 'I' for Inactive)
    1  A    between atoms: C_1  and  C_5
    2  A    between atoms: C_1  and  C_36
    3  A    between atoms: C_5  and  C_23
    4  A    between atoms: C_6  and  C_31
    5  A    between atoms: C_11  and  C_26
                            x       y       z     vdW  Elec       q    Type
                         _______ _______ _______ _____ _____    ______ ____

>  <TORSDO>
F 5

$$$$
=
 OpenBabel11052415213D

 37 42  0  0  1  0  0  0  0  0999 V2000
  195.6400  174.2370  135.1510 C   0  0  0  0  0  2  0  0  0  0  0  0
  191.1130  173.8910  135.4330 C   0  0  0  0  0  0  0  0  0  0  0  0
  188.1280  175.7680  136.3740 N   0  0  0  0  0  2  0  0  0  0  0  0
  193.5160  173.3990  136.1170 C   0  0  0  0  0  0  0  0  0  0  0  0
  190.1360  174.7860  135.4260 C   0  0  0  0  0  2  0  0  0  0  0  0
  192.5210  174.4470  135.6370 C   0  0  0  0  0  0  0  0  0  0  0  0
  188.6910  174.6700  135.6370 C   0  0  0  0  0  0  0  0  0  0  0  0
  193.2070  172.1010  136.1230 C   0  0  0  0  0  3  0  0  0  0  0  0
  192.5080  175.7510  136.5000 C   0  0  2  0  0  3  0  0  0  0  0  0
  194.5250  176.7600  134.8870 S   0  0  0  0  0  0  0  0  0  0  0  0
  189.6760  171.8170  134.8550 C   0  0  0  0  0  3  0  0  0  0  0  0
  191.8820  171.6100  135.7220 C   0  0  0  0  0  3  0  0  0  0  0  0
  193.8290  176.5120  136.5510 C   0  0  0  0  0  2  0  0  0  0  0  0
  188.4370  177.1610  138.2230 C   0  0  1  0  0  3  0  0  0  0  0  0
  188.9760  176.7490  136.9210 N   0  0  1  0  0  0  0  0  0  0  0  0
  190.8820  172.4330  135.4140 C   0  0  0  0  0  0  0  0  0  0  0  0
  191.9650  175.5260  137.9110 C   0  0  0  0  0  2  0  0  0  0  0  0
  194.9350  173.7640  136.4130 C   0  0  0  0  0  2  0  0  0  0  0  0
  187.9250  173.6060  135.3160 C   0  0  0  0  0  0  0  0  0  0  0  0
  195.9780  175.7190  135.2470 C   0  0  0  0  0  2  0  0  0  0  0  0
  189.5350  176.1680  138.1590 C   0  0  1  0  0  3  0  0  0  0  0  0
  190.9950  176.6340  138.3330 C   0  0  1  0  0  3  0  0  0  0  0  0
  188.4460  172.3240  134.7930 C   0  0  0  0  0  3  0  0  0  0  0  0
  185.7310  174.4090  134.6190 C   0  0  0  0  0  3  0  0  0  0  0  0
  186.4500  173.6690  135.4790 C   0  0  0  0  0  0  0  0  0  0  0  0
  185.7730  172.8390  136.5500 C   0  0  0  0  0  2  0  0  0  0  0  0
  183.6940  172.2460  137.5380 F   0  0  0  0  0  0  0  0  0  0  0  0
  183.5980  173.4120  135.4710 C   0  0  0  0  0  2  0  0  0  0  0  0
  184.3180  173.2330  136.7990 C   0  0  2  0  0  3  0  0  0  0  0  0
  184.2410  174.5740  134.7250 C   0  0  0  0  0  2  0  0  0  0  0  0
  188.8700  178.5920  138.5090 C   0  0  0  0  0  2  0  0  0  0  0  0
  188.9020  179.3790  137.2160 C   0  0  0  0  0  1  0  0  0  0  0  0
  191.2980  177.1280  139.7610 C   0  0  0  0  0  2  0  0  0  0  0  0
  190.3280  176.6960  140.8750 C   0  0  1  0  0  3  0  0  0  0  0  0
  190.9060  175.7530  141.7250 O   0  0  0  0  0  1  0  0  0  0  0  0
  188.5710  177.7870  142.2050 C   0  0  0  0  0  2  0  0  0  0  0  0
  189.7860  177.8450  141.6650 C   0  0  0  0  0  3  0  0  0  0  0  0
  1 20  1  0  0  0  0
  1 18  1  0  0  0  0
  2  6  1  0  0  0  0
  4  8  1  0  0  0  0
  4 18  1  0  0  0  0
  5  2  1  0  0  0  0
  5  7  1  0  0  0  0
  6  4  2  0  0  0  0
  6  9  1  0  0  0  0
  7  3  1  0  0  0  0
  9 13  1  1  0  0  0
  9 17  1  0  0  0  0
 10 20  1  0  0  0  0
 10 13  1  0  0  0  0
 11 16  1  0  0  0  0
 12  8  2  0  0  0  0
 14 31  1  1  0  0  0
 15  3  1  6  0  0  0
 15 21  1  0  0  0  0
 15 14  1  0  0  0  0
 16  2  2  0  0  0  0
 16 12  1  0  0  0  0
 17 22  1  0  0  0  0
 19 25  1  0  0  0  0
 19  7  2  0  0  0  0
 21 14  1  0  0  0  0
 21 22  1  0  0  0  0
 22 33  1  0  0  0  0
 23 11  2  0  0  0  0
 23 19  1  0  0  0  0
 24 30  1  0  0  0  0
 24 25  2  0  0  0  0
 25 26  1  0  0  0  0
 26 29  1  0  0  0  0
 28 29  1  0  0  0  0
 29 27  1  0  0  0  0
 30 28  1  0  0  0  0
 32 31  1  0  0  0  0
 33 34  1  0  0  0  0
 34 37  1  0  0  0  0
 34 35  1  0  0  0  0
 37 36  2  0  0  0  0
M  END
>  <MODEL>
9

>  <REMARK>
 VINA RESULT:      -5.3      5.804     10.600
  Name = 
  5 active torsions:
  status: ('A' for Active; 'I' for Inactive)
    1  A    between atoms: C_1  and  C_5
    2  A    between atoms: C_1  and  C_36
    3  A    between atoms: C_5  and  C_23
    4  A    between atoms: C_6  and  C_31
    5  A    between atoms: C_11  and  C_26
                            x       y       z     vdW  Elec       q    Type
                         _______ _______ _______ _____ _____    ______ ____

>  <TORSDO>
F 5

$$$$
