=
 OpenBabel11052416503D

 32 36  0  0  1  0  0  0  0  0999 V2000
  185.7520  178.9930  140.0390 C   0  0  0  0  0  2  0  0  0  0  0  0
  183.0680  178.9800  145.1600 C   0  0  0  0  0  3  0  0  0  0  0  0
  184.3820  178.9970  145.6630 C   0  0  0  0  0  3  0  0  0  0  0  0
  183.8790  177.8940  138.6120 C   0  0  2  0  0  3  0  0  0  0  0  0
  182.9790  177.5130  140.8730 C   0  0  0  0  0  2  0  0  0  0  0  0
  182.4800  176.0180  139.1170 C   0  0  0  0  0  1  0  0  0  0  0  0
  182.8370  178.7770  143.7900 C   0  0  0  0  0  3  0  0  0  0  0  0
  183.9810  178.4880  141.4880 C   0  0  1  0  0  3  0  0  0  0  0  0
  183.9380  178.5510  142.9620 C   0  0  0  0  0  0  0  0  0  0  0  0
  186.1800  178.4180  142.3270 C   0  0  2  0  0  3  0  0  0  0  0  0
  183.5020  176.9070  139.6450 N   0  0  0  0  0  0  0  0  0  0  0  0
  185.4720  178.8040  144.7990 C   0  0  0  0  0  3  0  0  0  0  0  0
  185.2140  178.5580  143.4490 C   0  0  0  0  0  0  0  0  0  0  0  0
  185.3420  178.3730  138.6960 C   0  0  0  0  0  2  0  0  0  0  0  0
  185.3630  178.1250  141.1400 N   0  0  2  0  0  0  0  0  0  0  0  0
  180.9130  180.8360  137.4930 C   0  0  0  0  0  0  0  0  0  0  0  0
  181.8930  177.4900  136.4370 F   0  0  0  0  0  0  0  0  0  0  0  0
  180.9600  179.6290  136.7940 C   0  0  0  0  0  3  0  0  0  0  0  0
  181.8070  181.0710  138.5370 C   0  0  0  0  0  3  0  0  0  0  0  0
  182.8160  178.8850  138.1800 C   0  0  0  0  0  0  0  0  0  0  0  0
  179.9960  181.7760  137.1610 F   0  0  0  0  0  0  0  0  0  0  0  0
  182.7520  180.1000  138.8770 C   0  0  0  0  0  3  0  0  0  0  0  0
  181.9020  178.6530  137.1300 C   0  0  0  0  0  0  0  0  0  0  0  0
  187.2520  177.3290  142.5390 C   0  0  0  0  0  2  0  0  0  0  0  0
  189.6840  177.4650  141.6870 C   0  0  0  0  0  2  0  0  0  0  0  0
  191.1250  177.6060  142.0970 C   0  0  0  0  0  0  0  0  0  0  0  0
  189.1960  177.3810  144.1910 C   0  0  0  0  0  0  0  0  0  0  0  0
  190.4950  177.4600  144.4850 C   0  0  0  0  0  3  0  0  0  0  0  0
  191.4960  177.9850  143.5010 C   0  0  0  0  0  2  0  0  0  0  0  0
  192.0020  177.4370  141.2680 O   0  0  0  0  0  0  0  0  0  0  0  0
  188.3060  176.9860  145.1820 O   0  0  0  0  0  1  0  0  0  0  0  0
  188.6980  177.7840  142.8230 C   0  0  2  0  0  3  0  0  0  0  0  0
  2  3  1  0  0  0  0
  4 20  1  1  0  0  0
  4 14  1  0  0  0  0
  4 11  1  0  0  0  0
  6 11  1  0  0  0  0
  7  2  2  0  0  0  0
  8  5  1  1  0  0  0
  8  9  1  0  0  0  0
  9 13  2  0  0  0  0
  9  7  1  0  0  0  0
 10 24  1  1  0  0  0
 10 13  1  0  0  0  0
 11  5  1  0  0  0  0
 12  3  2  0  0  0  0
 13 12  1  0  0  0  0
 14  1  1  0  0  0  0
 15  1  1  6  0  0  0
 15  8  1  0  0  0  0
 15 10  1  0  0  0  0
 16 19  1  0  0  0  0
 17 23  1  0  0  0  0
 18 23  1  0  0  0  0
 18 16  2  0  0  0  0
 19 22  2  0  0  0  0
 20 22  1  0  0  0  0
 21 16  1  0  0  0  0
 23 20  2  0  0  0  0
 25 26  1  0  0  0  0
 25 32  1  0  0  0  0
 26 29  1  0  0  0  0
 27 28  2  0  0  0  0
 27 31  1  0  0  0  0
 29 28  1  0  0  0  0
 30 26  2  0  0  0  0
 32 24  1  6  0  0  0
 32 27  1  0  0  0  0
M  END
>  <MODEL>
1

>  <REMARK>
 VINA RESULT:      -8.8      0.000      0.000
  Name = 
  3 active torsions:
  status: ('A' for Active; 'I' for Inactive)
    1  A    between atoms: C_8  and  C_19
    2  A    between atoms: C_16  and  C_27
    3  A    between atoms: C_27  and  C_32
                            x       y       z     vdW  Elec       q    Type
                         _______ _______ _______ _____ _____    ______ ____

>  <TORSDO>
F 3

$$$$
=
 OpenBabel11052416503D

 32 36  0  0  1  0  0  0  0  0999 V2000
  190.5260  176.0290  142.1320 C   0  0  0  0  0  2  0  0  0  0  0  0
  185.9180  178.9290  140.1880 C   0  0  0  0  0  3  0  0  0  0  0  0
  186.2290  178.2830  138.9770 C   0  0  0  0  0  3  0  0  0  0  0  0
  191.1720  177.5950  144.1030 C   0  0  2  0  0  3  0  0  0  0  0  0
  189.4970  178.9990  142.9670 C   0  0  0  0  0  2  0  0  0  0  0  0
  191.2610  179.9860  144.1850 C   0  0  0  0  0  1  0  0  0  0  0  0
  186.8060  178.8640  141.2730 C   0  0  0  0  0  3  0  0  0  0  0  0
  189.0200  177.8250  142.1150 C   0  0  1  0  0  3  0  0  0  0  0  0
  188.0120  178.1840  141.0980 C   0  0  0  0  0  0  0  0  0  0  0  0
  189.6000  176.8180  140.0660 C   0  0  2  0  0  3  0  0  0  0  0  0
  190.9000  178.8440  143.3610 N   0  0  0  0  0  0  0  0  0  0  0  0
  187.4330  177.5740  138.8430 C   0  0  0  0  0  3  0  0  0  0  0  0
  188.3210  177.5640  139.9210 C   0  0  0  0  0  0  0  0  0  0  0  0
  191.5550  176.3970  143.2110 C   0  0  0  0  0  2  0  0  0  0  0  0
  190.1350  177.2110  141.3780 N   0  0  2  0  0  0  0  0  0  0  0  0
  188.6770  176.9000  147.5670 C   0  0  0  0  0  0  0  0  0  0  0  0
  192.1890  176.5150  146.6800 F   0  0  0  0  0  0  0  0  0  0  0  0
  190.0360  176.5940  147.6450 C   0  0  0  0  0  3  0  0  0  0  0  0
  188.1490  177.4290  146.3900 C   0  0  0  0  0  3  0  0  0  0  0  0
  190.3470  177.3360  145.3490 C   0  0  0  0  0  0  0  0  0  0  0  0
  187.8720  176.6890  148.6360 F   0  0  0  0  0  0  0  0  0  0  0  0
  188.9810  177.6450  145.2880 C   0  0  0  0  0  3  0  0  0  0  0  0
  190.8740  176.8080  146.5470 C   0  0  0  0  0  0  0  0  0  0  0  0
  190.6280  177.0910  138.9490 C   0  0  0  0  0  2  0  0  0  0  0  0
  192.9990  176.3930  138.2050 C   0  0  0  0  0  2  0  0  0  0  0  0
  193.8050  175.3400  137.4960 C   0  0  0  0  0  0  0  0  0  0  0  0
  190.9670  175.0190  137.4990 C   0  0  0  0  0  0  0  0  0  0  0  0
  191.7370  174.1460  136.8460 C   0  0  0  0  0  3  0  0  0  0  0  0
  193.2010  174.0130  137.1410 C   0  0  0  0  0  2  0  0  0  0  0  0
  194.9750  175.5580  137.2320 O   0  0  0  0  0  0  0  0  0  0  0  0
  189.6000  175.0200  137.2560 O   0  0  0  0  0  1  0  0  0  0  0  0
  191.5670  175.9390  138.5350 C   0  0  2  0  0  3  0  0  0  0  0  0
  1 14  1  0  0  0  0
  2  7  1  0  0  0  0
  3  2  2  0  0  0  0
  4 20  1  6  0  0  0
  5 11  1  0  0  0  0
  8  5  1  6  0  0  0
  9  7  2  0  0  0  0
  9  8  1  0  0  0  0
 10 24  1  6  0  0  0
 10 15  1  0  0  0  0
 11  4  1  0  0  0  0
 11  6  1  0  0  0  0
 12  3  1  0  0  0  0
 12 13  2  0  0  0  0
 13 10  1  0  0  0  0
 13  9  1  0  0  0  0
 14  4  1  0  0  0  0
 15  8  1  0  0  0  0
 15  1  1  1  0  0  0
 16 18  1  0  0  0  0
 16 21  1  0  0  0  0
 19 16  2  0  0  0  0
 20 23  1  0  0  0  0
 22 20  2  0  0  0  0
 22 19  1  0  0  0  0
 23 17  1  0  0  0  0
 23 18  2  0  0  0  0
 25 32  1  0  0  0  0
 26 25  1  0  0  0  0
 27 32  1  0  0  0  0
 28 29  1  0  0  0  0
 28 27  2  0  0  0  0
 29 26  1  0  0  0  0
 30 26  2  0  0  0  0
 31 27  1  0  0  0  0
 32 24  1  6  0  0  0
M  END
>  <MODEL>
2

>  <REMARK>
 VINA RESULT:      -8.2      5.206      8.613
  Name = 
  3 active torsions:
  status: ('A' for Active; 'I' for Inactive)
    1  A    between atoms: C_8  and  C_19
    2  A    between atoms: C_16  and  C_27
    3  A    between atoms: C_27  and  C_32
                            x       y       z     vdW  Elec       q    Type
                         _______ _______ _______ _____ _____    ______ ____

>  <TORSDO>
F 3

$$$$
=
 OpenBabel11052416503D

 32 36  0  0  1  0  0  0  0  0999 V2000
  190.6740  176.1370  142.0150 C   0  0  0  0  0  2  0  0  0  0  0  0
  185.9500  178.8910  140.1390 C   0  0  0  0  0  3  0  0  0  0  0  0
  186.2960  178.3010  138.9090 C   0  0  0  0  0  3  0  0  0  0  0  0
  191.2390  177.6630  144.0420 C   0  0  2  0  0  3  0  0  0  0  0  0
  189.5080  179.0280  142.9430 C   0  0  0  0  0  2  0  0  0  0  0  0
  191.2200  180.0510  144.2050 C   0  0  0  0  0  1  0  0  0  0  0  0
  186.8350  178.8290  141.2270 C   0  0  0  0  0  3  0  0  0  0  0  0
  189.0890  177.8630  142.0490 C   0  0  1  0  0  3  0  0  0  0  0  0
  188.0710  178.2100  141.0380 C   0  0  0  0  0  0  0  0  0  0  0  0
  189.7240  176.9530  139.9710 C   0  0  2  0  0  3  0  0  0  0  0  0
  190.9150  178.9220  143.3400 N   0  0  0  0  0  0  0  0  0  0  0  0
  187.5320  177.6520  138.7600 C   0  0  0  0  0  3  0  0  0  0  0  0
  188.4130  177.6450  139.8420 C   0  0  0  0  0  0  0  0  0  0  0  0
  191.6800  176.5140  143.1120 C   0  0  0  0  0  2  0  0  0  0  0  0
  190.2340  177.3250  141.2990 N   0  0  2  0  0  0  0  0  0  0  0  0
  188.7610  176.7450  147.4660 C   0  0  0  0  0  0  0  0  0  0  0  0
  192.2770  176.4660  146.5580 F   0  0  0  0  0  0  0  0  0  0  0  0
  190.1250  176.4580  147.5270 C   0  0  0  0  0  3  0  0  0  0  0  0
  188.2230  177.3260  146.3180 C   0  0  0  0  0  3  0  0  0  0  0  0
  190.4200  177.3250  145.2730 C   0  0  0  0  0  0  0  0  0  0  0  0
  187.9610  176.4650  148.5220 F   0  0  0  0  0  0  0  0  0  0  0  0
  189.0490  177.6140  145.2290 C   0  0  0  0  0  3  0  0  0  0  0  0
  190.9580  176.7440  146.4410 C   0  0  0  0  0  0  0  0  0  0  0  0
  190.7440  177.3090  138.8700 C   0  0  0  0  0  2  0  0  0  0  0  0
  190.0050  175.1300  137.7010 C   0  0  0  0  0  2  0  0  0  0  0  0
  190.4750  173.9330  136.9210 C   0  0  0  0  0  0  0  0  0  0  0  0
  192.4820  175.7110  137.9010 C   0  0  0  0  0  0  0  0  0  0  0  0
  192.8340  174.6050  137.2440 C   0  0  0  0  0  3  0  0  0  0  0  0
  191.8680  173.8690  136.3660 C   0  0  0  0  0  2  0  0  0  0  0  0
  189.7030  173.0130  136.7130 O   0  0  0  0  0  0  0  0  0  0  0  0
  193.4520  176.4060  138.6130 O   0  0  0  0  0  1  0  0  0  0  0  0
  191.0690  176.2350  137.8110 C   0  0  2  0  0  3  0  0  0  0  0  0
  1 14  1  0  0  0  0
  2  7  1  0  0  0  0
  3  2  2  0  0  0  0
  4 20  1  6  0  0  0
  5 11  1  0  0  0  0
  8  5  1  6  0  0  0
  9  7  2  0  0  0  0
  9  8  1  0  0  0  0
 10 24  1  6  0  0  0
 10 15  1  0  0  0  0
 11  4  1  0  0  0  0
 11  6  1  0  0  0  0
 12  3  1  0  0  0  0
 12 13  2  0  0  0  0
 13 10  1  0  0  0  0
 13  9  1  0  0  0  0
 14  4  1  0  0  0  0
 15  1  1  1  0  0  0
 15  8  1  0  0  0  0
 16 18  1  0  0  0  0
 16 21  1  0  0  0  0
 19 16  2  0  0  0  0
 20 23  1  0  0  0  0
 22 20  2  0  0  0  0
 22 19  1  0  0  0  0
 23 17  1  0  0  0  0
 23 18  2  0  0  0  0
 25 32  1  0  0  0  0
 26 25  1  0  0  0  0
 27 31  1  0  0  0  0
 28 27  2  0  0  0  0
 29 26  1  0  0  0  0
 29 28  1  0  0  0  0
 30 26  2  0  0  0  0
 32 27  1  0  0  0  0
 32 24  1  1  0  0  0
M  END
>  <MODEL>
3

>  <REMARK>
 VINA RESULT:      -8.0      5.180      8.688
  Name = 
  3 active torsions:
  status: ('A' for Active; 'I' for Inactive)
    1  A    between atoms: C_8  and  C_19
    2  A    between atoms: C_16  and  C_27
    3  A    between atoms: C_27  and  C_32
                            x       y       z     vdW  Elec       q    Type
                         _______ _______ _______ _____ _____    ______ ____

>  <TORSDO>
F 3

$$$$
=
 OpenBabel11052416503D

 32 36  0  0  1  0  0  0  0  0999 V2000
  188.9110  176.5680  142.5520 C   0  0  0  0  0  2  0  0  0  0  0  0
  184.7710  178.8410  145.8870 C   0  0  0  0  0  3  0  0  0  0  0  0
  183.9840  178.6840  144.7300 C   0  0  0  0  0  3  0  0  0  0  0  0
  190.9830  177.5510  143.7750 C   0  0  2  0  0  3  0  0  0  0  0  0
  189.1870  178.8330  144.8690 C   0  0  0  0  0  2  0  0  0  0  0  0
  191.3450  179.7590  144.6290 C   0  0  0  0  0  1  0  0  0  0  0  0
  186.1590  178.6410  145.8300 C   0  0  0  0  0  3  0  0  0  0  0  0
  188.1150  177.9050  144.3040 C   0  0  1  0  0  3  0  0  0  0  0  0
  186.7310  178.3290  144.5950 C   0  0  0  0  0  0  0  0  0  0  0  0
  186.8260  177.7320  142.3400 C   0  0  2  0  0  3  0  0  0  0  0  0
  190.3710  178.8760  144.0060 N   0  0  0  0  0  0  0  0  0  0  0  0
  184.5830  178.3330  143.5090 C   0  0  0  0  0  3  0  0  0  0  0  0
  185.9710  178.1860  143.4690 C   0  0  0  0  0  0  0  0  0  0  0  0
  190.4290  176.8010  142.5470 C   0  0  0  0  0  2  0  0  0  0  0  0
  188.2070  177.8080  142.8400 N   0  0  2  0  0  0  0  0  0  0  0  0
  192.0220  175.3740  147.3650 C   0  0  0  0  0  0  0  0  0  0  0  0
  192.3530  174.9120  143.7670 F   0  0  0  0  0  0  0  0  0  0  0  0
  192.3300  174.8120  146.1250 C   0  0  0  0  0  3  0  0  0  0  0  0
  191.3980  176.6200  147.4290 C   0  0  0  0  0  3  0  0  0  0  0  0
  191.3750  176.7460  144.9990 C   0  0  0  0  0  0  0  0  0  0  0  0
  192.3330  174.7120  148.5050 F   0  0  0  0  0  0  0  0  0  0  0  0
  191.0780  177.3000  146.2520 C   0  0  0  0  0  3  0  0  0  0  0  0
  192.0130  175.4880  144.9430 C   0  0  0  0  0  0  0  0  0  0  0  0
  186.6630  178.5540  141.0450 C   0  0  0  0  0  2  0  0  0  0  0  0
  188.5420  178.0890  139.3370 C   0  0  0  0  0  2  0  0  0  0  0  0
  188.8430  177.7330  137.9070 C   0  0  0  0  0  0  0  0  0  0  0  0
  186.1050  178.1840  138.5830 C   0  0  0  0  0  0  0  0  0  0  0  0
  186.4460  177.9120  137.3220 C   0  0  0  0  0  3  0  0  0  0  0  0
  187.7570  177.2710  136.9810 C   0  0  0  0  0  2  0  0  0  0  0  0
  189.9920  177.7920  137.5050 O   0  0  0  0  0  0  0  0  0  0  0  0
  184.8340  178.6790  138.8440 O   0  0  0  0  0  1  0  0  0  0  0  0
  187.0640  177.8890  139.7120 C   0  0  2  0  0  3  0  0  0  0  0  0
  3  2  2  0  0  0  0
  4 11  1  0  0  0  0
  4 20  1  1  0  0  0
  7  2  1  0  0  0  0
  8  9  1  0  0  0  0
  8  5  1  6  0  0  0
  9  7  2  0  0  0  0
 10 24  1  6  0  0  0
 10 15  1  0  0  0  0
 10 13  1  0  0  0  0
 11  6  1  0  0  0  0
 11  5  1  0  0  0  0
 12  3  1  0  0  0  0
 13 12  2  0  0  0  0
 13  9  1  0  0  0  0
 14  1  1  0  0  0  0
 14  4  1  0  0  0  0
 15  1  1  1  0  0  0
 15  8  1  0  0  0  0
 16 19  1  0  0  0  0
 16 21  1  0  0  0  0
 17 23  1  0  0  0  0
 18 16  2  0  0  0  0
 20 22  1  0  0  0  0
 22 19  2  0  0  0  0
 23 20  2  0  0  0  0
 23 18  1  0  0  0  0
 25 32  1  0  0  0  0
 26 25  1  0  0  0  0
 27 31  1  0  0  0  0
 27 32  1  0  0  0  0
 28 27  2  0  0  0  0
 29 28  1  0  0  0  0
 29 26  1  0  0  0  0
 30 26  2  0  0  0  0
 32 24  1  1  0  0  0
M  END
>  <MODEL>
4

>  <REMARK>
 VINA RESULT:      -7.5      4.765      8.588
  Name = 
  3 active torsions:
  status: ('A' for Active; 'I' for Inactive)
    1  A    between atoms: C_8  and  C_19
    2  A    between atoms: C_16  and  C_27
    3  A    between atoms: C_27  and  C_32
                            x       y       z     vdW  Elec       q    Type
                         _______ _______ _______ _____ _____    ______ ____

>  <TORSDO>
F 3

$$$$
=
 OpenBabel11052416503D

 32 36  0  0  1  0  0  0  0  0999 V2000
  185.7510  178.7590  140.2070 C   0  0  0  0  0  2  0  0  0  0  0  0
  183.3390  178.9890  145.4560 C   0  0  0  0  0  3  0  0  0  0  0  0
  184.6700  178.8540  145.8920 C   0  0  0  0  0  3  0  0  0  0  0  0
  183.6990  177.8890  138.8700 C   0  0  2  0  0  3  0  0  0  0  0  0
  182.8750  177.5860  141.1720 C   0  0  0  0  0  2  0  0  0  0  0  0
  182.1260  176.1740  139.4350 C   0  0  0  0  0  1  0  0  0  0  0  0
  183.0200  178.8270  144.0990 C   0  0  0  0  0  3  0  0  0  0  0  0
  184.0080  178.4370  141.7400 C   0  0  1  0  0  3  0  0  0  0  0  0
  184.0460  178.4890  143.2150 C   0  0  0  0  0  0  0  0  0  0  0  0
  186.2250  178.1150  142.4670 C   0  0  2  0  0  3  0  0  0  0  0  0
  183.2660  176.9380  139.9160 N   0  0  0  0  0  0  0  0  0  0  0  0
  185.6880  178.5510  144.9730 C   0  0  0  0  0  3  0  0  0  0  0  0
  185.3370  178.3490  143.6370 C   0  0  0  0  0  0  0  0  0  0  0  0
  185.2090  178.2020  138.8830 C   0  0  0  0  0  2  0  0  0  0  0  0
  185.3220  177.9270  141.3220 N   0  0  2  0  0  0  0  0  0  0  0  0
  180.8280  180.9270  137.7600 C   0  0  0  0  0  0  0  0  0  0  0  0
  184.1330  180.8010  139.2860 F   0  0  0  0  0  0  0  0  0  0  0  0
  182.0250  181.3200  138.3590 C   0  0  0  0  0  3  0  0  0  0  0  0
  180.5800  179.5760  137.5210 C   0  0  0  0  0  3  0  0  0  0  0  0
  182.7320  178.9960  138.4980 C   0  0  0  0  0  0  0  0  0  0  0  0
  179.9100  181.8570  137.4050 F   0  0  0  0  0  0  0  0  0  0  0  0
  181.5280  178.6180  137.8880 C   0  0  0  0  0  3  0  0  0  0  0  0
  182.9790  180.3670  138.7290 C   0  0  0  0  0  0  0  0  0  0  0  0
  187.1780  176.9120  142.6190 C   0  0  0  0  0  2  0  0  0  0  0  0
  188.4080  177.2060  144.8690 C   0  0  0  0  0  2  0  0  0  0  0  0
  189.6420  177.7520  145.5340 C   0  0  0  0  0  0  0  0  0  0  0  0
  189.3370  178.2670  142.7420 C   0  0  0  0  0  0  0  0  0  0  0  0
  190.3840  178.7640  143.4020 C   0  0  0  0  0  3  0  0  0  0  0  0
  190.8200  178.2060  144.7230 C   0  0  0  0  0  2  0  0  0  0  0  0
  189.6970  177.7970  146.7510 O   0  0  0  0  0  0  0  0  0  0  0  0
  189.0480  178.7570  141.4740 O   0  0  0  0  0  1  0  0  0  0  0  0
  188.5240  177.1420  143.3370 C   0  0  2  0  0  3  0  0  0  0  0  0
  2  3  1  0  0  0  0
  4 20  1  1  0  0  0
  4 14  1  0  0  0  0
  4 11  1  0  0  0  0
  6 11  1  0  0  0  0
  7  2  2  0  0  0  0
  8  5  1  1  0  0  0
  8  9  1  0  0  0  0
  9 13  2  0  0  0  0
  9  7  1  0  0  0  0
 10 24  1  1  0  0  0
 10 13  1  0  0  0  0
 11  5  1  0  0  0  0
 12  3  2  0  0  0  0
 13 12  1  0  0  0  0
 14  1  1  0  0  0  0
 15  1  1  6  0  0  0
 15  8  1  0  0  0  0
 15 10  1  0  0  0  0
 16 18  1  0  0  0  0
 18 23  2  0  0  0  0
 19 16  2  0  0  0  0
 19 22  1  0  0  0  0
 20 23  1  0  0  0  0
 21 16  1  0  0  0  0
 22 20  2  0  0  0  0
 23 17  1  0  0  0  0
 25 26  1  0  0  0  0
 26 30  2  0  0  0  0
 27 32  1  0  0  0  0
 27 28  2  0  0  0  0
 28 29  1  0  0  0  0
 29 26  1  0  0  0  0
 31 27  1  0  0  0  0
 32 24  1  6  0  0  0
 32 25  1  0  0  0  0
M  END
>  <MODEL>
5

>  <REMARK>
 VINA RESULT:      -7.1      1.290      2.063
  Name = 
  3 active torsions:
  status: ('A' for Active; 'I' for Inactive)
    1  A    between atoms: C_8  and  C_19
    2  A    between atoms: C_16  and  C_27
    3  A    between atoms: C_27  and  C_32
                            x       y       z     vdW  Elec       q    Type
                         _______ _______ _______ _____ _____    ______ ____

>  <TORSDO>
F 3

$$$$
=
 OpenBabel11052416503D

 32 36  0  0  1  0  0  0  0  0999 V2000
  185.9480  177.7200  139.4350 C   0  0  0  0  0  2  0  0  0  0  0  0
  190.2140  176.5460  143.1570 C   0  0  0  0  0  3  0  0  0  0  0  0
  189.2600  176.9310  144.1160 C   0  0  0  0  0  3  0  0  0  0  0  0
  187.3900  178.2290  137.3340 C   0  0  2  0  0  3  0  0  0  0  0  0
  189.1480  178.1580  139.0570 C   0  0  0  0  0  2  0  0  0  0  0  0
  189.4040  179.5100  137.1400 C   0  0  0  0  0  1  0  0  0  0  0  0
  189.9630  176.7440  141.7900 C   0  0  0  0  0  3  0  0  0  0  0  0
  188.1960  177.5300  140.0720 C   0  0  1  0  0  3  0  0  0  0  0  0
  188.7690  177.3670  141.4220 C   0  0  0  0  0  0  0  0  0  0  0  0
  186.6290  178.2660  141.6690 C   0  0  2  0  0  3  0  0  0  0  0  0
  188.4280  178.9740  138.0760 N   0  0  0  0  0  0  0  0  0  0  0  0
  188.0510  177.5210  143.7140 C   0  0  0  0  0  3  0  0  0  0  0  0
  187.8450  177.7500  142.3520 C   0  0  0  0  0  0  0  0  0  0  0  0
  185.9970  178.2520  137.9960 C   0  0  0  0  0  2  0  0  0  0  0  0
  186.9840  178.3450  140.2440 N   0  0  2  0  0  0  0  0  0  0  0  0
  188.5730  174.5500  135.3920 C   0  0  0  0  0  0  0  0  0  0  0  0
  188.5410  178.1040  134.5950 F   0  0  0  0  0  0  0  0  0  0  0  0
  188.7230  175.7530  134.7010 C   0  0  0  0  0  3  0  0  0  0  0  0
  188.0580  174.5510  136.6880 C   0  0  0  0  0  3  0  0  0  0  0  0
  187.8260  176.9720  136.6070 C   0  0  0  0  0  0  0  0  0  0  0  0
  188.9320  173.3830  134.8070 F   0  0  0  0  0  0  0  0  0  0  0  0
  187.6870  175.7560  137.2900 C   0  0  0  0  0  3  0  0  0  0  0  0
  188.3550  176.9630  135.2980 C   0  0  0  0  0  0  0  0  0  0  0  0
  186.1340  179.6310  142.1890 C   0  0  0  0  0  2  0  0  0  0  0  0
  185.2990  179.1600  144.5860 C   0  0  0  0  0  2  0  0  0  0  0  0
  184.0910  178.8610  145.4300 C   0  0  0  0  0  0  0  0  0  0  0  0
  183.6960  179.0020  142.6060 C   0  0  0  0  0  0  0  0  0  0  0  0
  182.6760  178.6930  143.4080 C   0  0  0  0  0  3  0  0  0  0  0  0
  182.7040  179.0030  144.8740 C   0  0  0  0  0  2  0  0  0  0  0  0
  184.2410  178.5280  146.5930 O   0  0  0  0  0  0  0  0  0  0  0  0
  183.5660  178.7860  141.2400 O   0  0  0  0  0  1  0  0  0  0  0  0
  184.9430  179.6420  143.1700 C   0  0  2  0  0  3  0  0  0  0  0  0
  2  3  1  0  0  0  0
  4 20  1  1  0  0  0
  4 14  1  0  0  0  0
  4 11  1  0  0  0  0
  6 11  1  0  0  0  0
  7  2  2  0  0  0  0
  8  5  1  6  0  0  0
  8 15  1  0  0  0  0
  8  9  1  0  0  0  0
  9  7  1  0  0  0  0
  9 13  2  0  0  0  0
 10 24  1  1  0  0  0
 10 13  1  0  0  0  0
 11  5  1  0  0  0  0
 12  3  2  0  0  0  0
 13 12  1  0  0  0  0
 14  1  1  0  0  0  0
 15  1  1  6  0  0  0
 15 10  1  0  0  0  0
 16 19  1  0  0  0  0
 17 23  1  0  0  0  0
 18 23  1  0  0  0  0
 18 16  2  0  0  0  0
 19 22  2  0  0  0  0
 20 22  1  0  0  0  0
 21 16  1  0  0  0  0
 23 20  2  0  0  0  0
 25 26  1  0  0  0  0
 26 30  2  0  0  0  0
 27 32  1  0  0  0  0
 27 28  2  0  0  0  0
 28 29  1  0  0  0  0
 29 26  1  0  0  0  0
 31 27  1  0  0  0  0
 32 24  1  6  0  0  0
 32 25  1  0  0  0  0
M  END
>  <MODEL>
6

>  <REMARK>
 VINA RESULT:      -6.9      3.647      6.609
  Name = 
  3 active torsions:
  status: ('A' for Active; 'I' for Inactive)
    1  A    between atoms: C_8  and  C_19
    2  A    between atoms: C_16  and  C_27
    3  A    between atoms: C_27  and  C_32
                            x       y       z     vdW  Elec       q    Type
                         _______ _______ _______ _____ _____    ______ ____

>  <TORSDO>
F 3

$$$$
=
 OpenBabel11052416503D

 32 36  0  0  1  0  0  0  0  0999 V2000
  182.8890  177.8600  141.5650 C   0  0  0  0  0  2  0  0  0  0  0  0
  187.9430  178.1960  138.7780 C   0  0  0  0  0  3  0  0  0  0  0  0
  188.4690  178.2640  140.0820 C   0  0  0  0  0  3  0  0  0  0  0  0
  181.3440  178.7790  139.6880 C   0  0  2  0  0  3  0  0  0  0  0  0
  183.5500  179.3100  138.7300 C   0  0  0  0  0  2  0  0  0  0  0  0
  181.6700  180.6420  138.2190 C   0  0  0  0  0  1  0  0  0  0  0  0
  186.5580  178.2810  138.5690 C   0  0  0  0  0  3  0  0  0  0  0  0
  184.2600  178.4220  139.7490 C   0  0  1  0  0  3  0  0  0  0  0  0
  185.7340  178.4760  139.6790 C   0  0  0  0  0  0  0  0  0  0  0  0
  185.1300  178.6320  141.9280 C   0  0  2  0  0  3  0  0  0  0  0  0
  182.2870  179.8330  139.2590 N   0  0  0  0  0  0  0  0  0  0  0  0
  187.6120  178.4230  141.1830 C   0  0  0  0  0  3  0  0  0  0  0  0
  186.2420  178.5510  140.9440 C   0  0  0  0  0  0  0  0  0  0  0  0
  181.4930  178.3570  141.1630 C   0  0  0  0  0  2  0  0  0  0  0  0
  183.9090  178.8010  141.1260 N   0  0  2  0  0  0  0  0  0  0  0  0
  180.4220  175.6640  136.8330 C   0  0  0  0  0  0  0  0  0  0  0  0
  179.0210  178.8740  137.8340 F   0  0  0  0  0  0  0  0  0  0  0  0
  179.5830  176.7770  136.9070 C   0  0  0  0  0  3  0  0  0  0  0  0
  181.5380  175.5760  137.6640 C   0  0  0  0  0  3  0  0  0  0  0  0
  180.9750  177.7210  138.6660 C   0  0  0  0  0  0  0  0  0  0  0  0
  180.1540  174.6720  135.9500 F   0  0  0  0  0  0  0  0  0  0  0  0
  181.8120  176.6000  138.5740 C   0  0  0  0  0  3  0  0  0  0  0  0
  179.8520  177.8050  137.8150 C   0  0  0  0  0  0  0  0  0  0  0  0
  185.2720  179.7700  142.9600 C   0  0  0  0  0  2  0  0  0  0  0  0
  186.7770  178.4340  144.5760 C   0  0  0  0  0  2  0  0  0  0  0  0
  186.8650  177.8090  145.9410 C   0  0  0  0  0  0  0  0  0  0  0  0
  184.3570  178.9540  145.1980 C   0  0  0  0  0  0  0  0  0  0  0  0
  184.4880  178.3410  146.3760 C   0  0  0  0  0  3  0  0  0  0  0  0
  185.8330  178.0970  146.9920 C   0  0  0  0  0  2  0  0  0  0  0  0
  187.8060  177.0810  146.2070 O   0  0  0  0  0  0  0  0  0  0  0  0
  183.0810  179.2450  144.7310 O   0  0  0  0  0  1  0  0  0  0  0  0
  185.5790  179.3850  144.4220 C   0  0  2  0  0  3  0  0  0  0  0  0
  2  3  1  0  0  0  0
  3 12  2  0  0  0  0
  4 20  1  6  0  0  0
  4 14  1  0  0  0  0
  5 11  1  0  0  0  0
  6 11  1  0  0  0  0
  7  2  2  0  0  0  0
  7  9  1  0  0  0  0
  8  5  1  6  0  0  0
  8 15  1  0  0  0  0
  9  8  1  0  0  0  0
  9 13  2  0  0  0  0
 10 24  1  1  0  0  0
 11  4  1  0  0  0  0
 13 12  1  0  0  0  0
 13 10  1  0  0  0  0
 14  1  1  0  0  0  0
 15  1  1  1  0  0  0
 15 10  1  0  0  0  0
 16 18  2  0  0  0  0
 16 19  1  0  0  0  0
 18 23  1  0  0  0  0
 19 22  2  0  0  0  0
 21 16  1  0  0  0  0
 22 20  1  0  0  0  0
 23 17  1  0  0  0  0
 23 20  2  0  0  0  0
 25 26  1  0  0  0  0
 26 30  2  0  0  0  0
 26 29  1  0  0  0  0
 27 28  2  0  0  0  0
 28 29  1  0  0  0  0
 31 27  1  0  0  0  0
 32 24  1  6  0  0  0
 32 25  1  0  0  0  0
 32 27  1  0  0  0  0
M  END
>  <MODEL>
7

>  <REMARK>
 VINA RESULT:      -6.6      2.300      4.682
  Name = 
  3 active torsions:
  status: ('A' for Active; 'I' for Inactive)
    1  A    between atoms: C_8  and  C_19
    2  A    between atoms: C_16  and  C_27
    3  A    between atoms: C_27  and  C_32
                            x       y       z     vdW  Elec       q    Type
                         _______ _______ _______ _____ _____    ______ ____

>  <TORSDO>
F 3

$$$$
=
 OpenBabel11052416503D

 32 36  0  0  1  0  0  0  0  0999 V2000
  190.6600  176.2090  142.0700 C   0  0  0  0  0  2  0  0  0  0  0  0
  185.9080  179.0040  140.3280 C   0  0  0  0  0  3  0  0  0  0  0  0
  186.2370  178.4430  139.0800 C   0  0  0  0  0  3  0  0  0  0  0  0
  191.2530  177.6860  144.1240 C   0  0  2  0  0  3  0  0  0  0  0  0
  189.5060  179.0760  143.0830 C   0  0  0  0  0  2  0  0  0  0  0  0
  191.2350  180.0710  144.3440 C   0  0  0  0  0  1  0  0  0  0  0  0
  186.8080  178.9170  141.4020 C   0  0  0  0  0  3  0  0  0  0  0  0
  189.0750  177.9320  142.1680 C   0  0  1  0  0  3  0  0  0  0  0  0
  188.0420  178.3030  141.1800 C   0  0  0  0  0  0  0  0  0  0  0  0
  189.6800  177.0720  140.0600 C   0  0  2  0  0  3  0  0  0  0  0  0
  190.9190  178.9620  143.4570 N   0  0  0  0  0  0  0  0  0  0  0  0
  187.4700  177.7980  138.8970 C   0  0  0  0  0  3  0  0  0  0  0  0
  188.3670  177.7660  139.9670 C   0  0  0  0  0  0  0  0  0  0  0  0
  191.6810  176.5600  143.1620 C   0  0  0  0  0  2  0  0  0  0  0  0
  190.2090  177.4130  141.3890 N   0  0  2  0  0  0  0  0  0  0  0  0
  188.8250  176.6910  147.5620 C   0  0  0  0  0  0  0  0  0  0  0  0
  192.3190  176.3870  146.5770 F   0  0  0  0  0  0  0  0  0  0  0  0
  190.1850  176.3790  147.5870 C   0  0  0  0  0  3  0  0  0  0  0  0
  188.2750  177.3200  146.4460 C   0  0  0  0  0  3  0  0  0  0  0  0
  190.4520  177.3190  145.3590 C   0  0  0  0  0  0  0  0  0  0  0  0
  188.0410  176.3870  148.6240 F   0  0  0  0  0  0  0  0  0  0  0  0
  189.0860  177.6320  145.3520 C   0  0  0  0  0  3  0  0  0  0  0  0
  191.0020  176.6890  146.4960 C   0  0  0  0  0  0  0  0  0  0  0  0
  190.6840  177.4550  138.9530 C   0  0  0  0  0  2  0  0  0  0  0  0
  189.2720  177.8690  136.8330 C   0  0  0  0  0  2  0  0  0  0  0  0
  188.7380  177.2500  135.5710 C   0  0  0  0  0  0  0  0  0  0  0  0
  190.1600  175.5340  137.3560 C   0  0  0  0  0  0  0  0  0  0  0  0
  189.6200  175.0380  136.2430 C   0  0  0  0  0  3  0  0  0  0  0  0
  189.2380  175.9190  135.0910 C   0  0  0  0  0  2  0  0  0  0  0  0
  187.9090  177.8530  134.9120 O   0  0  0  0  0  0  0  0  0  0  0  0
  190.5890  174.6560  138.3440 O   0  0  0  0  0  1  0  0  0  0  0  0
  190.3650  177.0230  137.5070 C   0  0  2  0  0  3  0  0  0  0  0  0
  1 14  1  0  0  0  0
  2  7  1  0  0  0  0
  3  2  2  0  0  0  0
  4 20  1  6  0  0  0
  5 11  1  0  0  0  0
  8  5  1  6  0  0  0
  9  7  2  0  0  0  0
  9  8  1  0  0  0  0
 10 24  1  6  0  0  0
 10 15  1  0  0  0  0
 11  4  1  0  0  0  0
 11  6  1  0  0  0  0
 12  3  1  0  0  0  0
 12 13  2  0  0  0  0
 13 10  1  0  0  0  0
 13  9  1  0  0  0  0
 14  4  1  0  0  0  0
 15  1  1  1  0  0  0
 15  8  1  0  0  0  0
 16 18  1  0  0  0  0
 16 21  1  0  0  0  0
 19 16  2  0  0  0  0
 20 23  1  0  0  0  0
 22 20  2  0  0  0  0
 22 19  1  0  0  0  0
 23 17  1  0  0  0  0
 23 18  2  0  0  0  0
 25 32  1  0  0  0  0
 26 25  1  0  0  0  0
 27 32  1  0  0  0  0
 27 31  1  0  0  0  0
 28 27  2  0  0  0  0
 29 26  1  0  0  0  0
 29 28  1  0  0  0  0
 30 26  2  0  0  0  0
 32 24  1  1  0  0  0
M  END
>  <MODEL>
8

>  <REMARK>
 VINA RESULT:      -6.5      5.177      8.758
  Name = 
  3 active torsions:
  status: ('A' for Active; 'I' for Inactive)
    1  A    between atoms: C_8  and  C_19
    2  A    between atoms: C_16  and  C_27
    3  A    between atoms: C_27  and  C_32
                            x       y       z     vdW  Elec       q    Type
                         _______ _______ _______ _____ _____    ______ ____

>  <TORSDO>
F 3

$$$$
=
 OpenBabel11052416503D

 32 36  0  0  1  0  0  0  0  0999 V2000
  183.3020  177.6020  140.8310 C   0  0  0  0  0  2  0  0  0  0  0  0
  187.8220  178.3620  137.3080 C   0  0  0  0  0  3  0  0  0  0  0  0
  188.5640  178.0770  138.4700 C   0  0  0  0  0  3  0  0  0  0  0  0
  181.5570  179.0360  139.5460 C   0  0  2  0  0  3  0  0  0  0  0  0
  183.6100  179.6760  138.3450 C   0  0  0  0  0  2  0  0  0  0  0  0
  181.8060  181.1870  138.5230 C   0  0  0  0  0  1  0  0  0  0  0  0
  186.4360  178.5660  137.3880 C   0  0  0  0  0  3  0  0  0  0  0  0
  184.3940  178.5270  138.9760 C   0  0  1  0  0  3  0  0  0  0  0  0
  185.8330  178.5210  138.6460 C   0  0  0  0  0  0  0  0  0  0  0  0
  185.6350  178.1430  140.9410 C   0  0  2  0  0  3  0  0  0  0  0  0
  182.5100  180.1140  139.2090 N   0  0  0  0  0  0  0  0  0  0  0  0
  187.9240  178.0000  139.7170 C   0  0  0  0  0  3  0  0  0  0  0  0
  186.5520  178.2530  139.7750 C   0  0  0  0  0  0  0  0  0  0  0  0
  181.9120  178.2530  140.8260 C   0  0  0  0  0  2  0  0  0  0  0  0
  184.3180  178.5690  140.4440 N   0  0  2  0  0  0  0  0  0  0  0  0
  179.8730  176.7800  136.2630 C   0  0  0  0  0  0  0  0  0  0  0  0
  178.9850  179.7200  138.2200 F   0  0  0  0  0  0  0  0  0  0  0  0
  179.1740  177.8870  136.7450 C   0  0  0  0  0  3  0  0  0  0  0  0
  181.0950  176.4250  136.8320 C   0  0  0  0  0  3  0  0  0  0  0  0
  180.9220  178.2860  138.3910 C   0  0  0  0  0  0  0  0  0  0  0  0
  179.3670  176.0530  135.2370 F   0  0  0  0  0  0  0  0  0  0  0  0
  181.6150  177.1760  137.8900 C   0  0  0  0  0  3  0  0  0  0  0  0
  179.6890  178.6430  137.8030 C   0  0  0  0  0  0  0  0  0  0  0  0
  186.0560  178.9800  142.1660 C   0  0  0  0  0  2  0  0  0  0  0  0
  185.2650  179.0250  144.6230 C   0  0  0  0  0  2  0  0  0  0  0  0
  185.5520  178.5360  146.0160 C   0  0  0  0  0  0  0  0  0  0  0  0
  187.4570  177.8780  143.9930 C   0  0  0  0  0  0  0  0  0  0  0  0
  187.6750  177.5160  145.2580 C   0  0  0  0  0  3  0  0  0  0  0  0
  186.5640  177.4560  146.2640 C   0  0  0  0  0  2  0  0  0  0  0  0
  184.9300  179.0030  146.9550 O   0  0  0  0  0  0  0  0  0  0  0  0
  188.5060  177.8110  143.0850 O   0  0  0  0  0  1  0  0  0  0  0  0
  186.0730  178.2850  143.5440 C   0  0  2  0  0  3  0  0  0  0  0  0
  2  7  2  0  0  0  0
  2  3  1  0  0  0  0
  3 12  2  0  0  0  0
  4 20  1  6  0  0  0
  4 14  1  0  0  0  0
  5 11  1  0  0  0  0
  6 11  1  0  0  0  0
  7  9  1  0  0  0  0
  8  5  1  6  0  0  0
  8 15  1  0  0  0  0
  9  8  1  0  0  0  0
  9 13  2  0  0  0  0
 10 24  1  1  0  0  0
 11  4  1  0  0  0  0
 12 13  1  0  0  0  0
 13 10  1  0  0  0  0
 14  1  1  0  0  0  0
 15  1  1  1  0  0  0
 15 10  1  0  0  0  0
 16 18  2  0  0  0  0
 16 19  1  0  0  0  0
 18 23  1  0  0  0  0
 19 22  2  0  0  0  0
 21 16  1  0  0  0  0
 22 20  1  0  0  0  0
 23 17  1  0  0  0  0
 23 20  2  0  0  0  0
 25 26  1  0  0  0  0
 26 29  1  0  0  0  0
 26 30  2  0  0  0  0
 27 28  2  0  0  0  0
 28 29  1  0  0  0  0
 31 27  1  0  0  0  0
 32 24  1  6  0  0  0
 32 27  1  0  0  0  0
 32 25  1  0  0  0  0
M  END
>  <MODEL>
9

>  <REMARK>
 VINA RESULT:      -6.4      2.077      4.743
  Name = 
  3 active torsions:
  status: ('A' for Active; 'I' for Inactive)
    1  A    between atoms: C_8  and  C_19
    2  A    between atoms: C_16  and  C_27
    3  A    between atoms: C_27  and  C_32
                            x       y       z     vdW  Elec       q    Type
                         _______ _______ _______ _____ _____    ______ ____

>  <TORSDO>
F 3

$$$$
