=
 OpenBabel11052415543D

 34 39  0  0  0  0  0  0  0  0999 V2000
  187.6450  177.9870  143.1800 C   0  0  0  0  0  3  0  0  0  0  0  0
  191.2340  177.5460  142.0990 C   0  0  0  0  0  0  0  0  0  0  0  0
  191.9200  177.7760  144.4540 C   0  0  0  0  0  3  0  0  0  0  0  0
  187.0700  177.5530  145.4640 C   0  0  0  0  0  3  0  0  0  0  0  0
  189.0000  177.6710  143.4060 C   0  0  0  0  0  0  0  0  0  0  0  0
  188.4010  177.2520  145.7410 C   0  0  0  0  0  0  0  0  0  0  0  0
  190.0000  176.6180  147.3700 C   0  0  0  0  0  3  0  0  0  0  0  0
  188.7190  176.8460  146.9980 N   0  0  0  0  0  0  0  0  0  0  0  0
  186.6850  177.9670  144.1920 C   0  0  0  0  0  0  0  0  0  0  0  0
  190.7530  177.2460  145.1580 C   0  0  0  0  0  0  0  0  0  0  0  0
  189.4090  177.3890  144.7390 C   0  0  0  0  0  0  0  0  0  0  0  0
  191.0300  176.8460  146.4670 C   0  0  0  0  0  3  0  0  0  0  0  0
  191.8740  177.3430  140.8680 C   0  0  0  0  0  3  0  0  0  0  0  0
  191.1590  176.9980  139.7240 C   0  0  0  0  0  0  0  0  0  0  0  0
  189.7800  176.8440  139.7990 C   0  0  0  0  0  3  0  0  0  0  0  0
  192.0870  177.9080  143.1790 N   0  0  0  0  0  0  0  0  0  0  0  0
  189.1290  177.0620  141.0100 C   0  0  0  0  0  3  0  0  0  0  0  0
  189.8250  177.4270  142.1840 C   0  0  0  0  0  0  0  0  0  0  0  0
  183.0520  179.0030  144.7010 C   0  0  0  0  0  3  0  0  0  0  0  0
  184.7880  178.2960  142.5770 C   0  0  0  0  0  3  0  0  0  0  0  0
  181.3540  179.0700  141.4230 N   0  0  0  0  0  0  0  0  0  0  0  0
  180.2900  179.2270  140.4750 C   0  0  0  0  0  0  0  0  0  0  0  0
  181.2260  179.2740  142.8710 C   0  0  0  0  0  2  0  0  0  0  0  0
  180.4920  179.0170  139.2490 O   0  0  0  0  0  0  0  0  0  0  0  0
  182.6030  178.9700  143.3830 C   0  0  0  0  0  0  0  0  0  0  0  0
  178.9310  179.6410  140.9230 C   0  0  0  0  0  1  0  0  0  0  0  0
  182.6970  178.6840  141.1340 C   0  0  0  0  0  0  0  0  0  0  0  0
  183.4530  178.6250  142.3560 C   0  0  0  0  0  0  0  0  0  0  0  0
  183.1400  178.4350  139.9800 O   0  0  0  0  0  0  0  0  0  0  0  0
  185.2750  178.3200  143.9030 C   0  0  0  0  0  0  0  0  0  0  0  0
  184.3940  178.6750  144.9550 C   0  0  0  0  0  3  0  0  0  0  0  0
  191.8710  176.7560  138.4400 C   0  0  0  0  0  2  0  0  0  0  0  0
  193.3050  176.7080  138.6720 N   0  0  0  0  0  2  0  0  0  0  0  0
  193.8020  175.5480  137.9560 C   0  0  0  0  0  1  0  0  0  0  0  0
  1  5  2  0  0  0  0
  1  9  1  0  0  0  0
  2 18  1  0  0  0  0
  2 16  1  0  0  0  0
  3 10  1  0  0  0  0
  4  6  1  0  0  0  0
  5 11  1  0  0  0  0
  6  8  1  0  0  0  0
  8  7  2  0  0  0  0
  9  4  2  0  0  0  0
 10 12  2  0  0  0  0
 11 10  1  0  0  0  0
 11  6  2  0  0  0  0
 12  7  1  0  0  0  0
 13  2  2  0  0  0  0
 14 15  2  0  0  0  0
 14 13  1  0  0  0  0
 15 17  1  0  0  0  0
 16  3  2  0  0  0  0
 17 18  2  0  0  0  0
 18  5  1  0  0  0  0
 19 31  1  0  0  0  0
 20 30  1  0  0  0  0
 21 23  1  0  0  0  0
 22 26  1  0  0  0  0
 22 21  1  0  0  0  0
 23 25  1  0  0  0  0
 24 22  2  0  0  0  0
 25 19  2  0  0  0  0
 27 21  1  0  0  0  0
 27 28  1  0  0  0  0
 28 20  2  0  0  0  0
 28 25  1  0  0  0  0
 29 27  2  0  0  0  0
 30  9  1  0  0  0  0
 30 31  2  0  0  0  0
 32 33  1  0  0  0  0
 32 14  1  0  0  0  0
 34 33  1  0  0  0  0
M  END
>  <MODEL>
1

>  <REMARK>
 VINA RESULT:     -11.6      0.000      0.000
  Name = 
  3 active torsions:
  status: ('A' for Active; 'I' for Inactive)
    1  A    between atoms: C_3  and  N_13
    2  A    between atoms: C_3  and  C_25
    3  A    between atoms: C_18  and  C_30
                            x       y       z     vdW  Elec       q    Type
                         _______ _______ _______ _____ _____    ______ ____

>  <TORSDO>
F 3

$$$$
=
 OpenBabel11052415543D

 34 39  0  0  0  0  0  0  0  0999 V2000
  184.7120  178.0350  142.2380 C   0  0  0  0  0  3  0  0  0  0  0  0
  183.3220  177.7130  138.7440 C   0  0  0  0  0  0  0  0  0  0  0  0
  181.0510  177.8800  139.6850 C   0  0  0  0  0  3  0  0  0  0  0  0
  183.3380  179.0150  143.9370 C   0  0  0  0  0  3  0  0  0  0  0  0
  183.7070  178.1900  141.2610 C   0  0  0  0  0  0  0  0  0  0  0  0
  182.3070  179.1690  143.0130 C   0  0  0  0  0  0  0  0  0  0  0  0
  180.0860  179.8880  142.6130 C   0  0  0  0  0  3  0  0  0  0  0  0
  181.1640  179.7770  143.4230 N   0  0  0  0  0  0  0  0  0  0  0  0
  184.5350  178.4050  143.5710 C   0  0  0  0  0  0  0  0  0  0  0  0
  181.2790  178.7100  140.8680 C   0  0  0  0  0  0  0  0  0  0  0  0
  182.4390  178.6810  141.6780 C   0  0  0  0  0  0  0  0  0  0  0  0
  180.1200  179.3290  141.3420 C   0  0  0  0  0  3  0  0  0  0  0  0
  183.8850  177.5590  137.4700 C   0  0  0  0  0  3  0  0  0  0  0  0
  185.2450  177.7590  137.2470 C   0  0  0  0  0  0  0  0  0  0  0  0
  186.0670  178.1240  138.3060 C   0  0  0  0  0  3  0  0  0  0  0  0
  181.9230  177.4630  138.8280 N   0  0  0  0  0  0  0  0  0  0  0  0
  185.5240  178.2610  139.5810 C   0  0  0  0  0  3  0  0  0  0  0  0
  184.1510  178.0510  139.8410 C   0  0  0  0  0  0  0  0  0  0  0  0
  186.4450  178.3900  146.8690 C   0  0  0  0  0  3  0  0  0  0  0  0
  186.8690  177.6840  144.1590 C   0  0  0  0  0  3  0  0  0  0  0  0
  189.8410  177.0660  146.2820 N   0  0  0  0  0  0  0  0  0  0  0  0
  191.1860  176.6640  146.5760 C   0  0  0  0  0  0  0  0  0  0  0  0
  188.8920  177.6030  147.2640 C   0  0  0  0  0  2  0  0  0  0  0  0
  191.9350  176.2260  145.6630 O   0  0  0  0  0  0  0  0  0  0  0  0
  187.6640  177.8690  146.4420 C   0  0  0  0  0  0  0  0  0  0  0  0
  191.7180  176.7590  147.9650 C   0  0  0  0  0  1  0  0  0  0  0  0
  189.2050  177.0260  145.0050 C   0  0  0  0  0  0  0  0  0  0  0  0
  187.8620  177.5280  145.1230 C   0  0  0  0  0  0  0  0  0  0  0  0
  189.7480  176.6140  143.9450 O   0  0  0  0  0  0  0  0  0  0  0  0
  185.6210  178.2100  144.5600 C   0  0  0  0  0  0  0  0  0  0  0  0
  185.4250  178.5590  145.9200 C   0  0  0  0  0  3  0  0  0  0  0  0
  185.8080  177.6220  135.8760 C   0  0  0  0  0  2  0  0  0  0  0  0
  187.1850  178.0900  135.8590 N   0  0  0  0  0  2  0  0  0  0  0  0
  187.9510  177.0970  135.1300 C   0  0  0  0  0  1  0  0  0  0  0  0
  1  9  1  0  0  0  0
  2 16  1  0  0  0  0
  2 18  1  0  0  0  0
  3 10  1  0  0  0  0
  5 11  1  0  0  0  0
  5  1  2  0  0  0  0
  6  8  1  0  0  0  0
  6  4  1  0  0  0  0
  7  8  2  0  0  0  0
  9  4  2  0  0  0  0
  9 30  1  0  0  0  0
 10 12  2  0  0  0  0
 10 11  1  0  0  0  0
 11  6  2  0  0  0  0
 12  7  1  0  0  0  0
 13  2  2  0  0  0  0
 14 13  1  0  0  0  0
 14 15  2  0  0  0  0
 15 17  1  0  0  0  0
 16  3  2  0  0  0  0
 17 18  2  0  0  0  0
 18  5  1  0  0  0  0
 20 30  2  0  0  0  0
 20 28  1  0  0  0  0
 21 22  1  0  0  0  0
 21 23  1  0  0  0  0
 22 26  1  0  0  0  0
 24 22  2  0  0  0  0
 25 19  1  0  0  0  0
 25 23  1  0  0  0  0
 27 28  1  0  0  0  0
 27 21  1  0  0  0  0
 28 25  2  0  0  0  0
 29 27  2  0  0  0  0
 30 31  1  0  0  0  0
 31 19  2  0  0  0  0
 32 14  1  0  0  0  0
 33 32  1  0  0  0  0
 34 33  1  0  0  0  0
M  END
>  <MODEL>
2

>  <REMARK>
 VINA RESULT:     -10.8      3.641      8.164
  Name = 
  3 active torsions:
  status: ('A' for Active; 'I' for Inactive)
    1  A    between atoms: C_3  and  N_13
    2  A    between atoms: C_3  and  C_25
    3  A    between atoms: C_18  and  C_30
                            x       y       z     vdW  Elec       q    Type
                         _______ _______ _______ _____ _____    ______ ____

>  <TORSDO>
F 3

$$$$
=
 OpenBabel11052415543D

 34 39  0  0  0  0  0  0  0  0999 V2000
  184.1670  178.0750  140.6270 C   0  0  0  0  0  3  0  0  0  0  0  0
  184.2880  177.3820  136.9190 C   0  0  0  0  0  0  0  0  0  0  0  0
  181.8260  177.2840  136.9070 C   0  0  0  0  0  3  0  0  0  0  0  0
  182.1440  178.9430  141.5700 C   0  0  0  0  0  3  0  0  0  0  0  0
  183.6100  178.0380  139.3330 C   0  0  0  0  0  0  0  0  0  0  0  0
  181.5430  178.9050  140.3140 C   0  0  0  0  0  0  0  0  0  0  0  0
  179.5890  179.2890  139.0310 C   0  0  0  0  0  3  0  0  0  0  0  0
  180.2730  179.3700  140.1960 N   0  0  0  0  0  0  0  0  0  0  0  0
  183.4470  178.4860  141.7490 C   0  0  0  0  0  0  0  0  0  0  0  0
  181.4850  178.1970  137.9980 C   0  0  0  0  0  0  0  0  0  0  0  0
  182.2350  178.3710  139.1860 C   0  0  0  0  0  0  0  0  0  0  0  0
  180.1750  178.6750  137.9320 C   0  0  0  0  0  3  0  0  0  0  0  0
  185.3150  177.2410  135.9760 C   0  0  0  0  0  3  0  0  0  0  0  0
  186.6250  177.6150  136.2670 C   0  0  0  0  0  0  0  0  0  0  0  0
  186.9250  178.1450  137.5150 C   0  0  0  0  0  3  0  0  0  0  0  0
  183.0020  176.9460  136.4920 N   0  0  0  0  0  0  0  0  0  0  0  0
  185.9180  178.2720  138.4690 C   0  0  0  0  0  3  0  0  0  0  0  0
  184.5840  177.8880  138.2090 C   0  0  0  0  0  0  0  0  0  0  0  0
  183.9360  178.9730  145.4970 C   0  0  0  0  0  3  0  0  0  0  0  0
  185.4100  178.0590  143.2580 C   0  0  0  0  0  3  0  0  0  0  0  0
  187.3640  177.9440  146.4030 N   0  0  0  0  0  0  0  0  0  0  0  0
  188.5120  177.7080  147.2300 C   0  0  0  0  0  0  0  0  0  0  0  0
  186.0810  178.4740  146.8790 C   0  0  0  0  0  2  0  0  0  0  0  0
  189.5770  177.2620  146.7290 O   0  0  0  0  0  0  0  0  0  0  0  0
  185.2520  178.5370  145.6300 C   0  0  0  0  0  0  0  0  0  0  0  0
  188.4620  177.9860  148.6930 C   0  0  0  0  0  1  0  0  0  0  0  0
  187.2720  177.7200  144.9970 C   0  0  0  0  0  0  0  0  0  0  0  0
  185.9610  178.0940  144.5360 C   0  0  0  0  0  0  0  0  0  0  0  0
  188.2030  177.2650  144.2800 O   0  0  0  0  0  0  0  0  0  0  0  0
  184.0770  178.4940  143.0900 C   0  0  0  0  0  0  0  0  0  0  0  0
  183.3520  178.9490  144.2200 C   0  0  0  0  0  3  0  0  0  0  0  0
  187.6880  177.4850  135.2340 C   0  0  0  0  0  2  0  0  0  0  0  0
  188.9750  177.8540  135.8000 N   0  0  0  0  0  2  0  0  0  0  0  0
  189.8940  176.7780  135.4780 C   0  0  0  0  0  1  0  0  0  0  0  0
  1  9  1  0  0  0  0
  2 18  1  0  0  0  0
  3 10  1  0  0  0  0
  4  9  2  0  0  0  0
  5  1  2  0  0  0  0
  6  4  1  0  0  0  0
  7  8  2  0  0  0  0
  8  6  1  0  0  0  0
  9 30  1  0  0  0  0
 10 11  1  0  0  0  0
 11  5  1  0  0  0  0
 11  6  2  0  0  0  0
 12 10  2  0  0  0  0
 12  7  1  0  0  0  0
 13 14  1  0  0  0  0
 13  2  2  0  0  0  0
 14 15  2  0  0  0  0
 15 17  1  0  0  0  0
 16  3  2  0  0  0  0
 16  2  1  0  0  0  0
 18 17  2  0  0  0  0
 18  5  1  0  0  0  0
 19 25  1  0  0  0  0
 20 28  1  0  0  0  0
 21 23  1  0  0  0  0
 21 22  1  0  0  0  0
 22 26  1  0  0  0  0
 24 22  2  0  0  0  0
 25 23  1  0  0  0  0
 27 21  1  0  0  0  0
 28 27  1  0  0  0  0
 28 25  2  0  0  0  0
 29 27  2  0  0  0  0
 30 20  2  0  0  0  0
 30 31  1  0  0  0  0
 31 19  2  0  0  0  0
 32 33  1  0  0  0  0
 32 14  1  0  0  0  0
 34 33  1  0  0  0  0
M  END
>  <MODEL>
3

>  <REMARK>
 VINA RESULT:     -10.0      3.560      7.989
  Name = 
  3 active torsions:
  status: ('A' for Active; 'I' for Inactive)
    1  A    between atoms: C_3  and  N_13
    2  A    between atoms: C_3  and  C_25
    3  A    between atoms: C_18  and  C_30
                            x       y       z     vdW  Elec       q    Type
                         _______ _______ _______ _____ _____    ______ ____

>  <TORSDO>
F 3

$$$$
=
 OpenBabel11052415543D

 34 39  0  0  0  0  0  0  0  0999 V2000
  190.5300  176.6110  139.5910 C   0  0  0  0  0  3  0  0  0  0  0  0
  191.8630  175.3900  136.2780 C   0  0  0  0  0  0  0  0  0  0  0  0
  189.6540  175.8320  135.2810 C   0  0  0  0  0  3  0  0  0  0  0  0
  188.5970  178.0260  139.6010 C   0  0  0  0  0  3  0  0  0  0  0  0
  190.5160  176.5140  138.1840 C   0  0  0  0  0  0  0  0  0  0  0  0
  188.5290  177.9430  138.2130 C   0  0  0  0  0  0  0  0  0  0  0  0
  187.3770  178.5590  136.2370 C   0  0  0  0  0  3  0  0  0  0  0  0
  187.5640  178.6530  137.5740 N   0  0  0  0  0  0  0  0  0  0  0  0
  189.5710  177.3250  140.3090 C   0  0  0  0  0  0  0  0  0  0  0  0
  189.1730  176.9440  136.1020 C   0  0  0  0  0  0  0  0  0  0  0  0
  189.4350  177.1150  137.4820 C   0  0  0  0  0  0  0  0  0  0  0  0
  188.1560  177.6820  135.4940 C   0  0  0  0  0  3  0  0  0  0  0  0
  193.0980  174.8950  135.8350 C   0  0  0  0  0  3  0  0  0  0  0  0
  194.2480  175.0100  136.6110 C   0  0  0  0  0  0  0  0  0  0  0  0
  194.1790  175.6330  137.8510 C   0  0  0  0  0  3  0  0  0  0  0  0
  190.7700  175.1900  135.3890 N   0  0  0  0  0  0  0  0  0  0  0  0
  192.9550  176.1110  138.3120 C   0  0  0  0  0  3  0  0  0  0  0  0
  191.7680  175.9960  137.5550 C   0  0  0  0  0  0  0  0  0  0  0  0
  190.9220  177.2420  143.8720 C   0  0  0  0  0  3  0  0  0  0  0  0
  188.4520  177.6220  142.5390 C   0  0  0  0  0  3  0  0  0  0  0  0
  188.1360  177.8200  146.2250 N   0  0  0  0  0  0  0  0  0  0  0  0
  187.4610  177.9730  147.4800 C   0  0  0  0  0  0  0  0  0  0  0  0
  189.5740  177.5640  146.0710 C   0  0  0  0  0  2  0  0  0  0  0  0
  186.2180  178.1780  147.5140 O   0  0  0  0  0  0  0  0  0  0  0  0
  189.7480  177.4760  144.5830 C   0  0  0  0  0  0  0  0  0  0  0  0
  188.2160  177.8930  148.7620 C   0  0  0  0  0  1  0  0  0  0  0  0
  187.5420  177.8770  144.9290 C   0  0  0  0  0  0  0  0  0  0  0  0
  188.5510  177.6600  143.9280 C   0  0  0  0  0  0  0  0  0  0  0  0
  186.3180  178.0850  144.7100 O   0  0  0  0  0  0  0  0  0  0  0  0
  189.6250  177.3860  141.7890 C   0  0  0  0  0  0  0  0  0  0  0  0
  190.8530  177.1970  142.4700 C   0  0  0  0  0  3  0  0  0  0  0  0
  195.5510  174.5050  136.0990 C   0  0  0  0  0  2  0  0  0  0  0  0
  196.6190  175.4130  136.4870 N   0  0  0  0  0  2  0  0  0  0  0  0
  196.9940  176.1450  135.2920 C   0  0  0  0  0  1  0  0  0  0  0  0
  1  9  1  0  0  0  0
  2 18  1  0  0  0  0
  3 16  2  0  0  0  0
  3 10  1  0  0  0  0
  4  9  2  0  0  0  0
  5  1  2  0  0  0  0
  6  4  1  0  0  0  0
  7  8  2  0  0  0  0
  8  6  1  0  0  0  0
  9 30  1  0  0  0  0
 10 11  1  0  0  0  0
 11  5  1  0  0  0  0
 11  6  2  0  0  0  0
 12 10  2  0  0  0  0
 12  7  1  0  0  0  0
 13  2  2  0  0  0  0
 13 14  1  0  0  0  0
 14 15  2  0  0  0  0
 15 17  1  0  0  0  0
 16  2  1  0  0  0  0
 18  5  1  0  0  0  0
 18 17  2  0  0  0  0
 19 25  1  0  0  0  0
 20 28  1  0  0  0  0
 21 22  1  0  0  0  0
 22 24  2  0  0  0  0
 22 26  1  0  0  0  0
 23 21  1  0  0  0  0
 25 23  1  0  0  0  0
 27 21  1  0  0  0  0
 28 25  2  0  0  0  0
 28 27  1  0  0  0  0
 29 27  2  0  0  0  0
 30 31  1  0  0  0  0
 30 20  2  0  0  0  0
 31 19  2  0  0  0  0
 32 33  1  0  0  0  0
 32 14  1  0  0  0  0
 34 33  1  0  0  0  0
M  END
>  <MODEL>
4

>  <REMARK>
 VINA RESULT:      -9.9      4.074      7.427
  Name = 
  3 active torsions:
  status: ('A' for Active; 'I' for Inactive)
    1  A    between atoms: C_3  and  N_13
    2  A    between atoms: C_3  and  C_25
    3  A    between atoms: C_18  and  C_30
                            x       y       z     vdW  Elec       q    Type
                         _______ _______ _______ _____ _____    ______ ____

>  <TORSDO>
F 3

$$$$
=
 OpenBabel11052415543D

 34 39  0  0  0  0  0  0  0  0999 V2000
  188.3060  177.4740  142.4320 C   0  0  0  0  0  3  0  0  0  0  0  0
  185.6480  178.0130  145.0570 C   0  0  0  0  0  0  0  0  0  0  0  0
  187.2020  177.1150  146.7440 C   0  0  0  0  0  3  0  0  0  0  0  0
  190.5910  177.2980  143.1280 C   0  0  0  0  0  3  0  0  0  0  0  0
  187.8610  177.6480  143.7580 C   0  0  0  0  0  0  0  0  0  0  0  0
  190.1970  177.4440  144.4560 C   0  0  0  0  0  0  0  0  0  0  0  0
  190.8580  177.5280  146.7290 C   0  0  0  0  0  3  0  0  0  0  0  0
  191.1620  177.4760  145.4110 N   0  0  0  0  0  0  0  0  0  0  0  0
  189.6460  177.2660  142.1060 C   0  0  0  0  0  0  0  0  0  0  0  0
  188.5010  177.4910  146.1850 C   0  0  0  0  0  0  0  0  0  0  0  0
  188.8160  177.5350  144.8060 C   0  0  0  0  0  0  0  0  0  0  0  0
  189.5290  177.5040  147.1300 C   0  0  0  0  0  3  0  0  0  0  0  0
  184.3380  178.5110  145.0440 C   0  0  0  0  0  3  0  0  0  0  0  0
  183.8290  179.1910  143.9410 C   0  0  0  0  0  0  0  0  0  0  0  0
  184.6340  179.3870  142.8260 C   0  0  0  0  0  3  0  0  0  0  0  0
  186.0300  177.3270  146.2440 N   0  0  0  0  0  0  0  0  0  0  0  0
  185.9310  178.8800  142.8170 C   0  0  0  0  0  3  0  0  0  0  0  0
  186.4710  178.1740  143.9150 C   0  0  0  0  0  0  0  0  0  0  0  0
  189.4680  176.9070  138.3150 C   0  0  0  0  0  3  0  0  0  0  0  0
  191.4180  176.8680  140.3690 C   0  0  0  0  0  3  0  0  0  0  0  0
  192.8710  176.3270  137.0050 N   0  0  0  0  0  0  0  0  0  0  0  0
  193.9060  176.0780  136.0440 C   0  0  0  0  0  0  0  0  0  0  0  0
  191.4470  176.4800  136.6840 C   0  0  0  0  0  2  0  0  0  0  0  0
  195.1020  175.9480  136.4160 O   0  0  0  0  0  0  0  0  0  0  0  0
  190.8150  176.7030  138.0270 C   0  0  0  0  0  0  0  0  0  0  0  0
  193.5840  175.9700  134.5940 C   0  0  0  0  0  1  0  0  0  0  0  0
  193.0370  176.4560  138.4160 C   0  0  0  0  0  0  0  0  0  0  0  0
  191.7570  176.6860  139.0310 C   0  0  0  0  0  0  0  0  0  0  0  0
  194.1410  176.3780  139.0190 O   0  0  0  0  0  0  0  0  0  0  0  0
  190.0600  177.0770  140.6950 C   0  0  0  0  0  0  0  0  0  0  0  0
  189.0960  177.0940  139.6560 C   0  0  0  0  0  3  0  0  0  0  0  0
  182.4450  179.7370  143.9700 C   0  0  0  0  0  2  0  0  0  0  0  0
  181.5890  178.9610  143.0880 N   0  0  0  0  0  2  0  0  0  0  0  0
  180.4010  178.6280  143.8500 C   0  0  0  0  0  1  0  0  0  0  0  0
  1  5  1  0  0  0  0
  2 16  1  0  0  0  0
  4  6  2  0  0  0  0
  5 18  1  0  0  0  0
  5 11  2  0  0  0  0
  6 11  1  0  0  0  0
  6  8  1  0  0  0  0
  7 12  1  0  0  0  0
  8  7  2  0  0  0  0
  9  1  2  0  0  0  0
  9  4  1  0  0  0  0
 10  3  1  0  0  0  0
 10 12  2  0  0  0  0
 11 10  1  0  0  0  0
 13  2  1  0  0  0  0
 14 32  1  0  0  0  0
 14 13  2  0  0  0  0
 15 14  1  0  0  0  0
 16  3  2  0  0  0  0
 17 15  2  0  0  0  0
 17 18  1  0  0  0  0
 18  2  2  0  0  0  0
 19 31  1  0  0  0  0
 20 30  1  0  0  0  0
 21 27  1  0  0  0  0
 22 24  2  0  0  0  0
 22 21  1  0  0  0  0
 23 21  1  0  0  0  0
 23 25  1  0  0  0  0
 25 19  2  0  0  0  0
 25 28  1  0  0  0  0
 26 22  1  0  0  0  0
 27 29  2  0  0  0  0
 27 28  1  0  0  0  0
 28 20  2  0  0  0  0
 30  9  1  0  0  0  0
 31 30  2  0  0  0  0
 33 34  1  0  0  0  0
 33 32  1  0  0  0  0
M  END
>  <MODEL>
5

>  <REMARK>
 VINA RESULT:      -9.8      3.412      8.733
  Name = 
  3 active torsions:
  status: ('A' for Active; 'I' for Inactive)
    1  A    between atoms: C_3  and  N_13
    2  A    between atoms: C_3  and  C_25
    3  A    between atoms: C_18  and  C_30
                            x       y       z     vdW  Elec       q    Type
                         _______ _______ _______ _____ _____    ______ ____

>  <TORSDO>
F 3

$$$$
=
 OpenBabel11052415543D

 34 39  0  0  0  0  0  0  0  0999 V2000
  187.8740  177.8340  142.0350 C   0  0  0  0  0  3  0  0  0  0  0  0
  190.9780  177.2560  139.9660 C   0  0  0  0  0  0  0  0  0  0  0  0
  192.3280  177.5050  142.0120 C   0  0  0  0  0  3  0  0  0  0  0  0
  187.9800  177.4590  144.3980 C   0  0  0  0  0  3  0  0  0  0  0  0
  189.2270  177.4780  141.8640 C   0  0  0  0  0  0  0  0  0  0  0  0
  189.3260  177.1190  144.2830 C   0  0  0  0  0  0  0  0  0  0  0  0
  191.3130  176.4630  145.3910 C   0  0  0  0  0  3  0  0  0  0  0  0
  189.9860  176.7260  145.4020 N   0  0  0  0  0  0  0  0  0  0  0  0
  187.2510  177.8630  143.2820 C   0  0  0  0  0  0  0  0  0  0  0  0
  191.4030  177.0260  143.0400 C   0  0  0  0  0  0  0  0  0  0  0  0
  190.0000  177.2050  143.0270 C   0  0  0  0  0  0  0  0  0  0  0  0
  192.0400  176.6410  144.2220 C   0  0  0  0  0  3  0  0  0  0  0  0
  191.2250  177.0100  138.6090 C   0  0  0  0  0  3  0  0  0  0  0  0
  190.1980  176.6690  137.7320 C   0  0  0  0  0  0  0  0  0  0  0  0
  188.8980  176.5620  138.2090 C   0  0  0  0  0  3  0  0  0  0  0  0
  192.1180  177.6090  140.7420 N   0  0  0  0  0  0  0  0  0  0  0  0
  188.6340  176.8230  139.5520 C   0  0  0  0  0  3  0  0  0  0  0  0
  189.6520  177.1850  140.4620 C   0  0  0  0  0  0  0  0  0  0  0  0
  183.9470  178.9990  144.8050 C   0  0  0  0  0  3  0  0  0  0  0  0
  184.9820  178.2530  142.2770 C   0  0  0  0  0  3  0  0  0  0  0  0
  181.3850  179.1290  142.1500 N   0  0  0  0  0  0  0  0  0  0  0  0
  180.0990  179.3200  141.5450 C   0  0  0  0  0  0  0  0  0  0  0  0
  181.6810  179.3290  143.5730 C   0  0  0  0  0  2  0  0  0  0  0  0
  179.9360  179.1100  140.3140 O   0  0  0  0  0  0  0  0  0  0  0  0
  183.1390  178.9840  143.6710 C   0  0  0  0  0  0  0  0  0  0  0  0
  178.9370  179.7700  142.3620 C   0  0  0  0  0  1  0  0  0  0  0  0
  182.5770  178.7060  141.4900 C   0  0  0  0  0  0  0  0  0  0  0  0
  183.6500  178.6210  142.4460 C   0  0  0  0  0  0  0  0  0  0  0  0
  182.6650  178.4500  140.2590 O   0  0  0  0  0  0  0  0  0  0  0  0
  185.8280  178.2570  143.4070 C   0  0  0  0  0  0  0  0  0  0  0  0
  185.2950  178.6320  144.6660 C   0  0  0  0  0  3  0  0  0  0  0  0
  190.4970  176.3810  136.3030 C   0  0  0  0  0  2  0  0  0  0  0  0
  191.7270  175.6120  136.2020 N   0  0  0  0  0  2  0  0  0  0  0  0
  191.4700  174.5450  135.2520 C   0  0  0  0  0  1  0  0  0  0  0  0
  1  9  1  0  0  0  0
  2 18  1  0  0  0  0
  2 16  1  0  0  0  0
  3 10  1  0  0  0  0
  5  1  2  0  0  0  0
  5 11  1  0  0  0  0
  6  4  1  0  0  0  0
  6  8  1  0  0  0  0
  7  8  2  0  0  0  0
  9 30  1  0  0  0  0
  9  4  2  0  0  0  0
 10 12  2  0  0  0  0
 11 10  1  0  0  0  0
 11  6  2  0  0  0  0
 12  7  1  0  0  0  0
 13  2  2  0  0  0  0
 14 15  2  0  0  0  0
 14 13  1  0  0  0  0
 15 17  1  0  0  0  0
 16  3  2  0  0  0  0
 17 18  2  0  0  0  0
 18  5  1  0  0  0  0
 20 28  2  0  0  0  0
 20 30  1  0  0  0  0
 21 23  1  0  0  0  0
 22 21  1  0  0  0  0
 22 26  1  0  0  0  0
 23 25  1  0  0  0  0
 24 22  2  0  0  0  0
 25 19  2  0  0  0  0
 27 21  1  0  0  0  0
 27 28  1  0  0  0  0
 28 25  1  0  0  0  0
 29 27  2  0  0  0  0
 30 31  2  0  0  0  0
 31 19  1  0  0  0  0
 32 14  1  0  0  0  0
 33 32  1  0  0  0  0
 34 33  1  0  0  0  0
M  END
>  <MODEL>
6

>  <REMARK>
 VINA RESULT:      -9.4      1.413      1.799
  Name = 
  3 active torsions:
  status: ('A' for Active; 'I' for Inactive)
    1  A    between atoms: C_3  and  N_13
    2  A    between atoms: C_3  and  C_25
    3  A    between atoms: C_18  and  C_30
                            x       y       z     vdW  Elec       q    Type
                         _______ _______ _______ _____ _____    ______ ____

>  <TORSDO>
F 3

$$$$
=
 OpenBabel11052415543D

 34 39  0  0  0  0  0  0  0  0999 V2000
  187.8760  177.6790  143.3140 C   0  0  0  0  0  3  0  0  0  0  0  0
  184.6910  178.1940  145.2730 C   0  0  0  0  0  0  0  0  0  0  0  0
  185.8900  177.4970  147.3100 C   0  0  0  0  0  3  0  0  0  0  0  0
  189.9630  177.6890  144.4880 C   0  0  0  0  0  3  0  0  0  0  0  0
  187.1470  177.8990  144.5000 C   0  0  0  0  0  0  0  0  0  0  0  0
  189.2860  177.8860  145.6890 C   0  0  0  0  0  0  0  0  0  0  0  0
  189.4370  178.1430  148.0380 C   0  0  0  0  0  3  0  0  0  0  0  0
  190.0200  178.0350  146.8220 N   0  0  0  0  0  0  0  0  0  0  0  0
  189.2630  177.5380  143.2930 C   0  0  0  0  0  0  0  0  0  0  0  0
  187.2570  177.9230  147.0120 C   0  0  0  0  0  0  0  0  0  0  0  0
  187.8590  177.9080  145.7310 C   0  0  0  0  0  0  0  0  0  0  0  0
  188.0560  178.0560  148.1500 C   0  0  0  0  0  3  0  0  0  0  0  0
  183.3910  178.6060  144.9490 C   0  0  0  0  0  3  0  0  0  0  0  0
  183.0970  179.1870  143.7180 C   0  0  0  0  0  0  0  0  0  0  0  0
  184.1130  179.3700  142.7880 C   0  0  0  0  0  3  0  0  0  0  0  0
  184.8430  177.6040  146.5590 N   0  0  0  0  0  0  0  0  0  0  0  0
  185.4050  178.9480  143.0880 C   0  0  0  0  0  3  0  0  0  0  0  0
  185.7310  178.3420  144.3220 C   0  0  0  0  0  0  0  0  0  0  0  0
  192.0910  177.1330  140.7700 C   0  0  0  0  0  3  0  0  0  0  0  0
  189.2610  177.0180  140.8350 C   0  0  0  0  0  3  0  0  0  0  0  0
  190.6430  176.3860  137.4570 N   0  0  0  0  0  0  0  0  0  0  0  0
  190.6020  176.1080  136.0500 C   0  0  0  0  0  0  0  0  0  0  0  0
  191.8690  176.6000  138.2350 C   0  0  0  0  0  2  0  0  0  0  0  0
  189.4990  175.9510  135.4630 O   0  0  0  0  0  0  0  0  0  0  0  0
  191.3530  176.8610  139.6200 C   0  0  0  0  0  0  0  0  0  0  0  0
  191.8620  176.0020  135.2620 C   0  0  0  0  0  1  0  0  0  0  0  0
  189.5200  176.5110  138.3290 C   0  0  0  0  0  0  0  0  0  0  0  0
  189.9780  176.8070  139.6600 C   0  0  0  0  0  0  0  0  0  0  0  0
  188.3180  176.3810  137.9750 O   0  0  0  0  0  0  0  0  0  0  0  0
  189.9800  177.2960  142.0190 C   0  0  0  0  0  0  0  0  0  0  0  0
  191.3950  177.3500  141.9700 C   0  0  0  0  0  3  0  0  0  0  0  0
  181.7140  179.6440  143.4160 C   0  0  0  0  0  2  0  0  0  0  0  0
  180.7520  178.7040  143.9690 N   0  0  0  0  0  2  0  0  0  0  0  0
  179.4400  179.2920  143.7750 C   0  0  0  0  0  1  0  0  0  0  0  0
  1  5  1  0  0  0  0
  2 16  1  0  0  0  0
  4  6  2  0  0  0  0
  5 11  2  0  0  0  0
  6 11  1  0  0  0  0
  6  8  1  0  0  0  0
  7 12  1  0  0  0  0
  8  7  2  0  0  0  0
  9  1  2  0  0  0  0
  9  4  1  0  0  0  0
 10  3  1  0  0  0  0
 10 12  2  0  0  0  0
 11 10  1  0  0  0  0
 13  2  1  0  0  0  0
 14 13  2  0  0  0  0
 15 17  2  0  0  0  0
 15 14  1  0  0  0  0
 16  3  2  0  0  0  0
 17 18  1  0  0  0  0
 18  5  1  0  0  0  0
 18  2  2  0  0  0  0
 19 31  1  0  0  0  0
 20 30  1  0  0  0  0
 21 23  1  0  0  0  0
 21 27  1  0  0  0  0
 22 21  1  0  0  0  0
 23 25  1  0  0  0  0
 24 22  2  0  0  0  0
 25 28  1  0  0  0  0
 25 19  2  0  0  0  0
 26 22  1  0  0  0  0
 27 28  1  0  0  0  0
 28 20  2  0  0  0  0
 29 27  2  0  0  0  0
 30  9  1  0  0  0  0
 31 30  2  0  0  0  0
 32 14  1  0  0  0  0
 32 33  1  0  0  0  0
 34 33  1  0  0  0  0
M  END
>  <MODEL>
7

>  <REMARK>
 VINA RESULT:      -9.1      2.371      8.098
  Name = 
  3 active torsions:
  status: ('A' for Active; 'I' for Inactive)
    1  A    between atoms: C_3  and  N_13
    2  A    between atoms: C_3  and  C_25
    3  A    between atoms: C_18  and  C_30
                            x       y       z     vdW  Elec       q    Type
                         _______ _______ _______ _____ _____    ______ ____

>  <TORSDO>
F 3

$$$$
=
 OpenBabel11052415543D

 34 39  0  0  0  0  0  0  0  0999 V2000
  186.2990  178.2980  141.2860 C   0  0  0  0  0  3  0  0  0  0  0  0
  185.5220  178.7310  144.9540 C   0  0  0  0  0  0  0  0  0  0  0  0
  183.3370  179.6820  144.3290 C   0  0  0  0  0  3  0  0  0  0  0  0
  184.4830  178.2370  139.7260 C   0  0  0  0  0  3  0  0  0  0  0  0
  185.4240  178.4660  142.3790 C   0  0  0  0  0  0  0  0  0  0  0  0
  183.5800  178.4230  140.7690 C   0  0  0  0  0  0  0  0  0  0  0  0
  181.3180  178.6860  141.4200 C   0  0  0  0  0  3  0  0  0  0  0  0
  182.2540  178.4260  140.4780 N   0  0  0  0  0  0  0  0  0  0  0  0
  185.8550  178.2170  139.9670 C   0  0  0  0  0  0  0  0  0  0  0  0
  183.0640  178.9970  143.0660 C   0  0  0  0  0  0  0  0  0  0  0  0
  184.0370  178.6280  142.1070 C   0  0  0  0  0  0  0  0  0  0  0  0
  181.7130  179.0050  142.7120 C   0  0  0  0  0  3  0  0  0  0  0  0
  186.2090  178.4590  146.1460 C   0  0  0  0  0  3  0  0  0  0  0  0
  187.3540  177.6660  146.1610 C   0  0  0  0  0  0  0  0  0  0  0  0
  187.8270  177.1230  144.9720 C   0  0  0  0  0  3  0  0  0  0  0  0
  184.3780  179.5680  145.0860 N   0  0  0  0  0  0  0  0  0  0  0  0
  187.1650  177.4010  143.7790 C   0  0  0  0  0  3  0  0  0  0  0  0
  186.0110  178.2140  143.7290 C   0  0  0  0  0  0  0  0  0  0  0  0
  187.4890  178.5340  136.5380 C   0  0  0  0  0  3  0  0  0  0  0  0
  187.9720  177.2520  139.0170 C   0  0  0  0  0  3  0  0  0  0  0  0
  190.6040  176.5520  136.5070 N   0  0  0  0  0  0  0  0  0  0  0  0
  191.8080  175.9670  135.9920 C   0  0  0  0  0  0  0  0  0  0  0  0
  189.7040  177.4270  135.7460 C   0  0  0  0  0  2  0  0  0  0  0  0
  192.5110  175.2150  136.7170 O   0  0  0  0  0  0  0  0  0  0  0  0
  188.6160  177.7390  136.7310 C   0  0  0  0  0  0  0  0  0  0  0  0
  192.2440  176.2380  134.5940 C   0  0  0  0  0  1  0  0  0  0  0  0
  190.0720  176.3810  137.8200 C   0  0  0  0  0  0  0  0  0  0  0  0
  188.8430  177.1200  137.9400 C   0  0  0  0  0  0  0  0  0  0  0  0
  190.6070  175.6870  138.7260 O   0  0  0  0  0  0  0  0  0  0  0  0
  186.8190  178.0520  138.8530 C   0  0  0  0  0  0  0  0  0  0  0  0
  186.5910  178.6860  137.6070 C   0  0  0  0  0  3  0  0  0  0  0  0
  188.0420  177.3680  147.4460 C   0  0  0  0  0  2  0  0  0  0  0  0
  189.3950  177.9000  147.4160 N   0  0  0  0  0  2  0  0  0  0  0  0
  190.2880  176.7590  147.3350 C   0  0  0  0  0  1  0  0  0  0  0  0
  1  5  1  0  0  0  0
  2 16  1  0  0  0  0
  2 13  1  0  0  0  0
  3 16  2  0  0  0  0
  4  9  1  0  0  0  0
  4  6  2  0  0  0  0
  5 18  1  0  0  0  0
  6 11  1  0  0  0  0
  7 12  1  0  0  0  0
  8  6  1  0  0  0  0
  8  7  2  0  0  0  0
  9  1  2  0  0  0  0
 10  3  1  0  0  0  0
 11  5  2  0  0  0  0
 11 10  1  0  0  0  0
 12 10  2  0  0  0  0
 13 14  2  0  0  0  0
 14 32  1  0  0  0  0
 15 14  1  0  0  0  0
 17 15  2  0  0  0  0
 18 17  1  0  0  0  0
 18  2  2  0  0  0  0
 19 25  2  0  0  0  0
 19 31  1  0  0  0  0
 21 27  1  0  0  0  0
 22 21  1  0  0  0  0
 22 24  2  0  0  0  0
 23 21  1  0  0  0  0
 23 25  1  0  0  0  0
 25 28  1  0  0  0  0
 26 22  1  0  0  0  0
 27 28  1  0  0  0  0
 27 29  2  0  0  0  0
 28 20  2  0  0  0  0
 30 20  1  0  0  0  0
 30  9  1  0  0  0  0
 31 30  2  0  0  0  0
 33 32  1  0  0  0  0
 34 33  1  0  0  0  0
M  END
>  <MODEL>
8

>  <REMARK>
 VINA RESULT:      -9.1      3.205      8.503
  Name = 
  3 active torsions:
  status: ('A' for Active; 'I' for Inactive)
    1  A    between atoms: C_3  and  N_13
    2  A    between atoms: C_3  and  C_25
    3  A    between atoms: C_18  and  C_30
                            x       y       z     vdW  Elec       q    Type
                         _______ _______ _______ _____ _____    ______ ____

>  <TORSDO>
F 3

$$$$
=
 OpenBabel11052415543D

 34 39  0  0  0  0  0  0  0  0999 V2000
  183.6850  177.9810  142.0100 C   0  0  0  0  0  3  0  0  0  0  0  0
  181.8930  177.4660  138.7280 C   0  0  0  0  0  0  0  0  0  0  0  0
  179.7680  177.9760  139.8660 C   0  0  0  0  0  3  0  0  0  0  0  0
  182.6100  179.2710  143.7170 C   0  0  0  0  0  3  0  0  0  0  0  0
  182.5990  178.1470  141.1270 C   0  0  0  0  0  0  0  0  0  0  0  0
  181.5040  179.4450  142.8890 C   0  0  0  0  0  0  0  0  0  0  0  0
  179.3340  180.3590  142.6340 C   0  0  0  0  0  3  0  0  0  0  0  0
  180.4790  180.2130  143.3400 N   0  0  0  0  0  0  0  0  0  0  0  0
  183.6940  178.5000  143.3040 C   0  0  0  0  0  0  0  0  0  0  0  0
  180.2050  178.8890  140.9210 C   0  0  0  0  0  0  0  0  0  0  0  0
  181.4390  178.8140  141.6100 C   0  0  0  0  0  0  0  0  0  0  0  0
  179.1730  179.6760  141.4360 C   0  0  0  0  0  3  0  0  0  0  0  0
  182.2940  177.1250  137.4290 C   0  0  0  0  0  3  0  0  0  0  0  0
  183.6350  177.1510  137.0520 C   0  0  0  0  0  0  0  0  0  0  0  0
  184.6000  177.5280  137.9780 C   0  0  0  0  0  3  0  0  0  0  0  0
  180.4940  177.3810  138.9780 N   0  0  0  0  0  0  0  0  0  0  0  0
  184.2170  177.8500  139.2770 C   0  0  0  0  0  3  0  0  0  0  0  0
  182.8680  177.8190  139.6940 C   0  0  0  0  0  0  0  0  0  0  0  0
  185.8680  178.4180  146.4340 C   0  0  0  0  0  3  0  0  0  0  0  0
  186.0690  177.7730  143.6830 C   0  0  0  0  0  3  0  0  0  0  0  0
  189.2070  177.1190  145.5400 N   0  0  0  0  0  0  0  0  0  0  0  0
  190.5720  176.7150  145.7140 C   0  0  0  0  0  0  0  0  0  0  0  0
  188.3400  177.6310  146.6080 C   0  0  0  0  0  2  0  0  0  0  0  0
  191.2440  176.3000  144.7330 O   0  0  0  0  0  0  0  0  0  0  0  0
  187.0490  177.9100  145.8960 C   0  0  0  0  0  0  0  0  0  0  0  0
  191.2160  176.7810  147.0560 C   0  0  0  0  0  1  0  0  0  0  0  0
  188.4680  177.1060  144.3190 C   0  0  0  0  0  0  0  0  0  0  0  0
  187.1380  177.5990  144.5580 C   0  0  0  0  0  0  0  0  0  0  0  0
  188.9220  176.7190  143.2090 O   0  0  0  0  0  0  0  0  0  0  0  0
  184.8580  178.2860  144.1970 C   0  0  0  0  0  0  0  0  0  0  0  0
  184.7730  178.6040  145.5750 C   0  0  0  0  0  3  0  0  0  0  0  0
  184.0270  176.8160  135.6560 C   0  0  0  0  0  2  0  0  0  0  0  0
  182.9230  176.1550  134.9790 N   0  0  0  0  0  2  0  0  0  0  0  0
  181.9890  177.1970  134.5940 C   0  0  0  0  0  1  0  0  0  0  0  0
  1  9  1  0  0  0  0
  2 16  1  0  0  0  0
  2 18  1  0  0  0  0
  3 10  1  0  0  0  0
  5 11  1  0  0  0  0
  5  1  2  0  0  0  0
  6  8  1  0  0  0  0
  6  4  1  0  0  0  0
  7  8  2  0  0  0  0
  9  4  2  0  0  0  0
  9 30  1  0  0  0  0
 10 12  2  0  0  0  0
 10 11  1  0  0  0  0
 11  6  2  0  0  0  0
 12  7  1  0  0  0  0
 13  2  2  0  0  0  0
 14 13  1  0  0  0  0
 14 15  2  0  0  0  0
 15 17  1  0  0  0  0
 16  3  2  0  0  0  0
 17 18  2  0  0  0  0
 18  5  1  0  0  0  0
 20 30  2  0  0  0  0
 20 28  1  0  0  0  0
 21 22  1  0  0  0  0
 21 23  1  0  0  0  0
 22 26  1  0  0  0  0
 24 22  2  0  0  0  0
 25 19  1  0  0  0  0
 25 23  1  0  0  0  0
 27 28  1  0  0  0  0
 27 21  1  0  0  0  0
 28 25  2  0  0  0  0
 29 27  2  0  0  0  0
 30 31  1  0  0  0  0
 31 19  2  0  0  0  0
 32 14  1  0  0  0  0
 33 32  1  0  0  0  0
 34 33  1  0  0  0  0
M  END
>  <MODEL>
9

>  <REMARK>
 VINA RESULT:      -9.1      3.707      8.782
  Name = 
  3 active torsions:
  status: ('A' for Active; 'I' for Inactive)
    1  A    between atoms: C_3  and  N_13
    2  A    between atoms: C_3  and  C_25
    3  A    between atoms: C_18  and  C_30
                            x       y       z     vdW  Elec       q    Type
                         _______ _______ _______ _____ _____    ______ ____

>  <TORSDO>
F 3

$$$$
