=
 OpenBabel11052416403D

 43 47  0  0  1  0  0  0  0  0999 V2000
  182.8830  175.7930  138.6630 C   0  0  0  0  0  2  0  0  0  0  0  0
  182.8880  176.7650  137.4730 C   0  0  1  0  0  3  0  0  0  0  0  0
  182.4740  176.4980  139.9510 C   0  0  0  0  0  2  0  0  0  0  0  0
  183.1960  178.2210  137.8550 C   0  0  0  0  0  2  0  0  0  0  0  0
  184.1010  178.3060  139.0840 C   0  0  0  0  0  2  0  0  0  0  0  0
  183.4710  177.6120  140.3090 C   0  0  1  0  0  3  0  0  0  0  0  0
  184.7490  175.2390  136.6740 N   0  0  0  0  0  2  0  0  0  0  0  0
  183.8190  176.2940  136.4060 C   0  0  0  0  0  0  0  0  0  0  0  0
  183.7990  176.8570  135.2790 O   0  0  0  0  0  0  0  0  0  0  0  0
  185.7030  174.7470  135.6870 C   0  0  0  0  0  2  0  0  0  0  0  0
  188.0090  174.2940  136.6200 N   0  0  0  0  0  2  0  0  0  0  0  0
  187.4140  176.3920  135.7470 O   0  0  0  0  0  0  0  0  0  0  0  0
  187.0830  175.2070  136.0160 C   0  0  0  0  0  0  0  0  0  0  0  0
  189.3660  174.5760  136.9800 C   0  0  0  0  0  0  0  0  0  0  0  0
  190.0800  173.6510  137.4520 O   0  0  0  0  0  0  0  0  0  0  0  0
  189.9590  175.9400  136.8240 C   0  0  0  0  0  2  0  0  0  0  0  0
  189.9620  176.6670  138.1300 C   0  0  0  0  0  0  0  0  0  0  0  0
  188.8140  178.2150  139.7220 C   0  0  0  0  0  2  0  0  0  0  0  0
  191.0390  177.3170  140.3360 C   0  0  0  0  0  2  0  0  0  0  0  0
  189.6160  177.5370  140.8280 C   0  0  0  0  0  2  0  0  0  0  0  0
  191.0400  176.3560  139.1450 C   0  0  0  0  0  2  0  0  0  0  0  0
  188.9130  177.4520  138.4270 C   0  0  0  0  0  3  0  0  0  0  0  0
  182.8680  178.5910  141.3260 C   0  0  2  0  0  3  0  0  0  0  0  0
  186.7090  178.1760  146.5840 C   0  0  0  0  0  0  0  0  0  0  0  0
  183.5520  178.5730  142.6670 C   0  0  0  0  0  0  0  0  0  0  0  0
  184.7740  178.5980  145.1930 C   0  0  0  0  0  0  0  0  0  0  0  0
  187.4190  177.7250  145.4660 C   0  0  0  0  0  3  0  0  0  0  0  0
  187.3030  178.1910  147.8010 F   0  0  0  0  0  0  0  0  0  0  0  0
  185.4910  178.1430  144.0630 C   0  0  0  0  0  0  0  0  0  0  0  0
  185.3870  178.6130  146.4480 C   0  0  0  0  0  3  0  0  0  0  0  0
  186.8110  177.7090  144.2060 C   0  0  0  0  0  3  0  0  0  0  0  0
  184.8780  178.1340  142.8080 C   0  0  0  0  0  3  0  0  0  0  0  0
  182.8460  179.0200  143.7900 C   0  0  0  0  0  3  0  0  0  0  0  0
  183.4530  179.0330  145.0500 C   0  0  0  0  0  3  0  0  0  0  0  0
  181.3530  178.4280  141.4290 C   0  0  0  0  0  2  0  0  0  0  0  0
  178.9310  179.9340  139.0130 C   0  0  0  0  0  2  0  0  0  0  0  0
  179.0520  181.3510  139.5870 C   0  0  1  0  0  3  0  0  0  0  0  0
  179.7280  180.0910  141.7040 C   0  0  0  0  0  2  0  0  0  0  0  0
  179.9310  178.9420  139.6380 C   0  0  0  0  0  2  0  0  0  0  0  0
  180.6810  179.5250  140.7530 N   0  0  0  0  0  0  0  0  0  0  0  0
  179.0630  181.3410  141.1210 C   0  0  0  0  0  2  0  0  0  0  0  0
  179.7820  182.7380  138.0210 C   0  0  0  0  0  1  0  0  0  0  0  0
  180.2110  181.9640  139.1020 O   0  0  0  0  0  0  0  0  0  0  0  0
  1  3  1  0  0  0  0
  2  8  1  6  0  0  0
  2  4  1  0  0  0  0
  2  1  1  0  0  0  0
  3  6  1  0  0  0  0
  4  5  1  0  0  0  0
  5  6  1  0  0  0  0
  6 23  1  6  0  0  0
  8  7  1  0  0  0  0
  9  8  2  0  0  0  0
 10 13  1  0  0  0  0
 10  7  1  0  0  0  0
 11 14  1  0  0  0  0
 12 13  2  0  0  0  0
 13 11  1  0  0  0  0
 14 15  2  0  0  0  0
 16 14  1  0  0  0  0
 16 17  1  0  0  0  0
 17 22  2  0  0  0  0
 17 21  1  0  0  0  0
 18 20  1  0  0  0  0
 19 20  1  0  0  0  0
 21 19  1  0  0  0  0
 22 18  1  0  0  0  0
 23 35  1  1  0  0  0
 23 25  1  0  0  0  0
 24 28  1  0  0  0  0
 25 32  2  0  0  0  0
 25 33  1  0  0  0  0
 26 30  2  0  0  0  0
 27 24  2  0  0  0  0
 29 31  2  0  0  0  0
 29 26  1  0  0  0  0
 30 24  1  0  0  0  0
 31 27  1  0  0  0  0
 32 29  1  0  0  0  0
 33 34  2  0  0  0  0
 34 26  1  0  0  0  0
 36 37  1  0  0  0  0
 36 39  1  0  0  0  0
 37 43  1  6  0  0  0
 37 41  1  0  0  0  0
 39 40  1  0  0  0  0
 40 35  1  0  0  0  0
 40 38  1  0  0  0  0
 41 38  1  0  0  0  0
 42 43  1  0  0  0  0
M  END
>  <MODEL>
1

>  <REMARK>
 VINA RESULT:      -9.2      0.000      0.000
  Name = 
  10 active torsions:
  status: ('A' for Active; 'I' for Inactive)
    1  A    between atoms: C_1  and  C_34
    2  A    between atoms: C_1  and  N_35
    3  A    between atoms: N_3  and  C_42
    4  A    between atoms: C_6  and  C_12
    5  A    between atoms: C_8  and  C_34
    6  A    between atoms: C_11  and  C_14
    7  A    between atoms: C_14  and  C_22
    8  A    between atoms: C_15  and  C_42
    9  A    between atoms: C_19  and  O_37
   10  A    between atoms: C_34  and  C_38
                            x       y       z     vdW  Elec       q    Type
                         _______ _______ _______ _____ _____    ______ ____

>  <TORSDO>
F 10

$$$$
=
 OpenBabel11052416403D

 43 47  0  0  1  0  0  0  0  0999 V2000
  188.2620  178.6230  136.7420 C   0  0  0  0  0  2  0  0  0  0  0  0
  187.7050  177.3050  136.1820 C   0  0  1  0  0  3  0  0  0  0  0  0
  189.4680  178.3760  137.6420 C   0  0  0  0  0  2  0  0  0  0  0  0
  187.9260  176.0920  137.0990 C   0  0  0  0  0  2  0  0  0  0  0  0
  187.9650  176.4950  138.5730 C   0  0  0  0  0  2  0  0  0  0  0  0
  189.0800  177.5220  138.8590 C   0  0  1  0  0  3  0  0  0  0  0  0
  185.2570  177.2930  136.8480 N   0  0  0  0  0  2  0  0  0  0  0  0
  186.2590  177.4450  135.8370 C   0  0  0  0  0  0  0  0  0  0  0  0
  185.9320  177.6660  134.6410 O   0  0  0  0  0  0  0  0  0  0  0  0
  183.8280  177.3920  136.5750 C   0  0  0  0  0  2  0  0  0  0  0  0
  182.6550  178.9310  138.2030 N   0  0  0  0  0  2  0  0  0  0  0  0
  182.7880  176.6130  138.5620 O   0  0  0  0  0  0  0  0  0  0  0  0
  183.0660  177.6060  137.8390 C   0  0  0  0  0  0  0  0  0  0  0  0
  181.9090  179.2970  139.3690 C   0  0  0  0  0  0  0  0  0  0  0  0
  181.5690  180.5000  139.5270 O   0  0  0  0  0  0  0  0  0  0  0  0
  181.5300  178.2960  140.4140 C   0  0  0  0  0  2  0  0  0  0  0  0
  182.3990  178.4380  141.6210 C   0  0  0  0  0  0  0  0  0  0  0  0
  184.6810  178.3710  142.6370 C   0  0  0  0  0  2  0  0  0  0  0  0
  182.7470  178.8700  144.0990 C   0  0  0  0  0  2  0  0  0  0  0  0
  184.1450  179.3210  143.7010 C   0  0  0  0  0  2  0  0  0  0  0  0
  181.8000  178.9780  142.9010 C   0  0  0  0  0  2  0  0  0  0  0  0
  183.7210  178.2390  141.4850 C   0  0  0  0  0  3  0  0  0  0  0  0
  190.3190  176.9120  139.5270 C   0  0  2  0  0  3  0  0  0  0  0  0
  189.3370  177.5140  145.9500 C   0  0  0  0  0  0  0  0  0  0  0  0
  190.3430  177.0710  141.0240 C   0  0  0  0  0  0  0  0  0  0  0  0
  190.4650  177.3330  143.8150 C   0  0  0  0  0  0  0  0  0  0  0  0
  188.0980  177.4400  145.3060 C   0  0  0  0  0  3  0  0  0  0  0  0
  189.3930  177.6360  147.2970 F   0  0  0  0  0  0  0  0  0  0  0  0
  189.2130  177.2590  143.1640 C   0  0  0  0  0  0  0  0  0  0  0  0
  190.5210  177.4600  145.2050 C   0  0  0  0  0  3  0  0  0  0  0  0
  188.0340  177.3130  143.9140 C   0  0  0  0  0  3  0  0  0  0  0  0
  189.1580  177.1260  141.7750 C   0  0  0  0  0  3  0  0  0  0  0  0
  191.5800  177.1470  141.6750 C   0  0  0  0  0  3  0  0  0  0  0  0
  191.6430  177.2790  143.0650 C   0  0  0  0  0  3  0  0  0  0  0  0
  191.6070  177.3880  138.8590 C   0  0  0  0  0  2  0  0  0  0  0  0
  192.0270  174.0870  137.1570 C   0  0  0  0  0  2  0  0  0  0  0  0
  193.5530  174.1960  137.0550 C   0  0  1  0  0  3  0  0  0  0  0  0
  193.0610  176.7010  137.1570 C   0  0  0  0  0  2  0  0  0  0  0  0
  191.3930  175.2250  137.9790 C   0  0  0  0  0  2  0  0  0  0  0  0
  192.3660  176.2530  138.3610 N   0  0  0  0  0  0  0  0  0  0  0  0
  193.9930  175.6050  136.6340 C   0  0  0  0  0  2  0  0  0  0  0  0
  195.5110  174.0170  138.0750 C   0  0  0  0  0  1  0  0  0  0  0  0
  194.1390  173.8560  138.2780 O   0  0  0  0  0  0  0  0  0  0  0  0
  1  3  1  0  0  0  0
  2  8  1  1  0  0  0
  2  1  1  0  0  0  0
  2  4  1  0  0  0  0
  3  6  1  0  0  0  0
  4  5  1  0  0  0  0
  5  6  1  0  0  0  0
  6 23  1  6  0  0  0
  8  7  1  0  0  0  0
  9  8  2  0  0  0  0
 10  7  1  0  0  0  0
 10 13  1  0  0  0  0
 11 14  1  0  0  0  0
 13 11  1  0  0  0  0
 13 12  2  0  0  0  0
 14 15  2  0  0  0  0
 14 16  1  0  0  0  0
 16 17  1  0  0  0  0
 17 21  1  0  0  0  0
 18 20  1  0  0  0  0
 20 19  1  0  0  0  0
 21 19  1  0  0  0  0
 22 17  2  0  0  0  0
 22 18  1  0  0  0  0
 23 35  1  6  0  0  0
 23 25  1  0  0  0  0
 24 28  1  0  0  0  0
 25 33  2  0  0  0  0
 25 32  1  0  0  0  0
 26 30  1  0  0  0  0
 27 24  1  0  0  0  0
 29 26  1  0  0  0  0
 29 31  1  0  0  0  0
 30 24  2  0  0  0  0
 31 27  2  0  0  0  0
 32 29  2  0  0  0  0
 33 34  1  0  0  0  0
 34 26  2  0  0  0  0
 36 39  1  0  0  0  0
 37 36  1  0  0  0  0
 37 43  1  1  0  0  0
 38 40  1  0  0  0  0
 39 40  1  0  0  0  0
 40 35  1  0  0  0  0
 41 37  1  0  0  0  0
 41 38  1  0  0  0  0
 42 43  1  0  0  0  0
M  END
>  <MODEL>
2

>  <REMARK>
 VINA RESULT:      -8.3      2.361      8.829
  Name = 
  10 active torsions:
  status: ('A' for Active; 'I' for Inactive)
    1  A    between atoms: C_1  and  C_34
    2  A    between atoms: C_1  and  N_35
    3  A    between atoms: N_3  and  C_42
    4  A    between atoms: C_6  and  C_12
    5  A    between atoms: C_8  and  C_34
    6  A    between atoms: C_11  and  C_14
    7  A    between atoms: C_14  and  C_22
    8  A    between atoms: C_15  and  C_42
    9  A    between atoms: C_19  and  O_37
   10  A    between atoms: C_34  and  C_38
                            x       y       z     vdW  Elec       q    Type
                         _______ _______ _______ _____ _____    ______ ____

>  <TORSDO>
F 10

$$$$
=
 OpenBabel11052416403D

 43 47  0  0  1  0  0  0  0  0999 V2000
  184.2030  179.3540  139.7910 C   0  0  0  0  0  2  0  0  0  0  0  0
  182.7570  178.9300  140.0920 C   0  0  1  0  0  3  0  0  0  0  0  0
  184.6300  178.9160  138.3950 C   0  0  0  0  0  2  0  0  0  0  0  0
  182.3160  177.6520  139.3620 C   0  0  0  0  0  2  0  0  0  0  0  0
  183.4910  176.7100  139.1050 C   0  0  0  0  0  2  0  0  0  0  0  0
  184.5950  177.3850  138.2660 C   0  0  1  0  0  3  0  0  0  0  0  0
  183.6240  178.9930  142.4750 N   0  0  0  0  0  2  0  0  0  0  0  0
  182.5380  178.7970  141.5620 C   0  0  0  0  0  0  0  0  0  0  0  0
  181.3960  178.4780  141.9870 O   0  0  0  0  0  0  0  0  0  0  0  0
  183.4850  178.8540  143.9190 C   0  0  0  0  0  2  0  0  0  0  0  0
  185.7030  177.6420  143.9810 N   0  0  0  0  0  2  0  0  0  0  0  0
  185.1340  179.2680  145.5780 O   0  0  0  0  0  0  0  0  0  0  0  0
  184.8130  178.6100  144.5530 C   0  0  0  0  0  0  0  0  0  0  0  0
  187.0110  177.3040  144.4590 C   0  0  0  0  0  0  0  0  0  0  0  0
  187.7030  176.4710  143.8160 O   0  0  0  0  0  0  0  0  0  0  0  0
  187.5750  177.9030  145.7080 C   0  0  0  0  0  2  0  0  0  0  0  0
  189.0400  177.6270  145.8120 C   0  0  0  0  0  0  0  0  0  0  0  0
  190.9390  176.5800  147.0540 C   0  0  0  0  0  2  0  0  0  0  0  0
  191.4290  177.8330  144.9750 C   0  0  0  0  0  2  0  0  0  0  0  0
  191.6750  176.5290  145.7200 C   0  0  0  0  0  2  0  0  0  0  0  0
  189.9410  177.9780  144.6480 C   0  0  0  0  0  2  0  0  0  0  0  0
  189.4850  176.9230  146.8660 C   0  0  0  0  0  3  0  0  0  0  0  0
  184.5970  176.9510  136.7940 C   0  0  2  0  0  3  0  0  0  0  0  0
  181.7320  171.1380  136.0390 C   0  0  0  0  0  0  0  0  0  0  0  0
  183.7470  175.7400  136.5150 C   0  0  0  0  0  0  0  0  0  0  0  0
  182.0950  173.5310  136.0020 C   0  0  0  0  0  0  0  0  0  0  0  0
  183.0090  170.9480  136.5770 C   0  0  0  0  0  3  0  0  0  0  0  0
  180.9350  170.0700  135.7970 F   0  0  0  0  0  0  0  0  0  0  0  0
  183.3860  173.3400  136.5460 C   0  0  0  0  0  0  0  0  0  0  0  0
  181.2750  172.4280  135.7520 C   0  0  0  0  0  3  0  0  0  0  0  0
  183.8360  172.0480  136.8310 C   0  0  0  0  0  3  0  0  0  0  0  0
  184.2030  174.4430  136.8010 C   0  0  0  0  0  3  0  0  0  0  0  0
  182.4690  175.9220  135.9750 C   0  0  0  0  0  3  0  0  0  0  0  0
  181.6450  174.8230  135.7170 C   0  0  0  0  0  3  0  0  0  0  0  0
  186.0190  176.8160  136.2520 C   0  0  0  0  0  2  0  0  0  0  0  0
  189.0430  176.7850  138.4490 C   0  0  0  0  0  2  0  0  0  0  0  0
  189.0570  178.3040  138.6570 C   0  0  1  0  0  3  0  0  0  0  0  0
  187.8210  178.3010  136.4210 C   0  0  0  0  0  2  0  0  0  0  0  0
  187.7990  176.2920  137.6850 C   0  0  0  0  0  2  0  0  0  0  0  0
  186.9710  177.3940  137.1860 N   0  0  0  0  0  0  0  0  0  0  0  0
  188.7740  179.0580  137.3500 C   0  0  0  0  0  2  0  0  0  0  0  0
  188.5960  178.0960  140.8140 C   0  0  0  0  0  1  0  0  0  0  0  0
  188.1190  178.6620  139.6290 O   0  0  0  0  0  0  0  0  0  0  0  0
  1  2  1  0  0  0  0
  2  8  1  1  0  0  0
  3  1  1  0  0  0  0
  4  2  1  0  0  0  0
  5  4  1  0  0  0  0
  6 23  1  6  0  0  0
  6  3  1  0  0  0  0
  6  5  1  0  0  0  0
  7 10  1  0  0  0  0
  8  9  2  0  0  0  0
  8  7  1  0  0  0  0
 10 13  1  0  0  0  0
 11 14  1  0  0  0  0
 11 13  1  0  0  0  0
 13 12  2  0  0  0  0
 14 16  1  0  0  0  0
 15 14  2  0  0  0  0
 16 17  1  0  0  0  0
 17 22  2  0  0  0  0
 19 20  1  0  0  0  0
 20 18  1  0  0  0  0
 21 19  1  0  0  0  0
 21 17  1  0  0  0  0
 22 18  1  0  0  0  0
 23 35  1  1  0  0  0
 24 27  1  0  0  0  0
 25 23  1  0  0  0  0
 25 32  1  0  0  0  0
 26 29  1  0  0  0  0
 27 31  2  0  0  0  0
 28 24  1  0  0  0  0
 29 32  2  0  0  0  0
 29 31  1  0  0  0  0
 30 26  1  0  0  0  0
 30 24  2  0  0  0  0
 33 25  2  0  0  0  0
 34 33  1  0  0  0  0
 34 26  2  0  0  0  0
 35 40  1  0  0  0  0
 36 37  1  0  0  0  0
 37 43  1  1  0  0  0
 38 40  1  0  0  0  0
 38 41  1  0  0  0  0
 39 36  1  0  0  0  0
 40 39  1  0  0  0  0
 41 37  1  0  0  0  0
 43 42  1  0  0  0  0
M  END
>  <MODEL>
3

>  <REMARK>
 VINA RESULT:      -8.1      4.032      8.602
  Name = 
  10 active torsions:
  status: ('A' for Active; 'I' for Inactive)
    1  A    between atoms: C_1  and  C_34
    2  A    between atoms: C_1  and  N_35
    3  A    between atoms: N_3  and  C_42
    4  A    between atoms: C_6  and  C_12
    5  A    between atoms: C_8  and  C_34
    6  A    between atoms: C_11  and  C_14
    7  A    between atoms: C_14  and  C_22
    8  A    between atoms: C_15  and  C_42
    9  A    between atoms: C_19  and  O_37
   10  A    between atoms: C_34  and  C_38
                            x       y       z     vdW  Elec       q    Type
                         _______ _______ _______ _____ _____    ______ ____

>  <TORSDO>
F 10

$$$$
=
 OpenBabel11052416403D

 43 47  0  0  1  0  0  0  0  0999 V2000
  183.3340  178.6290  141.4440 C   0  0  0  0  0  2  0  0  0  0  0  0
  184.4830  178.1240  140.5570 C   0  0  1  0  0  3  0  0  0  0  0  0
  182.0000  178.5660  140.7090 C   0  0  0  0  0  2  0  0  0  0  0  0
  184.2570  178.3460  139.0540 C   0  0  0  0  0  2  0  0  0  0  0  0
  183.3930  179.5770  138.7850 C   0  0  0  0  0  2  0  0  0  0  0  0
  182.0130  179.4700  139.4670 C   0  0  1  0  0  3  0  0  0  0  0  0
  187.0200  178.1160  140.5850 N   0  0  0  0  0  2  0  0  0  0  0  0
  185.7840  178.7170  140.9860 C   0  0  0  0  0  0  0  0  0  0  0  0
  185.7800  179.7340  141.7300 O   0  0  0  0  0  0  0  0  0  0  0  0
  188.3230  178.6290  140.9880 C   0  0  0  0  0  2  0  0  0  0  0  0
  189.9850  178.4310  142.8830 N   0  0  0  0  0  2  0  0  0  0  0  0
  188.0260  177.1360  142.8100 O   0  0  0  0  0  0  0  0  0  0  0  0
  188.7560  178.0110  142.2740 C   0  0  0  0  0  0  0  0  0  0  0  0
  190.5280  177.9480  144.1170 C   0  0  0  0  0  0  0  0  0  0  0  0
  191.5940  178.4550  144.5570 O   0  0  0  0  0  0  0  0  0  0  0  0
  189.8740  176.8510  144.8950 C   0  0  0  0  0  2  0  0  0  0  0  0
  189.1480  177.4020  146.0790 C   0  0  0  0  0  0  0  0  0  0  0  0
  187.0180  178.2310  147.0890 C   0  0  0  0  0  2  0  0  0  0  0  0
  189.0660  178.2210  148.4820 C   0  0  0  0  0  2  0  0  0  0  0  0
  187.5970  177.8240  148.4400 C   0  0  0  0  0  2  0  0  0  0  0  0
  189.8490  177.4460  147.4190 C   0  0  0  0  0  2  0  0  0  0  0  0
  187.8410  177.6860  145.9520 C   0  0  0  0  0  3  0  0  0  0  0  0
  180.8790  179.1030  138.5000 C   0  0  2  0  0  3  0  0  0  0  0  0
  180.4080  172.6440  137.7030 C   0  0  0  0  0  0  0  0  0  0  0  0
  180.5650  177.6300  138.4620 C   0  0  0  0  0  0  0  0  0  0  0  0
  179.9450  174.8940  138.4650 C   0  0  0  0  0  0  0  0  0  0  0  0
  181.4780  173.1190  136.9380 C   0  0  0  0  0  3  0  0  0  0  0  0
  180.1140  171.3220  137.7060 F   0  0  0  0  0  0  0  0  0  0  0  0
  181.0260  175.3750  137.6920 C   0  0  0  0  0  0  0  0  0  0  0  0
  179.6420  173.5310  138.4670 C   0  0  0  0  0  3  0  0  0  0  0  0
  181.7880  174.4830  136.9320 C   0  0  0  0  0  3  0  0  0  0  0  0
  181.3320  176.7380  137.6950 C   0  0  0  0  0  3  0  0  0  0  0  0
  179.4950  177.1480  139.2240 C   0  0  0  0  0  3  0  0  0  0  0  0
  179.1830  175.7860  139.2260 C   0  0  0  0  0  3  0  0  0  0  0  0
  181.1120  179.6960  137.1130 C   0  0  0  0  0  2  0  0  0  0  0  0
  179.8350  182.8210  135.5080 C   0  0  0  0  0  2  0  0  0  0  0  0
  179.6110  183.5560  136.8350 C   0  0  1  0  0  3  0  0  0  0  0  0
  179.4160  181.1790  137.7510 C   0  0  0  0  0  2  0  0  0  0  0  0
  180.5430  181.4640  135.6810 C   0  0  0  0  0  2  0  0  0  0  0  0
  180.7150  181.0940  137.0890 N   0  0  0  0  0  0  0  0  0  0  0  0
  178.9770  182.6390  137.8900 C   0  0  0  0  0  2  0  0  0  0  0  0
  181.1670  185.0720  136.4020 C   0  0  0  0  0  1  0  0  0  0  0  0
  180.8220  184.0670  137.3090 O   0  0  0  0  0  0  0  0  0  0  0  0
  2  8  1  1  0  0  0
  2  1  1  0  0  0  0
  3  1  1  0  0  0  0
  4  2  1  0  0  0  0
  5  4  1  0  0  0  0
  5  6  1  0  0  0  0
  6 23  1  6  0  0  0
  6  3  1  0  0  0  0
  7  8  1  0  0  0  0
  7 10  1  0  0  0  0
  8  9  2  0  0  0  0
 10 13  1  0  0  0  0
 11 14  1  0  0  0  0
 13 12  2  0  0  0  0
 13 11  1  0  0  0  0
 14 15  2  0  0  0  0
 14 16  1  0  0  0  0
 16 17  1  0  0  0  0
 17 21  1  0  0  0  0
 18 20  1  0  0  0  0
 20 19  1  0  0  0  0
 21 19  1  0  0  0  0
 22 17  2  0  0  0  0
 22 18  1  0  0  0  0
 23 35  1  6  0  0  0
 24 28  1  0  0  0  0
 24 30  1  0  0  0  0
 25 23  1  0  0  0  0
 25 33  1  0  0  0  0
 26 30  2  0  0  0  0
 26 34  1  0  0  0  0
 27 24  2  0  0  0  0
 29 32  1  0  0  0  0
 29 26  1  0  0  0  0
 31 27  1  0  0  0  0
 31 29  2  0  0  0  0
 32 25  2  0  0  0  0
 33 34  2  0  0  0  0
 36 39  1  0  0  0  0
 36 37  1  0  0  0  0
 37 43  1  1  0  0  0
 37 41  1  0  0  0  0
 38 41  1  0  0  0  0
 39 40  1  0  0  0  0
 40 35  1  0  0  0  0
 40 38  1  0  0  0  0
 42 43  1  0  0  0  0
M  END
>  <MODEL>
4

>  <REMARK>
 VINA RESULT:      -7.9      4.026      7.020
  Name = 
  10 active torsions:
  status: ('A' for Active; 'I' for Inactive)
    1  A    between atoms: C_1  and  C_34
    2  A    between atoms: C_1  and  N_35
    3  A    between atoms: N_3  and  C_42
    4  A    between atoms: C_6  and  C_12
    5  A    between atoms: C_8  and  C_34
    6  A    between atoms: C_11  and  C_14
    7  A    between atoms: C_14  and  C_22
    8  A    between atoms: C_15  and  C_42
    9  A    between atoms: C_19  and  O_37
   10  A    between atoms: C_34  and  C_38
                            x       y       z     vdW  Elec       q    Type
                         _______ _______ _______ _____ _____    ______ ____

>  <TORSDO>
F 10

$$$$
=
 OpenBabel11052416403D

 43 47  0  0  1  0  0  0  0  0999 V2000
  189.0310  176.2630  137.5830 C   0  0  0  0  0  2  0  0  0  0  0  0
  189.8800  177.5070  137.8910 C   0  0  1  0  0  3  0  0  0  0  0  0
  187.6010  176.6460  137.2160 C   0  0  0  0  0  2  0  0  0  0  0  0
  189.0760  178.6870  138.4590 C   0  0  0  0  0  2  0  0  0  0  0  0
  187.8570  178.2150  139.2510 C   0  0  0  0  0  2  0  0  0  0  0  0
  186.9070  177.3600  138.3870 C   0  0  1  0  0  3  0  0  0  0  0  0
  190.9880  177.5510  140.1730 N   0  0  0  0  0  2  0  0  0  0  0  0
  191.0160  177.1620  138.7950 C   0  0  0  0  0  0  0  0  0  0  0  0
  192.0140  176.5550  138.3230 O   0  0  0  0  0  0  0  0  0  0  0  0
  192.0740  177.2690  141.1030 C   0  0  0  0  0  2  0  0  0  0  0  0
  191.8170  176.5660  143.5180 N   0  0  0  0  0  2  0  0  0  0  0  0
  191.1780  178.7000  142.7720 O   0  0  0  0  0  0  0  0  0  0  0  0
  191.6570  177.5670  142.5030 C   0  0  0  0  0  0  0  0  0  0  0  0
  191.4810  176.7020  144.9040 C   0  0  0  0  0  0  0  0  0  0  0  0
  191.7340  175.7520  145.6920 O   0  0  0  0  0  0  0  0  0  0  0  0
  190.8270  177.9340  145.4430 C   0  0  0  0  0  2  0  0  0  0  0  0
  189.3700  177.7010  145.6730 C   0  0  0  0  0  0  0  0  0  0  0  0
  187.4490  177.5580  147.2670 C   0  0  0  0  0  2  0  0  0  0  0  0
  187.0270  177.1480  144.8610 C   0  0  0  0  0  2  0  0  0  0  0  0
  186.5520  177.9150  146.0870 C   0  0  0  0  0  2  0  0  0  0  0  0
  188.4430  177.5910  144.4820 C   0  0  0  0  0  2  0  0  0  0  0  0
  188.9030  177.7640  146.9320 C   0  0  0  0  0  3  0  0  0  0  0  0
  185.6600  178.1190  137.9130 C   0  0  2  0  0  3  0  0  0  0  0  0
  182.0380  178.9250  143.2800 C   0  0  0  0  0  0  0  0  0  0  0  0
  184.6310  178.3320  138.9910 C   0  0  0  0  0  0  0  0  0  0  0  0
  182.6690  178.7750  140.9480 C   0  0  0  0  0  0  0  0  0  0  0  0
  183.3510  178.6300  143.6590 C   0  0  0  0  0  3  0  0  0  0  0  0
  181.0940  179.1430  144.2260 F   0  0  0  0  0  0  0  0  0  0  0  0
  183.9970  178.4760  141.3300 C   0  0  0  0  0  0  0  0  0  0  0  0
  181.6970  178.9980  141.9250 C   0  0  0  0  0  3  0  0  0  0  0  0
  184.3310  178.4060  142.6850 C   0  0  0  0  0  3  0  0  0  0  0  0
  184.9700  178.2580  140.3520 C   0  0  0  0  0  3  0  0  0  0  0  0
  183.3140  178.6260  138.6190 C   0  0  0  0  0  3  0  0  0  0  0  0
  182.3350  178.8460  139.5920 C   0  0  0  0  0  3  0  0  0  0  0  0
  185.0740  177.4960  136.6480 C   0  0  0  0  0  2  0  0  0  0  0  0
  181.9150  175.6130  135.9780 C   0  0  0  0  0  2  0  0  0  0  0  0
  182.0270  174.7380  137.2320 C   0  0  1  0  0  3  0  0  0  0  0  0
  184.5180  175.2450  136.9740 C   0  0  0  0  0  2  0  0  0  0  0  0
  182.9870  176.7180  135.9150 C   0  0  0  0  0  2  0  0  0  0  0  0
  183.9790  176.6020  136.9870 N   0  0  0  0  0  0  0  0  0  0  0  0
  183.4630  174.2420  137.4500 C   0  0  0  0  0  2  0  0  0  0  0  0
  180.4630  174.7580  138.8020 C   0  0  0  0  0  1  0  0  0  0  0  0
  181.5900  175.4500  138.3530 O   0  0  0  0  0  0  0  0  0  0  0  0
  1  2  1  0  0  0  0
  2  4  1  0  0  0  0
  2  8  1  1  0  0  0
  3  1  1  0  0  0  0
  3  6  1  0  0  0  0
  4  5  1  0  0  0  0
  6 23  1  6  0  0  0
  6  5  1  0  0  0  0
  7 10  1  0  0  0  0
  8  7  1  0  0  0  0
  9  8  2  0  0  0  0
 10 13  1  0  0  0  0
 11 14  1  0  0  0  0
 13 12  2  0  0  0  0
 13 11  1  0  0  0  0
 14 16  1  0  0  0  0
 14 15  2  0  0  0  0
 16 17  1  0  0  0  0
 17 22  2  0  0  0  0
 19 20  1  0  0  0  0
 20 18  1  0  0  0  0
 21 19  1  0  0  0  0
 21 17  1  0  0  0  0
 22 18  1  0  0  0  0
 23 35  1  6  0  0  0
 23 25  1  0  0  0  0
 24 27  1  0  0  0  0
 24 28  1  0  0  0  0
 25 32  1  0  0  0  0
 26 29  1  0  0  0  0
 26 30  1  0  0  0  0
 29 31  1  0  0  0  0
 30 24  2  0  0  0  0
 31 27  2  0  0  0  0
 32 29  2  0  0  0  0
 33 25  2  0  0  0  0
 33 34  1  0  0  0  0
 34 26  2  0  0  0  0
 35 40  1  0  0  0  0
 36 37  1  0  0  0  0
 37 41  1  0  0  0  0
 37 43  1  1  0  0  0
 38 40  1  0  0  0  0
 38 41  1  0  0  0  0
 39 36  1  0  0  0  0
 39 40  1  0  0  0  0
 43 42  1  0  0  0  0
M  END
>  <MODEL>
5

>  <REMARK>
 VINA RESULT:      -7.9      3.110      6.687
  Name = 
  10 active torsions:
  status: ('A' for Active; 'I' for Inactive)
    1  A    between atoms: C_1  and  C_34
    2  A    between atoms: C_1  and  N_35
    3  A    between atoms: N_3  and  C_42
    4  A    between atoms: C_6  and  C_12
    5  A    between atoms: C_8  and  C_34
    6  A    between atoms: C_11  and  C_14
    7  A    between atoms: C_14  and  C_22
    8  A    between atoms: C_15  and  C_42
    9  A    between atoms: C_19  and  O_37
   10  A    between atoms: C_34  and  C_38
                            x       y       z     vdW  Elec       q    Type
                         _______ _______ _______ _____ _____    ______ ____

>  <TORSDO>
F 10

$$$$
=
 OpenBabel11052416403D

 43 47  0  0  1  0  0  0  0  0999 V2000
  183.0670  175.6430  138.5050 C   0  0  0  0  0  2  0  0  0  0  0  0
  183.2920  176.5270  137.2690 C   0  0  1  0  0  3  0  0  0  0  0  0
  182.6210  176.4720  139.7050 C   0  0  0  0  0  2  0  0  0  0  0  0
  183.7270  177.9640  137.5980 C   0  0  0  0  0  2  0  0  0  0  0  0
  184.5160  178.0330  138.9050 C   0  0  0  0  0  2  0  0  0  0  0  0
  183.7000  177.4930  140.0980 C   0  0  1  0  0  3  0  0  0  0  0  0
  185.6620  176.1530  136.4460 N   0  0  0  0  0  2  0  0  0  0  0  0
  184.2600  175.8880  136.3290 C   0  0  0  0  0  0  0  0  0  0  0  0
  183.8250  175.1400  135.4140 O   0  0  0  0  0  0  0  0  0  0  0  0
  186.6580  175.5830  135.5470 C   0  0  0  0  0  2  0  0  0  0  0  0
  188.3840  175.9090  137.3660 N   0  0  0  0  0  2  0  0  0  0  0  0
  188.8700  176.3260  135.1060 O   0  0  0  0  0  0  0  0  0  0  0  0
  188.0340  175.9670  135.9760 C   0  0  0  0  0  0  0  0  0  0  0  0
  189.6590  176.2290  137.9330 C   0  0  0  0  0  0  0  0  0  0  0  0
  189.8350  176.0750  139.1710 O   0  0  0  0  0  0  0  0  0  0  0  0
  190.7860  176.7530  137.1020 C   0  0  0  0  0  2  0  0  0  0  0  0
  191.9080  175.7670  137.0510 C   0  0  0  0  0  0  0  0  0  0  0  0
  194.3230  175.2500  137.4360 C   0  0  0  0  0  2  0  0  0  0  0  0
  192.8590  173.4710  136.5280 C   0  0  0  0  0  2  0  0  0  0  0  0
  193.9010  173.7930  137.5910 C   0  0  0  0  0  2  0  0  0  0  0  0
  191.6030  174.3160  136.7530 C   0  0  0  0  0  2  0  0  0  0  0  0
  193.1310  176.1700  137.4370 C   0  0  0  0  0  3  0  0  0  0  0  0
  183.1200  178.5970  140.9930 C   0  0  2  0  0  3  0  0  0  0  0  0
  186.4320  178.2850  146.6050 C   0  0  0  0  0  0  0  0  0  0  0  0
  183.6670  178.5930  142.3950 C   0  0  0  0  0  0  0  0  0  0  0  0
  184.6290  178.6430  145.0300 C   0  0  0  0  0  0  0  0  0  0  0  0
  187.2670  177.8730  145.5620 C   0  0  0  0  0  3  0  0  0  0  0  0
  186.9010  178.3120  147.8760 F   0  0  0  0  0  0  0  0  0  0  0  0
  185.4730  178.2270  143.9760 C   0  0  0  0  0  0  0  0  0  0  0  0
  185.1140  178.6710  146.3400 C   0  0  0  0  0  3  0  0  0  0  0  0
  186.7890  177.8430  144.2470 C   0  0  0  0  0  3  0  0  0  0  0  0
  184.9890  178.2050  142.6650 C   0  0  0  0  0  3  0  0  0  0  0  0
  182.8360  179.0030  143.4450 C   0  0  0  0  0  3  0  0  0  0  0  0
  183.3130  179.0280  144.7580 C   0  0  0  0  0  3  0  0  0  0  0  0
  181.5930  178.6060  140.9510 C   0  0  0  0  0  2  0  0  0  0  0  0
  179.6040  181.5210  139.7190 C   0  0  0  0  0  2  0  0  0  0  0  0
  180.3410  181.6130  138.3770 C   0  0  1  0  0  3  0  0  0  0  0  0
  182.2150  180.4810  139.6930 C   0  0  0  0  0  2  0  0  0  0  0  0
  180.0090  180.2870  140.5480 C   0  0  0  0  0  2  0  0  0  0  0  0
  181.1220  179.5460  139.9470 N   0  0  0  0  0  0  0  0  0  0  0  0
  181.8550  181.4330  138.5490 C   0  0  0  0  0  2  0  0  0  0  0  0
  180.3050  181.0490  136.2350 C   0  0  0  0  0  1  0  0  0  0  0  0
  179.8410  180.6540  137.4920 O   0  0  0  0  0  0  0  0  0  0  0  0
  1  3  1  0  0  0  0
  2  8  1  6  0  0  0
  2  4  1  0  0  0  0
  2  1  1  0  0  0  0
  3  6  1  0  0  0  0
  4  5  1  0  0  0  0
  5  6  1  0  0  0  0
  6 23  1  6  0  0  0
  8  7  1  0  0  0  0
  9  8  2  0  0  0  0
 10 13  1  0  0  0  0
 10  7  1  0  0  0  0
 11 14  1  0  0  0  0
 12 13  2  0  0  0  0
 13 11  1  0  0  0  0
 14 15  2  0  0  0  0
 16 14  1  0  0  0  0
 17 16  1  0  0  0  0
 17 22  2  0  0  0  0
 18 22  1  0  0  0  0
 18 20  1  0  0  0  0
 19 21  1  0  0  0  0
 19 20  1  0  0  0  0
 21 17  1  0  0  0  0
 23 35  1  1  0  0  0
 23 25  1  0  0  0  0
 24 28  1  0  0  0  0
 25 32  2  0  0  0  0
 25 33  1  0  0  0  0
 26 30  2  0  0  0  0
 27 24  2  0  0  0  0
 29 31  2  0  0  0  0
 29 26  1  0  0  0  0
 30 24  1  0  0  0  0
 31 27  1  0  0  0  0
 32 29  1  0  0  0  0
 33 34  2  0  0  0  0
 34 26  1  0  0  0  0
 36 39  1  0  0  0  0
 37 43  1  6  0  0  0
 37 41  1  0  0  0  0
 37 36  1  0  0  0  0
 38 40  1  0  0  0  0
 40 39  1  0  0  0  0
 40 35  1  0  0  0  0
 41 38  1  0  0  0  0
 42 43  1  0  0  0  0
M  END
>  <MODEL>
6

>  <REMARK>
 VINA RESULT:      -7.8      1.644      2.326
  Name = 
  10 active torsions:
  status: ('A' for Active; 'I' for Inactive)
    1  A    between atoms: C_1  and  C_34
    2  A    between atoms: C_1  and  N_35
    3  A    between atoms: N_3  and  C_42
    4  A    between atoms: C_6  and  C_12
    5  A    between atoms: C_8  and  C_34
    6  A    between atoms: C_11  and  C_14
    7  A    between atoms: C_14  and  C_22
    8  A    between atoms: C_15  and  C_42
    9  A    between atoms: C_19  and  O_37
   10  A    between atoms: C_34  and  C_38
                            x       y       z     vdW  Elec       q    Type
                         _______ _______ _______ _____ _____    ______ ____

>  <TORSDO>
F 10

$$$$
=
 OpenBabel11052416403D

 43 47  0  0  1  0  0  0  0  0999 V2000
  185.6700  177.9520  145.0320 C   0  0  0  0  0  2  0  0  0  0  0  0
  185.2020  179.0910  144.1110 C   0  0  1  0  0  3  0  0  0  0  0  0
  187.0620  177.4660  144.6460 C   0  0  0  0  0  2  0  0  0  0  0  0
  185.7870  179.0280  142.6920 C   0  0  0  0  0  2  0  0  0  0  0  0
  186.0800  177.5910  142.2620 C   0  0  0  0  0  2  0  0  0  0  0  0
  187.0690  176.8950  143.2190 C   0  0  1  0  0  3  0  0  0  0  0  0
  183.0220  179.0030  142.8170 N   0  0  0  0  0  2  0  0  0  0  0  0
  183.7120  179.1550  144.0620 C   0  0  0  0  0  0  0  0  0  0  0  0
  183.0710  179.3780  145.1240 O   0  0  0  0  0  0  0  0  0  0  0  0
  181.5720  179.0800  142.6950 C   0  0  0  0  0  2  0  0  0  0  0  0
  182.1330  178.9280  140.2340 N   0  0  0  0  0  2  0  0  0  0  0  0
  179.9880  179.5230  140.9820 O   0  0  0  0  0  0  0  0  0  0  0  0
  181.1710  179.1970  141.2630 C   0  0  0  0  0  0  0  0  0  0  0  0
  181.9030  178.9820  138.8210 C   0  0  0  0  0  0  0  0  0  0  0  0
  182.8340  178.6610  138.0350 O   0  0  0  0  0  0  0  0  0  0  0  0
  180.5920  179.4200  138.2500 C   0  0  0  0  0  2  0  0  0  0  0  0
  180.7400  180.7160  137.5210 C   0  0  0  0  0  0  0  0  0  0  0  0
  180.7460  181.9680  135.3580 C   0  0  0  0  0  2  0  0  0  0  0  0
  181.1790  183.2160  137.4520 C   0  0  0  0  0  2  0  0  0  0  0  0
  180.3640  183.2020  136.1670 C   0  0  0  0  0  2  0  0  0  0  0  0
  180.8220  182.0020  138.3130 C   0  0  0  0  0  2  0  0  0  0  0  0
  180.6270  180.7130  136.1820 C   0  0  0  0  0  3  0  0  0  0  0  0
  188.4970  176.8040  142.6650 C   0  0  2  0  0  3  0  0  0  0  0  0
  192.3730  176.2170  147.8810 C   0  0  0  0  0  0  0  0  0  0  0  0
  189.5420  176.5360  143.7160 C   0  0  0  0  0  0  0  0  0  0  0  0
  191.5080  175.9650  145.6340 C   0  0  0  0  0  0  0  0  0  0  0  0
  191.2890  177.0360  148.2110 C   0  0  0  0  0  3  0  0  0  0  0  0
  193.3180  175.9400  148.8110 F   0  0  0  0  0  0  0  0  0  0  0  0
  190.4130  176.7940  145.9670 C   0  0  0  0  0  0  0  0  0  0  0  0
  192.4830  175.6810  146.5930 C   0  0  0  0  0  3  0  0  0  0  0  0
  190.3080  177.3250  147.2550 C   0  0  0  0  0  3  0  0  0  0  0  0
  189.4350  177.0730  145.0080 C   0  0  0  0  0  3  0  0  0  0  0  0
  190.6310  175.7180  143.3920 C   0  0  0  0  0  3  0  0  0  0  0  0
  191.6120  175.4330  144.3450 C   0  0  0  0  0  3  0  0  0  0  0  0
  188.8340  178.0080  141.7870 C   0  0  0  0  0  2  0  0  0  0  0  0
  189.1320  178.4570  138.0880 C   0  0  0  0  0  2  0  0  0  0  0  0
  189.8970  177.1460  137.8680 C   0  0  1  0  0  3  0  0  0  0  0  0
  190.5760  177.5060  140.3040 C   0  0  0  0  0  2  0  0  0  0  0  0
  188.6310  178.6280  139.5350 C   0  0  0  0  0  2  0  0  0  0  0  0
  189.1230  177.5760  140.4290 N   0  0  0  0  0  0  0  0  0  0  0  0
  190.9720  176.9310  138.9420 C   0  0  0  0  0  2  0  0  0  0  0  0
  189.7730  174.9740  137.4510 C   0  0  0  0  0  1  0  0  0  0  0  0
  189.0070  176.0690  137.8580 O   0  0  0  0  0  0  0  0  0  0  0  0
  2  8  1  6  0  0  0
  2  1  1  0  0  0  0
  3  1  1  0  0  0  0
  4  2  1  0  0  0  0
  5  4  1  0  0  0  0
  5  6  1  0  0  0  0
  6 23  1  6  0  0  0
  6  3  1  0  0  0  0
  7  8  1  0  0  0  0
  8  9  2  0  0  0  0
 10  7  1  0  0  0  0
 11 13  1  0  0  0  0
 12 13  2  0  0  0  0
 13 10  1  0  0  0  0
 14 11  1  0  0  0  0
 15 14  2  0  0  0  0
 16 14  1  0  0  0  0
 17 16  1  0  0  0  0
 17 21  1  0  0  0  0
 18 20  1  0  0  0  0
 18 22  1  0  0  0  0
 19 21  1  0  0  0  0
 20 19  1  0  0  0  0
 22 17  2  0  0  0  0
 23 35  1  1  0  0  0
 23 25  1  0  0  0  0
 24 27  1  0  0  0  0
 24 28  1  0  0  0  0
 25 32  1  0  0  0  0
 26 29  1  0  0  0  0
 26 30  1  0  0  0  0
 29 31  1  0  0  0  0
 30 24  2  0  0  0  0
 31 27  2  0  0  0  0
 32 29  2  0  0  0  0
 33 25  2  0  0  0  0
 33 34  1  0  0  0  0
 34 26  2  0  0  0  0
 36 39  1  0  0  0  0
 37 43  1  1  0  0  0
 37 36  1  0  0  0  0
 37 41  1  0  0  0  0
 38 40  1  0  0  0  0
 39 40  1  0  0  0  0
 40 35  1  0  0  0  0
 41 38  1  0  0  0  0
 42 43  1  0  0  0  0
M  END
>  <MODEL>
7

>  <REMARK>
 VINA RESULT:      -7.7      3.016      8.720
  Name = 
  10 active torsions:
  status: ('A' for Active; 'I' for Inactive)
    1  A    between atoms: C_1  and  C_34
    2  A    between atoms: C_1  and  N_35
    3  A    between atoms: N_3  and  C_42
    4  A    between atoms: C_6  and  C_12
    5  A    between atoms: C_8  and  C_34
    6  A    between atoms: C_11  and  C_14
    7  A    between atoms: C_14  and  C_22
    8  A    between atoms: C_15  and  C_42
    9  A    between atoms: C_19  and  O_37
   10  A    between atoms: C_34  and  C_38
                            x       y       z     vdW  Elec       q    Type
                         _______ _______ _______ _____ _____    ______ ____

>  <TORSDO>
F 10

$$$$
=
 OpenBabel11052416403D

 43 47  0  0  1  0  0  0  0  0999 V2000
  187.9680  176.0110  136.7460 C   0  0  0  0  0  2  0  0  0  0  0  0
  188.7960  177.3010  136.8510 C   0  0  1  0  0  3  0  0  0  0  0  0
  186.4980  176.3170  136.4810 C   0  0  0  0  0  2  0  0  0  0  0  0
  188.0060  178.5110  137.3750 C   0  0  0  0  0  2  0  0  0  0  0  0
  186.8810  178.0880  138.3200 C   0  0  0  0  0  2  0  0  0  0  0  0
  185.8880  177.1260  137.6360 C   0  0  1  0  0  3  0  0  0  0  0  0
  190.0000  177.3220  139.0840 N   0  0  0  0  0  2  0  0  0  0  0  0
  190.0220  177.0790  137.6730 C   0  0  0  0  0  0  0  0  0  0  0  0
  191.0830  176.7080  137.1050 O   0  0  0  0  0  0  0  0  0  0  0  0
  191.1670  177.1490  139.9410 C   0  0  0  0  0  2  0  0  0  0  0  0
  191.0240  178.1360  142.2640 N   0  0  0  0  0  2  0  0  0  0  0  0
  190.1750  176.0030  141.7680 O   0  0  0  0  0  0  0  0  0  0  0  0
  190.7570  177.0460  141.3710 C   0  0  0  0  0  0  0  0  0  0  0  0
  190.6830  178.1980  143.6540 C   0  0  0  0  0  0  0  0  0  0  0  0
  190.9310  179.2500  144.3000 O   0  0  0  0  0  0  0  0  0  0  0  0
  190.0520  177.0440  144.3650 C   0  0  0  0  0  2  0  0  0  0  0  0
  188.7130  177.4260  144.9070 C   0  0  0  0  0  0  0  0  0  0  0  0
  186.2860  177.8670  144.5050 C   0  0  0  0  0  2  0  0  0  0  0  0
  187.1730  178.1250  146.8020 C   0  0  0  0  0  2  0  0  0  0  0  0
  186.0620  177.5030  145.9680 C   0  0  0  0  0  2  0  0  0  0  0  0
  188.5240  177.5270  146.4050 C   0  0  0  0  0  2  0  0  0  0  0  0
  187.6760  177.5040  144.0550 C   0  0  0  0  0  3  0  0  0  0  0  0
  184.5770  177.8000  137.2110 C   0  0  2  0  0  3  0  0  0  0  0  0
  180.1790  180.0030  141.4980 C   0  0  0  0  0  0  0  0  0  0  0  0
  183.6700  178.1470  138.3610 C   0  0  0  0  0  0  0  0  0  0  0  0
  181.9910  178.7180  140.5350 C   0  0  0  0  0  0  0  0  0  0  0  0
  180.0470  180.7190  140.3030 C   0  0  0  0  0  3  0  0  0  0  0  0
  179.3640  180.2780  142.5440 F   0  0  0  0  0  0  0  0  0  0  0  0
  181.8580  179.4410  139.3280 C   0  0  0  0  0  0  0  0  0  0  0  0
  181.1500  179.0030  141.6140 C   0  0  0  0  0  3  0  0  0  0  0  0
  180.8850  180.4390  139.2180 C   0  0  0  0  0  3  0  0  0  0  0  0
  182.6950  179.1520  138.2480 C   0  0  0  0  0  3  0  0  0  0  0  0
  183.7980  177.4360  139.5600 C   0  0  0  0  0  3  0  0  0  0  0  0
  182.9630  177.7200  140.6450 C   0  0  0  0  0  3  0  0  0  0  0  0
  183.8690  177.0040  136.1160 C   0  0  0  0  0  2  0  0  0  0  0  0
  180.5560  175.2830  136.3110 C   0  0  0  0  0  2  0  0  0  0  0  0
  181.0040  174.2780  137.3790 C   0  0  1  0  0  3  0  0  0  0  0  0
  183.3140  174.7460  136.3930 C   0  0  0  0  0  2  0  0  0  0  0  0
  181.6160  176.3600  136.0130 C   0  0  0  0  0  2  0  0  0  0  0  0
  182.8850  176.1070  136.7010 N   0  0  0  0  0  0  0  0  0  0  0  0
  182.4050  173.7260  137.0850 C   0  0  0  0  0  2  0  0  0  0  0  0
  179.6280  175.1090  138.9040 C   0  0  0  0  0  1  0  0  0  0  0  0
  180.9810  174.8790  138.6400 O   0  0  0  0  0  0  0  0  0  0  0  0
  1  2  1  0  0  0  0
  2  4  1  0  0  0  0
  2  8  1  1  0  0  0
  3  1  1  0  0  0  0
  3  6  1  0  0  0  0
  4  5  1  0  0  0  0
  6 23  1  6  0  0  0
  6  5  1  0  0  0  0
  7 10  1  0  0  0  0
  8  7  1  0  0  0  0
  9  8  2  0  0  0  0
 10 13  1  0  0  0  0
 11 14  1  0  0  0  0
 13 12  2  0  0  0  0
 13 11  1  0  0  0  0
 14 15  2  0  0  0  0
 14 16  1  0  0  0  0
 16 17  1  0  0  0  0
 17 21  1  0  0  0  0
 18 20  1  0  0  0  0
 20 19  1  0  0  0  0
 21 19  1  0  0  0  0
 22 18  1  0  0  0  0
 22 17  2  0  0  0  0
 23 35  1  6  0  0  0
 23 25  1  0  0  0  0
 24 30  1  0  0  0  0
 24 28  1  0  0  0  0
 25 33  1  0  0  0  0
 26 34  1  0  0  0  0
 26 30  2  0  0  0  0
 27 24  2  0  0  0  0
 29 26  1  0  0  0  0
 31 29  2  0  0  0  0
 31 27  1  0  0  0  0
 32 25  2  0  0  0  0
 32 29  1  0  0  0  0
 33 34  2  0  0  0  0
 35 40  1  0  0  0  0
 36 37  1  0  0  0  0
 37 43  1  1  0  0  0
 38 40  1  0  0  0  0
 38 41  1  0  0  0  0
 39 36  1  0  0  0  0
 39 40  1  0  0  0  0
 41 37  1  0  0  0  0
 43 42  1  0  0  0  0
M  END
>  <MODEL>
8

>  <REMARK>
 VINA RESULT:      -7.6      3.112      6.691
  Name = 
  10 active torsions:
  status: ('A' for Active; 'I' for Inactive)
    1  A    between atoms: C_1  and  C_34
    2  A    between atoms: C_1  and  N_35
    3  A    between atoms: N_3  and  C_42
    4  A    between atoms: C_6  and  C_12
    5  A    between atoms: C_8  and  C_34
    6  A    between atoms: C_11  and  C_14
    7  A    between atoms: C_14  and  C_22
    8  A    between atoms: C_15  and  C_42
    9  A    between atoms: C_19  and  O_37
   10  A    between atoms: C_34  and  C_38
                            x       y       z     vdW  Elec       q    Type
                         _______ _______ _______ _____ _____    ______ ____

>  <TORSDO>
F 10

$$$$
=
 OpenBabel11052416403D

 43 47  0  0  1  0  0  0  0  0999 V2000
  187.0930  175.6290  137.2010 C   0  0  0  0  0  2  0  0  0  0  0  0
  187.9130  176.7980  136.6310 C   0  0  1  0  0  3  0  0  0  0  0  0
  185.6020  175.8280  136.9530 C   0  0  0  0  0  2  0  0  0  0  0  0
  187.1610  178.1380  136.6090 C   0  0  0  0  0  2  0  0  0  0  0  0
  186.1330  178.2300  137.7360 C   0  0  0  0  0  2  0  0  0  0  0  0
  185.0920  177.0950  137.6580 C   0  0  1  0  0  3  0  0  0  0  0  0
  189.3430  176.4690  138.7010 N   0  0  0  0  0  2  0  0  0  0  0  0
  189.2120  176.9360  137.3530 C   0  0  0  0  0  0  0  0  0  0  0  0
  190.1800  177.4980  136.7750 O   0  0  0  0  0  0  0  0  0  0  0  0
  190.5730  176.5960  139.4720 C   0  0  0  0  0  2  0  0  0  0  0  0
  189.0370  176.8490  141.4640 N   0  0  0  0  0  2  0  0  0  0  0  0
  191.1590  177.8550  141.3980 O   0  0  0  0  0  0  0  0  0  0  0  0
  190.2890  177.1450  140.8290 C   0  0  0  0  0  0  0  0  0  0  0  0
  188.6210  177.2870  142.7630 C   0  0  0  0  0  0  0  0  0  0  0  0
  187.5110  176.8970  143.2140 O   0  0  0  0  0  0  0  0  0  0  0  0
  189.4600  178.2030  143.5960 C   0  0  0  0  0  2  0  0  0  0  0  0
  189.9200  177.5140  144.8390 C   0  0  0  0  0  0  0  0  0  0  0  0
  191.6790  176.2020  146.0350 C   0  0  0  0  0  2  0  0  0  0  0  0
  189.5870  176.7530  147.2390 C   0  0  0  0  0  2  0  0  0  0  0  0
  191.1060  176.7700  147.3280 C   0  0  0  0  0  2  0  0  0  0  0  0
  189.1170  177.6750  146.1120 C   0  0  0  0  0  2  0  0  0  0  0  0
  191.1200  176.9100  144.8290 C   0  0  0  0  0  3  0  0  0  0  0  0
  183.7400  177.5410  137.0860 C   0  0  2  0  0  3  0  0  0  0  0  0
  180.4460  179.8570  142.2200 C   0  0  0  0  0  0  0  0  0  0  0  0
  182.8350  178.1910  138.0990 C   0  0  0  0  0  0  0  0  0  0  0  0
  181.1360  179.4640  139.9340 C   0  0  0  0  0  0  0  0  0  0  0  0
  181.4390  178.9830  142.6750 C   0  0  0  0  0  3  0  0  0  0  0  0
  179.6310  180.4740  143.1090 F   0  0  0  0  0  0  0  0  0  0  0  0
  182.1390  178.5800  140.3920 C   0  0  0  0  0  0  0  0  0  0  0  0
  180.2950  180.0990  140.8510 C   0  0  0  0  0  3  0  0  0  0  0  0
  182.2850  178.3440  141.7620 C   0  0  0  0  0  3  0  0  0  0  0  0
  182.9830  177.9500  139.4750 C   0  0  0  0  0  3  0  0  0  0  0  0
  181.8390  179.0660  137.6520 C   0  0  0  0  0  3  0  0  0  0  0  0
  180.9910  179.7010  138.5640 C   0  0  0  0  0  3  0  0  0  0  0  0
  183.0560  176.4110  136.3190 C   0  0  0  0  0  2  0  0  0  0  0  0
  179.4930  175.2830  136.3870 C   0  0  0  0  0  2  0  0  0  0  0  0
  179.4780  175.0230  137.8980 C   0  0  1  0  0  3  0  0  0  0  0  0
  181.9920  174.7290  137.5510 C   0  0  0  0  0  2  0  0  0  0  0  0
  180.7960  175.9480  135.9030 C   0  0  0  0  0  2  0  0  0  0  0  0
  181.8030  176.0520  136.9620 N   0  0  0  0  0  0  0  0  0  0  0  0
  180.7600  174.3220  138.3660 C   0  0  0  0  0  2  0  0  0  0  0  0
  179.5500  175.9090  139.9280 C   0  0  0  0  0  1  0  0  0  0  0  0
  179.3090  176.2260  138.5890 O   0  0  0  0  0  0  0  0  0  0  0  0
  2  1  1  0  0  0  0
  2  8  1  1  0  0  0
  3  1  1  0  0  0  0
  3  6  1  0  0  0  0
  4  2  1  0  0  0  0
  4  5  1  0  0  0  0
  6 23  1  6  0  0  0
  6  5  1  0  0  0  0
  7 10  1  0  0  0  0
  8  7  1  0  0  0  0
  9  8  2  0  0  0  0
 10 13  1  0  0  0  0
 11 14  1  0  0  0  0
 13 12  2  0  0  0  0
 13 11  1  0  0  0  0
 14 15  2  0  0  0  0
 14 16  1  0  0  0  0
 16 17  1  0  0  0  0
 17 21  1  0  0  0  0
 18 20  1  0  0  0  0
 19 20  1  0  0  0  0
 21 19  1  0  0  0  0
 22 17  2  0  0  0  0
 22 18  1  0  0  0  0
 23 35  1  1  0  0  0
 23 25  1  0  0  0  0
 24 27  1  0  0  0  0
 24 28  1  0  0  0  0
 25 32  1  0  0  0  0
 26 29  1  0  0  0  0
 26 30  1  0  0  0  0
 29 31  1  0  0  0  0
 30 24  2  0  0  0  0
 31 27  2  0  0  0  0
 32 29  2  0  0  0  0
 33 25  2  0  0  0  0
 33 34  1  0  0  0  0
 34 26  2  0  0  0  0
 35 40  1  0  0  0  0
 36 37  1  0  0  0  0
 37 41  1  0  0  0  0
 37 43  1  1  0  0  0
 38 41  1  0  0  0  0
 39 36  1  0  0  0  0
 39 40  1  0  0  0  0
 40 38  1  0  0  0  0
 43 42  1  0  0  0  0
M  END
>  <MODEL>
9

>  <REMARK>
 VINA RESULT:      -7.5      3.218      6.162
  Name = 
  10 active torsions:
  status: ('A' for Active; 'I' for Inactive)
    1  A    between atoms: C_1  and  C_34
    2  A    between atoms: C_1  and  N_35
    3  A    between atoms: N_3  and  C_42
    4  A    between atoms: C_6  and  C_12
    5  A    between atoms: C_8  and  C_34
    6  A    between atoms: C_11  and  C_14
    7  A    between atoms: C_14  and  C_22
    8  A    between atoms: C_15  and  C_42
    9  A    between atoms: C_19  and  O_37
   10  A    between atoms: C_34  and  C_38
                            x       y       z     vdW  Elec       q    Type
                         _______ _______ _______ _____ _____    ______ ____

>  <TORSDO>
F 10

$$$$
