=
 OpenBabel11052412393D

 30 32  0  0  1  0  0  0  0  0999 V2000
  187.1970  175.4300  134.5940 C   0  0  0  0  0  2  0  0  0  0  0  0
  188.2940  176.0170  135.4730 C   0  0  1  0  0  3  0  0  0  0  0  0
  186.3150  173.8120  137.5570 O   0  0  0  0  0  0  0  0  0  0  0  0
  190.6160  176.4530  139.4350 C   0  0  0  0  0  3  0  0  0  0  0  0
  190.8540  176.1050  135.6410 C   0  0  1  0  0  3  0  0  0  0  0  0
  189.0850  178.1590  136.5160 N   0  0  0  0  0  2  0  0  0  0  0  0
  186.9400  176.5930  138.3600 O   0  0  0  0  0  1  0  0  0  0  0  0
  190.1410  174.2170  137.2510 C   0  0  0  0  0  1  0  0  0  0  0  0
  189.6330  175.7700  134.7790 C   0  0  0  0  0  2  0  0  0  0  0  0
  189.5210  177.7610  137.8200 C   0  0  0  0  0  0  0  0  0  0  0  0
  189.9830  177.7890  140.2290 S   0  0  0  0  0  0  0  0  0  0  0  0
  186.5620  174.2130  135.2570 C   0  0  0  0  0  2  0  0  0  0  0  0
  185.2210  175.7960  136.8280 C   0  0  2  0  0  3  0  0  0  0  0  0
  186.0430  174.5460  136.6200 C   0  0  0  0  0  0  0  0  0  0  0  0
  186.6280  177.8630  136.2910 C   0  0  0  0  0  2  0  0  0  0  0  0
  186.0140  176.9810  137.3910 C   0  0  2  0  0  3  0  0  0  0  0  0
  188.0270  177.5030  135.7480 C   0  0  2  0  0  3  0  0  0  0  0  0
  189.2820  178.5720  138.9210 C   0  0  0  0  0  3  0  0  0  0  0  0
  190.7810  175.5910  137.0890 C   0  0  2  0  0  3  0  0  0  0  0  0
  190.2760  176.5920  138.0940 C   0  0  0  0  0  0  0  0  0  0  0  0
  192.1070  175.5900  134.9580 C   0  0  0  0  0  2  0  0  0  0  0  0
  193.2310  175.9070  135.7230 O   0  0  0  0  0  0  0  0  0  0  0  0
  194.3660  174.6680  135.3710 S   0  0  0  0  0  0  0  0  0  0  0  0
  193.9670  173.7600  136.8930 C   0  0  0  0  0  1  0  0  0  0  0  0
  183.8670  175.5880  137.5290 C   0  0  1  0  0  3  0  0  0  0  0  0
  183.3750  176.8630  138.2200 C   0  0  2  0  0  3  0  0  0  0  0  0
  182.7700  176.5410  139.5750 C   0  0  0  0  0  1  0  0  0  0  0  0
  182.4060  177.4930  137.4380 O   0  0  0  0  0  1  0  0  0  0  0  0
  182.0710  173.7040  137.1460 O   0  0  0  0  0  0  0  0  0  0  0  0
  182.6010  174.9260  136.4080 S   0  0  0  0  0  3  0  0  0  0  0  0
  1 12  1  0  0  0  0
  2  1  1  6  0  0  0
  2 17  1  0  0  0  0
  4 11  1  0  0  0  0
  5 21  1  6  0  0  0
  5 19  1  0  0  0  0
  6 10  1  0  0  0  0
  9  2  1  0  0  0  0
  9  5  1  0  0  0  0
 10 20  1  0  0  0  0
 10 18  2  0  0  0  0
 12 14  1  0  0  0  0
 13 16  1  0  0  0  0
 13 25  1  1  0  0  0
 14 13  1  0  0  0  0
 14  3  2  0  0  0  0
 15 16  1  0  0  0  0
 16  7  1  1  0  0  0
 17 15  1  1  0  0  0
 17  6  1  0  0  0  0
 18 11  1  0  0  0  0
 19  8  1  6  0  0  0
 19 20  1  0  0  0  0
 20  4  2  0  0  0  0
 21 22  1  0  0  0  0
 23 22  1  0  0  0  0
 23 24  1  0  0  0  0
 25 30  1  6  0  0  0
 25 26  1  0  0  0  0
 26 27  1  1  0  0  0
 28 26  1  0  0  0  0
 30 29  2  0  0  0  0
M  END
>  <MODEL>
1

>  <REMARK>
 VINA RESULT:      -4.3      0.000      0.000
  Name = 
  6 active torsions:
  status: ('A' for Active; 'I' for Inactive)
    1  A    between atoms: C_2  and  C_28
    2  A    between atoms: C_6  and  C_8
    3  A    between atoms: C_6  and  O_21
    4  A    between atoms: S_9  and  O_21
    5  A    between atoms: C_19  and  C_28
    6  A    between atoms: C_28  and  S_29
                            x       y       z     vdW  Elec       q    Type
                         _______ _______ _______ _____ _____    ______ ____

>  <TORSDO>
F 6

$$$$
=
 OpenBabel11052412393D

 30 32  0  0  1  0  0  0  0  0999 V2000
  182.0130  177.7500  135.4600 C   0  0  0  0  0  2  0  0  0  0  0  0
  181.3080  178.3490  136.6700 C   0  0  1  0  0  3  0  0  0  0  0  0
  184.2250  176.5850  137.8950 O   0  0  0  0  0  0  0  0  0  0  0  0
  180.9000  179.2690  141.1720 C   0  0  0  0  0  3  0  0  0  0  0  0
  180.6060  180.6290  137.6180 C   0  0  1  0  0  3  0  0  0  0  0  0
  179.2170  178.1810  138.0490 N   0  0  0  0  0  2  0  0  0  0  0  0
  181.5290  176.1490  139.0380 O   0  0  0  0  0  1  0  0  0  0  0  0
  182.8310  180.0690  138.8000 C   0  0  0  0  0  1  0  0  0  0  0  0
  181.1040  179.8400  136.4030 C   0  0  0  0  0  2  0  0  0  0  0  0
  179.6830  178.3360  139.3930 C   0  0  0  0  0  0  0  0  0  0  0  0
  179.9000  178.0900  141.8240 S   0  0  0  0  0  0  0  0  0  0  0  0
  183.4350  177.3300  135.8130 C   0  0  0  0  0  2  0  0  0  0  0  0
  182.4930  175.2170  137.0040 C   0  0  2  0  0  3  0  0  0  0  0  0
  183.4510  176.3840  136.9720 C   0  0  0  0  0  0  0  0  0  0  0  0
  180.0830  176.0700  137.0650 C   0  0  0  0  0  2  0  0  0  0  0  0
  181.2450  175.4540  137.8610 C   0  0  2  0  0  3  0  0  0  0  0  0
  179.9950  177.6060  136.9520 C   0  0  2  0  0  3  0  0  0  0  0  0
  179.1320  177.5830  140.4220 C   0  0  0  0  0  3  0  0  0  0  0  0
  181.3320  180.3110  138.9350 C   0  0  2  0  0  3  0  0  0  0  0  0
  180.6520  179.2850  139.8040 C   0  0  0  0  0  0  0  0  0  0  0  0
  180.6810  182.1140  137.3160 C   0  0  0  0  0  2  0  0  0  0  0  0
  180.0490  182.3850  136.1010 O   0  0  0  0  0  0  0  0  0  0  0  0
  180.7830  183.8310  135.5370 S   0  0  0  0  0  0  0  0  0  0  0  0
  181.3790  184.2700  137.1950 C   0  0  0  0  0  1  0  0  0  0  0  0
  183.1380  173.8400  137.2410 C   0  0  1  0  0  3  0  0  0  0  0  0
  182.1820  172.6920  136.9000 C   0  0  2  0  0  3  0  0  0  0  0  0
  182.8990  171.3550  136.9760 C   0  0  0  0  0  1  0  0  0  0  0  0
  181.6770  172.8530  135.6100 O   0  0  0  0  0  1  0  0  0  0  0  0
  185.7330  173.4900  137.4890 O   0  0  0  0  0  0  0  0  0  0  0  0
  184.7180  173.6530  136.3670 S   0  0  0  0  0  3  0  0  0  0  0  0
  1 12  1  0  0  0  0
  2  1  1  6  0  0  0
  2 17  1  0  0  0  0
  4 11  1  0  0  0  0
  5 21  1  6  0  0  0
  5 19  1  0  0  0  0
  6 10  1  0  0  0  0
  9  2  1  0  0  0  0
  9  5  1  0  0  0  0
 10 20  1  0  0  0  0
 10 18  2  0  0  0  0
 12 14  1  0  0  0  0
 13 25  1  1  0  0  0
 13 16  1  0  0  0  0
 14 13  1  0  0  0  0
 14  3  2  0  0  0  0
 15 16  1  0  0  0  0
 16  7  1  1  0  0  0
 17 15  1  1  0  0  0
 17  6  1  0  0  0  0
 18 11  1  0  0  0  0
 19  8  1  6  0  0  0
 19 20  1  0  0  0  0
 20  4  2  0  0  0  0
 22 21  1  0  0  0  0
 23 22  1  0  0  0  0
 23 24  1  0  0  0  0
 25 30  1  6  0  0  0
 26 27  1  6  0  0  0
 26 25  1  0  0  0  0
 28 26  1  0  0  0  0
 30 29  2  0  0  0  0
M  END
>  <MODEL>
2

>  <REMARK>
 VINA RESULT:      -4.1      5.913      8.918
  Name = 
  6 active torsions:
  status: ('A' for Active; 'I' for Inactive)
    1  A    between atoms: C_2  and  C_28
    2  A    between atoms: C_6  and  C_8
    3  A    between atoms: C_6  and  O_21
    4  A    between atoms: S_9  and  O_21
    5  A    between atoms: C_19  and  C_28
    6  A    between atoms: C_28  and  S_29
                            x       y       z     vdW  Elec       q    Type
                         _______ _______ _______ _____ _____    ______ ____

>  <TORSDO>
F 6

$$$$
=
 OpenBabel11052412393D

 30 32  0  0  1  0  0  0  0  0999 V2000
  183.7910  178.6910  138.8790 C   0  0  0  0  0  2  0  0  0  0  0  0
  183.4620  177.5180  137.9630 C   0  0  1  0  0  3  0  0  0  0  0  0
  180.5430  179.6620  138.0530 O   0  0  0  0  0  0  0  0  0  0  0  0
  180.7350  175.1860  135.0640 C   0  0  0  0  0  3  0  0  0  0  0  0
  184.2720  176.4240  135.7880 C   0  0  1  0  0  3  0  0  0  0  0  0
  183.0520  175.0420  137.9590 N   0  0  0  0  0  2  0  0  0  0  0  0
  180.3690  176.7480  138.5450 O   0  0  0  0  0  1  0  0  0  0  0  0
  182.3000  177.9320  135.0830 C   0  0  0  0  0  1  0  0  0  0  0  0
  184.5700  177.4150  136.9160 C   0  0  0  0  0  2  0  0  0  0  0  0
  181.9680  174.8780  137.0390 C   0  0  0  0  0  0  0  0  0  0  0  0
  179.9270  174.0310  135.9740 S   0  0  0  0  0  0  0  0  0  0  0  0
  182.7990  179.8310  138.6800 C   0  0  0  0  0  2  0  0  0  0  0  0
  181.0420  178.5170  140.0790 C   0  0  2  0  0  3  0  0  0  0  0  0
  181.3910  179.3670  138.8800 C   0  0  0  0  0  0  0  0  0  0  0  0
  182.3070  176.2970  139.9700 C   0  0  0  0  0  2  0  0  0  0  0  0
  180.9610  177.0160  139.7800 C   0  0  2  0  0  3  0  0  0  0  0  0
  183.2860  176.2300  138.7790 C   0  0  2  0  0  3  0  0  0  0  0  0
  180.9620  173.9550  137.2920 C   0  0  0  0  0  3  0  0  0  0  0  0
  182.8520  176.5170  135.2050 C   0  0  2  0  0  3  0  0  0  0  0  0
  181.8570  175.5520  135.7970 C   0  0  0  0  0  0  0  0  0  0  0  0
  185.3070  176.5870  134.6910 C   0  0  0  0  0  2  0  0  0  0  0  0
  186.1790  177.6300  135.0100 O   0  0  0  0  0  0  0  0  0  0  0  0
  187.7500  176.9630  134.8210 S   0  0  0  0  0  0  0  0  0  0  0  0
  188.3380  177.7050  136.3710 C   0  0  0  0  0  1  0  0  0  0  0  0
  179.8670  179.0280  140.9320 C   0  0  1  0  0  3  0  0  0  0  0  0
  180.1280  178.8540  142.4310 C   0  0  2  0  0  3  0  0  0  0  0  0
  181.6170  178.8910  142.7270 C   0  0  0  0  0  1  0  0  0  0  0  0
  179.6180  177.6310  142.8710 O   0  0  0  0  0  1  0  0  0  0  0  0
  179.3430  181.4130  141.9090 O   0  0  0  0  0  0  0  0  0  0  0  0
  179.4230  180.7450  140.5430 S   0  0  0  0  0  3  0  0  0  0  0  0
  2  9  1  6  0  0  0
  2 17  1  0  0  0  0
  2  1  1  0  0  0  0
  3 14  2  0  0  0  0
  4 20  2  0  0  0  0
  4 11  1  0  0  0  0
  5 21  1  6  0  0  0
  5  9  1  0  0  0  0
  6 17  1  0  0  0  0
 10 18  2  0  0  0  0
 10  6  1  0  0  0  0
 11 18  1  0  0  0  0
 12  1  1  0  0  0  0
 12 14  1  0  0  0  0
 13 25  1  6  0  0  0
 14 13  1  0  0  0  0
 16  7  1  6  0  0  0
 16 15  1  0  0  0  0
 16 13  1  0  0  0  0
 17 15  1  1  0  0  0
 19  8  1  1  0  0  0
 19  5  1  0  0  0  0
 19 20  1  0  0  0  0
 20 10  1  0  0  0  0
 21 22  1  0  0  0  0
 23 22  1  0  0  0  0
 23 24  1  0  0  0  0
 25 30  1  1  0  0  0
 25 26  1  0  0  0  0
 26 27  1  6  0  0  0
 26 28  1  0  0  0  0
 30 29  2  0  0  0  0
M  END
>  <MODEL>
3

>  <REMARK>
 VINA RESULT:      -3.9      3.792      7.437
  Name = 
  6 active torsions:
  status: ('A' for Active; 'I' for Inactive)
    1  A    between atoms: C_2  and  C_28
    2  A    between atoms: C_6  and  C_8
    3  A    between atoms: C_6  and  O_21
    4  A    between atoms: S_9  and  O_21
    5  A    between atoms: C_19  and  C_28
    6  A    between atoms: C_28  and  S_29
                            x       y       z     vdW  Elec       q    Type
                         _______ _______ _______ _____ _____    ______ ____

>  <TORSDO>
F 6

$$$$
=
 OpenBabel11052412393D

 30 32  0  0  1  0  0  0  0  0999 V2000
  188.6560  178.5550  136.2820 C   0  0  0  0  0  2  0  0  0  0  0  0
  187.7730  177.3650  135.9260 C   0  0  1  0  0  3  0  0  0  0  0  0
  188.5840  177.0840  139.4460 O   0  0  0  0  0  0  0  0  0  0  0  0
  185.4050  173.5370  136.9340 C   0  0  0  0  0  3  0  0  0  0  0  0
  185.4250  176.8460  135.0310 C   0  0  1  0  0  3  0  0  0  0  0  0
  187.7340  175.2360  134.5970 N   0  0  0  0  0  2  0  0  0  0  0  0
  188.9570  174.8310  137.5620 O   0  0  0  0  0  1  0  0  0  0  0  0
  185.2280  176.6230  137.5950 C   0  0  0  0  0  1  0  0  0  0  0  0
  186.5130  177.9010  135.2500 C   0  0  0  0  0  2  0  0  0  0  0  0
  187.0570  174.3120  135.4550 C   0  0  0  0  0  0  0  0  0  0  0  0
  186.4070  172.2360  136.5880 S   0  0  0  0  0  0  0  0  0  0  0  0
  188.7280  178.7450  137.7920 C   0  0  0  0  0  2  0  0  0  0  0  0
  190.4000  176.7570  137.9410 C   0  0  2  0  0  3  0  0  0  0  0  0
  189.1980  177.5000  138.4750 C   0  0  0  0  0  0  0  0  0  0  0  0
  189.9160  175.9010  135.5800 C   0  0  0  0  0  2  0  0  0  0  0  0
  190.0510  175.5450  137.0700 C   0  0  2  0  0  3  0  0  0  0  0  0
  188.5430  176.3660  135.0510 C   0  0  2  0  0  3  0  0  0  0  0  0
  187.4710  172.9890  135.5330 C   0  0  0  0  0  3  0  0  0  0  0  0
  185.1610  175.9310  136.2390 C   0  0  2  0  0  3  0  0  0  0  0  0
  185.9010  174.6190  136.2160 C   0  0  0  0  0  0  0  0  0  0  0  0
  184.1430  177.5300  134.5940 C   0  0  0  0  0  2  0  0  0  0  0  0
  183.0810  176.6240  134.6370 O   0  0  0  0  0  0  0  0  0  0  0  0
  181.8830  177.3970  135.5930 S   0  0  0  0  0  0  0  0  0  0  0  0
  181.4860  175.8620  136.4800 C   0  0  0  0  0  1  0  0  0  0  0  0
  191.5060  176.4640  138.9710 C   0  0  1  0  0  3  0  0  0  0  0  0
  192.9060  176.6610  138.3810 C   0  0  2  0  0  3  0  0  0  0  0  0
  193.4610  175.3460  137.8630 C   0  0  0  0  0  1  0  0  0  0  0  0
  193.7740  177.1570  139.3550 O   0  0  0  0  0  1  0  0  0  0  0  0
  190.8250  176.3890  141.5100 O   0  0  0  0  0  0  0  0  0  0  0  0
  191.3030  177.4220  140.4990 S   0  0  0  0  0  3  0  0  0  0  0  0
  1 12  1  0  0  0  0
  2  9  1  6  0  0  0
  2  1  1  0  0  0  0
  5 21  1  1  0  0  0
  5  9  1  0  0  0  0
  5 19  1  0  0  0  0
  6 17  1  0  0  0  0
  6 10  1  0  0  0  0
 10 18  2  0  0  0  0
 10 20  1  0  0  0  0
 11  4  1  0  0  0  0
 12 14  1  0  0  0  0
 13 14  1  0  0  0  0
 13 25  1  1  0  0  0
 14  3  2  0  0  0  0
 15 16  1  0  0  0  0
 16  7  1  1  0  0  0
 16 13  1  0  0  0  0
 17 15  1  1  0  0  0
 17  2  1  0  0  0  0
 18 11  1  0  0  0  0
 19  8  1  1  0  0  0
 20 19  1  0  0  0  0
 20  4  2  0  0  0  0
 21 22  1  0  0  0  0
 22 23  1  0  0  0  0
 23 24  1  0  0  0  0
 25 30  1  1  0  0  0
 26 27  1  1  0  0  0
 26 25  1  0  0  0  0
 26 28  1  0  0  0  0
 30 29  2  0  0  0  0
M  END
>  <MODEL>
4

>  <REMARK>
 VINA RESULT:      -3.8      2.285      7.257
  Name = 
  6 active torsions:
  status: ('A' for Active; 'I' for Inactive)
    1  A    between atoms: C_2  and  C_28
    2  A    between atoms: C_6  and  C_8
    3  A    between atoms: C_6  and  O_21
    4  A    between atoms: S_9  and  O_21
    5  A    between atoms: C_19  and  C_28
    6  A    between atoms: C_28  and  S_29
                            x       y       z     vdW  Elec       q    Type
                         _______ _______ _______ _____ _____    ______ ____

>  <TORSDO>
F 6

$$$$
=
 OpenBabel11052412393D

 30 32  0  0  1  0  0  0  0  0999 V2000
  184.0150  177.0110  138.1000 C   0  0  0  0  0  2  0  0  0  0  0  0
  182.5790  177.4870  138.2820 C   0  0  1  0  0  3  0  0  0  0  0  0
  184.7460  180.1720  139.3860 O   0  0  0  0  0  0  0  0  0  0  0  0
  179.3780  180.6140  139.4030 C   0  0  0  0  0  3  0  0  0  0  0  0
  180.4580  177.9350  136.9080 C   0  0  1  0  0  3  0  0  0  0  0  0
  180.4980  177.0820  139.6250 N   0  0  0  0  0  2  0  0  0  0  0  0
  182.5180  179.1630  141.0550 O   0  0  0  0  0  1  0  0  0  0  0  0
  181.5850  180.2420  137.1710 C   0  0  0  0  0  1  0  0  0  0  0  0
  181.8500  177.2980  136.9520 C   0  0  0  0  0  2  0  0  0  0  0  0
  179.9970  178.3990  139.8810 C   0  0  0  0  0  0  0  0  0  0  0  0
  178.9310  180.3080  140.9920 S   0  0  0  0  0  0  0  0  0  0  0  0
  184.9870  178.1840  138.1610 C   0  0  0  0  0  2  0  0  0  0  0  0
  184.7450  178.2230  140.7510 C   0  0  2  0  0  3  0  0  0  0  0  0
  184.8300  178.9550  139.4330 C   0  0  0  0  0  0  0  0  0  0  0  0
  182.6660  176.7340  140.7880 C   0  0  0  0  0  2  0  0  0  0  0  0
  183.3170  178.0400  141.2750 C   0  0  2  0  0  3  0  0  0  0  0  0
  181.9080  176.7410  139.4430 C   0  0  2  0  0  3  0  0  0  0  0  0
  179.4340  178.7130  141.1110 C   0  0  0  0  0  3  0  0  0  0  0  0
  180.3820  179.3600  137.4810 C   0  0  2  0  0  3  0  0  0  0  0  0
  179.9540  179.4430  138.9230 C   0  0  0  0  0  0  0  0  0  0  0  0
  179.9390  177.9070  135.4830 C   0  0  0  0  0  2  0  0  0  0  0  0
  178.9380  176.9420  135.3590 O   0  0  0  0  0  0  0  0  0  0  0  0
  179.7100  175.6000  134.6180 S   0  0  0  0  0  0  0  0  0  0  0  0
  179.1650  174.4620  135.9260 C   0  0  0  0  0  1  0  0  0  0  0  0
  185.7310  178.6960  141.8340 C   0  0  1  0  0  3  0  0  0  0  0  0
  185.2090  178.4160  143.2470 C   0  0  2  0  0  3  0  0  0  0  0  0
  184.8690  179.7120  143.9610 C   0  0  0  0  0  1  0  0  0  0  0  0
  186.1750  177.7380  143.9920 O   0  0  0  0  0  1  0  0  0  0  0  0
  188.1350  179.0990  140.8470 O   0  0  0  0  0  0  0  0  0  0  0  0
  187.3950  178.0070  141.6070 S   0  0  0  0  0  3  0  0  0  0  0  0
  1 12  1  0  0  0  0
  1  2  1  0  0  0  0
  2  9  1  6  0  0  0
  2 17  1  0  0  0  0
  3 14  2  0  0  0  0
  4 11  1  0  0  0  0
  5 21  1  6  0  0  0
  5  9  1  0  0  0  0
  5 19  1  0  0  0  0
  6 10  1  0  0  0  0
 10 18  2  0  0  0  0
 11 18  1  0  0  0  0
 12 14  1  0  0  0  0
 13 16  1  0  0  0  0
 13 25  1  1  0  0  0
 14 13  1  0  0  0  0
 15 16  1  0  0  0  0
 16  7  1  6  0  0  0
 17  6  1  0  0  0  0
 17 15  1  1  0  0  0
 19  8  1  1  0  0  0
 19 20  1  0  0  0  0
 20  4  2  0  0  0  0
 20 10  1  0  0  0  0
 22 21  1  0  0  0  0
 23 22  1  0  0  0  0
 23 24  1  0  0  0  0
 25 30  1  6  0  0  0
 25 26  1  0  0  0  0
 26 27  1  1  0  0  0
 26 28  1  0  0  0  0
 29 30  2  0  0  0  0
M  END
>  <MODEL>
5

>  <REMARK>
 VINA RESULT:      -3.8      5.539      9.143
  Name = 
  6 active torsions:
  status: ('A' for Active; 'I' for Inactive)
    1  A    between atoms: C_2  and  C_28
    2  A    between atoms: C_6  and  C_8
    3  A    between atoms: C_6  and  O_21
    4  A    between atoms: S_9  and  O_21
    5  A    between atoms: C_19  and  C_28
    6  A    between atoms: C_28  and  S_29
                            x       y       z     vdW  Elec       q    Type
                         _______ _______ _______ _____ _____    ______ ____

>  <TORSDO>
F 6

$$$$
=
 OpenBabel11052412393D

 30 32  0  0  1  0  0  0  0  0999 V2000
  181.2400  175.2210  136.8710 C   0  0  0  0  0  2  0  0  0  0  0  0
  182.6310  175.0230  136.2820 C   0  0  1  0  0  3  0  0  0  0  0  0
  183.0560  175.8070  139.7930 O   0  0  0  0  0  0  0  0  0  0  0  0
  187.2280  174.7620  136.5530 C   0  0  0  0  0  3  0  0  0  0  0  0
  184.0440  173.2270  135.1140 C   0  0  1  0  0  3  0  0  0  0  0  0
  184.2840  176.0320  134.6850 N   0  0  0  0  0  2  0  0  0  0  0  0
  184.5340  177.2480  137.6710 O   0  0  0  0  0  1  0  0  0  0  0  0
  184.7400  173.1160  137.5970 C   0  0  0  0  0  1  0  0  0  0  0  0
  182.6510  173.6720  135.5690 C   0  0  0  0  0  2  0  0  0  0  0  0
  185.5420  175.8660  135.3480 C   0  0  0  0  0  0  0  0  0  0  0  0
  187.8300  176.2710  136.1330 S   0  0  0  0  0  0  0  0  0  0  0  0
  181.2820  175.1660  138.3940 C   0  0  0  0  0  2  0  0  0  0  0  0
  182.2440  177.5830  138.4330 C   0  0  2  0  0  3  0  0  0  0  0  0
  182.2510  176.1630  138.9470 C   0  0  0  0  0  0  0  0  0  0  0  0
  182.8370  177.6110  135.9450 C   0  0  0  0  0  2  0  0  0  0  0  0
  183.3210  177.8730  137.3810 C   0  0  2  0  0  3  0  0  0  0  0  0
  182.9950  176.1930  135.3570 C   0  0  2  0  0  3  0  0  0  0  0  0
  186.5070  176.8620  135.2890 C   0  0  0  0  0  3  0  0  0  0  0  0
  185.1550  173.4130  136.1610 C   0  0  2  0  0  3  0  0  0  0  0  0
  185.9410  174.6910  136.0330 C   0  0  0  0  0  0  0  0  0  0  0  0
  183.9840  171.7820  134.6540 C   0  0  0  0  0  2  0  0  0  0  0  0
  182.8560  171.1590  135.1920 O   0  0  0  0  0  0  0  0  0  0  0  0
  183.4220  169.6400  135.7580 S   0  0  0  0  0  0  0  0  0  0  0  0
  184.9500  169.7550  134.7820 C   0  0  0  0  0  1  0  0  0  0  0  0
  182.1430  178.6760  139.5120 C   0  0  1  0  0  3  0  0  0  0  0  0
  180.8670  178.5400  140.3480 C   0  0  2  0  0  3  0  0  0  0  0  0
  179.6330  178.6380  139.4680 C   0  0  0  0  0  1  0  0  0  0  0  0
  180.8100  179.5520  141.3080 O   0  0  0  0  0  1  0  0  0  0  0  0
  184.5140  179.7530  139.8790 O   0  0  0  0  0  0  0  0  0  0  0  0
  183.6140  178.7410  140.5740 S   0  0  0  0  0  3  0  0  0  0  0  0
  1 12  1  0  0  0  0
  2  9  1  6  0  0  0
  2  1  1  0  0  0  0
  5 21  1  1  0  0  0
  5  9  1  0  0  0  0
  5 19  1  0  0  0  0
  6 10  1  0  0  0  0
  6 17  1  0  0  0  0
 10 20  1  0  0  0  0
 11  4  1  0  0  0  0
 12 14  1  0  0  0  0
 13 14  1  0  0  0  0
 13 25  1  1  0  0  0
 14  3  2  0  0  0  0
 15 16  1  0  0  0  0
 16  7  1  1  0  0  0
 16 13  1  0  0  0  0
 17 15  1  1  0  0  0
 17  2  1  0  0  0  0
 18 10  2  0  0  0  0
 18 11  1  0  0  0  0
 19  8  1  1  0  0  0
 20 19  1  0  0  0  0
 20  4  2  0  0  0  0
 21 22  1  0  0  0  0
 22 23  1  0  0  0  0
 24 23  1  0  0  0  0
 25 26  1  0  0  0  0
 25 30  1  1  0  0  0
 26 27  1  6  0  0  0
 26 28  1  0  0  0  0
 29 30  2  0  0  0  0
M  END
>  <MODEL>
6

>  <REMARK>
 VINA RESULT:      -3.6      3.974      6.226
  Name = 
  6 active torsions:
  status: ('A' for Active; 'I' for Inactive)
    1  A    between atoms: C_2  and  C_28
    2  A    between atoms: C_6  and  C_8
    3  A    between atoms: C_6  and  O_21
    4  A    between atoms: S_9  and  O_21
    5  A    between atoms: C_19  and  C_28
    6  A    between atoms: C_28  and  S_29
                            x       y       z     vdW  Elec       q    Type
                         _______ _______ _______ _____ _____    ______ ____

>  <TORSDO>
F 6

$$$$
=
 OpenBabel11052412393D

 30 32  0  0  1  0  0  0  0  0999 V2000
  182.8120  177.6730  135.5260 C   0  0  0  0  0  2  0  0  0  0  0  0
  182.3200  176.5870  136.4740 C   0  0  1  0  0  3  0  0  0  0  0  0
  179.4180  178.4790  135.4170 O   0  0  0  0  0  0  0  0  0  0  0  0
  179.0430  174.2450  138.7230 C   0  0  0  0  0  3  0  0  0  0  0  0
  182.2660  174.0300  136.6890 C   0  0  1  0  0  3  0  0  0  0  0  0
  182.3850  175.8530  138.8740 N   0  0  0  0  0  2  0  0  0  0  0  0
  179.9840  177.9330  138.2710 O   0  0  0  0  0  1  0  0  0  0  0  0
  179.9580  174.6700  135.7270 C   0  0  0  0  0  1  0  0  0  0  0  0
  182.8550  175.2470  135.9700 C   0  0  0  0  0  2  0  0  0  0  0  0
  181.0520  175.3940  139.1240 C   0  0  0  0  0  0  0  0  0  0  0  0
  178.9320  174.9130  140.2590 S   0  0  0  0  0  0  0  0  0  0  0  0
  181.6530  178.2650  134.7310 C   0  0  0  0  0  2  0  0  0  0  0  0
  180.9470  179.6400  136.8230 C   0  0  2  0  0  3  0  0  0  0  0  0
  180.5810  178.7820  135.6360 C   0  0  0  0  0  0  0  0  0  0  0  0
  182.3970  178.3020  138.4510 C   0  0  0  0  0  2  0  0  0  0  0  0
  181.0030  178.8790  138.1530 C   0  0  2  0  0  3  0  0  0  0  0  0
  182.7470  176.8970  137.9160 C   0  0  2  0  0  3  0  0  0  0  0  0
  180.4360  175.6480  140.3430 C   0  0  0  0  0  3  0  0  0  0  0  0
  180.7420  174.0740  136.8900 C   0  0  2  0  0  3  0  0  0  0  0  0
  180.2920  174.6020  138.2280 C   0  0  0  0  0  0  0  0  0  0  0  0
  182.6670  172.7680  135.9490 C   0  0  0  0  0  2  0  0  0  0  0  0
  183.4930  171.9840  136.7580 O   0  0  0  0  0  0  0  0  0  0  0  0
  185.0660  172.1770  136.0990 S   0  0  0  0  0  0  0  0  0  0  0  0
  185.6790  173.0050  137.5940 C   0  0  0  0  0  1  0  0  0  0  0  0
  180.1990  180.9810  136.9250 C   0  0  1  0  0  3  0  0  0  0  0  0
  180.5390  181.7320  138.2170 C   0  0  2  0  0  3  0  0  0  0  0  0
  179.2980  182.3820  138.8030 C   0  0  0  0  0  1  0  0  0  0  0  0
  181.4840  182.7260  137.9620 O   0  0  0  0  0  1  0  0  0  0  0  0
  179.1930  182.8710  135.3970 O   0  0  0  0  0  0  0  0  0  0  0  0
  180.4640  182.0360  135.4710 S   0  0  0  0  0  3  0  0  0  0  0  0
  2  1  1  6  0  0  0
  2 17  1  0  0  0  0
  3 14  2  0  0  0  0
  4 11  1  0  0  0  0
  5 21  1  6  0  0  0
  5 19  1  0  0  0  0
  6 10  1  0  0  0  0
  9  2  1  0  0  0  0
  9  5  1  0  0  0  0
 10 18  2  0  0  0  0
 11 18  1  0  0  0  0
 12  1  1  0  0  0  0
 12 14  1  0  0  0  0
 13 25  1  1  0  0  0
 13 16  1  0  0  0  0
 14 13  1  0  0  0  0
 16  7  1  6  0  0  0
 16 15  1  0  0  0  0
 17 15  1  1  0  0  0
 17  6  1  0  0  0  0
 19  8  1  6  0  0  0
 19 20  1  0  0  0  0
 20  4  2  0  0  0  0
 20 10  1  0  0  0  0
 21 22  1  0  0  0  0
 23 22  1  0  0  0  0
 23 24  1  0  0  0  0
 25 30  1  6  0  0  0
 25 26  1  0  0  0  0
 26 27  1  6  0  0  0
 28 26  1  0  0  0  0
 29 30  2  0  0  0  0
M  END
>  <MODEL>
7

>  <REMARK>
 VINA RESULT:      -3.5      5.566      8.166
  Name = 
  6 active torsions:
  status: ('A' for Active; 'I' for Inactive)
    1  A    between atoms: C_2  and  C_28
    2  A    between atoms: C_6  and  C_8
    3  A    between atoms: C_6  and  O_21
    4  A    between atoms: S_9  and  O_21
    5  A    between atoms: C_19  and  C_28
    6  A    between atoms: C_28  and  S_29
                            x       y       z     vdW  Elec       q    Type
                         _______ _______ _______ _____ _____    ______ ____

>  <TORSDO>
F 6

$$$$
=
 OpenBabel11052412393D

 30 32  0  0  1  0  0  0  0  0999 V2000
  183.0550  176.1310  138.7870 C   0  0  0  0  0  2  0  0  0  0  0  0
  182.0420  177.2160  138.4400 C   0  0  1  0  0  3  0  0  0  0  0  0
  185.2700  178.3410  137.2410 O   0  0  0  0  0  0  0  0  0  0  0  0
  180.7760  181.2250  136.5420 C   0  0  0  0  0  3  0  0  0  0  0  0
  179.8970  177.5490  137.0700 C   0  0  1  0  0  3  0  0  0  0  0  0
  180.5440  178.9490  139.4640 N   0  0  0  0  0  2  0  0  0  0  0  0
  183.5360  180.0490  138.9270 O   0  0  0  0  0  1  0  0  0  0  0  0
  181.8000  178.4040  135.5510 C   0  0  0  0  0  1  0  0  0  0  0  0
  180.8900  176.5570  137.6820 C   0  0  0  0  0  2  0  0  0  0  0  0
  180.6720  180.0720  138.5850 C   0  0  0  0  0  0  0  0  0  0  0  0
  180.8150  182.3780  137.7610 S   0  0  0  0  0  0  0  0  0  0  0  0
  184.3440  176.3190  137.9960 C   0  0  0  0  0  2  0  0  0  0  0  0
  185.0260  178.2450  139.6060 C   0  0  2  0  0  3  0  0  0  0  0  0
  184.9180  177.6840  138.2090 C   0  0  0  0  0  0  0  0  0  0  0  0
  182.6940  178.5010  140.6250 C   0  0  0  0  0  2  0  0  0  0  0  0
  183.8970  179.2110  139.9830 C   0  0  2  0  0  3  0  0  0  0  0  0
  181.5830  177.9500  139.7070 C   0  0  2  0  0  3  0  0  0  0  0  0
  180.7150  181.3640  139.0930 C   0  0  0  0  0  3  0  0  0  0  0  0
  180.5410  178.7400  136.3410 C   0  0  2  0  0  3  0  0  0  0  0  0
  180.6890  179.9890  137.1710 C   0  0  0  0  0  0  0  0  0  0  0  0
  178.9530  176.8060  136.1430 C   0  0  0  0  0  2  0  0  0  0  0  0
  178.9660  175.4420  136.4430 O   0  0  0  0  0  0  0  0  0  0  0  0
  178.9710  174.6570  134.9160 S   0  0  0  0  0  0  0  0  0  0  0  0
  180.4260  173.6580  135.3450 C   0  0  0  0  0  1  0  0  0  0  0  0
  186.4210  178.7600  140.0060 C   0  0  1  0  0  3  0  0  0  0  0  0
  186.6300  178.7340  141.5230 C   0  0  2  0  0  3  0  0  0  0  0  0
  188.0290  178.2530  141.8660 C   0  0  0  0  0  1  0  0  0  0  0  0
  185.7050  177.8780  142.1230 O   0  0  0  0  0  1  0  0  0  0  0  0
  188.4680  178.9740  138.3680 O   0  0  0  0  0  0  0  0  0  0  0  0
  187.7570  177.8780  139.1500 S   0  0  0  0  0  3  0  0  0  0  0  0
  2  9  1  1  0  0  0
  2  1  1  0  0  0  0
  2 17  1  0  0  0  0
  3 14  2  0  0  0  0
  4 20  2  0  0  0  0
  4 11  1  0  0  0  0
  5 21  1  6  0  0  0
  5  9  1  0  0  0  0
  6 17  1  0  0  0  0
 10 18  2  0  0  0  0
 10  6  1  0  0  0  0
 11 18  1  0  0  0  0
 12 14  1  0  0  0  0
 12  1  1  0  0  0  0
 13 16  1  0  0  0  0
 13 25  1  6  0  0  0
 14 13  1  0  0  0  0
 16  7  1  6  0  0  0
 16 15  1  0  0  0  0
 17 15  1  6  0  0  0
 19  8  1  1  0  0  0
 19  5  1  0  0  0  0
 19 20  1  0  0  0  0
 20 10  1  0  0  0  0
 21 22  1  0  0  0  0
 23 24  1  0  0  0  0
 23 22  1  0  0  0  0
 25 30  1  6  0  0  0
 25 26  1  0  0  0  0
 26 27  1  6  0  0  0
 26 28  1  0  0  0  0
 29 30  2  0  0  0  0
M  END
>  <MODEL>
8

>  <REMARK>
 VINA RESULT:      -3.4      4.921      8.797
  Name = 
  6 active torsions:
  status: ('A' for Active; 'I' for Inactive)
    1  A    between atoms: C_2  and  C_28
    2  A    between atoms: C_6  and  C_8
    3  A    between atoms: C_6  and  O_21
    4  A    between atoms: S_9  and  O_21
    5  A    between atoms: C_19  and  C_28
    6  A    between atoms: C_28  and  S_29
                            x       y       z     vdW  Elec       q    Type
                         _______ _______ _______ _____ _____    ______ ____

>  <TORSDO>
F 6

$$$$
=
 OpenBabel11052412393D

 30 32  0  0  1  0  0  0  0  0999 V2000
  187.9040  177.7930  135.2150 C   0  0  0  0  0  2  0  0  0  0  0  0
  186.6960  176.8720  135.3400 C   0  0  1  0  0  3  0  0  0  0  0  0
  188.2050  177.1140  138.6250 O   0  0  0  0  0  0  0  0  0  0  0  0
  183.7530  174.2260  137.7090 C   0  0  0  0  0  3  0  0  0  0  0  0
  184.1510  176.8990  135.0130 C   0  0  1  0  0  3  0  0  0  0  0  0
  185.8230  174.6210  134.6540 N   0  0  0  0  0  2  0  0  0  0  0  0
  187.5600  174.5060  137.3790 O   0  0  0  0  0  1  0  0  0  0  0  0
  184.5050  177.2920  137.5390 C   0  0  0  0  0  1  0  0  0  0  0  0
  185.4860  177.6040  134.7610 C   0  0  0  0  0  2  0  0  0  0  0  0
  185.1560  174.1440  135.8280 C   0  0  0  0  0  0  0  0  0  0  0  0
  184.2930  172.6430  137.5660 S   0  0  0  0  0  0  0  0  0  0  0  0
  188.3690  178.2680  136.5870 C   0  0  0  0  0  2  0  0  0  0  0  0
  189.4830  175.9510  136.9880 C   0  0  2  0  0  3  0  0  0  0  0  0
  188.6610  177.1130  137.4920 C   0  0  0  0  0  0  0  0  0  0  0  0
  188.2690  174.7990  135.0540 C   0  0  0  0  0  2  0  0  0  0  0  0
  188.6520  174.7430  136.5420 C   0  0  2  0  0  3  0  0  0  0  0  0
  186.9700  175.5290  134.6510 C   0  0  2  0  0  3  0  0  0  0  0  0
  185.2360  172.8050  136.1880 C   0  0  0  0  0  3  0  0  0  0  0  0
  183.9560  176.3810  136.4480 C   0  0  2  0  0  3  0  0  0  0  0  0
  184.3210  174.9340  136.6570 C   0  0  0  0  0  0  0  0  0  0  0  0
  183.0130  177.8240  134.6240 C   0  0  0  0  0  2  0  0  0  0  0  0
  181.7960  177.2840  135.0430 O   0  0  0  0  0  0  0  0  0  0  0  0
  180.8660  178.6370  135.5470 S   0  0  0  0  0  0  0  0  0  0  0  0
  180.9460  178.1430  137.2930 C   0  0  0  0  0  1  0  0  0  0  0  0
  190.6890  175.5670  137.8630 C   0  0  1  0  0  3  0  0  0  0  0  0
  191.8420  174.9930  137.0320 C   0  0  2  0  0  3  0  0  0  0  0  0
  193.1100  174.9010  137.8630 C   0  0  0  0  0  1  0  0  0  0  0  0
  192.0920  175.8090  135.9280 O   0  0  0  0  0  1  0  0  0  0  0  0
  191.0200  176.4400  140.3220 O   0  0  0  0  0  0  0  0  0  0  0  0
  191.2580  176.9410  138.9040 S   0  0  0  0  0  3  0  0  0  0  0  0
  1  2  1  0  0  0  0
  1 12  1  0  0  0  0
  2  9  1  6  0  0  0
  5 21  1  1  0  0  0
  5 19  1  0  0  0  0
  6 10  1  0  0  0  0
  9  5  1  0  0  0  0
 10 18  2  0  0  0  0
 10 20  1  0  0  0  0
 11  4  1  0  0  0  0
 12 14  1  0  0  0  0
 13 14  1  0  0  0  0
 13 25  1  1  0  0  0
 14  3  2  0  0  0  0
 15 16  1  0  0  0  0
 16 13  1  0  0  0  0
 16  7  1  1  0  0  0
 17  6  1  0  0  0  0
 17 15  1  1  0  0  0
 17  2  1  0  0  0  0
 18 11  1  0  0  0  0
 19 20  1  0  0  0  0
 19  8  1  1  0  0  0
 20  4  2  0  0  0  0
 21 22  1  0  0  0  0
 22 23  1  0  0  0  0
 23 24  1  0  0  0  0
 25 30  1  6  0  0  0
 26 25  1  0  0  0  0
 26 27  1  1  0  0  0
 28 26  1  0  0  0  0
 30 29  2  0  0  0  0
M  END
>  <MODEL>
9

>  <REMARK>
 VINA RESULT:      -3.4      2.238      7.482
  Name = 
  6 active torsions:
  status: ('A' for Active; 'I' for Inactive)
    1  A    between atoms: C_2  and  C_28
    2  A    between atoms: C_6  and  C_8
    3  A    between atoms: C_6  and  O_21
    4  A    between atoms: S_9  and  O_21
    5  A    between atoms: C_19  and  C_28
    6  A    between atoms: C_28  and  S_29
                            x       y       z     vdW  Elec       q    Type
                         _______ _______ _______ _____ _____    ______ ____

>  <TORSDO>
F 6

$$$$
