=
 OpenBabel11052414033D

 34 38  0  0  1  0  0  0  0  0999 V2000
  191.1680  176.2070  136.9390 C   0  0  2  0  0  3  0  0  0  0  0  0
  192.9470  176.6870  138.6960 C   0  0  0  0  0  0  0  0  0  0  0  0
  190.5900  177.0860  139.3370 C   0  0  0  0  0  0  0  0  0  0  0  0
  190.4250  178.3250  142.9520 C   0  0  0  0  0  1  0  0  0  0  0  0
  193.8850  176.2260  137.7580 O   0  0  0  0  0  1  0  0  0  0  0  0
  192.4230  177.6740  140.8930 C   0  0  0  0  0  3  0  0  0  0  0  0
  191.5850  176.5650  138.4010 C   0  0  0  0  0  0  0  0  0  0  0  0
  189.9760  177.5600  141.7140 C   0  0  1  0  0  0  0  0  0  0  0  0
  189.2110  177.0890  139.0240 N   0  0  0  0  0  0  0  0  0  0  0  0
  189.6170  176.4270  136.6700 C   0  0  0  0  0  2  0  0  0  0  0  0
  193.3640  177.3100  139.8940 C   0  0  0  0  0  3  0  0  0  0  0  0
  188.8150  178.3780  141.1210 C   0  0  0  0  0  2  0  0  0  0  0  0
  188.1650  177.5340  140.0340 C   0  0  1  0  0  3  0  0  0  0  0  0
  191.0700  177.5390  140.6650 C   0  0  0  0  0  0  0  0  0  0  0  0
  188.7560  176.2220  137.9310 C   0  0  0  0  0  2  0  0  0  0  0  0
  184.5750  178.9600  139.6490 C   0  0  0  0  0  0  0  0  0  0  0  0
  184.3520  178.5950  138.1810 C   0  0  0  0  0  2  0  0  0  0  0  0
  186.9650  178.2180  139.4370 C   0  0  2  0  0  3  0  0  0  0  0  0
  185.5390  178.1660  137.3440 C   0  0  0  0  0  2  0  0  0  0  0  0
  185.8570  178.7920  140.3770 C   0  0  0  0  0  2  0  0  0  0  0  0
  186.5020  177.3820  138.2220 C   0  0  0  0  0  2  0  0  0  0  0  0
  183.5180  179.1800  140.4000 N   0  0  0  0  0  2  0  0  0  0  0  0
  191.5180  175.0950  135.1860 C   0  0  0  0  0  1  0  0  0  0  0  0
  191.6120  174.9450  136.5660 O   0  0  0  0  0  0  0  0  0  0  0  0
  189.4750  176.1250  142.1290 C   0  0  0  0  0  2  0  0  0  0  0  0
  189.0460  176.1500  143.5510 C   0  0  0  0  0  2  0  0  0  0  0  0
  187.6310  176.2220  143.5700 O   0  0  0  0  0  0  0  0  0  0  0  0
  184.7780  178.4450  144.4580 C   0  0  0  0  0  3  0  0  0  0  0  0
  187.0520  177.2410  144.3010 C   0  0  0  0  0  0  0  0  0  0  0  0
  186.0880  178.2750  143.7050 C   0  0  0  0  0  3  0  0  0  0  0  0
  185.7580  178.8560  146.7680 C   0  0  0  0  0  3  0  0  0  0  0  0
  186.9850  178.2280  146.6770 C   0  0  0  0  0  3  0  0  0  0  0  0
  187.4310  177.2540  145.6540 C   0  0  0  0  0  3  0  0  0  0  0  0
  184.6330  178.6930  145.8230 C   0  0  0  0  0  2  0  0  0  0  0  0
  1 24  1  1  0  0  0
  1  7  1  0  0  0  0
  2 11  1  0  0  0  0
  3 14  2  0  0  0  0
  5  2  1  0  0  0  0
  7  2  2  0  0  0  0
  7  3  1  0  0  0  0
  8 25  1  0  0  0  0
  8  4  1  1  0  0  0
  9  3  1  0  0  0  0
  9 13  1  0  0  0  0
 10  1  1  0  0  0  0
 10 15  1  0  0  0  0
 11  6  2  0  0  0  0
 12  8  1  0  0  0  0
 13 12  1  1  0  0  0
 14  6  1  0  0  0  0
 14  8  1  0  0  0  0
 15  9  1  0  0  0  0
 16 20  1  0  0  0  0
 16 22  2  0  0  0  0
 17 16  1  0  0  0  0
 18 21  1  6  0  0  0
 18 13  1  0  0  0  0
 18 20  1  0  0  0  0
 19 17  1  0  0  0  0
 19 21  1  0  0  0  0
 23 24  1  0  0  0  0
 25 26  1  0  0  0  0
 26 27  1  0  0  0  0
 27 29  1  0  0  0  0
 28 34  1  0  0  0  0
 29 33  2  0  0  0  0
 30 29  1  0  0  0  0
 30 28  2  0  0  0  0
 32 31  2  0  0  0  0
 33 32  1  0  0  0  0
 34 31  1  0  0  0  0
M  END
>  <MODEL>
1

>  <REMARK>
 VINA RESULT:      -8.1      0.000      0.000
  Name = 
  6 active torsions:
  status: ('A' for Active; 'I' for Inactive)
    1  A    between atoms: C_1  and  O_19
    2  A    between atoms: O_3  and  C_13
    3  A    between atoms: O_3  and  C_17
    4  A    between atoms: C_12  and  C_28
    5  A    between atoms: C_17  and  C_29
    6  A    between atoms: C_18  and  C_29
                            x       y       z     vdW  Elec       q    Type
                         _______ _______ _______ _____ _____    ______ ____

>  <TORSDO>
F 6

$$$$
=
 OpenBabel11052414033D

 34 38  0  0  1  0  0  0  0  0999 V2000
  187.6850  172.9680  135.5450 C   0  0  2  0  0  3  0  0  0  0  0  0
  189.8280  174.2870  135.1660 C   0  0  0  0  0  0  0  0  0  0  0  0
  187.9810  175.4450  136.3350 C   0  0  0  0  0  0  0  0  0  0  0  0
  189.0560  179.0020  137.2450 C   0  0  0  0  0  1  0  0  0  0  0  0
  190.3550  173.1170  134.5940 O   0  0  0  0  0  1  0  0  0  0  0  0
  190.0530  176.6700  135.7550 C   0  0  0  0  0  3  0  0  0  0  0  0
  188.5730  174.2300  135.7800 C   0  0  0  0  0  0  0  0  0  0  0  0
  188.3540  177.6640  137.4290 C   0  0  1  0  0  0  0  0  0  0  0  0
  186.6680  175.4560  136.8580 N   0  0  0  0  0  0  0  0  0  0  0  0
  186.1810  173.1760  136.0140 C   0  0  0  0  0  2  0  0  0  0  0  0
  190.5260  175.5130  135.0810 C   0  0  0  0  0  3  0  0  0  0  0  0
  186.8700  177.9270  137.1170 C   0  0  0  0  0  2  0  0  0  0  0  0
  186.0850  176.6900  137.5290 C   0  0  1  0  0  3  0  0  0  0  0  0
  188.8380  176.6540  136.4070 C   0  0  0  0  0  0  0  0  0  0  0  0
  186.0530  174.1650  137.1890 C   0  0  0  0  0  2  0  0  0  0  0  0
  182.6910  177.5510  135.8520 C   0  0  0  0  0  0  0  0  0  0  0  0
  182.0050  178.1850  137.0630 C   0  0  0  0  0  2  0  0  0  0  0  0
  184.6060  176.8740  137.3320 C   0  0  2  0  0  3  0  0  0  0  0  0
  182.6230  178.0040  138.4340 C   0  0  0  0  0  2  0  0  0  0  0  0
  184.0140  176.8790  135.8860 C   0  0  0  0  0  2  0  0  0  0  0  0
  184.1380  177.9910  138.2930 C   0  0  0  0  0  2  0  0  0  0  0  0
  182.2320  177.8450  134.6550 N   0  0  0  0  0  2  0  0  0  0  0  0
  187.7120  170.8910  135.1910 C   0  0  0  0  0  1  0  0  0  0  0  0
  188.2650  171.8180  136.0690 O   0  0  0  0  0  0  0  0  0  0  0  0
  188.5190  177.1780  138.9180 C   0  0  0  0  0  2  0  0  0  0  0  0
  188.7030  178.3600  139.8000 C   0  0  0  0  0  2  0  0  0  0  0  0
  189.2350  177.8980  141.0290 O   0  0  0  0  0  0  0  0  0  0  0  0
  188.3920  177.0360  144.5530 C   0  0  0  0  0  3  0  0  0  0  0  0
  188.3420  177.5800  142.0330 C   0  0  0  0  0  0  0  0  0  0  0  0
  188.6290  176.5480  143.1330 C   0  0  0  0  0  3  0  0  0  0  0  0
  186.0140  177.8780  144.2380 C   0  0  0  0  0  3  0  0  0  0  0  0
  185.9810  178.1500  142.8850 C   0  0  0  0  0  3  0  0  0  0  0  0
  187.1290  178.2850  141.9580 C   0  0  0  0  0  3  0  0  0  0  0  0
  187.2320  177.6370  145.0410 C   0  0  0  0  0  2  0  0  0  0  0  0
  1  7  1  0  0  0  0
  1 10  1  0  0  0  0
  1 24  1  1  0  0  0
  2  7  1  0  0  0  0
  3 14  1  0  0  0  0
  3  9  1  0  0  0  0
  5  2  1  0  0  0  0
  6 14  2  0  0  0  0
  7  3  2  0  0  0  0
  8  4  1  6  0  0  0
  8 25  1  0  0  0  0
  9 15  1  0  0  0  0
  9 13  1  0  0  0  0
 10 15  1  0  0  0  0
 11  2  2  0  0  0  0
 11  6  1  0  0  0  0
 12  8  1  0  0  0  0
 13 12  1  6  0  0  0
 14  8  1  0  0  0  0
 16 20  1  0  0  0  0
 16 17  1  0  0  0  0
 17 19  1  0  0  0  0
 18 20  1  6  0  0  0
 18 13  1  0  0  0  0
 18 21  1  0  0  0  0
 21 19  1  0  0  0  0
 22 16  2  0  0  0  0
 23 24  1  0  0  0  0
 25 26  1  0  0  0  0
 26 27  1  0  0  0  0
 27 29  1  0  0  0  0
 28 34  1  0  0  0  0
 29 30  1  0  0  0  0
 30 28  2  0  0  0  0
 31 34  1  0  0  0  0
 32 31  2  0  0  0  0
 33 29  2  0  0  0  0
 33 32  1  0  0  0  0
M  END
>  <MODEL>
2

>  <REMARK>
 VINA RESULT:      -7.7      2.671      4.353
  Name = 
  6 active torsions:
  status: ('A' for Active; 'I' for Inactive)
    1  A    between atoms: C_1  and  O_19
    2  A    between atoms: O_3  and  C_13
    3  A    between atoms: O_3  and  C_17
    4  A    between atoms: C_12  and  C_28
    5  A    between atoms: C_17  and  C_29
    6  A    between atoms: C_18  and  C_29
                            x       y       z     vdW  Elec       q    Type
                         _______ _______ _______ _____ _____    ______ ____

>  <TORSDO>
F 6

$$$$
=
 OpenBabel11052414033D

 34 38  0  0  1  0  0  0  0  0999 V2000
  187.3090  177.0690  137.2640 C   0  0  2  0  0  3  0  0  0  0  0  0
  185.0500  176.5180  136.2290 C   0  0  0  0  0  0  0  0  0  0  0  0
  185.0390  177.6610  138.4230 C   0  0  0  0  0  0  0  0  0  0  0  0
  181.4330  178.2660  139.5480 C   0  0  0  0  0  1  0  0  0  0  0  0
  185.7640  176.0170  135.1280 O   0  0  0  0  0  1  0  0  0  0  0  0
  182.9140  176.9210  137.3920 C   0  0  0  0  0  3  0  0  0  0  0  0
  185.7520  177.1780  137.2430 C   0  0  0  0  0  0  0  0  0  0  0  0
  182.9150  178.5740  139.3780 C   0  0  1  0  0  0  0  0  0  0  0  0
  185.7250  178.2270  139.5220 N   0  0  0  0  0  0  0  0  0  0  0  0
  187.9440  177.5730  138.6310 C   0  0  0  0  0  2  0  0  0  0  0  0
  183.6560  176.3190  136.3410 C   0  0  0  0  0  3  0  0  0  0  0  0
  183.5550  178.2950  140.7480 C   0  0  0  0  0  2  0  0  0  0  0  0
  184.9820  178.8240  140.7070 C   0  0  1  0  0  3  0  0  0  0  0  0
  183.5560  177.6130  138.3960 C   0  0  0  0  0  0  0  0  0  0  0  0
  187.1060  178.6750  139.3080 C   0  0  0  0  0  2  0  0  0  0  0  0
  187.2280  177.3580  143.5130 C   0  0  0  0  0  0  0  0  0  0  0  0
  186.3170  177.6620  144.7030 C   0  0  0  0  0  2  0  0  0  0  0  0
  185.6770  178.6650  142.0310 C   0  0  2  0  0  3  0  0  0  0  0  0
  185.1500  178.6090  144.5090 C   0  0  0  0  0  2  0  0  0  0  0  0
  186.9800  177.8090  142.1210 C   0  0  0  0  0  2  0  0  0  0  0  0
  184.5930  178.4210  143.1060 C   0  0  0  0  0  2  0  0  0  0  0  0
  188.1400  176.4200  143.6550 N   0  0  0  0  0  2  0  0  0  0  0  0
  189.2240  177.4340  136.4650 C   0  0  0  0  0  1  0  0  0  0  0  0
  187.8880  177.6560  136.1450 O   0  0  0  0  0  0  0  0  0  0  0  0
  183.1010  180.0880  138.9870 C   0  0  0  0  0  2  0  0  0  0  0  0
  181.8170  180.6180  138.4590 C   0  0  0  0  0  2  0  0  0  0  0  0
  181.9350  182.0280  138.3810 O   0  0  0  0  0  0  0  0  0  0  0  0
  181.0950  184.9070  136.1740 C   0  0  0  0  0  3  0  0  0  0  0  0
  181.1140  182.6910  137.4910 C   0  0  0  0  0  0  0  0  0  0  0  0
  180.8880  184.2090  137.5090 C   0  0  0  0  0  2  0  0  0  0  0  0
  179.5530  183.4440  134.7770 C   0  0  0  0  0  3  0  0  0  0  0  0
  179.5480  182.2640  135.4930 C   0  0  0  0  0  3  0  0  0  0  0  0
  180.4880  181.8460  136.5590 C   0  0  0  0  0  3  0  0  0  0  0  0
  180.5080  184.5590  134.9570 C   0  0  0  0  0  3  0  0  0  0  0  0
  1 24  1  6  0  0  0
  1 10  1  0  0  0  0
  2 11  2  0  0  0  0
  2  7  1  0  0  0  0
  3  9  1  0  0  0  0
  5  2  1  0  0  0  0
  6 14  2  0  0  0  0
  7  1  1  0  0  0  0
  7  3  2  0  0  0  0
  8  4  1  1  0  0  0
  8 12  1  0  0  0  0
  9 13  1  0  0  0  0
 10 15  1  0  0  0  0
 11  6  1  0  0  0  0
 13 12  1  1  0  0  0
 13 18  1  0  0  0  0
 14  3  1  0  0  0  0
 14  8  1  0  0  0  0
 15  9  1  0  0  0  0
 16 22  2  0  0  0  0
 16 17  1  0  0  0  0
 18 20  1  6  0  0  0
 18 21  1  0  0  0  0
 19 17  1  0  0  0  0
 20 16  1  0  0  0  0
 21 19  1  0  0  0  0
 24 23  1  0  0  0  0
 25  8  1  0  0  0  0
 26 25  1  0  0  0  0
 27 26  1  0  0  0  0
 28 30  1  0  0  0  0
 29 30  1  0  0  0  0
 29 27  1  0  0  0  0
 31 34  1  0  0  0  0
 31 32  2  0  0  0  0
 32 33  1  0  0  0  0
 33 29  2  0  0  0  0
 34 28  2  0  0  0  0
M  END
>  <MODEL>
3

>  <REMARK>
 VINA RESULT:      -7.4      4.082      8.176
  Name = 
  6 active torsions:
  status: ('A' for Active; 'I' for Inactive)
    1  A    between atoms: C_1  and  O_19
    2  A    between atoms: O_3  and  C_13
    3  A    between atoms: O_3  and  C_17
    4  A    between atoms: C_12  and  C_28
    5  A    between atoms: C_17  and  C_29
    6  A    between atoms: C_18  and  C_29
                            x       y       z     vdW  Elec       q    Type
                         _______ _______ _______ _____ _____    ______ ____

>  <TORSDO>
F 6

$$$$
=
 OpenBabel11052414033D

 34 38  0  0  1  0  0  0  0  0999 V2000
  188.4830  178.2540  139.4860 C   0  0  2  0  0  3  0  0  0  0  0  0
  186.6670  177.8530  137.7480 C   0  0  0  0  0  0  0  0  0  0  0  0
  188.6790  176.4170  137.6310 C   0  0  0  0  0  0  0  0  0  0  0  0
  188.3320  173.9370  134.7390 C   0  0  0  0  0  1  0  0  0  0  0  0
  185.9280  178.8510  138.4030 O   0  0  0  0  0  1  0  0  0  0  0  0
  186.9200  176.2430  135.8980 C   0  0  0  0  0  3  0  0  0  0  0  0
  187.8660  177.4170  138.3210 C   0  0  0  0  0  0  0  0  0  0  0  0
  188.7390  174.4220  136.1240 C   0  0  1  0  0  0  0  0  0  0  0  0
  189.9510  176.0370  138.1150 N   0  0  0  0  0  0  0  0  0  0  0  0
  189.9830  177.8450  139.8110 C   0  0  0  0  0  2  0  0  0  0  0  0
  186.2380  177.3300  136.5070 C   0  0  0  0  0  3  0  0  0  0  0  0
  190.2530  174.6830  136.0430 C   0  0  0  0  0  2  0  0  0  0  0  0
  190.7560  174.9250  137.4590 C   0  0  1  0  0  3  0  0  0  0  0  0
  188.0870  175.7520  136.4440 C   0  0  0  0  0  0  0  0  0  0  0  0
  190.2780  176.3630  139.5080 C   0  0  0  0  0  2  0  0  0  0  0  0
  194.3170  176.1540  136.5220 C   0  0  0  0  0  0  0  0  0  0  0  0
  195.0770  174.8600  136.8100 C   0  0  0  0  0  2  0  0  0  0  0  0
  192.2470  175.1190  137.4990 C   0  0  2  0  0  3  0  0  0  0  0  0
  194.3830  173.7590  137.5870 C   0  0  0  0  0  2  0  0  0  0  0  0
  192.8800  176.3760  136.8200 C   0  0  0  0  0  2  0  0  0  0  0  0
  192.9080  173.7510  137.2150 C   0  0  0  0  0  2  0  0  0  0  0  0
  194.8740  177.0340  135.7180 N   0  0  0  0  0  2  0  0  0  0  0  0
  188.6200  178.6250  141.5550 C   0  0  0  0  0  1  0  0  0  0  0  0
  187.6650  178.2630  140.6090 O   0  0  0  0  0  0  0  0  0  0  0  0
  188.4350  173.3010  137.1890 C   0  0  0  0  0  2  0  0  0  0  0  0
  187.1390  172.6540  136.8610 C   0  0  0  0  0  2  0  0  0  0  0  0
  186.2130  173.0160  137.8700 O   0  0  0  0  0  0  0  0  0  0  0  0
  183.3800  174.8740  136.3240 C   0  0  0  0  0  3  0  0  0  0  0  0
  184.8880  173.1490  137.5060 C   0  0  0  0  0  0  0  0  0  0  0  0
  184.1080  174.4680  137.5960 C   0  0  0  0  0  2  0  0  0  0  0  0
  182.1040  172.7070  135.9480 C   0  0  0  0  0  3  0  0  0  0  0  0
  182.9020  171.7860  136.5980 C   0  0  0  0  0  3  0  0  0  0  0  0
  184.3040  171.9560  137.0470 C   0  0  0  0  0  3  0  0  0  0  0  0
  182.4970  174.0860  135.5860 C   0  0  0  0  0  3  0  0  0  0  0  0
  1 10  1  0  0  0  0
  1 24  1  1  0  0  0
  2  7  1  0  0  0  0
  2  5  1  0  0  0  0
  3  9  1  0  0  0  0
  3  7  2  0  0  0  0
  6 14  2  0  0  0  0
  6 11  1  0  0  0  0
  7  1  1  0  0  0  0
  8  4  1  6  0  0  0
  8 14  1  0  0  0  0
  8 25  1  0  0  0  0
  9 15  1  0  0  0  0
 11  2  2  0  0  0  0
 12  8  1  0  0  0  0
 13 12  1  6  0  0  0
 13 18  1  0  0  0  0
 13  9  1  0  0  0  0
 14  3  1  0  0  0  0
 15 10  1  0  0  0  0
 16 17  1  0  0  0  0
 16 20  1  0  0  0  0
 17 19  1  0  0  0  0
 18 20  1  6  0  0  0
 21 18  1  0  0  0  0
 21 19  1  0  0  0  0
 22 16  2  0  0  0  0
 24 23  1  0  0  0  0
 26 25  1  0  0  0  0
 26 27  1  0  0  0  0
 28 30  1  0  0  0  0
 29 30  1  0  0  0  0
 29 27  1  0  0  0  0
 31 32  2  0  0  0  0
 32 33  1  0  0  0  0
 33 29  2  0  0  0  0
 34 31  1  0  0  0  0
 34 28  2  0  0  0  0
M  END
>  <MODEL>
4

>  <REMARK>
 VINA RESULT:      -7.2      3.616      8.034
  Name = 
  6 active torsions:
  status: ('A' for Active; 'I' for Inactive)
    1  A    between atoms: C_1  and  O_19
    2  A    between atoms: O_3  and  C_13
    3  A    between atoms: O_3  and  C_17
    4  A    between atoms: C_12  and  C_28
    5  A    between atoms: C_17  and  C_29
    6  A    between atoms: C_18  and  C_29
                            x       y       z     vdW  Elec       q    Type
                         _______ _______ _______ _____ _____    ______ ____

>  <TORSDO>
F 6

$$$$
=
 OpenBabel11052414033D

 34 38  0  0  1  0  0  0  0  0999 V2000
  183.0280  174.4100  136.7970 C   0  0  2  0  0  3  0  0  0  0  0  0
  185.0150  174.6960  135.2320 C   0  0  0  0  0  0  0  0  0  0  0  0
  184.7430  176.3740  137.0300 C   0  0  0  0  0  0  0  0  0  0  0  0
  187.5750  178.9380  136.8440 C   0  0  0  0  0  1  0  0  0  0  0  0
  184.6000  173.5040  134.6140 O   0  0  0  0  0  1  0  0  0  0  0  0
  186.5340  176.6340  135.3410 C   0  0  0  0  0  3  0  0  0  0  0  0
  184.3660  175.1110  136.3990 C   0  0  0  0  0  0  0  0  0  0  0  0
  186.5530  178.0310  137.5150 C   0  0  1  0  0  0  0  0  0  0  0  0
  184.0350  176.8860  138.1410 N   0  0  0  0  0  0  0  0  0  0  0  0
  182.2390  175.1890  137.9350 C   0  0  0  0  0  2  0  0  0  0  0  0
  186.0340  175.4910  134.6620 C   0  0  0  0  0  3  0  0  0  0  0  0
  185.4120  178.9580  137.9690 C   0  0  0  0  0  2  0  0  0  0  0  0
  184.4860  178.1460  138.8640 C   0  0  1  0  0  3  0  0  0  0  0  0
  185.9520  177.0620  136.5150 C   0  0  0  0  0  0  0  0  0  0  0  0
  183.1720  175.9630  138.8870 C   0  0  0  0  0  2  0  0  0  0  0  0
  181.4030  179.2090  140.9690 C   0  0  0  0  0  0  0  0  0  0  0  0
  180.6800  180.0260  139.8980 C   0  0  0  0  0  2  0  0  0  0  0  0
  183.3700  178.9850  139.4240 C   0  0  2  0  0  3  0  0  0  0  0  0
  181.4290  180.4110  138.6390 C   0  0  0  0  0  2  0  0  0  0  0  0
  182.7590  178.6270  140.8160 C   0  0  0  0  0  2  0  0  0  0  0  0
  182.3840  179.2860  138.2720 C   0  0  0  0  0  2  0  0  0  0  0  0
  180.6980  178.7510  141.9810 N   0  0  0  0  0  2  0  0  0  0  0  0
  181.9280  172.6140  136.7910 C   0  0  0  0  0  1  0  0  0  0  0  0
  183.2110  173.0630  137.0860 O   0  0  0  0  0  0  0  0  0  0  0  0
  187.2080  177.3220  138.7600 C   0  0  0  0  0  2  0  0  0  0  0  0
  188.4410  178.0550  139.1460 C   0  0  0  0  0  2  0  0  0  0  0  0
  188.1210  178.8760  140.2560 O   0  0  0  0  0  0  0  0  0  0  0  0
  188.7050  177.3510  143.6030 C   0  0  0  0  0  3  0  0  0  0  0  0
  187.6920  178.2510  141.4100 C   0  0  0  0  0  0  0  0  0  0  0  0
  188.4730  177.1350  142.1160 C   0  0  0  0  0  3  0  0  0  0  0  0
  186.2900  177.7820  144.2710 C   0  0  0  0  0  3  0  0  0  0  0  0
  185.7430  178.2450  143.0910 C   0  0  0  0  0  3  0  0  0  0  0  0
  186.4590  178.7270  141.8870 C   0  0  0  0  0  3  0  0  0  0  0  0
  187.7340  177.6490  144.5590 C   0  0  0  0  0  2  0  0  0  0  0  0
  1 24  1  1  0  0  0
  1 10  1  0  0  0  0
  2  7  1  0  0  0  0
  3  9  1  0  0  0  0
  5  2  1  0  0  0  0
  6 14  2  0  0  0  0
  7  1  1  0  0  0  0
  7  3  2  0  0  0  0
  8  4  1  6  0  0  0
  8 12  1  0  0  0  0
  8 25  1  0  0  0  0
  9 13  1  0  0  0  0
  9 15  1  0  0  0  0
 10 15  1  0  0  0  0
 11  2  2  0  0  0  0
 11  6  1  0  0  0  0
 13 12  1  6  0  0  0
 13 18  1  0  0  0  0
 14  3  1  0  0  0  0
 14  8  1  0  0  0  0
 16 22  2  0  0  0  0
 17 16  1  0  0  0  0
 18 21  1  6  0  0  0
 18 20  1  0  0  0  0
 19 17  1  0  0  0  0
 20 16  1  0  0  0  0
 21 19  1  0  0  0  0
 23 24  1  0  0  0  0
 25 26  1  0  0  0  0
 26 27  1  0  0  0  0
 27 29  1  0  0  0  0
 28 34  1  0  0  0  0
 29 33  2  0  0  0  0
 29 30  1  0  0  0  0
 30 28  2  0  0  0  0
 31 34  1  0  0  0  0
 32 31  2  0  0  0  0
 33 32  1  0  0  0  0
M  END
>  <MODEL>
5

>  <REMARK>
 VINA RESULT:      -7.2      3.350      5.956
  Name = 
  6 active torsions:
  status: ('A' for Active; 'I' for Inactive)
    1  A    between atoms: C_1  and  O_19
    2  A    between atoms: O_3  and  C_13
    3  A    between atoms: O_3  and  C_17
    4  A    between atoms: C_12  and  C_28
    5  A    between atoms: C_17  and  C_29
    6  A    between atoms: C_18  and  C_29
                            x       y       z     vdW  Elec       q    Type
                         _______ _______ _______ _____ _____    ______ ____

>  <TORSDO>
F 6

$$$$
=
 OpenBabel11052414033D

 34 38  0  0  1  0  0  0  0  0999 V2000
  186.0430  174.4230  136.5760 C   0  0  2  0  0  3  0  0  0  0  0  0
  187.0580  176.6990  137.0960 C   0  0  0  0  0  0  0  0  0  0  0  0
  184.6530  176.3940  137.5910 C   0  0  0  0  0  0  0  0  0  0  0  0
  183.2200  179.6150  139.0770 C   0  0  0  0  0  1  0  0  0  0  0  0
  188.2850  176.1620  136.6750 O   0  0  0  0  0  1  0  0  0  0  0  0
  185.7170  178.6090  137.8930 C   0  0  0  0  0  3  0  0  0  0  0  0
  185.9520  175.8490  137.2060 C   0  0  0  0  0  0  0  0  0  0  0  0
  183.3900  178.1120  138.8990 C   0  0  1  0  0  0  0  0  0  0  0  0
  183.4880  175.5940  137.6000 N   0  0  0  0  0  0  0  0  0  0  0  0
  184.6320  173.7010  136.4790 C   0  0  0  0  0  2  0  0  0  0  0  0
  186.9230  178.0810  137.3580 C   0  0  0  0  0  3  0  0  0  0  0  0
  182.1660  177.6510  138.0880 C   0  0  0  0  0  2  0  0  0  0  0  0
  182.1540  176.1290  138.0970 C   0  0  1  0  0  3  0  0  0  0  0  0
  184.6110  177.8030  138.0550 C   0  0  0  0  0  0  0  0  0  0  0  0
  183.6600  174.1360  137.5930 C   0  0  0  0  0  2  0  0  0  0  0  0
  179.4560  173.6210  136.8730 C   0  0  0  0  0  0  0  0  0  0  0  0
  179.3290  174.1230  135.4340 C   0  0  0  0  0  2  0  0  0  0  0  0
  180.9490  175.5740  137.3890 C   0  0  2  0  0  3  0  0  0  0  0  0
  179.9400  175.4600  135.0680 C   0  0  0  0  0  2  0  0  0  0  0  0
  180.2640  174.2780  137.9300 C   0  0  0  0  0  2  0  0  0  0  0  0
  181.2180  175.6520  135.8690 C   0  0  0  0  0  2  0  0  0  0  0  0
  179.0580  172.3950  137.1390 N   0  0  0  0  0  2  0  0  0  0  0  0
  187.2000  172.7080  136.1790 C   0  0  0  0  0  1  0  0  0  0  0  0
  187.0140  173.6420  137.1920 O   0  0  0  0  0  0  0  0  0  0  0  0
  183.4060  177.4090  140.3080 C   0  0  0  0  0  2  0  0  0  0  0  0
  183.6920  178.4230  141.3560 C   0  0  0  0  0  2  0  0  0  0  0  0
  185.0230  178.2170  141.7970 O   0  0  0  0  0  0  0  0  0  0  0  0
  184.0250  178.9700  145.3050 C   0  0  0  0  0  3  0  0  0  0  0  0
  185.3070  178.4870  143.1210 C   0  0  0  0  0  0  0  0  0  0  0  0
  184.5260  179.4990  143.9710 C   0  0  0  0  0  3  0  0  0  0  0  0
  186.2400  178.0730  146.1760 C   0  0  0  0  0  3  0  0  0  0  0  0
  186.9330  177.8330  145.0060 C   0  0  0  0  0  3  0  0  0  0  0  0
  186.3910  177.7520  143.6300 C   0  0  0  0  0  3  0  0  0  0  0  0
  184.7870  178.3260  146.2810 C   0  0  0  0  0  2  0  0  0  0  0  0
  1 24  1  1  0  0  0
  1  7  1  0  0  0  0
  2  7  2  0  0  0  0
  2 11  1  0  0  0  0
  3  9  1  0  0  0  0
  3 14  2  0  0  0  0
  5  2  1  0  0  0  0
  6 14  1  0  0  0  0
  7  3  1  0  0  0  0
  8  4  1  1  0  0  0
  8 25  1  0  0  0  0
  9 13  1  0  0  0  0
 10  1  1  0  0  0  0
 10 15  1  0  0  0  0
 11  6  2  0  0  0  0
 12  8  1  0  0  0  0
 13 12  1  6  0  0  0
 14  8  1  0  0  0  0
 15  9  1  0  0  0  0
 16 22  2  0  0  0  0
 16 20  1  0  0  0  0
 17 16  1  0  0  0  0
 18 21  1  6  0  0  0
 18 20  1  0  0  0  0
 18 13  1  0  0  0  0
 19 17  1  0  0  0  0
 19 21  1  0  0  0  0
 23 24  1  0  0  0  0
 25 26  1  0  0  0  0
 26 27  1  0  0  0  0
 27 29  1  0  0  0  0
 28 34  1  0  0  0  0
 29 33  2  0  0  0  0
 29 30  1  0  0  0  0
 30 28  2  0  0  0  0
 31 34  1  0  0  0  0
 32 31  2  0  0  0  0
 33 32  1  0  0  0  0
M  END
>  <MODEL>
6

>  <REMARK>
 VINA RESULT:      -7.1      3.778      5.894
  Name = 
  6 active torsions:
  status: ('A' for Active; 'I' for Inactive)
    1  A    between atoms: C_1  and  O_19
    2  A    between atoms: O_3  and  C_13
    3  A    between atoms: O_3  and  C_17
    4  A    between atoms: C_12  and  C_28
    5  A    between atoms: C_17  and  C_29
    6  A    between atoms: C_18  and  C_29
                            x       y       z     vdW  Elec       q    Type
                         _______ _______ _______ _____ _____    ______ ____

>  <TORSDO>
F 6

$$$$
=
 OpenBabel11052414033D

 34 38  0  0  1  0  0  0  0  0999 V2000
  186.2750  178.4140  140.1980 C   0  0  2  0  0  3  0  0  0  0  0  0
  186.2480  177.5100  142.5780 C   0  0  0  0  0  0  0  0  0  0  0  0
  188.3880  177.3750  141.3420 C   0  0  0  0  0  0  0  0  0  0  0  0
  191.0690  175.7950  143.5660 C   0  0  0  0  0  1  0  0  0  0  0  0
  184.9110  177.9330  142.6410 O   0  0  0  0  0  1  0  0  0  0  0  0
  188.1860  176.3770  143.5980 C   0  0  0  0  0  3  0  0  0  0  0  0
  187.0100  177.8490  141.4550 C   0  0  0  0  0  0  0  0  0  0  0  0
  190.5030  176.7410  142.5150 C   0  0  1  0  0  0  0  0  0  0  0  0
  189.1520  177.5950  140.1730 N   0  0  0  0  0  0  0  0  0  0  0  0
  187.1970  178.4400  138.9050 C   0  0  0  0  0  2  0  0  0  0  0  0
  186.8050  176.7120  143.6020 C   0  0  0  0  0  3  0  0  0  0  0  0
  190.9360  176.1590  141.1580 C   0  0  0  0  0  2  0  0  0  0  0  0
  190.6170  177.1940  140.0900 C   0  0  1  0  0  3  0  0  0  0  0  0
  188.9870  176.7220  142.5310 C   0  0  0  0  0  0  0  0  0  0  0  0
  188.6900  178.6280  139.2380 C   0  0  0  0  0  2  0  0  0  0  0  0
  191.1070  174.9980  136.9260 C   0  0  0  0  0  0  0  0  0  0  0  0
  192.5700  175.3450  136.6450 C   0  0  0  0  0  2  0  0  0  0  0  0
  191.0710  176.7500  138.7260 C   0  0  2  0  0  3  0  0  0  0  0  0
  193.1940  176.5240  137.3630 C   0  0  0  0  0  2  0  0  0  0  0  0
  190.2700  175.6430  137.9690 C   0  0  0  0  0  2  0  0  0  0  0  0
  192.6100  176.6120  138.7640 C   0  0  0  0  0  2  0  0  0  0  0  0
  190.6250  173.8850  136.4170 N   0  0  0  0  0  2  0  0  0  0  0  0
  184.5020  179.4450  139.7170 C   0  0  0  0  0  1  0  0  0  0  0  0
  185.6650  179.6350  140.4580 O   0  0  0  0  0  0  0  0  0  0  0  0
  191.1150  178.1790  142.7120 C   0  0  0  0  0  2  0  0  0  0  0  0
  191.3570  178.4140  144.1590 C   0  0  0  0  0  2  0  0  0  0  0  0
  190.1860  179.0020  144.6980 O   0  0  0  0  0  0  0  0  0  0  0  0
  190.0970  177.7170  148.1920 C   0  0  0  0  0  3  0  0  0  0  0  0
  189.5700  178.3550  145.7500 C   0  0  0  0  0  0  0  0  0  0  0  0
  190.3020  177.4130  146.7160 C   0  0  0  0  0  3  0  0  0  0  0  0
  187.5540  177.7520  148.1880 C   0  0  0  0  0  3  0  0  0  0  0  0
  187.2720  178.0740  146.8750 C   0  0  0  0  0  3  0  0  0  0  0  0
  188.1970  178.6280  145.8580 C   0  0  0  0  0  3  0  0  0  0  0  0
  188.8740  177.8780  148.8430 C   0  0  0  0  0  2  0  0  0  0  0  0
  1 24  1  1  0  0  0
  1  7  1  0  0  0  0
  2  5  1  0  0  0  0
  2 11  1  0  0  0  0
  3  7  1  0  0  0  0
  3 14  2  0  0  0  0
  6 11  2  0  0  0  0
  7  2  2  0  0  0  0
  8 14  1  0  0  0  0
  8 25  1  0  0  0  0
  8  4  1  1  0  0  0
  9  3  1  0  0  0  0
 10 15  1  0  0  0  0
 10  1  1  0  0  0  0
 12  8  1  0  0  0  0
 13  9  1  0  0  0  0
 13 12  1  1  0  0  0
 14  6  1  0  0  0  0
 15  9  1  0  0  0  0
 16 20  1  0  0  0  0
 17 16  1  0  0  0  0
 17 19  1  0  0  0  0
 18 20  1  1  0  0  0
 18 21  1  0  0  0  0
 18 13  1  0  0  0  0
 19 21  1  0  0  0  0
 22 16  2  0  0  0  0
 23 24  1  0  0  0  0
 25 26  1  0  0  0  0
 26 27  1  0  0  0  0
 27 29  1  0  0  0  0
 28 34  1  0  0  0  0
 29 33  2  0  0  0  0
 29 30  1  0  0  0  0
 30 28  2  0  0  0  0
 31 34  1  0  0  0  0
 32 31  2  0  0  0  0
 33 32  1  0  0  0  0
M  END
>  <MODEL>
7

>  <REMARK>
 VINA RESULT:      -7.1      2.704      5.677
  Name = 
  6 active torsions:
  status: ('A' for Active; 'I' for Inactive)
    1  A    between atoms: C_1  and  O_19
    2  A    between atoms: O_3  and  C_13
    3  A    between atoms: O_3  and  C_17
    4  A    between atoms: C_12  and  C_28
    5  A    between atoms: C_17  and  C_29
    6  A    between atoms: C_18  and  C_29
                            x       y       z     vdW  Elec       q    Type
                         _______ _______ _______ _____ _____    ______ ____

>  <TORSDO>
F 6

$$$$
=
 OpenBabel11052414033D

 34 38  0  0  1  0  0  0  0  0999 V2000
  179.1070  178.6730  141.3920 C   0  0  2  0  0  3  0  0  0  0  0  0
  179.9140  176.3440  140.7590 C   0  0  0  0  0  0  0  0  0  0  0  0
  180.7070  178.2300  139.3680 C   0  0  0  0  0  0  0  0  0  0  0  0
  183.0210  176.9250  136.6160 C   0  0  0  0  0  1  0  0  0  0  0  0
  179.2060  175.8790  141.8790 O   0  0  0  0  0  1  0  0  0  0  0  0
  181.2820  175.9020  138.7560 C   0  0  0  0  0  3  0  0  0  0  0  0
  180.0210  177.7230  140.5540 C   0  0  0  0  0  0  0  0  0  0  0  0
  182.5170  177.8970  137.6750 C   0  0  1  0  0  0  0  0  0  0  0  0
  180.7350  179.6100  139.0630 N   0  0  0  0  0  0  0  0  0  0  0  0
  179.0880  180.1600  140.8330 C   0  0  0  0  0  2  0  0  0  0  0  0
  180.4690  175.4400  139.8250 C   0  0  0  0  0  3  0  0  0  0  0  0
  181.8310  179.0350  136.8990 C   0  0  0  0  0  2  0  0  0  0  0  0
  181.5330  180.1530  137.8880 C   0  0  1  0  0  3  0  0  0  0  0  0
  181.4480  177.2520  138.5340 C   0  0  0  0  0  0  0  0  0  0  0  0
  180.4050  180.5550  140.1370 C   0  0  0  0  0  2  0  0  0  0  0  0
  180.0850  183.7140  137.3500 C   0  0  0  0  0  0  0  0  0  0  0  0
  178.9450  183.3440  136.4000 C   0  0  0  0  0  2  0  0  0  0  0  0
  180.9240  181.3500  137.2120 C   0  0  2  0  0  3  0  0  0  0  0  0
  178.9330  181.9660  135.7720 C   0  0  0  0  0  2  0  0  0  0  0  0
  181.1260  182.7710  137.8290 C   0  0  0  0  0  2  0  0  0  0  0  0
  179.4930  180.9650  136.7700 C   0  0  0  0  0  2  0  0  0  0  0  0
  180.0010  184.8520  138.0060 N   0  0  0  0  0  2  0  0  0  0  0  0
  179.0910  179.9210  143.0890 C   0  0  0  0  0  1  0  0  0  0  0  0
  179.3930  178.6060  142.7500 O   0  0  0  0  0  0  0  0  0  0  0  0
  183.7340  178.4580  138.5020 C   0  0  0  0  0  2  0  0  0  0  0  0
  183.7720  177.7910  139.8290 C   0  0  0  0  0  2  0  0  0  0  0  0
  184.5870  178.5770  140.6810 O   0  0  0  0  0  0  0  0  0  0  0  0
  185.7940  178.7250  144.2000 C   0  0  0  0  0  3  0  0  0  0  0  0
  184.4130  178.4370  142.0430 C   0  0  0  0  0  0  0  0  0  0  0  0
  185.4830  177.8670  142.9840 C   0  0  0  0  0  3  0  0  0  0  0  0
  183.4130  178.9920  145.0530 C   0  0  0  0  0  3  0  0  0  0  0  0
  182.6730  178.8180  143.9010 C   0  0  0  0  0  3  0  0  0  0  0  0
  183.1520  178.8570  142.5000 C   0  0  0  0  0  3  0  0  0  0  0  0
  184.8710  179.2340  145.1140 C   0  0  0  0  0  2  0  0  0  0  0  0
  1 24  1  1  0  0  0
  2  5  1  0  0  0  0
  3  7  2  0  0  0  0
  6 11  1  0  0  0  0
  7  2  1  0  0  0  0
  7  1  1  0  0  0  0
  8  4  1  6  0  0  0
  8 25  1  0  0  0  0
  8 14  1  0  0  0  0
  9  3  1  0  0  0  0
  9 15  1  0  0  0  0
 10  1  1  0  0  0  0
 11  2  2  0  0  0  0
 12  8  1  0  0  0  0
 13 12  1  6  0  0  0
 13  9  1  0  0  0  0
 14  6  2  0  0  0  0
 14  3  1  0  0  0  0
 15 10  1  0  0  0  0
 16 20  1  0  0  0  0
 16 22  2  0  0  0  0
 17 16  1  0  0  0  0
 18 21  1  1  0  0  0
 18 20  1  0  0  0  0
 18 13  1  0  0  0  0
 19 17  1  0  0  0  0
 19 21  1  0  0  0  0
 24 23  1  0  0  0  0
 25 26  1  0  0  0  0
 26 27  1  0  0  0  0
 27 29  1  0  0  0  0
 28 34  1  0  0  0  0
 29 33  2  0  0  0  0
 29 30  1  0  0  0  0
 30 28  2  0  0  0  0
 31 34  1  0  0  0  0
 32 31  2  0  0  0  0
 33 32  1  0  0  0  0
M  END
>  <MODEL>
8

>  <REMARK>
 VINA RESULT:      -6.9      5.447      9.135
  Name = 
  6 active torsions:
  status: ('A' for Active; 'I' for Inactive)
    1  A    between atoms: C_1  and  O_19
    2  A    between atoms: O_3  and  C_13
    3  A    between atoms: O_3  and  C_17
    4  A    between atoms: C_12  and  C_28
    5  A    between atoms: C_17  and  C_29
    6  A    between atoms: C_18  and  C_29
                            x       y       z     vdW  Elec       q    Type
                         _______ _______ _______ _____ _____    ______ ____

>  <TORSDO>
F 6

$$$$
=
 OpenBabel11052414033D

 34 38  0  0  1  0  0  0  0  0999 V2000
  194.3770  174.8470  137.9720 C   0  0  2  0  0  3  0  0  0  0  0  0
  193.2900  173.2330  136.3310 C   0  0  0  0  0  0  0  0  0  0  0  0
  191.8350  174.9530  137.3560 C   0  0  0  0  0  0  0  0  0  0  0  0
  188.2680  174.5890  136.0240 C   0  0  0  0  0  1  0  0  0  0  0  0
  194.5690  172.6820  136.1470 O   0  0  0  0  0  1  0  0  0  0  0  0
  190.8670  173.2200  135.8770 C   0  0  0  0  0  3  0  0  0  0  0  0
  193.1610  174.3910  137.1050 C   0  0  0  0  0  0  0  0  0  0  0  0
  189.5080  175.3220  136.5170 C   0  0  1  0  0  0  0  0  0  0  0  0
  191.6500  176.0500  138.2270 N   0  0  0  0  0  0  0  0  0  0  0  0
  193.9910  175.9610  139.0380 C   0  0  0  0  0  2  0  0  0  0  0  0
  192.1450  172.6070  135.7900 C   0  0  0  0  0  3  0  0  0  0  0  0
  189.1890  175.7520  137.9600 C   0  0  0  0  0  2  0  0  0  0  0  0
  190.2890  176.7030  138.4120 C   0  0  1  0  0  3  0  0  0  0  0  0
  190.6950  174.3820  136.5980 C   0  0  0  0  0  0  0  0  0  0  0  0
  192.8270  176.8570  138.5720 C   0  0  0  0  0  2  0  0  0  0  0  0
  189.8080  176.8390  142.2620 C   0  0  0  0  0  0  0  0  0  0  0  0
  188.6540  177.8410  142.3020 C   0  0  0  0  0  2  0  0  0  0  0  0
  190.0300  177.2420  139.7920 C   0  0  2  0  0  3  0  0  0  0  0  0
  188.3220  178.6270  141.0500 C   0  0  0  0  0  2  0  0  0  0  0  0
  190.5560  176.4590  141.0370 C   0  0  0  0  0  2  0  0  0  0  0  0
  188.5690  177.7450  139.8360 C   0  0  0  0  0  2  0  0  0  0  0  0
  189.9850  176.0550  143.3030 N   0  0  0  0  0  2  0  0  0  0  0  0
  196.4630  174.5590  137.9270 C   0  0  0  0  0  1  0  0  0  0  0  0
  195.4710  175.1980  137.1900 O   0  0  0  0  0  0  0  0  0  0  0  0
  189.7700  176.5880  135.6170 C   0  0  0  0  0  2  0  0  0  0  0  0
  188.6920  176.6940  134.5990 C   0  0  0  0  0  2  0  0  0  0  0  0
  187.9620  177.8780  134.8710 O   0  0  0  0  0  0  0  0  0  0  0  0
  184.8460  176.0350  135.7410 C   0  0  0  0  0  3  0  0  0  0  0  0
  186.7600  177.7490  135.5370 C   0  0  0  0  0  0  0  0  0  0  0  0
  185.5030  177.1280  134.9130 C   0  0  0  0  0  3  0  0  0  0  0  0
  184.6340  177.3280  137.9190 C   0  0  0  0  0  3  0  0  0  0  0  0
  185.6470  178.2600  137.8010 C   0  0  0  0  0  3  0  0  0  0  0  0
  186.7830  178.2480  136.8500 C   0  0  0  0  0  3  0  0  0  0  0  0
  184.4690  176.1220  137.0810 C   0  0  0  0  0  2  0  0  0  0  0  0
  1 24  1  6  0  0  0
  1 10  1  0  0  0  0
  2  7  1  0  0  0  0
  3  9  1  0  0  0  0
  5  2  1  0  0  0  0
  6 14  2  0  0  0  0
  7  3  2  0  0  0  0
  7  1  1  0  0  0  0
  8  4  1  6  0  0  0
  8 14  1  0  0  0  0
  8 12  1  0  0  0  0
  9 13  1  0  0  0  0
  9 15  1  0  0  0  0
 11  6  1  0  0  0  0
 11  2  2  0  0  0  0
 13 12  1  1  0  0  0
 13 18  1  0  0  0  0
 14  3  1  0  0  0  0
 15 10  1  0  0  0  0
 16 17  1  0  0  0  0
 16 22  2  0  0  0  0
 18 21  1  1  0  0  0
 18 20  1  0  0  0  0
 19 17  1  0  0  0  0
 20 16  1  0  0  0  0
 21 19  1  0  0  0  0
 24 23  1  0  0  0  0
 25  8  1  0  0  0  0
 26 27  1  0  0  0  0
 26 25  1  0  0  0  0
 27 29  1  0  0  0  0
 28 34  1  0  0  0  0
 29 33  2  0  0  0  0
 30 29  1  0  0  0  0
 30 28  2  0  0  0  0
 32 31  2  0  0  0  0
 33 32  1  0  0  0  0
 34 31  1  0  0  0  0
M  END
>  <MODEL>
9

>  <REMARK>
 VINA RESULT:      -6.8      3.152      6.341
  Name = 
  6 active torsions:
  status: ('A' for Active; 'I' for Inactive)
    1  A    between atoms: C_1  and  O_19
    2  A    between atoms: O_3  and  C_13
    3  A    between atoms: O_3  and  C_17
    4  A    between atoms: C_12  and  C_28
    5  A    between atoms: C_17  and  C_29
    6  A    between atoms: C_18  and  C_29
                            x       y       z     vdW  Elec       q    Type
                         _______ _______ _______ _____ _____    ______ ____

>  <TORSDO>
F 6

$$$$
