=
 OpenBabel11052415393D

 34 38  0  0  1  0  0  0  0  0999 V2000
  187.8040  177.7510  144.7830 C   0  0  0  0  0  0  0  0  0  0  0  0
  190.9020  177.1850  145.5830 N   0  0  0  0  0  1  0  0  0  0  0  0
  186.3500  178.3870  147.1810 C   0  0  0  0  0  3  0  0  0  0  0  0
  186.4590  177.7270  144.8230 C   0  0  0  0  0  3  0  0  0  0  0  0
  187.8020  178.2500  147.1990 C   0  0  1  0  0  3  0  0  0  0  0  0
  188.4550  177.6040  148.1500 C   0  0  0  0  0  2  0  0  0  0  0  0
  185.7020  178.1390  146.0350 C   0  0  0  0  0  0  0  0  0  0  0  0
  189.7520  177.4510  146.3860 C   0  0  0  0  0  0  0  0  0  0  0  0
  188.6040  178.3120  145.9480 C   0  0  1  0  0  3  0  0  0  0  0  0
  189.7050  177.1440  147.6440 N   0  0  0  0  0  0  0  0  0  0  0  0
  190.0270  175.6400  142.6360 C   0  0  0  0  0  3  0  0  0  0  0  0
  190.8630  176.6060  141.8510 C   0  0  0  0  0  2  0  0  0  0  0  0
  190.0510  177.3600  140.8300 C   0  0  0  0  0  0  0  0  0  0  0  0
  189.0190  178.1300  141.1820 C   0  0  0  0  0  3  0  0  0  0  0  0
  189.0050  176.0050  143.4100 C   0  0  0  0  0  3  0  0  0  0  0  0
  188.4580  178.2750  142.5420 C   0  0  0  0  0  3  0  0  0  0  0  0
  188.4840  177.3850  143.5380 C   0  0  0  0  0  0  0  0  0  0  0  0
  190.4160  177.3480  139.4790 O   0  0  0  0  0  0  0  0  0  0  0  0
  189.3020  178.3470  137.5640 C   0  0  0  0  0  1  0  0  0  0  0  0
  189.4830  177.1090  138.4290 C   0  0  0  0  0  2  0  0  0  0  0  0
  184.2790  178.3470  145.9390 N   0  0  0  0  0  2  0  0  0  0  0  0
  181.8160  179.1820  143.2160 C   0  0  0  0  0  2  0  0  0  0  0  0
  184.6070  179.5190  143.7860 C   0  0  0  0  0  2  0  0  0  0  0  0
  183.4190  178.5250  139.8520 N   0  0  0  0  0  0  0  0  0  0  0  0
  183.0550  178.1420  138.5170 C   0  0  0  0  0  0  0  0  0  0  0  0
  182.4000  179.0160  140.7770 C   0  0  0  0  0  2  0  0  0  0  0  0
  183.4870  177.0600  138.0330 O   0  0  0  0  0  0  0  0  0  0  0  0
  182.7830  178.6120  142.1930 C   0  0  1  0  0  3  0  0  0  0  0  0
  182.2080  179.0390  137.6780 C   0  0  0  0  0  1  0  0  0  0  0  0
  185.1660  178.8160  141.4770 C   0  0  0  0  0  3  0  0  0  0  0  0
  184.1670  179.0150  142.4810 N   0  0  0  0  0  0  0  0  0  0  0  0
  184.8080  178.5570  140.2220 C   0  0  0  0  0  3  0  0  0  0  0  0
  183.6390  179.2200  144.9480 C   0  0  1  0  0  3  0  0  0  0  0  0
  182.2530  178.6820  144.5780 C   0  0  0  0  0  2  0  0  0  0  0  0
  1  4  2  0  0  0  0
  2  8  1  0  0  0  0
  4  7  1  0  0  0  0
  5  3  1  6  0  0  0
  5  6  1  0  0  0  0
  7  3  2  0  0  0  0
  8 10  2  0  0  0  0
  9  1  1  6  0  0  0
  9  8  1  0  0  0  0
  9  5  1  0  0  0  0
 10  6  1  0  0  0  0
 11 15  2  0  0  0  0
 12 11  1  0  0  0  0
 13 14  2  0  0  0  0
 13 12  1  0  0  0  0
 14 16  1  0  0  0  0
 15 17  1  0  0  0  0
 16 17  2  0  0  0  0
 17  1  1  0  0  0  0
 18 13  1  0  0  0  0
 19 20  1  0  0  0  0
 20 18  1  0  0  0  0
 21  7  1  0  0  0  0
 22 34  1  0  0  0  0
 23 33  1  0  0  0  0
 24 32  1  0  0  0  0
 24 26  1  0  0  0  0
 25 24  1  0  0  0  0
 27 25  2  0  0  0  0
 28 26  1  6  0  0  0
 28 31  1  0  0  0  0
 28 22  1  0  0  0  0
 29 25  1  0  0  0  0
 30 31  1  0  0  0  0
 31 23  1  0  0  0  0
 32 30  2  0  0  0  0
 33 21  1  1  0  0  0
 34 33  1  0  0  0  0
M  END
>  <MODEL>
1

>  <REMARK>
 VINA RESULT:      -9.6      0.000      0.000
  Name = 
  5 active torsions:
  status: ('A' for Active; 'I' for Inactive)
    1  A    between atoms: C_1  and  C_34
    2  A    between atoms: O_3  and  C_24
    3  A    between atoms: O_3  and  C_25
    4  A    between atoms: C_17  and  N_18
    5  A    between atoms: N_18  and  C_30
                            x       y       z     vdW  Elec       q    Type
                         _______ _______ _______ _____ _____    ______ ____

>  <TORSDO>
F 5

$$$$
=
 OpenBabel11052415393D

 34 38  0  0  1  0  0  0  0  0999 V2000
  189.1120  177.3390  140.9500 C   0  0  0  0  0  0  0  0  0  0  0  0
  186.4420  179.0230  141.7180 N   0  0  0  0  0  1  0  0  0  0  0  0
  189.3040  177.2040  138.0830 C   0  0  0  0  0  3  0  0  0  0  0  0
  189.9230  176.4580  140.3340 C   0  0  0  0  0  3  0  0  0  0  0  0
  188.3000  178.0410  138.7280 C   0  0  1  0  0  3  0  0  0  0  0  0
  187.0440  178.1070  138.3200 C   0  0  0  0  0  2  0  0  0  0  0  0
  190.0910  176.4430  138.8570 C   0  0  0  0  0  0  0  0  0  0  0  0
  186.9560  178.5900  140.4590 C   0  0  0  0  0  0  0  0  0  0  0  0
  188.4170  178.4360  140.1580 C   0  0  1  0  0  3  0  0  0  0  0  0
  186.2070  178.5000  139.4050 N   0  0  0  0  0  0  0  0  0  0  0  0
  187.5290  176.5730  144.2530 C   0  0  0  0  0  3  0  0  0  0  0  0
  187.7100  177.8100  145.0810 C   0  0  0  0  0  2  0  0  0  0  0  0
  189.1510  178.0340  145.4600 C   0  0  0  0  0  0  0  0  0  0  0  0
  190.1030  178.1940  144.5370 C   0  0  0  0  0  3  0  0  0  0  0  0
  188.0900  176.3960  143.0570 C   0  0  0  0  0  3  0  0  0  0  0  0
  189.9350  178.0690  143.0740 C   0  0  0  0  0  3  0  0  0  0  0  0
  189.0370  177.3340  142.4120 C   0  0  0  0  0  0  0  0  0  0  0  0
  189.5230  178.1760  146.8020 O   0  0  0  0  0  0  0  0  0  0  0  0
  188.1560  177.9830  148.8010 C   0  0  0  0  0  1  0  0  0  0  0  0
  189.0860  177.2830  147.8230 C   0  0  0  0  0  2  0  0  0  0  0  0
  191.1590  175.6680  138.2780 N   0  0  0  0  0  2  0  0  0  0  0  0
  193.9290  175.9640  135.7440 C   0  0  0  0  0  2  0  0  0  0  0  0
  193.5980  175.9200  138.5940 C   0  0  0  0  0  2  0  0  0  0  0  0
  196.8680  173.8650  136.8720 N   0  0  0  0  0  0  0  0  0  0  0  0
  197.9620  173.1180  136.3190 C   0  0  0  0  0  0  0  0  0  0  0  0
  196.1560  174.8410  136.0500 C   0  0  0  0  0  2  0  0  0  0  0  0
  198.0320  171.8730  136.5050 O   0  0  0  0  0  0  0  0  0  0  0  0
  194.7010  174.8930  136.4920 C   0  0  1  0  0  3  0  0  0  0  0  0
  199.0450  173.8130  135.5630 C   0  0  0  0  0  1  0  0  0  0  0  0
  195.5090  174.3550  138.7940 C   0  0  0  0  0  3  0  0  0  0  0  0
  194.6180  175.0880  137.9470 N   0  0  0  0  0  0  0  0  0  0  0  0
  196.5740  173.7500  138.2750 C   0  0  0  0  0  3  0  0  0  0  0  0
  192.3800  176.2460  137.7060 C   0  0  1  0  0  3  0  0  0  0  0  0
  192.4910  175.8980  136.2180 C   0  0  0  0  0  2  0  0  0  0  0  0
  1 17  1  0  0  0  0
  3  7  2  0  0  0  0
  4  1  2  0  0  0  0
  5  3  1  1  0  0  0
  5  9  1  0  0  0  0
  6  5  1  0  0  0  0
  6 10  1  0  0  0  0
  7  4  1  0  0  0  0
  8  2  1  0  0  0  0
  9  8  1  1  0  0  0
  9  1  1  0  0  0  0
 10  8  2  0  0  0  0
 11 12  1  0  0  0  0
 12 13  1  0  0  0  0
 13 18  1  0  0  0  0
 14 13  2  0  0  0  0
 15 11  2  0  0  0  0
 16 14  1  0  0  0  0
 17 15  1  0  0  0  0
 17 16  2  0  0  0  0
 18 20  1  0  0  0  0
 20 19  1  0  0  0  0
 21  7  1  0  0  0  0
 22 34  1  0  0  0  0
 24 32  1  0  0  0  0
 25 27  2  0  0  0  0
 25 24  1  0  0  0  0
 26 28  1  0  0  0  0
 26 24  1  0  0  0  0
 28 22  1  6  0  0  0
 28 31  1  0  0  0  0
 29 25  1  0  0  0  0
 31 23  1  0  0  0  0
 31 30  1  0  0  0  0
 32 30  2  0  0  0  0
 33 21  1  1  0  0  0
 33 23  1  0  0  0  0
 34 33  1  0  0  0  0
M  END
>  <MODEL>
2

>  <REMARK>
 VINA RESULT:      -9.2      5.160     10.258
  Name = 
  5 active torsions:
  status: ('A' for Active; 'I' for Inactive)
    1  A    between atoms: C_1  and  C_34
    2  A    between atoms: O_3  and  C_24
    3  A    between atoms: O_3  and  C_25
    4  A    between atoms: C_17  and  N_18
    5  A    between atoms: N_18  and  C_30
                            x       y       z     vdW  Elec       q    Type
                         _______ _______ _______ _____ _____    ______ ____

>  <TORSDO>
F 5

$$$$
=
 OpenBabel11052415393D

 34 38  0  0  1  0  0  0  0  0999 V2000
  186.2930  178.2400  143.9210 C   0  0  0  0  0  0  0  0  0  0  0  0
  185.6860  178.8320  147.0570 N   0  0  0  0  0  1  0  0  0  0  0  0
  183.9640  178.9630  142.3960 C   0  0  0  0  0  3  0  0  0  0  0  0
  186.1200  177.8260  142.6520 C   0  0  0  0  0  3  0  0  0  0  0  0
  184.0550  179.2740  143.8170 C   0  0  1  0  0  3  0  0  0  0  0  0
  183.0530  179.0980  144.6610 C   0  0  0  0  0  2  0  0  0  0  0  0
  184.9620  178.2680  141.8310 C   0  0  0  0  0  0  0  0  0  0  0  0
  184.8550  178.9250  145.9010 C   0  0  0  0  0  0  0  0  0  0  0  0
  185.3600  179.2740  144.5320 C   0  0  1  0  0  3  0  0  0  0  0  0
  183.5620  178.9260  145.9810 N   0  0  0  0  0  0  0  0  0  0  0  0
  188.1370  176.8490  146.8650 C   0  0  0  0  0  3  0  0  0  0  0  0
  189.3510  177.7160  147.0250 C   0  0  0  0  0  2  0  0  0  0  0  0
  190.3390  177.5210  145.9050 C   0  0  0  0  0  0  0  0  0  0  0  0
  190.0140  177.7560  144.6320 C   0  0  0  0  0  3  0  0  0  0  0  0
  187.3010  176.9320  145.8310 C   0  0  0  0  0  3  0  0  0  0  0  0
  188.6730  178.1150  144.1220 C   0  0  0  0  0  3  0  0  0  0  0  0
  187.4860  177.8100  144.6530 C   0  0  0  0  0  0  0  0  0  0  0  0
  191.6670  177.1730  146.1780 O   0  0  0  0  0  0  0  0  0  0  0  0
  192.4890  175.7390  147.9590 C   0  0  0  0  0  1  0  0  0  0  0  0
  192.0680  175.8450  146.5020 C   0  0  0  0  0  2  0  0  0  0  0  0
  184.9660  178.0130  140.4130 N   0  0  0  0  0  2  0  0  0  0  0  0
  187.1250  177.9420  137.3290 C   0  0  0  0  0  2  0  0  0  0  0  0
  187.3720  178.5070  140.1310 C   0  0  0  0  0  2  0  0  0  0  0  0
  190.4570  176.3670  138.1850 N   0  0  0  0  0  0  0  0  0  0  0  0
  191.5010  175.5990  137.5680 C   0  0  0  0  0  0  0  0  0  0  0  0
  189.4860  177.0820  137.3590 C   0  0  0  0  0  2  0  0  0  0  0  0
  191.7530  174.4340  137.9810 O   0  0  0  0  0  0  0  0  0  0  0  0
  188.1510  177.1230  138.0900 C   0  0  1  0  0  3  0  0  0  0  0  0
  192.3220  176.1860  136.4700 C   0  0  0  0  0  1  0  0  0  0  0  0
  189.4560  177.1700  140.2190 C   0  0  0  0  0  3  0  0  0  0  0  0
  188.3360  177.6300  139.4570 N   0  0  0  0  0  0  0  0  0  0  0  0
  190.4620  176.5450  139.6120 C   0  0  0  0  0  3  0  0  0  0  0  0
  185.9730  178.5370  139.4840 C   0  0  1  0  0  3  0  0  0  0  0  0
  185.8270  177.8770  138.1090 C   0  0  0  0  0  2  0  0  0  0  0  0
  1 17  1  0  0  0  0
  4  1  2  0  0  0  0
  5  3  1  6  0  0  0
  5  9  1  0  0  0  0
  5  6  1  0  0  0  0
  6 10  1  0  0  0  0
  7  3  2  0  0  0  0
  7  4  1  0  0  0  0
  8 10  2  0  0  0  0
  8  2  1  0  0  0  0
  9  1  1  6  0  0  0
  9  8  1  0  0  0  0
 11 12  1  0  0  0  0
 13 18  1  0  0  0  0
 13 12  1  0  0  0  0
 14 13  2  0  0  0  0
 15 11  2  0  0  0  0
 16 14  1  0  0  0  0
 16 17  2  0  0  0  0
 17 15  1  0  0  0  0
 18 20  1  0  0  0  0
 20 19  1  0  0  0  0
 21  7  1  0  0  0  0
 22 34  1  0  0  0  0
 24 32  1  0  0  0  0
 25 27  2  0  0  0  0
 25 24  1  0  0  0  0
 26 28  1  0  0  0  0
 26 24  1  0  0  0  0
 28 22  1  6  0  0  0
 28 31  1  0  0  0  0
 29 25  1  0  0  0  0
 31 23  1  0  0  0  0
 31 30  1  0  0  0  0
 32 30  2  0  0  0  0
 33 23  1  0  0  0  0
 33 21  1  1  0  0  0
 34 33  1  0  0  0  0
M  END
>  <MODEL>
3

>  <REMARK>
 VINA RESULT:      -9.2      2.601      6.243
  Name = 
  5 active torsions:
  status: ('A' for Active; 'I' for Inactive)
    1  A    between atoms: C_1  and  C_34
    2  A    between atoms: O_3  and  C_24
    3  A    between atoms: O_3  and  C_25
    4  A    between atoms: C_17  and  N_18
    5  A    between atoms: N_18  and  C_30
                            x       y       z     vdW  Elec       q    Type
                         _______ _______ _______ _____ _____    ______ ____

>  <TORSDO>
F 5

$$$$
=
 OpenBabel11052415393D

 34 38  0  0  1  0  0  0  0  0999 V2000
  187.2330  178.0830  144.7570 C   0  0  0  0  0  0  0  0  0  0  0  0
  184.9240  178.3780  147.0230 N   0  0  0  0  0  1  0  0  0  0  0  0
  189.6960  177.3690  146.0600 C   0  0  0  0  0  3  0  0  0  0  0  0
  188.4220  178.1940  144.1350 C   0  0  0  0  0  3  0  0  0  0  0  0
  188.4400  177.4060  146.8000 C   0  0  1  0  0  3  0  0  0  0  0  0
  188.3280  177.9350  148.0070 C   0  0  0  0  0  2  0  0  0  0  0  0
  189.6880  177.7450  144.7730 C   0  0  0  0  0  0  0  0  0  0  0  0
  186.3260  178.1310  147.1300 C   0  0  0  0  0  0  0  0  0  0  0  0
  187.1260  177.3840  146.1030 C   0  0  1  0  0  3  0  0  0  0  0  0
  186.9820  178.3460  148.2260 N   0  0  0  0  0  0  0  0  0  0  0  0
  184.0360  179.9830  144.3430 C   0  0  0  0  0  3  0  0  0  0  0  0
  183.0570  179.0030  143.7700 C   0  0  0  0  0  2  0  0  0  0  0  0
  183.3940  178.6280  142.3510 C   0  0  0  0  0  0  0  0  0  0  0  0
  184.5580  178.0550  142.0320 C   0  0  0  0  0  3  0  0  0  0  0  0
  185.3350  179.7270  144.4970 C   0  0  0  0  0  3  0  0  0  0  0  0
  185.6930  177.8110  142.9460 C   0  0  0  0  0  3  0  0  0  0  0  0
  186.0200  178.4940  144.0470 C   0  0  0  0  0  0  0  0  0  0  0  0
  182.4520  178.7860  141.3280 O   0  0  0  0  0  0  0  0  0  0  0  0
  182.9260  179.6180  139.0950 C   0  0  0  0  0  1  0  0  0  0  0  0
  182.7040  178.4020  139.9790 C   0  0  0  0  0  2  0  0  0  0  0  0
  190.8820  177.6410  143.9720 N   0  0  0  0  0  2  0  0  0  0  0  0
  191.7740  177.1540  140.3470 C   0  0  0  0  0  2  0  0  0  0  0  0
  189.5620  176.6840  142.1130 C   0  0  0  0  0  2  0  0  0  0  0  0
  188.8040  178.1020  138.2020 N   0  0  0  0  0  0  0  0  0  0  0  0
  188.5120  178.6280  136.8990 C   0  0  0  0  0  0  0  0  0  0  0  0
  190.1250  177.5480  138.4910 C   0  0  0  0  0  2  0  0  0  0  0  0
  187.9300  179.7410  136.7850 O   0  0  0  0  0  0  0  0  0  0  0  0
  190.4550  177.7970  139.9560 C   0  0  1  0  0  3  0  0  0  0  0  0
  188.8520  177.8440  135.6750 C   0  0  0  0  0  1  0  0  0  0  0  0
  188.0080  177.6000  140.4150 C   0  0  0  0  0  3  0  0  0  0  0  0
  189.3550  177.3280  140.8120 N   0  0  0  0  0  0  0  0  0  0  0  0
  187.7470  177.9940  139.1710 C   0  0  0  0  0  3  0  0  0  0  0  0
  190.9670  176.8910  142.7150 C   0  0  1  0  0  3  0  0  0  0  0  0
  192.0320  177.5020  141.7990 C   0  0  0  0  0  2  0  0  0  0  0  0
  2  8  1  0  0  0  0
  4  1  2  0  0  0  0
  4  7  1  0  0  0  0
  5  3  1  6  0  0  0
  5  6  1  0  0  0  0
  6 10  1  0  0  0  0
  7  3  2  0  0  0  0
  8 10  2  0  0  0  0
  9  1  1  6  0  0  0
  9  5  1  0  0  0  0
  9  8  1  0  0  0  0
 11 15  2  0  0  0  0
 12 11  1  0  0  0  0
 13 12  1  0  0  0  0
 14 13  2  0  0  0  0
 14 16  1  0  0  0  0
 16 17  2  0  0  0  0
 17 15  1  0  0  0  0
 17  1  1  0  0  0  0
 18 13  1  0  0  0  0
 19 20  1  0  0  0  0
 20 18  1  0  0  0  0
 21  7  1  0  0  0  0
 22 34  1  0  0  0  0
 23 33  1  0  0  0  0
 24 26  1  0  0  0  0
 24 32  1  0  0  0  0
 25 24  1  0  0  0  0
 27 25  2  0  0  0  0
 28 26  1  6  0  0  0
 28 22  1  0  0  0  0
 28 31  1  0  0  0  0
 29 25  1  0  0  0  0
 30 31  1  0  0  0  0
 31 23  1  0  0  0  0
 32 30  2  0  0  0  0
 33 21  1  1  0  0  0
 34 33  1  0  0  0  0
M  END
>  <MODEL>
4

>  <REMARK>
 VINA RESULT:      -9.1      2.080      5.935
  Name = 
  5 active torsions:
  status: ('A' for Active; 'I' for Inactive)
    1  A    between atoms: C_1  and  C_34
    2  A    between atoms: O_3  and  C_24
    3  A    between atoms: O_3  and  C_25
    4  A    between atoms: C_17  and  N_18
    5  A    between atoms: N_18  and  C_30
                            x       y       z     vdW  Elec       q    Type
                         _______ _______ _______ _____ _____    ______ ____

>  <TORSDO>
F 5

$$$$
=
 OpenBabel11052415393D

 34 38  0  0  1  0  0  0  0  0999 V2000
  186.1650  178.1410  143.5960 C   0  0  0  0  0  0  0  0  0  0  0  0
  188.4570  177.6840  145.8520 N   0  0  0  0  0  1  0  0  0  0  0  0
  183.7600  179.0130  144.9110 C   0  0  0  0  0  3  0  0  0  0  0  0
  184.9690  178.1120  142.9780 C   0  0  0  0  0  3  0  0  0  0  0  0
  185.0130  178.8890  145.6460 C   0  0  1  0  0  3  0  0  0  0  0  0
  185.0940  178.3500  146.8500 C   0  0  0  0  0  2  0  0  0  0  0  0
  183.7380  178.6420  143.6230 C   0  0  0  0  0  0  0  0  0  0  0  0
  187.0760  178.0240  145.9650 C   0  0  0  0  0  0  0  0  0  0  0  0
  186.3230  178.8260  144.9440 C   0  0  1  0  0  3  0  0  0  0  0  0
  186.4110  177.8490  147.0630 N   0  0  0  0  0  0  0  0  0  0  0  0
  189.1160  175.9010  143.0720 C   0  0  0  0  0  3  0  0  0  0  0  0
  190.2310  176.8020  142.6310 C   0  0  0  0  0  2  0  0  0  0  0  0
  190.0000  177.3580  141.2500 C   0  0  0  0  0  0  0  0  0  0  0  0
  188.9300  178.1030  140.9630 C   0  0  0  0  0  3  0  0  0  0  0  0
  187.8540  176.3040  143.2160 C   0  0  0  0  0  3  0  0  0  0  0  0
  187.7980  178.3960  141.8660 C   0  0  0  0  0  3  0  0  0  0  0  0
  187.3450  177.6530  142.8800 C   0  0  0  0  0  0  0  0  0  0  0  0
  190.9560  177.1850  140.2420 O   0  0  0  0  0  0  0  0  0  0  0  0
  191.9750  176.2950  138.2250 C   0  0  0  0  0  1  0  0  0  0  0  0
  190.7340  176.3640  139.0990 C   0  0  0  0  0  2  0  0  0  0  0  0
  182.5510  178.8290  142.8270 N   0  0  0  0  0  2  0  0  0  0  0  0
  183.1630  179.0380  139.1170 C   0  0  0  0  0  2  0  0  0  0  0  0
  180.9780  178.6240  140.9300 C   0  0  0  0  0  2  0  0  0  0  0  0
  180.3840  181.0460  137.5150 N   0  0  0  0  0  0  0  0  0  0  0  0
  180.1600  181.9110  136.3920 C   0  0  0  0  0  0  0  0  0  0  0  0
  181.5640  180.1830  137.5530 C   0  0  0  0  0  2  0  0  0  0  0  0
  179.8310  183.1140  136.5800 O   0  0  0  0  0  0  0  0  0  0  0  0
  182.0010  180.0080  139.0000 C   0  0  1  0  0  3  0  0  0  0  0  0
  180.2680  181.3850  135.0000 C   0  0  0  0  0  1  0  0  0  0  0  0
  179.5920  180.2100  139.6260 C   0  0  0  0  0  3  0  0  0  0  0  0
  180.8620  179.5850  139.8280 N   0  0  0  0  0  0  0  0  0  0  0  0
  179.3710  180.9290  138.5290 C   0  0  0  0  0  3  0  0  0  0  0  0
  182.4180  178.3950  141.4320 C   0  0  1  0  0  3  0  0  0  0  0  0
  183.5520  178.9750  140.5800 C   0  0  0  0  0  2  0  0  0  0  0  0
  2  8  1  0  0  0  0
  4  1  2  0  0  0  0
  4  7  1  0  0  0  0
  5  3  1  6  0  0  0
  5  6  1  0  0  0  0
  6 10  1  0  0  0  0
  7  3  2  0  0  0  0
  8 10  2  0  0  0  0
  9  1  1  6  0  0  0
  9  5  1  0  0  0  0
  9  8  1  0  0  0  0
 11 15  2  0  0  0  0
 12 11  1  0  0  0  0
 13 12  1  0  0  0  0
 14 13  2  0  0  0  0
 14 16  1  0  0  0  0
 16 17  2  0  0  0  0
 17 15  1  0  0  0  0
 17  1  1  0  0  0  0
 18 13  1  0  0  0  0
 19 20  1  0  0  0  0
 20 18  1  0  0  0  0
 21  7  1  0  0  0  0
 22 34  1  0  0  0  0
 23 33  1  0  0  0  0
 24 26  1  0  0  0  0
 24 32  1  0  0  0  0
 25 27  2  0  0  0  0
 25 24  1  0  0  0  0
 28 26  1  6  0  0  0
 28 22  1  0  0  0  0
 28 31  1  0  0  0  0
 29 25  1  0  0  0  0
 30 31  1  0  0  0  0
 31 23  1  0  0  0  0
 32 30  2  0  0  0  0
 33 21  1  1  0  0  0
 34 33  1  0  0  0  0
M  END
>  <MODEL>
5

>  <REMARK>
 VINA RESULT:      -9.0      2.336      3.560
  Name = 
  5 active torsions:
  status: ('A' for Active; 'I' for Inactive)
    1  A    between atoms: C_1  and  C_34
    2  A    between atoms: O_3  and  C_24
    3  A    between atoms: O_3  and  C_25
    4  A    between atoms: C_17  and  N_18
    5  A    between atoms: N_18  and  C_30
                            x       y       z     vdW  Elec       q    Type
                         _______ _______ _______ _____ _____    ______ ____

>  <TORSDO>
F 5

$$$$
=
 OpenBabel11052415393D

 34 38  0  0  1  0  0  0  0  0999 V2000
  188.4110  177.6610  145.0510 C   0  0  0  0  0  0  0  0  0  0  0  0
  186.8500  177.6390  147.9000 N   0  0  0  0  0  1  0  0  0  0  0  0
  191.2210  177.3100  145.5550 C   0  0  0  0  0  3  0  0  0  0  0  0
  189.3390  177.9360  144.1150 C   0  0  0  0  0  3  0  0  0  0  0  0
  190.2440  177.1730  146.6290 C   0  0  1  0  0  3  0  0  0  0  0  0
  190.4190  177.6870  147.8340 C   0  0  0  0  0  2  0  0  0  0  0  0
  190.7850  177.6740  144.3410 C   0  0  0  0  0  0  0  0  0  0  0  0
  188.2410  177.5930  147.5850 C   0  0  0  0  0  0  0  0  0  0  0  0
  188.7990  176.9610  146.3440 C   0  0  1  0  0  3  0  0  0  0  0  0
  189.1530  177.9050  148.4510 N   0  0  0  0  0  0  0  0  0  0  0  0
  185.4240  177.8190  142.8030 C   0  0  0  0  0  3  0  0  0  0  0  0
  184.7030  179.0790  143.1800 C   0  0  0  0  0  2  0  0  0  0  0  0
  184.0740  178.9860  144.5450 C   0  0  0  0  0  0  0  0  0  0  0  0
  184.8030  178.7620  145.6410 C   0  0  0  0  0  3  0  0  0  0  0  0
  186.4630  177.3300  143.4800 C   0  0  0  0  0  3  0  0  0  0  0  0
  186.2500  178.4680  145.6860 C   0  0  0  0  0  3  0  0  0  0  0  0
  186.9990  177.8920  144.7400 C   0  0  0  0  0  0  0  0  0  0  0  0
  182.7060  179.2270  144.7180 O   0  0  0  0  0  0  0  0  0  0  0  0
  180.4630  178.5450  144.0780 C   0  0  0  0  0  1  0  0  0  0  0  0
  181.7710  179.1850  143.6430 C   0  0  0  0  0  2  0  0  0  0  0  0
  191.6940  177.7350  143.2240 N   0  0  0  0  0  2  0  0  0  0  0  0
  191.9030  177.1090  139.5170 C   0  0  0  0  0  2  0  0  0  0  0  0
  190.0630  176.7000  141.6800 C   0  0  0  0  0  2  0  0  0  0  0  0
  188.5770  177.9600  137.9280 N   0  0  0  0  0  0  0  0  0  0  0  0
  188.0420  178.4330  136.6820 C   0  0  0  0  0  0  0  0  0  0  0  0
  189.9350  177.4230  137.9870 C   0  0  0  0  0  2  0  0  0  0  0  0
  187.4360  179.5380  136.6360 O   0  0  0  0  0  0  0  0  0  0  0  0
  190.5280  177.7310  139.3540 C   0  0  1  0  0  3  0  0  0  0  0  0
  188.1570  177.6030  135.4480 C   0  0  0  0  0  1  0  0  0  0  0  0
  188.2110  177.5430  140.2670 C   0  0  0  0  0  3  0  0  0  0  0  0
  189.6120  177.2920  140.4170 N   0  0  0  0  0  0  0  0  0  0  0  0
  187.7190  177.8860  139.0800 C   0  0  0  0  0  3  0  0  0  0  0  0
  191.5530  176.9360  142.0020 C   0  0  1  0  0  3  0  0  0  0  0  0
  192.4230  177.5150  140.8810 C   0  0  0  0  0  2  0  0  0  0  0  0
  4  7  1  0  0  0  0
  4  1  2  0  0  0  0
  5  3  1  6  0  0  0
  5  6  1  0  0  0  0
  6 10  1  0  0  0  0
  7  3  2  0  0  0  0
  8  2  1  0  0  0  0
  8 10  2  0  0  0  0
  9  1  1  6  0  0  0
  9  5  1  0  0  0  0
  9  8  1  0  0  0  0
 11 12  1  0  0  0  0
 11 15  2  0  0  0  0
 12 13  1  0  0  0  0
 13 18  1  0  0  0  0
 13 14  2  0  0  0  0
 14 16  1  0  0  0  0
 15 17  1  0  0  0  0
 17  1  1  0  0  0  0
 17 16  2  0  0  0  0
 20 19  1  0  0  0  0
 20 18  1  0  0  0  0
 21  7  1  0  0  0  0
 22 34  1  0  0  0  0
 23 33  1  0  0  0  0
 24 26  1  0  0  0  0
 24 32  1  0  0  0  0
 25 24  1  0  0  0  0
 27 25  2  0  0  0  0
 28 26  1  6  0  0  0
 28 22  1  0  0  0  0
 28 31  1  0  0  0  0
 29 25  1  0  0  0  0
 30 31  1  0  0  0  0
 31 23  1  0  0  0  0
 32 30  2  0  0  0  0
 33 21  1  1  0  0  0
 34 33  1  0  0  0  0
M  END
>  <MODEL>
6

>  <REMARK>
 VINA RESULT:      -8.7      2.633      6.272
  Name = 
  5 active torsions:
  status: ('A' for Active; 'I' for Inactive)
    1  A    between atoms: C_1  and  C_34
    2  A    between atoms: O_3  and  C_24
    3  A    between atoms: O_3  and  C_25
    4  A    between atoms: C_17  and  N_18
    5  A    between atoms: N_18  and  C_30
                            x       y       z     vdW  Elec       q    Type
                         _______ _______ _______ _____ _____    ______ ____

>  <TORSDO>
F 5

$$$$
=
 OpenBabel11052415393D

 34 38  0  0  1  0  0  0  0  0999 V2000
  182.2820  178.2200  141.1090 C   0  0  0  0  0  0  0  0  0  0  0  0
  179.3850  178.1800  139.6400 N   0  0  0  0  0  1  0  0  0  0  0  0
  181.9540  179.3630  143.7280 C   0  0  0  0  0  3  0  0  0  0  0  0
  183.3330  178.6540  141.8300 C   0  0  0  0  0  3  0  0  0  0  0  0
  180.7980  179.0570  142.8940 C   0  0  1  0  0  3  0  0  0  0  0  0
  179.7680  179.8750  142.7590 C   0  0  0  0  0  2  0  0  0  0  0  0
  183.1770  179.1640  143.2180 C   0  0  0  0  0  0  0  0  0  0  0  0
  179.7990  178.7140  140.8970 C   0  0  0  0  0  0  0  0  0  0  0  0
  180.8990  178.1300  141.7340 C   0  0  1  0  0  3  0  0  0  0  0  0
  179.1130  179.6210  141.5190 N   0  0  0  0  0  0  0  0  0  0  0  0
  182.5110  178.4040  137.3790 C   0  0  0  0  0  3  0  0  0  0  0  0
  181.8350  177.1640  136.8730 C   0  0  0  0  0  2  0  0  0  0  0  0
  182.6250  175.9200  137.1830 C   0  0  0  0  0  0  0  0  0  0  0  0
  182.9180  175.5670  138.4370 C   0  0  0  0  0  3  0  0  0  0  0  0
  182.7670  178.6330  138.6660 C   0  0  0  0  0  3  0  0  0  0  0  0
  182.6340  176.3520  139.6570 C   0  0  0  0  0  3  0  0  0  0  0  0
  182.5150  177.6780  139.7690 C   0  0  0  0  0  0  0  0  0  0  0  0
  183.0000  175.0400  136.1610 O   0  0  0  0  0  0  0  0  0  0  0  0
  185.0090  176.0530  135.2420 C   0  0  0  0  0  1  0  0  0  0  0  0
  183.6320  175.4740  134.9600 C   0  0  0  0  0  2  0  0  0  0  0  0
  184.3510  179.3640  144.0300 N   0  0  0  0  0  2  0  0  0  0  0  0
  186.4350  178.2020  146.9430 C   0  0  0  0  0  2  0  0  0  0  0  0
  185.8200  177.3880  144.2620 C   0  0  0  0  0  2  0  0  0  0  0  0
  189.7900  177.0040  145.6660 N   0  0  0  0  0  0  0  0  0  0  0  0
  191.1560  176.9030  146.0930 C   0  0  0  0  0  0  0  0  0  0  0  0
  188.7280  177.2150  146.6480 C   0  0  0  0  0  2  0  0  0  0  0  0
  192.0550  177.5430  145.4830 O   0  0  0  0  0  0  0  0  0  0  0  0
  187.6170  178.0340  146.0050 C   0  0  1  0  0  3  0  0  0  0  0  0
  191.5290  176.0080  147.2280 C   0  0  0  0  0  1  0  0  0  0  0  0
  188.2190  176.9320  143.8470 C   0  0  0  0  0  3  0  0  0  0  0  0
  187.2090  177.4250  144.7310 N   0  0  0  0  0  0  0  0  0  0  0  0
  189.4610  176.7520  144.2890 C   0  0  0  0  0  3  0  0  0  0  0  0
  184.8750  178.3740  144.9780 C   0  0  1  0  0  3  0  0  0  0  0  0
  185.4150  179.0680  146.2320 C   0  0  0  0  0  2  0  0  0  0  0  0
  1  9  1  0  0  0  0
  1  4  2  0  0  0  0
  2  8  1  0  0  0  0
  4  7  1  0  0  0  0
  5  6  1  6  0  0  0
  5  3  1  0  0  0  0
  7  3  2  0  0  0  0
  7 21  1  0  0  0  0
  8 10  2  0  0  0  0
  9  8  1  6  0  0  0
  9  5  1  0  0  0  0
 10  6  1  0  0  0  0
 11 15  2  0  0  0  0
 12 13  1  0  0  0  0
 12 11  1  0  0  0  0
 13 14  2  0  0  0  0
 14 16  1  0  0  0  0
 15 17  1  0  0  0  0
 16 17  2  0  0  0  0
 17  1  1  0  0  0  0
 18 13  1  0  0  0  0
 20 19  1  0  0  0  0
 20 18  1  0  0  0  0
 23 31  1  0  0  0  0
 23 33  1  0  0  0  0
 24 25  1  0  0  0  0
 24 26  1  0  0  0  0
 25 29  1  0  0  0  0
 27 25  2  0  0  0  0
 28 26  1  1  0  0  0
 28 22  1  0  0  0  0
 30 32  2  0  0  0  0
 30 31  1  0  0  0  0
 31 28  1  0  0  0  0
 32 24  1  0  0  0  0
 33 21  1  6  0  0  0
 33 34  1  0  0  0  0
 34 22  1  0  0  0  0
M  END
>  <MODEL>
7

>  <REMARK>
 VINA RESULT:      -8.7      2.435      8.096
  Name = 
  5 active torsions:
  status: ('A' for Active; 'I' for Inactive)
    1  A    between atoms: C_1  and  C_34
    2  A    between atoms: O_3  and  C_24
    3  A    between atoms: O_3  and  C_25
    4  A    between atoms: C_17  and  N_18
    5  A    between atoms: N_18  and  C_30
                            x       y       z     vdW  Elec       q    Type
                         _______ _______ _______ _____ _____    ______ ____

>  <TORSDO>
F 5

$$$$
=
 OpenBabel11052415393D

 34 38  0  0  1  0  0  0  0  0999 V2000
  185.5910  178.2470  142.9440 C   0  0  0  0  0  0  0  0  0  0  0  0
  186.8100  178.6310  145.9300 N   0  0  0  0  0  1  0  0  0  0  0  0
  182.8200  179.0170  142.9910 C   0  0  0  0  0  3  0  0  0  0  0  0
  184.7440  177.9090  141.9530 C   0  0  0  0  0  3  0  0  0  0  0  0
  183.6800  179.2410  144.1470 C   0  0  1  0  0  3  0  0  0  0  0  0
  183.2990  178.9930  145.3880 C   0  0  0  0  0  2  0  0  0  0  0  0
  183.3340  178.3790  141.9300 C   0  0  0  0  0  0  0  0  0  0  0  0
  185.4830  178.7790  145.4260 C   0  0  0  0  0  0  0  0  0  0  0  0
  185.1620  179.2230  144.0290 C   0  0  1  0  0  3  0  0  0  0  0  0
  184.4450  178.7490  146.2000 N   0  0  0  0  0  0  0  0  0  0  0  0
  189.1160  178.3320  141.6910 C   0  0  0  0  0  3  0  0  0  0  0  0
  189.4960  176.9000  141.4640 C   0  0  0  0  0  2  0  0  0  0  0  0
  189.6330  176.1370  142.7560 C   0  0  0  0  0  0  0  0  0  0  0  0
  188.6110  176.0070  143.6060 C   0  0  0  0  0  3  0  0  0  0  0  0
  187.9820  178.7120  142.2790 C   0  0  0  0  0  3  0  0  0  0  0  0
  187.2850  176.6480  143.4870 C   0  0  0  0  0  3  0  0  0  0  0  0
  186.9820  177.7960  142.8740 C   0  0  0  0  0  0  0  0  0  0  0  0
  190.8180  175.4580  143.0620 O   0  0  0  0  0  0  0  0  0  0  0  0
  191.5670  177.3600  144.3770 C   0  0  0  0  0  1  0  0  0  0  0  0
  191.6970  175.8700  144.1060 C   0  0  0  0  0  2  0  0  0  0  0  0
  182.5560  178.2120  140.7280 N   0  0  0  0  0  2  0  0  0  0  0  0
  183.4710  177.7150  137.1090 C   0  0  0  0  0  2  0  0  0  0  0  0
  184.4750  179.0740  139.4280 C   0  0  0  0  0  2  0  0  0  0  0  0
  187.2010  177.1330  136.8440 N   0  0  0  0  0  0  0  0  0  0  0  0
  188.1500  176.4450  136.0150 C   0  0  0  0  0  0  0  0  0  0  0  0
  185.8460  177.3820  136.3560 C   0  0  0  0  0  2  0  0  0  0  0  0
  188.8510  175.5160  136.4990 O   0  0  0  0  0  0  0  0  0  0  0  0
  184.8840  177.3600  137.5360 C   0  0  1  0  0  3  0  0  0  0  0  0
  188.3460  176.8540  134.5940 C   0  0  0  0  0  1  0  0  0  0  0  0
  186.7580  178.2550  138.9230 C   0  0  0  0  0  3  0  0  0  0  0  0
  185.3640  178.2530  138.6000 N   0  0  0  0  0  0  0  0  0  0  0  0
  187.6350  177.6970  138.0930 C   0  0  0  0  0  3  0  0  0  0  0  0
  182.9940  178.6460  139.3970 C   0  0  1  0  0  3  0  0  0  0  0  0
  182.5910  177.6140  138.3380 C   0  0  0  0  0  2  0  0  0  0  0  0
  4  1  2  0  0  0  0
  5  3  1  6  0  0  0
  5  6  1  0  0  0  0
  6 10  1  0  0  0  0
  7  4  1  0  0  0  0
  7  3  2  0  0  0  0
  8  2  1  0  0  0  0
  8 10  2  0  0  0  0
  9  1  1  6  0  0  0
  9  5  1  0  0  0  0
  9  8  1  0  0  0  0
 11 15  2  0  0  0  0
 12 11  1  0  0  0  0
 12 13  1  0  0  0  0
 13 18  1  0  0  0  0
 13 14  2  0  0  0  0
 15 17  1  0  0  0  0
 16 14  1  0  0  0  0
 17  1  1  0  0  0  0
 17 16  2  0  0  0  0
 18 20  1  0  0  0  0
 20 19  1  0  0  0  0
 21  7  1  0  0  0  0
 22 28  1  0  0  0  0
 22 34  1  0  0  0  0
 24 32  1  0  0  0  0
 25 27  2  0  0  0  0
 25 24  1  0  0  0  0
 26 24  1  0  0  0  0
 28 26  1  6  0  0  0
 28 31  1  0  0  0  0
 29 25  1  0  0  0  0
 31 30  1  0  0  0  0
 31 23  1  0  0  0  0
 32 30  2  0  0  0  0
 33 23  1  0  0  0  0
 33 21  1  1  0  0  0
 34 33  1  0  0  0  0
M  END
>  <MODEL>
8

>  <REMARK>
 VINA RESULT:      -8.6      2.229      4.813
  Name = 
  5 active torsions:
  status: ('A' for Active; 'I' for Inactive)
    1  A    between atoms: C_1  and  C_34
    2  A    between atoms: O_3  and  C_24
    3  A    between atoms: O_3  and  C_25
    4  A    between atoms: C_17  and  N_18
    5  A    between atoms: N_18  and  C_30
                            x       y       z     vdW  Elec       q    Type
                         _______ _______ _______ _____ _____    ______ ____

>  <TORSDO>
F 5

$$$$
=
 OpenBabel11052415393D

 34 38  0  0  1  0  0  0  0  0999 V2000
  186.7680  177.9040  144.2480 C   0  0  0  0  0  0  0  0  0  0  0  0
  184.9200  178.4150  146.8710 N   0  0  0  0  0  1  0  0  0  0  0  0
  189.3730  177.0580  145.1250 C   0  0  0  0  0  3  0  0  0  0  0  0
  187.8320  177.9180  143.4240 C   0  0  0  0  0  3  0  0  0  0  0  0
  188.2730  177.2000  146.0720 C   0  0  1  0  0  3  0  0  0  0  0  0
  188.4100  177.7650  147.2590 C   0  0  0  0  0  2  0  0  0  0  0  0
  189.1600  177.3990  143.8460 C   0  0  0  0  0  0  0  0  0  0  0  0
  186.3000  178.0750  146.7390 C   0  0  0  0  0  0  0  0  0  0  0  0
  186.8570  177.2490  145.6170 C   0  0  1  0  0  3  0  0  0  0  0  0
  187.1520  178.2740  147.6950 N   0  0  0  0  0  0  0  0  0  0  0  0
  183.5270  179.7620  144.4750 C   0  0  0  0  0  3  0  0  0  0  0  0
  182.4970  178.8460  143.8850 C   0  0  0  0  0  2  0  0  0  0  0  0
  182.6690  178.6800  142.3980 C   0  0  0  0  0  0  0  0  0  0  0  0
  183.7920  178.1860  141.8710 C   0  0  0  0  0  3  0  0  0  0  0  0
  184.8370  179.5200  144.4410 C   0  0  0  0  0  3  0  0  0  0  0  0
  185.0290  177.8470  142.6060 C   0  0  0  0  0  3  0  0  0  0  0  0
  185.4760  178.3780  143.7470 C   0  0  0  0  0  0  0  0  0  0  0  0
  181.6120  178.9540  141.5220 O   0  0  0  0  0  0  0  0  0  0  0  0
  179.8650  180.4620  140.7610 C   0  0  0  0  0  1  0  0  0  0  0  0
  180.4440  179.6670  141.9200 C   0  0  0  0  0  2  0  0  0  0  0  0
  190.1840  177.1930  142.8530 N   0  0  0  0  0  2  0  0  0  0  0  0
  189.4380  177.3560  139.1660 C   0  0  0  0  0  2  0  0  0  0  0  0
  191.6130  177.8880  140.9590 C   0  0  0  0  0  2  0  0  0  0  0  0
  192.4190  176.0450  137.2400 N   0  0  0  0  0  0  0  0  0  0  0  0
  192.7230  175.3750  136.0070 C   0  0  0  0  0  0  0  0  0  0  0  0
  191.1210  176.6920  137.4220 C   0  0  0  0  0  2  0  0  0  0  0  0
  193.2470  174.2290  136.0260 O   0  0  0  0  0  0  0  0  0  0  0  0
  190.7310  176.6100  138.8910 C   0  0  1  0  0  3  0  0  0  0  0  0
  192.4670  176.0480  134.7000 C   0  0  0  0  0  1  0  0  0  0  0  0
  193.1690  176.7260  139.4200 C   0  0  0  0  0  3  0  0  0  0  0  0
  191.8270  177.1050  139.7370 N   0  0  0  0  0  0  0  0  0  0  0  0
  193.4480  176.1960  138.2330 C   0  0  0  0  0  3  0  0  0  0  0  0
  190.1810  177.8150  141.5250 C   0  0  1  0  0  3  0  0  0  0  0  0
  189.1130  177.1700  140.6350 C   0  0  0  0  0  2  0  0  0  0  0  0
  4  7  1  0  0  0  0
  4  1  2  0  0  0  0
  5  3  1  6  0  0  0
  5  6  1  0  0  0  0
  6 10  1  0  0  0  0
  7  3  2  0  0  0  0
  8  2  1  0  0  0  0
  8 10  2  0  0  0  0
  9  1  1  6  0  0  0
  9  5  1  0  0  0  0
  9  8  1  0  0  0  0
 12 11  1  0  0  0  0
 13 12  1  0  0  0  0
 14 13  2  0  0  0  0
 14 16  1  0  0  0  0
 15 11  2  0  0  0  0
 16 17  2  0  0  0  0
 17  1  1  0  0  0  0
 17 15  1  0  0  0  0
 18 20  1  0  0  0  0
 18 13  1  0  0  0  0
 19 20  1  0  0  0  0
 21  7  1  0  0  0  0
 22 34  1  0  0  0  0
 23 33  1  0  0  0  0
 24 26  1  0  0  0  0
 24 32  1  0  0  0  0
 25 27  2  0  0  0  0
 25 24  1  0  0  0  0
 28 26  1  6  0  0  0
 28 22  1  0  0  0  0
 28 31  1  0  0  0  0
 29 25  1  0  0  0  0
 30 31  1  0  0  0  0
 31 23  1  0  0  0  0
 32 30  2  0  0  0  0
 33 21  1  1  0  0  0
 34 33  1  0  0  0  0
M  END
>  <MODEL>
9

>  <REMARK>
 VINA RESULT:      -8.5      2.882      7.292
  Name = 
  5 active torsions:
  status: ('A' for Active; 'I' for Inactive)
    1  A    between atoms: C_1  and  C_34
    2  A    between atoms: O_3  and  C_24
    3  A    between atoms: O_3  and  C_25
    4  A    between atoms: C_17  and  N_18
    5  A    between atoms: N_18  and  C_30
                            x       y       z     vdW  Elec       q    Type
                         _______ _______ _______ _____ _____    ______ ____

>  <TORSDO>
F 5

$$$$
