=
 OpenBabel11052414213D

 34 39  0  0  1  0  0  0  0  0999 V2000
  179.5400  180.0790  135.8630 C   0  0  0  0  0  0  0  0  0  0  0  0
  180.8710  181.8170  136.9440 C   0  0  0  0  0  0  0  0  0  0  0  0
  181.1790  179.4830  137.5670 C   0  0  0  0  0  0  0  0  0  0  0  0
  182.6760  178.9440  139.4930 N   0  0  0  0  0  0  0  0  0  0  0  0
  179.2880  182.3950  135.2000 C   0  0  0  0  0  3  0  0  0  0  0  0
  180.2420  182.7800  136.1500 C   0  0  0  0  0  3  0  0  0  0  0  0
  182.4390  181.3130  138.7510 C   0  0  0  0  0  3  0  0  0  0  0  0
  180.5440  180.4580  136.7800 C   0  0  0  0  0  0  0  0  0  0  0  0
  184.1730  178.1150  141.2920 N   0  0  0  0  0  2  0  0  0  0  0  0
  184.7560  179.9230  139.9450 O   0  0  0  0  0  0  0  0  0  0  0  0
  178.9310  181.0480  135.0630 C   0  0  0  0  0  3  0  0  0  0  0  0
  180.7410  178.1510  137.5160 C   0  0  0  0  0  0  0  0  0  0  0  0
  179.1450  178.7400  135.7810 C   0  0  0  0  0  3  0  0  0  0  0  0
  181.7660  182.2260  138.0430 C   0  0  0  0  0  3  0  0  0  0  0  0
  181.7950  177.8000  139.7540 C   0  0  0  0  0  2  0  0  0  0  0  0
  181.3250  177.1370  138.4520 C   0  0  2  0  0  3  0  0  0  0  0  0
  183.9030  179.0400  140.2370 C   0  0  0  0  0  0  0  0  0  0  0  0
  182.4130  179.8530  138.3640 C   0  0  2  0  0  3  0  0  0  0  0  0
  179.7320  177.7820  136.6170 C   0  0  0  0  0  3  0  0  0  0  0  0
  182.9660  175.2450  138.6810 C   0  0  0  0  0  2  0  0  0  0  0  0
  182.6960  174.0810  136.6750 C   0  0  0  0  0  1  0  0  0  0  0  0
  182.3950  176.2570  137.7970 C   0  0  1  0  0  0  0  0  0  0  0  0
  181.9600  174.8390  137.6810 N   0  0  0  0  0  0  0  0  0  0  0  0
  183.2960  176.8040  136.7040 C   0  0  0  0  0  0  0  0  0  0  0  0
  184.5270  177.2300  136.9880 C   0  0  0  0  0  2  0  0  0  0  0  0
  182.6750  177.0110  135.0350 S   0  0  0  0  0  1  0  0  0  0  0  0
  185.4240  178.1260  142.0310 C   0  0  0  0  0  2  0  0  0  0  0  0
  187.4080  177.3320  144.0960 C   0  0  0  0  0  1  0  0  0  0  0  0
  185.1450  178.2910  143.4880 C   0  0  0  0  0  0  0  0  0  0  0  0
  186.0820  177.9030  144.4670 C   0  0  0  0  0  0  0  0  0  0  0  0
  184.5340  178.5790  146.2080 C   0  0  0  0  0  3  0  0  0  0  0  0
  183.6030  178.9570  145.2380 C   0  0  0  0  0  3  0  0  0  0  0  0
  183.9070  178.8100  143.8820 C   0  0  0  0  0  3  0  0  0  0  0  0
  185.7700  178.0530  145.8220 C   0  0  0  0  0  3  0  0  0  0  0  0
  1  8  1  0  0  0  0
  2 14  1  0  0  0  0
  3 18  1  0  0  0  0
  4 15  1  0  0  0  0
  4 17  1  0  0  0  0
  5  6  1  0  0  0  0
  6  2  2  0  0  0  0
  8  2  1  0  0  0  0
  8  3  2  0  0  0  0
  9 27  1  0  0  0  0
 10 17  2  0  0  0  0
 11  5  2  0  0  0  0
 11  1  1  0  0  0  0
 12  3  1  0  0  0  0
 12 16  1  0  0  0  0
 13  1  2  0  0  0  0
 13 19  1  0  0  0  0
 14  7  2  0  0  0  0
 16 15  1  1  0  0  0
 17  9  1  0  0  0  0
 18  7  1  1  0  0  0
 18  4  1  0  0  0  0
 19 12  2  0  0  0  0
 21 23  1  0  0  0  0
 22 24  1  6  0  0  0
 22 16  1  0  0  0  0
 22 20  1  0  0  0  0
 23 22  1  0  0  0  0
 23 20  1  0  0  0  0
 24 25  2  0  0  0  0
 26 24  1  0  0  0  0
 27 29  1  0  0  0  0
 28 30  1  0  0  0  0
 29 33  2  0  0  0  0
 29 30  1  0  0  0  0
 30 34  2  0  0  0  0
 32 31  2  0  0  0  0
 33 32  1  0  0  0  0
 34 31  1  0  0  0  0
M  END
>  <MODEL>
1

>  <REMARK>
 VINA RESULT:      -7.8      0.000      0.000
  Name = 
  4 active torsions:
  status: ('A' for Active; 'I' for Inactive)
    1  A    between atoms: C_3  and  C_13
    2  A    between atoms: C_3  and  N_17
    3  A    between atoms: C_7  and  C_23
    4  A    between atoms: C_23  and  C_28
                            x       y       z     vdW  Elec       q    Type
                         _______ _______ _______ _____ _____    ______ ____

>  <TORSDO>
F 4

$$$$
=
 OpenBabel11052414213D

 34 39  0  0  1  0  0  0  0  0999 V2000
  187.6860  177.8490  147.2640 C   0  0  0  0  0  0  0  0  0  0  0  0
  190.1070  177.7600  146.9590 C   0  0  0  0  0  0  0  0  0  0  0  0
  188.6270  177.4980  145.0420 C   0  0  0  0  0  0  0  0  0  0  0  0
  189.6220  176.8830  142.8350 N   0  0  0  0  0  0  0  0  0  0  0  0
  189.1650  178.1760  149.1540 C   0  0  0  0  0  3  0  0  0  0  0  0
  190.2790  177.9910  148.3270 C   0  0  0  0  0  3  0  0  0  0  0  0
  191.1220  177.2830  144.7860 C   0  0  0  0  0  3  0  0  0  0  0  0
  188.8080  177.7200  146.4180 C   0  0  0  0  0  0  0  0  0  0  0  0
  190.3410  176.3760  140.5130 N   0  0  0  0  0  2  0  0  0  0  0  0
  191.5860  177.7640  141.9090 O   0  0  0  0  0  0  0  0  0  0  0  0
  187.8710  178.0970  148.6270 C   0  0  0  0  0  3  0  0  0  0  0  0
  187.3360  177.3000  144.5320 C   0  0  0  0  0  0  0  0  0  0  0  0
  186.3990  177.7020  146.7380 C   0  0  0  0  0  3  0  0  0  0  0  0
  191.2640  177.4190  146.1090 C   0  0  0  0  0  3  0  0  0  0  0  0
  188.3720  176.1650  142.5610 C   0  0  0  0  0  2  0  0  0  0  0  0
  187.1500  176.9300  143.0910 C   0  0  2  0  0  3  0  0  0  0  0  0
  190.5680  177.0330  141.7620 C   0  0  0  0  0  0  0  0  0  0  0  0
  189.8130  177.6040  144.1060 C   0  0  2  0  0  3  0  0  0  0  0  0
  186.2250  177.4120  145.3790 C   0  0  0  0  0  3  0  0  0  0  0  0
  187.8710  178.8880  141.6890 C   0  0  0  0  0  2  0  0  0  0  0  0
  186.4380  178.7620  139.8500 C   0  0  0  0  0  1  0  0  0  0  0  0
  186.7470  178.1170  142.2100 C   0  0  1  0  0  0  0  0  0  0  0  0
  187.1790  177.9380  140.7980 N   0  0  0  0  0  0  0  0  0  0  0  0
  185.4510  178.8690  142.4550 C   0  0  0  0  0  0  0  0  0  0  0  0
  185.4480  180.0160  143.1340 C   0  0  0  0  0  2  0  0  0  0  0  0
  183.8820  178.1600  141.9530 S   0  0  0  0  0  1  0  0  0  0  0  0
  191.2300  176.5450  139.3760 C   0  0  0  0  0  2  0  0  0  0  0  0
  191.2000  175.0120  136.8310 C   0  0  0  0  0  1  0  0  0  0  0  0
  190.4480  177.0090  138.1920 C   0  0  0  0  0  0  0  0  0  0  0  0
  190.4430  176.2880  136.9820 C   0  0  0  0  0  0  0  0  0  0  0  0
  189.0000  177.9680  135.9910 C   0  0  0  0  0  3  0  0  0  0  0  0
  189.0100  178.6870  137.1890 C   0  0  0  0  0  3  0  0  0  0  0  0
  189.7340  178.2100  138.2850 C   0  0  0  0  0  3  0  0  0  0  0  0
  189.7170  176.7720  135.8890 C   0  0  0  0  0  3  0  0  0  0  0  0
  1 11  2  0  0  0  0
  2  6  1  0  0  0  0
  3  8  1  0  0  0  0
  4 18  1  0  0  0  0
  6  5  2  0  0  0  0
  7 14  2  0  0  0  0
  8  2  2  0  0  0  0
  8  1  1  0  0  0  0
  9 17  1  0  0  0  0
 11  5  1  0  0  0  0
 12  3  2  0  0  0  0
 12 19  1  0  0  0  0
 13  1  1  0  0  0  0
 14  2  1  0  0  0  0
 15  4  1  0  0  0  0
 16 15  1  6  0  0  0
 16 12  1  0  0  0  0
 17 10  2  0  0  0  0
 17  4  1  0  0  0  0
 18  7  1  1  0  0  0
 18  3  1  0  0  0  0
 19 13  2  0  0  0  0
 20 22  1  0  0  0  0
 21 23  1  0  0  0  0
 22 24  1  1  0  0  0
 22 16  1  0  0  0  0
 23 20  1  0  0  0  0
 23 22  1  0  0  0  0
 24 25  2  0  0  0  0
 26 24  1  0  0  0  0
 27  9  1  0  0  0  0
 28 30  1  0  0  0  0
 29 33  1  0  0  0  0
 29 27  1  0  0  0  0
 30 29  2  0  0  0  0
 31 32  1  0  0  0  0
 32 33  2  0  0  0  0
 34 31  2  0  0  0  0
 34 30  1  0  0  0  0
M  END
>  <MODEL>
2

>  <REMARK>
 VINA RESULT:      -7.7      5.637     10.318
  Name = 
  4 active torsions:
  status: ('A' for Active; 'I' for Inactive)
    1  A    between atoms: C_3  and  C_13
    2  A    between atoms: C_3  and  N_17
    3  A    between atoms: C_7  and  C_23
    4  A    between atoms: C_23  and  C_28
                            x       y       z     vdW  Elec       q    Type
                         _______ _______ _______ _____ _____    ______ ____

>  <TORSDO>
F 4

$$$$
=
 OpenBabel11052414213D

 34 39  0  0  1  0  0  0  0  0999 V2000
  187.7070  177.7610  147.0420 C   0  0  0  0  0  0  0  0  0  0  0  0
  190.1380  177.7150  146.8230 C   0  0  0  0  0  0  0  0  0  0  0  0
  188.7320  177.4510  144.8510 C   0  0  0  0  0  0  0  0  0  0  0  0
  189.8140  176.8780  142.6750 N   0  0  0  0  0  0  0  0  0  0  0  0
  189.1120  178.0900  148.9880 C   0  0  0  0  0  3  0  0  0  0  0  0
  190.2570  177.9320  148.1980 C   0  0  0  0  0  3  0  0  0  0  0  0
  191.2370  177.2790  144.6820 C   0  0  0  0  0  3  0  0  0  0  0  0
  188.8600  177.6600  146.2350 C   0  0  0  0  0  0  0  0  0  0  0  0
  190.6240  176.4100  140.3750 N   0  0  0  0  0  2  0  0  0  0  0  0
  191.7950  177.8020  141.8290 O   0  0  0  0  0  0  0  0  0  0  0  0
  187.8390  177.9960  148.4130 C   0  0  0  0  0  3  0  0  0  0  0  0
  187.4620  177.2390  144.2940 C   0  0  0  0  0  0  0  0  0  0  0  0
  186.4410  177.5990  146.4690 C   0  0  0  0  0  3  0  0  0  0  0  0
  191.3300  177.4030  146.0110 C   0  0  0  0  0  3  0  0  0  0  0  0
  188.5870  176.1430  142.3490 C   0  0  0  0  0  2  0  0  0  0  0  0
  187.3350  176.8820  142.8430 C   0  0  2  0  0  3  0  0  0  0  0  0
  190.7950  177.0560  141.6380 C   0  0  0  0  0  0  0  0  0  0  0  0
  189.9480  177.5870  143.9590 C   0  0  2  0  0  3  0  0  0  0  0  0
  186.3210  177.3230  145.1010 C   0  0  0  0  0  3  0  0  0  0  0  0
  188.0730  178.8560  141.4720 C   0  0  0  0  0  2  0  0  0  0  0  0
  186.6850  178.7330  139.5990 C   0  0  0  0  0  1  0  0  0  0  0  0
  186.9430  178.0730  141.9610 C   0  0  1  0  0  0  0  0  0  0  0  0
  187.4090  177.9070  140.5590 N   0  0  0  0  0  0  0  0  0  0  0  0
  185.6360  178.8130  142.1820 C   0  0  0  0  0  0  0  0  0  0  0  0
  185.6090  179.9540  142.8700 C   0  0  0  0  0  2  0  0  0  0  0  0
  184.0850  178.0970  141.6360 S   0  0  0  0  0  1  0  0  0  0  0  0
  191.5490  176.6070  139.2720 C   0  0  0  0  0  2  0  0  0  0  0  0
  189.6040  177.9960  137.5070 C   0  0  0  0  0  1  0  0  0  0  0  0
  191.0090  175.9580  138.0410 C   0  0  0  0  0  0  0  0  0  0  0  0
  190.0770  176.6130  137.2100 C   0  0  0  0  0  0  0  0  0  0  0  0
  189.9930  174.6600  135.7740 C   0  0  0  0  0  3  0  0  0  0  0  0
  190.9110  174.0080  136.6010 C   0  0  0  0  0  3  0  0  0  0  0  0
  191.4150  174.6550  137.7320 C   0  0  0  0  0  3  0  0  0  0  0  0
  189.5770  175.9590  136.0790 C   0  0  0  0  0  3  0  0  0  0  0  0
  1 11  2  0  0  0  0
  2  6  1  0  0  0  0
  3  8  1  0  0  0  0
  4 18  1  0  0  0  0
  6  5  2  0  0  0  0
  7 14  2  0  0  0  0
  8  2  2  0  0  0  0
  8  1  1  0  0  0  0
  9 17  1  0  0  0  0
 11  5  1  0  0  0  0
 12  3  2  0  0  0  0
 12 19  1  0  0  0  0
 13  1  1  0  0  0  0
 14  2  1  0  0  0  0
 15  4  1  0  0  0  0
 16 15  1  6  0  0  0
 16 12  1  0  0  0  0
 17 10  2  0  0  0  0
 17  4  1  0  0  0  0
 18  7  1  1  0  0  0
 18  3  1  0  0  0  0
 19 13  2  0  0  0  0
 20 22  1  0  0  0  0
 21 23  1  0  0  0  0
 22 24  1  1  0  0  0
 22 16  1  0  0  0  0
 23 20  1  0  0  0  0
 23 22  1  0  0  0  0
 24 25  2  0  0  0  0
 26 24  1  0  0  0  0
 27  9  1  0  0  0  0
 29 27  1  0  0  0  0
 30 28  1  0  0  0  0
 30 29  2  0  0  0  0
 31 34  2  0  0  0  0
 31 32  1  0  0  0  0
 32 33  2  0  0  0  0
 33 29  1  0  0  0  0
 34 30  1  0  0  0  0
M  END
>  <MODEL>
3

>  <REMARK>
 VINA RESULT:      -7.3      5.714     10.442
  Name = 
  4 active torsions:
  status: ('A' for Active; 'I' for Inactive)
    1  A    between atoms: C_3  and  C_13
    2  A    between atoms: C_3  and  N_17
    3  A    between atoms: C_7  and  C_23
    4  A    between atoms: C_23  and  C_28
                            x       y       z     vdW  Elec       q    Type
                         _______ _______ _______ _____ _____    ______ ____

>  <TORSDO>
F 4

$$$$
=
 OpenBabel11052414213D

 34 39  0  0  1  0  0  0  0  0999 V2000
  192.0040  176.0500  135.5810 C   0  0  0  0  0  0  0  0  0  0  0  0
  192.6970  176.1420  137.9200 C   0  0  0  0  0  0  0  0  0  0  0  0
  190.4460  176.8240  137.2900 C   0  0  0  0  0  0  0  0  0  0  0  0
  188.9740  177.8520  139.0260 N   0  0  0  0  0  0  0  0  0  0  0  0
  194.2190  175.3090  136.2260 C   0  0  0  0  0  3  0  0  0  0  0  0
  193.9490  175.6330  137.5610 C   0  0  0  0  0  3  0  0  0  0  0  0
  191.2370  177.0280  139.6710 C   0  0  0  0  0  3  0  0  0  0  0  0
  191.7090  176.3220  136.9350 C   0  0  0  0  0  0  0  0  0  0  0  0
  187.2700  178.8050  140.5600 N   0  0  0  0  0  2  0  0  0  0  0  0
  188.7400  177.1330  141.2440 O   0  0  0  0  0  0  0  0  0  0  0  0
  193.2520  175.5250  135.2360 C   0  0  0  0  0  3  0  0  0  0  0  0
  189.5200  177.1520  136.2890 C   0  0  0  0  0  0  0  0  0  0  0  0
  191.0550  176.3310  134.5940 C   0  0  0  0  0  3  0  0  0  0  0  0
  192.4550  176.6220  139.2950 C   0  0  0  0  0  3  0  0  0  0  0  0
  188.3790  178.6400  137.9410 C   0  0  0  0  0  2  0  0  0  0  0  0
  188.2250  177.8120  136.6570 C   0  0  2  0  0  3  0  0  0  0  0  0
  188.3520  177.9020  140.3220 C   0  0  0  0  0  0  0  0  0  0  0  0
  190.0490  176.8830  138.7500 C   0  0  2  0  0  3  0  0  0  0  0  0
  189.8220  176.8960  134.9450 C   0  0  0  0  0  3  0  0  0  0  0  0
  185.9470  177.2610  137.5670 C   0  0  0  0  0  2  0  0  0  0  0  0
  184.8260  176.4380  135.6920 C   0  0  0  0  0  1  0  0  0  0  0  0
  187.0410  176.8390  136.6990 C   0  0  1  0  0  0  0  0  0  0  0  0
  185.8110  177.4310  136.1080 N   0  0  0  0  0  0  0  0  0  0  0  0
  187.2510  175.3450  136.5300 C   0  0  0  0  0  0  0  0  0  0  0  0
  187.4450  174.5620  137.5910 C   0  0  0  0  0  2  0  0  0  0  0  0
  187.3740  174.6250  134.8920 S   0  0  0  0  0  1  0  0  0  0  0  0
  186.5640  178.8500  141.8290 C   0  0  0  0  0  2  0  0  0  0  0  0
  184.6220  178.5840  144.0620 C   0  0  0  0  0  1  0  0  0  0  0  0
  185.0910  178.8210  141.5860 C   0  0  0  0  0  0  0  0  0  0  0  0
  184.1710  178.6820  142.6440 C   0  0  0  0  0  0  0  0  0  0  0  0
  182.3420  178.7170  141.0520 C   0  0  0  0  0  3  0  0  0  0  0  0
  183.2540  178.8470  140.0020 C   0  0  0  0  0  3  0  0  0  0  0  0
  184.6250  178.8950  140.2690 C   0  0  0  0  0  3  0  0  0  0  0  0
  182.8010  178.6340  142.3690 C   0  0  0  0  0  3  0  0  0  0  0  0
  1  8  1  0  0  0  0
  2 14  1  0  0  0  0
  3 18  1  0  0  0  0
  4 17  1  0  0  0  0
  5  6  2  0  0  0  0
  6  2  1  0  0  0  0
  8  3  1  0  0  0  0
  8  2  2  0  0  0  0
  9 27  1  0  0  0  0
 11  1  2  0  0  0  0
 11  5  1  0  0  0  0
 12 16  1  0  0  0  0
 12  3  2  0  0  0  0
 13 19  2  0  0  0  0
 13  1  1  0  0  0  0
 14  7  2  0  0  0  0
 15  4  1  0  0  0  0
 16 22  1  0  0  0  0
 16 15  1  1  0  0  0
 17  9  1  0  0  0  0
 17 10  2  0  0  0  0
 18  4  1  0  0  0  0
 18  7  1  1  0  0  0
 19 12  1  0  0  0  0
 21 23  1  0  0  0  0
 22 24  1  6  0  0  0
 22 20  1  0  0  0  0
 23 22  1  0  0  0  0
 23 20  1  0  0  0  0
 24 25  2  0  0  0  0
 26 24  1  0  0  0  0
 29 27  1  0  0  0  0
 29 30  1  0  0  0  0
 30 28  1  0  0  0  0
 31 34  1  0  0  0  0
 32 33  1  0  0  0  0
 32 31  2  0  0  0  0
 33 29  2  0  0  0  0
 34 30  2  0  0  0  0
M  END
>  <MODEL>
4

>  <REMARK>
 VINA RESULT:      -7.0      5.193      8.441
  Name = 
  4 active torsions:
  status: ('A' for Active; 'I' for Inactive)
    1  A    between atoms: C_3  and  C_13
    2  A    between atoms: C_3  and  N_17
    3  A    between atoms: C_7  and  C_23
    4  A    between atoms: C_23  and  C_28
                            x       y       z     vdW  Elec       q    Type
                         _______ _______ _______ _____ _____    ______ ____

>  <TORSDO>
F 4

$$$$
=
 OpenBabel11052414213D

 34 39  0  0  1  0  0  0  0  0999 V2000
  182.4840  178.7860  143.3420 C   0  0  0  0  0  0  0  0  0  0  0  0
  184.9010  178.8440  143.0010 C   0  0  0  0  0  0  0  0  0  0  0  0
  183.4130  178.4590  141.1110 C   0  0  0  0  0  0  0  0  0  0  0  0
  184.4130  177.8740  138.8990 N   0  0  0  0  0  0  0  0  0  0  0  0
  183.9670  179.2350  145.2050 C   0  0  0  0  0  3  0  0  0  0  0  0
  185.0780  179.1060  144.3630 C   0  0  0  0  0  3  0  0  0  0  0  0
  185.9130  178.3970  140.8200 C   0  0  0  0  0  3  0  0  0  0  0  0
  183.6000  178.7140  142.4810 C   0  0  0  0  0  0  0  0  0  0  0  0
  185.1290  177.3760  136.5740 N   0  0  0  0  0  2  0  0  0  0  0  0
  186.3040  178.8610  137.9300 O   0  0  0  0  0  0  0  0  0  0  0  0
  182.6730  179.0660  144.6980 C   0  0  0  0  0  3  0  0  0  0  0  0
  182.1290  178.1740  140.6250 C   0  0  0  0  0  0  0  0  0  0  0  0
  181.2010  178.5500  142.8380 C   0  0  0  0  0  3  0  0  0  0  0  0
  186.0650  178.5630  142.1390 C   0  0  0  0  0  3  0  0  0  0  0  0
  183.2070  177.0750  138.6550 C   0  0  0  0  0  2  0  0  0  0  0  0
  181.9470  177.7700  139.1920 C   0  0  2  0  0  3  0  0  0  0  0  0
  185.3320  178.0650  137.8100 C   0  0  0  0  0  0  0  0  0  0  0  0
  184.5770  178.6250  140.1560 C   0  0  2  0  0  3  0  0  0  0  0  0
  181.0270  178.2290  141.4860 C   0  0  0  0  0  3  0  0  0  0  0  0
  181.7050  178.7160  136.8750 C   0  0  0  0  0  2  0  0  0  0  0  0
  179.5450  179.6020  136.9030 C   0  0  0  0  0  1  0  0  0  0  0  0
  181.4580  178.9160  138.3000 C   0  0  1  0  0  0  0  0  0  0  0  0
  180.3470  178.4920  137.4060 N   0  0  0  0  0  0  0  0  0  0  0  0
  181.4450  180.3480  138.8020 C   0  0  0  0  0  0  0  0  0  0  0  0
  182.4970  181.1440  138.6140 C   0  0  0  0  0  2  0  0  0  0  0  0
  180.0670  180.9550  139.7770 S   0  0  0  0  0  1  0  0  0  0  0  0
  185.9890  177.5830  135.4210 C   0  0  0  0  0  2  0  0  0  0  0  0
  188.9180  177.7830  135.8780 C   0  0  0  0  0  1  0  0  0  0  0  0
  186.8900  176.4050  135.2480 C   0  0  0  0  0  0  0  0  0  0  0  0
  188.2800  176.5030  135.4530 C   0  0  0  0  0  0  0  0  0  0  0  0
  188.5300  174.1670  134.8520 C   0  0  0  0  0  3  0  0  0  0  0  0
  187.1520  174.0710  134.6420 C   0  0  0  0  0  3  0  0  0  0  0  0
  186.3350  175.1880  134.8370 C   0  0  0  0  0  3  0  0  0  0  0  0
  189.0910  175.3810  135.2560 C   0  0  0  0  0  3  0  0  0  0  0  0
  1 11  2  0  0  0  0
  2  6  1  0  0  0  0
  3  8  1  0  0  0  0
  4 18  1  0  0  0  0
  6  5  2  0  0  0  0
  7 14  2  0  0  0  0
  8  2  2  0  0  0  0
  8  1  1  0  0  0  0
  9 17  1  0  0  0  0
 11  5  1  0  0  0  0
 12  3  2  0  0  0  0
 12 19  1  0  0  0  0
 13  1  1  0  0  0  0
 14  2  1  0  0  0  0
 15  4  1  0  0  0  0
 16 15  1  6  0  0  0
 16 12  1  0  0  0  0
 17 10  2  0  0  0  0
 17  4  1  0  0  0  0
 18  7  1  1  0  0  0
 18  3  1  0  0  0  0
 19 13  2  0  0  0  0
 20 23  1  0  0  0  0
 20 22  1  0  0  0  0
 21 23  1  0  0  0  0
 22 24  1  1  0  0  0
 22 16  1  0  0  0  0
 23 22  1  0  0  0  0
 24 26  1  0  0  0  0
 25 24  2  0  0  0  0
 27  9  1  0  0  0  0
 29 27  1  0  0  0  0
 29 30  1  0  0  0  0
 30 28  1  0  0  0  0
 31 34  1  0  0  0  0
 32 33  1  0  0  0  0
 32 31  2  0  0  0  0
 33 29  2  0  0  0  0
 34 30  2  0  0  0  0
M  END
>  <MODEL>
5

>  <REMARK>
 VINA RESULT:      -7.0      2.777      7.179
  Name = 
  4 active torsions:
  status: ('A' for Active; 'I' for Inactive)
    1  A    between atoms: C_3  and  C_13
    2  A    between atoms: C_3  and  N_17
    3  A    between atoms: C_7  and  C_23
    4  A    between atoms: C_23  and  C_28
                            x       y       z     vdW  Elec       q    Type
                         _______ _______ _______ _____ _____    ______ ____

>  <TORSDO>
F 4

$$$$
=
 OpenBabel11052414213D

 34 39  0  0  1  0  0  0  0  0999 V2000
  189.5970  177.8250  145.9140 C   0  0  0  0  0  0  0  0  0  0  0  0
  187.1860  177.6320  146.2440 C   0  0  0  0  0  0  0  0  0  0  0  0
  188.0720  178.1970  144.0470 C   0  0  0  0  0  0  0  0  0  0  0  0
  186.4730  178.8210  142.2330 N   0  0  0  0  0  0  0  0  0  0  0  0
  188.7110  177.1980  148.0790 C   0  0  0  0  0  3  0  0  0  0  0  0
  187.4050  177.2950  147.5830 C   0  0  0  0  0  3  0  0  0  0  0  0
  185.5900  178.1150  144.4550 C   0  0  0  0  0  3  0  0  0  0  0  0
  188.2840  177.8670  145.3970 C   0  0  0  0  0  0  0  0  0  0  0  0
  185.1190  179.3800  140.2290 N   0  0  0  0  0  2  0  0  0  0  0  0
  184.4370  177.7620  141.7590 O   0  0  0  0  0  0  0  0  0  0  0  0
  189.8050  177.4710  147.2490 C   0  0  0  0  0  3  0  0  0  0  0  0
  189.1560  178.5850  143.2460 C   0  0  0  0  0  0  0  0  0  0  0  0
  190.6780  178.1650  145.0930 C   0  0  0  0  0  3  0  0  0  0  0  0
  185.8170  177.8790  145.7520 C   0  0  0  0  0  3  0  0  0  0  0  0
  187.5250  179.7050  141.7190 C   0  0  0  0  0  2  0  0  0  0  0  0
  188.9160  179.0660  141.8470 C   0  0  2  0  0  3  0  0  0  0  0  0
  185.2980  178.6230  141.4270 C   0  0  0  0  0  0  0  0  0  0  0  0
  186.6990  178.0030  143.4380 C   0  0  2  0  0  3  0  0  0  0  0  0
  190.4560  178.5590  143.7680 C   0  0  0  0  0  3  0  0  0  0  0  0
  188.0020  177.5030  140.1030 C   0  0  0  0  0  2  0  0  0  0  0  0
  189.5400  177.7170  138.3590 C   0  0  0  0  0  1  0  0  0  0  0  0
  189.1930  177.9960  140.7850 C   0  0  1  0  0  0  0  0  0  0  0  0
  188.8730  178.4740  139.4130 N   0  0  0  0  0  0  0  0  0  0  0  0
  190.3520  177.0270  140.9350 C   0  0  0  0  0  0  0  0  0  0  0  0
  190.1840  175.8570  141.5530 C   0  0  0  0  0  2  0  0  0  0  0  0
  192.0010  177.4940  140.4050 S   0  0  0  0  0  1  0  0  0  0  0  0
  183.9840  179.1740  139.3440 C   0  0  0  0  0  2  0  0  0  0  0  0
  182.1980  176.8020  139.2300 C   0  0  0  0  0  1  0  0  0  0  0  0
  184.2630  178.0280  138.4290 C   0  0  0  0  0  0  0  0  0  0  0  0
  183.4220  176.8980  138.3840 C   0  0  0  0  0  0  0  0  0  0  0  0
  184.8770  175.8880  136.7260 C   0  0  0  0  0  3  0  0  0  0  0  0
  185.7140  177.0050  136.7760 C   0  0  0  0  0  3  0  0  0  0  0  0
  185.4090  178.0700  137.6270 C   0  0  0  0  0  3  0  0  0  0  0  0
  183.7340  175.8360  137.5290 C   0  0  0  0  0  3  0  0  0  0  0  0
  1 11  2  0  0  0  0
  2  6  1  0  0  0  0
  3  8  1  0  0  0  0
  4 18  1  0  0  0  0
  6  5  2  0  0  0  0
  7 14  2  0  0  0  0
  8  1  1  0  0  0  0
  8  2  2  0  0  0  0
  9 17  1  0  0  0  0
 11  5  1  0  0  0  0
 12 19  1  0  0  0  0
 12  3  2  0  0  0  0
 13  1  1  0  0  0  0
 14  2  1  0  0  0  0
 15  4  1  0  0  0  0
 16 15  1  1  0  0  0
 16 12  1  0  0  0  0
 17 10  2  0  0  0  0
 17  4  1  0  0  0  0
 18  3  1  0  0  0  0
 18  7  1  1  0  0  0
 19 13  2  0  0  0  0
 20 22  1  0  0  0  0
 21 23  1  0  0  0  0
 22 24  1  1  0  0  0
 22 16  1  0  0  0  0
 23 20  1  0  0  0  0
 23 22  1  0  0  0  0
 24 25  2  0  0  0  0
 26 24  1  0  0  0  0
 27  9  1  0  0  0  0
 29 27  1  0  0  0  0
 30 29  1  0  0  0  0
 30 28  1  0  0  0  0
 31 32  2  0  0  0  0
 31 34  1  0  0  0  0
 32 33  1  0  0  0  0
 33 29  2  0  0  0  0
 34 30  2  0  0  0  0
M  END
>  <MODEL>
6

>  <REMARK>
 VINA RESULT:      -6.6      3.798      9.515
  Name = 
  4 active torsions:
  status: ('A' for Active; 'I' for Inactive)
    1  A    between atoms: C_3  and  C_13
    2  A    between atoms: C_3  and  N_17
    3  A    between atoms: C_7  and  C_23
    4  A    between atoms: C_23  and  C_28
                            x       y       z     vdW  Elec       q    Type
                         _______ _______ _______ _____ _____    ______ ____

>  <TORSDO>
F 4

$$$$
=
 OpenBabel11052414213D

 34 39  0  0  1  0  0  0  0  0999 V2000
  187.1280  177.8770  142.7040 C   0  0  0  0  0  0  0  0  0  0  0  0
  184.9720  178.2730  143.7790 C   0  0  0  0  0  0  0  0  0  0  0  0
  185.1830  178.4760  141.3610 C   0  0  0  0  0  0  0  0  0  0  0  0
  183.2360  179.3400  140.0560 N   0  0  0  0  0  0  0  0  0  0  0  0
  186.8950  177.6120  145.1000 C   0  0  0  0  0  3  0  0  0  0  0  0
  185.5470  177.9810  145.0190 C   0  0  0  0  0  3  0  0  0  0  0  0
  183.0090  179.0020  142.5160 C   0  0  0  0  0  3  0  0  0  0  0  0
  185.7550  178.1910  142.6120 C   0  0  0  0  0  0  0  0  0  0  0  0
  181.4400  180.0730  138.5070 N   0  0  0  0  0  2  0  0  0  0  0  0
  180.9880  178.7590  140.3760 O   0  0  0  0  0  0  0  0  0  0  0  0
  187.6870  177.5700  143.9470 C   0  0  0  0  0  3  0  0  0  0  0  0
  185.9980  178.5490  140.2220 C   0  0  0  0  0  0  0  0  0  0  0  0
  187.9240  177.9020  141.5540 C   0  0  0  0  0  3  0  0  0  0  0  0
  183.5970  178.8020  143.7010 C   0  0  0  0  0  3  0  0  0  0  0  0
  184.2160  179.9200  139.1310 C   0  0  0  0  0  2  0  0  0  0  0  0
  185.4130  178.9830  138.9120 C   0  0  2  0  0  3  0  0  0  0  0  0
  181.8480  179.3710  139.6830 C   0  0  0  0  0  0  0  0  0  0  0  0
  183.6760  178.5700  141.2330 C   0  0  2  0  0  3  0  0  0  0  0  0
  187.3640  178.2530  140.3200 C   0  0  0  0  0  3  0  0  0  0  0  0
  184.0510  176.9220  138.4430 C   0  0  0  0  0  2  0  0  0  0  0  0
  183.5690  177.1280  136.1680 C   0  0  0  0  0  1  0  0  0  0  0  0
  185.1060  177.8130  137.9700 C   0  0  1  0  0  0  0  0  0  0  0  0
  183.7400  177.9070  137.3900 N   0  0  0  0  0  0  0  0  0  0  0  0
  186.1930  177.1970  137.1080 C   0  0  0  0  0  0  0  0  0  0  0  0
  186.4970  175.9040  137.2180 C   0  0  0  0  0  2  0  0  0  0  0  0
  187.1800  178.2260  136.0200 S   0  0  0  0  0  1  0  0  0  0  0  0
  180.0610  180.0810  138.0480 C   0  0  0  0  0  2  0  0  0  0  0  0
  180.7980  179.9750  135.1710 C   0  0  0  0  0  1  0  0  0  0  0  0
  179.8410  181.2460  137.1400 C   0  0  0  0  0  0  0  0  0  0  0  0
  180.2020  181.1990  135.7790 C   0  0  0  0  0  0  0  0  0  0  0  0
  179.4490  183.4890  135.5060 C   0  0  0  0  0  3  0  0  0  0  0  0
  179.0980  183.5380  136.8570 C   0  0  0  0  0  3  0  0  0  0  0  0
  179.2970  182.4200  137.6720 C   0  0  0  0  0  3  0  0  0  0  0  0
  180.0000  182.3220  134.9690 C   0  0  0  0  0  3  0  0  0  0  0  0
  1 11  2  0  0  0  0
  2  6  1  0  0  0  0
  3  8  1  0  0  0  0
  4 18  1  0  0  0  0
  6  5  2  0  0  0  0
  7 14  2  0  0  0  0
  8  1  1  0  0  0  0
  8  2  2  0  0  0  0
  9 17  1  0  0  0  0
 11  5  1  0  0  0  0
 12 19  1  0  0  0  0
 12  3  2  0  0  0  0
 13  1  1  0  0  0  0
 14  2  1  0  0  0  0
 15  4  1  0  0  0  0
 16 15  1  1  0  0  0
 16 12  1  0  0  0  0
 17  4  1  0  0  0  0
 17 10  2  0  0  0  0
 18  3  1  0  0  0  0
 18  7  1  1  0  0  0
 19 13  2  0  0  0  0
 21 23  1  0  0  0  0
 22 24  1  6  0  0  0
 22 20  1  0  0  0  0
 22 16  1  0  0  0  0
 23 22  1  0  0  0  0
 23 20  1  0  0  0  0
 24 25  2  0  0  0  0
 26 24  1  0  0  0  0
 27  9  1  0  0  0  0
 28 30  1  0  0  0  0
 29 33  1  0  0  0  0
 29 27  1  0  0  0  0
 30 29  2  0  0  0  0
 31 32  1  0  0  0  0
 32 33  2  0  0  0  0
 34 31  2  0  0  0  0
 34 30  1  0  0  0  0
M  END
>  <MODEL>
7

>  <REMARK>
 VINA RESULT:      -6.4      1.981      7.852
  Name = 
  4 active torsions:
  status: ('A' for Active; 'I' for Inactive)
    1  A    between atoms: C_3  and  C_13
    2  A    between atoms: C_3  and  N_17
    3  A    between atoms: C_7  and  C_23
    4  A    between atoms: C_23  and  C_28
                            x       y       z     vdW  Elec       q    Type
                         _______ _______ _______ _____ _____    ______ ____

>  <TORSDO>
F 4

$$$$
=
 OpenBabel11052414213D

 34 39  0  0  1  0  0  0  0  0999 V2000
  188.1240  177.8150  142.1010 C   0  0  0  0  0  0  0  0  0  0  0  0
  186.2680  178.0140  143.6750 C   0  0  0  0  0  0  0  0  0  0  0  0
  185.8730  178.2790  141.2860 C   0  0  0  0  0  0  0  0  0  0  0  0
  183.6110  179.0090  140.5180 N   0  0  0  0  0  0  0  0  0  0  0  0
  188.4960  177.4850  144.4710 C   0  0  0  0  0  3  0  0  0  0  0  0
  187.1450  177.7440  144.7290 C   0  0  0  0  0  3  0  0  0  0  0  0
  184.0100  178.6060  142.9470 C   0  0  0  0  0  3  0  0  0  0  0  0
  186.7500  178.0180  142.3520 C   0  0  0  0  0  0  0  0  0  0  0  0
  181.4450  179.6240  139.4720 N   0  0  0  0  0  2  0  0  0  0  0  0
  181.5560  178.2420  141.3430 O   0  0  0  0  0  0  0  0  0  0  0  0
  188.9870  177.5290  143.1610 C   0  0  0  0  0  3  0  0  0  0  0  0
  186.3820  178.4410  139.9890 C   0  0  0  0  0  0  0  0  0  0  0  0
  188.6150  177.9260  140.7960 C   0  0  0  0  0  3  0  0  0  0  0  0
  184.8790  178.4300  143.9480 C   0  0  0  0  0  3  0  0  0  0  0  0
  184.2930  179.6840  139.4090 C   0  0  0  0  0  2  0  0  0  0  0  0
  185.4670  178.8520  138.8740 C   0  0  2  0  0  3  0  0  0  0  0  0
  182.1750  178.9350  140.4900 C   0  0  0  0  0  0  0  0  0  0  0  0
  184.3770  178.2540  141.5250 C   0  0  2  0  0  3  0  0  0  0  0  0
  187.7480  178.2540  139.7460 C   0  0  0  0  0  3  0  0  0  0  0  0
  183.9420  176.8800  138.5450 C   0  0  0  0  0  2  0  0  0  0  0  0
  183.3530  177.0520  136.2920 C   0  0  0  0  0  1  0  0  0  0  0  0
  185.0290  177.6790  137.9890 C   0  0  1  0  0  0  0  0  0  0  0  0
  183.6440  177.8530  137.4770 N   0  0  0  0  0  0  0  0  0  0  0  0
  186.0230  176.9620  137.0930 C   0  0  0  0  0  0  0  0  0  0  0  0
  186.2390  175.6540  137.2280 C   0  0  0  0  0  2  0  0  0  0  0  0
  187.0230  177.8870  135.9250 S   0  0  0  0  0  1  0  0  0  0  0  0
  179.9990  179.5300  139.3570 C   0  0  0  0  0  2  0  0  0  0  0  0
  179.1070  176.7150  139.6810 C   0  0  0  0  0  1  0  0  0  0  0  0
  179.6430  178.6820  138.1810 C   0  0  0  0  0  0  0  0  0  0  0  0
  179.2310  177.3440  138.3350 C   0  0  0  0  0  0  0  0  0  0  0  0
  179.0420  177.1310  135.9260 C   0  0  0  0  0  3  0  0  0  0  0  0
  179.4570  178.4560  135.7730 C   0  0  0  0  0  3  0  0  0  0  0  0
  179.7590  179.2280  136.8980 C   0  0  0  0  0  3  0  0  0  0  0  0
  178.9310  176.5770  137.2040 C   0  0  0  0  0  3  0  0  0  0  0  0
  1  8  1  0  0  0  0
  1 11  2  0  0  0  0
  2 14  1  0  0  0  0
  2  6  1  0  0  0  0
  3 18  1  0  0  0  0
  3  8  1  0  0  0  0
  4 18  1  0  0  0  0
  5  6  2  0  0  0  0
  7 14  2  0  0  0  0
  8  2  2  0  0  0  0
  9 17  1  0  0  0  0
 11  5  1  0  0  0  0
 12  3  2  0  0  0  0
 13  1  1  0  0  0  0
 15  4  1  0  0  0  0
 16 15  1  1  0  0  0
 16 12  1  0  0  0  0
 17  4  1  0  0  0  0
 17 10  2  0  0  0  0
 18  7  1  1  0  0  0
 19 12  1  0  0  0  0
 19 13  2  0  0  0  0
 21 23  1  0  0  0  0
 22 24  1  6  0  0  0
 22 20  1  0  0  0  0
 22 16  1  0  0  0  0
 23 22  1  0  0  0  0
 23 20  1  0  0  0  0
 24 25  2  0  0  0  0
 26 24  1  0  0  0  0
 27  9  1  0  0  0  0
 29 30  1  0  0  0  0
 29 27  1  0  0  0  0
 30 28  1  0  0  0  0
 31 34  1  0  0  0  0
 32 31  2  0  0  0  0
 32 33  1  0  0  0  0
 33 29  2  0  0  0  0
 34 30  2  0  0  0  0
M  END
>  <MODEL>
8

>  <REMARK>
 VINA RESULT:      -5.9      2.217      7.682
  Name = 
  4 active torsions:
  status: ('A' for Active; 'I' for Inactive)
    1  A    between atoms: C_3  and  C_13
    2  A    between atoms: C_3  and  N_17
    3  A    between atoms: C_7  and  C_23
    4  A    between atoms: C_23  and  C_28
                            x       y       z     vdW  Elec       q    Type
                         _______ _______ _______ _____ _____    ______ ____

>  <TORSDO>
F 4

$$$$
=
 OpenBabel11052414213D

 34 39  0  0  1  0  0  0  0  0999 V2000
  190.9630  176.6310  141.3210 C   0  0  0  0  0  0  0  0  0  0  0  0
  189.5160  177.8420  139.7720 C   0  0  0  0  0  0  0  0  0  0  0  0
  188.7370  177.3370  142.0240 C   0  0  0  0  0  0  0  0  0  0  0  0
  186.3640  177.8460  142.6140 N   0  0  0  0  0  0  0  0  0  0  0  0
  191.7550  177.1970  139.1030 C   0  0  0  0  0  3  0  0  0  0  0  0
  190.5250  177.7960  138.8060 C   0  0  0  0  0  3  0  0  0  0  0  0
  187.2250  178.4680  140.3580 C   0  0  0  0  0  3  0  0  0  0  0  0
  189.7440  177.2870  141.0450 C   0  0  0  0  0  0  0  0  0  0  0  0
  184.0980  178.3330  143.5020 N   0  0  0  0  0  2  0  0  0  0  0  0
  185.1790  179.7830  142.0340 O   0  0  0  0  0  0  0  0  0  0  0  0
  191.9710  176.6070  140.3540 C   0  0  0  0  0  3  0  0  0  0  0  0
  188.9060  176.6460  143.2330 C   0  0  0  0  0  0  0  0  0  0  0  0
  191.1430  175.9880  142.5500 C   0  0  0  0  0  3  0  0  0  0  0  0
  188.1710  178.3390  139.4210 C   0  0  0  0  0  3  0  0  0  0  0  0
  186.4220  176.6870  143.5110 C   0  0  0  0  0  2  0  0  0  0  0  0
  187.7800  176.5860  144.2210 C   0  0  2  0  0  3  0  0  0  0  0  0
  185.2080  178.6980  142.6790 C   0  0  0  0  0  0  0  0  0  0  0  0
  187.5390  178.2410  141.8180 C   0  0  2  0  0  3  0  0  0  0  0  0
  190.1110  175.9820  143.4960 C   0  0  0  0  0  3  0  0  0  0  0  0
  186.9280  178.6340  145.4050 C   0  0  0  0  0  2  0  0  0  0  0  0
  187.1240  178.0480  147.6570 C   0  0  0  0  0  1  0  0  0  0  0  0
  187.9380  177.5810  145.3760 C   0  0  1  0  0  0  0  0  0  0  0  0
  186.8100  177.5000  146.3420 N   0  0  0  0  0  0  0  0  0  0  0  0
  189.3090  177.9260  145.9290 C   0  0  0  0  0  0  0  0  0  0  0  0
  190.0210  178.9250  145.4070 C   0  0  0  0  0  2  0  0  0  0  0  0
  190.0540  176.9120  147.2070 S   0  0  0  0  0  1  0  0  0  0  0  0
  182.9330  179.1890  143.6560 C   0  0  0  0  0  2  0  0  0  0  0  0
  180.0800  178.8720  144.4240 C   0  0  0  0  0  1  0  0  0  0  0  0
  181.8920  178.8060  142.6580 C   0  0  0  0  0  0  0  0  0  0  0  0
  180.5410  178.6440  143.0250 C   0  0  0  0  0  0  0  0  0  0  0  0
  179.9990  178.0300  140.7420 C   0  0  0  0  0  3  0  0  0  0  0  0
  181.3390  178.1830  140.3790 C   0  0  0  0  0  3  0  0  0  0  0  0
  182.2830  178.5670  141.3350 C   0  0  0  0  0  3  0  0  0  0  0  0
  179.6020  178.2590  142.0620 C   0  0  0  0  0  3  0  0  0  0  0  0
  1 13  1  0  0  0  0
  2  8  1  0  0  0  0
  3 12  2  0  0  0  0
  4 17  1  0  0  0  0
  4 15  1  0  0  0  0
  5 11  2  0  0  0  0
  6  5  1  0  0  0  0
  6  2  2  0  0  0  0
  8  1  2  0  0  0  0
  8  3  1  0  0  0  0
  9 27  1  0  0  0  0
 10 17  2  0  0  0  0
 11  1  1  0  0  0  0
 12 19  1  0  0  0  0
 12 16  1  0  0  0  0
 13 19  2  0  0  0  0
 14  2  1  0  0  0  0
 14  7  2  0  0  0  0
 16 15  1  6  0  0  0
 16 22  1  0  0  0  0
 17  9  1  0  0  0  0
 18  7  1  6  0  0  0
 18  3  1  0  0  0  0
 18  4  1  0  0  0  0
 20 23  1  0  0  0  0
 22 20  1  0  0  0  0
 22 24  1  1  0  0  0
 22 23  1  0  0  0  0
 23 21  1  0  0  0  0
 24 26  1  0  0  0  0
 25 24  2  0  0  0  0
 29 30  1  0  0  0  0
 29 27  1  0  0  0  0
 30 28  1  0  0  0  0
 31 34  1  0  0  0  0
 32 31  2  0  0  0  0
 32 33  1  0  0  0  0
 33 29  2  0  0  0  0
 34 30  2  0  0  0  0
M  END
>  <MODEL>
9

>  <REMARK>
 VINA RESULT:      -5.6      4.577      9.183
  Name = 
  4 active torsions:
  status: ('A' for Active; 'I' for Inactive)
    1  A    between atoms: C_3  and  C_13
    2  A    between atoms: C_3  and  N_17
    3  A    between atoms: C_7  and  C_23
    4  A    between atoms: C_23  and  C_28
                            x       y       z     vdW  Elec       q    Type
                         _______ _______ _______ _____ _____    ______ ____

>  <TORSDO>
F 4

$$$$
