=
 OpenBabel11052413553D

 34 39  0  0  1  0  0  0  0  0999 V2000
  185.3770  178.8540  144.3320 C   0  0  0  0  0  0  0  0  0  0  0  0
  187.0850  177.1200  144.3210 C   0  0  0  0  0  0  0  0  0  0  0  0
  186.3680  178.2500  142.1840 C   0  0  0  0  0  0  0  0  0  0  0  0
  187.5510  178.2310  140.0260 N   0  0  0  0  0  0  0  0  0  0  0  0
  186.2390  177.9980  146.4200 C   0  0  0  0  0  3  0  0  0  0  0  0
  187.0600  177.1190  145.7190 C   0  0  0  0  0  3  0  0  0  0  0  0
  188.8730  177.7770  141.7620 C   0  0  0  0  0  3  0  0  0  0  0  0
  186.3110  178.0700  143.5980 C   0  0  0  0  0  0  0  0  0  0  0  0
  188.7930  178.1350  139.5320 C   0  0  0  0  0  3  0  0  0  0  0  0
  185.3780  178.8430  145.7270 C   0  0  0  0  0  3  0  0  0  0  0  0
  185.3110  178.9340  141.5340 C   0  0  0  0  0  0  0  0  0  0  0  0
  184.4150  179.6170  143.6710 C   0  0  0  0  0  3  0  0  0  0  0  0
  187.8240  175.7020  143.5840 Cl  0  0  0  0  0  0  0  0  0  0  0  0
  186.4440  178.7510  139.3450 N   0  0  0  0  0  2  0  0  0  0  0  0
  185.1590  178.9090  140.0260 C   0  0  1  0  0  3  0  0  0  0  0  0
  189.6200  177.8320  140.5950 C   0  0  0  0  0  0  0  0  0  0  0  0
  187.5680  177.9930  141.3470 C   0  0  0  0  0  0  0  0  0  0  0  0
  184.3570  179.6210  142.2820 C   0  0  0  0  0  3  0  0  0  0  0  0
  183.4860  176.1480  138.0070 C   0  0  0  0  0  0  0  0  0  0  0  0
  182.4420  175.7870  138.8640 C   0  0  0  0  0  3  0  0  0  0  0  0
  184.2150  177.8250  139.6040 C   0  0  0  0  0  0  0  0  0  0  0  0
  182.2840  176.4410  140.0890 C   0  0  0  0  0  3  0  0  0  0  0  0
  184.3720  177.1640  138.3760 C   0  0  0  0  0  3  0  0  0  0  0  0
  183.1700  177.4570  140.4590 C   0  0  0  0  0  3  0  0  0  0  0  0
  183.6400  175.5130  136.8210 F   0  0  0  0  0  0  0  0  0  0  0  0
  191.0880  177.6110  140.5050 C   0  0  0  0  0  2  0  0  0  0  0  0
  191.7230  178.0460  141.7410 N   0  0  0  0  0  2  0  0  0  0  0  0
  191.0800  179.5840  144.1000 C   0  0  0  0  0  1  0  0  0  0  0  0
  191.5500  177.3760  142.9950 C   0  0  0  0  0  0  0  0  0  0  0  0
  191.2370  178.1410  144.1770 N   0  0  0  0  0  0  0  0  0  0  0  0
  191.8650  176.2240  145.5710 C   0  0  0  0  0  2  0  0  0  0  0  0
  191.5420  175.3210  144.3860 C   0  0  0  0  0  2  0  0  0  0  0  0
  191.7400  176.0520  143.0900 C   0  0  0  0  0  3  0  0  0  0  0  0
  191.0220  177.4900  145.4690 C   0  0  0  0  0  2  0  0  0  0  0  0
  1 10  2  0  0  0  0
  2  6  1  0  0  0  0
  3  8  1  0  0  0  0
  4 17  1  0  0  0  0
  6  5  2  0  0  0  0
  8  2  2  0  0  0  0
  8  1  1  0  0  0  0
  9  4  1  0  0  0  0
  9 16  2  0  0  0  0
 10  5  1  0  0  0  0
 11  3  2  0  0  0  0
 11 18  1  0  0  0  0
 12  1  1  0  0  0  0
 13  2  1  0  0  0  0
 14  4  1  0  0  0  0
 14 15  1  0  0  0  0
 15 21  1  1  0  0  0
 15 11  1  0  0  0  0
 16  7  1  0  0  0  0
 17  7  2  0  0  0  0
 17  3  1  0  0  0  0
 18 12  2  0  0  0  0
 19 23  2  0  0  0  0
 19 20  1  0  0  0  0
 20 22  2  0  0  0  0
 21 24  2  0  0  0  0
 22 24  1  0  0  0  0
 23 21  1  0  0  0  0
 25 19  1  0  0  0  0
 26 16  1  0  0  0  0
 26 27  1  0  0  0  0
 27 29  1  0  0  0  0
 28 30  1  0  0  0  0
 29 33  2  0  0  0  0
 29 30  1  0  0  0  0
 30 34  1  0  0  0  0
 32 31  1  0  0  0  0
 33 32  1  0  0  0  0
 34 31  1  0  0  0  0
M  END
>  <MODEL>
1

>  <REMARK>
 VINA RESULT:      -8.8      0.000      0.000
  Name = 
  4 active torsions:
  status: ('A' for Active; 'I' for Inactive)
    1  A    between atoms: N_3  and  C_13
    2  A    between atoms: N_3  and  C_17
    3  A    between atoms: C_12  and  C_28
    4  A    between atoms: C_17  and  C_29
                            x       y       z     vdW  Elec       q    Type
                         _______ _______ _______ _____ _____    ______ ____

>  <TORSDO>
F 4

$$$$
=
 OpenBabel11052413553D

 34 39  0  0  1  0  0  0  0  0999 V2000
  185.3760  178.9140  144.7560 C   0  0  0  0  0  0  0  0  0  0  0  0
  187.0480  177.1760  144.4300 C   0  0  0  0  0  0  0  0  0  0  0  0
  186.0070  178.3610  142.4640 C   0  0  0  0  0  0  0  0  0  0  0  0
  186.8310  178.3930  140.1450 N   0  0  0  0  0  0  0  0  0  0  0  0
  186.5550  178.0040  146.6590 C   0  0  0  0  0  3  0  0  0  0  0  0
  187.2480  177.1400  145.8140 C   0  0  0  0  0  3  0  0  0  0  0  0
  188.4100  177.8930  141.6350 C   0  0  0  0  0  3  0  0  0  0  0  0
  186.1750  178.1460  143.8630 C   0  0  0  0  0  0  0  0  0  0  0  0
  187.9770  178.3070  139.4570 C   0  0  0  0  0  3  0  0  0  0  0  0
  185.5990  178.8680  146.1330 C   0  0  0  0  0  3  0  0  0  0  0  0
  184.8650  179.0640  142.0070 C   0  0  0  0  0  0  0  0  0  0  0  0
  184.3260  179.6950  144.2760 C   0  0  0  0  0  3  0  0  0  0  0  0
  187.6520  175.7760  143.5500 Cl  0  0  0  0  0  0  0  0  0  0  0  0
  185.6330  178.9330  139.6620 N   0  0  0  0  0  2  0  0  0  0  0  0
  184.4740  179.0770  140.5430 C   0  0  1  0  0  3  0  0  0  0  0  0
  188.9620  177.9760  140.3660 C   0  0  0  0  0  0  0  0  0  0  0  0
  187.0570  178.1220  141.4400 C   0  0  0  0  0  0  0  0  0  0  0  0
  184.0460  179.7340  142.9150 C   0  0  0  0  0  3  0  0  0  0  0  0
  181.2480  177.0560  140.5010 C   0  0  0  0  0  0  0  0  0  0  0  0
  181.6080  175.9970  139.6620 C   0  0  0  0  0  3  0  0  0  0  0  0
  183.4680  178.0060  140.2510 C   0  0  0  0  0  0  0  0  0  0  0  0
  182.8940  175.9420  139.1170 C   0  0  0  0  0  3  0  0  0  0  0  0
  182.1750  178.0590  140.7950 C   0  0  0  0  0  3  0  0  0  0  0  0
  183.8220  176.9450  139.4100 C   0  0  0  0  0  3  0  0  0  0  0  0
  180.0020  177.1100  141.0280 F   0  0  0  0  0  0  0  0  0  0  0  0
  190.3950  177.7530  140.0370 C   0  0  0  0  0  2  0  0  0  0  0  0
  190.5640  176.4220  139.4710 N   0  0  0  0  0  2  0  0  0  0  0  0
  189.0690  175.3940  137.2240 C   0  0  0  0  0  1  0  0  0  0  0  0
  191.2360  176.1720  138.2310 C   0  0  0  0  0  0  0  0  0  0  0  0
  190.4950  175.6510  137.1090 N   0  0  0  0  0  0  0  0  0  0  0  0
  192.6010  175.0340  136.0170 C   0  0  0  0  0  2  0  0  0  0  0  0
  193.2850  176.1270  136.8320 C   0  0  0  0  0  2  0  0  0  0  0  0
  192.5590  176.3580  138.1260 C   0  0  0  0  0  3  0  0  0  0  0  0
  191.1380  175.4120  135.8170 C   0  0  0  0  0  2  0  0  0  0  0  0
  1 10  2  0  0  0  0
  2  6  1  0  0  0  0
  3  8  1  0  0  0  0
  4 17  1  0  0  0  0
  6  5  2  0  0  0  0
  8  2  2  0  0  0  0
  8  1  1  0  0  0  0
  9  4  1  0  0  0  0
  9 16  2  0  0  0  0
 10  5  1  0  0  0  0
 11  3  2  0  0  0  0
 11 18  1  0  0  0  0
 12  1  1  0  0  0  0
 13  2  1  0  0  0  0
 14  4  1  0  0  0  0
 14 15  1  0  0  0  0
 15 21  1  1  0  0  0
 15 11  1  0  0  0  0
 16  7  1  0  0  0  0
 17  7  2  0  0  0  0
 17  3  1  0  0  0  0
 18 12  2  0  0  0  0
 19 23  1  0  0  0  0
 19 25  1  0  0  0  0
 20 19  2  0  0  0  0
 21 23  2  0  0  0  0
 22 24  2  0  0  0  0
 22 20  1  0  0  0  0
 24 21  1  0  0  0  0
 26 16  1  0  0  0  0
 27 26  1  0  0  0  0
 29 27  1  0  0  0  0
 30 28  1  0  0  0  0
 30 29  1  0  0  0  0
 31 32  1  0  0  0  0
 32 33  1  0  0  0  0
 33 29  2  0  0  0  0
 34 31  1  0  0  0  0
 34 30  1  0  0  0  0
M  END
>  <MODEL>
2

>  <REMARK>
 VINA RESULT:      -8.8      2.332      3.856
  Name = 
  4 active torsions:
  status: ('A' for Active; 'I' for Inactive)
    1  A    between atoms: N_3  and  C_13
    2  A    between atoms: N_3  and  C_17
    3  A    between atoms: C_12  and  C_28
    4  A    between atoms: C_17  and  C_29
                            x       y       z     vdW  Elec       q    Type
                         _______ _______ _______ _____ _____    ______ ____

>  <TORSDO>
F 4

$$$$
=
 OpenBabel11052413553D

 34 39  0  0  1  0  0  0  0  0999 V2000
  185.3650  178.9070  144.7560 C   0  0  0  0  0  0  0  0  0  0  0  0
  187.0440  177.1850  144.3800 C   0  0  0  0  0  0  0  0  0  0  0  0
  185.9450  178.3710  142.4460 C   0  0  0  0  0  0  0  0  0  0  0  0
  186.7110  178.4220  140.1080 N   0  0  0  0  0  0  0  0  0  0  0  0
  186.5980  177.9970  146.6240 C   0  0  0  0  0  3  0  0  0  0  0  0
  187.2770  177.1430  145.7590 C   0  0  0  0  0  3  0  0  0  0  0  0
  188.3300  177.9280  141.5570 C   0  0  0  0  0  3  0  0  0  0  0  0
  186.1490  178.1500  143.8400 C   0  0  0  0  0  0  0  0  0  0  0  0
  187.8410  178.3490  139.3920 C   0  0  0  0  0  3  0  0  0  0  0  0
  185.6220  178.8550  146.1270 C   0  0  0  0  0  3  0  0  0  0  0  0
  184.7860  179.0660  142.0210 C   0  0  0  0  0  0  0  0  0  0  0  0
  184.2970  179.6810  144.3070 C   0  0  0  0  0  3  0  0  0  0  0  0
  187.6370  175.7940  143.4790 Cl  0  0  0  0  0  0  0  0  0  0  0  0
  185.4970  178.9540  139.6580 N   0  0  0  0  0  2  0  0  0  0  0  0
  184.3590  179.0830  140.5670 C   0  0  1  0  0  3  0  0  0  0  0  0
  188.8500  178.0210  140.2750 C   0  0  0  0  0  0  0  0  0  0  0  0
  186.9710  178.1460  141.3960 C   0  0  0  0  0  0  0  0  0  0  0  0
  183.9840  179.7250  142.9530 C   0  0  0  0  0  3  0  0  0  0  0  0
  181.1270  177.0720  140.5330 C   0  0  0  0  0  0  0  0  0  0  0  0
  181.5000  175.9820  139.7420 C   0  0  0  0  0  3  0  0  0  0  0  0
  183.3550  178.0060  140.2950 C   0  0  0  0  0  0  0  0  0  0  0  0
  182.7960  175.9030  139.2260 C   0  0  0  0  0  3  0  0  0  0  0  0
  182.0510  178.0820  140.8100 C   0  0  0  0  0  3  0  0  0  0  0  0
  183.7220  176.9140  139.5010 C   0  0  0  0  0  3  0  0  0  0  0  0
  179.8700  177.1490  141.0330 F   0  0  0  0  0  0  0  0  0  0  0  0
  190.2770  177.8120  139.9100 C   0  0  0  0  0  2  0  0  0  0  0  0
  190.4870  176.4190  139.5430 N   0  0  0  0  0  2  0  0  0  0  0  0
  193.0640  176.4570  138.2400 C   0  0  0  0  0  1  0  0  0  0  0  0
  190.6000  175.9690  138.1870 C   0  0  0  0  0  0  0  0  0  0  0  0
  191.8830  175.9930  137.5310 N   0  0  0  0  0  0  0  0  0  0  0  0
  190.7660  175.7460  135.3620 C   0  0  0  0  0  2  0  0  0  0  0  0
  189.6030  175.0850  136.0940 C   0  0  0  0  0  2  0  0  0  0  0  0
  189.5100  175.5850  137.5060 C   0  0  0  0  0  3  0  0  0  0  0  0
  192.0450  175.5130  136.1590 C   0  0  0  0  0  2  0  0  0  0  0  0
  1 10  2  0  0  0  0
  2  6  1  0  0  0  0
  3  8  1  0  0  0  0
  4 17  1  0  0  0  0
  6  5  2  0  0  0  0
  8  2  2  0  0  0  0
  8  1  1  0  0  0  0
  9  4  1  0  0  0  0
  9 16  2  0  0  0  0
 10  5  1  0  0  0  0
 11  3  2  0  0  0  0
 11 18  1  0  0  0  0
 12  1  1  0  0  0  0
 13  2  1  0  0  0  0
 14  4  1  0  0  0  0
 14 15  1  0  0  0  0
 15 21  1  1  0  0  0
 15 11  1  0  0  0  0
 16  7  1  0  0  0  0
 17  7  2  0  0  0  0
 17  3  1  0  0  0  0
 18 12  2  0  0  0  0
 19 23  1  0  0  0  0
 19 25  1  0  0  0  0
 20 19  2  0  0  0  0
 21 23  2  0  0  0  0
 22 24  2  0  0  0  0
 22 20  1  0  0  0  0
 24 21  1  0  0  0  0
 26 16  1  0  0  0  0
 27 26  1  0  0  0  0
 29 27  1  0  0  0  0
 30 29  1  0  0  0  0
 30 28  1  0  0  0  0
 31 32  1  0  0  0  0
 31 34  1  0  0  0  0
 32 33  1  0  0  0  0
 33 29  2  0  0  0  0
 34 30  1  0  0  0  0
M  END
>  <MODEL>
3

>  <REMARK>
 VINA RESULT:      -8.8      2.340      3.883
  Name = 
  4 active torsions:
  status: ('A' for Active; 'I' for Inactive)
    1  A    between atoms: N_3  and  C_13
    2  A    between atoms: N_3  and  C_17
    3  A    between atoms: C_12  and  C_28
    4  A    between atoms: C_17  and  C_29
                            x       y       z     vdW  Elec       q    Type
                         _______ _______ _______ _____ _____    ______ ____

>  <TORSDO>
F 4

$$$$
=
 OpenBabel11052413553D

 34 39  0  0  1  0  0  0  0  0999 V2000
  185.1050  178.9180  144.9760 C   0  0  0  0  0  0  0  0  0  0  0  0
  186.8040  177.2150  144.6070 C   0  0  0  0  0  0  0  0  0  0  0  0
  185.7340  178.4220  142.6700 C   0  0  0  0  0  0  0  0  0  0  0  0
  186.5450  178.5150  140.3490 N   0  0  0  0  0  0  0  0  0  0  0  0
  186.3080  177.9890  146.8540 C   0  0  0  0  0  3  0  0  0  0  0  0
  187.0110  177.1540  145.9890 C   0  0  0  0  0  3  0  0  0  0  0  0
  188.1400  178.0110  141.8210 C   0  0  0  0  0  3  0  0  0  0  0  0
  185.9130  178.1810  144.0640 C   0  0  0  0  0  0  0  0  0  0  0  0
  187.6900  178.4610  139.6540 C   0  0  0  0  0  3  0  0  0  0  0  0
  185.3360  178.8480  146.3510 C   0  0  0  0  0  3  0  0  0  0  0  0
  184.5780  179.1150  142.2330 C   0  0  0  0  0  0  0  0  0  0  0  0
  184.0400  179.6910  144.5170 C   0  0  0  0  0  3  0  0  0  0  0  0
  187.4270  175.8420  143.6970 Cl  0  0  0  0  0  0  0  0  0  0  0  0
  185.3360  179.0440  139.8820 N   0  0  0  0  0  2  0  0  0  0  0  0
  184.1800  179.1510  140.7710 C   0  0  1  0  0  3  0  0  0  0  0  0
  188.6840  178.1280  140.5510 C   0  0  0  0  0  0  0  0  0  0  0  0
  186.7820  178.2210  141.6370 C   0  0  0  0  0  0  0  0  0  0  0  0
  183.7530  179.7530  143.1580 C   0  0  0  0  0  3  0  0  0  0  0  0
  180.9560  177.1320  140.6140 C   0  0  0  0  0  0  0  0  0  0  0  0
  181.3630  176.0390  139.8430 C   0  0  0  0  0  3  0  0  0  0  0  0
  183.1900  178.0700  140.4630 C   0  0  0  0  0  0  0  0  0  0  0  0
  182.6800  175.9610  139.3810 C   0  0  0  0  0  3  0  0  0  0  0  0
  181.8660  178.1460  140.9230 C   0  0  0  0  0  3  0  0  0  0  0  0
  183.5910  176.9750  139.6890 C   0  0  0  0  0  3  0  0  0  0  0  0
  179.6790  177.2090  141.0610 F   0  0  0  0  0  0  0  0  0  0  0  0
  190.1190  177.9360  140.2110 C   0  0  0  0  0  2  0  0  0  0  0  0
  190.7250  177.0120  141.1600 N   0  0  0  0  0  2  0  0  0  0  0  0
  190.5850  174.9910  143.2180 C   0  0  0  0  0  1  0  0  0  0  0  0
  191.0330  177.3610  142.5150 C   0  0  0  0  0  0  0  0  0  0  0  0
  190.9570  176.3570  143.5470 N   0  0  0  0  0  0  0  0  0  0  0  0
  190.9630  178.1210  145.2490 C   0  0  0  0  0  2  0  0  0  0  0  0
  191.6810  179.0170  144.2460 C   0  0  0  0  0  2  0  0  0  0  0  0
  191.3300  178.6280  142.8390 C   0  0  0  0  0  3  0  0  0  0  0  0
  191.2940  176.6660  144.9360 C   0  0  0  0  0  2  0  0  0  0  0  0
  1 10  2  0  0  0  0
  2  6  1  0  0  0  0
  3  8  1  0  0  0  0
  4 17  1  0  0  0  0
  6  5  2  0  0  0  0
  8  2  2  0  0  0  0
  8  1  1  0  0  0  0
  9  4  1  0  0  0  0
  9 16  2  0  0  0  0
 10  5  1  0  0  0  0
 11  3  2  0  0  0  0
 11 18  1  0  0  0  0
 12  1  1  0  0  0  0
 13  2  1  0  0  0  0
 14  4  1  0  0  0  0
 14 15  1  0  0  0  0
 15 21  1  1  0  0  0
 15 11  1  0  0  0  0
 16  7  1  0  0  0  0
 17  7  2  0  0  0  0
 17  3  1  0  0  0  0
 18 12  2  0  0  0  0
 19 23  1  0  0  0  0
 19 25  1  0  0  0  0
 20 19  2  0  0  0  0
 21 23  2  0  0  0  0
 22 24  2  0  0  0  0
 22 20  1  0  0  0  0
 24 21  1  0  0  0  0
 26 16  1  0  0  0  0
 26 27  1  0  0  0  0
 27 29  1  0  0  0  0
 28 30  1  0  0  0  0
 29 33  2  0  0  0  0
 29 30  1  0  0  0  0
 30 34  1  0  0  0  0
 32 31  1  0  0  0  0
 33 32  1  0  0  0  0
 34 31  1  0  0  0  0
M  END
>  <MODEL>
4

>  <REMARK>
 VINA RESULT:      -8.7      1.430      2.029
  Name = 
  4 active torsions:
  status: ('A' for Active; 'I' for Inactive)
    1  A    between atoms: N_3  and  C_13
    2  A    between atoms: N_3  and  C_17
    3  A    between atoms: C_12  and  C_28
    4  A    between atoms: C_17  and  C_29
                            x       y       z     vdW  Elec       q    Type
                         _______ _______ _______ _____ _____    ______ ____

>  <TORSDO>
F 4

$$$$
=
 OpenBabel11052413553D

 34 39  0  0  1  0  0  0  0  0999 V2000
  192.0580  175.4450  137.8690 C   0  0  0  0  0  0  0  0  0  0  0  0
  190.1820  174.2450  136.8860 C   0  0  0  0  0  0  0  0  0  0  0  0
  189.8340  176.4250  138.1040 C   0  0  0  0  0  0  0  0  0  0  0  0
  187.8460  177.8730  138.0160 N   0  0  0  0  0  0  0  0  0  0  0  0
  192.4600  173.5160  136.4710 C   0  0  0  0  0  3  0  0  0  0  0  0
  191.0870  173.3490  136.3080 C   0  0  0  0  0  3  0  0  0  0  0  0
  188.0240  176.5110  136.2620 C   0  0  0  0  0  3  0  0  0  0  0  0
  190.6620  175.3800  137.5980 C   0  0  0  0  0  0  0  0  0  0  0  0
  186.8480  178.2040  137.1860 C   0  0  0  0  0  3  0  0  0  0  0  0
  192.9430  174.5450  137.2740 C   0  0  0  0  0  3  0  0  0  0  0  0
  190.3490  177.2890  139.1020 C   0  0  0  0  0  0  0  0  0  0  0  0
  192.5640  176.3820  138.7680 C   0  0  0  0  0  3  0  0  0  0  0  0
  188.5150  173.6820  136.9590 Cl  0  0  0  0  0  0  0  0  0  0  0  0
  188.2720  178.6280  139.1160 N   0  0  0  0  0  2  0  0  0  0  0  0
  189.4470  178.2220  139.8860 C   0  0  1  0  0  3  0  0  0  0  0  0
  186.9330  177.3520  136.1030 C   0  0  0  0  0  0  0  0  0  0  0  0
  188.5440  176.8480  137.5020 C   0  0  0  0  0  0  0  0  0  0  0  0
  191.7080  177.2690  139.4120 C   0  0  0  0  0  3  0  0  0  0  0  0
  187.4500  177.3590  143.0090 C   0  0  0  0  0  0  0  0  0  0  0  0
  188.2630  176.3780  143.5830 C   0  0  0  0  0  3  0  0  0  0  0  0
  189.0270  177.5940  141.1780 C   0  0  0  0  0  0  0  0  0  0  0  0
  189.4550  176.0030  142.9570 C   0  0  0  0  0  3  0  0  0  0  0  0
  187.8290  177.9660  141.8100 C   0  0  0  0  0  3  0  0  0  0  0  0
  189.8350  176.6090  141.7560 C   0  0  0  0  0  3  0  0  0  0  0  0
  186.2940  177.7220  143.6150 F   0  0  0  0  0  0  0  0  0  0  0  0
  186.0060  177.3440  134.9410 C   0  0  0  0  0  2  0  0  0  0  0  0
  184.7250  176.7810  135.3440 N   0  0  0  0  0  2  0  0  0  0  0  0
  183.5210  176.6250  137.9650 C   0  0  0  0  0  1  0  0  0  0  0  0
  184.5890  175.5070  135.9840 C   0  0  0  0  0  0  0  0  0  0  0  0
  183.9960  175.4250  137.2950 N   0  0  0  0  0  0  0  0  0  0  0  0
  184.9080  173.1640  137.5560 C   0  0  0  0  0  2  0  0  0  0  0  0
  184.9170  173.0480  136.0360 C   0  0  0  0  0  2  0  0  0  0  0  0
  185.0670  174.3990  135.3990 C   0  0  0  0  0  3  0  0  0  0  0  0
  183.8110  174.1400  137.9680 C   0  0  0  0  0  2  0  0  0  0  0  0
  1 12  1  0  0  0  0
  2 13  1  0  0  0  0
  2  8  1  0  0  0  0
  3 11  2  0  0  0  0
  4 14  1  0  0  0  0
  5 10  2  0  0  0  0
  6  5  1  0  0  0  0
  6  2  2  0  0  0  0
  7 17  2  0  0  0  0
  8  1  2  0  0  0  0
  8  3  1  0  0  0  0
  9  4  1  0  0  0  0
 10  1  1  0  0  0  0
 11 18  1  0  0  0  0
 11 15  1  0  0  0  0
 12 18  2  0  0  0  0
 14 15  1  0  0  0  0
 15 21  1  1  0  0  0
 16  7  1  0  0  0  0
 16  9  2  0  0  0  0
 17  4  1  0  0  0  0
 17  3  1  0  0  0  0
 19 20  1  0  0  0  0
 19 25  1  0  0  0  0
 21 24  2  0  0  0  0
 21 23  1  0  0  0  0
 22 20  2  0  0  0  0
 23 19  2  0  0  0  0
 24 22  1  0  0  0  0
 26 27  1  0  0  0  0
 26 16  1  0  0  0  0
 27 29  1  0  0  0  0
 29 30  1  0  0  0  0
 30 28  1  0  0  0  0
 30 34  1  0  0  0  0
 31 34  1  0  0  0  0
 32 31  1  0  0  0  0
 33 29  2  0  0  0  0
 33 32  1  0  0  0  0
M  END
>  <MODEL>
5

>  <REMARK>
 VINA RESULT:      -8.2      3.574      8.214
  Name = 
  4 active torsions:
  status: ('A' for Active; 'I' for Inactive)
    1  A    between atoms: N_3  and  C_13
    2  A    between atoms: N_3  and  C_17
    3  A    between atoms: C_12  and  C_28
    4  A    between atoms: C_17  and  C_29
                            x       y       z     vdW  Elec       q    Type
                         _______ _______ _______ _____ _____    ______ ____

>  <TORSDO>
F 4

$$$$
=
 OpenBabel11052413553D

 34 39  0  0  1  0  0  0  0  0999 V2000
  191.6140  175.5040  137.8550 C   0  0  0  0  0  0  0  0  0  0  0  0
  189.7160  174.2580  136.9780 C   0  0  0  0  0  0  0  0  0  0  0  0
  189.3860  176.4440  138.1890 C   0  0  0  0  0  0  0  0  0  0  0  0
  187.3680  177.8530  138.1840 N   0  0  0  0  0  0  0  0  0  0  0  0
  191.9850  173.5670  136.4580 C   0  0  0  0  0  3  0  0  0  0  0  0
  190.6090  173.3720  136.3650 C   0  0  0  0  0  3  0  0  0  0  0  0
  187.4870  176.4750  136.4360 C   0  0  0  0  0  3  0  0  0  0  0  0
  190.2080  175.4090  137.6540 C   0  0  0  0  0  0  0  0  0  0  0  0
  186.3240  178.1560  137.4000 C   0  0  0  0  0  3  0  0  0  0  0  0
  192.4860  174.6140  137.2270 C   0  0  0  0  0  3  0  0  0  0  0  0
  189.9320  177.3280  139.1520 C   0  0  0  0  0  0  0  0  0  0  0  0
  192.1450  176.4600  138.7190 C   0  0  0  0  0  3  0  0  0  0  0  0
  188.0660  173.6640  137.1370 Cl  0  0  0  0  0  0  0  0  0  0  0  0
  187.8320  178.6280  139.2530 N   0  0  0  0  0  2  0  0  0  0  0  0
  189.0510  178.2530  139.9690 C   0  0  1  0  0  3  0  0  0  0  0  0
  186.3730  177.2930  136.3230 C   0  0  0  0  0  0  0  0  0  0  0  0
  188.0600  176.8350  137.6460 C   0  0  0  0  0  0  0  0  0  0  0  0
  191.3040  177.3370  139.3950 C   0  0  0  0  0  3  0  0  0  0  0  0
  187.2450  177.4160  143.2140 C   0  0  0  0  0  0  0  0  0  0  0  0
  188.0830  176.4270  143.7380 C   0  0  0  0  0  3  0  0  0  0  0  0
  188.7060  177.6310  141.2870 C   0  0  0  0  0  0  0  0  0  0  0  0
  189.2290  176.0390  143.0390 C   0  0  0  0  0  3  0  0  0  0  0  0
  187.5550  178.0170  141.9920 C   0  0  0  0  0  3  0  0  0  0  0  0
  189.5400  176.6390  141.8150 C   0  0  0  0  0  3  0  0  0  0  0  0
  186.1340  177.7920  143.8910 F   0  0  0  0  0  0  0  0  0  0  0  0
  185.3910  177.2560  135.2080 C   0  0  0  0  0  2  0  0  0  0  0  0
  184.3020  176.3510  135.5490 N   0  0  0  0  0  2  0  0  0  0  0  0
  184.3140  174.3100  137.5920 C   0  0  0  0  0  1  0  0  0  0  0  0
  183.4780  176.5100  136.7100 C   0  0  0  0  0  0  0  0  0  0  0  0
  183.4760  175.4890  137.7290 N   0  0  0  0  0  0  0  0  0  0  0  0
  181.4100  176.4330  138.6540 C   0  0  0  0  0  2  0  0  0  0  0  0
  181.8080  177.7710  138.0430 C   0  0  0  0  0  2  0  0  0  0  0  0
  182.6630  177.5680  136.8260 C   0  0  0  0  0  3  0  0  0  0  0  0
  182.6730  175.6290  138.9440 C   0  0  0  0  0  2  0  0  0  0  0  0
  1 12  1  0  0  0  0
  2 13  1  0  0  0  0
  2  8  1  0  0  0  0
  3 11  2  0  0  0  0
  4 14  1  0  0  0  0
  5 10  2  0  0  0  0
  6  5  1  0  0  0  0
  6  2  2  0  0  0  0
  7 17  2  0  0  0  0
  8  1  2  0  0  0  0
  8  3  1  0  0  0  0
  9  4  1  0  0  0  0
 10  1  1  0  0  0  0
 11 18  1  0  0  0  0
 11 15  1  0  0  0  0
 12 18  2  0  0  0  0
 14 15  1  0  0  0  0
 15 21  1  1  0  0  0
 16  7  1  0  0  0  0
 16  9  2  0  0  0  0
 17  4  1  0  0  0  0
 17  3  1  0  0  0  0
 19 20  1  0  0  0  0
 19 25  1  0  0  0  0
 21 24  2  0  0  0  0
 21 23  1  0  0  0  0
 22 20  2  0  0  0  0
 23 19  2  0  0  0  0
 24 22  1  0  0  0  0
 26 27  1  0  0  0  0
 26 16  1  0  0  0  0
 27 29  1  0  0  0  0
 28 30  1  0  0  0  0
 29 33  2  0  0  0  0
 29 30  1  0  0  0  0
 30 34  1  0  0  0  0
 31 34  1  0  0  0  0
 32 31  1  0  0  0  0
 33 32  1  0  0  0  0
M  END
>  <MODEL>
6

>  <REMARK>
 VINA RESULT:      -8.1      3.351      8.270
  Name = 
  4 active torsions:
  status: ('A' for Active; 'I' for Inactive)
    1  A    between atoms: N_3  and  C_13
    2  A    between atoms: N_3  and  C_17
    3  A    between atoms: C_12  and  C_28
    4  A    between atoms: C_17  and  C_29
                            x       y       z     vdW  Elec       q    Type
                         _______ _______ _______ _____ _____    ______ ____

>  <TORSDO>
F 4

$$$$
=
 OpenBabel11052413553D

 34 39  0  0  1  0  0  0  0  0999 V2000
  191.2170  175.0940  137.1910 C   0  0  0  0  0  0  0  0  0  0  0  0
  189.1210  173.9460  136.7260 C   0  0  0  0  0  0  0  0  0  0  0  0
  189.1480  176.1720  137.9090 C   0  0  0  0  0  0  0  0  0  0  0  0
  187.2480  177.7000  138.2410 N   0  0  0  0  0  0  0  0  0  0  0  0
  191.2090  173.1110  135.8100 C   0  0  0  0  0  3  0  0  0  0  0  0
  189.8320  172.9970  135.9840 C   0  0  0  0  0  3  0  0  0  0  0  0
  186.9560  176.2830  136.5460 C   0  0  0  0  0  3  0  0  0  0  0  0
  189.7960  175.0790  137.2610 C   0  0  0  0  0  0  0  0  0  0  0  0
  186.0920  178.0490  137.6590 C   0  0  0  0  0  3  0  0  0  0  0  0
  191.9040  174.1410  136.4370 C   0  0  0  0  0  3  0  0  0  0  0  0
  189.9150  177.0420  138.7240 C   0  0  0  0  0  0  0  0  0  0  0  0
  191.9540  176.0340  137.9090 C   0  0  0  0  0  3  0  0  0  0  0  0
  187.5020  173.4560  137.2120 Cl  0  0  0  0  0  0  0  0  0  0  0  0
  187.9480  178.4670  139.1790 N   0  0  0  0  0  2  0  0  0  0  0  0
  189.2590  178.0340  139.6630 C   0  0  1  0  0  3  0  0  0  0  0  0
  185.8880  177.1630  136.6190 C   0  0  0  0  0  0  0  0  0  0  0  0
  187.7670  176.6320  137.6140 C   0  0  0  0  0  0  0  0  0  0  0  0
  191.3080  176.9730  138.7030 C   0  0  0  0  0  3  0  0  0  0  0  0
  189.9750  176.0610  142.8400 C   0  0  0  0  0  0  0  0  0  0  0  0
  188.8850  176.4290  143.6340 C   0  0  0  0  0  3  0  0  0  0  0  0
  189.1370  177.4610  141.0410 C   0  0  0  0  0  0  0  0  0  0  0  0
  187.9220  177.3120  143.1340 C   0  0  0  0  0  3  0  0  0  0  0  0
  190.1020  176.5750  141.5470 C   0  0  0  0  0  3  0  0  0  0  0  0
  188.0490  177.8270  141.8410 C   0  0  0  0  0  3  0  0  0  0  0  0
  190.9080  175.2070  143.3230 F   0  0  0  0  0  0  0  0  0  0  0  0
  184.7100  177.1620  135.7110 C   0  0  0  0  0  2  0  0  0  0  0  0
  183.8440  176.0390  136.0380 N   0  0  0  0  0  2  0  0  0  0  0  0
  181.1290  176.8020  135.4170 C   0  0  0  0  0  1  0  0  0  0  0  0
  182.8640  176.0760  137.0830 C   0  0  0  0  0  0  0  0  0  0  0  0
  181.5090  176.4640  136.7780 N   0  0  0  0  0  0  0  0  0  0  0  0
  181.0840  176.8170  139.1670 C   0  0  0  0  0  2  0  0  0  0  0  0
  182.2020  175.8220  139.4600 C   0  0  0  0  0  2  0  0  0  0  0  0
  183.2120  175.8140  138.3510 C   0  0  0  0  0  3  0  0  0  0  0  0
  180.4730  176.4840  137.8100 C   0  0  0  0  0  2  0  0  0  0  0  0
  1  8  2  0  0  0  0
  1 12  1  0  0  0  0
  2 13  1  0  0  0  0
  2  8  1  0  0  0  0
  3 11  2  0  0  0  0
  4 14  1  0  0  0  0
  5  6  1  0  0  0  0
  5 10  2  0  0  0  0
  6  2  2  0  0  0  0
  7 16  1  0  0  0  0
  7 17  2  0  0  0  0
  8  3  1  0  0  0  0
  9  4  1  0  0  0  0
 10  1  1  0  0  0  0
 11 15  1  0  0  0  0
 12 18  2  0  0  0  0
 14 15  1  0  0  0  0
 15 21  1  1  0  0  0
 16  9  2  0  0  0  0
 17  3  1  0  0  0  0
 17  4  1  0  0  0  0
 18 11  1  0  0  0  0
 19 25  1  0  0  0  0
 19 20  1  0  0  0  0
 21 23  1  0  0  0  0
 21 24  2  0  0  0  0
 22 20  2  0  0  0  0
 23 19  2  0  0  0  0
 24 22  1  0  0  0  0
 26 27  1  0  0  0  0
 26 16  1  0  0  0  0
 27 29  1  0  0  0  0
 28 30  1  0  0  0  0
 29 33  2  0  0  0  0
 30 29  1  0  0  0  0
 30 34  1  0  0  0  0
 31 32  1  0  0  0  0
 33 32  1  0  0  0  0
 34 31  1  0  0  0  0
M  END
>  <MODEL>
7

>  <REMARK>
 VINA RESULT:      -7.6      3.719      8.685
  Name = 
  4 active torsions:
  status: ('A' for Active; 'I' for Inactive)
    1  A    between atoms: N_3  and  C_13
    2  A    between atoms: N_3  and  C_17
    3  A    between atoms: C_12  and  C_28
    4  A    between atoms: C_17  and  C_29
                            x       y       z     vdW  Elec       q    Type
                         _______ _______ _______ _____ _____    ______ ____

>  <TORSDO>
F 4

$$$$
=
 OpenBabel11052413553D

 34 39  0  0  1  0  0  0  0  0999 V2000
  185.9530  178.6320  140.3100 C   0  0  0  0  0  0  0  0  0  0  0  0
  186.6710  177.5630  142.3760 C   0  0  0  0  0  0  0  0  0  0  0  0
  188.2210  177.7340  140.3950 C   0  0  0  0  0  0  0  0  0  0  0  0
  190.6620  177.4200  140.3900 N   0  0  0  0  0  0  0  0  0  0  0  0
  184.5490  178.7390  142.2740 C   0  0  0  0  0  3  0  0  0  0  0  0
  185.4770  177.9750  142.9770 C   0  0  0  0  0  3  0  0  0  0  0  0
  189.8420  177.9230  142.4000 C   0  0  0  0  0  3  0  0  0  0  0  0
  186.9780  177.9780  141.0500 C   0  0  0  0  0  0  0  0  0  0  0  0
  191.7210  177.5540  141.2010 C   0  0  0  0  0  3  0  0  0  0  0  0
  184.7740  179.0410  140.9340 C   0  0  0  0  0  3  0  0  0  0  0  0
  188.2900  177.8450  138.9840 C   0  0  0  0  0  0  0  0  0  0  0  0
  186.0880  178.8390  138.9380 C   0  0  0  0  0  3  0  0  0  0  0  0
  187.5290  176.2770  143.2180 Cl  0  0  0  0  0  0  0  0  0  0  0  0
  190.7130  177.3590  138.9920 N   0  0  0  0  0  2  0  0  0  0  0  0
  189.4810  177.3240  138.2050 C   0  0  1  0  0  3  0  0  0  0  0  0
  191.2250  177.8440  142.4560 C   0  0  0  0  0  0  0  0  0  0  0  0
  189.5300  177.6060  141.0870 C   0  0  0  0  0  0  0  0  0  0  0  0
  187.2310  178.4080  138.2740 C   0  0  0  0  0  3  0  0  0  0  0  0
  187.7200  174.2260  136.8660 C   0  0  0  0  0  0  0  0  0  0  0  0
  188.7920  173.3350  136.7580 C   0  0  0  0  0  3  0  0  0  0  0  0
  189.2250  175.9350  137.7070 C   0  0  0  0  0  0  0  0  0  0  0  0
  190.0790  173.7420  137.1230 C   0  0  0  0  0  3  0  0  0  0  0  0
  187.9350  175.5230  137.3380 C   0  0  0  0  0  3  0  0  0  0  0  0
  190.2950  175.0400  137.5950 C   0  0  0  0  0  3  0  0  0  0  0  0
  186.4730  173.8320  136.5110 F   0  0  0  0  0  0  0  0  0  0  0  0
  192.0470  178.0530  143.6770 C   0  0  0  0  0  2  0  0  0  0  0  0
  191.6810  177.0670  144.6850 N   0  0  0  0  0  2  0  0  0  0  0  0
  192.0530  175.9940  147.3410 C   0  0  0  0  0  1  0  0  0  0  0  0
  190.6810  177.2960  145.6850 C   0  0  0  0  0  0  0  0  0  0  0  0
  190.8590  176.7550  147.0100 N   0  0  0  0  0  0  0  0  0  0  0  0
  188.4800  177.1280  147.4710 C   0  0  0  0  0  2  0  0  0  0  0  0
  188.5000  178.2280  146.4150 C   0  0  0  0  0  2  0  0  0  0  0  0
  189.5530  177.9530  145.3810 C   0  0  0  0  0  3  0  0  0  0  0  0
  189.8770  176.9930  148.0670 C   0  0  0  0  0  2  0  0  0  0  0  0
  1 10  2  0  0  0  0
  1  8  1  0  0  0  0
  2  6  1  0  0  0  0
  2 13  1  0  0  0  0
  3  8  1  0  0  0  0
  3 17  1  0  0  0  0
  4 17  1  0  0  0  0
  4  9  1  0  0  0  0
  5  6  2  0  0  0  0
  7 16  1  0  0  0  0
  8  2  2  0  0  0  0
  9 16  2  0  0  0  0
 10  5  1  0  0  0  0
 11  3  2  0  0  0  0
 12  1  1  0  0  0  0
 14  4  1  0  0  0  0
 15 21  1  1  0  0  0
 15 11  1  0  0  0  0
 15 14  1  0  0  0  0
 16 26  1  0  0  0  0
 17  7  2  0  0  0  0
 18 12  2  0  0  0  0
 18 11  1  0  0  0  0
 19 23  1  0  0  0  0
 20 19  2  0  0  0  0
 20 22  1  0  0  0  0
 22 24  2  0  0  0  0
 23 21  2  0  0  0  0
 24 21  1  0  0  0  0
 25 19  1  0  0  0  0
 26 27  1  0  0  0  0
 27 29  1  0  0  0  0
 29 30  1  0  0  0  0
 30 28  1  0  0  0  0
 30 34  1  0  0  0  0
 31 34  1  0  0  0  0
 32 31  1  0  0  0  0
 33 29  2  0  0  0  0
 33 32  1  0  0  0  0
M  END
>  <MODEL>
8

>  <REMARK>
 VINA RESULT:      -7.6      2.390      4.319
  Name = 
  4 active torsions:
  status: ('A' for Active; 'I' for Inactive)
    1  A    between atoms: N_3  and  C_13
    2  A    between atoms: N_3  and  C_17
    3  A    between atoms: C_12  and  C_28
    4  A    between atoms: C_17  and  C_29
                            x       y       z     vdW  Elec       q    Type
                         _______ _______ _______ _____ _____    ______ ____

>  <TORSDO>
F 4

$$$$
=
 OpenBabel11052413553D

 34 39  0  0  1  0  0  0  0  0999 V2000
  185.2500  178.9590  141.8180 C   0  0  0  0  0  0  0  0  0  0  0  0
  186.9360  177.6090  142.9410 C   0  0  0  0  0  0  0  0  0  0  0  0
  187.0040  177.9610  140.4450 C   0  0  0  0  0  0  0  0  0  0  0  0
  188.9060  177.5460  138.9400 N   0  0  0  0  0  0  0  0  0  0  0  0
  185.3180  178.8780  144.2320 C   0  0  0  0  0  3  0  0  0  0  0  0
  186.3910  177.9930  144.1710 C   0  0  0  0  0  3  0  0  0  0  0  0
  189.5090  177.8270  141.0670 C   0  0  0  0  0  3  0  0  0  0  0  0
  186.4340  178.1730  141.7350 C   0  0  0  0  0  0  0  0  0  0  0  0
  190.2460  177.5320  138.9510 C   0  0  0  0  0  3  0  0  0  0  0  0
  184.7300  179.3360  143.0570 C   0  0  0  0  0  3  0  0  0  0  0  0
  186.2290  178.2450  139.2940 C   0  0  0  0  0  0  0  0  0  0  0  0
  184.5610  179.3300  140.6650 C   0  0  0  0  0  3  0  0  0  0  0  0
  187.9790  176.1910  142.9930 Cl  0  0  0  0  0  0  0  0  0  0  0  0
  188.1050  177.6590  137.7970 N   0  0  0  0  0  2  0  0  0  0  0  0
  186.6530  177.7760  137.9160 C   0  0  1  0  0  3  0  0  0  0  0  0
  190.6330  177.6830  140.2680 C   0  0  0  0  0  0  0  0  0  0  0  0
  188.4430  177.6910  140.1910 C   0  0  0  0  0  0  0  0  0  0  0  0
  185.0250  178.9380  139.4150 C   0  0  0  0  0  3  0  0  0  0  0  0
  184.0120  175.1280  137.2010 C   0  0  0  0  0  0  0  0  0  0  0  0
  184.8160  174.0230  136.9050 C   0  0  0  0  0  3  0  0  0  0  0  0
  185.9990  176.4730  137.5740 C   0  0  0  0  0  0  0  0  0  0  0  0
  186.2090  174.1410  136.9420 C   0  0  0  0  0  3  0  0  0  0  0  0
  184.6010  176.3500  137.5340 C   0  0  0  0  0  3  0  0  0  0  0  0
  186.7990  175.3640  137.2740 C   0  0  0  0  0  3  0  0  0  0  0  0
  182.6630  175.0140  137.1650 F   0  0  0  0  0  0  0  0  0  0  0  0
  192.0390  177.7000  140.7530 C   0  0  0  0  0  2  0  0  0  0  0  0
  192.1430  176.9110  141.9720 N   0  0  0  0  0  2  0  0  0  0  0  0
  191.8890  175.0120  144.1340 C   0  0  0  0  0  1  0  0  0  0  0  0
  191.6390  177.3480  143.2410 C   0  0  0  0  0  0  0  0  0  0  0  0
  191.5040  176.4010  144.3200 N   0  0  0  0  0  0  0  0  0  0  0  0
  190.0450  177.9760  145.5050 C   0  0  0  0  0  2  0  0  0  0  0  0
  190.7240  179.1040  144.7350 C   0  0  0  0  0  2  0  0  0  0  0  0
  191.2330  178.6140  143.4110 C   0  0  0  0  0  3  0  0  0  0  0  0
  191.0230  176.8140  145.6380 C   0  0  0  0  0  2  0  0  0  0  0  0
  1 10  2  0  0  0  0
  2 13  1  0  0  0  0
  2  6  1  0  0  0  0
  3  8  1  0  0  0  0
  4  9  1  0  0  0  0
  4 17  1  0  0  0  0
  6  5  2  0  0  0  0
  8  1  1  0  0  0  0
  8  2  2  0  0  0  0
  9 16  2  0  0  0  0
 10  5  1  0  0  0  0
 11 18  1  0  0  0  0
 11  3  2  0  0  0  0
 12  1  1  0  0  0  0
 14 15  1  0  0  0  0
 14  4  1  0  0  0  0
 15 21  1  1  0  0  0
 15 11  1  0  0  0  0
 16 26  1  0  0  0  0
 16  7  1  0  0  0  0
 17  3  1  0  0  0  0
 17  7  2  0  0  0  0
 18 12  2  0  0  0  0
 19 23  1  0  0  0  0
 20 22  1  0  0  0  0
 20 19  2  0  0  0  0
 22 24  2  0  0  0  0
 23 21  2  0  0  0  0
 24 21  1  0  0  0  0
 25 19  1  0  0  0  0
 26 27  1  0  0  0  0
 27 29  1  0  0  0  0
 28 30  1  0  0  0  0
 29 33  2  0  0  0  0
 29 30  1  0  0  0  0
 30 34  1  0  0  0  0
 31 34  1  0  0  0  0
 32 31  1  0  0  0  0
 33 32  1  0  0  0  0
M  END
>  <MODEL>
9

>  <REMARK>
 VINA RESULT:      -7.4      1.486      2.568
  Name = 
  4 active torsions:
  status: ('A' for Active; 'I' for Inactive)
    1  A    between atoms: N_3  and  C_13
    2  A    between atoms: N_3  and  C_17
    3  A    between atoms: C_12  and  C_28
    4  A    between atoms: C_17  and  C_29
                            x       y       z     vdW  Elec       q    Type
                         _______ _______ _______ _____ _____    ______ ____

>  <TORSDO>
F 4

$$$$
