=
 OpenBabel11052413013D

 31 34  0  0  1  0  0  0  0  0999 V2000
  184.5550  176.2020  137.3610 C   0  0  2  0  0  3  0  0  0  0  0  0
  183.0260  178.2090  139.6310 C   0  0  2  0  0  3  0  0  0  0  0  0
  182.2950  180.3200  138.8630 C   0  0  0  0  0  1  0  0  0  0  0  0
  181.8930  178.9310  139.0230 N   0  0  0  0  0  0  0  0  0  0  0  0
  183.0770  176.7210  139.2160 C   0  0  1  0  0  3  0  0  0  0  0  0
  181.8970  175.9260  139.7570 C   0  0  0  0  0  1  0  0  0  0  0  0
  183.1670  176.5290  137.7500 N   0  0  0  0  0  0  0  0  0  0  0  0
  181.5620  178.4320  137.6790 C   0  0  0  0  0  2  0  0  0  0  0  0
  182.7490  177.7340  137.0070 C   0  0  0  0  0  2  0  0  0  0  0  0
  184.3140  178.4240  143.2130 C   0  0  0  0  0  0  0  0  0  0  0  0
  181.9540  178.9640  143.1910 C   0  0  0  0  0  3  0  0  0  0  0  0
  185.8130  178.2140  144.0920 Cl  0  0  0  0  0  0  0  0  0  0  0  0
  184.2820  178.2270  141.8300 C   0  0  0  0  0  3  0  0  0  0  0  0
  181.9210  178.7660  141.8080 C   0  0  0  0  0  3  0  0  0  0  0  0
  183.0830  178.3920  141.1220 C   0  0  0  0  0  0  0  0  0  0  0  0
  183.1490  178.7920  143.8940 C   0  0  0  0  0  3  0  0  0  0  0  0
  185.2640  177.3310  136.5710 C   0  0  2  0  0  3  0  0  0  0  0  0
  186.9240  176.9040  134.7630 C   0  0  0  0  0  3  0  0  0  0  0  0
  185.6690  176.8330  135.2090 C   0  0  0  0  0  3  0  0  0  0  0  0
  186.1930  178.5850  138.4030 O   0  0  0  0  0  0  0  0  0  0  0  0
  187.9890  177.4940  135.5900 C   0  0  0  0  0  0  0  0  0  0  0  0
  189.3820  177.5230  135.0720 C   0  0  0  0  0  1  0  0  0  0  0  0
  186.4030  178.0050  137.3060 C   0  0  0  0  0  0  0  0  0  0  0  0
  187.7250  178.0030  136.7550 N   0  0  0  0  0  0  0  0  0  0  0  0
  184.6380  172.7450  137.6710 O   0  0  0  0  0  0  0  0  0  0  0  0
  184.6890  174.8270  136.6600 C   0  0  1  0  0  3  0  0  0  0  0  0
  183.4020  172.9580  137.1190 N   0  0  0  0  0  0  0  0  0  0  0  0
  185.5320  173.8250  137.4540 C   0  0  0  0  0  2  0  0  0  0  0  0
  183.3820  174.1140  136.5550 C   0  0  0  0  0  0  0  0  0  0  0  0
  180.9190  174.0690  136.3980 C   0  0  0  0  0  1  0  0  0  0  0  0
  182.1990  174.6250  135.8050 C   0  0  0  0  0  2  0  0  0  0  0  0
  1  7  1  6  0  0  0
  2 15  1  1  0  0  0
  3  4  1  0  0  0  0
  4  2  1  0  0  0  0
  5  2  1  0  0  0  0
  5  6  1  6  0  0  0
  7  5  1  0  0  0  0
  8  4  1  0  0  0  0
  9  8  1  0  0  0  0
  9  7  1  0  0  0  0
 10 16  1  0  0  0  0
 10 12  1  0  0  0  0
 11 16  2  0  0  0  0
 13 10  2  0  0  0  0
 14 11  1  0  0  0  0
 15 14  2  0  0  0  0
 15 13  1  0  0  0  0
 17 23  1  0  0  0  0
 17  1  1  1  0  0  0
 18 19  2  0  0  0  0
 18 21  1  0  0  0  0
 19 17  1  0  0  0  0
 21 24  2  0  0  0  0
 22 21  1  0  0  0  0
 23 20  2  0  0  0  0
 24 23  1  0  0  0  0
 26  1  1  1  0  0  0
 26 28  1  0  0  0  0
 27 25  1  0  0  0  0
 28 25  1  0  0  0  0
 29 26  1  0  0  0  0
 29 27  2  0  0  0  0
 31 30  1  0  0  0  0
 31 29  1  0  0  0  0
M  END
>  <MODEL>
1

>  <REMARK>
 VINA RESULT:      -6.4      0.000      0.000
  Name = 
  5 active torsions:
  status: ('A' for Active; 'I' for Inactive)
    1  A    between atoms: C_3  and  C_22
    2  A    between atoms: C_4  and  C_5
    3  A    between atoms: C_4  and  C_12
    4  A    between atoms: C_4  and  N_21
    5  A    between atoms: C_27  and  C_28
                            x       y       z     vdW  Elec       q    Type
                         _______ _______ _______ _____ _____    ______ ____

>  <TORSDO>
F 5

$$$$
=
 OpenBabel11052413013D

 31 34  0  0  1  0  0  0  0  0999 V2000
  181.2970  178.8200  137.7350 C   0  0  2  0  0  3  0  0  0  0  0  0
  182.0040  178.7120  141.0540 C   0  0  2  0  0  3  0  0  0  0  0  0
  180.4060  179.6590  142.5120 C   0  0  0  0  0  1  0  0  0  0  0  0
  180.7920  178.4260  141.8450 N   0  0  0  0  0  0  0  0  0  0  0  0
  182.1150  177.8240  139.7930 C   0  0  1  0  0  3  0  0  0  0  0  0
  182.3270  176.3560  140.1330 C   0  0  0  0  0  1  0  0  0  0  0  0
  180.9530  177.9560  138.8840 N   0  0  0  0  0  0  0  0  0  0  0  0
  179.6510  178.0280  141.0060 C   0  0  0  0  0  2  0  0  0  0  0  0
  179.7800  178.5360  139.5660 C   0  0  0  0  0  2  0  0  0  0  0  0
  184.3600  178.6270  144.0490 C   0  0  0  0  0  0  0  0  0  0  0  0
  185.6700  178.5640  142.0140 C   0  0  0  0  0  3  0  0  0  0  0  0
  184.2740  178.6290  145.7970 Cl  0  0  0  0  0  0  0  0  0  0  0  0
  183.1870  178.6790  143.2920 C   0  0  0  0  0  3  0  0  0  0  0  0
  184.4970  178.6170  141.2560 C   0  0  0  0  0  3  0  0  0  0  0  0
  183.2510  178.6810  141.8910 C   0  0  0  0  0  0  0  0  0  0  0  0
  185.6020  178.5700  143.4100 C   0  0  0  0  0  3  0  0  0  0  0  0
  180.3060  179.9920  137.5180 C   0  0  2  0  0  3  0  0  0  0  0  0
  180.0720  181.2060  135.3550 C   0  0  0  0  0  3  0  0  0  0  0  0
  179.9270  180.0850  136.0640 C   0  0  0  0  0  3  0  0  0  0  0  0
  180.9860  181.4350  139.3200 O   0  0  0  0  0  0  0  0  0  0  0  0
  180.6090  182.4280  135.9740 C   0  0  0  0  0  0  0  0  0  0  0  0
  180.7890  183.6470  135.1420 C   0  0  0  0  0  1  0  0  0  0  0  0
  180.7560  181.3210  138.0880 C   0  0  0  0  0  0  0  0  0  0  0  0
  180.9100  182.4620  137.2360 N   0  0  0  0  0  0  0  0  0  0  0  0
  182.9610  176.2050  136.1720 O   0  0  0  0  0  0  0  0  0  0  0  0
  181.5610  178.0310  136.4300 C   0  0  1  0  0  3  0  0  0  0  0  0
  181.6800  175.7250  136.2580 N   0  0  0  0  0  0  0  0  0  0  0  0
  183.0270  177.6200  136.2590 C   0  0  0  0  0  2  0  0  0  0  0  0
  180.8670  176.7090  136.4140 C   0  0  0  0  0  0  0  0  0  0  0  0
  179.0390  175.3460  137.3580 C   0  0  0  0  0  1  0  0  0  0  0  0
  179.3880  176.5320  136.4800 C   0  0  0  0  0  2  0  0  0  0  0  0
  1  7  1  1  0  0  0
  2  4  1  0  0  0  0
  2 15  1  1  0  0  0
  4  3  1  0  0  0  0
  5  6  1  1  0  0  0
  5  2  1  0  0  0  0
  7  9  1  0  0  0  0
  7  5  1  0  0  0  0
  8  4  1  0  0  0  0
  9  8  1  0  0  0  0
 10 12  1  0  0  0  0
 11 16  2  0  0  0  0
 13 10  2  0  0  0  0
 14 15  2  0  0  0  0
 14 11  1  0  0  0  0
 15 13  1  0  0  0  0
 16 10  1  0  0  0  0
 17  1  1  6  0  0  0
 17 23  1  0  0  0  0
 18 21  1  0  0  0  0
 18 19  2  0  0  0  0
 19 17  1  0  0  0  0
 21 24  2  0  0  0  0
 22 21  1  0  0  0  0
 23 20  2  0  0  0  0
 24 23  1  0  0  0  0
 25 27  1  0  0  0  0
 25 28  1  0  0  0  0
 26  1  1  1  0  0  0
 27 29  2  0  0  0  0
 28 26  1  0  0  0  0
 29 26  1  0  0  0  0
 29 31  1  0  0  0  0
 31 30  1  0  0  0  0
M  END
>  <MODEL>
2

>  <REMARK>
 VINA RESULT:      -5.6      3.064      4.785
  Name = 
  5 active torsions:
  status: ('A' for Active; 'I' for Inactive)
    1  A    between atoms: C_3  and  C_22
    2  A    between atoms: C_4  and  C_5
    3  A    between atoms: C_4  and  C_12
    4  A    between atoms: C_4  and  N_21
    5  A    between atoms: C_27  and  C_28
                            x       y       z     vdW  Elec       q    Type
                         _______ _______ _______ _____ _____    ______ ____

>  <TORSDO>
F 5

$$$$
=
 OpenBabel11052413013D

 31 34  0  0  1  0  0  0  0  0999 V2000
  185.6380  177.1930  137.7940 C   0  0  2  0  0  3  0  0  0  0  0  0
  183.7350  178.1030  140.4540 C   0  0  2  0  0  3  0  0  0  0  0  0
  184.7220  177.8930  142.5890 C   0  0  0  0  0  1  0  0  0  0  0  0
  184.5440  178.8030  141.4690 N   0  0  0  0  0  0  0  0  0  0  0  0
  184.0530  178.5690  139.0140 C   0  0  1  0  0  3  0  0  0  0  0  0
  183.6450  180.0150  138.7680 C   0  0  0  0  0  1  0  0  0  0  0  0
  185.4760  178.3910  138.6450 N   0  0  0  0  0  0  0  0  0  0  0  0
  185.8910  179.1410  140.9830 C   0  0  0  0  0  2  0  0  0  0  0  0
  186.3400  178.2360  139.8320 C   0  0  0  0  0  2  0  0  0  0  0  0
  180.3670  179.1470  141.9020 C   0  0  0  0  0  0  0  0  0  0  0  0
  180.0300  177.2920  140.3820 C   0  0  0  0  0  3  0  0  0  0  0  0
  179.7170  180.3360  143.0090 Cl  0  0  0  0  0  0  0  0  0  0  0  0
  181.7400  179.1060  141.6480 C   0  0  0  0  0  3  0  0  0  0  0  0
  181.4040  177.2510  140.1280 C   0  0  0  0  0  3  0  0  0  0  0  0
  182.2650  178.1530  140.7630 C   0  0  0  0  0  0  0  0  0  0  0  0
  179.5110  178.2390  141.2700 C   0  0  0  0  0  3  0  0  0  0  0  0
  186.9370  177.2000  136.9490 C   0  0  2  0  0  3  0  0  0  0  0  0
  188.9700  175.8920  137.5520 C   0  0  0  0  0  3  0  0  0  0  0  0
  187.6960  175.9160  137.1580 C   0  0  0  0  0  3  0  0  0  0  0  0
  187.3520  179.5690  136.8640 O   0  0  0  0  0  0  0  0  0  0  0  0
  189.7110  177.1400  137.7940 C   0  0  0  0  0  0  0  0  0  0  0  0
  191.1190  177.0720  138.2660 C   0  0  0  0  0  1  0  0  0  0  0  0
  187.8070  178.4260  137.1280 C   0  0  0  0  0  0  0  0  0  0  0  0
  189.1590  178.2960  137.5840 N   0  0  0  0  0  0  0  0  0  0  0  0
  184.3570  176.1820  134.7300 O   0  0  0  0  0  0  0  0  0  0  0  0
  184.3870  176.8730  136.9380 C   0  0  1  0  0  3  0  0  0  0  0  0
  184.1690  175.0680  135.5060 N   0  0  0  0  0  0  0  0  0  0  0  0
  184.5020  177.3680  135.4940 C   0  0  0  0  0  2  0  0  0  0  0  0
  184.1900  175.4060  136.7470 C   0  0  0  0  0  0  0  0  0  0  0  0
  184.9160  173.2700  137.7480 C   0  0  0  0  0  1  0  0  0  0  0  0
  183.9510  174.4340  137.8530 C   0  0  0  0  0  2  0  0  0  0  0  0
  1  7  1  6  0  0  0
  2 15  1  1  0  0  0
  2  4  1  0  0  0  0
  4  3  1  0  0  0  0
  5  6  1  1  0  0  0
  5  2  1  0  0  0  0
  7  5  1  0  0  0  0
  7  9  1  0  0  0  0
  8  4  1  0  0  0  0
  9  8  1  0  0  0  0
 10 12  1  0  0  0  0
 11 16  1  0  0  0  0
 13 10  1  0  0  0  0
 14 11  2  0  0  0  0
 14 15  1  0  0  0  0
 15 13  2  0  0  0  0
 16 10  2  0  0  0  0
 17 23  1  0  0  0  0
 17 19  1  0  0  0  0
 17  1  1  1  0  0  0
 18 21  1  0  0  0  0
 19 18  2  0  0  0  0
 20 23  2  0  0  0  0
 21 22  1  0  0  0  0
 23 24  1  0  0  0  0
 24 21  2  0  0  0  0
 25 28  1  0  0  0  0
 25 27  1  0  0  0  0
 26  1  1  1  0  0  0
 27 29  2  0  0  0  0
 28 26  1  0  0  0  0
 29 26  1  0  0  0  0
 29 31  1  0  0  0  0
 30 31  1  0  0  0  0
M  END
>  <MODEL>
3

>  <REMARK>
 VINA RESULT:      -5.5      2.397      3.460
  Name = 
  5 active torsions:
  status: ('A' for Active; 'I' for Inactive)
    1  A    between atoms: C_3  and  C_22
    2  A    between atoms: C_4  and  C_5
    3  A    between atoms: C_4  and  C_12
    4  A    between atoms: C_4  and  N_21
    5  A    between atoms: C_27  and  C_28
                            x       y       z     vdW  Elec       q    Type
                         _______ _______ _______ _____ _____    ______ ____

>  <TORSDO>
F 5

$$$$
=
 OpenBabel11052413013D

 31 34  0  0  1  0  0  0  0  0999 V2000
  189.0780  175.6190  137.6130 C   0  0  2  0  0  3  0  0  0  0  0  0
  188.8860  177.1280  140.6470 C   0  0  2  0  0  3  0  0  0  0  0  0
  190.5570  176.5710  142.2200 C   0  0  0  0  0  1  0  0  0  0  0  0
  190.2250  177.4920  141.1440 N   0  0  0  0  0  0  0  0  0  0  0  0
  188.6960  177.4600  139.1490 C   0  0  1  0  0  3  0  0  0  0  0  0
  188.7130  178.9580  138.8790 C   0  0  0  0  0  1  0  0  0  0  0  0
  189.6870  176.7920  138.2750 N   0  0  0  0  0  0  0  0  0  0  0  0
  191.2700  177.3340  140.1200 C   0  0  0  0  0  2  0  0  0  0  0  0
  190.8710  176.3350  139.0290 C   0  0  0  0  0  2  0  0  0  0  0  0
  186.6410  177.8850  143.6340 C   0  0  0  0  0  0  0  0  0  0  0  0
  185.8880  179.1830  141.7340 C   0  0  0  0  0  3  0  0  0  0  0  0
  186.4790  177.4230  145.3150 Cl  0  0  0  0  0  0  0  0  0  0  0  0
  187.6560  177.3280  142.8520 C   0  0  0  0  0  3  0  0  0  0  0  0
  186.9030  178.6260  140.9510 C   0  0  0  0  0  3  0  0  0  0  0  0
  187.7880  177.6930  141.5040 C   0  0  0  0  0  0  0  0  0  0  0  0
  185.7550  178.8110  143.0750 C   0  0  0  0  0  3  0  0  0  0  0  0
  189.9060  175.0760  136.4200 C   0  0  2  0  0  3  0  0  0  0  0  0
  191.9690  173.7060  136.6960 C   0  0  0  0  0  3  0  0  0  0  0  0
  190.6480  173.8320  136.8310 C   0  0  0  0  0  3  0  0  0  0  0  0
  190.3120  177.1330  135.2400 O   0  0  0  0  0  0  0  0  0  0  0  0
  192.7770  174.7930  136.1190 C   0  0  0  0  0  0  0  0  0  0  0  0
  194.2510  174.6300  136.0180 C   0  0  0  0  0  1  0  0  0  0  0  0
  190.8050  176.0950  135.7520 C   0  0  0  0  0  0  0  0  0  0  0  0
  192.2200  175.8810  135.6830 N   0  0  0  0  0  0  0  0  0  0  0  0
  186.7250  176.1980  135.1270 O   0  0  0  0  0  0  0  0  0  0  0  0
  187.5890  175.8270  137.2420 C   0  0  1  0  0  3  0  0  0  0  0  0
  186.5140  174.8760  135.4250 N   0  0  0  0  0  0  0  0  0  0  0  0
  187.3780  176.9010  136.1710 C   0  0  0  0  0  2  0  0  0  0  0  0
  186.9910  174.6230  136.5930 C   0  0  0  0  0  0  0  0  0  0  0  0
  185.4210  173.0030  137.5950 C   0  0  0  0  0  1  0  0  0  0  0  0
  186.8690  173.2860  137.2420 C   0  0  0  0  0  2  0  0  0  0  0  0
  1  7  1  6  0  0  0
  2  4  1  0  0  0  0
  2 15  1  1  0  0  0
  4  3  1  0  0  0  0
  5  6  1  1  0  0  0
  5  2  1  0  0  0  0
  7  9  1  0  0  0  0
  7  5  1  0  0  0  0
  8  4  1  0  0  0  0
  9  8  1  0  0  0  0
 10 12  1  0  0  0  0
 11 16  2  0  0  0  0
 13 10  2  0  0  0  0
 14 15  2  0  0  0  0
 14 11  1  0  0  0  0
 15 13  1  0  0  0  0
 16 10  1  0  0  0  0
 17 19  1  0  0  0  0
 17  1  1  1  0  0  0
 18 19  2  0  0  0  0
 20 23  2  0  0  0  0
 21 18  1  0  0  0  0
 22 21  1  0  0  0  0
 23 17  1  0  0  0  0
 24 23  1  0  0  0  0
 24 21  2  0  0  0  0
 25 27  1  0  0  0  0
 25 28  1  0  0  0  0
 26  1  1  6  0  0  0
 27 29  2  0  0  0  0
 28 26  1  0  0  0  0
 29 26  1  0  0  0  0
 29 31  1  0  0  0  0
 31 30  1  0  0  0  0
M  END
>  <MODEL>
4

>  <REMARK>
 VINA RESULT:      -5.3      3.687      5.675
  Name = 
  5 active torsions:
  status: ('A' for Active; 'I' for Inactive)
    1  A    between atoms: C_3  and  C_22
    2  A    between atoms: C_4  and  C_5
    3  A    between atoms: C_4  and  C_12
    4  A    between atoms: C_4  and  N_21
    5  A    between atoms: C_27  and  C_28
                            x       y       z     vdW  Elec       q    Type
                         _______ _______ _______ _____ _____    ______ ____

>  <TORSDO>
F 5

$$$$
=
 OpenBabel11052413013D

 31 34  0  0  1  0  0  0  0  0999 V2000
  188.0390  177.5590  141.3470 C   0  0  2  0  0  3  0  0  0  0  0  0
  188.3630  176.8210  138.0500 C   0  0  2  0  0  3  0  0  0  0  0  0
  187.7550  178.5130  136.5170 C   0  0  0  0  0  1  0  0  0  0  0  0
  188.8660  177.9830  137.2930 N   0  0  0  0  0  0  0  0  0  0  0  0
  189.1120  176.6110  139.3860 C   0  0  1  0  0  3  0  0  0  0  0  0
  190.5680  176.2200  139.1800 C   0  0  0  0  0  1  0  0  0  0  0  0
  189.0410  177.7860  140.2840 N   0  0  0  0  0  0  0  0  0  0  0  0
  189.3220  179.0730  138.1700 C   0  0  0  0  0  2  0  0  0  0  0  0
  188.6730  179.0170  139.5570 C   0  0  0  0  0  2  0  0  0  0  0  0
  187.1700  173.5910  136.4140 C   0  0  0  0  0  0  0  0  0  0  0  0
  189.3820  174.1240  135.5850 C   0  0  0  0  0  3  0  0  0  0  0  0
  185.7680  172.5440  136.4270 Cl  0  0  0  0  0  0  0  0  0  0  0  0
  187.1960  174.7330  137.2180 C   0  0  0  0  0  3  0  0  0  0  0  0
  189.4080  175.2660  136.3890 C   0  0  0  0  0  3  0  0  0  0  0  0
  188.3190  175.5730  137.2130 C   0  0  0  0  0  0  0  0  0  0  0  0
  188.2640  173.2850  135.5980 C   0  0  0  0  0  3  0  0  0  0  0  0
  187.0320  178.7240  141.5150 C   0  0  2  0  0  3  0  0  0  0  0  0
  185.4680  178.9160  143.4450 C   0  0  0  0  0  3  0  0  0  0  0  0
  186.7150  178.9270  142.9730 C   0  0  0  0  0  3  0  0  0  0  0  0
  185.8840  178.5740  139.4050 O   0  0  0  0  0  0  0  0  0  0  0  0
  184.3210  178.7120  142.5460 C   0  0  0  0  0  0  0  0  0  0  0  0
  182.9480  178.6700  143.1140 C   0  0  0  0  0  1  0  0  0  0  0  0
  185.7880  178.6200  140.6590 C   0  0  0  0  0  0  0  0  0  0  0  0
  184.4900  178.5860  141.2650 N   0  0  0  0  0  0  0  0  0  0  0  0
  190.1900  175.4220  143.0380 O   0  0  0  0  0  0  0  0  0  0  0  0
  188.6640  177.1280  142.6970 C   0  0  1  0  0  3  0  0  0  0  0  0
  190.8920  176.5990  143.0350 N   0  0  0  0  0  0  0  0  0  0  0  0
  188.7970  175.6100  142.8430 C   0  0  0  0  0  2  0  0  0  0  0  0
  190.0810  177.5770  142.8370 C   0  0  0  0  0  0  0  0  0  0  0  0
  191.3060  179.3090  144.0980 C   0  0  0  0  0  1  0  0  0  0  0  0
  190.5190  179.0020  142.8390 C   0  0  0  0  0  2  0  0  0  0  0  0
  1  7  1  6  0  0  0
  2 15  1  6  0  0  0
  2  5  1  0  0  0  0
  3  4  1  0  0  0  0
  4  2  1  0  0  0  0
  4  8  1  0  0  0  0
  5  6  1  6  0  0  0
  5  7  1  0  0  0  0
  8  9  1  0  0  0  0
  9  7  1  0  0  0  0
 10 12  1  0  0  0  0
 10 13  1  0  0  0  0
 11 16  1  0  0  0  0
 11 14  2  0  0  0  0
 14 15  1  0  0  0  0
 15 13  2  0  0  0  0
 16 10  2  0  0  0  0
 17  1  1  1  0  0  0
 17 19  1  0  0  0  0
 19 18  2  0  0  0  0
 20 23  2  0  0  0  0
 21 22  1  0  0  0  0
 21 18  1  0  0  0  0
 23 24  1  0  0  0  0
 23 17  1  0  0  0  0
 24 21  2  0  0  0  0
 26  1  1  6  0  0  0
 26 29  1  0  0  0  0
 26 28  1  0  0  0  0
 27 25  1  0  0  0  0
 28 25  1  0  0  0  0
 29 31  1  0  0  0  0
 29 27  2  0  0  0  0
 31 30  1  0  0  0  0
M  END
>  <MODEL>
5

>  <REMARK>
 VINA RESULT:      -5.0      4.148      8.280
  Name = 
  5 active torsions:
  status: ('A' for Active; 'I' for Inactive)
    1  A    between atoms: C_3  and  C_22
    2  A    between atoms: C_4  and  C_5
    3  A    between atoms: C_4  and  C_12
    4  A    between atoms: C_4  and  N_21
    5  A    between atoms: C_27  and  C_28
                            x       y       z     vdW  Elec       q    Type
                         _______ _______ _______ _____ _____    ______ ____

>  <TORSDO>
F 5

$$$$
=
 OpenBabel11052413013D

 31 34  0  0  1  0  0  0  0  0999 V2000
  181.4300  178.2190  139.6720 C   0  0  2  0  0  3  0  0  0  0  0  0
  181.5590  175.5070  137.6350 C   0  0  2  0  0  3  0  0  0  0  0  0
  179.4950  174.6550  136.8660 C   0  0  0  0  0  1  0  0  0  0  0  0
  180.5540  175.6030  136.5600 N   0  0  0  0  0  0  0  0  0  0  0  0
  182.3040  176.8410  137.8750 C   0  0  1  0  0  3  0  0  0  0  0  0
  183.1760  177.2400  136.6930 C   0  0  0  0  0  1  0  0  0  0  0  0
  181.3970  177.9600  138.2170 N   0  0  0  0  0  0  0  0  0  0  0  0
  179.9230  176.9300  136.4930 C   0  0  0  0  0  2  0  0  0  0  0  0
  180.0010  177.6810  137.8270 C   0  0  0  0  0  2  0  0  0  0  0  0
  183.0150  172.1690  136.5080 C   0  0  0  0  0  0  0  0  0  0  0  0
  184.6940  173.3750  137.7690 C   0  0  0  0  0  3  0  0  0  0  0  0
  182.5280  170.7570  135.5950 Cl  0  0  0  0  0  0  0  0  0  0  0  0
  182.1150  173.2200  136.7000 C   0  0  0  0  0  3  0  0  0  0  0  0
  183.7940  174.4270  137.9620 C   0  0  0  0  0  3  0  0  0  0  0  0
  182.5000  174.3520  137.4340 C   0  0  0  0  0  0  0  0  0  0  0  0
  184.3040  172.2450  137.0440 C   0  0  0  0  0  3  0  0  0  0  0  0
  180.0250  178.3770  140.3090 C   0  0  2  0  0  3  0  0  0  0  0  0
  179.4960  180.0730  142.0560 C   0  0  0  0  0  3  0  0  0  0  0  0
  179.8350  179.7880  140.7970 C   0  0  0  0  0  3  0  0  0  0  0  0
  179.6710  176.1220  141.0700 O   0  0  0  0  0  0  0  0  0  0  0  0
  179.2760  179.0010  143.0400 C   0  0  0  0  0  0  0  0  0  0  0  0
  178.9340  179.3590  144.4420 C   0  0  0  0  0  1  0  0  0  0  0  0
  179.6840  177.3460  141.3630 C   0  0  0  0  0  0  0  0  0  0  0  0
  179.3600  177.7520  142.6980 N   0  0  0  0  0  0  0  0  0  0  0  0
  184.6630  179.4830  139.6840 O   0  0  0  0  0  0  0  0  0  0  0  0
  182.3830  179.3730  140.0690 C   0  0  1  0  0  3  0  0  0  0  0  0
  184.0520  180.2540  138.7290 N   0  0  0  0  0  0  0  0  0  0  0  0
  183.7410  178.8830  140.5800 C   0  0  0  0  0  2  0  0  0  0  0  0
  182.7790  180.2120  138.9000 C   0  0  0  0  0  0  0  0  0  0  0  0
  181.9950  182.4800  138.3230 C   0  0  0  0  0  1  0  0  0  0  0  0
  181.8260  180.9970  138.0630 C   0  0  0  0  0  2  0  0  0  0  0  0
  1  7  1  6  0  0  0
  2 15  1  6  0  0  0
  2  5  1  0  0  0  0
  4  3  1  0  0  0  0
  4  2  1  0  0  0  0
  5  6  1  6  0  0  0
  5  7  1  0  0  0  0
  8  4  1  0  0  0  0
  8  9  1  0  0  0  0
  9  7  1  0  0  0  0
 10 13  2  0  0  0  0
 10 16  1  0  0  0  0
 11 14  1  0  0  0  0
 12 10  1  0  0  0  0
 13 15  1  0  0  0  0
 15 14  2  0  0  0  0
 16 11  2  0  0  0  0
 17  1  1  1  0  0  0
 17 19  1  0  0  0  0
 17 23  1  0  0  0  0
 18 21  1  0  0  0  0
 19 18  2  0  0  0  0
 20 23  2  0  0  0  0
 21 22  1  0  0  0  0
 23 24  1  0  0  0  0
 24 21  2  0  0  0  0
 25 28  1  0  0  0  0
 26  1  1  6  0  0  0
 26 28  1  0  0  0  0
 27 29  2  0  0  0  0
 27 25  1  0  0  0  0
 29 26  1  0  0  0  0
 31 30  1  0  0  0  0
 31 29  1  0  0  0  0
M  END
>  <MODEL>
6

>  <REMARK>
 VINA RESULT:      -5.0      3.606      7.569
  Name = 
  5 active torsions:
  status: ('A' for Active; 'I' for Inactive)
    1  A    between atoms: C_3  and  C_22
    2  A    between atoms: C_4  and  C_5
    3  A    between atoms: C_4  and  C_12
    4  A    between atoms: C_4  and  N_21
    5  A    between atoms: C_27  and  C_28
                            x       y       z     vdW  Elec       q    Type
                         _______ _______ _______ _____ _____    ______ ____

>  <TORSDO>
F 5

$$$$
=
 OpenBabel11052413013D

 31 34  0  0  1  0  0  0  0  0999 V2000
  190.4840  176.8900  138.0300 C   0  0  2  0  0  3  0  0  0  0  0  0
  193.0640  175.2830  136.5200 C   0  0  2  0  0  3  0  0  0  0  0  0
  193.5410  173.0960  137.2740 C   0  0  0  0  0  1  0  0  0  0  0  0
  192.7530  173.8560  136.3160 N   0  0  0  0  0  0  0  0  0  0  0  0
  191.8780  176.2080  136.1630 C   0  0  1  0  0  3  0  0  0  0  0  0
  191.5520  176.1880  134.6760 C   0  0  0  0  0  1  0  0  0  0  0  0
  190.6520  175.9080  136.9380 N   0  0  0  0  0  0  0  0  0  0  0  0
  191.3420  173.5410  136.5900 C   0  0  0  0  0  2  0  0  0  0  0  0
  190.6890  174.5570  137.5320 C   0  0  0  0  0  2  0  0  0  0  0  0
  195.9020  177.3940  135.0980 C   0  0  0  0  0  0  0  0  0  0  0  0
  196.3920  175.0540  134.7140 C   0  0  0  0  0  3  0  0  0  0  0  0
  196.3490  179.0800  134.9520 Cl  0  0  0  0  0  0  0  0  0  0  0  0
  194.7010  177.0410  135.7190 C   0  0  0  0  0  3  0  0  0  0  0  0
  195.1910  174.7000  135.3350 C   0  0  0  0  0  3  0  0  0  0  0  0
  194.3380  175.6910  135.8350 C   0  0  0  0  0  0  0  0  0  0  0  0
  196.7470  176.4010  134.5940 C   0  0  0  0  0  3  0  0  0  0  0  0
  190.9730  176.3800  139.4090 C   0  0  2  0  0  3  0  0  0  0  0  0
  189.8970  177.0150  141.5650 C   0  0  0  0  0  3  0  0  0  0  0  0
  189.8340  176.3800  140.3940 C   0  0  0  0  0  3  0  0  0  0  0  0
  193.2810  177.0500  139.2930 O   0  0  0  0  0  0  0  0  0  0  0  0
  191.1100  177.7490  141.9630 C   0  0  0  0  0  0  0  0  0  0  0  0
  191.1310  178.4730  143.2600 C   0  0  0  0  0  1  0  0  0  0  0  0
  192.2060  177.0760  139.9460 C   0  0  0  0  0  0  0  0  0  0  0  0
  192.1650  177.7570  141.2060 N   0  0  0  0  0  0  0  0  0  0  0  0
  188.3640  179.5230  137.2400 O   0  0  0  0  0  0  0  0  0  0  0  0
  189.0580  177.4900  138.1020 C   0  0  1  0  0  3  0  0  0  0  0  0
  187.9610  178.5510  136.3610 N   0  0  0  0  0  0  0  0  0  0  0  0
  189.0510  178.9990  138.3650 C   0  0  0  0  0  2  0  0  0  0  0  0
  188.3380  177.4020  136.7970 C   0  0  0  0  0  0  0  0  0  0  0  0
  187.2010  175.2220  137.0210 C   0  0  0  0  0  1  0  0  0  0  0  0
  188.0020  176.1250  136.1030 C   0  0  0  0  0  2  0  0  0  0  0  0
  1  7  1  6  0  0  0
  2 15  1  6  0  0  0
  4  2  1  0  0  0  0
  4  8  1  0  0  0  0
  4  3  1  0  0  0  0
  5  6  1  6  0  0  0
  5  2  1  0  0  0  0
  5  7  1  0  0  0  0
  7  9  1  0  0  0  0
  8  9  1  0  0  0  0
 10 13  1  0  0  0  0
 11 14  2  0  0  0  0
 12 10  1  0  0  0  0
 13 15  2  0  0  0  0
 14 15  1  0  0  0  0
 16 11  1  0  0  0  0
 16 10  2  0  0  0  0
 17  1  1  6  0  0  0
 17 23  1  0  0  0  0
 17 19  1  0  0  0  0
 18 21  1  0  0  0  0
 19 18  2  0  0  0  0
 20 23  2  0  0  0  0
 21 22  1  0  0  0  0
 23 24  1  0  0  0  0
 24 21  2  0  0  0  0
 25 28  1  0  0  0  0
 26  1  1  6  0  0  0
 26 28  1  0  0  0  0
 27 29  2  0  0  0  0
 27 25  1  0  0  0  0
 29 26  1  0  0  0  0
 31 29  1  0  0  0  0
 31 30  1  0  0  0  0
M  END
>  <MODEL>
7

>  <REMARK>
 VINA RESULT:      -4.9      5.763     10.077
  Name = 
  5 active torsions:
  status: ('A' for Active; 'I' for Inactive)
    1  A    between atoms: C_3  and  C_22
    2  A    between atoms: C_4  and  C_5
    3  A    between atoms: C_4  and  C_12
    4  A    between atoms: C_4  and  N_21
    5  A    between atoms: C_27  and  C_28
                            x       y       z     vdW  Elec       q    Type
                         _______ _______ _______ _____ _____    ______ ____

>  <TORSDO>
F 5

$$$$
=
 OpenBabel11052413013D

 31 34  0  0  1  0  0  0  0  0999 V2000
  181.6310  176.8240  139.2360 C   0  0  2  0  0  3  0  0  0  0  0  0
  184.0980  178.2350  141.0920 C   0  0  2  0  0  3  0  0  0  0  0  0
  186.1360  178.6850  139.9860 C   0  0  0  0  0  1  0  0  0  0  0  0
  184.8350  179.2470  140.3120 N   0  0  0  0  0  0  0  0  0  0  0  0
  182.5670  178.3290  140.8950 C   0  0  1  0  0  3  0  0  0  0  0  0
  181.9870  179.6170  141.4610 C   0  0  0  0  0  1  0  0  0  0  0  0
  182.1530  178.1850  139.4800 N   0  0  0  0  0  0  0  0  0  0  0  0
  184.1800  179.5610  139.0320 C   0  0  0  0  0  2  0  0  0  0  0  0
  183.2720  178.4260  138.5480 C   0  0  0  0  0  2  0  0  0  0  0  0
  186.1350  177.9110  144.2970 C   0  0  0  0  0  0  0  0  0  0  0  0
  183.9030  178.6650  144.8560 C   0  0  0  0  0  3  0  0  0  0  0  0
  187.7520  177.4610  144.7950 Cl  0  0  0  0  0  0  0  0  0  0  0  0
  185.7870  177.8800  142.9450 C   0  0  0  0  0  3  0  0  0  0  0  0
  183.5540  178.6340  143.5030 C   0  0  0  0  0  3  0  0  0  0  0  0
  184.4920  178.2360  142.5420 C   0  0  0  0  0  0  0  0  0  0  0  0
  185.1930  178.3020  145.2540 C   0  0  0  0  0  3  0  0  0  0  0  0
  181.9450  176.2800  137.8190 C   0  0  2  0  0  3  0  0  0  0  0  0
  180.2690  175.1020  136.4010 C   0  0  0  0  0  3  0  0  0  0  0  0
  180.6850  176.2200  136.9970 C   0  0  0  0  0  3  0  0  0  0  0  0
  183.8560  174.9080  138.3270 O   0  0  0  0  0  0  0  0  0  0  0  0
  181.0420  173.8540  136.5100 C   0  0  0  0  0  0  0  0  0  0  0  0
  180.5290  172.6200  135.8600 C   0  0  0  0  0  1  0  0  0  0  0  0
  182.7190  174.9790  137.7930 C   0  0  0  0  0  0  0  0  0  0  0  0
  182.1720  173.8220  137.1490 N   0  0  0  0  0  0  0  0  0  0  0  0
  179.1820  176.9520  141.6930 O   0  0  0  0  0  0  0  0  0  0  0  0
  180.1350  176.6640  139.6040 C   0  0  1  0  0  3  0  0  0  0  0  0
  178.9320  178.0920  140.9730 N   0  0  0  0  0  0  0  0  0  0  0  0
  179.9160  175.9850  140.9580 C   0  0  0  0  0  2  0  0  0  0  0  0
  179.4560  177.9790  139.8040 C   0  0  0  0  0  0  0  0  0  0  0  0
  179.1430  180.3910  139.3830 C   0  0  0  0  0  1  0  0  0  0  0  0
  179.3110  179.0230  138.7500 C   0  0  0  0  0  2  0  0  0  0  0  0
  1  7  1  6  0  0  0
  2 15  1  1  0  0  0
  3  4  1  0  0  0  0
  4  2  1  0  0  0  0
  5  2  1  0  0  0  0
  5  6  1  6  0  0  0
  7  5  1  0  0  0  0
  8  4  1  0  0  0  0
  9  8  1  0  0  0  0
  9  7  1  0  0  0  0
 10 12  1  0  0  0  0
 10 16  1  0  0  0  0
 11 16  2  0  0  0  0
 13 10  2  0  0  0  0
 14 11  1  0  0  0  0
 15 13  1  0  0  0  0
 15 14  2  0  0  0  0
 17  1  1  1  0  0  0
 18 21  1  0  0  0  0
 18 19  2  0  0  0  0
 19 17  1  0  0  0  0
 21 24  2  0  0  0  0
 22 21  1  0  0  0  0
 23 17  1  0  0  0  0
 23 20  2  0  0  0  0
 24 23  1  0  0  0  0
 26  1  1  1  0  0  0
 26 29  1  0  0  0  0
 26 28  1  0  0  0  0
 27 25  1  0  0  0  0
 28 25  1  0  0  0  0
 29 27  2  0  0  0  0
 31 30  1  0  0  0  0
 31 29  1  0  0  0  0
M  END
>  <MODEL>
8

>  <REMARK>
 VINA RESULT:      -4.9      2.744      5.099
  Name = 
  5 active torsions:
  status: ('A' for Active; 'I' for Inactive)
    1  A    between atoms: C_3  and  C_22
    2  A    between atoms: C_4  and  C_5
    3  A    between atoms: C_4  and  C_12
    4  A    between atoms: C_4  and  N_21
    5  A    between atoms: C_27  and  C_28
                            x       y       z     vdW  Elec       q    Type
                         _______ _______ _______ _____ _____    ______ ____

>  <TORSDO>
F 5

$$$$
=
 OpenBabel11052413013D

 31 34  0  0  1  0  0  0  0  0999 V2000
  182.0800  177.9590  140.5650 C   0  0  2  0  0  3  0  0  0  0  0  0
  181.0290  175.2510  138.8080 C   0  0  2  0  0  3  0  0  0  0  0  0
  179.6690  173.7000  139.9580 C   0  0  0  0  0  1  0  0  0  0  0  0
  179.6360  174.9070  139.1480 N   0  0  0  0  0  0  0  0  0  0  0  0
  181.2380  176.7720  138.6210 C   0  0  1  0  0  3  0  0  0  0  0  0
  180.4970  177.3160  137.4080 C   0  0  0  0  0  1  0  0  0  0  0  0
  180.8680  177.5610  139.8180 N   0  0  0  0  0  0  0  0  0  0  0  0
  178.9810  175.9420  139.9630 C   0  0  0  0  0  2  0  0  0  0  0  0
  179.9890  176.8040  140.7310 C   0  0  0  0  0  2  0  0  0  0  0  0
  183.3700  173.4510  136.3970 C   0  0  0  0  0  0  0  0  0  0  0  0
  181.0860  173.1450  135.6540 C   0  0  0  0  0  3  0  0  0  0  0  0
  185.0830  173.1610  136.1890 Cl  0  0  0  0  0  0  0  0  0  0  0  0
  182.9170  174.2160  137.4750 C   0  0  0  0  0  3  0  0  0  0  0  0
  180.6320  173.9100  136.7320 C   0  0  0  0  0  3  0  0  0  0  0  0
  181.5450  174.4530  137.6430 C   0  0  0  0  0  0  0  0  0  0  0  0
  182.4550  172.9170  135.4850 C   0  0  0  0  0  3  0  0  0  0  0  0
  181.8490  179.1340  141.5490 C   0  0  2  0  0  3  0  0  0  0  0  0
  181.2320  178.8150  143.9420 C   0  0  0  0  0  3  0  0  0  0  0  0
  182.1260  178.6870  142.9600 C   0  0  0  0  0  3  0  0  0  0  0  0
  180.1880  180.3690  140.3220 O   0  0  0  0  0  0  0  0  0  0  0  0
  179.9140  179.4190  143.6910 C   0  0  0  0  0  0  0  0  0  0  0  0
  178.9310  179.5110  144.8020 C   0  0  0  0  0  1  0  0  0  0  0  0
  180.5100  179.8270  141.4110 C   0  0  0  0  0  0  0  0  0  0  0  0
  179.6050  179.8860  142.5200 N   0  0  0  0  0  0  0  0  0  0  0  0
  184.1880  180.2340  139.0050 O   0  0  0  0  0  0  0  0  0  0  0  0
  183.3120  178.1920  139.6570 C   0  0  1  0  0  3  0  0  0  0  0  0
  184.9710  179.7640  140.0270 N   0  0  0  0  0  0  0  0  0  0  0  0
  183.1260  179.3520  138.6740 C   0  0  0  0  0  2  0  0  0  0  0  0
  184.5120  178.6320  140.4290 C   0  0  0  0  0  0  0  0  0  0  0  0
  185.7480  178.7310  142.5630 C   0  0  0  0  0  1  0  0  0  0  0  0
  185.1750  177.8230  141.4920 C   0  0  0  0  0  2  0  0  0  0  0  0
  1  7  1  6  0  0  0
  2 15  1  6  0  0  0
  2  4  1  0  0  0  0
  4  3  1  0  0  0  0
  4  8  1  0  0  0  0
  5  6  1  6  0  0  0
  5  2  1  0  0  0  0
  5  7  1  0  0  0  0
  7  9  1  0  0  0  0
  8  9  1  0  0  0  0
 10 13  1  0  0  0  0
 11 14  2  0  0  0  0
 12 10  1  0  0  0  0
 13 15  2  0  0  0  0
 14 15  1  0  0  0  0
 16 11  1  0  0  0  0
 16 10  2  0  0  0  0
 17  1  1  6  0  0  0
 17 19  1  0  0  0  0
 19 18  2  0  0  0  0
 20 23  2  0  0  0  0
 21 18  1  0  0  0  0
 21 22  1  0  0  0  0
 23 17  1  0  0  0  0
 23 24  1  0  0  0  0
 24 21  2  0  0  0  0
 25 27  1  0  0  0  0
 26 29  1  0  0  0  0
 26  1  1  1  0  0  0
 27 29  2  0  0  0  0
 28 25  1  0  0  0  0
 28 26  1  0  0  0  0
 29 31  1  0  0  0  0
 31 30  1  0  0  0  0
M  END
>  <MODEL>
9

>  <REMARK>
 VINA RESULT:      -4.8      3.661      7.559
  Name = 
  5 active torsions:
  status: ('A' for Active; 'I' for Inactive)
    1  A    between atoms: C_3  and  C_22
    2  A    between atoms: C_4  and  C_5
    3  A    between atoms: C_4  and  C_12
    4  A    between atoms: C_4  and  N_21
    5  A    between atoms: C_27  and  C_28
                            x       y       z     vdW  Elec       q    Type
                         _______ _______ _______ _____ _____    ______ ____

>  <TORSDO>
F 5

$$$$
