=
 OpenBabel11052413523D

 27 29  0  0  1  0  0  0  0  0999 V2000
  187.8280  177.9960  142.8480 N   0  0  0  0  0  0  0  0  0  0  0  0
  190.2430  178.4740  143.5520 C   0  0  0  0  0  0  0  0  0  0  0  0
  191.9700  176.0610  142.4870 C   0  0  0  0  0  2  0  0  0  0  0  0
  189.8610  179.2780  144.4410 O   0  0  0  0  0  0  0  0  0  0  0  0
  190.7950  175.6660  143.2030 O   0  0  0  0  0  0  0  0  0  0  0  0
  189.2620  177.6330  142.7550 C   0  0  0  0  0  3  0  0  0  0  0  0
  192.0900  177.5620  142.2220 C   0  0  0  0  0  2  0  0  0  0  0  0
  188.5350  175.3590  142.9880 O   0  0  0  0  0  0  0  0  0  0  0  0
  189.5050  176.1630  142.9740 C   0  0  0  0  0  0  0  0  0  0  0  0
  191.6090  178.3380  143.3120 O   0  0  0  0  0  0  0  0  0  0  0  0
  187.1120  178.1890  141.5700 C   0  0  1  0  0  3  0  0  0  0  0  0
  186.0590  179.2830  141.7000 C   0  0  0  0  0  1  0  0  0  0  0  0
  188.0440  178.5750  140.5160 N   0  0  0  0  0  2  0  0  0  0  0  0
  188.9050  178.9540  137.4180 C   0  0  0  0  0  2  0  0  0  0  0  0
  189.9170  177.9030  137.3190 N   0  0  0  0  0  2  0  0  0  0  0  0
  189.0730  176.7280  139.2930 C   0  0  0  0  0  2  0  0  0  0  0  0
  187.8620  177.6580  139.4010 C   0  0  2  0  0  3  0  0  0  0  0  0
  190.2670  177.4490  138.6650 C   0  0  0  0  0  2  0  0  0  0  0  0
  187.6890  178.4360  138.1280 C   0  0  0  0  0  0  0  0  0  0  0  0
  186.5730  178.7000  137.7120 O   0  0  0  0  0  0  0  0  0  0  0  0
  187.1210  177.1040  143.7860 C   0  0  0  0  0  2  0  0  0  0  0  0
  186.3710  178.8300  147.6510 C   0  0  0  0  0  3  0  0  0  0  0  0
  186.8670  177.7070  145.1360 C   0  0  0  0  0  0  0  0  0  0  0  0
  187.7210  177.4290  146.2100 C   0  0  0  0  0  3  0  0  0  0  0  0
  187.4750  177.9930  147.4660 C   0  0  0  0  0  3  0  0  0  0  0  0
  185.5110  179.1020  146.5830 C   0  0  0  0  0  3  0  0  0  0  0  0
  185.7580  178.5390  145.3270 C   0  0  0  0  0  3  0  0  0  0  0  0
  1 21  1  0  0  0  0
  2  4  2  0  0  0  0
  3  5  1  0  0  0  0
  6  1  1  0  0  0  0
  6  9  1  0  0  0  0
  6  2  1  0  0  0  0
  7  3  1  0  0  0  0
  7 10  1  0  0  0  0
  9  8  2  0  0  0  0
  9  5  1  0  0  0  0
 10  2  1  0  0  0  0
 11 12  1  1  0  0  0
 11  1  1  0  0  0  0
 13 11  1  0  0  0  0
 14 19  1  0  0  0  0
 15 14  1  0  0  0  0
 15 18  1  0  0  0  0
 16 17  1  0  0  0  0
 17 13  1  1  0  0  0
 18 16  1  0  0  0  0
 19 17  1  0  0  0  0
 20 19  2  0  0  0  0
 21 23  1  0  0  0  0
 23 27  2  0  0  0  0
 23 24  1  0  0  0  0
 24 25  2  0  0  0  0
 25 22  1  0  0  0  0
 26 22  2  0  0  0  0
 27 26  1  0  0  0  0
M  END
>  <MODEL>
1

>  <REMARK>
 VINA RESULT:      -6.4      0.000      0.000
  Name = 
  6 active torsions:
  status: ('A' for Active; 'I' for Inactive)
    1  A    between atoms: N_1  and  C_2
    2  A    between atoms: N_1  and  C_15
    3  A    between atoms: N_1  and  C_18
    4  A    between atoms: C_2  and  N_19
    5  A    between atoms: C_9  and  C_15
    6  A    between atoms: C_14  and  N_19
                            x       y       z     vdW  Elec       q    Type
                         _______ _______ _______ _____ _____    ______ ____

>  <TORSDO>
F 6

$$$$
=
 OpenBabel11052413523D

 27 29  0  0  1  0  0  0  0  0999 V2000
  187.9740  178.2530  143.0570 N   0  0  0  0  0  0  0  0  0  0  0  0
  190.4490  178.4320  143.6860 C   0  0  0  0  0  0  0  0  0  0  0  0
  191.8650  175.9060  142.4380 C   0  0  0  0  0  2  0  0  0  0  0  0
  190.1880  179.2250  144.6270 O   0  0  0  0  0  0  0  0  0  0  0  0
  190.6790  175.6030  143.1810 O   0  0  0  0  0  0  0  0  0  0  0  0
  189.3560  177.7440  142.8890 C   0  0  0  0  0  3  0  0  0  0  0  0
  192.1390  177.3980  142.2410 C   0  0  0  0  0  2  0  0  0  0  0  0
  188.3930  175.5520  143.0420 O   0  0  0  0  0  0  0  0  0  0  0  0
  189.4440  176.2460  143.0280 C   0  0  0  0  0  0  0  0  0  0  0  0
  191.7830  178.1630  143.3850 O   0  0  0  0  0  0  0  0  0  0  0  0
  187.2770  178.6850  141.8270 C   0  0  1  0  0  3  0  0  0  0  0  0
  188.0070  178.1810  140.5880 C   0  0  0  0  0  1  0  0  0  0  0  0
  185.9160  178.1610  141.8010 N   0  0  0  0  0  2  0  0  0  0  0  0
  183.1170  178.2870  140.1790 C   0  0  0  0  0  2  0  0  0  0  0  0
  182.1990  178.4990  141.2970 N   0  0  0  0  0  2  0  0  0  0  0  0
  183.9820  179.2920  142.7750 C   0  0  0  0  0  2  0  0  0  0  0  0
  185.0080  179.2860  141.6370 C   0  0  2  0  0  3  0  0  0  0  0  0
  182.9040  178.2310  142.5500 C   0  0  0  0  0  2  0  0  0  0  0  0
  184.3110  179.1860  140.3100 C   0  0  0  0  0  0  0  0  0  0  0  0
  184.7490  179.7760  139.3370 O   0  0  0  0  0  0  0  0  0  0  0  0
  187.1750  177.3380  143.8920 C   0  0  0  0  0  2  0  0  0  0  0  0
  186.7450  178.6140  147.9750 C   0  0  0  0  0  3  0  0  0  0  0  0
  187.0170  177.7830  145.3160 C   0  0  0  0  0  0  0  0  0  0  0  0
  185.9530  178.6140  145.6870 C   0  0  0  0  0  3  0  0  0  0  0  0
  185.8150  179.0270  147.0160 C   0  0  0  0  0  3  0  0  0  0  0  0
  187.8130  177.7920  147.6070 C   0  0  0  0  0  3  0  0  0  0  0  0
  187.9510  177.3790  146.2780 C   0  0  0  0  0  3  0  0  0  0  0  0
  1 21  1  0  0  0  0
  2  4  2  0  0  0  0
  3  5  1  0  0  0  0
  6  9  1  0  0  0  0
  6  1  1  0  0  0  0
  6  2  1  0  0  0  0
  7  3  1  0  0  0  0
  7 10  1  0  0  0  0
  9  8  2  0  0  0  0
  9  5  1  0  0  0  0
 10  2  1  0  0  0  0
 11 12  1  6  0  0  0
 11  1  1  0  0  0  0
 13 11  1  0  0  0  0
 14 19  1  0  0  0  0
 14 15  1  0  0  0  0
 15 18  1  0  0  0  0
 17 13  1  1  0  0  0
 17 16  1  0  0  0  0
 18 16  1  0  0  0  0
 19 17  1  0  0  0  0
 20 19  2  0  0  0  0
 21 23  1  0  0  0  0
 23 24  2  0  0  0  0
 23 27  1  0  0  0  0
 24 25  1  0  0  0  0
 25 22  2  0  0  0  0
 26 22  1  0  0  0  0
 27 26  2  0  0  0  0
M  END
>  <MODEL>
2

>  <REMARK>
 VINA RESULT:      -6.3      1.789      3.385
  Name = 
  6 active torsions:
  status: ('A' for Active; 'I' for Inactive)
    1  A    between atoms: N_1  and  C_2
    2  A    between atoms: N_1  and  C_15
    3  A    between atoms: N_1  and  C_18
    4  A    between atoms: C_2  and  N_19
    5  A    between atoms: C_9  and  C_15
    6  A    between atoms: C_14  and  N_19
                            x       y       z     vdW  Elec       q    Type
                         _______ _______ _______ _____ _____    ______ ____

>  <TORSDO>
F 6

$$$$
=
 OpenBabel11052413523D

 27 29  0  0  1  0  0  0  0  0999 V2000
  188.6230  177.1750  139.4520 N   0  0  0  0  0  0  0  0  0  0  0  0
  188.0130  175.9750  137.2740 C   0  0  0  0  0  0  0  0  0  0  0  0
  189.6600  177.3910  134.9900 C   0  0  0  0  0  2  0  0  0  0  0  0
  186.9560  175.5180  137.7820 O   0  0  0  0  0  0  0  0  0  0  0  0
  188.9550  178.2960  135.8470 O   0  0  0  0  0  0  0  0  0  0  0  0
  188.8900  176.9730  138.0070 C   0  0  0  0  0  3  0  0  0  0  0  0
  189.6270  175.9270  135.4290 C   0  0  0  0  0  2  0  0  0  0  0  0
  189.0650  179.3620  137.8710 O   0  0  0  0  0  0  0  0  0  0  0  0
  188.9870  178.2700  137.2470 C   0  0  0  0  0  0  0  0  0  0  0  0
  188.3730  175.5650  135.9910 O   0  0  0  0  0  0  0  0  0  0  0  0
  189.7080  176.7960  140.3810 C   0  0  1  0  0  3  0  0  0  0  0  0
  191.0560  177.2850  139.8670 C   0  0  0  0  0  1  0  0  0  0  0  0
  189.4810  177.3820  141.6970 N   0  0  0  0  0  2  0  0  0  0  0  0
  190.2770  177.4710  144.8340 C   0  0  0  0  0  2  0  0  0  0  0  0
  188.9690  177.1930  145.4240 N   0  0  0  0  0  2  0  0  0  0  0  0
  188.0980  176.2290  143.3490 C   0  0  0  0  0  2  0  0  0  0  0  0
  189.4700  176.3010  142.6710 C   0  0  2  0  0  3  0  0  0  0  0  0
  187.9410  177.3360  144.3930 C   0  0  0  0  0  2  0  0  0  0  0  0
  190.5440  176.5310  143.6960 C   0  0  0  0  0  0  0  0  0  0  0  0
  191.6410  176.0110  143.5680 O   0  0  0  0  0  0  0  0  0  0  0  0
  188.0830  178.5240  139.7010 C   0  0  0  0  0  2  0  0  0  0  0  0
  183.9260  178.6010  140.7940 C   0  0  0  0  0  3  0  0  0  0  0  0
  186.6310  178.5460  140.0780 C   0  0  0  0  0  0  0  0  0  0  0  0
  185.6410  178.3890  139.0990 C   0  0  0  0  0  3  0  0  0  0  0  0
  184.2900  178.4140  139.4580 C   0  0  0  0  0  3  0  0  0  0  0  0
  184.9110  178.7670  141.7720 C   0  0  0  0  0  3  0  0  0  0  0  0
  186.2620  178.7420  141.4140 C   0  0  0  0  0  3  0  0  0  0  0  0
  1 21  1  0  0  0  0
  1 11  1  0  0  0  0
  2  4  2  0  0  0  0
  2  6  1  0  0  0  0
  3  7  1  0  0  0  0
  3  5  1  0  0  0  0
  5  9  1  0  0  0  0
  6  1  1  0  0  0  0
  7 10  1  0  0  0  0
  9  8  2  0  0  0  0
  9  6  1  0  0  0  0
 10  2  1  0  0  0  0
 11 12  1  6  0  0  0
 11 13  1  0  0  0  0
 14 15  1  0  0  0  0
 16 18  1  0  0  0  0
 17 13  1  6  0  0  0
 17 16  1  0  0  0  0
 17 19  1  0  0  0  0
 18 15  1  0  0  0  0
 19 14  1  0  0  0  0
 20 19  2  0  0  0  0
 21 23  1  0  0  0  0
 22 26  1  0  0  0  0
 23 27  1  0  0  0  0
 24 25  1  0  0  0  0
 24 23  2  0  0  0  0
 25 22  2  0  0  0  0
 27 26  2  0  0  0  0
M  END
>  <MODEL>
3

>  <REMARK>
 VINA RESULT:      -6.0      2.180      6.414
  Name = 
  6 active torsions:
  status: ('A' for Active; 'I' for Inactive)
    1  A    between atoms: N_1  and  C_2
    2  A    between atoms: N_1  and  C_15
    3  A    between atoms: N_1  and  C_18
    4  A    between atoms: C_2  and  N_19
    5  A    between atoms: C_9  and  C_15
    6  A    between atoms: C_14  and  N_19
                            x       y       z     vdW  Elec       q    Type
                         _______ _______ _______ _____ _____    ______ ____

>  <TORSDO>
F 6

$$$$
=
 OpenBabel11052413523D

 27 29  0  0  1  0  0  0  0  0999 V2000
  187.1920  177.8550  143.2490 N   0  0  0  0  0  0  0  0  0  0  0  0
  189.0180  176.1990  142.5560 C   0  0  0  0  0  0  0  0  0  0  0  0
  190.5150  177.5050  140.1080 C   0  0  0  0  0  2  0  0  0  0  0  0
  188.4300  175.2530  143.1410 O   0  0  0  0  0  0  0  0  0  0  0  0
  189.0880  177.5060  139.9870 O   0  0  0  0  0  0  0  0  0  0  0  0
  188.3900  177.5750  142.4220 C   0  0  0  0  0  3  0  0  0  0  0  0
  191.0480  177.0300  141.4610 C   0  0  0  0  0  2  0  0  0  0  0  0
  187.1960  178.6280  140.6270 O   0  0  0  0  0  0  0  0  0  0  0  0
  188.1950  177.9430  140.9740 C   0  0  0  0  0  0  0  0  0  0  0  0
  190.2740  175.9670  141.9970 O   0  0  0  0  0  0  0  0  0  0  0  0
  187.3970  177.8960  144.7120 C   0  0  1  0  0  3  0  0  0  0  0  0
  186.1970  177.3040  145.4420 C   0  0  0  0  0  1  0  0  0  0  0  0
  188.5810  177.1320  145.0840 N   0  0  0  0  0  2  0  0  0  0  0  0
  190.7740  176.3780  147.3440 C   0  0  0  0  0  2  0  0  0  0  0  0
  191.9940  176.7530  146.6310 N   0  0  0  0  0  2  0  0  0  0  0  0
  190.7850  178.1850  145.0560 C   0  0  0  0  0  2  0  0  0  0  0  0
  189.4700  178.0160  145.8220 C   0  0  2  0  0  3  0  0  0  0  0  0
  191.6780  176.9530  145.2170 C   0  0  0  0  0  2  0  0  0  0  0  0
  189.7330  177.4470  147.1870 C   0  0  0  0  0  0  0  0  0  0  0  0
  189.0640  177.8020  148.1440 O   0  0  0  0  0  0  0  0  0  0  0  0
  186.4560  179.0210  142.7280 C   0  0  0  0  0  2  0  0  0  0  0  0
  182.1880  178.7800  143.1940 C   0  0  0  0  0  3  0  0  0  0  0  0
  184.9660  178.9300  142.8870 C   0  0  0  0  0  0  0  0  0  0  0  0
  184.1800  178.3400  141.8900 C   0  0  0  0  0  3  0  0  0  0  0  0
  182.7920  178.2620  142.0450 C   0  0  0  0  0  3  0  0  0  0  0  0
  182.9690  179.3780  144.1870 C   0  0  0  0  0  3  0  0  0  0  0  0
  184.3570  179.4560  144.0320 C   0  0  0  0  0  3  0  0  0  0  0  0
  1 11  1  0  0  0  0
  2  4  2  0  0  0  0
  3  7  1  0  0  0  0
  5  3  1  0  0  0  0
  5  9  1  0  0  0  0
  6  2  1  0  0  0  0
  6  1  1  0  0  0  0
  7 10  1  0  0  0  0
  8  9  2  0  0  0  0
  9  6  1  0  0  0  0
 10  2  1  0  0  0  0
 11 13  1  0  0  0  0
 11 12  1  1  0  0  0
 15 14  1  0  0  0  0
 16 18  1  0  0  0  0
 16 17  1  0  0  0  0
 17 13  1  6  0  0  0
 17 19  1  0  0  0  0
 18 15  1  0  0  0  0
 19 14  1  0  0  0  0
 19 20  2  0  0  0  0
 21 23  1  0  0  0  0
 21  1  1  0  0  0  0
 22 26  1  0  0  0  0
 23 27  1  0  0  0  0
 24 25  1  0  0  0  0
 24 23  2  0  0  0  0
 25 22  2  0  0  0  0
 27 26  2  0  0  0  0
M  END
>  <MODEL>
4

>  <REMARK>
 VINA RESULT:      -6.0      2.512      5.542
  Name = 
  6 active torsions:
  status: ('A' for Active; 'I' for Inactive)
    1  A    between atoms: N_1  and  C_2
    2  A    between atoms: N_1  and  C_15
    3  A    between atoms: N_1  and  C_18
    4  A    between atoms: C_2  and  N_19
    5  A    between atoms: C_9  and  C_15
    6  A    between atoms: C_14  and  N_19
                            x       y       z     vdW  Elec       q    Type
                         _______ _______ _______ _____ _____    ______ ____

>  <TORSDO>
F 6

$$$$
=
 OpenBabel11052413523D

 27 29  0  0  1  0  0  0  0  0999 V2000
  183.0870  177.9240  140.3780 N   0  0  0  0  0  0  0  0  0  0  0  0
  180.5890  178.0100  139.8220 C   0  0  0  0  0  0  0  0  0  0  0  0
  179.5850  175.0210  139.7960 C   0  0  0  0  0  2  0  0  0  0  0  0
  180.7020  179.1630  139.3330 O   0  0  0  0  0  0  0  0  0  0  0  0
  180.7730  175.2440  139.0280 O   0  0  0  0  0  0  0  0  0  0  0  0
  181.7960  177.2040  140.2670 C   0  0  0  0  0  3  0  0  0  0  0  0
  179.1140  176.2210  140.6190 C   0  0  0  0  0  2  0  0  0  0  0  0
  183.0480  175.4600  139.1940 O   0  0  0  0  0  0  0  0  0  0  0  0
  181.9110  175.9230  139.4830 C   0  0  0  0  0  0  0  0  0  0  0  0
  179.3170  177.4510  139.9380 O   0  0  0  0  0  0  0  0  0  0  0  0
  183.7150  178.3520  139.1100 C   0  0  1  0  0  3  0  0  0  0  0  0
  183.7530  179.8720  139.0120 C   0  0  0  0  0  1  0  0  0  0  0  0
  185.0820  177.8540  139.0240 N   0  0  0  0  0  2  0  0  0  0  0  0
  187.6940  176.6370  137.5460 C   0  0  0  0  0  2  0  0  0  0  0  0
  187.0370  175.8470  136.5060 N   0  0  0  0  0  2  0  0  0  0  0  0
  184.9400  177.0940  136.7070 C   0  0  0  0  0  2  0  0  0  0  0  0
  185.5650  178.1030  137.6740 C   0  0  2  0  0  3  0  0  0  0  0  0
  185.6150  175.7260  136.8260 C   0  0  0  0  0  2  0  0  0  0  0  0
  187.0620  177.9950  137.6420 C   0  0  0  0  0  0  0  0  0  0  0  0
  187.7560  178.9920  137.7590 O   0  0  0  0  0  0  0  0  0  0  0  0
  183.0010  179.0020  141.3810 C   0  0  0  0  0  2  0  0  0  0  0  0
  185.3540  178.3210  144.9140 C   0  0  0  0  0  3  0  0  0  0  0  0
  183.8280  178.7660  142.6100 C   0  0  0  0  0  0  0  0  0  0  0  0
  185.1260  178.2520  142.5050 C   0  0  0  0  0  3  0  0  0  0  0  0
  185.8900  178.0320  143.6560 C   0  0  0  0  0  3  0  0  0  0  0  0
  184.0560  178.8260  145.0230 C   0  0  0  0  0  3  0  0  0  0  0  0
  183.2920  179.0460  143.8730 C   0  0  0  0  0  3  0  0  0  0  0  0
  1 21  1  0  0  0  0
  2 10  1  0  0  0  0
  2  6  1  0  0  0  0
  3  7  1  0  0  0  0
  4  2  2  0  0  0  0
  5  9  1  0  0  0  0
  5  3  1  0  0  0  0
  6  1  1  0  0  0  0
  8  9  2  0  0  0  0
  9  6  1  0  0  0  0
 10  7  1  0  0  0  0
 11 12  1  1  0  0  0
 11  1  1  0  0  0  0
 13 11  1  0  0  0  0
 14 19  1  0  0  0  0
 15 18  1  0  0  0  0
 15 14  1  0  0  0  0
 16 18  1  0  0  0  0
 16 17  1  0  0  0  0
 17 13  1  1  0  0  0
 19 17  1  0  0  0  0
 19 20  2  0  0  0  0
 21 23  1  0  0  0  0
 22 26  1  0  0  0  0
 23 27  1  0  0  0  0
 24 23  2  0  0  0  0
 24 25  1  0  0  0  0
 25 22  2  0  0  0  0
 27 26  2  0  0  0  0
M  END
>  <MODEL>
5

>  <REMARK>
 VINA RESULT:      -5.9      4.422      6.848
  Name = 
  6 active torsions:
  status: ('A' for Active; 'I' for Inactive)
    1  A    between atoms: N_1  and  C_2
    2  A    between atoms: N_1  and  C_15
    3  A    between atoms: N_1  and  C_18
    4  A    between atoms: C_2  and  N_19
    5  A    between atoms: C_9  and  C_15
    6  A    between atoms: C_14  and  N_19
                            x       y       z     vdW  Elec       q    Type
                         _______ _______ _______ _____ _____    ______ ____

>  <TORSDO>
F 6

$$$$
=
 OpenBabel11052413523D

 27 29  0  0  1  0  0  0  0  0999 V2000
  184.0580  178.3960  139.7970 N   0  0  0  0  0  0  0  0  0  0  0  0
  181.5630  178.8060  140.2050 C   0  0  0  0  0  0  0  0  0  0  0  0
  180.6170  180.8090  137.9620 C   0  0  0  0  0  2  0  0  0  0  0  0
  181.6590  178.4150  141.3970 O   0  0  0  0  0  0  0  0  0  0  0  0
  181.8070  181.2180  138.6450 O   0  0  0  0  0  0  0  0  0  0  0  0
  182.7820  178.9780  139.3160 C   0  0  0  0  0  3  0  0  0  0  0  0
  180.1160  179.4090  138.3200 C   0  0  0  0  0  2  0  0  0  0  0  0
  184.0750  180.9080  138.7190 O   0  0  0  0  0  0  0  0  0  0  0  0
  182.9280  180.4090  138.8680 C   0  0  0  0  0  0  0  0  0  0  0  0
  180.3010  179.1100  139.6970 O   0  0  0  0  0  0  0  0  0  0  0  0
  184.8850  177.6990  138.7910 C   0  0  1  0  0  3  0  0  0  0  0  0
  184.0840  177.4350  137.5220 C   0  0  0  0  0  1  0  0  0  0  0  0
  186.0470  178.5060  138.4370 N   0  0  0  0  0  2  0  0  0  0  0  0
  188.9540  179.2480  137.2180 C   0  0  0  0  0  2  0  0  0  0  0  0
  189.8050  178.5800  138.2000 N   0  0  0  0  0  2  0  0  0  0  0  0
  187.9920  177.1280  138.9730 C   0  0  0  0  0  2  0  0  0  0  0  0
  187.0510  177.6190  137.8690 C   0  0  2  0  0  3  0  0  0  0  0  0
  188.9960  178.2140  139.3630 C   0  0  0  0  0  2  0  0  0  0  0  0
  187.8280  178.3450  136.8080 C   0  0  0  0  0  0  0  0  0  0  0  0
  187.5060  178.2530  135.6350 O   0  0  0  0  0  0  0  0  0  0  0  0
  184.8130  179.3780  140.5980 C   0  0  0  0  0  2  0  0  0  0  0  0
  186.0090  177.9610  144.4770 C   0  0  0  0  0  3  0  0  0  0  0  0
  185.2230  178.8810  141.9530 C   0  0  0  0  0  0  0  0  0  0  0  0
  184.3830  179.0580  143.0590 C   0  0  0  0  0  3  0  0  0  0  0  0
  184.7740  178.5960  144.3190 C   0  0  0  0  0  3  0  0  0  0  0  0
  186.8550  177.7910  143.3770 C   0  0  0  0  0  3  0  0  0  0  0  0
  186.4630  178.2530  142.1170 C   0  0  0  0  0  3  0  0  0  0  0  0
  1 21  1  0  0  0  0
  2  4  2  0  0  0  0
  3  7  1  0  0  0  0
  3  5  1  0  0  0  0
  5  9  1  0  0  0  0
  6  1  1  0  0  0  0
  6  2  1  0  0  0  0
  7 10  1  0  0  0  0
  8  9  2  0  0  0  0
  9  6  1  0  0  0  0
 10  2  1  0  0  0  0
 11 12  1  6  0  0  0
 11  1  1  0  0  0  0
 13 11  1  0  0  0  0
 14 15  1  0  0  0  0
 15 18  1  0  0  0  0
 16 18  1  0  0  0  0
 17 13  1  1  0  0  0
 17 16  1  0  0  0  0
 19 14  1  0  0  0  0
 19 17  1  0  0  0  0
 20 19  2  0  0  0  0
 21 23  1  0  0  0  0
 23 27  2  0  0  0  0
 23 24  1  0  0  0  0
 24 25  2  0  0  0  0
 25 22  1  0  0  0  0
 26 22  2  0  0  0  0
 27 26  1  0  0  0  0
M  END
>  <MODEL>
6

>  <REMARK>
 VINA RESULT:      -5.9      3.994      6.587
  Name = 
  6 active torsions:
  status: ('A' for Active; 'I' for Inactive)
    1  A    between atoms: N_1  and  C_2
    2  A    between atoms: N_1  and  C_15
    3  A    between atoms: N_1  and  C_18
    4  A    between atoms: C_2  and  N_19
    5  A    between atoms: C_9  and  C_15
    6  A    between atoms: C_14  and  N_19
                            x       y       z     vdW  Elec       q    Type
                         _______ _______ _______ _____ _____    ______ ____

>  <TORSDO>
F 6

$$$$
=
 OpenBabel11052413523D

 27 29  0  0  1  0  0  0  0  0999 V2000
  190.1250  176.4610  137.9370 N   0  0  0  0  0  0  0  0  0  0  0  0
  192.6670  176.5630  138.2250 C   0  0  0  0  0  0  0  0  0  0  0  0
  193.8530  174.2390  136.4550 C   0  0  0  0  0  2  0  0  0  0  0  0
  192.5540  177.2180  139.2930 O   0  0  0  0  0  0  0  0  0  0  0  0
  192.7800  173.8310  137.3110 O   0  0  0  0  0  0  0  0  0  0  0  0
  191.4620  175.9850  137.5060 C   0  0  0  0  0  3  0  0  0  0  0  0
  194.1190  175.7450  136.4270 C   0  0  0  0  0  2  0  0  0  0  0  0
  190.4970  173.7890  137.4940 O   0  0  0  0  0  0  0  0  0  0  0  0
  191.5470  174.4840  137.4250 C   0  0  0  0  0  0  0  0  0  0  0  0
  193.9410  176.3440  137.7030 O   0  0  0  0  0  0  0  0  0  0  0  0
  190.0950  177.3830  139.0920 C   0  0  1  0  0  3  0  0  0  0  0  0
  189.2790  178.6290  138.7660 C   0  0  0  0  0  1  0  0  0  0  0  0
  189.4920  176.7320  140.2490 N   0  0  0  0  0  2  0  0  0  0  0  0
  188.1650  176.4400  143.1880 C   0  0  0  0  0  2  0  0  0  0  0  0
  189.3790  176.4400  144.0020 N   0  0  0  0  0  2  0  0  0  0  0  0
  190.7200  177.4660  142.2300 C   0  0  0  0  0  2  0  0  0  0  0  0
  189.4880  177.6880  141.3470 C   0  0  2  0  0  3  0  0  0  0  0  0
  190.5370  176.2440  143.1310 C   0  0  0  0  0  2  0  0  0  0  0  0
  188.2330  177.5270  142.1550 C   0  0  0  0  0  0  0  0  0  0  0  0
  187.2600  178.2270  141.9300 O   0  0  0  0  0  0  0  0  0  0  0  0
  189.3420  176.9400  136.7840 C   0  0  0  0  0  2  0  0  0  0  0  0
  186.2280  174.2540  135.5300 C   0  0  0  0  0  3  0  0  0  0  0  0
  188.2500  176.0070  136.3500 C   0  0  0  0  0  0  0  0  0  0  0  0
  187.1920  175.7010  137.2150 C   0  0  0  0  0  3  0  0  0  0  0  0
  186.1810  174.8270  136.8040 C   0  0  0  0  0  3  0  0  0  0  0  0
  187.2870  174.5510  134.6670 C   0  0  0  0  0  3  0  0  0  0  0  0
  188.2990  175.4240  135.0780 C   0  0  0  0  0  3  0  0  0  0  0  0
  1 11  1  0  0  0  0
  2  4  2  0  0  0  0
  3  5  1  0  0  0  0
  5  9  1  0  0  0  0
  6  1  1  0  0  0  0
  6  2  1  0  0  0  0
  7  3  1  0  0  0  0
  7 10  1  0  0  0  0
  9  8  2  0  0  0  0
  9  6  1  0  0  0  0
 10  2  1  0  0  0  0
 11 12  1  6  0  0  0
 11 13  1  0  0  0  0
 14 15  1  0  0  0  0
 16 18  1  0  0  0  0
 17 13  1  6  0  0  0
 17 19  1  0  0  0  0
 17 16  1  0  0  0  0
 18 15  1  0  0  0  0
 19 14  1  0  0  0  0
 20 19  2  0  0  0  0
 21  1  1  0  0  0  0
 22 25  1  0  0  0  0
 23 21  1  0  0  0  0
 23 24  1  0  0  0  0
 25 24  2  0  0  0  0
 26 27  1  0  0  0  0
 26 22  2  0  0  0  0
 27 23  2  0  0  0  0
M  END
>  <MODEL>
7

>  <REMARK>
 VINA RESULT:      -5.8      3.646      7.171
  Name = 
  6 active torsions:
  status: ('A' for Active; 'I' for Inactive)
    1  A    between atoms: N_1  and  C_2
    2  A    between atoms: N_1  and  C_15
    3  A    between atoms: N_1  and  C_18
    4  A    between atoms: C_2  and  N_19
    5  A    between atoms: C_9  and  C_15
    6  A    between atoms: C_14  and  N_19
                            x       y       z     vdW  Elec       q    Type
                         _______ _______ _______ _____ _____    ______ ____

>  <TORSDO>
F 6

$$$$
=
 OpenBabel11052413523D

 27 29  0  0  1  0  0  0  0  0999 V2000
  189.2560  177.8980  144.5350 N   0  0  0  0  0  0  0  0  0  0  0  0
  189.6720  177.1570  146.9500 C   0  0  0  0  0  0  0  0  0  0  0  0
  192.4300  175.6290  146.9450 C   0  0  0  0  0  2  0  0  0  0  0  0
  188.4520  177.2760  147.2330 O   0  0  0  0  0  0  0  0  0  0  0  0
  191.5220  175.1980  145.9240 O   0  0  0  0  0  0  0  0  0  0  0  0
  190.1870  177.3150  145.5300 C   0  0  0  0  0  3  0  0  0  0  0  0
  191.9740  176.8540  147.7390 C   0  0  0  0  0  2  0  0  0  0  0  0
  190.7390  175.7110  143.8340 O   0  0  0  0  0  0  0  0  0  0  0  0
  190.8360  176.0460  145.0450 C   0  0  0  0  0  0  0  0  0  0  0  0
  190.5720  176.8500  147.9700 O   0  0  0  0  0  0  0  0  0  0  0  0
  189.8690  178.4930  143.3280 C   0  0  1  0  0  3  0  0  0  0  0  0
  191.3180  178.8820  143.5960 C   0  0  0  0  0  1  0  0  0  0  0  0
  189.8480  177.5430  142.2230 N   0  0  0  0  0  2  0  0  0  0  0  0
  190.5550  176.3410  139.3010 C   0  0  0  0  0  2  0  0  0  0  0  0
  189.4420  176.8980  138.5350 N   0  0  0  0  0  2  0  0  0  0  0  0
  188.9880  178.6250  140.2090 C   0  0  0  0  0  2  0  0  0  0  0  0
  190.2370  178.2540  141.0150 C   0  0  2  0  0  3  0  0  0  0  0  0
  188.4340  177.4110  139.4620 C   0  0  0  0  0  2  0  0  0  0  0  0
  191.1500  177.3930  140.1900 C   0  0  0  0  0  0  0  0  0  0  0  0
  192.3610  177.5030  140.2920 O   0  0  0  0  0  0  0  0  0  0  0  0
  188.1580  176.9630  144.2320 C   0  0  0  0  0  2  0  0  0  0  0  0
  184.3050  178.8390  143.8890 C   0  0  0  0  0  3  0  0  0  0  0  0
  186.8110  177.6130  144.1060 C   0  0  0  0  0  0  0  0  0  0  0  0
  186.2600  177.8670  142.8450 C   0  0  0  0  0  3  0  0  0  0  0  0
  185.0070  178.4760  142.7360 C   0  0  0  0  0  3  0  0  0  0  0  0
  184.8560  178.5960  145.1500 C   0  0  0  0  0  3  0  0  0  0  0  0
  186.1100  177.9860  145.2590 C   0  0  0  0  0  3  0  0  0  0  0  0
  1  6  1  0  0  0  0
  2  4  2  0  0  0  0
  2 10  1  0  0  0  0
  3  7  1  0  0  0  0
  5  3  1  0  0  0  0
  6  2  1  0  0  0  0
  7 10  1  0  0  0  0
  8  9  2  0  0  0  0
  9  6  1  0  0  0  0
  9  5  1  0  0  0  0
 11 12  1  1  0  0  0
 11  1  1  0  0  0  0
 13 11  1  0  0  0  0
 14 19  1  0  0  0  0
 15 14  1  0  0  0  0
 15 18  1  0  0  0  0
 16 17  1  0  0  0  0
 17 13  1  1  0  0  0
 18 16  1  0  0  0  0
 19 20  2  0  0  0  0
 19 17  1  0  0  0  0
 21  1  1  0  0  0  0
 22 26  1  0  0  0  0
 23 21  1  0  0  0  0
 23 27  1  0  0  0  0
 24 23  2  0  0  0  0
 25 24  1  0  0  0  0
 25 22  2  0  0  0  0
 26 27  2  0  0  0  0
M  END
>  <MODEL>
8

>  <REMARK>
 VINA RESULT:      -5.8      2.333      3.572
  Name = 
  6 active torsions:
  status: ('A' for Active; 'I' for Inactive)
    1  A    between atoms: N_1  and  C_2
    2  A    between atoms: N_1  and  C_15
    3  A    between atoms: N_1  and  C_18
    4  A    between atoms: C_2  and  N_19
    5  A    between atoms: C_9  and  C_15
    6  A    between atoms: C_14  and  N_19
                            x       y       z     vdW  Elec       q    Type
                         _______ _______ _______ _____ _____    ______ ____

>  <TORSDO>
F 6

$$$$
=
 OpenBabel11052413523D

 27 29  0  0  1  0  0  0  0  0999 V2000
  189.1470  177.4680  143.3590 N   0  0  0  0  0  0  0  0  0  0  0  0
  191.2470  177.8400  144.7770 C   0  0  0  0  0  0  0  0  0  0  0  0
  190.5660  176.7740  147.6650 C   0  0  0  0  0  2  0  0  0  0  0  0
  191.6820  178.7000  143.9690 O   0  0  0  0  0  0  0  0  0  0  0  0
  189.5760  177.6540  147.1190 O   0  0  0  0  0  0  0  0  0  0  0  0
  189.8610  177.2340  144.6370 C   0  0  0  0  0  3  0  0  0  0  0  0
  191.6810  176.3780  146.6960 C   0  0  0  0  0  2  0  0  0  0  0  0
  187.7740  177.7340  145.7080 O   0  0  0  0  0  0  0  0  0  0  0  0
  189.0120  177.5410  145.8430 C   0  0  0  0  0  0  0  0  0  0  0  0
  192.0550  177.4500  145.8430 O   0  0  0  0  0  0  0  0  0  0  0  0
  189.9260  177.2600  142.1210 C   0  0  1  0  0  3  0  0  0  0  0  0
  190.7810  176.0030  142.2260 C   0  0  0  0  0  1  0  0  0  0  0  0
  189.0360  177.1120  140.9760 N   0  0  0  0  0  2  0  0  0  0  0  0
  188.6920  176.0820  137.9260 C   0  0  0  0  0  2  0  0  0  0  0  0
  188.2060  177.3150  137.3080 N   0  0  0  0  0  2  0  0  0  0  0  0
  189.0550  178.7120  139.1300 C   0  0  0  0  0  2  0  0  0  0  0  0
  189.7660  177.5250  139.7870 C   0  0  2  0  0  3  0  0  0  0  0  0
  187.8160  178.2530  138.3590 C   0  0  0  0  0  2  0  0  0  0  0  0
  189.8580  176.3760  138.8230 C   0  0  0  0  0  0  0  0  0  0  0  0
  190.8390  175.6520  138.8170 O   0  0  0  0  0  0  0  0  0  0  0  0
  187.8440  176.7790  143.3540 C   0  0  0  0  0  2  0  0  0  0  0  0
  184.4780  179.3780  142.7200 C   0  0  0  0  0  3  0  0  0  0  0  0
  186.6690  177.6840  143.1250 C   0  0  0  0  0  0  0  0  0  0  0  0
  186.5480  178.4020  141.9290 C   0  0  0  0  0  3  0  0  0  0  0  0
  185.4520  179.2460  141.7260 C   0  0  0  0  0  3  0  0  0  0  0  0
  184.6010  178.6700  143.9190 C   0  0  0  0  0  3  0  0  0  0  0  0
  185.6970  177.8260  144.1220 C   0  0  0  0  0  3  0  0  0  0  0  0
  1  6  1  0  0  0  0
  2 10  1  0  0  0  0
  4  2  2  0  0  0  0
  5  3  1  0  0  0  0
  6  2  1  0  0  0  0
  6  9  1  0  0  0  0
  7  3  1  0  0  0  0
  8  9  2  0  0  0  0
  9  5  1  0  0  0  0
 10  7  1  0  0  0  0
 11 12  1  1  0  0  0
 11  1  1  0  0  0  0
 13 11  1  0  0  0  0
 14 19  1  0  0  0  0
 15 14  1  0  0  0  0
 15 18  1  0  0  0  0
 16 17  1  0  0  0  0
 17 13  1  1  0  0  0
 18 16  1  0  0  0  0
 19 17  1  0  0  0  0
 20 19  2  0  0  0  0
 21  1  1  0  0  0  0
 22 26  1  0  0  0  0
 23 21  1  0  0  0  0
 23 27  1  0  0  0  0
 24 23  2  0  0  0  0
 25 24  1  0  0  0  0
 25 22  2  0  0  0  0
 26 27  2  0  0  0  0
M  END
>  <MODEL>
9

>  <REMARK>
 VINA RESULT:      -5.7      2.081      3.490
  Name = 
  6 active torsions:
  status: ('A' for Active; 'I' for Inactive)
    1  A    between atoms: N_1  and  C_2
    2  A    between atoms: N_1  and  C_15
    3  A    between atoms: N_1  and  C_18
    4  A    between atoms: C_2  and  N_19
    5  A    between atoms: C_9  and  C_15
    6  A    between atoms: C_14  and  N_19
                            x       y       z     vdW  Elec       q    Type
                         _______ _______ _______ _____ _____    ______ ____

>  <TORSDO>
F 6

$$$$
