=
 OpenBabel11052414363D

 32 37  0  0  1  0  0  0  0  0999 V2000
  187.0060  177.5720  143.9760 C   0  0  2  0  0  3  0  0  0  0  0  0
  188.9560  177.1350  142.5000 C   0  0  2  0  0  3  0  0  0  0  0  0
  186.4860  178.2870  145.2170 C   0  0  0  0  0  2  0  0  0  0  0  0
  188.5320  177.7620  143.8420 C   0  0  2  0  0  3  0  0  0  0  0  0
  190.4320  176.8160  142.2990 C   0  0  0  0  0  0  0  0  0  0  0  0
  189.0390  178.8140  137.6950 C   0  0  0  0  0  2  0  0  0  0  0  0
  188.3710  178.0540  141.4220 C   0  0  2  0  0  3  0  0  0  0  0  0
  191.1150  177.1570  138.4250 S   0  0  0  0  0  0  0  0  0  0  0  0
  190.4020  177.8000  139.9900 C   0  0  2  0  0  3  0  0  0  0  0  0
  191.1590  175.9070  143.2540 C   0  0  2  0  0  3  0  0  0  0  0  0
  189.2620  177.2670  145.1060 C   0  0  1  0  0  3  0  0  0  0  0  0
  191.0410  177.0590  141.1300 C   0  0  0  0  0  3  0  0  0  0  0  0
  190.7180  177.6950  145.0460 C   0  0  0  0  0  2  0  0  0  0  0  0
  188.6660  177.9160  146.3570 C   0  0  0  0  0  2  0  0  0  0  0  0
  186.8650  178.0690  141.5300 C   0  0  0  0  0  3  0  0  0  0  0  0
  190.3760  174.6370  143.5420 C   0  0  0  0  0  1  0  0  0  0  0  0
  186.2310  177.9350  142.7080 C   0  0  0  0  0  0  0  0  0  0  0  0
  188.8680  177.7070  140.0180 C   0  0  2  0  0  3  0  0  0  0  0  0
  191.6250  176.5790  144.5450 C   0  0  0  0  0  2  0  0  0  0  0  0
  187.1610  177.6970  146.4450 C   0  0  0  0  0  2  0  0  0  0  0  0
  189.7020  177.5030  137.3170 C   0  0  0  0  0  2  0  0  0  0  0  0
  188.2490  178.6770  138.9960 C   0  0  0  0  0  2  0  0  0  0  0  0
  182.6460  179.4840  142.9470 C   0  0  2  0  0  3  0  0  0  0  0  0
  181.6060  178.6670  144.1440 Cl  0  0  0  0  0  0  0  0  0  0  0  0
  184.7240  177.9200  142.6750 C   0  0  2  0  0  3  0  0  0  0  0  0
  182.2490  179.0800  141.5280 C   0  0  0  0  0  2  0  0  0  0  0  0
  184.2170  177.5850  141.2720 C   0  0  0  0  0  2  0  0  0  0  0  0
  184.0910  179.1830  143.2270 C   0  0  0  0  0  0  0  0  0  0  0  0
  184.7070  179.9030  143.9980 O   0  0  0  0  0  0  0  0  0  0  0  0
  182.6980  177.6540  141.2070 C   0  0  2  0  0  3  0  0  0  0  0  0
  183.3960  177.3420  138.8350 C   0  0  0  0  0  1  0  0  0  0  0  0
  182.2400  177.2620  139.8140 C   0  0  0  0  0  2  0  0  0  0  0  0
  1  3  1  1  0  0  0
  2  5  1  1  0  0  0
  2  4  1  0  0  0  0
  3 20  1  0  0  0  0
  4  1  1  0  0  0  0
  4 11  1  0  0  0  0
  5 10  1  0  0  0  0
  6 22  1  0  0  0  0
  7 15  1  0  0  0  0
  7  2  1  0  0  0  0
  8  9  1  0  0  0  0
  9 18  1  0  0  0  0
  9 12  1  0  0  0  0
 10 16  1  0  0  0  0
 10 19  1  0  0  0  0
 11 14  1  0  0  0  0
 12  5  2  0  0  0  0
 13 11  1  0  0  0  0
 14 20  1  0  0  0  0
 15 17  2  0  0  0  0
 17  1  1  0  0  0  0
 18  7  1  0  0  0  0
 19 13  1  0  0  0  0
 21  6  1  0  0  0  0
 21  8  1  0  0  0  0
 22 18  1  0  0  0  0
 23 28  1  0  0  0  0
 23 24  1  0  0  0  0
 25 17  1  0  0  0  0
 25 28  1  0  0  0  0
 26 23  1  0  0  0  0
 27 25  1  0  0  0  0
 28 29  2  0  0  0  0
 30 27  1  0  0  0  0
 30 26  1  0  0  0  0
 31 32  1  0  0  0  0
 32 30  1  0  0  0  0
M  END
>  <MODEL>
1

>  <REMARK>
 VINA RESULT:      -8.9      0.000      0.000
  Name = 
  2 active torsions:
  status: ('A' for Active; 'I' for Inactive)
    1  A    between atoms: C_15  and  C_26
    2  A    between atoms: C_16  and  C_27
                            x       y       z     vdW  Elec       q    Type
                         _______ _______ _______ _____ _____    ______ ____

>  <TORSDO>
F 2

$$$$
=
 OpenBabel11052414363D

 32 37  0  0  1  0  0  0  0  0999 V2000
  185.2820  178.2900  142.4930 C   0  0  2  0  0  3  0  0  0  0  0  0
  187.5410  177.5580  141.7640 C   0  0  2  0  0  3  0  0  0  0  0  0
  184.4760  179.1740  143.4360 C   0  0  0  0  0  2  0  0  0  0  0  0
  186.7850  178.3600  142.8400 C   0  0  2  0  0  3  0  0  0  0  0  0
  188.9660  177.1180  142.0760 C   0  0  0  0  0  0  0  0  0  0  0  0
  189.2920  178.6770  137.1160 C   0  0  0  0  0  2  0  0  0  0  0  0
  187.4190  178.3880  140.4810 C   0  0  2  0  0  3  0  0  0  0  0  0
  190.8570  176.9740  138.6120 S   0  0  0  0  0  0  0  0  0  0  0  0
  189.7590  177.8360  139.8050 C   0  0  2  0  0  3  0  0  0  0  0  0
  189.2640  176.2740  143.2860 C   0  0  2  0  0  3  0  0  0  0  0  0
  187.0300  177.9600  144.3090 C   0  0  1  0  0  3  0  0  0  0  0  0
  189.9320  177.1860  141.1480 C   0  0  0  0  0  3  0  0  0  0  0  0
  188.4660  178.2780  144.6840 C   0  0  0  0  0  2  0  0  0  0  0  0
  186.1410  178.7840  145.2430 C   0  0  0  0  0  2  0  0  0  0  0  0
  185.9650  178.5180  140.0980 C   0  0  0  0  0  3  0  0  0  0  0  0
  188.3060  175.1010  143.4140 C   0  0  0  0  0  1  0  0  0  0  0  0
  184.9840  178.5610  141.0170 C   0  0  0  0  0  0  0  0  0  0  0  0
  188.2930  177.8520  139.3460 C   0  0  2  0  0  3  0  0  0  0  0  0
  189.3680  177.0530  144.5970 C   0  0  0  0  0  2  0  0  0  0  0  0
  184.6690  178.6810  144.8610 C   0  0  0  0  0  2  0  0  0  0  0  0
  189.9030  177.2900  137.0840 C   0  0  0  0  0  2  0  0  0  0  0  0
  188.1250  178.7420  138.1010 C   0  0  0  0  0  2  0  0  0  0  0  0
  182.1700  179.4880  138.4600 C   0  0  2  0  0  3  0  0  0  0  0  0
  180.8860  180.5040  139.1660 Cl  0  0  0  0  0  0  0  0  0  0  0  0
  183.5690  178.6460  140.5040 C   0  0  2  0  0  3  0  0  0  0  0  0
  181.6850  178.0480  138.2940 C   0  0  0  0  0  2  0  0  0  0  0  0
  183.0040  177.2490  140.2420 C   0  0  0  0  0  2  0  0  0  0  0  0
  183.4110  179.5610  139.3050 C   0  0  0  0  0  0  0  0  0  0  0  0
  184.2260  180.4450  139.0840 O   0  0  0  0  0  0  0  0  0  0  0  0
  181.6090  177.3260  139.6390 C   0  0  2  0  0  3  0  0  0  0  0  0
  179.8790  175.6820  140.3590 C   0  0  0  0  0  1  0  0  0  0  0  0
  181.0690  175.9200  139.4480 C   0  0  0  0  0  2  0  0  0  0  0  0
  1  4  1  0  0  0  0
  1  3  1  1  0  0  0
  2  5  1  1  0  0  0
  2  4  1  0  0  0  0
  3 20  1  0  0  0  0
  4 11  1  0  0  0  0
  5 10  1  0  0  0  0
  6 22  1  0  0  0  0
  7  2  1  0  0  0  0
  8  9  1  0  0  0  0
  9 12  1  0  0  0  0
 10 16  1  0  0  0  0
 10 19  1  0  0  0  0
 11 13  1  0  0  0  0
 11 14  1  0  0  0  0
 12  5  2  0  0  0  0
 15  7  1  0  0  0  0
 15 17  2  0  0  0  0
 17  1  1  0  0  0  0
 18  9  1  0  0  0  0
 18  7  1  0  0  0  0
 19 13  1  0  0  0  0
 20 14  1  0  0  0  0
 21  6  1  0  0  0  0
 21  8  1  0  0  0  0
 22 18  1  0  0  0  0
 23 24  1  0  0  0  0
 23 28  1  0  0  0  0
 25 17  1  0  0  0  0
 26 23  1  0  0  0  0
 26 30  1  0  0  0  0
 27 25  1  0  0  0  0
 28 25  1  0  0  0  0
 29 28  2  0  0  0  0
 30 27  1  0  0  0  0
 32 30  1  0  0  0  0
 32 31  1  0  0  0  0
M  END
>  <MODEL>
2

>  <REMARK>
 VINA RESULT:      -8.4      1.824      2.595
  Name = 
  2 active torsions:
  status: ('A' for Active; 'I' for Inactive)
    1  A    between atoms: C_15  and  C_26
    2  A    between atoms: C_16  and  C_27
                            x       y       z     vdW  Elec       q    Type
                         _______ _______ _______ _____ _____    ______ ____

>  <TORSDO>
F 2

$$$$
=
 OpenBabel11052414363D

 32 37  0  0  1  0  0  0  0  0999 V2000
  181.7940  178.5750  139.6760 C   0  0  2  0  0  3  0  0  0  0  0  0
  182.2080  178.5900  142.1250 C   0  0  2  0  0  3  0  0  0  0  0  0
  181.2660  179.3450  138.4720 C   0  0  0  0  0  2  0  0  0  0  0  0
  181.5260  179.3610  140.9780 C   0  0  2  0  0  3  0  0  0  0  0  0
  181.7700  178.9040  143.5500 C   0  0  0  0  0  0  0  0  0  0  0  0
  186.9450  178.5090  143.9880 C   0  0  0  0  0  2  0  0  0  0  0  0
  183.7120  178.7650  141.8900 C   0  0  2  0  0  3  0  0  0  0  0  0
  184.9210  178.2550  145.8390 S   0  0  0  0  0  0  0  0  0  0  0  0
  184.1510  178.9830  144.3400 C   0  0  2  0  0  3  0  0  0  0  0  0
  180.3280  178.7610  143.9610 C   0  0  2  0  0  3  0  0  0  0  0  0
  180.0230  179.6650  141.1380 C   0  0  1  0  0  3  0  0  0  0  0  0
  182.6630  179.0020  144.5450 C   0  0  0  0  0  3  0  0  0  0  0  0
  179.8280  180.6430  142.2840 C   0  0  0  0  0  2  0  0  0  0  0  0
  179.4790  180.3490  139.8820 C   0  0  0  0  0  2  0  0  0  0  0  0
  184.0930  178.1540  140.5640 C   0  0  0  0  0  3  0  0  0  0  0  0
  179.7300  177.4420  143.4990 C   0  0  0  0  0  1  0  0  0  0  0  0
  183.2510  178.1390  139.5150 C   0  0  0  0  0  0  0  0  0  0  0  0
  184.5560  178.2430  143.0550 C   0  0  2  0  0  3  0  0  0  0  0  0
  179.4350  179.9410  143.5780 C   0  0  0  0  0  2  0  0  0  0  0  0
  179.7650  179.5350  138.6260 C   0  0  0  0  0  2  0  0  0  0  0  0
  186.4340  177.5760  145.0680 C   0  0  0  0  0  2  0  0  0  0  0  0
  186.0490  178.4630  142.7510 C   0  0  0  0  0  2  0  0  0  0  0  0
  185.9080  176.9690  136.8920 C   0  0  2  0  0  3  0  0  0  0  0  0
  185.5390  177.5050  135.2310 Cl  0  0  0  0  0  0  0  0  0  0  0  0
  183.7330  177.4570  138.2600 C   0  0  2  0  0  3  0  0  0  0  0  0
  185.5920  175.4840  137.0590 C   0  0  0  0  0  2  0  0  0  0  0  0
  183.5190  175.9460  138.3500 C   0  0  0  0  0  2  0  0  0  0  0  0
  185.1590  177.8120  137.8850 C   0  0  0  0  0  0  0  0  0  0  0  0
  185.6710  178.8460  138.2890 O   0  0  0  0  0  0  0  0  0  0  0  0
  184.0840  175.2380  137.1260 C   0  0  2  0  0  3  0  0  0  0  0  0
  185.0660  172.9970  137.5970 C   0  0  0  0  0  1  0  0  0  0  0  0
  183.8010  173.7510  137.2340 C   0  0  0  0  0  2  0  0  0  0  0  0
  1  3  1  6  0  0  0
  1  4  1  0  0  0  0
  2  5  1  1  0  0  0
  3 20  1  0  0  0  0
  4 11  1  0  0  0  0
  4  2  1  0  0  0  0
  5 10  1  0  0  0  0
  5 12  2  0  0  0  0
  6 21  1  0  0  0  0
  7  2  1  0  0  0  0
  7 18  1  0  0  0  0
  9 12  1  0  0  0  0
  9  8  1  0  0  0  0
 11 13  1  0  0  0  0
 13 19  1  0  0  0  0
 14 11  1  0  0  0  0
 15  7  1  0  0  0  0
 16 10  1  0  0  0  0
 17  1  1  0  0  0  0
 17 15  2  0  0  0  0
 18  9  1  0  0  0  0
 19 10  1  0  0  0  0
 20 14  1  0  0  0  0
 21  8  1  0  0  0  0
 22 18  1  0  0  0  0
 22  6  1  0  0  0  0
 23 26  1  0  0  0  0
 23 28  1  0  0  0  0
 24 23  1  0  0  0  0
 25 27  1  0  0  0  0
 25 17  1  0  0  0  0
 26 30  1  0  0  0  0
 28 25  1  0  0  0  0
 28 29  2  0  0  0  0
 30 32  1  0  0  0  0
 30 27  1  0  0  0  0
 32 31  1  0  0  0  0
M  END
>  <MODEL>
3

>  <REMARK>
 VINA RESULT:      -8.0      3.936      7.952
  Name = 
  2 active torsions:
  status: ('A' for Active; 'I' for Inactive)
    1  A    between atoms: C_15  and  C_26
    2  A    between atoms: C_16  and  C_27
                            x       y       z     vdW  Elec       q    Type
                         _______ _______ _______ _____ _____    ______ ____

>  <TORSDO>
F 2

$$$$
=
 OpenBabel11052414363D

 32 37  0  0  1  0  0  0  0  0999 V2000
  188.6560  177.8550  144.0490 C   0  0  2  0  0  3  0  0  0  0  0  0
  186.3200  178.4390  144.6600 C   0  0  2  0  0  3  0  0  0  0  0  0
  189.8350  176.9180  144.2850 C   0  0  0  0  0  2  0  0  0  0  0  0
  187.5200  177.5540  145.0500 C   0  0  2  0  0  3  0  0  0  0  0  0
  185.2260  178.6520  145.6980 C   0  0  0  0  0  0  0  0  0  0  0  0
  182.5280  177.9500  141.2980 C   0  0  0  0  0  2  0  0  0  0  0  0
  185.8090  177.8630  143.3340 C   0  0  2  0  0  3  0  0  0  0  0  0
  181.8760  179.1780  143.6760 S   0  0  0  0  0  0  0  0  0  0  0  0
  183.4300  178.2530  143.9910 C   0  0  2  0  0  3  0  0  0  0  0  0
  185.5500  179.2340  147.0490 C   0  0  2  0  0  3  0  0  0  0  0  0
  188.0230  177.6630  146.5040 C   0  0  1  0  0  3  0  0  0  0  0  0
  183.9310  178.6360  145.3540 C   0  0  0  0  0  3  0  0  0  0  0  0
  186.9610  177.1220  147.4450 C   0  0  0  0  0  2  0  0  0  0  0  0
  189.2680  176.7960  146.7050 C   0  0  0  0  0  2  0  0  0  0  0  0
  186.8880  177.9690  142.2850 C   0  0  0  0  0  3  0  0  0  0  0  0
  186.4310  180.4680  146.9430 C   0  0  0  0  0  1  0  0  0  0  0  0
  188.1950  177.8790  142.5910 C   0  0  0  0  0  0  0  0  0  0  0  0
  184.4820  178.4850  142.8940 C   0  0  2  0  0  3  0  0  0  0  0  0
  186.1150  178.2330  148.0560 C   0  0  0  0  0  2  0  0  0  0  0  0
  190.3600  177.1310  145.6960 C   0  0  0  0  0  2  0  0  0  0  0  0
  181.9590  179.2430  141.8510 C   0  0  0  0  0  2  0  0  0  0  0  0
  184.0290  177.8500  141.5670 C   0  0  0  0  0  2  0  0  0  0  0  0
  190.7770  176.6820  139.9060 C   0  0  2  0  0  3  0  0  0  0  0  0
  192.3560  177.5020  140.0350 Cl  0  0  0  0  0  0  0  0  0  0  0  0
  189.1760  178.0470  141.4590 C   0  0  2  0  0  3  0  0  0  0  0  0
  189.9810  177.2340  138.7240 C   0  0  0  0  0  2  0  0  0  0  0  0
  188.4660  178.5400  140.1970 C   0  0  0  0  0  2  0  0  0  0  0  0
  190.0200  176.8150  141.1970 C   0  0  0  0  0  0  0  0  0  0  0  0
  190.1890  175.9790  142.0710 O   0  0  0  0  0  0  0  0  0  0  0  0
  189.4310  178.6280  139.0230 C   0  0  2  0  0  3  0  0  0  0  0  0
  189.0280  178.3500  136.5800 C   0  0  0  0  0  1  0  0  0  0  0  0
  188.6950  179.1720  137.8120 C   0  0  0  0  0  2  0  0  0  0  0  0
  1  3  1  6  0  0  0
  1  4  1  0  0  0  0
  2  4  1  0  0  0  0
  2  5  1  1  0  0  0
  3 20  1  0  0  0  0
  4 11  1  0  0  0  0
  5 10  1  0  0  0  0
  6 22  1  0  0  0  0
  6 21  1  0  0  0  0
  7  2  1  0  0  0  0
  8  9  1  0  0  0  0
  9 12  1  0  0  0  0
 10 19  1  0  0  0  0
 11 14  1  0  0  0  0
 11 13  1  0  0  0  0
 12  5  2  0  0  0  0
 13 19  1  0  0  0  0
 15 17  2  0  0  0  0
 15  7  1  0  0  0  0
 16 10  1  0  0  0  0
 17  1  1  0  0  0  0
 18  7  1  0  0  0  0
 18  9  1  0  0  0  0
 20 14  1  0  0  0  0
 21  8  1  0  0  0  0
 22 18  1  0  0  0  0
 23 24  1  0  0  0  0
 23 28  1  0  0  0  0
 25 17  1  0  0  0  0
 26 30  1  0  0  0  0
 26 23  1  0  0  0  0
 27 25  1  0  0  0  0
 28 25  1  0  0  0  0
 28 29  2  0  0  0  0
 30 27  1  0  0  0  0
 31 32  1  0  0  0  0
 32 30  1  0  0  0  0
M  END
>  <MODEL>
4

>  <REMARK>
 VINA RESULT:      -7.8      3.286      6.366
  Name = 
  2 active torsions:
  status: ('A' for Active; 'I' for Inactive)
    1  A    between atoms: C_15  and  C_26
    2  A    between atoms: C_16  and  C_27
                            x       y       z     vdW  Elec       q    Type
                         _______ _______ _______ _____ _____    ______ ____

>  <TORSDO>
F 2

$$$$
=
 OpenBabel11052414363D

 32 37  0  0  1  0  0  0  0  0999 V2000
  187.0860  178.0750  139.7420 C   0  0  2  0  0  3  0  0  0  0  0  0
  185.1460  177.6630  138.2460 C   0  0  2  0  0  3  0  0  0  0  0  0
  188.4600  178.7160  139.8940 C   0  0  0  0  0  2  0  0  0  0  0  0
  186.5880  178.2040  138.2860 C   0  0  2  0  0  3  0  0  0  0  0  0
  184.5640  177.2920  136.8880 C   0  0  0  0  0  0  0  0  0  0  0  0
  180.5880  179.7060  139.2330 C   0  0  0  0  0  2  0  0  0  0  0  0
  184.3090  178.6900  139.0160 C   0  0  2  0  0  3  0  0  0  0  0  0
  180.6720  177.9000  137.1540 S   0  0  0  0  0  0  0  0  0  0  0  0
  182.4030  178.4530  137.4180 C   0  0  2  0  0  3  0  0  0  0  0  0
  185.2470  176.2780  136.0090 C   0  0  2  0  0  3  0  0  0  0  0  0
  187.5970  177.5770  137.3020 C   0  0  1  0  0  3  0  0  0  0  0  0
  183.2980  177.5960  136.5690 C   0  0  0  0  0  3  0  0  0  0  0  0
  187.2040  177.9400  135.8800 C   0  0  0  0  0  2  0  0  0  0  0  0
  188.9960  178.1540  137.5300 C   0  0  0  0  0  2  0  0  0  0  0  0
  184.7880  178.7680  140.4450 C   0  0  0  0  0  3  0  0  0  0  0  0
  185.6410  175.0280  136.7780 C   0  0  0  0  0  1  0  0  0  0  0  0
  186.0770  178.5730  140.7780 C   0  0  0  0  0  0  0  0  0  0  0  0
  182.8050  178.4300  138.9010 C   0  0  2  0  0  3  0  0  0  0  0  0
  186.4220  176.8240  135.1980 C   0  0  0  0  0  2  0  0  0  0  0  0
  189.4420  178.0010  138.9790 C   0  0  0  0  0  2  0  0  0  0  0  0
  179.9750  178.3980  138.7700 C   0  0  0  0  0  2  0  0  0  0  0  0
  182.0340  179.5050  139.6880 C   0  0  0  0  0  2  0  0  0  0  0  0
  185.4930  177.9730  144.6010 C   0  0  2  0  0  3  0  0  0  0  0  0
  185.5880  179.4670  145.5690 Cl  0  0  0  0  0  0  0  0  0  0  0  0
  186.4190  178.6310  142.2450 C   0  0  2  0  0  3  0  0  0  0  0  0
  186.7580  177.1350  144.7820 C   0  0  0  0  0  2  0  0  0  0  0  0
  187.6450  177.7680  142.5490 C   0  0  0  0  0  2  0  0  0  0  0  0
  185.2510  178.3070  143.1560 C   0  0  0  0  0  0  0  0  0  0  0  0
  184.1010  178.4310  142.7620 O   0  0  0  0  0  0  0  0  0  0  0  0
  187.9460  177.7490  144.0410 C   0  0  2  0  0  3  0  0  0  0  0  0
  189.5090  176.0630  143.0800 C   0  0  0  0  0  1  0  0  0  0  0  0
  189.1980  176.9270  144.2870 C   0  0  0  0  0  2  0  0  0  0  0  0
  1  3  1  6  0  0  0
  1 17  1  0  0  0  0
  2  5  1  6  0  0  0
  2  4  1  0  0  0  0
  2  7  1  0  0  0  0
  4  1  1  0  0  0  0
  6 22  1  0  0  0  0
  7 15  1  0  0  0  0
  8  9  1  0  0  0  0
  8 21  1  0  0  0  0
  9 18  1  0  0  0  0
 10 16  1  0  0  0  0
 10  5  1  0  0  0  0
 11 14  1  0  0  0  0
 11  4  1  0  0  0  0
 12  5  2  0  0  0  0
 12  9  1  0  0  0  0
 13 11  1  0  0  0  0
 14 20  1  0  0  0  0
 15 17  2  0  0  0  0
 17 25  1  0  0  0  0
 18  7  1  0  0  0  0
 18 22  1  0  0  0  0
 19 13  1  0  0  0  0
 19 10  1  0  0  0  0
 20  3  1  0  0  0  0
 21  6  1  0  0  0  0
 23 26  1  0  0  0  0
 23 24  1  0  0  0  0
 25 27  1  0  0  0  0
 25 28  1  0  0  0  0
 27 30  1  0  0  0  0
 28 23  1  0  0  0  0
 29 28  2  0  0  0  0
 30 32  1  0  0  0  0
 30 26  1  0  0  0  0
 31 32  1  0  0  0  0
M  END
>  <MODEL>
5

>  <REMARK>
 VINA RESULT:      -7.8      2.799      6.958
  Name = 
  2 active torsions:
  status: ('A' for Active; 'I' for Inactive)
    1  A    between atoms: C_15  and  C_26
    2  A    between atoms: C_16  and  C_27
                            x       y       z     vdW  Elec       q    Type
                         _______ _______ _______ _____ _____    ______ ____

>  <TORSDO>
F 2

$$$$
=
 OpenBabel11052414363D

 32 37  0  0  1  0  0  0  0  0999 V2000
  183.7720  178.2190  142.3140 C   0  0  2  0  0  3  0  0  0  0  0  0
  186.2180  177.9050  142.6090 C   0  0  2  0  0  3  0  0  0  0  0  0
  182.5440  179.0470  142.6750 C   0  0  0  0  0  2  0  0  0  0  0  0
  184.9970  178.6880  143.1280 C   0  0  2  0  0  3  0  0  0  0  0  0
  187.4610  177.8620  143.4880 C   0  0  0  0  0  0  0  0  0  0  0  0
  189.4370  178.5660  138.7200 C   0  0  0  0  0  2  0  0  0  0  0  0
  186.4780  178.4490  141.2000 C   0  0  2  0  0  3  0  0  0  0  0  0
  190.5380  177.5510  141.0320 S   0  0  0  0  0  0  0  0  0  0  0  0
  188.9520  178.3350  141.5250 C   0  0  2  0  0  3  0  0  0  0  0  0
  187.3900  177.3320  144.8960 C   0  0  2  0  0  3  0  0  0  0  0  0
  184.7140  178.6170  144.6420 C   0  0  1  0  0  3  0  0  0  0  0  0
  188.6880  177.9850  142.9620 C   0  0  0  0  0  3  0  0  0  0  0  0
  185.8320  179.3140  145.3960 C   0  0  0  0  0  2  0  0  0  0  0  0
  183.4240  179.3670  144.9800 C   0  0  0  0  0  2  0  0  0  0  0  0
  185.2810  178.1760  140.3220 C   0  0  0  0  0  3  0  0  0  0  0  0
  186.6390  176.0120  144.9720 C   0  0  0  0  0  1  0  0  0  0  0  0
  184.0270  178.1550  140.8080 C   0  0  0  0  0  0  0  0  0  0  0  0
  187.7900  177.9370  140.6020 C   0  0  2  0  0  3  0  0  0  0  0  0
  186.8670  178.3300  145.9280 C   0  0  0  0  0  2  0  0  0  0  0  0
  182.2450  178.8670  144.1550 C   0  0  0  0  0  2  0  0  0  0  0  0
  190.2100  177.3710  139.2420 C   0  0  0  0  0  2  0  0  0  0  0  0
  187.9850  178.5340  139.1970 C   0  0  0  0  0  2  0  0  0  0  0  0
  181.8970  178.5840  137.5540 C   0  0  2  0  0  3  0  0  0  0  0  0
  180.1550  178.7940  137.8760 Cl  0  0  0  0  0  0  0  0  0  0  0  0
  182.9230  177.8240  139.8360 C   0  0  2  0  0  3  0  0  0  0  0  0
  182.1820  177.1740  137.0400 C   0  0  0  0  0  2  0  0  0  0  0  0
  183.1470  176.4470  139.2110 C   0  0  0  0  0  2  0  0  0  0  0  0
  182.6930  178.8970  138.7890 C   0  0  0  0  0  0  0  0  0  0  0  0
  183.0440  180.0500  138.9910 O   0  0  0  0  0  0  0  0  0  0  0  0
  182.0860  176.1410  138.1630 C   0  0  2  0  0  3  0  0  0  0  0  0
  183.7990  174.4240  137.5920 C   0  0  0  0  0  1  0  0  0  0  0  0
  182.3170  174.7450  137.6110 C   0  0  0  0  0  2  0  0  0  0  0  0
  1  3  1  6  0  0  0
  1  4  1  0  0  0  0
  2  4  1  0  0  0  0
  2  5  1  1  0  0  0
  3 20  1  0  0  0  0
  4 11  1  0  0  0  0
  5 10  1  0  0  0  0
  6 22  1  0  0  0  0
  6 21  1  0  0  0  0
  7  2  1  0  0  0  0
  8  9  1  0  0  0  0
  9 12  1  0  0  0  0
 10 16  1  0  0  0  0
 10 19  1  0  0  0  0
 11 14  1  0  0  0  0
 11 13  1  0  0  0  0
 12  5  2  0  0  0  0
 13 19  1  0  0  0  0
 15 17  2  0  0  0  0
 15  7  1  0  0  0  0
 17  1  1  0  0  0  0
 18  7  1  0  0  0  0
 18  9  1  0  0  0  0
 20 14  1  0  0  0  0
 21  8  1  0  0  0  0
 22 18  1  0  0  0  0
 23 24  1  0  0  0  0
 23 28  1  0  0  0  0
 25 17  1  0  0  0  0
 26 23  1  0  0  0  0
 26 30  1  0  0  0  0
 27 25  1  0  0  0  0
 28 29  2  0  0  0  0
 28 25  1  0  0  0  0
 30 27  1  0  0  0  0
 31 32  1  0  0  0  0
 32 30  1  0  0  0  0
M  END
>  <MODEL>
6

>  <REMARK>
 VINA RESULT:      -7.7      2.229      3.902
  Name = 
  2 active torsions:
  status: ('A' for Active; 'I' for Inactive)
    1  A    between atoms: C_15  and  C_26
    2  A    between atoms: C_16  and  C_27
                            x       y       z     vdW  Elec       q    Type
                         _______ _______ _______ _____ _____    ______ ____

>  <TORSDO>
F 2

$$$$
=
 OpenBabel11052414363D

 32 37  0  0  1  0  0  0  0  0999 V2000
  185.4330  178.3190  142.6740 C   0  0  2  0  0  3  0  0  0  0  0  0
  187.6430  177.5660  141.8240 C   0  0  2  0  0  3  0  0  0  0  0  0
  184.6870  179.1830  143.6840 C   0  0  0  0  0  2  0  0  0  0  0  0
  186.9500  178.3410  142.9620 C   0  0  2  0  0  3  0  0  0  0  0  0
  189.0680  177.0830  142.0590 C   0  0  0  0  0  0  0  0  0  0  0  0
  189.2300  178.8330  137.1560 C   0  0  0  0  0  2  0  0  0  0  0  0
  187.4880  178.4500  140.5820 C   0  0  2  0  0  3  0  0  0  0  0  0
  190.8130  177.0360  138.5180 S   0  0  0  0  0  0  0  0  0  0  0  0
  189.7860  177.8740  139.7880 C   0  0  2  0  0  3  0  0  0  0  0  0
  189.3930  176.1840  143.2230 C   0  0  2  0  0  3  0  0  0  0  0  0
  187.2440  177.8770  144.4030 C   0  0  1  0  0  3  0  0  0  0  0  0
  189.9960  177.1660  141.0960 C   0  0  0  0  0  3  0  0  0  0  0  0
  188.7020  178.1470  144.7300 C   0  0  0  0  0  2  0  0  0  0  0  0
  186.4130  178.6830  145.4040 C   0  0  0  0  0  2  0  0  0  0  0  0
  186.0240  178.6290  140.2640 C   0  0  0  0  0  3  0  0  0  0  0  0
  188.4130  175.0290  143.3440 C   0  0  0  0  0  1  0  0  0  0  0  0
  185.0820  178.6570  141.2240 C   0  0  0  0  0  0  0  0  0  0  0  0
  188.3030  177.9410  139.3910 C   0  0  2  0  0  3  0  0  0  0  0  0
  189.5690  176.9060  144.5580 C   0  0  0  0  0  2  0  0  0  0  0  0
  184.9260  178.6280  145.0790 C   0  0  0  0  0  2  0  0  0  0  0  0
  189.8070  177.4350  137.0440 C   0  0  0  0  0  2  0  0  0  0  0  0
  188.1060  178.8840  138.1900 C   0  0  0  0  0  2  0  0  0  0  0  0
  181.8490  177.6410  139.2670 C   0  0  2  0  0  3  0  0  0  0  0  0
  181.2310  178.9370  138.2100 Cl  0  0  0  0  0  0  0  0  0  0  0  0
  183.6500  178.7940  140.7730 C   0  0  2  0  0  3  0  0  0  0  0  0
  180.9870  177.5140  140.5220 C   0  0  0  0  0  2  0  0  0  0  0  0
  182.6920  178.6200  141.9520 C   0  0  0  0  0  2  0  0  0  0  0  0
  183.2910  177.8940  139.6060 C   0  0  0  0  0  0  0  0  0  0  0  0
  184.1590  177.4650  138.8610 O   0  0  0  0  0  0  0  0  0  0  0  0
  181.2420  178.6680  141.4930 C   0  0  2  0  0  3  0  0  0  0  0  0
  181.1390  178.6300  143.9820 C   0  0  0  0  0  1  0  0  0  0  0  0
  180.3310  178.5460  142.7010 C   0  0  0  0  0  2  0  0  0  0  0  0
  1  4  1  0  0  0  0
  1  3  1  1  0  0  0
  2  5  1  1  0  0  0
  2  4  1  0  0  0  0
  3 20  1  0  0  0  0
  4 11  1  0  0  0  0
  5 10  1  0  0  0  0
  6 22  1  0  0  0  0
  7  2  1  0  0  0  0
  8  9  1  0  0  0  0
  9 12  1  0  0  0  0
 10 16  1  0  0  0  0
 10 19  1  0  0  0  0
 11 13  1  0  0  0  0
 11 14  1  0  0  0  0
 12  5  2  0  0  0  0
 15  7  1  0  0  0  0
 15 17  2  0  0  0  0
 17  1  1  0  0  0  0
 18  9  1  0  0  0  0
 18  7  1  0  0  0  0
 19 13  1  0  0  0  0
 20 14  1  0  0  0  0
 21  6  1  0  0  0  0
 21  8  1  0  0  0  0
 22 18  1  0  0  0  0
 23 28  1  0  0  0  0
 23 26  1  0  0  0  0
 24 23  1  0  0  0  0
 25 17  1  0  0  0  0
 25 27  1  0  0  0  0
 26 30  1  0  0  0  0
 28 25  1  0  0  0  0
 29 28  2  0  0  0  0
 30 27  1  0  0  0  0
 30 32  1  0  0  0  0
 32 31  1  0  0  0  0
M  END
>  <MODEL>
7

>  <REMARK>
 VINA RESULT:      -7.3      1.835      2.691
  Name = 
  2 active torsions:
  status: ('A' for Active; 'I' for Inactive)
    1  A    between atoms: C_15  and  C_26
    2  A    between atoms: C_16  and  C_27
                            x       y       z     vdW  Elec       q    Type
                         _______ _______ _______ _____ _____    ______ ____

>  <TORSDO>
F 2

$$$$
=
 OpenBabel11052414363D

 32 37  0  0  1  0  0  0  0  0999 V2000
  187.8790  177.7640  140.0080 C   0  0  2  0  0  3  0  0  0  0  0  0
  186.1620  177.3630  138.2580 C   0  0  2  0  0  3  0  0  0  0  0  0
  189.2550  178.3330  140.3310 C   0  0  0  0  0  2  0  0  0  0  0  0
  187.6150  177.8210  138.4870 C   0  0  2  0  0  3  0  0  0  0  0  0
  185.7670  176.9340  136.8500 C   0  0  0  0  0  0  0  0  0  0  0  0
  181.6550  179.7250  138.4120 C   0  0  0  0  0  2  0  0  0  0  0  0
  185.2900  178.4860  138.8290 C   0  0  2  0  0  3  0  0  0  0  0  0
  181.9280  177.7810  136.4790 S   0  0  0  0  0  0  0  0  0  0  0  0
  183.6330  178.2500  136.9740 C   0  0  2  0  0  3  0  0  0  0  0  0
  186.5040  175.8250  136.1480 C   0  0  2  0  0  3  0  0  0  0  0  0
  188.7150  177.0730  137.7080 C   0  0  1  0  0  3  0  0  0  0  0  0
  184.5860  177.2880  136.3240 C   0  0  0  0  0  3  0  0  0  0  0  0
  188.5650  177.3600  136.2250 C   0  0  0  0  0  2  0  0  0  0  0  0
  190.1000  177.5830  138.1150 C   0  0  0  0  0  2  0  0  0  0  0  0
  185.5540  178.6330  140.3070 C   0  0  0  0  0  3  0  0  0  0  0  0
  186.6930  174.6100  137.0410 C   0  0  0  0  0  1  0  0  0  0  0  0
  186.7620  178.3870  140.8450 C   0  0  0  0  0  0  0  0  0  0  0  0
  183.8060  178.3050  138.5000 C   0  0  2  0  0  3  0  0  0  0  0  0
  187.8210  176.2470  135.4970 C   0  0  0  0  0  2  0  0  0  0  0  0
  190.3120  177.5030  139.6210 C   0  0  0  0  0  2  0  0  0  0  0  0
  181.0320  178.4260  137.9370 C   0  0  0  0  0  2  0  0  0  0  0  0
  182.9990  179.4740  139.0940 C   0  0  0  0  0  2  0  0  0  0  0  0
  185.6810  177.8780  144.5720 C   0  0  2  0  0  3  0  0  0  0  0  0
  185.5210  179.4080  145.4730 Cl  0  0  0  0  0  0  0  0  0  0  0  0
  186.8840  178.5250  142.3420 C   0  0  2  0  0  3  0  0  0  0  0  0
  186.9660  177.1530  144.9690 C   0  0  0  0  0  2  0  0  0  0  0  0
  188.1150  177.7770  142.8550 C   0  0  0  0  0  2  0  0  0  0  0  0
  185.6250  178.1400  143.0930 C   0  0  0  0  0  0  0  0  0  0  0  0
  184.5370  178.1550  142.5360 O   0  0  0  0  0  0  0  0  0  0  0  0
  188.1980  177.8360  144.3740 C   0  0  2  0  0  3  0  0  0  0  0  0
  190.6220  177.4750  143.9190 C   0  0  0  0  0  1  0  0  0  0  0  0
  189.4610  177.1280  144.8320 C   0  0  0  0  0  2  0  0  0  0  0  0
  1  3  1  6  0  0  0
  1 17  1  0  0  0  0
  2  5  1  6  0  0  0
  2  4  1  0  0  0  0
  2  7  1  0  0  0  0
  4  1  1  0  0  0  0
  6 22  1  0  0  0  0
  7 15  1  0  0  0  0
  8  9  1  0  0  0  0
  8 21  1  0  0  0  0
  9 18  1  0  0  0  0
 10  5  1  0  0  0  0
 10 16  1  0  0  0  0
 11 14  1  0  0  0  0
 11  4  1  0  0  0  0
 12  5  2  0  0  0  0
 12  9  1  0  0  0  0
 13 11  1  0  0  0  0
 14 20  1  0  0  0  0
 15 17  2  0  0  0  0
 17 25  1  0  0  0  0
 18  7  1  0  0  0  0
 18 22  1  0  0  0  0
 19 10  1  0  0  0  0
 19 13  1  0  0  0  0
 20  3  1  0  0  0  0
 21  6  1  0  0  0  0
 23 26  1  0  0  0  0
 23 24  1  0  0  0  0
 25 27  1  0  0  0  0
 25 28  1  0  0  0  0
 27 30  1  0  0  0  0
 28 23  1  0  0  0  0
 29 28  2  0  0  0  0
 30 32  1  0  0  0  0
 30 26  1  0  0  0  0
 31 32  1  0  0  0  0
M  END
>  <MODEL>
8

>  <REMARK>
 VINA RESULT:      -7.2      2.649      6.524
  Name = 
  2 active torsions:
  status: ('A' for Active; 'I' for Inactive)
    1  A    between atoms: C_15  and  C_26
    2  A    between atoms: C_16  and  C_27
                            x       y       z     vdW  Elec       q    Type
                         _______ _______ _______ _____ _____    ______ ____

>  <TORSDO>
F 2

$$$$
=
 OpenBabel11052414363D

 32 37  0  0  1  0  0  0  0  0999 V2000
  190.1960  176.7520  140.1270 C   0  0  2  0  0  3  0  0  0  0  0  0
  188.3100  176.8200  138.5110 C   0  0  2  0  0  3  0  0  0  0  0  0
  191.6410  177.1420  140.4090 C   0  0  0  0  0  2  0  0  0  0  0  0
  189.8130  177.1130  138.6750 C   0  0  2  0  0  3  0  0  0  0  0  0
  187.7600  176.6940  137.0960 C   0  0  0  0  0  0  0  0  0  0  0  0
  184.0760  179.4590  139.5290 C   0  0  0  0  0  2  0  0  0  0  0  0
  187.5980  177.8820  139.3570 C   0  0  2  0  0  3  0  0  0  0  0  0
  184.0020  177.8930  137.2630 S   0  0  0  0  0  0  0  0  0  0  0  0
  185.7780  178.1270  137.6620 C   0  0  2  0  0  3  0  0  0  0  0  0
  188.3280  175.6810  136.1380 C   0  0  2  0  0  3  0  0  0  0  0  0
  190.7690  176.4380  137.6700 C   0  0  1  0  0  3  0  0  0  0  0  0
  186.5790  177.2310  136.7600 C   0  0  0  0  0  3  0  0  0  0  0  0
  190.5240  177.0080  136.2840 C   0  0  0  0  0  2  0  0  0  0  0  0
  192.2250  176.7540  138.0220 C   0  0  0  0  0  2  0  0  0  0  0  0
  187.9970  177.7300  140.8040 C   0  0  0  0  0  3  0  0  0  0  0  0
  188.4740  174.3090  136.7760 C   0  0  0  0  0  1  0  0  0  0  0  0
  189.2160  177.2940  141.1680 C   0  0  0  0  0  0  0  0  0  0  0  0
  186.0820  177.8830  139.1490 C   0  0  2  0  0  3  0  0  0  0  0  0
  189.6210  176.1120  135.4460 C   0  0  0  0  0  2  0  0  0  0  0  0
  192.5530  176.3780  139.4620 C   0  0  0  0  0  2  0  0  0  0  0  0
  183.2950  178.3240  138.8940 C   0  0  0  0  0  2  0  0  0  0  0  0
  185.4420  178.9800  140.0190 C   0  0  0  0  0  2  0  0  0  0  0  0
  190.6200  178.3400  144.6680 C   0  0  2  0  0  3  0  0  0  0  0  0
  191.6800  177.1060  145.3970 Cl  0  0  0  0  0  0  0  0  0  0  0  0
  189.4740  177.1410  142.6460 C   0  0  2  0  0  3  0  0  0  0  0  0
  189.2510  178.3410  145.3480 C   0  0  0  0  0  2  0  0  0  0  0  0
  188.1640  177.1920  143.4320 C   0  0  0  0  0  2  0  0  0  0  0  0
  190.5050  178.1130  143.1870 C   0  0  0  0  0  0  0  0  0  0  0  0
  191.3270  178.6280  142.4440 O   0  0  0  0  0  0  0  0  0  0  0  0
  188.4200  177.1280  144.9310 C   0  0  2  0  0  3  0  0  0  0  0  0
  186.0460  177.8820  144.8670 C   0  0  0  0  0  1  0  0  0  0  0  0
  187.0920  177.1260  145.6650 C   0  0  0  0  0  2  0  0  0  0  0  0
  1  3  1  1  0  0  0
  1 17  1  0  0  0  0
  2  5  1  6  0  0  0
  2  4  1  0  0  0  0
  2  7  1  0  0  0  0
  4  1  1  0  0  0  0
  6 22  1  0  0  0  0
  7 15  1  0  0  0  0
  8  9  1  0  0  0  0
  8 21  1  0  0  0  0
  9 18  1  0  0  0  0
 10 16  1  0  0  0  0
 10  5  1  0  0  0  0
 11 14  1  0  0  0  0
 11  4  1  0  0  0  0
 12  5  2  0  0  0  0
 12  9  1  0  0  0  0
 13 11  1  0  0  0  0
 14 20  1  0  0  0  0
 15 17  2  0  0  0  0
 17 25  1  0  0  0  0
 18  7  1  0  0  0  0
 18 22  1  0  0  0  0
 19 10  1  0  0  0  0
 19 13  1  0  0  0  0
 20  3  1  0  0  0  0
 21  6  1  0  0  0  0
 23 26  1  0  0  0  0
 23 24  1  0  0  0  0
 25 28  1  0  0  0  0
 25 27  1  0  0  0  0
 27 30  1  0  0  0  0
 28 23  1  0  0  0  0
 29 28  2  0  0  0  0
 30 26  1  0  0  0  0
 30 32  1  0  0  0  0
 31 32  1  0  0  0  0
M  END
>  <MODEL>
9

>  <REMARK>
 VINA RESULT:      -7.1      3.080      6.607
  Name = 
  2 active torsions:
  status: ('A' for Active; 'I' for Inactive)
    1  A    between atoms: C_15  and  C_26
    2  A    between atoms: C_16  and  C_27
                            x       y       z     vdW  Elec       q    Type
                         _______ _______ _______ _____ _____    ______ ____

>  <TORSDO>
F 2

$$$$
