=
 OpenBabel11052414563D

 55 61  0  0  1  0  0  0  0  0999 V2000
  187.3460  178.3370  141.8960 C   0  0  0  0  0  2  0  0  0  0  0  0
  184.7490  178.9050  137.8980 C   0  0  0  0  0  2  0  0  0  0  0  0
  187.1230  177.5280  136.6900 O   0  0  0  0  0  0  0  0  0  0  0  0
  190.0580  176.8260  136.6100 C   0  0  0  0  0  3  0  0  0  0  0  0
  190.8230  175.9110  135.9460 C   0  0  0  0  0  3  0  0  0  0  0  0
  190.9600  176.0070  138.6920 C   0  0  0  0  0  0  0  0  0  0  0  0
  191.9490  175.3190  137.9810 C   0  0  0  0  0  3  0  0  0  0  0  0
  188.6310  178.8520  138.0370 C   0  0  0  0  0  2  0  0  0  0  0  0
  191.8430  175.2330  136.6020 C   0  0  0  0  0  3  0  0  0  0  0  0
  185.6400  178.6730  143.6650 C   0  0  0  0  0  3  0  0  0  0  0  0
  190.1150  176.9130  138.0020 C   0  0  0  0  0  0  0  0  0  0  0  0
  183.4900  178.3500  141.9850 C   0  0  0  0  0  0  0  0  0  0  0  0
  187.6300  177.4670  140.6770 C   0  0  0  0  0  2  0  0  0  0  0  0
  184.7960  178.2590  141.4620 C   0  0  0  0  0  3  0  0  0  0  0  0
  190.1030  176.7750  140.8740 C   0  0  2  0  0  3  0  0  0  0  0  0
  183.8410  179.7960  138.7990 C   0  0  0  0  0  2  0  0  0  0  0  0
  191.1560  176.2120  140.0210 O   0  0  0  0  0  0  0  0  0  0  0  0
  186.1460  179.2530  137.9950 N   0  0  0  0  0  2  0  0  0  0  0  0
  187.2450  178.4530  137.5310 C   0  0  0  0  0  0  0  0  0  0  0  0
  184.3450  178.8420  144.1590 C   0  0  0  0  0  3  0  0  0  0  0  0
  182.4630  179.3000  138.9520 C   0  0  1  0  0  3  0  0  0  0  0  0
  185.8800  178.4450  142.3190 C   0  0  0  0  0  0  0  0  0  0  0  0
  189.2440  177.7580  138.7410 N   0  0  0  0  0  0  0  0  0  0  0  0
  189.0920  177.7240  140.2130 C   0  0  1  0  0  3  0  0  0  0  0  0
  182.0350  179.4050  140.4140 C   0  0  0  0  0  2  0  0  0  0  0  0
  182.3350  178.1110  141.1210 C   0  0  0  0  0  2  0  0  0  0  0  0
  183.2690  178.5470  143.3370 C   0  0  0  0  0  3  0  0  0  0  0  0
  189.6410  176.0950  143.1860 C   0  0  0  0  0  3  0  0  0  0  0  0
  190.6660  177.2080  145.0810 C   0  0  0  0  0  0  0  0  0  0  0  0
  191.3760  177.7930  142.8130 C   0  0  0  0  0  3  0  0  0  0  0  0
  191.4400  178.0000  144.1690 C   0  0  0  0  0  3  0  0  0  0  0  0
  189.7540  176.2630  144.5290 C   0  0  0  0  0  3  0  0  0  0  0  0
  190.4100  176.8840  142.2950 C   0  0  0  0  0  0  0  0  0  0  0  0
  190.9650  177.2150  146.4720 C   0  0  0  0  0  0  0  0  0  0  0  0
  189.9970  177.5540  147.4500 O   0  0  0  0  0  1  0  0  0  0  0  0
  192.1670  176.8990  146.8800 O   0  0  0  0  0  0  0  0  0  0  0  0
  181.0630  180.9790  138.4230 O   0  0  0  0  0  0  0  0  0  0  0  0
  181.5100  179.8850  138.0850 C   0  0  0  0  0  0  0  0  0  0  0  0
  181.1030  178.9880  136.5710 S   0  0  0  0  0  0  0  0  0  0  0  0
  179.9230  177.8380  137.4070 C   0  0  2  0  0  3  0  0  0  0  0  0
  179.4190  178.3110  138.6660 F   0  0  0  0  0  0  0  0  0  0  0  0
  180.1710  176.3300  137.1600 C   0  0  2  0  0  3  0  0  0  0  0  0
  178.9520  175.6400  137.0730 O   0  0  0  0  0  1  0  0  0  0  0  0
  180.8920  175.7820  138.5230 C   0  0  2  0  0  3  0  0  0  0  0  0
  183.2740  176.1030  138.4460 O   0  0  0  0  0  0  0  0  0  0  0  0
  183.2540  176.2810  136.1230 O   0  0  0  0  0  1  0  0  0  0  0  0
  183.2150  175.3900  137.2170 C   0  0  1  0  0  0  0  0  0  0  0  0
  182.9070  173.9640  137.4250 C   0  0  1  0  0  0  0  0  0  0  0  0
  182.3310  175.0820  138.4130 C   0  0  2  0  0  0  0  0  0  0  0  0
  182.0830  173.5900  136.4010 O   0  0  0  0  0  1  0  0  0  0  0  0
  184.3360  173.7040  137.4240 C   0  0  0  0  0  2  0  0  0  0  0  0
  184.6060  172.3550  137.4300 O   0  0  0  0  0  1  0  0  0  0  0  0
  179.8840  175.1440  139.4240 C   0  0  0  0  0  0  0  0  0  0  0  0
  179.4560  175.8230  140.4850 C   0  0  0  0  0  2  0  0  0  0  0  0
  179.5380  173.8420  139.3200 O   0  0  0  0  0  1  0  0  0  0  0  0
  1 22  1  0  0  0  0
  2 18  1  0  0  0  0
  2 16  1  0  0  0  0
  3 19  2  0  0  0  0
  4 11  1  0  0  0  0
  5  9  1  0  0  0  0
  5  4  2  0  0  0  0
  6 17  1  0  0  0  0
  7  6  1  0  0  0  0
  8 23  1  0  0  0  0
  9  7  2  0  0  0  0
 10 20  1  0  0  0  0
 11  6  2  0  0  0  0
 11 23  1  0  0  0  0
 12 27  1  0  0  0  0
 13  1  1  0  0  0  0
 14 12  2  0  0  0  0
 14 22  1  0  0  0  0
 15 33  1  1  0  0  0
 16 21  1  0  0  0  0
 17 15  1  0  0  0  0
 19 18  1  0  0  0  0
 19  8  1  0  0  0  0
 21 38  1  6  0  0  0
 21 25  1  0  0  0  0
 22 10  2  0  0  0  0
 23 24  1  0  0  0  0
 24 13  1  6  0  0  0
 24 15  1  0  0  0  0
 25 26  1  0  0  0  0
 26 12  1  0  0  0  0
 27 20  2  0  0  0  0
 28 32  1  0  0  0  0
 29 34  1  0  0  0  0
 30 31  2  0  0  0  0
 31 29  1  0  0  0  0
 32 29  2  0  0  0  0
 33 30  1  0  0  0  0
 33 28  2  0  0  0  0
 34 36  2  0  0  0  0
 34 35  1  0  0  0  0
 38 37  2  0  0  0  0
 39 40  1  0  0  0  0
 39 38  1  0  0  0  0
 40 41  1  1  0  0  0
 42 43  1  1  0  0  0
 42 40  1  0  0  0  0
 42 44  1  0  0  0  0
 44 53  1  6  0  0  0
 47 46  1  6  0  0  0
 47 48  1  0  0  0  0
 47 49  1  0  0  0  0
 47 45  1  0  0  0  0
 48 50  1  6  0  0  0
 48 49  1  0  0  0  0
 49 45  1  0  0  0  0
 49 44  1  6  0  0  0
 51 48  1  0  0  0  0
 51 52  1  0  0  0  0
 53 54  2  0  0  0  0
 55 53  1  0  0  0  0
M  END
>  <MODEL>
1

>  <REMARK>
 VINA RESULT:      -8.3      0.000      0.000
  Name = 
  10 active torsions:
  status: ('A' for Active; 'I' for Inactive)
    1  A    between atoms: C_1  and  C_53
    2  A    between atoms: C_6  and  C_20
    3  A    between atoms: C_6  and  C_53
    4  A    between atoms: C_8  and  S_22
    5  A    between atoms: C_8  and  C_43
    6  A    between atoms: C_10  and  C_32
    7  A    between atoms: C_11  and  C_29
    8  A    between atoms: C_20  and  S_22
    9  A    between atoms: C_33  and  C_52
   10  A    between atoms: C_38  and  C_53
                            x       y       z     vdW  Elec       q    Type
                         _______ _______ _______ _____ _____    ______ ____

>  <TORSDO>
F 10

$$$$
=
 OpenBabel11052414563D

 55 61  0  0  1  0  0  0  0  0999 V2000
  186.9570  177.6170  142.3880 C   0  0  0  0  0  2  0  0  0  0  0  0
  185.6410  177.9060  137.7800 C   0  0  0  0  0  2  0  0  0  0  0  0
  183.1170  178.9430  139.0250 O   0  0  0  0  0  0  0  0  0  0  0  0
  181.1160  179.1120  141.2780 C   0  0  0  0  0  3  0  0  0  0  0  0
  180.0740  179.9350  141.5960 C   0  0  0  0  0  3  0  0  0  0  0  0
  182.0710  179.5550  143.4490 C   0  0  0  0  0  0  0  0  0  0  0  0
  180.8570  180.1190  143.8560 C   0  0  0  0  0  3  0  0  0  0  0  0
  183.2180  177.2490  140.7450 C   0  0  0  0  0  2  0  0  0  0  0  0
  179.8760  180.3530  142.9060 C   0  0  0  0  0  3  0  0  0  0  0  0
  189.4230  177.4270  142.2040 C   0  0  0  0  0  3  0  0  0  0  0  0
  182.1390  178.8860  142.2010 C   0  0  0  0  0  0  0  0  0  0  0  0
  189.5330  178.2870  139.5970 C   0  0  0  0  0  0  0  0  0  0  0  0
  185.8080  178.5340  141.9830 C   0  0  0  0  0  2  0  0  0  0  0  0
  188.2830  178.1930  140.2420 C   0  0  0  0  0  3  0  0  0  0  0  0
  184.3180  178.7510  144.0720 C   0  0  2  0  0  3  0  0  0  0  0  0
  186.9560  177.1110  137.5150 C   0  0  0  0  0  2  0  0  0  0  0  0
  182.9610  179.1930  144.4110 O   0  0  0  0  0  0  0  0  0  0  0  0
  184.8220  177.3060  138.8050 N   0  0  0  0  0  2  0  0  0  0  0  0
  183.7180  177.9360  139.4750 C   0  0  0  0  0  0  0  0  0  0  0  0
  190.6480  177.4470  141.5330 C   0  0  0  0  0  3  0  0  0  0  0  0
  187.9450  177.8290  136.6950 C   0  0  1  0  0  3  0  0  0  0  0  0
  188.2360  177.7350  141.5580 C   0  0  0  0  0  0  0  0  0  0  0  0
  183.3040  178.1440  141.8680 N   0  0  0  0  0  0  0  0  0  0  0  0
  184.5170  178.0650  142.7130 C   0  0  1  0  0  3  0  0  0  0  0  0
  189.3360  177.6650  137.3010 C   0  0  0  0  0  2  0  0  0  0  0  0
  189.6180  178.8100  138.2340 C   0  0  0  0  0  2  0  0  0  0  0  0
  190.7110  178.0060  140.2670 C   0  0  0  0  0  3  0  0  0  0  0  0
  185.4240  179.4910  146.1330 C   0  0  0  0  0  3  0  0  0  0  0  0
  187.1120  178.1470  147.2390 C   0  0  0  0  0  0  0  0  0  0  0  0
  185.8920  177.2170  145.3320 C   0  0  0  0  0  3  0  0  0  0  0  0
  186.8760  177.1040  146.2840 C   0  0  0  0  0  3  0  0  0  0  0  0
  186.3580  179.3480  147.1090 C   0  0  0  0  0  3  0  0  0  0  0  0
  185.2000  178.4540  145.1940 C   0  0  0  0  0  0  0  0  0  0  0  0
  187.9060  177.8990  148.3940 C   0  0  0  0  0  0  0  0  0  0  0  0
  189.1200  178.5860  148.6380 O   0  0  0  0  0  0  0  0  0  0  0  0
  187.5140  177.0110  149.2720 O   0  0  0  0  0  1  0  0  0  0  0  0
  187.2330  178.2170  134.5960 O   0  0  0  0  0  0  0  0  0  0  0  0
  187.9330  177.5090  135.3160 C   0  0  0  0  0  0  0  0  0  0  0  0
  188.9770  176.1390  134.7730 S   0  0  0  0  0  0  0  0  0  0  0  0
  187.5930  174.9160  134.7410 C   0  0  2  0  0  3  0  0  0  0  0  0
  186.2820  175.5000  134.6840 F   0  0  0  0  0  0  0  0  0  0  0  0
  187.8490  173.5960  135.5070 C   0  0  2  0  0  3  0  0  0  0  0  0
  188.6160  172.7160  134.7270 O   0  0  0  0  0  1  0  0  0  0  0  0
  186.3800  172.8890  135.6510 C   0  0  2  0  0  3  0  0  0  0  0  0
  184.9130  172.2610  137.4510 O   0  0  0  0  0  0  0  0  0  0  0  0
  183.0840  172.1210  136.0150 O   0  0  0  0  0  1  0  0  0  0  0  0
  183.9200  172.9930  136.7440 C   0  0  1  0  0  0  0  0  0  0  0  0
  184.1740  174.4440  136.7860 C   0  0  1  0  0  0  0  0  0  0  0  0
  185.3830  173.3970  136.8010 C   0  0  2  0  0  0  0  0  0  0  0  0
  183.8260  174.9360  135.5610 O   0  0  0  0  0  1  0  0  0  0  0  0
  183.2990  174.5150  137.9430 C   0  0  0  0  0  2  0  0  0  0  0  0
  182.0590  175.0120  137.6130 O   0  0  0  0  0  1  0  0  0  0  0  0
  186.4890  171.4130  135.4390 C   0  0  0  0  0  0  0  0  0  0  0  0
  185.6360  170.8230  134.6060 C   0  0  0  0  0  2  0  0  0  0  0  0
  187.2820  170.6270  136.2000 O   0  0  0  0  0  1  0  0  0  0  0  0
  2 18  1  0  0  0  0
  3 19  2  0  0  0  0
  4  5  2  0  0  0  0
  4 11  1  0  0  0  0
  5  9  1  0  0  0  0
  6  7  1  0  0  0  0
  6 17  1  0  0  0  0
  8 23  1  0  0  0  0
  9  7  2  0  0  0  0
 11  6  2  0  0  0  0
 12 14  1  0  0  0  0
 12 27  2  0  0  0  0
 13  1  1  0  0  0  0
 14 22  2  0  0  0  0
 15 17  1  0  0  0  0
 15 33  1  1  0  0  0
 16  2  1  0  0  0  0
 18 19  1  0  0  0  0
 19  8  1  0  0  0  0
 20 10  2  0  0  0  0
 21 38  1  6  0  0  0
 21 25  1  0  0  0  0
 21 16  1  0  0  0  0
 22 10  1  0  0  0  0
 22  1  1  0  0  0  0
 23 11  1  0  0  0  0
 23 24  1  0  0  0  0
 24 13  1  6  0  0  0
 24 15  1  0  0  0  0
 25 26  1  0  0  0  0
 26 12  1  0  0  0  0
 27 20  1  0  0  0  0
 28 32  1  0  0  0  0
 29 34  1  0  0  0  0
 30 31  2  0  0  0  0
 31 29  1  0  0  0  0
 32 29  2  0  0  0  0
 33 30  1  0  0  0  0
 33 28  2  0  0  0  0
 34 35  2  0  0  0  0
 34 36  1  0  0  0  0
 37 38  2  0  0  0  0
 39 38  1  0  0  0  0
 40 41  1  1  0  0  0
 40 39  1  0  0  0  0
 40 42  1  0  0  0  0
 42 43  1  6  0  0  0
 42 44  1  0  0  0  0
 44 53  1  1  0  0  0
 47 46  1  6  0  0  0
 47 48  1  0  0  0  0
 47 49  1  0  0  0  0
 47 45  1  0  0  0  0
 48 50  1  6  0  0  0
 48 49  1  0  0  0  0
 48 51  1  0  0  0  0
 49 44  1  6  0  0  0
 49 45  1  0  0  0  0
 52 51  1  0  0  0  0
 53 55  1  0  0  0  0
 54 53  2  0  0  0  0
M  END
>  <MODEL>
2

>  <REMARK>
 VINA RESULT:      -6.3      2.972      6.961
  Name = 
  10 active torsions:
  status: ('A' for Active; 'I' for Inactive)
    1  A    between atoms: C_1  and  C_53
    2  A    between atoms: C_6  and  C_20
    3  A    between atoms: C_6  and  C_53
    4  A    between atoms: C_8  and  S_22
    5  A    between atoms: C_8  and  C_43
    6  A    between atoms: C_10  and  C_32
    7  A    between atoms: C_11  and  C_29
    8  A    between atoms: C_20  and  S_22
    9  A    between atoms: C_33  and  C_52
   10  A    between atoms: C_38  and  C_53
                            x       y       z     vdW  Elec       q    Type
                         _______ _______ _______ _____ _____    ______ ____

>  <TORSDO>
F 10

$$$$
=
 OpenBabel11052414563D

 55 61  0  0  1  0  0  0  0  0999 V2000
  190.7070  177.3410  141.3130 C   0  0  0  0  0  2  0  0  0  0  0  0
  186.0900  178.4300  142.0480 C   0  0  0  0  0  2  0  0  0  0  0  0
  185.8750  177.4950  139.2070 O   0  0  0  0  0  0  0  0  0  0  0  0
  186.9990  177.0570  136.4400 C   0  0  0  0  0  3  0  0  0  0  0  0
  186.6240  176.3440  135.3380 C   0  0  0  0  0  3  0  0  0  0  0  0
  189.1380  175.9410  136.3810 C   0  0  0  0  0  0  0  0  0  0  0  0
  188.8480  175.4780  135.0920 C   0  0  0  0  0  3  0  0  0  0  0  0
  187.9090  178.6620  138.6240 C   0  0  0  0  0  2  0  0  0  0  0  0
  187.5650  175.6410  134.5960 C   0  0  0  0  0  3  0  0  0  0  0  0
  191.5760  177.2050  143.6330 C   0  0  0  0  0  3  0  0  0  0  0  0
  188.2730  176.8880  136.9860 C   0  0  0  0  0  0  0  0  0  0  0  0
  189.0970  177.0280  144.8030 C   0  0  0  0  0  0  0  0  0  0  0  0
  189.6330  176.7370  140.4160 C   0  0  0  0  0  2  0  0  0  0  0  0
  189.1930  177.1400  143.4010 C   0  0  0  0  0  3  0  0  0  0  0  0
  190.8020  176.2200  138.1800 C   0  0  2  0  0  3  0  0  0  0  0  0
  186.6100  179.0630  143.3750 C   0  0  0  0  0  2  0  0  0  0  0  0
  190.4320  175.9110  136.7940 O   0  0  0  0  0  0  0  0  0  0  0  0
  186.8350  178.8640  140.8920 N   0  0  0  0  0  2  0  0  0  0  0  0
  186.7990  178.2550  139.5920 C   0  0  0  0  0  0  0  0  0  0  0  0
  191.4680  177.1750  145.0250 C   0  0  0  0  0  3  0  0  0  0  0  0
  186.0760  178.4380  144.5960 C   0  0  1  0  0  3  0  0  0  0  0  0
  190.4540  177.2500  142.8190 C   0  0  0  0  0  0  0  0  0  0  0  0
  188.6590  177.5090  138.2040 N   0  0  0  0  0  0  0  0  0  0  0  0
  189.8970  177.1910  138.9510 C   0  0  1  0  0  3  0  0  0  0  0  0
  187.2010  178.2350  145.6080 C   0  0  0  0  0  2  0  0  0  0  0  0
  187.7900  176.8620  145.4390 C   0  0  0  0  0  2  0  0  0  0  0  0
  190.2270  176.9530  145.5980 C   0  0  0  0  0  3  0  0  0  0  0  0
  192.9250  175.0180  137.9180 C   0  0  0  0  0  3  0  0  0  0  0  0
  194.8570  175.5090  139.2980 C   0  0  0  0  0  0  0  0  0  0  0  0
  192.8670  176.9250  139.4650 C   0  0  0  0  0  3  0  0  0  0  0  0
  194.1280  176.5900  139.8960 C   0  0  0  0  0  3  0  0  0  0  0  0
  194.1940  174.7300  138.3070 C   0  0  0  0  0  3  0  0  0  0  0  0
  192.2140  176.0880  138.5160 C   0  0  0  0  0  0  0  0  0  0  0  0
  196.2540  175.3690  139.5310 C   0  0  0  0  0  0  0  0  0  0  0  0
  197.1310  174.8280  138.5580 O   0  0  0  0  0  0  0  0  0  0  0  0
  196.7630  175.7490  140.6750 O   0  0  0  0  0  1  0  0  0  0  0  0
  184.7870  178.9150  146.3780 O   0  0  0  0  0  0  0  0  0  0  0  0
  184.9640  179.0960  145.1750 C   0  0  0  0  0  0  0  0  0  0  0  0
  183.9720  180.1530  144.0980 S   0  0  0  0  0  0  0  0  0  0  0  0
  182.6100  178.9200  143.9120 C   0  0  2  0  0  3  0  0  0  0  0  0
  182.3600  178.1260  145.0830 F   0  0  0  0  0  0  0  0  0  0  0  0
  182.4290  178.3310  142.4920 C   0  0  2  0  0  3  0  0  0  0  0  0
  183.0510  179.1500  141.5370 O   0  0  0  0  0  1  0  0  0  0  0  0
  180.8250  178.4340  142.1830 C   0  0  2  0  0  3  0  0  0  0  0  0
  178.9310  178.2960  140.7080 O   0  0  0  0  0  0  0  0  0  0  0  0
  178.9540  175.9670  140.7670 O   0  0  0  0  0  1  0  0  0  0  0  0
  179.5500  177.1180  140.2080 C   0  0  1  0  0  0  0  0  0  0  0  0
  180.7680  177.4240  139.4350 C   0  0  1  0  0  0  0  0  0  0  0  0
  180.3190  178.3460  140.6630 C   0  0  2  0  0  0  0  0  0  0  0  0
  181.6700  176.4410  139.7250 O   0  0  0  0  0  1  0  0  0  0  0  0
  179.9500  177.4160  138.2350 C   0  0  0  0  0  2  0  0  0  0  0  0
  179.9660  176.1860  137.6180 O   0  0  0  0  0  1  0  0  0  0  0  0
  180.1910  179.4650  143.0600 C   0  0  0  0  0  0  0  0  0  0  0  0
  179.4410  179.0610  144.0820 C   0  0  0  0  0  2  0  0  0  0  0  0
  180.1850  180.7800  142.7460 O   0  0  0  0  0  1  0  0  0  0  0  0
  1 22  1  0  0  0  0
  2 16  1  0  0  0  0
  3 19  2  0  0  0  0
  4 11  1  0  0  0  0
  5  4  2  0  0  0  0
  6 17  1  0  0  0  0
  6 11  2  0  0  0  0
  7  6  1  0  0  0  0
  8 19  1  0  0  0  0
  9  7  2  0  0  0  0
  9  5  1  0  0  0  0
 10 20  1  0  0  0  0
 11 23  1  0  0  0  0
 12 26  1  0  0  0  0
 12 27  1  0  0  0  0
 13  1  1  0  0  0  0
 14 12  2  0  0  0  0
 15 33  1  6  0  0  0
 15 24  1  0  0  0  0
 16 21  1  0  0  0  0
 17 15  1  0  0  0  0
 18  2  1  0  0  0  0
 19 18  1  0  0  0  0
 20 27  2  0  0  0  0
 21 38  1  1  0  0  0
 21 25  1  0  0  0  0
 22 14  1  0  0  0  0
 22 10  2  0  0  0  0
 23  8  1  0  0  0  0
 23 24  1  0  0  0  0
 24 13  1  1  0  0  0
 26 25  1  0  0  0  0
 28 32  2  0  0  0  0
 28 33  1  0  0  0  0
 29 34  1  0  0  0  0
 29 31  2  0  0  0  0
 30 31  1  0  0  0  0
 32 29  1  0  0  0  0
 33 30  2  0  0  0  0
 34 36  1  0  0  0  0
 35 34  2  0  0  0  0
 38 37  2  0  0  0  0
 39 38  1  0  0  0  0
 40 39  1  0  0  0  0
 40 41  1  1  0  0  0
 42 43  1  6  0  0  0
 42 40  1  0  0  0  0
 44 42  1  0  0  0  0
 44 53  1  6  0  0  0
 47 49  1  0  0  0  0
 47 45  1  0  0  0  0
 47 46  1  1  0  0  0
 48 50  1  1  0  0  0
 48 47  1  0  0  0  0
 48 49  1  0  0  0  0
 49 45  1  0  0  0  0
 49 44  1  1  0  0  0
 51 48  1  0  0  0  0
 52 51  1  0  0  0  0
 53 54  2  0  0  0  0
 55 53  1  0  0  0  0
M  END
>  <MODEL>
3

>  <REMARK>
 VINA RESULT:      -6.1      2.921      5.764
  Name = 
  10 active torsions:
  status: ('A' for Active; 'I' for Inactive)
    1  A    between atoms: C_1  and  C_53
    2  A    between atoms: C_6  and  C_20
    3  A    between atoms: C_6  and  C_53
    4  A    between atoms: C_8  and  S_22
    5  A    between atoms: C_8  and  C_43
    6  A    between atoms: C_10  and  C_32
    7  A    between atoms: C_11  and  C_29
    8  A    between atoms: C_20  and  S_22
    9  A    between atoms: C_33  and  C_52
   10  A    between atoms: C_38  and  C_53
                            x       y       z     vdW  Elec       q    Type
                         _______ _______ _______ _____ _____    ______ ____

>  <TORSDO>
F 10

$$$$
=
 OpenBabel11052414563D

 55 61  0  0  1  0  0  0  0  0999 V2000
  185.0170  176.2210  137.1950 C   0  0  0  0  0  2  0  0  0  0  0  0
  187.6650  172.5820  135.5230 C   0  0  0  0  0  2  0  0  0  0  0  0
  184.9480  171.4000  135.0610 O   0  0  0  0  0  0  0  0  0  0  0  0
  182.0180  171.0830  135.7140 C   0  0  0  0  0  3  0  0  0  0  0  0
  180.9330  170.5420  135.0880 C   0  0  0  0  0  3  0  0  0  0  0  0
  180.8020  173.1550  135.9370 C   0  0  0  0  0  0  0  0  0  0  0  0
  179.6220  172.4860  135.5920 C   0  0  0  0  0  3  0  0  0  0  0  0
  184.1840  172.2070  137.2060 C   0  0  0  0  0  2  0  0  0  0  0  0
  179.7030  171.1870  135.1170 C   0  0  0  0  0  3  0  0  0  0  0  0
  186.6530  178.0850  137.1960 C   0  0  0  0  0  3  0  0  0  0  0  0
  181.9800  172.4010  136.1720 C   0  0  0  0  0  0  0  0  0  0  0  0
  188.4520  176.8220  135.5480 C   0  0  0  0  0  0  0  0  0  0  0  0
  184.3920  175.1970  136.2550 C   0  0  0  0  0  2  0  0  0  0  0  0
  187.2580  176.1620  135.9040 C   0  0  0  0  0  3  0  0  0  0  0  0
  181.8720  175.2080  136.7870 C   0  0  2  0  0  3  0  0  0  0  0  0
  188.8620  173.3780  136.1280 C   0  0  0  0  0  2  0  0  0  0  0  0
  180.6950  174.3670  136.5420 O   0  0  0  0  0  0  0  0  0  0  0  0
  186.5790  172.4120  136.4570 N   0  0  0  0  0  2  0  0  0  0  0  0
  185.2450  171.9920  136.1280 C   0  0  0  0  0  0  0  0  0  0  0  0
  187.8730  178.6990  136.9040 C   0  0  0  0  0  3  0  0  0  0  0  0
  189.8580  173.8200  135.1380 C   0  0  1  0  0  3  0  0  0  0  0  0
  186.3620  176.8020  136.7570 C   0  0  0  0  0  0  0  0  0  0  0  0
  183.1250  173.0460  136.7110 N   0  0  0  0  0  0  0  0  0  0  0  0
  183.2160  174.4960  136.9950 C   0  0  1  0  0  3  0  0  0  0  0  0
  190.2580  175.2670  135.4180 C   0  0  0  0  0  2  0  0  0  0  0  0
  189.3870  176.1950  134.6160 C   0  0  0  0  0  2  0  0  0  0  0  0
  188.7120  178.1140  135.9690 C   0  0  0  0  0  3  0  0  0  0  0  0
  181.0770  177.5160  136.5370 C   0  0  0  0  0  3  0  0  0  0  0  0
  181.3650  179.1710  138.2860 C   0  0  0  0  0  0  0  0  0  0  0  0
  181.9690  176.8390  138.7230 C   0  0  0  0  0  3  0  0  0  0  0  0
  181.9130  178.1490  139.1310 C   0  0  0  0  0  3  0  0  0  0  0  0
  180.9690  178.7990  136.9690 C   0  0  0  0  0  3  0  0  0  0  0  0
  181.6200  176.5160  137.3810 C   0  0  0  0  0  0  0  0  0  0  0  0
  181.0300  180.4450  138.8220 C   0  0  0  0  0  0  0  0  0  0  0  0
  180.4640  180.5970  140.1120 O   0  0  0  0  0  1  0  0  0  0  0  0
  181.2490  181.5250  138.1150 O   0  0  0  0  0  0  0  0  0  0  0  0
  190.7800  171.7700  135.0440 O   0  0  0  0  0  0  0  0  0  0  0  0
  190.9900  172.9810  135.0040 C   0  0  0  0  0  0  0  0  0  0  0  0
  192.5900  173.7780  134.7450 S   0  0  0  0  0  0  0  0  0  0  0  0
  193.4550  172.7680  136.0260 C   0  0  2  0  0  3  0  0  0  0  0  0
  193.4050  173.3150  137.3530 F   0  0  0  0  0  0  0  0  0  0  0  0
  194.6920  171.9780  135.5330 C   0  0  2  0  0  3  0  0  0  0  0  0
  194.8430  170.7920  136.2670 O   0  0  0  0  0  1  0  0  0  0  0  0
  195.9820  172.9060  135.9250 C   0  0  2  0  0  3  0  0  0  0  0  0
  197.5060  174.5680  135.0900 O   0  0  0  0  0  0  0  0  0  0  0  0
  197.6190  175.6200  137.1650 O   0  0  0  0  0  1  0  0  0  0  0  0
  196.8540  175.4540  135.9910 C   0  0  1  0  0  0  0  0  0  0  0  0
  195.4810  175.7680  135.5560 C   0  0  1  0  0  0  0  0  0  0  0  0
  196.1420  174.3460  135.2350 C   0  0  2  0  0  0  0  0  0  0  0  0
  194.7190  175.8300  136.6860 O   0  0  0  0  0  1  0  0  0  0  0  0
  196.0120  176.9460  134.8940 C   0  0  0  0  0  2  0  0  0  0  0  0
  195.3800  178.0930  135.3160 O   0  0  0  0  0  1  0  0  0  0  0  0
  197.2100  172.0640  136.0500 C   0  0  0  0  0  0  0  0  0  0  0  0
  197.8890  172.0910  137.1940 C   0  0  0  0  0  2  0  0  0  0  0  0
  197.7680  171.4320  134.9930 O   0  0  0  0  0  1  0  0  0  0  0  0
  2 16  1  0  0  0  0
  2 18  1  0  0  0  0
  3 19  2  0  0  0  0
  4 11  1  0  0  0  0
  5  9  1  0  0  0  0
  5  4  2  0  0  0  0
  6 11  2  0  0  0  0
  6 17  1  0  0  0  0
  7  6  1  0  0  0  0
  9  7  2  0  0  0  0
 11 23  1  0  0  0  0
 12 14  2  0  0  0  0
 12 27  1  0  0  0  0
 13  1  1  0  0  0  0
 14 22  1  0  0  0  0
 15 24  1  0  0  0  0
 15 33  1  1  0  0  0
 17 15  1  0  0  0  0
 19 18  1  0  0  0  0
 19  8  1  0  0  0  0
 20 10  1  0  0  0  0
 21 38  1  1  0  0  0
 21 25  1  0  0  0  0
 21 16  1  0  0  0  0
 22  1  1  0  0  0  0
 22 10  2  0  0  0  0
 23 24  1  0  0  0  0
 23  8  1  0  0  0  0
 24 13  1  6  0  0  0
 26 25  1  0  0  0  0
 26 12  1  0  0  0  0
 27 20  2  0  0  0  0
 28 32  2  0  0  0  0
 28 33  1  0  0  0  0
 29 34  1  0  0  0  0
 29 31  2  0  0  0  0
 30 31  1  0  0  0  0
 32 29  1  0  0  0  0
 33 30  2  0  0  0  0
 34 35  1  0  0  0  0
 36 34  2  0  0  0  0
 38 37  2  0  0  0  0
 39 38  1  0  0  0  0
 39 40  1  0  0  0  0
 40 41  1  1  0  0  0
 42 44  1  0  0  0  0
 42 40  1  0  0  0  0
 42 43  1  1  0  0  0
 44 53  1  6  0  0  0
 45 49  1  0  0  0  0
 45 47  1  0  0  0  0
 47 46  1  1  0  0  0
 48 47  1  0  0  0  0
 48 50  1  1  0  0  0
 49 48  1  0  0  0  0
 49 44  1  1  0  0  0
 49 47  1  0  0  0  0
 51 52  1  0  0  0  0
 51 48  1  0  0  0  0
 53 54  2  0  0  0  0
 55 53  1  0  0  0  0
M  END
>  <MODEL>
4

>  <REMARK>
 VINA RESULT:      -5.5      5.385     11.736
  Name = 
  10 active torsions:
  status: ('A' for Active; 'I' for Inactive)
    1  A    between atoms: C_1  and  C_53
    2  A    between atoms: C_6  and  C_20
    3  A    between atoms: C_6  and  C_53
    4  A    between atoms: C_8  and  S_22
    5  A    between atoms: C_8  and  C_43
    6  A    between atoms: C_10  and  C_32
    7  A    between atoms: C_11  and  C_29
    8  A    between atoms: C_20  and  S_22
    9  A    between atoms: C_33  and  C_52
   10  A    between atoms: C_38  and  C_53
                            x       y       z     vdW  Elec       q    Type
                         _______ _______ _______ _____ _____    ______ ____

>  <TORSDO>
F 10

$$$$
=
 OpenBabel11052414563D

 55 61  0  0  1  0  0  0  0  0999 V2000
  186.7880  177.5300  141.1500 C   0  0  0  0  0  2  0  0  0  0  0  0
  187.8620  176.5050  136.5850 C   0  0  0  0  0  2  0  0  0  0  0  0
  185.1740  177.7570  136.1350 O   0  0  0  0  0  0  0  0  0  0  0  0
  182.3710  178.4660  137.0030 C   0  0  0  0  0  3  0  0  0  0  0  0
  181.3960  179.3080  136.5530 C   0  0  0  0  0  3  0  0  0  0  0  0
  182.2180  179.5170  139.1700 C   0  0  0  0  0  0  0  0  0  0  0  0
  181.0230  180.1290  138.7770 C   0  0  0  0  0  3  0  0  0  0  0  0
  184.2670  176.6010  138.0530 C   0  0  0  0  0  2  0  0  0  0  0  0
  180.6430  180.0610  137.4450 C   0  0  0  0  0  3  0  0  0  0  0  0
  189.0090  177.3800  142.2450 C   0  0  0  0  0  3  0  0  0  0  0  0
  182.8010  178.5350  138.3300 C   0  0  0  0  0  0  0  0  0  0  0  0
  190.4350  177.5000  139.8990 C   0  0  0  0  0  0  0  0  0  0  0  0
  186.0730  178.2620  140.0200 C   0  0  0  0  0  2  0  0  0  0  0  0
  189.0270  177.5420  139.8550 C   0  0  0  0  0  3  0  0  0  0  0  0
  183.8000  178.9890  140.9880 C   0  0  2  0  0  3  0  0  0  0  0  0
  189.0530  175.7130  137.2050 C   0  0  0  0  0  2  0  0  0  0  0  0
  182.5000  179.4610  140.4980 O   0  0  0  0  0  0  0  0  0  0  0  0
  186.5960  176.1810  137.1960 N   0  0  0  0  0  2  0  0  0  0  0  0
  185.3800  176.9310  137.0600 C   0  0  0  0  0  0  0  0  0  0  0  0
  190.4000  177.2580  142.2730 C   0  0  0  0  0  3  0  0  0  0  0  0
  190.3820  176.2140  136.8170 C   0  0  1  0  0  3  0  0  0  0  0  0
  188.3120  177.4590  141.0480 C   0  0  0  0  0  0  0  0  0  0  0  0
  183.9000  177.7710  138.8060 N   0  0  0  0  0  0  0  0  0  0  0  0
  184.5490  177.9660  140.1220 C   0  0  1  0  0  3  0  0  0  0  0  0
  191.2920  176.2680  138.0430 C   0  0  0  0  0  2  0  0  0  0  0  0
  191.2130  177.6340  138.6680 C   0  0  0  0  0  2  0  0  0  0  0  0
  191.1160  177.4520  141.1040 C   0  0  0  0  0  3  0  0  0  0  0  0
  185.3430  179.0460  142.8930 C   0  0  0  0  0  3  0  0  0  0  0  0
  184.5700  178.8230  145.1810 C   0  0  0  0  0  0  0  0  0  0  0  0
  182.9350  179.0010  143.3680 C   0  0  0  0  0  3  0  0  0  0  0  0
  183.2190  178.8190  144.6990 C   0  0  0  0  0  3  0  0  0  0  0  0
  185.6150  178.9250  144.2190 C   0  0  0  0  0  3  0  0  0  0  0  0
  184.0050  179.0400  142.4300 C   0  0  0  0  0  0  0  0  0  0  0  0
  184.8370  178.9430  146.5730 C   0  0  0  0  0  0  0  0  0  0  0  0
  185.8100  179.8390  147.0800 O   0  0  0  0  0  0  0  0  0  0  0  0
  184.1690  178.2110  147.4280 O   0  0  0  0  0  1  0  0  0  0  0  0
  191.6730  176.2110  134.9750 O   0  0  0  0  0  0  0  0  0  0  0  0
  190.9950  175.5290  135.7400 C   0  0  0  0  0  0  0  0  0  0  0  0
  190.7520  173.7420  135.6450 S   0  0  0  0  0  0  0  0  0  0  0  0
  192.4920  173.3410  136.1170 C   0  0  2  0  0  3  0  0  0  0  0  0
  192.9590  174.0080  137.3000 F   0  0  0  0  0  0  0  0  0  0  0  0
  193.4500  173.0350  134.9400 C   0  0  2  0  0  3  0  0  0  0  0  0
  193.5930  171.6490  134.7700 O   0  0  0  0  0  1  0  0  0  0  0  0
  194.9170  173.5720  135.4270 C   0  0  2  0  0  3  0  0  0  0  0  0
  196.8350  174.8200  134.6870 O   0  0  0  0  0  0  0  0  0  0  0  0
  197.2460  175.6140  136.8390 O   0  0  0  0  0  1  0  0  0  0  0  0
  196.4580  175.7670  135.6780 C   0  0  1  0  0  0  0  0  0  0  0  0
  195.2220  176.4820  135.3120 C   0  0  1  0  0  0  0  0  0  0  0  0
  195.4630  174.9680  134.8540 C   0  0  2  0  0  0  0  0  0  0  0  0
  194.5130  176.6510  136.4660 O   0  0  0  0  0  1  0  0  0  0  0  0
  196.0530  177.5240  134.7350 C   0  0  0  0  0  2  0  0  0  0  0  0
  195.8080  178.7480  135.3140 O   0  0  0  0  0  1  0  0  0  0  0  0
  195.8860  172.4370  135.5080 C   0  0  0  0  0  0  0  0  0  0  0  0
  195.9150  171.7000  136.6160 C   0  0  0  0  0  2  0  0  0  0  0  0
  196.8630  172.2480  134.5940 O   0  0  0  0  0  1  0  0  0  0  0  0
  2 18  1  0  0  0  0
  2 16  1  0  0  0  0
  3 19  2  0  0  0  0
  4 11  1  0  0  0  0
  5  4  2  0  0  0  0
  5  9  1  0  0  0  0
  6 17  1  0  0  0  0
  7  6  1  0  0  0  0
  8 23  1  0  0  0  0
  9  7  2  0  0  0  0
 10 20  1  0  0  0  0
 11 23  1  0  0  0  0
 11  6  2  0  0  0  0
 12 27  1  0  0  0  0
 13  1  1  0  0  0  0
 14 12  2  0  0  0  0
 14 22  1  0  0  0  0
 15 33  1  1  0  0  0
 17 15  1  0  0  0  0
 19 18  1  0  0  0  0
 19  8  1  0  0  0  0
 21 38  1  6  0  0  0
 21 16  1  0  0  0  0
 21 25  1  0  0  0  0
 22  1  1  0  0  0  0
 22 10  2  0  0  0  0
 23 24  1  0  0  0  0
 24 13  1  6  0  0  0
 24 15  1  0  0  0  0
 25 26  1  0  0  0  0
 26 12  1  0  0  0  0
 27 20  2  0  0  0  0
 28 32  1  0  0  0  0
 29 34  1  0  0  0  0
 30 31  2  0  0  0  0
 31 29  1  0  0  0  0
 32 29  2  0  0  0  0
 33 28  2  0  0  0  0
 33 30  1  0  0  0  0
 34 35  2  0  0  0  0
 34 36  1  0  0  0  0
 37 38  2  0  0  0  0
 39 38  1  0  0  0  0
 39 40  1  0  0  0  0
 40 41  1  6  0  0  0
 42 43  1  1  0  0  0
 42 44  1  0  0  0  0
 42 40  1  0  0  0  0
 44 53  1  6  0  0  0
 45 49  1  0  0  0  0
 45 47  1  0  0  0  0
 47 46  1  1  0  0  0
 48 47  1  0  0  0  0
 48 50  1  1  0  0  0
 49 48  1  0  0  0  0
 49 44  1  1  0  0  0
 49 47  1  0  0  0  0
 51 48  1  0  0  0  0
 51 52  1  0  0  0  0
 53 54  2  0  0  0  0
 55 53  1  0  0  0  0
M  END
>  <MODEL>
5

>  <REMARK>
 VINA RESULT:      -5.5      4.204     10.000
  Name = 
  10 active torsions:
  status: ('A' for Active; 'I' for Inactive)
    1  A    between atoms: C_1  and  C_53
    2  A    between atoms: C_6  and  C_20
    3  A    between atoms: C_6  and  C_53
    4  A    between atoms: C_8  and  S_22
    5  A    between atoms: C_8  and  C_43
    6  A    between atoms: C_10  and  C_32
    7  A    between atoms: C_11  and  C_29
    8  A    between atoms: C_20  and  S_22
    9  A    between atoms: C_33  and  C_52
   10  A    between atoms: C_38  and  C_53
                            x       y       z     vdW  Elec       q    Type
                         _______ _______ _______ _____ _____    ______ ____

>  <TORSDO>
F 10

$$$$
=
 OpenBabel11052414563D

 55 61  0  0  1  0  0  0  0  0999 V2000
  191.2260  177.3590  141.5820 C   0  0  0  0  0  2  0  0  0  0  0  0
  186.5430  178.3390  141.9790 C   0  0  0  0  0  2  0  0  0  0  0  0
  186.5720  177.4810  139.1060 O   0  0  0  0  0  0  0  0  0  0  0  0
  187.9180  177.1420  136.4260 C   0  0  0  0  0  3  0  0  0  0  0  0
  187.6450  176.4540  135.2790 C   0  0  0  0  0  3  0  0  0  0  0  0
  190.0780  176.0690  136.5060 C   0  0  0  0  0  0  0  0  0  0  0  0
  189.9000  175.6380  135.1870 C   0  0  0  0  0  3  0  0  0  0  0  0
  188.6200  178.7030  138.7170 C   0  0  0  0  0  2  0  0  0  0  0  0
  188.6560  175.7900  134.5950 C   0  0  0  0  0  3  0  0  0  0  0  0
  191.9140  177.1750  143.9580 C   0  0  0  0  0  3  0  0  0  0  0  0
  189.1480  176.9820  137.0660 C   0  0  0  0  0  0  0  0  0  0  0  0
  189.3540  176.9180  144.9250 C   0  0  0  0  0  0  0  0  0  0  0  0
  190.2390  176.7610  140.5870 C   0  0  0  0  0  2  0  0  0  0  0  0
  189.5580  177.0710  143.5380 C   0  0  0  0  0  3  0  0  0  0  0  0
  191.5900  176.3290  138.4370 C   0  0  2  0  0  3  0  0  0  0  0  0
  186.9450  178.9450  143.3590 C   0  0  0  0  0  2  0  0  0  0  0  0
  191.3360  176.0530  137.0190 O   0  0  0  0  0  0  0  0  0  0  0  0
  187.3670  178.8200  140.8970 N   0  0  0  0  0  2  0  0  0  0  0  0
  187.4470  178.2470  139.5830 C   0  0  0  0  0  0  0  0  0  0  0  0
  191.6980  177.1040  145.3370 C   0  0  0  0  0  3  0  0  0  0  0  0
  186.3300  178.2760  144.5180 C   0  0  1  0  0  3  0  0  0  0  0  0
  190.8580  177.2220  143.0600 C   0  0  0  0  0  0  0  0  0  0  0  0
  189.4250  177.5760  138.3260 N   0  0  0  0  0  0  0  0  0  0  0  0
  190.6070  177.2610  139.1600 C   0  0  1  0  0  3  0  0  0  0  0  0
  187.3770  178.0660  145.6090 C   0  0  0  0  0  2  0  0  0  0  0  0
  188.0060  176.7090  145.4500 C   0  0  0  0  0  2  0  0  0  0  0  0
  190.4210  176.8420  145.8040 C   0  0  0  0  0  3  0  0  0  0  0  0
  193.7430  175.1590  138.3330 C   0  0  0  0  0  3  0  0  0  0  0  0
  195.5570  175.6680  139.8600 C   0  0  0  0  0  0  0  0  0  0  0  0
  193.5400  177.0550  139.8810 C   0  0  0  0  0  3  0  0  0  0  0  0
  194.7690  176.7350  140.4050 C   0  0  0  0  0  3  0  0  0  0  0  0
  194.9830  174.8860  138.8170 C   0  0  0  0  0  3  0  0  0  0  0  0
  192.9740  176.2150  138.8800 C   0  0  0  0  0  0  0  0  0  0  0  0
  196.9340  175.5450  140.1980 C   0  0  0  0  0  0  0  0  0  0  0  0
  197.9600  175.6110  139.2230 O   0  0  0  0  0  0  0  0  0  0  0  0
  197.2820  175.3670  141.4470 O   0  0  0  0  0  1  0  0  0  0  0  0
  184.8410  178.5990  146.1730 O   0  0  0  0  0  0  0  0  0  0  0  0
  185.1630  178.8960  145.0240 C   0  0  0  0  0  0  0  0  0  0  0  0
  184.3170  180.0760  143.9500 S   0  0  0  0  0  0  0  0  0  0  0  0
  183.1510  178.8210  143.2580 C   0  0  2  0  0  3  0  0  0  0  0  0
  183.7160  177.5120  143.0880 F   0  0  0  0  0  0  0  0  0  0  0  0
  182.0860  179.3680  142.2770 C   0  0  2  0  0  3  0  0  0  0  0  0
  180.8970  179.6690  142.9600 O   0  0  0  0  0  1  0  0  0  0  0  0
  181.7210  178.1110  141.2930 C   0  0  2  0  0  3  0  0  0  0  0  0
  183.5690  178.8330  139.9330 O   0  0  0  0  0  0  0  0  0  0  0  0
  182.1380  179.7500  138.3390 O   0  0  0  0  0  1  0  0  0  0  0  0
  182.7150  178.5590  138.8290 C   0  0  1  0  0  0  0  0  0  0  0  0
  182.4950  177.1120  138.6520 C   0  0  1  0  0  0  0  0  0  0  0  0
  182.7330  177.7350  140.1060 C   0  0  2  0  0  0  0  0  0  0  0  0
  181.1920  176.9600  138.2730 O   0  0  0  0  0  1  0  0  0  0  0  0
  183.5970  177.1090  137.7070 C   0  0  0  0  0  2  0  0  0  0  0  0
  183.2020  177.5490  136.4640 O   0  0  0  0  0  1  0  0  0  0  0  0
  180.2600  178.1040  140.9790 C   0  0  0  0  0  0  0  0  0  0  0  0
  179.5570  177.0040  141.2380 C   0  0  0  0  0  2  0  0  0  0  0  0
  179.6650  179.0860  140.2660 O   0  0  0  0  0  1  0  0  0  0  0  0
  1 22  1  0  0  0  0
  2 16  1  0  0  0  0
  3 19  2  0  0  0  0
  4 11  1  0  0  0  0
  5  4  2  0  0  0  0
  6 17  1  0  0  0  0
  6 11  2  0  0  0  0
  7  6  1  0  0  0  0
  8 19  1  0  0  0  0
  9  7  2  0  0  0  0
  9  5  1  0  0  0  0
 10 20  1  0  0  0  0
 11 23  1  0  0  0  0
 12 26  1  0  0  0  0
 12 27  1  0  0  0  0
 13  1  1  0  0  0  0
 14 12  2  0  0  0  0
 15 33  1  6  0  0  0
 15 24  1  0  0  0  0
 16 21  1  0  0  0  0
 17 15  1  0  0  0  0
 18  2  1  0  0  0  0
 19 18  1  0  0  0  0
 20 27  2  0  0  0  0
 21 38  1  1  0  0  0
 21 25  1  0  0  0  0
 22 14  1  0  0  0  0
 22 10  2  0  0  0  0
 23  8  1  0  0  0  0
 23 24  1  0  0  0  0
 24 13  1  1  0  0  0
 26 25  1  0  0  0  0
 28 32  2  0  0  0  0
 28 33  1  0  0  0  0
 29 34  1  0  0  0  0
 29 31  2  0  0  0  0
 30 31  1  0  0  0  0
 32 29  1  0  0  0  0
 33 30  2  0  0  0  0
 34 36  1  0  0  0  0
 35 34  2  0  0  0  0
 38 37  2  0  0  0  0
 39 38  1  0  0  0  0
 40 41  1  6  0  0  0
 40 39  1  0  0  0  0
 42 43  1  1  0  0  0
 42 40  1  0  0  0  0
 44 53  1  6  0  0  0
 44 42  1  0  0  0  0
 45 49  1  0  0  0  0
 47 46  1  6  0  0  0
 47 45  1  0  0  0  0
 47 49  1  0  0  0  0
 48 50  1  6  0  0  0
 48 47  1  0  0  0  0
 48 49  1  0  0  0  0
 49 44  1  1  0  0  0
 51 48  1  0  0  0  0
 52 51  1  0  0  0  0
 53 54  2  0  0  0  0
 55 53  1  0  0  0  0
M  END
>  <MODEL>
6

>  <REMARK>
 VINA RESULT:      -5.4      2.868      5.449
  Name = 
  10 active torsions:
  status: ('A' for Active; 'I' for Inactive)
    1  A    between atoms: C_1  and  C_53
    2  A    between atoms: C_6  and  C_20
    3  A    between atoms: C_6  and  C_53
    4  A    between atoms: C_8  and  S_22
    5  A    between atoms: C_8  and  C_43
    6  A    between atoms: C_10  and  C_32
    7  A    between atoms: C_11  and  C_29
    8  A    between atoms: C_20  and  S_22
    9  A    between atoms: C_33  and  C_52
   10  A    between atoms: C_38  and  C_53
                            x       y       z     vdW  Elec       q    Type
                         _______ _______ _______ _____ _____    ______ ____

>  <TORSDO>
F 10

$$$$
