=
 OpenBabel11052415553D

 34 38  0  0  1  0  0  0  0  0999 V2000
  184.5000  178.1290  141.6030 C   0  0  0  0  0  0  0  0  0  0  0  0
  184.5590  177.8760  139.0040 C   0  0  0  0  0  0  0  0  0  0  0  0
  182.3290  177.0290  139.9040 C   0  0  0  0  0  2  0  0  0  0  0  0
  183.5900  179.1660  144.1140 C   0  0  0  0  0  2  0  0  0  0  0  0
  185.2640  178.0170  142.7040 C   0  0  0  0  0  3  0  0  0  0  0  0
  182.6270  178.9430  142.9860 C   0  0  0  0  0  0  0  0  0  0  0  0
  180.5440  179.7300  141.9040 C   0  0  0  0  0  2  0  0  0  0  0  0
  181.1830  179.2780  143.2090 C   0  0  0  0  0  2  0  0  0  0  0  0
  184.7230  178.2450  144.0140 N   0  0  0  0  0  0  0  0  0  0  0  0
  182.0710  178.1360  140.7950 N   0  0  0  0  0  0  0  0  0  0  0  0
  183.0480  178.4400  141.8050 C   0  0  0  0  0  0  0  0  0  0  0  0
  180.6880  178.6150  140.8750 C   0  0  0  0  0  2  0  0  0  0  0  0
  185.3060  177.9940  137.8250 C   0  0  0  0  0  3  0  0  0  0  0  0
  186.6640  178.3240  137.8510 C   0  0  0  0  0  0  0  0  0  0  0  0
  187.2900  178.5340  139.0740 C   0  0  0  0  0  3  0  0  0  0  0  0
  183.2010  177.4660  138.8400 N   0  0  0  0  0  2  0  0  0  0  0  0
  186.5610  178.4340  140.2560 C   0  0  0  0  0  3  0  0  0  0  0  0
  185.1860  178.1120  140.2650 C   0  0  0  0  0  0  0  0  0  0  0  0
  186.2440  178.8830  147.4730 C   0  0  0  0  0  2  0  0  0  0  0  0
  187.0170  177.7270  144.7980 C   0  0  0  0  0  2  0  0  0  0  0  0
  188.3900  178.2100  148.2730 O   0  0  0  0  0  1  0  0  0  0  0  0
  187.4340  177.9290  147.2950 C   0  0  2  0  0  3  0  0  0  0  0  0
  188.0490  178.0370  145.8950 C   0  0  1  0  0  3  0  0  0  0  0  0
  185.5600  178.0230  145.2000 C   0  0  1  0  0  3  0  0  0  0  0  0
  185.5160  179.2100  146.1650 C   0  0  0  0  0  2  0  0  0  0  0  0
  190.3150  177.3920  145.0490 C   0  0  0  0  0  0  0  0  0  0  0  0
  189.2190  177.1090  145.7570 C   0  0  0  0  0  3  0  0  0  0  0  0
  190.4590  178.7020  144.3400 C   0  0  0  0  0  1  0  0  0  0  0  0
  191.4060  176.4060  144.9740 C   0  0  0  0  0  0  0  0  0  0  0  0
  191.9930  176.0270  146.0210 O   0  0  0  0  0  1  0  0  0  0  0  0
  191.8020  175.8840  143.7460 O   0  0  0  0  0  0  0  0  0  0  0  0
  187.4230  178.4390  136.6450 N   0  0  0  0  0  2  0  0  0  0  0  0
  188.8700  178.5740  136.6320 C   0  0  0  0  0  2  0  0  0  0  0  0
  189.5000  177.2230  136.3680 C   0  0  0  0  0  1  0  0  0  0  0  0
  1 11  1  0  0  0  0
  1  5  2  0  0  0  0
  2 18  1  0  0  0  0
  3 10  1  0  0  0  0
  5  9  1  0  0  0  0
  6  8  1  0  0  0  0
  6  4  1  0  0  0  0
  7  8  1  0  0  0  0
  9  4  1  0  0  0  0
 10 12  1  0  0  0  0
 10 11  1  0  0  0  0
 11  6  2  0  0  0  0
 12  7  1  0  0  0  0
 13 14  1  0  0  0  0
 13  2  2  0  0  0  0
 14 15  2  0  0  0  0
 15 17  1  0  0  0  0
 16  2  1  0  0  0  0
 16  3  1  0  0  0  0
 17 18  2  0  0  0  0
 18  1  1  0  0  0  0
 20 24  1  0  0  0  0
 20 23  1  0  0  0  0
 22 19  1  0  0  0  0
 22 21  1  1  0  0  0
 23 27  1  1  0  0  0
 23 22  1  0  0  0  0
 24  9  1  6  0  0  0
 24 25  1  0  0  0  0
 25 19  1  0  0  0  0
 26 27  2  0  0  0  0
 28 26  1  0  0  0  0
 29 26  1  0  0  0  0
 29 30  1  0  0  0  0
 31 29  2  0  0  0  0
 32 14  1  0  0  0  0
 33 32  1  0  0  0  0
 34 33  1  0  0  0  0
M  END
>  <MODEL>
1

>  <REMARK>
 VINA RESULT:      -9.2      0.000      0.000
  Name = 
  5 active torsions:
  status: ('A' for Active; 'I' for Inactive)
    1  A    between atoms: N_3  and  C_13
    2  A    between atoms: N_3  and  C_25
    3  A    between atoms: C_7  and  C_11
    4  A    between atoms: N_18  and  C_30
    5  A    between atoms: C_26  and  C_28
                            x       y       z     vdW  Elec       q    Type
                         _______ _______ _______ _____ _____    ______ ____

>  <TORSDO>
F 5

$$$$
=
 OpenBabel11052415553D

 34 38  0  0  1  0  0  0  0  0999 V2000
  188.7560  177.9310  142.8800 C   0  0  0  0  0  0  0  0  0  0  0  0
  191.0550  177.5990  141.6860 C   0  0  0  0  0  0  0  0  0  0  0  0
  191.4140  178.6770  143.9690 C   0  0  0  0  0  2  0  0  0  0  0  0
  186.7620  177.4980  144.8920 C   0  0  0  0  0  2  0  0  0  0  0  0
  187.4740  178.2650  142.6530 C   0  0  0  0  0  3  0  0  0  0  0  0
  188.2190  177.4880  145.2460 C   0  0  0  0  0  0  0  0  0  0  0  0
  189.9420  176.5300  146.7440 C   0  0  0  0  0  2  0  0  0  0  0  0
  188.6010  177.2450  146.6750 C   0  0  0  0  0  2  0  0  0  0  0  0
  186.5220  178.3470  143.7240 N   0  0  0  0  0  0  0  0  0  0  0  0
  190.5390  177.8020  144.7120 N   0  0  0  0  0  0  0  0  0  0  0  0
  189.1640  177.7060  144.3050 C   0  0  0  0  0  0  0  0  0  0  0  0
  190.9910  177.3860  146.0430 C   0  0  0  0  0  2  0  0  0  0  0  0
  191.7360  177.2050  140.5270 C   0  0  0  0  0  3  0  0  0  0  0  0
  191.0500  176.8560  139.3610 C   0  0  0  0  0  0  0  0  0  0  0  0
  189.6610  176.9090  139.3470 C   0  0  0  0  0  3  0  0  0  0  0  0
  191.8780  177.9940  142.7850 N   0  0  0  0  0  2  0  0  0  0  0  0
  188.9660  177.2860  140.4940 C   0  0  0  0  0  3  0  0  0  0  0  0
  189.6280  177.6330  141.6910 C   0  0  0  0  0  0  0  0  0  0  0  0
  182.7640  178.8620  144.2660 C   0  0  0  0  0  2  0  0  0  0  0  0
  184.7300  178.4570  142.0150 C   0  0  0  0  0  2  0  0  0  0  0  0
  181.0740  179.1540  142.6040 O   0  0  0  0  0  1  0  0  0  0  0  0
  182.4510  179.2490  142.8130 C   0  0  2  0  0  3  0  0  0  0  0  0
  183.2080  178.3680  141.8110 C   0  0  1  0  0  3  0  0  0  0  0  0
  185.1540  178.8060  143.4540 C   0  0  1  0  0  3  0  0  0  0  0  0
  184.1460  178.2280  144.4510 C   0  0  0  0  0  2  0  0  0  0  0  0
  182.5880  177.8790  139.4360 C   0  0  0  0  0  0  0  0  0  0  0  0
  182.8690  178.7560  140.4030 C   0  0  0  0  0  3  0  0  0  0  0  0
  182.5740  176.4070  139.7080 C   0  0  0  0  0  1  0  0  0  0  0  0
  182.2730  178.3660  138.0830 C   0  0  0  0  0  0  0  0  0  0  0  0
  182.3710  177.5970  137.0910 O   0  0  0  0  0  0  0  0  0  0  0  0
  181.8660  179.6820  137.8840 O   0  0  0  0  0  1  0  0  0  0  0  0
  191.7480  176.4590  138.1790 N   0  0  0  0  0  2  0  0  0  0  0  0
  193.1980  176.3820  138.1050 C   0  0  0  0  0  2  0  0  0  0  0  0
  193.6090  174.9840  137.6940 C   0  0  0  0  0  1  0  0  0  0  0  0
  1 11  1  0  0  0  0
  2 18  1  0  0  0  0
  2 16  1  0  0  0  0
  3 10  1  0  0  0  0
  4  6  1  0  0  0  0
  5  1  2  0  0  0  0
  5  9  1  0  0  0  0
  6  8  1  0  0  0  0
  8  7  1  0  0  0  0
  9  4  1  0  0  0  0
 10 12  1  0  0  0  0
 11 10  1  0  0  0  0
 11  6  2  0  0  0  0
 12  7  1  0  0  0  0
 13  2  2  0  0  0  0
 14 13  1  0  0  0  0
 15 14  2  0  0  0  0
 15 17  1  0  0  0  0
 16  3  1  0  0  0  0
 17 18  2  0  0  0  0
 18  1  1  0  0  0  0
 19 25  1  0  0  0  0
 22 21  1  6  0  0  0
 22 19  1  0  0  0  0
 23 27  1  6  0  0  0
 23 20  1  0  0  0  0
 23 22  1  0  0  0  0
 24 20  1  6  0  0  0
 24  9  1  0  0  0  0
 24 25  1  0  0  0  0
 26 28  1  0  0  0  0
 26 27  2  0  0  0  0
 29 26  1  0  0  0  0
 30 29  2  0  0  0  0
 31 29  1  0  0  0  0
 32 14  1  0  0  0  0
 33 32  1  0  0  0  0
 34 33  1  0  0  0  0
M  END
>  <MODEL>
2

>  <REMARK>
 VINA RESULT:      -9.0      4.272      7.464
  Name = 
  5 active torsions:
  status: ('A' for Active; 'I' for Inactive)
    1  A    between atoms: N_3  and  C_13
    2  A    between atoms: N_3  and  C_25
    3  A    between atoms: C_7  and  C_11
    4  A    between atoms: N_18  and  C_30
    5  A    between atoms: C_26  and  C_28
                            x       y       z     vdW  Elec       q    Type
                         _______ _______ _______ _____ _____    ______ ____

>  <TORSDO>
F 5

$$$$
=
 OpenBabel11052415553D

 34 38  0  0  1  0  0  0  0  0999 V2000
  190.2030  176.7500  139.0190 C   0  0  0  0  0  0  0  0  0  0  0  0
  191.3480  175.8800  136.8380 C   0  0  0  0  0  0  0  0  0  0  0  0
  188.8810  175.2320  136.8390 C   0  0  0  0  0  2  0  0  0  0  0  0
  188.4010  178.3440  140.5750 C   0  0  0  0  0  2  0  0  0  0  0  0
  190.4090  176.9230  140.3370 C   0  0  0  0  0  3  0  0  0  0  0  0
  187.9980  177.8370  139.2230 C   0  0  0  0  0  0  0  0  0  0  0  0
  186.6580  178.2990  137.1930 C   0  0  0  0  0  2  0  0  0  0  0  0
  186.6340  178.1870  138.7100 C   0  0  0  0  0  2  0  0  0  0  0  0
  189.3820  177.4480  141.1910 N   0  0  0  0  0  0  0  0  0  0  0  0
  188.3660  176.5150  137.2520 N   0  0  0  0  0  0  0  0  0  0  0  0
  188.8380  177.0720  138.4900 C   0  0  0  0  0  0  0  0  0  0  0  0
  187.1290  176.9720  136.6110 C   0  0  0  0  0  2  0  0  0  0  0  0
  192.5350  175.7250  136.1110 C   0  0  0  0  0  3  0  0  0  0  0  0
  193.7730  176.0790  136.6520 C   0  0  0  0  0  0  0  0  0  0  0  0
  193.8320  176.5890  137.9440 C   0  0  0  0  0  3  0  0  0  0  0  0
  190.1600  175.4160  136.1940 N   0  0  0  0  0  2  0  0  0  0  0  0
  192.6610  176.7620  138.6780 C   0  0  0  0  0  3  0  0  0  0  0  0
  191.3920  176.4260  138.1570 C   0  0  0  0  0  0  0  0  0  0  0  0
  190.8320  176.5800  144.6290 C   0  0  0  0  0  2  0  0  0  0  0  0
  188.2710  177.5930  143.4010 C   0  0  0  0  0  2  0  0  0  0  0  0
  189.8180  176.9010  146.7670 O   0  0  0  0  0  1  0  0  0  0  0  0
  189.7650  177.3300  145.4390 C   0  0  2  0  0  3  0  0  0  0  0  0
  188.3600  177.1220  144.8640 C   0  0  1  0  0  3  0  0  0  0  0  0
  189.6070  177.5350  142.6390 C   0  0  1  0  0  3  0  0  0  0  0  0
  190.4560  176.3710  143.1580 C   0  0  0  0  0  2  0  0  0  0  0  0
  186.1350  178.2100  145.2290 C   0  0  0  0  0  0  0  0  0  0  0  0
  187.3380  177.8510  145.6850 C   0  0  0  0  0  3  0  0  0  0  0  0
  185.7090  177.8840  143.8320 C   0  0  0  0  0  1  0  0  0  0  0  0
  185.2060  178.9280  146.1180 C   0  0  0  0  0  0  0  0  0  0  0  0
  183.9860  179.0210  145.8220 O   0  0  0  0  0  0  0  0  0  0  0  0
  185.6670  179.5130  147.2940 O   0  0  0  0  0  1  0  0  0  0  0  0
  194.9830  175.9150  135.9080 N   0  0  0  0  0  2  0  0  0  0  0  0
  195.2490  176.6220  134.6660 C   0  0  0  0  0  2  0  0  0  0  0  0
  195.7550  178.0150  134.9770 C   0  0  0  0  0  1  0  0  0  0  0  0
  1  5  2  0  0  0  0
  2 18  1  0  0  0  0
  3 10  1  0  0  0  0
  4  9  1  0  0  0  0
  5  9  1  0  0  0  0
  6  4  1  0  0  0  0
  7  8  1  0  0  0  0
  8  6  1  0  0  0  0
 10 11  1  0  0  0  0
 11  1  1  0  0  0  0
 11  6  2  0  0  0  0
 12  7  1  0  0  0  0
 12 10  1  0  0  0  0
 13 14  1  0  0  0  0
 13  2  2  0  0  0  0
 14 15  2  0  0  0  0
 15 17  1  0  0  0  0
 16  2  1  0  0  0  0
 16  3  1  0  0  0  0
 18 17  2  0  0  0  0
 18  1  1  0  0  0  0
 19 22  1  0  0  0  0
 20 23  1  0  0  0  0
 22 21  1  1  0  0  0
 23 22  1  0  0  0  0
 23 27  1  1  0  0  0
 24  9  1  6  0  0  0
 24 25  1  0  0  0  0
 24 20  1  0  0  0  0
 25 19  1  0  0  0  0
 26 27  2  0  0  0  0
 26 29  1  0  0  0  0
 28 26  1  0  0  0  0
 29 31  1  0  0  0  0
 30 29  2  0  0  0  0
 32 14  1  0  0  0  0
 33 34  1  0  0  0  0
 33 32  1  0  0  0  0
M  END
>  <MODEL>
3

>  <REMARK>
 VINA RESULT:      -8.9      3.302      6.388
  Name = 
  5 active torsions:
  status: ('A' for Active; 'I' for Inactive)
    1  A    between atoms: N_3  and  C_13
    2  A    between atoms: N_3  and  C_25
    3  A    between atoms: C_7  and  C_11
    4  A    between atoms: N_18  and  C_30
    5  A    between atoms: C_26  and  C_28
                            x       y       z     vdW  Elec       q    Type
                         _______ _______ _______ _____ _____    ______ ____

>  <TORSDO>
F 5

$$$$
=
 OpenBabel11052415553D

 34 38  0  0  1  0  0  0  0  0999 V2000
  185.2570  178.5380  142.3720 C   0  0  0  0  0  0  0  0  0  0  0  0
  185.1500  178.5800  144.9820 C   0  0  0  0  0  0  0  0  0  0  0  0
  183.2920  180.0360  144.0170 C   0  0  0  0  0  2  0  0  0  0  0  0
  184.3380  177.9540  139.7220 C   0  0  0  0  0  2  0  0  0  0  0  0
  186.1170  178.5270  141.3400 C   0  0  0  0  0  3  0  0  0  0  0  0
  183.3680  178.3370  140.7990 C   0  0  0  0  0  0  0  0  0  0  0  0
  181.0670  178.0380  141.6640 C   0  0  0  0  0  2  0  0  0  0  0  0
  181.9110  178.4030  140.4520 C   0  0  0  0  0  2  0  0  0  0  0  0
  185.6540  178.5420  139.9810 N   0  0  0  0  0  0  0  0  0  0  0  0
  182.8430  179.1000  143.0140 N   0  0  0  0  0  0  0  0  0  0  0  0
  183.7960  178.6280  142.0480 C   0  0  0  0  0  0  0  0  0  0  0  0
  181.3960  179.0020  142.7980 C   0  0  0  0  0  2  0  0  0  0  0  0
  185.7370  178.1890  146.1920 C   0  0  0  0  0  3  0  0  0  0  0  0
  186.9640  177.5220  146.2270 C   0  0  0  0  0  0  0  0  0  0  0  0
  187.6220  177.2460  145.0340 C   0  0  0  0  0  3  0  0  0  0  0  0
  183.9290  179.3140  145.0930 N   0  0  0  0  0  2  0  0  0  0  0  0
  187.0480  177.6160  143.8200 C   0  0  0  0  0  3  0  0  0  0  0  0
  185.8050  178.2810  143.7490 C   0  0  0  0  0  0  0  0  0  0  0  0
  187.0270  178.2480  136.4160 C   0  0  0  0  0  2  0  0  0  0  0  0
  187.9590  177.9720  139.2710 C   0  0  0  0  0  2  0  0  0  0  0  0
  189.2900  177.8830  135.7470 O   0  0  0  0  0  1  0  0  0  0  0  0
  188.5080  178.3260  136.8160 C   0  0  2  0  0  3  0  0  0  0  0  0
  188.8040  177.5020  138.0740 C   0  0  1  0  0  3  0  0  0  0  0  0
  186.6200  178.6250  138.8790 C   0  0  1  0  0  3  0  0  0  0  0  0
  186.0830  177.9870  137.5950 C   0  0  0  0  0  2  0  0  0  0  0  0
  191.1200  176.5730  138.2730 C   0  0  0  0  0  0  0  0  0  0  0  0
  190.2590  177.5820  138.4290 C   0  0  0  0  0  3  0  0  0  0  0  0
  190.6790  175.2630  137.7000 C   0  0  0  0  0  1  0  0  0  0  0  0
  192.5300  176.7550  138.6590 C   0  0  0  0  0  0  0  0  0  0  0  0
  192.8260  177.1380  139.8210 O   0  0  0  0  0  1  0  0  0  0  0  0
  193.5490  176.5070  137.7450 O   0  0  0  0  0  0  0  0  0  0  0  0
  187.5610  177.1290  147.4640 N   0  0  0  0  0  2  0  0  0  0  0  0
  187.9570  178.0800  148.4890 C   0  0  0  0  0  2  0  0  0  0  0  0
  189.4610  178.2500  148.4660 C   0  0  0  0  0  1  0  0  0  0  0  0
  1 18  1  0  0  0  0
  2 16  1  0  0  0  0
  2 13  1  0  0  0  0
  3 16  1  0  0  0  0
  4  9  1  0  0  0  0
  4  6  1  0  0  0  0
  5  1  2  0  0  0  0
  6 11  2  0  0  0  0
  7 12  1  0  0  0  0
  8  6  1  0  0  0  0
  8  7  1  0  0  0  0
  9  5  1  0  0  0  0
 10  3  1  0  0  0  0
 11  1  1  0  0  0  0
 11 10  1  0  0  0  0
 12 10  1  0  0  0  0
 13 14  2  0  0  0  0
 14 32  1  0  0  0  0
 15 14  1  0  0  0  0
 17 15  2  0  0  0  0
 18 17  1  0  0  0  0
 18  2  2  0  0  0  0
 19 22  1  0  0  0  0
 19 25  1  0  0  0  0
 22 21  1  6  0  0  0
 22 23  1  0  0  0  0
 23 27  1  1  0  0  0
 23 20  1  0  0  0  0
 24 25  1  6  0  0  0
 24 20  1  0  0  0  0
 24  9  1  0  0  0  0
 26 27  2  0  0  0  0
 26 29  1  0  0  0  0
 28 26  1  0  0  0  0
 29 30  1  0  0  0  0
 31 29  2  0  0  0  0
 32 33  1  0  0  0  0
 34 33  1  0  0  0  0
M  END
>  <MODEL>
4

>  <REMARK>
 VINA RESULT:      -8.7      2.679      7.014
  Name = 
  5 active torsions:
  status: ('A' for Active; 'I' for Inactive)
    1  A    between atoms: N_3  and  C_13
    2  A    between atoms: N_3  and  C_25
    3  A    between atoms: C_7  and  C_11
    4  A    between atoms: N_18  and  C_30
    5  A    between atoms: C_26  and  C_28
                            x       y       z     vdW  Elec       q    Type
                         _______ _______ _______ _____ _____    ______ ____

>  <TORSDO>
F 5

$$$$
=
 OpenBabel11052415553D

 34 38  0  0  1  0  0  0  0  0999 V2000
  183.8340  178.3730  140.9430 C   0  0  0  0  0  0  0  0  0  0  0  0
  182.9900  178.8380  143.3710 C   0  0  0  0  0  0  0  0  0  0  0  0
  181.1800  179.4700  141.6900 C   0  0  0  0  0  2  0  0  0  0  0  0
  183.8730  177.0820  138.3850 C   0  0  0  0  0  2  0  0  0  0  0  0
  184.9260  178.4420  140.1600 C   0  0  0  0  0  3  0  0  0  0  0  0
  182.5760  177.3360  139.0920 C   0  0  0  0  0  0  0  0  0  0  0  0
  180.2730  176.5120  139.4760 C   0  0  0  0  0  2  0  0  0  0  0  0
  181.3070  176.8950  138.4280 C   0  0  0  0  0  2  0  0  0  0  0  0
  184.8750  178.0770  138.7730 N   0  0  0  0  0  0  0  0  0  0  0  0
  181.2770  178.2810  140.8770 N   0  0  0  0  0  0  0  0  0  0  0  0
  182.5490  177.9580  140.2920 C   0  0  0  0  0  0  0  0  0  0  0  0
  180.0210  177.7130  140.3790 C   0  0  0  0  0  2  0  0  0  0  0  0
  183.2900  178.8620  144.7390 C   0  0  0  0  0  3  0  0  0  0  0  0
  184.5830  178.6150  145.2070 C   0  0  0  0  0  0  0  0  0  0  0  0
  185.5980  178.3470  144.2950 C   0  0  0  0  0  3  0  0  0  0  0  0
  181.6460  179.1750  143.0240 N   0  0  0  0  0  2  0  0  0  0  0  0
  185.3160  178.3060  142.9310 C   0  0  0  0  0  3  0  0  0  0  0  0
  184.0190  178.5400  142.4260 C   0  0  0  0  0  0  0  0  0  0  0  0
  187.0800  177.8880  135.6460 C   0  0  0  0  0  2  0  0  0  0  0  0
  187.3300  177.7660  138.6480 C   0  0  0  0  0  2  0  0  0  0  0  0
  189.4630  177.7770  135.5410 O   0  0  0  0  0  1  0  0  0  0  0  0
  188.4060  178.1430  136.3770 C   0  0  2  0  0  3  0  0  0  0  0  0
  188.4820  177.3780  137.7040 C   0  0  1  0  0  3  0  0  0  0  0  0
  186.0610  178.2540  137.9260 C   0  0  1  0  0  3  0  0  0  0  0  0
  185.9170  177.5390  136.5800 C   0  0  0  0  0  2  0  0  0  0  0  0
  190.7540  176.7120  138.5170 C   0  0  0  0  0  0  0  0  0  0  0  0
  189.7930  177.6310  138.3860 C   0  0  0  0  0  3  0  0  0  0  0  0
  190.5850  175.3340  137.9580 C   0  0  0  0  0  1  0  0  0  0  0  0
  192.0040  177.0630  139.2110 C   0  0  0  0  0  0  0  0  0  0  0  0
  191.9750  177.5030  140.3900 O   0  0  0  0  0  1  0  0  0  0  0  0
  193.2310  176.9140  138.5710 O   0  0  0  0  0  0  0  0  0  0  0  0
  184.8860  178.6450  146.6030 N   0  0  0  0  0  2  0  0  0  0  0  0
  186.0640  179.3040  147.1430 C   0  0  0  0  0  2  0  0  0  0  0  0
  187.0990  178.2630  147.5130 C   0  0  0  0  0  1  0  0  0  0  0  0
  1 18  1  0  0  0  0
  2 13  1  0  0  0  0
  3 16  1  0  0  0  0
  4  9  1  0  0  0  0
  4  6  1  0  0  0  0
  5  1  2  0  0  0  0
  6 11  2  0  0  0  0
  7 12  1  0  0  0  0
  8  6  1  0  0  0  0
  8  7  1  0  0  0  0
  9  5  1  0  0  0  0
 10  3  1  0  0  0  0
 11 10  1  0  0  0  0
 11  1  1  0  0  0  0
 12 10  1  0  0  0  0
 13 14  2  0  0  0  0
 14 32  1  0  0  0  0
 15 14  1  0  0  0  0
 16  2  1  0  0  0  0
 17 15  2  0  0  0  0
 18 17  1  0  0  0  0
 18  2  2  0  0  0  0
 19 22  1  0  0  0  0
 19 25  1  0  0  0  0
 22 21  1  6  0  0  0
 22 23  1  0  0  0  0
 23 27  1  1  0  0  0
 23 20  1  0  0  0  0
 24 25  1  6  0  0  0
 24 20  1  0  0  0  0
 24  9  1  0  0  0  0
 26 29  1  0  0  0  0
 27 26  2  0  0  0  0
 28 26  1  0  0  0  0
 29 30  1  0  0  0  0
 31 29  2  0  0  0  0
 32 33  1  0  0  0  0
 33 34  1  0  0  0  0
M  END
>  <MODEL>
5

>  <REMARK>
 VINA RESULT:      -8.5      2.697      6.934
  Name = 
  5 active torsions:
  status: ('A' for Active; 'I' for Inactive)
    1  A    between atoms: N_3  and  C_13
    2  A    between atoms: N_3  and  C_25
    3  A    between atoms: C_7  and  C_11
    4  A    between atoms: N_18  and  C_30
    5  A    between atoms: C_26  and  C_28
                            x       y       z     vdW  Elec       q    Type
                         _______ _______ _______ _____ _____    ______ ____

>  <TORSDO>
F 5

$$$$
=
 OpenBabel11052415553D

 34 38  0  0  1  0  0  0  0  0999 V2000
  188.3910  177.9570  139.9840 C   0  0  0  0  0  0  0  0  0  0  0  0
  186.6440  178.6240  138.1600 C   0  0  0  0  0  0  0  0  0  0  0  0
  189.0050  179.0090  137.2780 C   0  0  0  0  0  2  0  0  0  0  0  0
  190.5170  176.4210  141.1380 C   0  0  0  0  0  2  0  0  0  0  0  0
  188.6180  177.9940  141.3090 C   0  0  0  0  0  3  0  0  0  0  0  0
  190.4820  176.6890  139.6630 C   0  0  0  0  0  0  0  0  0  0  0  0
  191.0610  175.8110  137.4220 C   0  0  0  0  0  2  0  0  0  0  0  0
  191.5840  176.1320  138.8140 C   0  0  0  0  0  2  0  0  0  0  0  0
  189.8380  177.4910  141.8720 N   0  0  0  0  0  0  0  0  0  0  0  0
  189.5610  177.7510  137.7170 N   0  0  0  0  0  0  0  0  0  0  0  0
  189.4900  177.4250  139.1150 C   0  0  0  0  0  0  0  0  0  0  0  0
  190.4950  177.0840  136.8050 C   0  0  0  0  0  2  0  0  0  0  0  0
  185.2940  178.7960  137.8270 C   0  0  0  0  0  3  0  0  0  0  0  0
  184.2830  178.6510  138.7810 C   0  0  0  0  0  0  0  0  0  0  0  0
  184.6230  178.3370  140.0910 C   0  0  0  0  0  3  0  0  0  0  0  0
  187.5790  178.8680  137.1080 N   0  0  0  0  0  2  0  0  0  0  0  0
  185.9590  178.1490  140.4390 C   0  0  0  0  0  3  0  0  0  0  0  0
  187.0040  178.2770  139.4980 C   0  0  0  0  0  0  0  0  0  0  0  0
  191.4320  176.8200  145.2910 C   0  0  0  0  0  2  0  0  0  0  0  0
  188.7760  177.6180  144.1070 C   0  0  0  0  0  2  0  0  0  0  0  0
  190.4510  177.1280  147.4470 O   0  0  0  0  0  1  0  0  0  0  0  0
  190.3350  177.5170  146.1110 C   0  0  2  0  0  3  0  0  0  0  0  0
  188.9340  177.1960  145.5780 C   0  0  1  0  0  3  0  0  0  0  0  0
  190.0930  177.6330  143.3110 C   0  0  1  0  0  3  0  0  0  0  0  0
  191.0350  176.5460  143.8370 C   0  0  0  0  0  2  0  0  0  0  0  0
  186.6150  178.0280  146.0220 C   0  0  0  0  0  0  0  0  0  0  0  0
  187.8840  177.8730  146.4080 C   0  0  0  0  0  3  0  0  0  0  0  0
  186.1390  177.5030  144.7030 C   0  0  0  0  0  1  0  0  0  0  0  0
  185.6640  178.7140  146.9120 C   0  0  0  0  0  0  0  0  0  0  0  0
  184.4630  178.3400  146.9690 O   0  0  0  0  0  0  0  0  0  0  0  0
  186.0800  179.7840  147.6980 O   0  0  0  0  0  1  0  0  0  0  0  0
  182.9070  178.8320  138.4380 N   0  0  0  0  0  2  0  0  0  0  0  0
  182.0060  179.6770  139.2030 C   0  0  0  0  0  2  0  0  0  0  0  0
  181.9300  181.0460  138.5600 C   0  0  0  0  0  1  0  0  0  0  0  0
  1  5  2  0  0  0  0
  2 18  1  0  0  0  0
  3 10  1  0  0  0  0
  4  9  1  0  0  0  0
  5  9  1  0  0  0  0
  6  4  1  0  0  0  0
  7  8  1  0  0  0  0
  8  6  1  0  0  0  0
 10 11  1  0  0  0  0
 11  6  2  0  0  0  0
 11  1  1  0  0  0  0
 12  7  1  0  0  0  0
 12 10  1  0  0  0  0
 13  2  2  0  0  0  0
 13 14  1  0  0  0  0
 14 15  2  0  0  0  0
 15 17  1  0  0  0  0
 16  3  1  0  0  0  0
 16  2  1  0  0  0  0
 18  1  1  0  0  0  0
 18 17  2  0  0  0  0
 19 22  1  0  0  0  0
 20 23  1  0  0  0  0
 22 21  1  1  0  0  0
 23 22  1  0  0  0  0
 23 27  1  1  0  0  0
 24  9  1  6  0  0  0
 24 25  1  0  0  0  0
 24 20  1  0  0  0  0
 25 19  1  0  0  0  0
 26 27  2  0  0  0  0
 26 29  1  0  0  0  0
 28 26  1  0  0  0  0
 29 30  2  0  0  0  0
 29 31  1  0  0  0  0
 32 14  1  0  0  0  0
 32 33  1  0  0  0  0
 34 33  1  0  0  0  0
M  END
>  <MODEL>
6

>  <REMARK>
 VINA RESULT:      -8.3      2.201      6.207
  Name = 
  5 active torsions:
  status: ('A' for Active; 'I' for Inactive)
    1  A    between atoms: N_3  and  C_13
    2  A    between atoms: N_3  and  C_25
    3  A    between atoms: C_7  and  C_11
    4  A    between atoms: N_18  and  C_30
    5  A    between atoms: C_26  and  C_28
                            x       y       z     vdW  Elec       q    Type
                         _______ _______ _______ _____ _____    ______ ____

>  <TORSDO>
F 5

$$$$
=
 OpenBabel11052415553D

 34 38  0  0  1  0  0  0  0  0999 V2000
  188.3400  177.3740  140.6030 C   0  0  0  0  0  0  0  0  0  0  0  0
  189.8150  176.8480  138.5120 C   0  0  0  0  0  0  0  0  0  0  0  0
  187.3660  176.3740  137.9840 C   0  0  0  0  0  2  0  0  0  0  0  0
  186.3490  178.7670  142.1210 C   0  0  0  0  0  2  0  0  0  0  0  0
  188.3200  177.2860  141.9440 C   0  0  0  0  0  3  0  0  0  0  0  0
  186.1700  178.5460  140.6490 C   0  0  0  0  0  0  0  0  0  0  0  0
  185.2170  179.4620  138.5550 C   0  0  0  0  0  2  0  0  0  0  0  0
  184.9280  179.0730  139.9980 C   0  0  0  0  0  2  0  0  0  0  0  0
  187.1790  177.7110  142.7040 N   0  0  0  0  0  0  0  0  0  0  0  0
  186.8290  177.5900  138.5480 N   0  0  0  0  0  0  0  0  0  0  0  0
  187.0990  177.8770  139.9300 C   0  0  0  0  0  0  0  0  0  0  0  0
  185.7380  178.2370  137.8130 C   0  0  0  0  0  2  0  0  0  0  0  0
  191.1040  176.7530  137.9720 C   0  0  0  0  0  3  0  0  0  0  0  0
  192.2420  176.9190  138.7660 C   0  0  0  0  0  0  0  0  0  0  0  0
  192.0920  177.1770  140.1240 C   0  0  0  0  0  3  0  0  0  0  0  0
  188.7420  176.5900  137.6050 N   0  0  0  0  0  2  0  0  0  0  0  0
  190.8180  177.2880  140.6760 C   0  0  0  0  0  3  0  0  0  0  0  0
  189.6490  177.1370  139.9000 C   0  0  0  0  0  0  0  0  0  0  0  0
  186.2290  178.3180  146.3660 C   0  0  0  0  0  2  0  0  0  0  0  0
  188.5810  177.3900  144.7220 C   0  0  0  0  0  2  0  0  0  0  0  0
  187.5230  177.8280  148.3120 O   0  0  0  0  0  1  0  0  0  0  0  0
  187.3860  177.5010  146.9610 C   0  0  2  0  0  3  0  0  0  0  0  0
  188.7020  177.7460  146.2140 C   0  0  1  0  0  3  0  0  0  0  0  0
  187.1540  177.5140  144.1580 C   0  0  1  0  0  3  0  0  0  0  0  0
  186.4030  178.6380  144.8770 C   0  0  0  0  0  2  0  0  0  0  0  0
  191.0310  176.8290  146.2860 C   0  0  0  0  0  0  0  0  0  0  0  0
  189.8160  176.9510  146.8280 C   0  0  0  0  0  3  0  0  0  0  0  0
  191.3750  177.5140  145.0010 C   0  0  0  0  0  1  0  0  0  0  0  0
  192.0520  176.0190  146.9700 C   0  0  0  0  0  0  0  0  0  0  0  0
  192.4760  176.3570  148.1070 O   0  0  0  0  0  1  0  0  0  0  0  0
  192.5630  174.8730  146.3680 O   0  0  0  0  0  0  0  0  0  0  0  0
  193.5550  176.8160  138.2120 N   0  0  0  0  0  2  0  0  0  0  0  0
  193.8770  175.9400  137.0980 C   0  0  0  0  0  2  0  0  0  0  0  0
  194.1190  174.5370  137.6140 C   0  0  0  0  0  1  0  0  0  0  0  0
  1  5  2  0  0  0  0
  2 18  1  0  0  0  0
  3 10  1  0  0  0  0
  4  9  1  0  0  0  0
  5  9  1  0  0  0  0
  6  4  1  0  0  0  0
  7  8  1  0  0  0  0
  8  6  1  0  0  0  0
 10 11  1  0  0  0  0
 11  1  1  0  0  0  0
 11  6  2  0  0  0  0
 12 10  1  0  0  0  0
 12  7  1  0  0  0  0
 13  2  2  0  0  0  0
 13 14  1  0  0  0  0
 14 15  2  0  0  0  0
 15 17  1  0  0  0  0
 16  3  1  0  0  0  0
 16  2  1  0  0  0  0
 18  1  1  0  0  0  0
 18 17  2  0  0  0  0
 19 22  1  0  0  0  0
 20 23  1  0  0  0  0
 22 21  1  1  0  0  0
 23 27  1  1  0  0  0
 23 22  1  0  0  0  0
 24  9  1  6  0  0  0
 24 20  1  0  0  0  0
 24 25  1  0  0  0  0
 25 19  1  0  0  0  0
 26 27  2  0  0  0  0
 26 29  1  0  0  0  0
 28 26  1  0  0  0  0
 29 30  1  0  0  0  0
 31 29  2  0  0  0  0
 32 14  1  0  0  0  0
 33 34  1  0  0  0  0
 33 32  1  0  0  0  0
M  END
>  <MODEL>
7

>  <REMARK>
 VINA RESULT:      -8.2      2.580      4.111
  Name = 
  5 active torsions:
  status: ('A' for Active; 'I' for Inactive)
    1  A    between atoms: N_3  and  C_13
    2  A    between atoms: N_3  and  C_25
    3  A    between atoms: C_7  and  C_11
    4  A    between atoms: N_18  and  C_30
    5  A    between atoms: C_26  and  C_28
                            x       y       z     vdW  Elec       q    Type
                         _______ _______ _______ _____ _____    ______ ____

>  <TORSDO>
F 5

$$$$
=
 OpenBabel11052415553D

 34 38  0  0  1  0  0  0  0  0999 V2000
  188.4150  177.5260  143.4630 C   0  0  0  0  0  0  0  0  0  0  0  0
  190.4890  176.4980  144.6740 C   0  0  0  0  0  0  0  0  0  0  0  0
  190.1810  175.3920  142.3970 C   0  0  0  0  0  2  0  0  0  0  0  0
  187.0320  179.0030  141.4340 C   0  0  0  0  0  2  0  0  0  0  0  0
  187.1700  177.9830  143.6810 C   0  0  0  0  0  3  0  0  0  0  0  0
  188.2370  178.1790  141.0910 C   0  0  0  0  0  0  0  0  0  0  0  0
  190.2060  177.9750  139.6030 C   0  0  0  0  0  2  0  0  0  0  0  0
  188.6960  178.1510  139.6640 C   0  0  0  0  0  2  0  0  0  0  0  0
  186.3450  178.4500  142.6030 N   0  0  0  0  0  0  0  0  0  0  0  0
  189.9630  176.6050  141.6440 N   0  0  0  0  0  0  0  0  0  0  0  0
  188.8850  177.4680  142.0400 C   0  0  0  0  0  0  0  0  0  0  0  0
  190.5770  176.6800  140.3150 C   0  0  0  0  0  2  0  0  0  0  0  0
  191.2670  176.4430  145.8370 C   0  0  0  0  0  3  0  0  0  0  0  0
  190.8960  177.1280  146.9960 C   0  0  0  0  0  0  0  0  0  0  0  0
  189.7250  177.8760  147.0000 C   0  0  0  0  0  3  0  0  0  0  0  0
  190.9460  175.6970  143.5820 N   0  0  0  0  0  2  0  0  0  0  0  0
  188.9440  177.9530  145.8490 C   0  0  0  0  0  3  0  0  0  0  0  0
  189.2960  177.2830  144.6580 C   0  0  0  0  0  0  0  0  0  0  0  0
  183.0450  178.8320  144.5110 C   0  0  0  0  0  2  0  0  0  0  0  0
  184.0420  178.4640  141.6890 C   0  0  0  0  0  2  0  0  0  0  0  0
  180.8460  179.0320  143.6020 O   0  0  0  0  0  1  0  0  0  0  0  0
  182.1960  179.1820  143.2800 C   0  0  2  0  0  3  0  0  0  0  0  0
  182.5590  178.3140  142.0700 C   0  0  1  0  0  3  0  0  0  0  0  0
  184.9580  178.8520  142.8640 C   0  0  1  0  0  3  0  0  0  0  0  0
  184.4210  178.2530  144.1660 C   0  0  0  0  0  2  0  0  0  0  0  0
  181.4490  177.8310  139.8780 C   0  0  0  0  0  0  0  0  0  0  0  0
  181.7030  178.6650  140.8900 C   0  0  0  0  0  3  0  0  0  0  0  0
  182.0070  176.4420  139.8650 C   0  0  0  0  0  1  0  0  0  0  0  0
  180.5980  178.2780  138.7630 C   0  0  0  0  0  0  0  0  0  0  0  0
  179.3750  177.9810  138.7380 O   0  0  0  0  0  1  0  0  0  0  0  0
  181.1350  179.0330  137.7250 O   0  0  0  0  0  0  0  0  0  0  0  0
  191.6920  177.0660  148.1830 N   0  0  0  0  0  2  0  0  0  0  0  0
  192.6980  176.0420  148.4060 C   0  0  0  0  0  2  0  0  0  0  0  0
  193.5560  176.4270  149.5930 C   0  0  0  0  0  1  0  0  0  0  0  0
  1  5  2  0  0  0  0
  1 18  1  0  0  0  0
  2 13  1  0  0  0  0
  3 16  1  0  0  0  0
  4  9  1  0  0  0  0
  6  4  1  0  0  0  0
  6 11  2  0  0  0  0
  7  8  1  0  0  0  0
  7 12  1  0  0  0  0
  8  6  1  0  0  0  0
  9 24  1  0  0  0  0
  9  5  1  0  0  0  0
 10 11  1  0  0  0  0
 10  3  1  0  0  0  0
 11  1  1  0  0  0  0
 12 10  1  0  0  0  0
 13 14  2  0  0  0  0
 14 15  1  0  0  0  0
 14 32  1  0  0  0  0
 16  2  1  0  0  0  0
 17 15  2  0  0  0  0
 18  2  2  0  0  0  0
 18 17  1  0  0  0  0
 20 23  1  0  0  0  0
 22 21  1  1  0  0  0
 22 19  1  0  0  0  0
 23 27  1  6  0  0  0
 23 22  1  0  0  0  0
 24 20  1  6  0  0  0
 24 25  1  0  0  0  0
 25 19  1  0  0  0  0
 26 27  2  0  0  0  0
 28 26  1  0  0  0  0
 29 26  1  0  0  0  0
 30 29  1  0  0  0  0
 31 29  2  0  0  0  0
 32 33  1  0  0  0  0
 33 34  1  0  0  0  0
M  END
>  <MODEL>
8

>  <REMARK>
 VINA RESULT:      -8.0      4.477      8.704
  Name = 
  5 active torsions:
  status: ('A' for Active; 'I' for Inactive)
    1  A    between atoms: N_3  and  C_13
    2  A    between atoms: N_3  and  C_25
    3  A    between atoms: C_7  and  C_11
    4  A    between atoms: N_18  and  C_30
    5  A    between atoms: C_26  and  C_28
                            x       y       z     vdW  Elec       q    Type
                         _______ _______ _______ _____ _____    ______ ____

>  <TORSDO>
F 5

$$$$
=
 OpenBabel11052415553D

 34 38  0  0  1  0  0  0  0  0999 V2000
  187.3120  177.7860  144.3670 C   0  0  0  0  0  0  0  0  0  0  0  0
  184.9130  178.2590  145.2880 C   0  0  0  0  0  0  0  0  0  0  0  0
  186.2060  176.8120  146.9430 C   0  0  0  0  0  2  0  0  0  0  0  0
  190.1740  177.9260  144.3170 C   0  0  0  0  0  2  0  0  0  0  0  0
  187.9880  177.5220  143.2350 C   0  0  0  0  0  3  0  0  0  0  0  0
  189.4360  177.8450  145.6200 C   0  0  0  0  0  0  0  0  0  0  0  0
  189.4430  178.5050  148.0060 C   0  0  0  0  0  2  0  0  0  0  0  0
  190.2340  177.8410  146.8890 C   0  0  0  0  0  2  0  0  0  0  0  0
  189.4040  177.2860  143.2480 N   0  0  0  0  0  0  0  0  0  0  0  0
  187.4330  177.5730  146.9150 N   0  0  0  0  0  0  0  0  0  0  0  0
  188.0870  177.7640  145.6500 C   0  0  0  0  0  0  0  0  0  0  0  0
  188.1300  177.7530  148.1920 C   0  0  0  0  0  2  0  0  0  0  0  0
  183.6520  178.8230  145.0580 C   0  0  0  0  0  3  0  0  0  0  0  0
  183.3140  179.3740  143.8190 C   0  0  0  0  0  0  0  0  0  0  0  0
  184.2470  179.3550  142.7880 C   0  0  0  0  0  3  0  0  0  0  0  0
  185.1050  177.6700  146.5750 N   0  0  0  0  0  2  0  0  0  0  0  0
  185.5110  178.8100  143.0020 C   0  0  0  0  0  3  0  0  0  0  0  0
  185.8880  178.2560  144.2440 C   0  0  0  0  0  0  0  0  0  0  0  0
  192.1980  177.1290  140.6320 C   0  0  0  0  0  2  0  0  0  0  0  0
  189.1870  177.1280  140.7850 C   0  0  0  0  0  2  0  0  0  0  0  0
  191.9800  176.7870  138.2790 O   0  0  0  0  0  1  0  0  0  0  0  0
  191.3110  176.6090  139.4920 C   0  0  2  0  0  3  0  0  0  0  0  0
  189.9490  177.3120  139.4610 C   0  0  1  0  0  3  0  0  0  0  0  0
  190.0940  176.9080  142.0090 C   0  0  1  0  0  3  0  0  0  0  0  0
  191.4100  177.6700  141.8290 C   0  0  0  0  0  2  0  0  0  0  0  0
  188.6920  177.5540  137.3100 C   0  0  0  0  0  0  0  0  0  0  0  0
  189.1130  176.7980  138.3280 C   0  0  0  0  0  3  0  0  0  0  0  0
  189.0550  179.0040  137.2230 C   0  0  0  0  0  1  0  0  0  0  0  0
  187.8700  176.9500  136.2490 C   0  0  0  0  0  0  0  0  0  0  0  0
  188.1160  177.1920  135.0380 O   0  0  0  0  0  0  0  0  0  0  0  0
  186.8100  176.1080  136.5710 O   0  0  0  0  0  1  0  0  0  0  0  0
  182.0250  179.9450  143.5870 N   0  0  0  0  0  2  0  0  0  0  0  0
  180.9330  179.2080  142.9720 C   0  0  0  0  0  2  0  0  0  0  0  0
  180.0500  178.6200  144.0520 C   0  0  0  0  0  1  0  0  0  0  0  0
  1 11  1  0  0  0  0
  2 16  1  0  0  0  0
  4  6  1  0  0  0  0
  5  9  1  0  0  0  0
  5  1  2  0  0  0  0
  6 11  2  0  0  0  0
  6  8  1  0  0  0  0
  7 12  1  0  0  0  0
  8  7  1  0  0  0  0
  9  4  1  0  0  0  0
 10  3  1  0  0  0  0
 10 12  1  0  0  0  0
 11 10  1  0  0  0  0
 13  2  1  0  0  0  0
 14 13  2  0  0  0  0
 15 17  2  0  0  0  0
 15 14  1  0  0  0  0
 16  3  1  0  0  0  0
 17 18  1  0  0  0  0
 18  1  1  0  0  0  0
 18  2  2  0  0  0  0
 19 25  1  0  0  0  0
 22 21  1  6  0  0  0
 22 19  1  0  0  0  0
 23 27  1  6  0  0  0
 23 22  1  0  0  0  0
 23 20  1  0  0  0  0
 24 20  1  6  0  0  0
 24  9  1  0  0  0  0
 25 24  1  0  0  0  0
 26 27  2  0  0  0  0
 28 26  1  0  0  0  0
 29 31  1  0  0  0  0
 29 26  1  0  0  0  0
 30 29  2  0  0  0  0
 32 14  1  0  0  0  0
 33 32  1  0  0  0  0
 33 34  1  0  0  0  0
M  END
>  <MODEL>
9

>  <REMARK>
 VINA RESULT:      -7.8      3.457      7.930
  Name = 
  5 active torsions:
  status: ('A' for Active; 'I' for Inactive)
    1  A    between atoms: N_3  and  C_13
    2  A    between atoms: N_3  and  C_25
    3  A    between atoms: C_7  and  C_11
    4  A    between atoms: N_18  and  C_30
    5  A    between atoms: C_26  and  C_28
                            x       y       z     vdW  Elec       q    Type
                         _______ _______ _______ _____ _____    ______ ____

>  <TORSDO>
F 5

$$$$
