=
 OpenBabel11052413303D

 28 32  0  0  0  0  0  0  0  0999 V2000
  187.5690  178.1840  141.0400 C   0  0  0  0  0  0  0  0  0  0  0  0
  190.5800  176.8730  144.8860 C   0  0  0  0  0  3  0  0  0  0  0  0
  184.6650  178.5720  144.9420 N   0  0  0  0  0  1  0  0  0  0  0  0
  189.1180  177.0740  146.8000 C   0  0  0  0  0  0  0  0  0  0  0  0
  188.2550  177.5840  144.5870 C   0  0  0  0  0  0  0  0  0  0  0  0
  191.4080  176.3780  147.0580 C   0  0  0  0  0  0  0  0  0  0  0  0
  189.3170  177.1800  145.4080 C   0  0  0  0  0  0  0  0  0  0  0  0
  186.8470  177.7620  146.5270 N   0  0  0  0  0  0  0  0  0  0  0  0
  190.1670  176.6710  147.6270 C   0  0  0  0  0  3  0  0  0  0  0  0
  186.1230  178.3790  142.9810 C   0  0  0  0  0  0  0  0  0  0  0  0
  188.4100  177.6970  143.2400 N   0  0  0  0  0  0  0  0  0  0  0  0
  187.8670  177.3720  147.3400 C   0  0  0  0  0  3  0  0  0  0  0  0
  185.2610  178.8610  140.8190 C   0  0  0  0  0  3  0  0  0  0  0  0
  185.9360  178.2750  144.3660 C   0  0  0  0  0  0  0  0  0  0  0  0
  185.1010  178.7590  142.1660 N   0  0  0  0  0  0  0  0  0  0  0  0
  192.7360  175.8710  148.0780 Cl  0  0  0  0  0  0  0  0  0  0  0  0
  191.5870  176.4830  145.7120 N   0  0  0  0  0  0  0  0  0  0  0  0
  187.0040  177.8740  145.1790 C   0  0  0  0  0  0  0  0  0  0  0  0
  186.4960  178.5730  140.2340 C   0  0  0  0  0  3  0  0  0  0  0  0
  187.3880  178.0810  142.4280 C   0  0  0  0  0  0  0  0  0  0  0  0
  188.8810  177.8600  140.3960 C   0  0  0  0  0  2  0  0  0  0  0  0
  188.7410  177.7860  138.9120 C   0  0  0  0  0  0  0  0  0  0  0  0
  188.5190  177.6390  136.1250 C   0  0  0  0  0  0  0  0  0  0  0  0
  188.3190  176.5980  138.3040 C   0  0  0  0  0  3  0  0  0  0  0  0
  189.0560  178.8990  138.1220 C   0  0  0  0  0  3  0  0  0  0  0  0
  188.9440  178.8250  136.7310 C   0  0  0  0  0  3  0  0  0  0  0  0
  188.4100  177.5690  134.7770 F   0  0  0  0  0  0  0  0  0  0  0  0
  188.2070  176.5250  136.9110 C   0  0  0  0  0  3  0  0  0  0  0  0
  1 20  1  0  0  0  0
  2  7  2  0  0  0  0
  2 17  1  0  0  0  0
  4 12  1  0  0  0  0
  4  9  2  0  0  0  0
  5 18  1  0  0  0  0
  5  7  1  0  0  0  0
  6  9  1  0  0  0  0
  6 16  1  0  0  0  0
  7  4  1  0  0  0  0
  8 12  2  0  0  0  0
 10 14  1  0  0  0  0
 11  5  2  0  0  0  0
 13 15  2  0  0  0  0
 14  3  1  0  0  0  0
 14 18  2  0  0  0  0
 15 10  1  0  0  0  0
 17  6  2  0  0  0  0
 18  8  1  0  0  0  0
 19 13  1  0  0  0  0
 19  1  2  0  0  0  0
 20 10  2  0  0  0  0
 20 11  1  0  0  0  0
 21  1  1  0  0  0  0
 22 21  1  0  0  0  0
 23 26  2  0  0  0  0
 23 28  1  0  0  0  0
 24 22  1  0  0  0  0
 25 22  2  0  0  0  0
 26 25  1  0  0  0  0
 27 23  1  0  0  0  0
 28 24  2  0  0  0  0
M  END
>  <MODEL>
1

>  <REMARK>
 VINA RESULT:      -9.8      0.000      0.000
  Name = 
  2 active torsions:
  status: ('A' for Active; 'I' for Inactive)
    1  A    between atoms: C_1  and  C_2
    2  A    between atoms: C_2  and  C_3
                            x       y       z     vdW  Elec       q    Type
                         _______ _______ _______ _____ _____    ______ ____

>  <TORSDO>
F 2

$$$$
=
 OpenBabel11052413303D

 28 32  0  0  0  0  0  0  0  0999 V2000
  189.8760  176.8050  142.6530 C   0  0  0  0  0  0  0  0  0  0  0  0
  185.0470  178.2880  142.8920 C   0  0  0  0  0  3  0  0  0  0  0  0
  189.0910  177.3560  147.4370 N   0  0  0  0  0  1  0  0  0  0  0  0
  184.6870  178.5520  145.2680 C   0  0  0  0  0  0  0  0  0  0  0  0
  186.8660  177.8320  144.4690 C   0  0  0  0  0  0  0  0  0  0  0  0
  182.9220  178.9920  143.6920 C   0  0  0  0  0  0  0  0  0  0  0  0
  185.5450  178.2190  144.1990 C   0  0  0  0  0  0  0  0  0  0  0  0
  186.4510  178.1150  146.8190 N   0  0  0  0  0  0  0  0  0  0  0  0
  183.3720  178.9400  145.0130 C   0  0  0  0  0  3  0  0  0  0  0  0
  189.4860  177.0770  145.0330 C   0  0  0  0  0  0  0  0  0  0  0  0
  187.7220  177.5040  143.4630 N   0  0  0  0  0  0  0  0  0  0  0  0
  185.1660  178.4920  146.5770 C   0  0  0  0  0  3  0  0  0  0  0  0
  191.6270  176.3920  144.2630 C   0  0  0  0  0  3  0  0  0  0  0  0
  188.6250  177.4060  146.0890 C   0  0  0  0  0  0  0  0  0  0  0  0
  190.7750  176.7090  145.2740 N   0  0  0  0  0  0  0  0  0  0  0  0
  181.2750  179.4760  143.3510 Cl  0  0  0  0  0  0  0  0  0  0  0  0
  183.7610  178.6690  142.6690 N   0  0  0  0  0  0  0  0  0  0  0  0
  187.3060  177.7880  145.8110 C   0  0  0  0  0  0  0  0  0  0  0  0
  191.1930  176.4370  142.9360 C   0  0  0  0  0  3  0  0  0  0  0  0
  189.0080  177.1330  143.7060 C   0  0  0  0  0  0  0  0  0  0  0  0
  189.4300  176.8670  141.2240 C   0  0  0  0  0  2  0  0  0  0  0  0
  190.6000  176.7970  140.2990 C   0  0  0  0  0  0  0  0  0  0  0  0
  192.7780  176.6980  138.5440 C   0  0  0  0  0  0  0  0  0  0  0  0
  191.7970  177.4420  140.6300 C   0  0  0  0  0  3  0  0  0  0  0  0
  190.4930  176.1060  139.0860 C   0  0  0  0  0  3  0  0  0  0  0  0
  191.5810  176.0560  138.2100 C   0  0  0  0  0  3  0  0  0  0  0  0
  193.8310  176.6480  137.6950 F   0  0  0  0  0  0  0  0  0  0  0  0
  192.8860  177.3910  139.7530 C   0  0  0  0  0  3  0  0  0  0  0  0
  1 19  2  0  0  0  0
  1 20  1  0  0  0  0
  2  7  1  0  0  0  0
  4 12  1  0  0  0  0
  5 18  1  0  0  0  0
  6  9  2  0  0  0  0
  7  5  1  0  0  0  0
  7  4  2  0  0  0  0
  9  4  1  0  0  0  0
 10 15  1  0  0  0  0
 10 14  1  0  0  0  0
 11 20  1  0  0  0  0
 11  5  2  0  0  0  0
 12  8  2  0  0  0  0
 13 15  2  0  0  0  0
 14  3  1  0  0  0  0
 16  6  1  0  0  0  0
 17  2  2  0  0  0  0
 17  6  1  0  0  0  0
 18 14  2  0  0  0  0
 18  8  1  0  0  0  0
 19 13  1  0  0  0  0
 20 10  2  0  0  0  0
 21  1  1  0  0  0  0
 22 24  1  0  0  0  0
 22 21  1  0  0  0  0
 23 28  1  0  0  0  0
 25 22  2  0  0  0  0
 26 23  2  0  0  0  0
 26 25  1  0  0  0  0
 27 23  1  0  0  0  0
 28 24  2  0  0  0  0
M  END
>  <MODEL>
2

>  <REMARK>
 VINA RESULT:      -9.5      3.405      5.470
  Name = 
  2 active torsions:
  status: ('A' for Active; 'I' for Inactive)
    1  A    between atoms: C_1  and  C_2
    2  A    between atoms: C_2  and  C_3
                            x       y       z     vdW  Elec       q    Type
                         _______ _______ _______ _____ _____    ______ ____

>  <TORSDO>
F 2

$$$$
=
 OpenBabel11052413303D

 28 32  0  0  0  0  0  0  0  0999 V2000
  189.6050  177.6950  139.2590 C   0  0  0  0  0  0  0  0  0  0  0  0
  189.0020  177.2330  144.2590 C   0  0  0  0  0  3  0  0  0  0  0  0
  185.0160  179.1830  139.9940 N   0  0  0  0  0  1  0  0  0  0  0  0
  186.7260  177.9760  144.5920 C   0  0  0  0  0  0  0  0  0  0  0  0
  187.6540  177.9620  142.3480 C   0  0  0  0  0  0  0  0  0  0  0  0
  188.0780  177.2540  146.4480 C   0  0  0  0  0  0  0  0  0  0  0  0
  187.8050  177.7220  143.7210 C   0  0  0  0  0  0  0  0  0  0  0  0
  185.3960  178.6860  142.7400 N   0  0  0  0  0  0  0  0  0  0  0  0
  186.8630  177.7400  145.9600 C   0  0  0  0  0  3  0  0  0  0  0  0
  187.3220  178.4360  139.6230 C   0  0  0  0  0  0  0  0  0  0  0  0
  188.6730  177.7280  141.4770 N   0  0  0  0  0  0  0  0  0  0  0  0
  185.5240  178.4600  144.0750 C   0  0  0  0  0  3  0  0  0  0  0  0
  188.2120  178.4080  137.4200 C   0  0  0  0  0  3  0  0  0  0  0  0
  186.2560  178.6890  140.4980 C   0  0  0  0  0  0  0  0  0  0  0  0
  187.1920  178.6520  138.2860 N   0  0  0  0  0  0  0  0  0  0  0  0
  188.2700  176.9520  148.1620 Cl  0  0  0  0  0  0  0  0  0  0  0  0
  189.1120  177.0120  145.5960 N   0  0  0  0  0  0  0  0  0  0  0  0
  186.4170  178.4510  141.8700 C   0  0  0  0  0  0  0  0  0  0  0  0
  189.4330  177.9230  137.8920 C   0  0  0  0  0  3  0  0  0  0  0  0
  188.5420  177.9480  140.1400 C   0  0  0  0  0  0  0  0  0  0  0  0
  190.9140  177.1560  139.7470 C   0  0  0  0  0  2  0  0  0  0  0  0
  191.5680  176.3190  138.6990 C   0  0  0  0  0  0  0  0  0  0  0  0
  192.8150  174.7280  136.7630 C   0  0  0  0  0  0  0  0  0  0  0  0
  190.9090  175.1980  138.1820 C   0  0  0  0  0  3  0  0  0  0  0  0
  192.8550  176.6400  138.2490 C   0  0  0  0  0  3  0  0  0  0  0  0
  193.4770  175.8460  137.2810 C   0  0  0  0  0  3  0  0  0  0  0  0
  193.4180  173.9600  135.8250 F   0  0  0  0  0  0  0  0  0  0  0  0
  191.5320  174.4030  137.2130 C   0  0  0  0  0  3  0  0  0  0  0  0
  1 21  1  0  0  0  0
  1 20  1  0  0  0  0
  2 17  1  0  0  0  0
  3 14  1  0  0  0  0
  4  9  2  0  0  0  0
  5  7  1  0  0  0  0
  6 16  1  0  0  0  0
  7  2  2  0  0  0  0
  7  4  1  0  0  0  0
  8 12  2  0  0  0  0
  9  6  1  0  0  0  0
 10 20  2  0  0  0  0
 10 14  1  0  0  0  0
 11  5  2  0  0  0  0
 12  4  1  0  0  0  0
 13 19  1  0  0  0  0
 13 15  2  0  0  0  0
 14 18  2  0  0  0  0
 15 10  1  0  0  0  0
 17  6  2  0  0  0  0
 18  5  1  0  0  0  0
 18  8  1  0  0  0  0
 19  1  2  0  0  0  0
 20 11  1  0  0  0  0
 22 21  1  0  0  0  0
 23 28  2  0  0  0  0
 23 26  1  0  0  0  0
 24 22  2  0  0  0  0
 25 22  1  0  0  0  0
 26 25  2  0  0  0  0
 27 23  1  0  0  0  0
 28 24  1  0  0  0  0
M  END
>  <MODEL>
3

>  <REMARK>
 VINA RESULT:      -9.3      2.775      3.809
  Name = 
  2 active torsions:
  status: ('A' for Active; 'I' for Inactive)
    1  A    between atoms: C_1  and  C_2
    2  A    between atoms: C_2  and  C_3
                            x       y       z     vdW  Elec       q    Type
                         _______ _______ _______ _____ _____    ______ ____

>  <TORSDO>
F 2

$$$$
=
 OpenBabel11052413303D

 28 32  0  0  0  0  0  0  0  0999 V2000
  190.1310  177.5800  139.4800 C   0  0  0  0  0  0  0  0  0  0  0  0
  191.4450  176.6380  144.2720 C   0  0  0  0  0  3  0  0  0  0  0  0
  186.0640  178.5670  141.9900 N   0  0  0  0  0  1  0  0  0  0  0  0
  189.4160  177.1350  145.4890 C   0  0  0  0  0  0  0  0  0  0  0  0
  189.4480  177.3990  143.0750 C   0  0  0  0  0  0  0  0  0  0  0  0
  191.3950  176.3850  146.6350 C   0  0  0  0  0  0  0  0  0  0  0  0
  190.1090  177.0580  144.2630 C   0  0  0  0  0  0  0  0  0  0  0  0
  187.4590  177.8740  144.3370 N   0  0  0  0  0  0  0  0  0  0  0  0
  190.0620  176.7960  146.6780 C   0  0  0  0  0  3  0  0  0  0  0  0
  188.1070  178.0730  140.7280 C   0  0  0  0  0  0  0  0  0  0  0  0
  190.0850  177.3370  141.8730 N   0  0  0  0  0  0  0  0  0  0  0  0
  188.0840  177.5480  145.5010 C   0  0  0  0  0  3  0  0  0  0  0  0
  188.1200  178.3160  138.3640 C   0  0  0  0  0  3  0  0  0  0  0  0
  187.4280  178.1500  141.9520 C   0  0  0  0  0  0  0  0  0  0  0  0
  187.4800  178.3900  139.5620 N   0  0  0  0  0  0  0  0  0  0  0  0
  192.2230  175.9560  148.1160 Cl  0  0  0  0  0  0  0  0  0  0  0  0
  192.0530  176.3140  145.4450 N   0  0  0  0  0  0  0  0  0  0  0  0
  188.0970  177.8110  143.1360 C   0  0  0  0  0  0  0  0  0  0  0  0
  189.4540  177.9080  138.3040 C   0  0  0  0  0  3  0  0  0  0  0  0
  189.4570  177.6580  140.7100 C   0  0  0  0  0  0  0  0  0  0  0  0
  191.5550  177.1260  139.3970 C   0  0  0  0  0  2  0  0  0  0  0  0
  191.7490  176.1910  138.2500 C   0  0  0  0  0  0  0  0  0  0  0  0
  192.0850  174.4610  136.0750 C   0  0  0  0  0  0  0  0  0  0  0  0
  192.8190  176.3740  137.3660 C   0  0  0  0  0  3  0  0  0  0  0  0
  190.8450  175.1420  138.0400 C   0  0  0  0  0  3  0  0  0  0  0  0
  191.0130  174.2780  136.9550 C   0  0  0  0  0  3  0  0  0  0  0  0
  192.2480  173.6220  135.0250 F   0  0  0  0  0  0  0  0  0  0  0  0
  192.9870  175.5090  136.2800 C   0  0  0  0  0  3  0  0  0  0  0  0
  1 20  1  0  0  0  0
  2 17  1  0  0  0  0
  4 12  1  0  0  0  0
  4  9  2  0  0  0  0
  5 18  1  0  0  0  0
  5  7  1  0  0  0  0
  6  9  1  0  0  0  0
  6 16  1  0  0  0  0
  7  2  2  0  0  0  0
  7  4  1  0  0  0  0
  8 12  2  0  0  0  0
 10 14  1  0  0  0  0
 11  5  2  0  0  0  0
 13 15  2  0  0  0  0
 14  3  1  0  0  0  0
 14 18  2  0  0  0  0
 15 10  1  0  0  0  0
 17  6  2  0  0  0  0
 18  8  1  0  0  0  0
 19 13  1  0  0  0  0
 19  1  2  0  0  0  0
 20 10  2  0  0  0  0
 20 11  1  0  0  0  0
 21  1  1  0  0  0  0
 22 21  1  0  0  0  0
 23 28  2  0  0  0  0
 23 26  1  0  0  0  0
 24 22  2  0  0  0  0
 25 22  1  0  0  0  0
 26 25  2  0  0  0  0
 27 23  1  0  0  0  0
 28 24  1  0  0  0  0
M  END
>  <MODEL>
4

>  <REMARK>
 VINA RESULT:      -9.1      2.483      3.137
  Name = 
  2 active torsions:
  status: ('A' for Active; 'I' for Inactive)
    1  A    between atoms: C_1  and  C_2
    2  A    between atoms: C_2  and  C_3
                            x       y       z     vdW  Elec       q    Type
                         _______ _______ _______ _____ _____    ______ ____

>  <TORSDO>
F 2

$$$$
=
 OpenBabel11052413303D

 28 32  0  0  0  0  0  0  0  0999 V2000
  187.0880  177.7900  143.5600 C   0  0  0  0  0  0  0  0  0  0  0  0
  190.2980  176.7210  139.8010 C   0  0  0  0  0  3  0  0  0  0  0  0
  184.8170  179.5140  139.6000 N   0  0  0  0  0  1  0  0  0  0  0  0
  189.1490  177.5840  137.8570 C   0  0  0  0  0  0  0  0  0  0  0  0
  188.1040  177.7850  140.0410 C   0  0  0  0  0  0  0  0  0  0  0  0
  191.3050  176.5330  137.6570 C   0  0  0  0  0  0  0  0  0  0  0  0
  189.1810  177.3610  139.2490 C   0  0  0  0  0  0  0  0  0  0  0  0
  187.0120  178.6280  138.0730 N   0  0  0  0  0  0  0  0  0  0  0  0
  190.2150  177.1690  137.0590 C   0  0  0  0  0  3  0  0  0  0  0  0
  185.9570  178.6470  141.5900 C   0  0  0  0  0  0  0  0  0  0  0  0
  188.1010  177.5880  141.3880 N   0  0  0  0  0  0  0  0  0  0  0  0
  188.0470  178.2230  137.2890 C   0  0  0  0  0  3  0  0  0  0  0  0
  184.9330  178.8670  143.7240 C   0  0  0  0  0  3  0  0  0  0  0  0
  185.9320  178.8600  140.2050 C   0  0  0  0  0  0  0  0  0  0  0  0
  184.9260  179.0600  142.3770 N   0  0  0  0  0  0  0  0  0  0  0  0
  192.6520  176.0050  136.6720 Cl  0  0  0  0  0  0  0  0  0  0  0  0
  191.3250  176.3250  139.0020 N   0  0  0  0  0  0  0  0  0  0  0  0
  187.0100  178.4300  139.4210 C   0  0  0  0  0  0  0  0  0  0  0  0
  186.0150  178.2320  144.3370 C   0  0  0  0  0  3  0  0  0  0  0  0
  187.0680  177.9990  142.1720 C   0  0  0  0  0  0  0  0  0  0  0  0
  188.2500  177.1280  144.2340 C   0  0  0  0  0  2  0  0  0  0  0  0
  188.2660  177.4410  145.6940 C   0  0  0  0  0  0  0  0  0  0  0  0
  188.2930  177.9870  148.4390 C   0  0  0  0  0  0  0  0  0  0  0  0
  189.4840  177.5940  146.3670 C   0  0  0  0  0  3  0  0  0  0  0  0
  187.0620  177.5570  146.3990 C   0  0  0  0  0  3  0  0  0  0  0  0
  187.0760  177.8310  147.7690 C   0  0  0  0  0  3  0  0  0  0  0  0
  188.3060  178.2530  149.7670 F   0  0  0  0  0  0  0  0  0  0  0  0
  189.4970  177.8680  147.7380 C   0  0  0  0  0  3  0  0  0  0  0  0
  1 21  1  0  0  0  0
  1 19  1  0  0  0  0
  3 14  1  0  0  0  0
  4  7  2  0  0  0  0
  5 11  2  0  0  0  0
  6 17  1  0  0  0  0
  7  2  1  0  0  0  0
  7  5  1  0  0  0  0
  8 18  1  0  0  0  0
  9  6  2  0  0  0  0
  9  4  1  0  0  0  0
 10 20  1  0  0  0  0
 10 15  2  0  0  0  0
 11 20  1  0  0  0  0
 12  4  1  0  0  0  0
 12  8  2  0  0  0  0
 13 19  2  0  0  0  0
 14 10  1  0  0  0  0
 15 13  1  0  0  0  0
 16  6  1  0  0  0  0
 17  2  2  0  0  0  0
 18  5  1  0  0  0  0
 18 14  2  0  0  0  0
 20  1  2  0  0  0  0
 21 22  1  0  0  0  0
 22 24  2  0  0  0  0
 22 25  1  0  0  0  0
 23 27  1  0  0  0  0
 24 28  1  0  0  0  0
 25 26  2  0  0  0  0
 26 23  1  0  0  0  0
 28 23  2  0  0  0  0
M  END
>  <MODEL>
5

>  <REMARK>
 VINA RESULT:      -9.1      4.019      7.702
  Name = 
  2 active torsions:
  status: ('A' for Active; 'I' for Inactive)
    1  A    between atoms: C_1  and  C_2
    2  A    between atoms: C_2  and  C_3
                            x       y       z     vdW  Elec       q    Type
                         _______ _______ _______ _____ _____    ______ ____

>  <TORSDO>
F 2

$$$$
=
 OpenBabel11052413303D

 28 32  0  0  0  0  0  0  0  0999 V2000
  187.6140  177.4100  143.6440 C   0  0  0  0  0  0  0  0  0  0  0  0
  182.8630  178.5830  142.3650 C   0  0  0  0  0  3  0  0  0  0  0  0
  187.9740  178.6420  138.9360 N   0  0  0  0  0  1  0  0  0  0  0  0
  183.0730  179.1880  140.0340 C   0  0  0  0  0  0  0  0  0  0  0  0
  185.0530  178.5120  141.2680 C   0  0  0  0  0  0  0  0  0  0  0  0
  180.9370  179.2470  141.1420 C   0  0  0  0  0  0  0  0  0  0  0  0
  183.6730  178.7570  141.2350 C   0  0  0  0  0  0  0  0  0  0  0  0
  185.1990  179.1210  138.9480 N   0  0  0  0  0  0  0  0  0  0  0  0
  181.7010  179.4330  139.9880 C   0  0  0  0  0  3  0  0  0  0  0  0
  187.7950  178.0240  141.3020 C   0  0  0  0  0  0  0  0  0  0  0  0
  185.6660  178.0950  142.4100 N   0  0  0  0  0  0  0  0  0  0  0  0
  183.8610  179.3640  138.8970 C   0  0  0  0  0  3  0  0  0  0  0  0
  189.7360  177.3450  142.4940 C   0  0  0  0  0  3  0  0  0  0  0  0
  187.1900  178.4570  140.1140 C   0  0  0  0  0  0  0  0  0  0  0  0
  189.1310  177.7710  141.3520 N   0  0  0  0  0  0  0  0  0  0  0  0
  179.2130  179.5490  141.1040 Cl  0  0  0  0  0  0  0  0  0  0  0  0
  181.5280  178.8290  142.2950 N   0  0  0  0  0  0  0  0  0  0  0  0
  185.8110  178.7030  140.0910 C   0  0  0  0  0  0  0  0  0  0  0  0
  188.9870  177.1550  143.6570 C   0  0  0  0  0  3  0  0  0  0  0  0
  187.0030  177.8460  142.4570 C   0  0  0  0  0  0  0  0  0  0  0  0
  186.8210  177.1830  144.8940 C   0  0  0  0  0  2  0  0  0  0  0  0
  187.6230  177.5330  146.1030 C   0  0  0  0  0  0  0  0  0  0  0  0
  189.1100  178.1580  148.3900 C   0  0  0  0  0  0  0  0  0  0  0  0
  188.9400  177.0770  146.2290 C   0  0  0  0  0  3  0  0  0  0  0  0
  187.0500  178.2990  147.1260 C   0  0  0  0  0  3  0  0  0  0  0  0
  187.7930  178.6120  148.2670 C   0  0  0  0  0  3  0  0  0  0  0  0
  189.8300  178.4620  149.4960 F   0  0  0  0  0  0  0  0  0  0  0  0
  189.6830  177.3910  147.3720 C   0  0  0  0  0  3  0  0  0  0  0  0
  1 19  1  0  0  0  0
  1 21  1  0  0  0  0
  3 14  1  0  0  0  0
  4  7  1  0  0  0  0
  5 11  2  0  0  0  0
  6 17  2  0  0  0  0
  7  5  1  0  0  0  0
  7  2  2  0  0  0  0
  8 18  1  0  0  0  0
  9  4  2  0  0  0  0
  9  6  1  0  0  0  0
 10 15  2  0  0  0  0
 10 20  1  0  0  0  0
 11 20  1  0  0  0  0
 12  8  2  0  0  0  0
 12  4  1  0  0  0  0
 13 19  2  0  0  0  0
 14 10  1  0  0  0  0
 15 13  1  0  0  0  0
 16  6  1  0  0  0  0
 17  2  1  0  0  0  0
 18 14  2  0  0  0  0
 18  5  1  0  0  0  0
 20  1  2  0  0  0  0
 21 22  1  0  0  0  0
 22 24  2  0  0  0  0
 22 25  1  0  0  0  0
 23 27  1  0  0  0  0
 24 28  1  0  0  0  0
 25 26  2  0  0  0  0
 26 23  1  0  0  0  0
 28 23  2  0  0  0  0
M  END
>  <MODEL>
6

>  <REMARK>
 VINA RESULT:      -9.0      4.670      8.578
  Name = 
  2 active torsions:
  status: ('A' for Active; 'I' for Inactive)
    1  A    between atoms: C_1  and  C_2
    2  A    between atoms: C_2  and  C_3
                            x       y       z     vdW  Elec       q    Type
                         _______ _______ _______ _____ _____    ______ ____

>  <TORSDO>
F 2

$$$$
=
 OpenBabel11052413303D

 28 32  0  0  0  0  0  0  0  0999 V2000
  184.2560  178.8380  142.8240 C   0  0  0  0  0  0  0  0  0  0  0  0
  188.6740  177.7560  140.6140 C   0  0  0  0  0  3  0  0  0  0  0  0
  187.1470  177.6610  146.5760 N   0  0  0  0  0  1  0  0  0  0  0  0
  190.0820  177.1790  142.4920 C   0  0  0  0  0  0  0  0  0  0  0  0
  187.7730  177.8180  142.8920 C   0  0  0  0  0  0  0  0  0  0  0  0
  190.9360  177.1280  140.2420 C   0  0  0  0  0  0  0  0  0  0  0  0
  188.8280  177.5900  141.9960 C   0  0  0  0  0  0  0  0  0  0  0  0
  189.2200  177.2300  144.7190 N   0  0  0  0  0  0  0  0  0  0  0  0
  191.1390  176.9470  141.6120 C   0  0  0  0  0  3  0  0  0  0  0  0
  185.6930  178.2540  144.6920 C   0  0  0  0  0  0  0  0  0  0  0  0
  186.5490  178.2160  142.4490 N   0  0  0  0  0  0  0  0  0  0  0  0
  190.2550  177.0040  143.8660 C   0  0  0  0  0  3  0  0  0  0  0  0
  183.4310  178.8590  145.0940 C   0  0  0  0  0  3  0  0  0  0  0  0
  186.9450  177.8490  145.1760 C   0  0  0  0  0  0  0  0  0  0  0  0
  184.6540  178.4710  145.5440 N   0  0  0  0  0  0  0  0  0  0  0  0
  192.2490  176.8420  139.1210 Cl  0  0  0  0  0  0  0  0  0  0  0  0
  189.7200  177.5240  139.7760 N   0  0  0  0  0  0  0  0  0  0  0  0
  187.9950  177.6270  144.2740 C   0  0  0  0  0  0  0  0  0  0  0  0
  183.2110  179.0460  143.7270 C   0  0  0  0  0  3  0  0  0  0  0  0
  185.5130  178.4350  143.3030 C   0  0  0  0  0  0  0  0  0  0  0  0
  184.0000  179.0250  141.3610 C   0  0  0  0  0  2  0  0  0  0  0  0
  182.8400  178.1970  140.9150 C   0  0  0  0  0  0  0  0  0  0  0  0
  180.6630  176.6690  140.0440 C   0  0  0  0  0  0  0  0  0  0  0  0
  183.0560  177.0020  140.2180 C   0  0  0  0  0  3  0  0  0  0  0  0
  181.5330  178.6280  141.1710 C   0  0  0  0  0  3  0  0  0  0  0  0
  180.4460  177.8640  140.7370 C   0  0  0  0  0  3  0  0  0  0  0  0
  179.6090  175.9290  139.6250 F   0  0  0  0  0  0  0  0  0  0  0  0
  181.9670  176.2390  139.7840 C   0  0  0  0  0  3  0  0  0  0  0  0
  1 20  2  0  0  0  0
  1 19  1  0  0  0  0
  2  7  1  0  0  0  0
  4 12  1  0  0  0  0
  5 18  1  0  0  0  0
  6  9  2  0  0  0  0
  7  4  2  0  0  0  0
  7  5  1  0  0  0  0
  9  4  1  0  0  0  0
 10 14  1  0  0  0  0
 10 15  2  0  0  0  0
 11  5  2  0  0  0  0
 11 20  1  0  0  0  0
 12  8  2  0  0  0  0
 13 15  1  0  0  0  0
 14  3  1  0  0  0  0
 16  6  1  0  0  0  0
 17  6  1  0  0  0  0
 17  2  2  0  0  0  0
 18  8  1  0  0  0  0
 18 14  2  0  0  0  0
 19 13  2  0  0  0  0
 20 10  1  0  0  0  0
 21  1  1  0  0  0  0
 22 25  1  0  0  0  0
 22 21  1  0  0  0  0
 23 26  1  0  0  0  0
 24 22  2  0  0  0  0
 26 25  2  0  0  0  0
 27 23  1  0  0  0  0
 28 23  2  0  0  0  0
 28 24  1  0  0  0  0
M  END
>  <MODEL>
7

>  <REMARK>
 VINA RESULT:      -8.9      3.525      5.565
  Name = 
  2 active torsions:
  status: ('A' for Active; 'I' for Inactive)
    1  A    between atoms: C_1  and  C_2
    2  A    between atoms: C_2  and  C_3
                            x       y       z     vdW  Elec       q    Type
                         _______ _______ _______ _____ _____    ______ ____

>  <TORSDO>
F 2

$$$$
=
 OpenBabel11052413303D

 28 32  0  0  0  0  0  0  0  0999 V2000
  183.2880  178.5860  141.6220 C   0  0  0  0  0  0  0  0  0  0  0  0
  188.2520  177.6530  141.8810 C   0  0  0  0  0  3  0  0  0  0  0  0
  184.2070  178.6420  146.4140 N   0  0  0  0  0  1  0  0  0  0  0  0
  188.6770  177.6880  144.2600 C   0  0  0  0  0  0  0  0  0  0  0  0
  186.4210  178.0840  143.4510 C   0  0  0  0  0  0  0  0  0  0  0  0
  190.4520  177.2680  142.6910 C   0  0  0  0  0  0  0  0  0  0  0  0
  187.7710  177.8110  143.1870 C   0  0  0  0  0  0  0  0  0  0  0  0
  186.9030  178.1020  145.8060 N   0  0  0  0  0  0  0  0  0  0  0  0
  190.0220  177.4150  144.0110 C   0  0  0  0  0  3  0  0  0  0  0  0
  183.7440  178.6150  144.0060 C   0  0  0  0  0  0  0  0  0  0  0  0
  185.5180  178.2090  142.4410 N   0  0  0  0  0  0  0  0  0  0  0  0
  188.2170  177.8380  145.5690 C   0  0  0  0  0  3  0  0  0  0  0  0
  181.5290  178.9840  143.2280 C   0  0  0  0  0  3  0  0  0  0  0  0
  184.6530  178.4950  145.0660 C   0  0  0  0  0  0  0  0  0  0  0  0
  182.4280  178.8700  144.2420 N   0  0  0  0  0  0  0  0  0  0  0  0
  192.1360  176.9250  142.3570 Cl  0  0  0  0  0  0  0  0  0  0  0  0
  189.5680  177.3880  141.6630 N   0  0  0  0  0  0  0  0  0  0  0  0
  186.0010  178.2270  144.7930 C   0  0  0  0  0  0  0  0  0  0  0  0
  181.9440  178.8420  141.9020 C   0  0  0  0  0  3  0  0  0  0  0  0
  184.2030  178.4670  142.6800 C   0  0  0  0  0  0  0  0  0  0  0  0
  183.7130  178.4160  140.1960 C   0  0  0  0  0  2  0  0  0  0  0  0
  182.7180  177.6020  139.4380 C   0  0  0  0  0  0  0  0  0  0  0  0
  180.8800  176.0710  137.9850 C   0  0  0  0  0  0  0  0  0  0  0  0
  182.6250  176.2230  139.6580 C   0  0  0  0  0  3  0  0  0  0  0  0
  181.8930  178.2130  138.4860 C   0  0  0  0  0  3  0  0  0  0  0  0
  180.9750  177.4490  137.7610 C   0  0  0  0  0  3  0  0  0  0  0  0
  179.9890  175.3320  137.2820 F   0  0  0  0  0  0  0  0  0  0  0  0
  181.7050  175.4580  138.9320 C   0  0  0  0  0  3  0  0  0  0  0  0
  1 19  2  0  0  0  0
  1 20  1  0  0  0  0
  2  7  1  0  0  0  0
  4 12  1  0  0  0  0
  5 18  1  0  0  0  0
  6  9  2  0  0  0  0
  7  5  1  0  0  0  0
  7  4  2  0  0  0  0
  9  4  1  0  0  0  0
 10 15  1  0  0  0  0
 10 14  1  0  0  0  0
 11 20  1  0  0  0  0
 11  5  2  0  0  0  0
 12  8  2  0  0  0  0
 13 15  2  0  0  0  0
 14  3  1  0  0  0  0
 16  6  1  0  0  0  0
 17  2  2  0  0  0  0
 17  6  1  0  0  0  0
 18 14  2  0  0  0  0
 18  8  1  0  0  0  0
 19 13  1  0  0  0  0
 20 10  2  0  0  0  0
 21  1  1  0  0  0  0
 22 24  1  0  0  0  0
 22 21  1  0  0  0  0
 23 28  1  0  0  0  0
 25 22  2  0  0  0  0
 26 23  2  0  0  0  0
 26 25  1  0  0  0  0
 27 23  1  0  0  0  0
 28 24  2  0  0  0  0
M  END
>  <MODEL>
8

>  <REMARK>
 VINA RESULT:      -8.8      3.408      4.799
  Name = 
  2 active torsions:
  status: ('A' for Active; 'I' for Inactive)
    1  A    between atoms: C_1  and  C_2
    2  A    between atoms: C_2  and  C_3
                            x       y       z     vdW  Elec       q    Type
                         _______ _______ _______ _____ _____    ______ ____

>  <TORSDO>
F 2

$$$$
=
 OpenBabel11052413303D

 28 32  0  0  0  0  0  0  0  0999 V2000
  184.9520  178.6150  140.2360 C   0  0  0  0  0  0  0  0  0  0  0  0
  186.5130  178.0080  145.0080 C   0  0  0  0  0  3  0  0  0  0  0  0
  189.7390  177.7910  139.7710 N   0  0  0  0  0  1  0  0  0  0  0  0
  188.8810  177.6020  144.7470 C   0  0  0  0  0  0  0  0  0  0  0  0
  187.5160  177.9760  142.7730 C   0  0  0  0  0  0  0  0  0  0  0  0
  187.8650  177.6410  146.9280 C   0  0  0  0  0  0  0  0  0  0  0  0
  187.6230  177.8640  144.1670 C   0  0  0  0  0  0  0  0  0  0  0  0
  189.8770  177.5710  142.5750 N   0  0  0  0  0  0  0  0  0  0  0  0
  189.0020  177.4900  146.1320 C   0  0  0  0  0  3  0  0  0  0  0  0
  187.3330  178.2040  140.0030 C   0  0  0  0  0  0  0  0  0  0  0  0
  186.3180  178.2290  142.1780 N   0  0  0  0  0  0  0  0  0  0  0  0
  190.0000  177.4590  143.9260 C   0  0  0  0  0  3  0  0  0  0  0  0
  186.0110  178.5880  138.0660 C   0  0  0  0  0  3  0  0  0  0  0  0
  188.5790  177.9390  140.5880 C   0  0  0  0  0  0  0  0  0  0  0  0
  187.2100  178.3260  138.6530 N   0  0  0  0  0  0  0  0  0  0  0  0
  187.9950  177.5040  148.6680 Cl  0  0  0  0  0  0  0  0  0  0  0  0
  186.6560  177.8950  146.3560 N   0  0  0  0  0  0  0  0  0  0  0  0
  188.6770  177.8250  141.9820 C   0  0  0  0  0  0  0  0  0  0  0  0
  184.8640  178.7390  138.8480 C   0  0  0  0  0  3  0  0  0  0  0  0
  186.1970  178.3480  140.8280 C   0  0  0  0  0  0  0  0  0  0  0  0
  183.7160  178.7990  141.0620 C   0  0  0  0  0  2  0  0  0  0  0  0
  182.5710  178.0370  140.4820 C   0  0  0  0  0  0  0  0  0  0  0  0
  180.4150  176.5940  139.4320 C   0  0  0  0  0  0  0  0  0  0  0  0
  181.3250  178.6540  140.3230 C   0  0  0  0  0  3  0  0  0  0  0  0
  182.7350  176.6950  140.1190 C   0  0  0  0  0  3  0  0  0  0  0  0
  181.6590  175.9750  139.5940 C   0  0  0  0  0  3  0  0  0  0  0  0
  179.3730  175.8950  138.9230 F   0  0  0  0  0  0  0  0  0  0  0  0
  180.2480  177.9320  139.7980 C   0  0  0  0  0  3  0  0  0  0  0  0
  1 20  1  0  0  0  0
  1 21  1  0  0  0  0
  2 17  1  0  0  0  0
  3 14  1  0  0  0  0
  4  9  2  0  0  0  0
  5  7  1  0  0  0  0
  6 16  1  0  0  0  0
  7  4  1  0  0  0  0
  7  2  2  0  0  0  0
  8 12  2  0  0  0  0
  9  6  1  0  0  0  0
 10 14  2  0  0  0  0
 10 20  1  0  0  0  0
 11  5  1  0  0  0  0
 12  4  1  0  0  0  0
 13 15  2  0  0  0  0
 13 19  1  0  0  0  0
 14 18  1  0  0  0  0
 15 10  1  0  0  0  0
 17  6  2  0  0  0  0
 18  8  1  0  0  0  0
 18  5  2  0  0  0  0
 19  1  2  0  0  0  0
 20 11  2  0  0  0  0
 22 21  1  0  0  0  0
 23 26  2  0  0  0  0
 23 28  1  0  0  0  0
 24 22  1  0  0  0  0
 25 22  2  0  0  0  0
 26 25  1  0  0  0  0
 27 23  1  0  0  0  0
 28 24  2  0  0  0  0
M  END
>  <MODEL>
9

>  <REMARK>
 VINA RESULT:      -8.8      3.260      5.295
  Name = 
  2 active torsions:
  status: ('A' for Active; 'I' for Inactive)
    1  A    between atoms: C_1  and  C_2
    2  A    between atoms: C_2  and  C_3
                            x       y       z     vdW  Elec       q    Type
                         _______ _______ _______ _____ _____    ______ ____

>  <TORSDO>
F 2

$$$$
