=
 OpenBabel11052413133D

 31 35  0  0  1  0  0  0  0  0999 V2000
  185.2530  178.2540  144.3330 C   0  0  2  0  0  3  0  0  0  0  0  0
  188.8890  177.4740  143.3570 C   0  0  0  0  0  0  0  0  0  0  0  0
  189.5360  177.1050  144.6850 C   0  0  2  0  0  3  0  0  0  0  0  0
  189.1870  177.7470  147.1450 C   0  0  0  0  0  2  0  0  0  0  0  0
  187.5100  177.7690  143.2590 C   0  0  0  0  0  0  0  0  0  0  0  0
  184.6470  178.0420  142.9480 C   0  0  0  0  0  2  0  0  0  0  0  0
  189.3070  178.2330  145.6930 C   0  0  0  0  0  2  0  0  0  0  0  0
  189.1200  177.9440  140.9860 C   0  0  0  0  0  0  0  0  0  0  0  0
  185.3860  179.7310  144.6710 C   0  0  0  0  0  1  0  0  0  0  0  0
  191.4370  176.2410  143.3250 N   0  0  0  0  0  2  0  0  0  0  0  0
  189.9280  176.5150  147.4190 N   0  0  0  0  0  2  0  0  0  0  0  0
  187.8020  178.2610  140.9280 N   0  0  0  0  0  0  0  0  0  0  0  0
  189.6770  177.5130  142.1970 C   0  0  0  0  0  0  0  0  0  0  0  0
  186.5980  177.5410  144.4430 C   0  0  0  0  0  2  0  0  0  0  0  0
  191.3340  176.7050  147.0900 C   0  0  0  0  0  2  0  0  0  0  0  0
  186.9840  178.1650  142.0080 C   0  0  0  0  0  0  0  0  0  0  0  0
  185.5540  178.6010  141.8550 C   0  0  0  0  0  2  0  0  0  0  0  0
  191.0300  177.0660  142.2670 N   0  0  0  0  0  2  0  0  0  0  0  0
  191.0680  176.8930  144.5780 C   0  0  2  0  0  3  0  0  0  0  0  0
  191.6190  176.0660  145.7380 C   0  0  0  0  0  2  0  0  0  0  0  0
  189.9390  178.0020  139.7360 C   0  0  0  0  0  2  0  0  0  0  0  0
  188.8860  179.3850  138.1250 O   0  0  0  0  0  0  0  0  0  0  0  0
  189.0580  178.2090  138.5440 C   0  0  0  0  0  0  0  0  0  0  0  0
  187.2610  174.8170  136.6040 C   0  0  0  0  0  0  0  0  0  0  0  0
  189.1840  175.9450  137.5320 C   0  0  0  0  0  3  0  0  0  0  0  0
  186.0880  178.1440  137.9220 C   0  0  0  0  0  1  0  0  0  0  0  0
  186.5540  173.4250  135.8150 Cl  0  0  0  0  0  0  0  0  0  0  0  0
  188.6230  174.8330  136.9020 C   0  0  0  0  0  3  0  0  0  0  0  0
  187.0140  177.0290  137.5710 C   0  0  0  0  0  0  0  0  0  0  0  0
  188.3990  177.0570  137.8780 C   0  0  0  0  0  0  0  0  0  0  0  0
  186.4620  175.9100  136.9400 C   0  0  0  0  0  3  0  0  0  0  0  0
  1 14  1  0  0  0  0
  1  9  1  6  0  0  0
  2  3  1  0  0  0  0
  3  7  1  1  0  0  0
  4 11  1  0  0  0  0
  5  2  1  0  0  0  0
  5 14  1  0  0  0  0
  6  1  1  0  0  0  0
  7  4  1  0  0  0  0
  8 13  1  0  0  0  0
 10 19  1  0  0  0  0
 12  8  2  0  0  0  0
 12 16  1  0  0  0  0
 13 18  1  0  0  0  0
 13  2  2  0  0  0  0
 15 11  1  0  0  0  0
 16  5  2  0  0  0  0
 17 16  1  0  0  0  0
 17  6  1  0  0  0  0
 18 10  1  0  0  0  0
 19  3  1  0  0  0  0
 19 20  1  1  0  0  0
 20 15  1  0  0  0  0
 21  8  1  0  0  0  0
 22 23  2  0  0  0  0
 23 21  1  0  0  0  0
 24 28  2  0  0  0  0
 24 31  1  0  0  0  0
 25 30  2  0  0  0  0
 27 24  1  0  0  0  0
 28 25  1  0  0  0  0
 29 30  1  0  0  0  0
 29 26  1  0  0  0  0
 30 23  1  0  0  0  0
 31 29  2  0  0  0  0
M  END
>  <MODEL>
1

>  <REMARK>
 VINA RESULT:     -10.0      0.000      0.000
  Name = 
  3 active torsions:
  status: ('A' for Active; 'I' for Inactive)
    1  A    between atoms: C_9  and  C_22
    2  A    between atoms: C_9  and  C_23
    3  A    between atoms: C_15  and  C_23
                            x       y       z     vdW  Elec       q    Type
                         _______ _______ _______ _____ _____    ______ ____

>  <TORSDO>
F 3

$$$$
=
 OpenBabel11052413133D

 31 35  0  0  1  0  0  0  0  0999 V2000
  184.2570  178.4190  138.3500 C   0  0  2  0  0  3  0  0  0  0  0  0
  187.9680  177.5630  138.8780 C   0  0  0  0  0  0  0  0  0  0  0  0
  188.3840  176.9690  137.5400 C   0  0  2  0  0  3  0  0  0  0  0  0
  187.2220  175.6500  135.6700 C   0  0  0  0  0  2  0  0  0  0  0  0
  186.6700  178.0810  139.0910 C   0  0  0  0  0  0  0  0  0  0  0  0
  184.1530  179.4560  139.4640 C   0  0  0  0  0  2  0  0  0  0  0  0
  187.4440  175.8170  137.1810 C   0  0  0  0  0  2  0  0  0  0  0  0
  188.5050  178.0640  141.1930 C   0  0  0  0  0  0  0  0  0  0  0  0
  183.6260  177.0940  138.7490 C   0  0  0  0  0  1  0  0  0  0  0  0
  190.7280  177.2150  138.3500 N   0  0  0  0  0  2  0  0  0  0  0  0
  188.3540  176.0930  134.8550 N   0  0  0  0  0  2  0  0  0  0  0  0
  187.2400  178.5170  141.3810 N   0  0  0  0  0  0  0  0  0  0  0  0
  188.8990  177.6100  139.9280 C   0  0  0  0  0  0  0  0  0  0  0  0
  185.7130  178.2300  137.9300 C   0  0  0  0  0  2  0  0  0  0  0  0
  189.5550  175.3700  135.2480 C   0  0  0  0  0  2  0  0  0  0  0  0
  186.3280  178.5620  140.3750 C   0  0  0  0  0  0  0  0  0  0  0  0
  184.9350  179.0210  140.7010 C   0  0  0  0  0  2  0  0  0  0  0  0
  190.2500  177.2320  139.6690 N   0  0  0  0  0  2  0  0  0  0  0  0
  189.8240  176.3940  137.5500 C   0  0  2  0  0  3  0  0  0  0  0  0
  190.4030  176.2640  136.1420 C   0  0  0  0  0  2  0  0  0  0  0  0
  189.4750  178.1180  142.3310 C   0  0  0  0  0  2  0  0  0  0  0  0
  189.2650  175.8020  142.7900 O   0  0  0  0  0  0  0  0  0  0  0  0
  189.2490  176.9690  143.2640 C   0  0  0  0  0  0  0  0  0  0  0  0
  188.4260  177.6760  147.4260 C   0  0  0  0  0  0  0  0  0  0  0  0
  187.7020  177.5220  145.1270 C   0  0  0  0  0  3  0  0  0  0  0  0
  191.4370  176.7650  145.3560 C   0  0  0  0  0  1  0  0  0  0  0  0
  188.0650  177.9670  149.1130 Cl  0  0  0  0  0  0  0  0  0  0  0  0
  187.4120  177.7550  146.4720 C   0  0  0  0  0  3  0  0  0  0  0  0
  190.0290  177.1240  145.6900 C   0  0  0  0  0  0  0  0  0  0  0  0
  189.0050  177.2040  144.7110 C   0  0  0  0  0  0  0  0  0  0  0  0
  189.7270  177.3600  147.0350 C   0  0  0  0  0  3  0  0  0  0  0  0
  1  9  1  1  0  0  0
  1  6  1  0  0  0  0
  2  5  2  0  0  0  0
  2 13  1  0  0  0  0
  3  7  1  1  0  0  0
  3 19  1  0  0  0  0
  3  2  1  0  0  0  0
  4  7  1  0  0  0  0
  5 16  1  0  0  0  0
  6 17  1  0  0  0  0
  8 12  1  0  0  0  0
  8 21  1  0  0  0  0
 10 18  1  0  0  0  0
 11 15  1  0  0  0  0
 11  4  1  0  0  0  0
 13  8  2  0  0  0  0
 14  1  1  0  0  0  0
 14  5  1  0  0  0  0
 15 20  1  0  0  0  0
 16 17  1  0  0  0  0
 16 12  2  0  0  0  0
 18 13  1  0  0  0  0
 19 20  1  6  0  0  0
 19 10  1  0  0  0  0
 21 23  1  0  0  0  0
 22 23  2  0  0  0  0
 23 30  1  0  0  0  0
 24 27  1  0  0  0  0
 25 28  1  0  0  0  0
 26 29  1  0  0  0  0
 28 24  2  0  0  0  0
 29 31  2  0  0  0  0
 30 25  2  0  0  0  0
 30 29  1  0  0  0  0
 31 24  1  0  0  0  0
M  END
>  <MODEL>
2

>  <REMARK>
 VINA RESULT:      -9.9      3.401      7.678
  Name = 
  3 active torsions:
  status: ('A' for Active; 'I' for Inactive)
    1  A    between atoms: C_9  and  C_22
    2  A    between atoms: C_9  and  C_23
    3  A    between atoms: C_15  and  C_23
                            x       y       z     vdW  Elec       q    Type
                         _______ _______ _______ _____ _____    ______ ____

>  <TORSDO>
F 3

$$$$
=
 OpenBabel11052413133D

 31 35  0  0  1  0  0  0  0  0999 V2000
  187.1840  177.5520  136.5600 C   0  0  2  0  0  3  0  0  0  0  0  0
  190.5390  177.0260  138.3630 C   0  0  0  0  0  0  0  0  0  0  0  0
  191.4640  176.5540  137.2490 C   0  0  2  0  0  3  0  0  0  0  0  0
  191.1910  175.2420  135.0600 C   0  0  0  0  0  2  0  0  0  0  0  0
  189.2010  177.4040  138.1080 C   0  0  0  0  0  0  0  0  0  0  0  0
  186.5790  178.5070  137.5850 C   0  0  0  0  0  2  0  0  0  0  0  0
  190.8450  175.3400  136.5540 C   0  0  0  0  0  2  0  0  0  0  0  0
  190.1650  177.4390  140.7260 C   0  0  0  0  0  0  0  0  0  0  0  0
  186.6030  176.1520  136.6800 C   0  0  0  0  0  1  0  0  0  0  0  0
  193.3280  176.9760  138.8490 N   0  0  0  0  0  2  0  0  0  0  0  0
  192.4810  175.8390  134.7130 N   0  0  0  0  0  2  0  0  0  0  0  0
  188.8740  177.7570  140.4590 N   0  0  0  0  0  0  0  0  0  0  0  0
  191.0280  177.1000  139.6760 C   0  0  0  0  0  0  0  0  0  0  0  0
  188.7050  177.5290  136.6850 C   0  0  0  0  0  2  0  0  0  0  0  0
  193.5380  175.2130  135.4950 C   0  0  0  0  0  2  0  0  0  0  0  0
  188.3770  177.7730  139.1940 C   0  0  0  0  0  0  0  0  0  0  0  0
  186.9170  178.0770  139.0110 C   0  0  0  0  0  2  0  0  0  0  0  0
  192.4160  176.8690  139.9090 N   0  0  0  0  0  2  0  0  0  0  0  0
  192.8620  176.1210  137.7610 C   0  0  2  0  0  3  0  0  0  0  0  0
  193.9120  176.1300  136.6510 C   0  0  0  0  0  2  0  0  0  0  0  0
  190.6580  177.5180  142.1360 C   0  0  0  0  0  2  0  0  0  0  0  0
  190.2030  175.3000  142.8360 O   0  0  0  0  0  0  0  0  0  0  0  0
  189.9440  176.5230  142.9950 C   0  0  0  0  0  0  0  0  0  0  0  0
  186.9790  177.8130  145.8330 C   0  0  0  0  0  0  0  0  0  0  0  0
  187.6110  177.1180  143.6070 C   0  0  0  0  0  3  0  0  0  0  0  0
  190.6760  177.0950  145.8850 C   0  0  0  0  0  1  0  0  0  0  0  0
  185.7550  178.3360  146.9670 Cl  0  0  0  0  0  0  0  0  0  0  0  0
  186.6330  177.5350  144.5100 C   0  0  0  0  0  3  0  0  0  0  0  0
  189.2910  177.2520  145.3540 C   0  0  0  0  0  0  0  0  0  0  0  0
  188.9500  176.9680  144.0060 C   0  0  0  0  0  0  0  0  0  0  0  0
  188.3020  177.6690  146.2510 C   0  0  0  0  0  3  0  0  0  0  0  0
  1  9  1  1  0  0  0
  1 14  1  0  0  0  0
  1  6  1  0  0  0  0
  2 13  1  0  0  0  0
  3  7  1  1  0  0  0
  3 19  1  0  0  0  0
  3  2  1  0  0  0  0
  4  7  1  0  0  0  0
  5  2  2  0  0  0  0
  5 16  1  0  0  0  0
  6 17  1  0  0  0  0
  8 21  1  0  0  0  0
 10 18  1  0  0  0  0
 11  4  1  0  0  0  0
 11 15  1  0  0  0  0
 12  8  1  0  0  0  0
 13 18  1  0  0  0  0
 13  8  2  0  0  0  0
 14  5  1  0  0  0  0
 15 20  1  0  0  0  0
 16 12  2  0  0  0  0
 17 16  1  0  0  0  0
 19 20  1  6  0  0  0
 19 10  1  0  0  0  0
 21 23  1  0  0  0  0
 22 23  2  0  0  0  0
 23 30  1  0  0  0  0
 24 31  1  0  0  0  0
 24 27  1  0  0  0  0
 25 30  2  0  0  0  0
 25 28  1  0  0  0  0
 28 24  2  0  0  0  0
 29 26  1  0  0  0  0
 29 31  2  0  0  0  0
 30 29  1  0  0  0  0
M  END
>  <MODEL>
3

>  <REMARK>
 VINA RESULT:      -9.9      3.505      7.673
  Name = 
  3 active torsions:
  status: ('A' for Active; 'I' for Inactive)
    1  A    between atoms: C_9  and  C_22
    2  A    between atoms: C_9  and  C_23
    3  A    between atoms: C_15  and  C_23
                            x       y       z     vdW  Elec       q    Type
                         _______ _______ _______ _____ _____    ______ ____

>  <TORSDO>
F 3

$$$$
=
 OpenBabel11052413133D

 31 35  0  0  1  0  0  0  0  0999 V2000
  183.0260  178.4140  139.6860 C   0  0  2  0  0  3  0  0  0  0  0  0
  186.8430  178.2530  139.2590 C   0  0  0  0  0  0  0  0  0  0  0  0
  187.0200  178.0950  137.7550 C   0  0  2  0  0  3  0  0  0  0  0  0
  185.6690  177.0470  135.8410 C   0  0  0  0  0  2  0  0  0  0  0  0
  185.5670  178.4220  139.8440 C   0  0  0  0  0  0  0  0  0  0  0  0
  183.0270  179.1100  141.0440 C   0  0  0  0  0  2  0  0  0  0  0  0
  186.2100  176.8910  137.2710 C   0  0  0  0  0  2  0  0  0  0  0  0
  187.8240  178.2880  141.4800 C   0  0  0  0  0  0  0  0  0  0  0  0
  182.7150  176.9300  139.8120 C   0  0  0  0  0  1  0  0  0  0  0  0
  189.4220  178.6260  138.1530 N   0  0  0  0  0  2  0  0  0  0  0  0
  186.4980  177.8980  134.9870 N   0  0  0  0  0  2  0  0  0  0  0  0
  186.5840  178.4080  142.0170 N   0  0  0  0  0  0  0  0  0  0  0  0
  187.9750  178.2410  140.0880 C   0  0  0  0  0  0  0  0  0  0  0  0
  184.3540  178.6400  138.9690 C   0  0  0  0  0  2  0  0  0  0  0  0
  187.8530  177.3700  134.9340 C   0  0  0  0  0  2  0  0  0  0  0  0
  185.4660  178.5000  141.2510 C   0  0  0  0  0  0  0  0  0  0  0  0
  184.1340  178.5660  141.9440 C   0  0  0  0  0  2  0  0  0  0  0  0
  189.2700  178.2270  139.4890 N   0  0  0  0  0  2  0  0  0  0  0  0
  188.4930  177.8490  137.3380 C   0  0  2  0  0  3  0  0  0  0  0  0
  188.7400  178.1820  135.8670 C   0  0  0  0  0  2  0  0  0  0  0  0
  189.0130  178.2710  142.3880 C   0  0  0  0  0  2  0  0  0  0  0  0
  189.0680  175.9390  142.8090 O   0  0  0  0  0  0  0  0  0  0  0  0
  188.9500  177.0910  143.3060 C   0  0  0  0  0  0  0  0  0  0  0  0
  188.2450  177.6480  147.5130 C   0  0  0  0  0  0  0  0  0  0  0  0
  187.4460  177.5090  145.2380 C   0  0  0  0  0  3  0  0  0  0  0  0
  191.2230  176.9600  145.3130 C   0  0  0  0  0  1  0  0  0  0  0  0
  187.9310  177.8780  149.2180 Cl  0  0  0  0  0  0  0  0  0  0  0  0
  187.1930  177.6920  146.5980 C   0  0  0  0  0  3  0  0  0  0  0  0
  189.8110  177.2310  145.7060 C   0  0  0  0  0  0  0  0  0  0  0  0
  188.7480  177.2760  144.7670 C   0  0  0  0  0  0  0  0  0  0  0  0
  189.5460  177.4160  147.0670 C   0  0  0  0  0  3  0  0  0  0  0  0
  1  9  1  1  0  0  0
  1  6  1  0  0  0  0
  2  5  2  0  0  0  0
  2 13  1  0  0  0  0
  3  7  1  1  0  0  0
  3  2  1  0  0  0  0
  4  7  1  0  0  0  0
  5 16  1  0  0  0  0
  6 17  1  0  0  0  0
  8 12  1  0  0  0  0
  8 21  1  0  0  0  0
 10 18  1  0  0  0  0
 11  4  1  0  0  0  0
 13  8  2  0  0  0  0
 14  1  1  0  0  0  0
 14  5  1  0  0  0  0
 15 11  1  0  0  0  0
 15 20  1  0  0  0  0
 16 17  1  0  0  0  0
 16 12  2  0  0  0  0
 18 13  1  0  0  0  0
 19 20  1  6  0  0  0
 19  3  1  0  0  0  0
 19 10  1  0  0  0  0
 21 23  1  0  0  0  0
 22 23  2  0  0  0  0
 23 30  1  0  0  0  0
 24 27  1  0  0  0  0
 25 28  1  0  0  0  0
 26 29  1  0  0  0  0
 28 24  2  0  0  0  0
 29 31  2  0  0  0  0
 30 25  2  0  0  0  0
 30 29  1  0  0  0  0
 31 24  1  0  0  0  0
M  END
>  <MODEL>
4

>  <REMARK>
 VINA RESULT:      -9.8      3.497      7.771
  Name = 
  3 active torsions:
  status: ('A' for Active; 'I' for Inactive)
    1  A    between atoms: C_9  and  C_22
    2  A    between atoms: C_9  and  C_23
    3  A    between atoms: C_15  and  C_23
                            x       y       z     vdW  Elec       q    Type
                         _______ _______ _______ _____ _____    ______ ____

>  <TORSDO>
F 3

$$$$
=
 OpenBabel11052413133D

 31 35  0  0  1  0  0  0  0  0999 V2000
  185.1200  178.3410  144.3720 C   0  0  2  0  0  3  0  0  0  0  0  0
  188.5620  177.6650  142.7980 C   0  0  0  0  0  0  0  0  0  0  0  0
  189.4020  177.2000  143.9810 C   0  0  2  0  0  3  0  0  0  0  0  0
  189.4330  177.6510  146.5070 C   0  0  0  0  0  2  0  0  0  0  0  0
  187.1850  177.9560  142.9330 C   0  0  0  0  0  0  0  0  0  0  0  0
  184.3100  178.2300  143.0830 C   0  0  0  0  0  2  0  0  0  0  0  0
  189.3340  178.2470  145.0950 C   0  0  0  0  0  2  0  0  0  0  0  0
  188.4330  178.3160  140.4630 C   0  0  0  0  0  0  0  0  0  0  0  0
  185.3090  179.7890  144.7980 C   0  0  0  0  0  1  0  0  0  0  0  0
  191.0710  176.4570  142.2860 N   0  0  0  0  0  2  0  0  0  0  0  0
  190.2030  176.4070  146.5700 N   0  0  0  0  0  2  0  0  0  0  0  0
  187.1230  178.6270  140.6300 N   0  0  0  0  0  0  0  0  0  0  0  0
  189.1650  177.7980  141.5390 C   0  0  0  0  0  0  0  0  0  0  0  0
  186.4630  177.6320  144.2210 C   0  0  0  0  0  2  0  0  0  0  0  0
  191.5430  176.6320  146.0480 C   0  0  0  0  0  2  0  0  0  0  0  0
  186.4780  178.4420  141.8110 C   0  0  0  0  0  0  0  0  0  0  0  0
  185.0430  178.8780  141.9110 C   0  0  0  0  0  2  0  0  0  0  0  0
  190.5120  177.3580  141.3680 N   0  0  0  0  0  2  0  0  0  0  0  0
  190.8990  177.0090  143.6270 C   0  0  2  0  0  3  0  0  0  0  0  0
  191.6170  176.1010  144.6230 C   0  0  0  0  0  2  0  0  0  0  0  0
  189.0530  178.4750  139.1110 C   0  0  0  0  0  2  0  0  0  0  0  0
  187.6120  176.8400  138.1780 O   0  0  0  0  0  0  0  0  0  0  0  0
  188.7960  177.2620  138.2730 C   0  0  0  0  0  0  0  0  0  0  0  0
  192.0670  175.2140  136.3720 C   0  0  0  0  0  0  0  0  0  0  0  0
  190.7760  175.7630  138.3390 C   0  0  0  0  0  3  0  0  0  0  0  0
  189.2720  177.4930  135.2850 C   0  0  0  0  0  1  0  0  0  0  0  0
  193.4040  174.3710  135.6230 Cl  0  0  0  0  0  0  0  0  0  0  0  0
  191.8430  175.0900  137.7440 C   0  0  0  0  0  3  0  0  0  0  0  0
  190.1470  176.6870  136.1840 C   0  0  0  0  0  0  0  0  0  0  0  0
  189.9120  176.5690  137.5790 C   0  0  0  0  0  0  0  0  0  0  0  0
  191.2200  176.0080  135.5980 C   0  0  0  0  0  3  0  0  0  0  0  0
  1  9  1  6  0  0  0
  2  5  1  0  0  0  0
  2  3  1  0  0  0  0
  3  7  1  1  0  0  0
  4 11  1  0  0  0  0
  5 14  1  0  0  0  0
  6  1  1  0  0  0  0
  7  4  1  0  0  0  0
  8 12  2  0  0  0  0
  8 13  1  0  0  0  0
 10 19  1  0  0  0  0
 12 16  1  0  0  0  0
 13  2  2  0  0  0  0
 14  1  1  0  0  0  0
 15 11  1  0  0  0  0
 16 17  1  0  0  0  0
 16  5  2  0  0  0  0
 17  6  1  0  0  0  0
 18 13  1  0  0  0  0
 18 10  1  0  0  0  0
 19  3  1  0  0  0  0
 19 20  1  1  0  0  0
 20 15  1  0  0  0  0
 21  8  1  0  0  0  0
 22 23  2  0  0  0  0
 23 21  1  0  0  0  0
 24 28  1  0  0  0  0
 26 29  1  0  0  0  0
 27 24  1  0  0  0  0
 28 25  2  0  0  0  0
 29 30  2  0  0  0  0
 30 23  1  0  0  0  0
 30 25  1  0  0  0  0
 31 29  1  0  0  0  0
 31 24  2  0  0  0  0
M  END
>  <MODEL>
5

>  <REMARK>
 VINA RESULT:      -9.6      1.859      2.303
  Name = 
  3 active torsions:
  status: ('A' for Active; 'I' for Inactive)
    1  A    between atoms: C_9  and  C_22
    2  A    between atoms: C_9  and  C_23
    3  A    between atoms: C_15  and  C_23
                            x       y       z     vdW  Elec       q    Type
                         _______ _______ _______ _____ _____    ______ ____

>  <TORSDO>
F 3

$$$$
=
 OpenBabel11052413133D

 31 35  0  0  1  0  0  0  0  0999 V2000
  182.9550  178.5880  139.0460 C   0  0  2  0  0  3  0  0  0  0  0  0
  186.7850  178.2530  138.9990 C   0  0  0  0  0  0  0  0  0  0  0  0
  187.0990  178.0330  137.5250 C   0  0  2  0  0  3  0  0  0  0  0  0
  185.8920  176.9720  135.5230 C   0  0  0  0  0  2  0  0  0  0  0  0
  185.4680  178.4960  139.4500 C   0  0  0  0  0  0  0  0  0  0  0  0
  182.8580  179.3320  140.3740 C   0  0  0  0  0  2  0  0  0  0  0  0
  186.2850  176.8470  137.0030 C   0  0  0  0  0  2  0  0  0  0  0  0
  187.5480  178.3280  141.3030 C   0  0  0  0  0  0  0  0  0  0  0  0
  182.5680  177.1240  139.1890 C   0  0  0  0  0  1  0  0  0  0  0  0
  189.4730  178.4780  138.1380 N   0  0  0  0  0  2  0  0  0  0  0  0
  186.8360  177.7570  134.7270 N   0  0  0  0  0  2  0  0  0  0  0  0
  186.2690  178.5200  141.7120 N   0  0  0  0  0  0  0  0  0  0  0  0
  187.8300  178.2250  139.9340 C   0  0  0  0  0  0  0  0  0  0  0  0
  184.3550  178.7320  138.4540 C   0  0  0  0  0  2  0  0  0  0  0  0
  188.1650  177.1710  134.8230 C   0  0  0  0  0  2  0  0  0  0  0  0
  185.2350  178.6300  140.8370 C   0  0  0  0  0  0  0  0  0  0  0  0
  183.8470  178.7760  141.3950 C   0  0  0  0  0  2  0  0  0  0  0  0
  189.1740  178.1350  139.4650 N   0  0  0  0  0  2  0  0  0  0  0  0
  188.5920  177.7110  137.2620 C   0  0  2  0  0  3  0  0  0  0  0  0
  188.9940  177.9790  135.8120 C   0  0  0  0  0  2  0  0  0  0  0  0
  188.6420  178.2950  142.3220 C   0  0  0  0  0  2  0  0  0  0  0  0
  188.3050  176.0030  142.8210 O   0  0  0  0  0  0  0  0  0  0  0  0
  188.4250  177.1690  143.2830 C   0  0  0  0  0  0  0  0  0  0  0  0
  188.3210  177.8780  147.5250 C   0  0  0  0  0  0  0  0  0  0  0  0
  189.5280  177.3430  145.5020 C   0  0  0  0  0  3  0  0  0  0  0  0
  185.8350  177.8780  144.6960 C   0  0  0  0  0  1  0  0  0  0  0  0
  188.3050  178.1620  149.2510 Cl  0  0  0  0  0  0  0  0  0  0  0  0
  189.5180  177.5690  146.8790 C   0  0  0  0  0  3  0  0  0  0  0  0
  187.1350  177.7390  145.4120 C   0  0  0  0  0  0  0  0  0  0  0  0
  188.3470  177.4230  144.7450 C   0  0  0  0  0  0  0  0  0  0  0  0
  187.1370  177.9640  146.7920 C   0  0  0  0  0  3  0  0  0  0  0  0
  1  9  1  1  0  0  0
  1  6  1  0  0  0  0
  2  5  2  0  0  0  0
  2 13  1  0  0  0  0
  3  7  1  1  0  0  0
  3  2  1  0  0  0  0
  4  7  1  0  0  0  0
  5 16  1  0  0  0  0
  6 17  1  0  0  0  0
  8 12  1  0  0  0  0
  8 21  1  0  0  0  0
 10 18  1  0  0  0  0
 11 15  1  0  0  0  0
 11  4  1  0  0  0  0
 13  8  2  0  0  0  0
 14  1  1  0  0  0  0
 14  5  1  0  0  0  0
 15 20  1  0  0  0  0
 16 17  1  0  0  0  0
 16 12  2  0  0  0  0
 18 13  1  0  0  0  0
 19 20  1  6  0  0  0
 19  3  1  0  0  0  0
 19 10  1  0  0  0  0
 21 23  1  0  0  0  0
 22 23  2  0  0  0  0
 23 30  1  0  0  0  0
 24 27  1  0  0  0  0
 25 28  2  0  0  0  0
 26 29  1  0  0  0  0
 28 24  1  0  0  0  0
 29 31  1  0  0  0  0
 30 29  2  0  0  0  0
 30 25  1  0  0  0  0
 31 24  2  0  0  0  0
M  END
>  <MODEL>
6

>  <REMARK>
 VINA RESULT:      -9.5      3.537      7.771
  Name = 
  3 active torsions:
  status: ('A' for Active; 'I' for Inactive)
    1  A    between atoms: C_9  and  C_22
    2  A    between atoms: C_9  and  C_23
    3  A    between atoms: C_15  and  C_23
                            x       y       z     vdW  Elec       q    Type
                         _______ _______ _______ _____ _____    ______ ____

>  <TORSDO>
F 3

$$$$
=
 OpenBabel11052413133D

 31 35  0  0  1  0  0  0  0  0999 V2000
  185.3210  178.2980  146.5650 C   0  0  2  0  0  3  0  0  0  0  0  0
  187.6680  177.6230  143.5960 C   0  0  0  0  0  0  0  0  0  0  0  0
  188.9320  177.0960  144.2620 C   0  0  2  0  0  3  0  0  0  0  0  0
  190.1070  177.4440  146.5170 C   0  0  0  0  0  2  0  0  0  0  0  0
  186.5090  177.9340  144.3420 C   0  0  0  0  0  0  0  0  0  0  0  0
  184.0160  178.2540  145.7740 C   0  0  0  0  0  2  0  0  0  0  0  0
  189.4060  178.0980  145.3170 C   0  0  0  0  0  2  0  0  0  0  0  0
  186.5290  178.3710  141.5860 C   0  0  0  0  0  0  0  0  0  0  0  0
  185.7300  179.7240  146.9010 C   0  0  0  0  0  1  0  0  0  0  0  0
  189.6390  176.3920  141.9780 N   0  0  0  0  0  2  0  0  0  0  0  0
  190.7800  176.1850  146.1930 N   0  0  0  0  0  2  0  0  0  0  0  0
  185.4440  178.6980  142.3320 N   0  0  0  0  0  0  0  0  0  0  0  0
  187.6470  177.7960  142.2030 C   0  0  0  0  0  0  0  0  0  0  0  0
  186.4290  177.5710  145.8080 C   0  0  0  0  0  2  0  0  0  0  0  0
  191.7510  176.4070  145.1310 C   0  0  0  0  0  2  0  0  0  0  0  0
  185.3900  178.4780  143.6710 C   0  0  0  0  0  0  0  0  0  0  0  0
  184.1680  178.9350  144.4160 C   0  0  0  0  0  2  0  0  0  0  0  0
  188.7590  177.3390  141.4340 N   0  0  0  0  0  2  0  0  0  0  0  0
  190.1050  176.8930  143.2680 C   0  0  2  0  0  3  0  0  0  0  0  0
  191.1610  175.9320  143.8110 C   0  0  0  0  0  2  0  0  0  0  0  0
  186.4820  178.5720  140.1040 C   0  0  0  0  0  2  0  0  0  0  0  0
  184.6550  180.0270  139.7000 O   0  0  0  0  0  0  0  0  0  0  0  0
  185.0800  178.8410  139.6580 C   0  0  0  0  0  0  0  0  0  0  0  0
  182.5000  175.6380  138.3970 C   0  0  0  0  0  0  0  0  0  0  0  0
  183.1790  177.2850  140.0280 C   0  0  0  0  0  3  0  0  0  0  0  0
  185.4140  177.5300  136.9410 C   0  0  0  0  0  1  0  0  0  0  0  0
  181.4380  174.3370  137.9070 Cl  0  0  0  0  0  0  0  0  0  0  0  0
  182.3310  176.2470  139.6400 C   0  0  0  0  0  3  0  0  0  0  0  0
  184.3720  177.1080  137.9210 C   0  0  0  0  0  0  0  0  0  0  0  0
  184.2090  177.7340  139.1840 C   0  0  0  0  0  0  0  0  0  0  0  0
  183.5150  176.0690  137.5430 C   0  0  0  0  0  3  0  0  0  0  0  0
  1  9  1  6  0  0  0
  2  3  1  0  0  0  0
  2  5  1  0  0  0  0
  3  7  1  1  0  0  0
  5 14  1  0  0  0  0
  6  1  1  0  0  0  0
  7  4  1  0  0  0  0
  8 13  1  0  0  0  0
  8 12  2  0  0  0  0
 10 19  1  0  0  0  0
 11  4  1  0  0  0  0
 12 16  1  0  0  0  0
 13  2  2  0  0  0  0
 14  1  1  0  0  0  0
 15 11  1  0  0  0  0
 16  5  2  0  0  0  0
 16 17  1  0  0  0  0
 17  6  1  0  0  0  0
 18 10  1  0  0  0  0
 18 13  1  0  0  0  0
 19 20  1  1  0  0  0
 19  3  1  0  0  0  0
 20 15  1  0  0  0  0
 21  8  1  0  0  0  0
 23 22  2  0  0  0  0
 23 21  1  0  0  0  0
 24 28  1  0  0  0  0
 26 29  1  0  0  0  0
 27 24  1  0  0  0  0
 28 25  2  0  0  0  0
 29 30  2  0  0  0  0
 30 23  1  0  0  0  0
 30 25  1  0  0  0  0
 31 29  1  0  0  0  0
 31 24  2  0  0  0  0
M  END
>  <MODEL>
7

>  <REMARK>
 VINA RESULT:      -9.5      2.331      3.227
  Name = 
  3 active torsions:
  status: ('A' for Active; 'I' for Inactive)
    1  A    between atoms: C_9  and  C_22
    2  A    between atoms: C_9  and  C_23
    3  A    between atoms: C_15  and  C_23
                            x       y       z     vdW  Elec       q    Type
                         _______ _______ _______ _____ _____    ______ ____

>  <TORSDO>
F 3

$$$$
=
 OpenBabel11052413133D

 31 35  0  0  1  0  0  0  0  0999 V2000
  190.8170  177.7500  144.6980 C   0  0  2  0  0  3  0  0  0  0  0  0
  187.6330  178.3130  142.6170 C   0  0  0  0  0  0  0  0  0  0  0  0
  186.5720  178.6000  143.6710 C   0  0  2  0  0  3  0  0  0  0  0  0
  186.1670  177.9110  146.1100 C   0  0  0  0  0  2  0  0  0  0  0  0
  188.9890  178.1140  142.9620 C   0  0  0  0  0  0  0  0  0  0  0  0
  191.8140  178.0420  143.5800 C   0  0  0  0  0  2  0  0  0  0  0  0
  186.5490  177.4610  144.6920 C   0  0  0  0  0  2  0  0  0  0  0  0
  188.2020  177.8980  140.2930 C   0  0  0  0  0  0  0  0  0  0  0  0
  190.6900  176.2580  144.9670 C   0  0  0  0  0  1  0  0  0  0  0  0
  185.1450  179.3740  141.7810 N   0  0  0  0  0  2  0  0  0  0  0  0
  185.2890  179.0820  146.1400 N   0  0  0  0  0  2  0  0  0  0  0  0
  189.4900  177.6710  140.6570 N   0  0  0  0  0  0  0  0  0  0  0  0
  187.2600  178.2560  141.2660 C   0  0  0  0  0  0  0  0  0  0  0  0
  189.4580  178.3680  144.3770 C   0  0  0  0  0  2  0  0  0  0  0  0
  184.0790  178.8080  145.3790 C   0  0  0  0  0  2  0  0  0  0  0  0
  189.9130  177.7910  141.9420 C   0  0  0  0  0  0  0  0  0  0  0  0
  191.3450  177.4560  142.2510 C   0  0  0  0  0  2  0  0  0  0  0  0
  185.9260  178.6080  140.9030 N   0  0  0  0  0  2  0  0  0  0  0  0
  185.1420  178.7110  143.0820 C   0  0  2  0  0  3  0  0  0  0  0  0
  184.1920  179.4650  144.0110 C   0  0  0  0  0  2  0  0  0  0  0  0
  187.8300  177.8220  138.8460 C   0  0  0  0  0  2  0  0  0  0  0  0
  189.1270  179.5990  137.9650 O   0  0  0  0  0  0  0  0  0  0  0  0
  188.9390  178.3540  137.9940 C   0  0  0  0  0  0  0  0  0  0  0  0
  191.4860  175.6830  135.7830 C   0  0  0  0  0  0  0  0  0  0  0  0
  190.9370  176.8900  137.8020 C   0  0  0  0  0  3  0  0  0  0  0  0
  188.2970  177.5790  135.1310 C   0  0  0  0  0  1  0  0  0  0  0  0
  192.5380  174.5950  134.9060 Cl  0  0  0  0  0  0  0  0  0  0  0  0
  191.7770  176.0220  137.1040 C   0  0  0  0  0  3  0  0  0  0  0  0
  189.5030  177.0810  135.8530 C   0  0  0  0  0  0  0  0  0  0  0  0
  189.7910  177.4330  137.1970 C   0  0  0  0  0  0  0  0  0  0  0  0
  190.3530  176.2100  135.1630 C   0  0  0  0  0  3  0  0  0  0  0  0
  1  9  1  6  0  0  0
  2  5  1  0  0  0  0
  2  3  1  0  0  0  0
  3  7  1  1  0  0  0
  4 11  1  0  0  0  0
  5 14  1  0  0  0  0
  6  1  1  0  0  0  0
  7  4  1  0  0  0  0
  8 12  2  0  0  0  0
  8 13  1  0  0  0  0
 10 19  1  0  0  0  0
 12 16  1  0  0  0  0
 13  2  2  0  0  0  0
 14  1  1  0  0  0  0
 15 11  1  0  0  0  0
 16 17  1  0  0  0  0
 16  5  2  0  0  0  0
 17  6  1  0  0  0  0
 18 13  1  0  0  0  0
 18 10  1  0  0  0  0
 19  3  1  0  0  0  0
 19 20  1  1  0  0  0
 20 15  1  0  0  0  0
 21  8  1  0  0  0  0
 22 23  2  0  0  0  0
 23 21  1  0  0  0  0
 24 28  1  0  0  0  0
 26 29  1  0  0  0  0
 27 24  1  0  0  0  0
 28 25  2  0  0  0  0
 29 30  2  0  0  0  0
 30 25  1  0  0  0  0
 30 23  1  0  0  0  0
 31 24  2  0  0  0  0
 31 29  1  0  0  0  0
M  END
>  <MODEL>
8

>  <REMARK>
 VINA RESULT:      -9.3      2.271      4.502
  Name = 
  3 active torsions:
  status: ('A' for Active; 'I' for Inactive)
    1  A    between atoms: C_9  and  C_22
    2  A    between atoms: C_9  and  C_23
    3  A    between atoms: C_15  and  C_23
                            x       y       z     vdW  Elec       q    Type
                         _______ _______ _______ _____ _____    ______ ____

>  <TORSDO>
F 3

$$$$
=
 OpenBabel11052413133D

 31 35  0  0  1  0  0  0  0  0999 V2000
  179.6010  178.3080  141.7650 C   0  0  2  0  0  3  0  0  0  0  0  0
  183.4220  178.7250  141.6640 C   0  0  0  0  0  0  0  0  0  0  0  0
  183.7690  178.4150  140.2140 C   0  0  2  0  0  3  0  0  0  0  0  0
  182.7900  176.9300  138.3630 C   0  0  0  0  0  2  0  0  0  0  0  0
  182.0830  178.7530  142.1180 C   0  0  0  0  0  0  0  0  0  0  0  0
  179.3620  179.1570  143.0100 C   0  0  0  0  0  2  0  0  0  0  0  0
  183.2040  177.0440  139.8380 C   0  0  0  0  0  2  0  0  0  0  0  0
  184.1610  179.1950  143.9290 C   0  0  0  0  0  0  0  0  0  0  0  0
  179.5100  176.8200  142.0690 C   0  0  0  0  0  1  0  0  0  0  0  0
  186.0110  179.3780  140.7220 N   0  0  0  0  0  2  0  0  0  0  0  0
  183.5600  177.7950  137.4670 N   0  0  0  0  0  2  0  0  0  0  0  0
  182.8690  179.1750  144.3460 N   0  0  0  0  0  0  0  0  0  0  0  0
  184.4540  179.0030  142.5730 C   0  0  0  0  0  0  0  0  0  0  0  0
  180.9440  178.6590  141.1290 C   0  0  0  0  0  2  0  0  0  0  0  0
  184.9780  177.4940  137.5930 C   0  0  0  0  0  2  0  0  0  0  0  0
  181.8320  178.9860  143.4890 C   0  0  0  0  0  0  0  0  0  0  0  0
  180.4440  178.9170  144.0600 C   0  0  0  0  0  2  0  0  0  0  0  0
  185.7890  179.1280  142.0840 N   0  0  0  0  0  2  0  0  0  0  0  0
  185.2960  178.3650  139.9510 C   0  0  2  0  0  3  0  0  0  0  0  0
  185.6340  178.5500  138.4720 C   0  0  0  0  0  2  0  0  0  0  0  0
  185.2420  179.4850  144.9200 C   0  0  0  0  0  2  0  0  0  0  0  0
  184.8490  177.5040  146.1610 O   0  0  0  0  0  0  0  0  0  0  0  0
  185.7030  178.2210  145.5740 C   0  0  0  0  0  0  0  0  0  0  0  0
  189.8350  177.0460  145.3450 C   0  0  0  0  0  0  0  0  0  0  0  0
  187.6830  177.4100  144.3110 C   0  0  0  0  0  3  0  0  0  0  0  0
  187.4980  178.2980  148.0200 C   0  0  0  0  0  1  0  0  0  0  0  0
  191.5120  176.5640  145.2250 Cl  0  0  0  0  0  0  0  0  0  0  0  0
  189.0200  177.0240  144.2130 C   0  0  0  0  0  3  0  0  0  0  0  0
  187.9740  177.8460  146.6810 C   0  0  0  0  0  0  0  0  0  0  0  0
  187.1350  177.8260  145.5360 C   0  0  0  0  0  0  0  0  0  0  0  0
  189.3130  177.4570  146.5710 C   0  0  0  0  0  3  0  0  0  0  0  0
  1  9  1  1  0  0  0
  1  6  1  0  0  0  0
  2  5  2  0  0  0  0
  2 13  1  0  0  0  0
  3  7  1  1  0  0  0
  3  2  1  0  0  0  0
  4  7  1  0  0  0  0
  5 16  1  0  0  0  0
  6 17  1  0  0  0  0
  8 12  1  0  0  0  0
  8 21  1  0  0  0  0
 10 18  1  0  0  0  0
 11 15  1  0  0  0  0
 11  4  1  0  0  0  0
 13  8  2  0  0  0  0
 14  1  1  0  0  0  0
 14  5  1  0  0  0  0
 15 20  1  0  0  0  0
 16 17  1  0  0  0  0
 16 12  2  0  0  0  0
 18 13  1  0  0  0  0
 19 20  1  6  0  0  0
 19  3  1  0  0  0  0
 19 10  1  0  0  0  0
 21 23  1  0  0  0  0
 23 22  2  0  0  0  0
 24 31  1  0  0  0  0
 25 30  2  0  0  0  0
 27 24  1  0  0  0  0
 28 25  1  0  0  0  0
 28 24  2  0  0  0  0
 29 26  1  0  0  0  0
 30 23  1  0  0  0  0
 30 29  1  0  0  0  0
 31 29  2  0  0  0  0
M  END
>  <MODEL>
9

>  <REMARK>
 VINA RESULT:      -9.3      3.972      8.046
  Name = 
  3 active torsions:
  status: ('A' for Active; 'I' for Inactive)
    1  A    between atoms: C_9  and  C_22
    2  A    between atoms: C_9  and  C_23
    3  A    between atoms: C_15  and  C_23
                            x       y       z     vdW  Elec       q    Type
                         _______ _______ _______ _____ _____    ______ ____

>  <TORSDO>
F 3

$$$$
