=
 OpenBabel11052412513D

 25 28  0  0  0  0  0  0  0  0999 V2000
  187.0810  178.0450  142.6440 N   0  0  0  0  0  0  0  0  0  0  0  0
  188.2800  177.5770  142.1890 C   0  0  0  0  0  0  0  0  0  0  0  0
  186.4040  178.7670  140.4890 C   0  0  0  0  0  3  0  0  0  0  0  0
  186.5230  178.0740  143.8660 C   0  0  0  0  0  0  0  0  0  0  0  0
  190.5310  176.9000  143.0280 C   0  0  0  0  0  0  0  0  0  0  0  0
  184.9430  178.3960  146.1160 C   0  0  0  0  0  3  0  0  0  0  0  0
  187.5810  178.2920  140.0000 N   0  0  0  0  0  0  0  0  0  0  0  0
  185.2950  178.6750  143.7640 C   0  0  0  0  0  0  0  0  0  0  0  0
  184.4710  178.8550  144.8710 C   0  0  0  0  0  3  0  0  0  0  0  0
  189.7350  177.1510  140.1160 C   0  0  0  0  0  0  0  0  0  0  0  0
  189.5980  176.6560  138.7880 N   0  0  0  0  0  1  0  0  0  0  0  0
  189.2030  176.8960  143.1260 C   0  0  0  0  0  3  0  0  0  0  0  0
  186.2100  177.7790  146.2210 C   0  0  0  0  0  3  0  0  0  0  0  0
  186.1630  178.6320  141.8470 C   0  0  0  0  0  0  0  0  0  0  0  0
  185.0390  179.0390  142.4890 N   0  0  0  0  0  0  0  0  0  0  0  0
  190.9160  177.1440  140.6590 N   0  0  0  0  0  0  0  0  0  0  0  0
  187.0220  177.6100  145.0850 C   0  0  0  0  0  3  0  0  0  0  0  0
  191.2240  177.6880  141.9720 C   0  0  0  0  0  2  0  0  0  0  0  0
  188.5350  177.7080  140.7920 C   0  0  0  0  0  0  0  0  0  0  0  0
  191.3400  176.1220  144.0110 C   0  0  0  0  0  2  0  0  0  0  0  0
  190.7330  177.9620  145.4850 C   0  0  0  0  0  2  0  0  0  0  0  0
  191.3440  176.7910  145.3500 C   0  0  0  0  0  0  0  0  0  0  0  0
  191.9590  176.1360  146.5160 C   0  0  0  0  0  0  0  0  0  0  0  0
  192.0250  176.7920  147.7390 O   0  0  0  0  0  1  0  0  0  0  0  0
  192.4360  174.9740  146.4120 O   0  0  0  0  0  0  0  0  0  0  0  0
  1  4  1  0  0  0  0
  2  1  1  0  0  0  0
  2 12  1  0  0  0  0
  3 14  1  0  0  0  0
  4 17  1  0  0  0  0
  5 12  2  0  0  0  0
  5 20  1  0  0  0  0
  6 13  1  0  0  0  0
  7  3  2  0  0  0  0
  7 19  1  0  0  0  0
  8  4  2  0  0  0  0
  8  9  1  0  0  0  0
  9  6  2  0  0  0  0
 10 16  2  0  0  0  0
 10 19  1  0  0  0  0
 11 10  1  0  0  0  0
 14 15  2  0  0  0  0
 14  1  1  0  0  0  0
 15  8  1  0  0  0  0
 16 18  1  0  0  0  0
 17 13  2  0  0  0  0
 18  5  1  0  0  0  0
 19  2  2  0  0  0  0
 20 22  1  0  0  0  0
 22 21  2  0  0  0  0
 22 23  1  0  0  0  0
 23 24  1  0  0  0  0
 25 23  2  0  0  0  0
M  END
>  <MODEL>
1

>  <REMARK>
 VINA RESULT:      -9.4      0.000      0.000
  Name = 
  3 active torsions:
  status: ('A' for Active; 'I' for Inactive)
    1  A    between atoms: C_2  and  C_25
    2  A    between atoms: C_6  and  C_15
    3  A    between atoms: C_15  and  C_25
                            x       y       z     vdW  Elec       q    Type
                         _______ _______ _______ _____ _____    ______ ____

>  <TORSDO>
F 3

$$$$
=
 OpenBabel11052412513D

 25 28  0  0  0  0  0  0  0  0999 V2000
  186.4170  178.2320  145.2010 N   0  0  0  0  0  0  0  0  0  0  0  0
  186.4540  178.0950  143.8440 C   0  0  0  0  0  0  0  0  0  0  0  0
  184.1790  179.0170  145.1860 C   0  0  0  0  0  3  0  0  0  0  0  0
  187.3290  178.0020  146.1620 C   0  0  0  0  0  0  0  0  0  0  0  0
  188.0870  177.8490  141.9730 C   0  0  0  0  0  0  0  0  0  0  0  0
  188.7970  177.7160  148.4900 C   0  0  0  0  0  3  0  0  0  0  0  0
  184.1760  178.8720  143.8330 N   0  0  0  0  0  0  0  0  0  0  0  0
  186.7680  178.3220  147.3720 C   0  0  0  0  0  0  0  0  0  0  0  0
  187.4740  178.1910  148.5650 C   0  0  0  0  0  3  0  0  0  0  0  0
  185.0980  178.2330  141.6670 C   0  0  0  0  0  0  0  0  0  0  0  0
  183.8130  177.8690  141.1740 N   0  0  0  0  0  1  0  0  0  0  0  0
  187.6640  177.5380  143.1970 C   0  0  0  0  0  3  0  0  0  0  0  0
  189.3750  177.3890  147.2420 C   0  0  0  0  0  3  0  0  0  0  0  0
  185.3360  178.6840  145.8720 C   0  0  0  0  0  0  0  0  0  0  0  0
  185.5000  178.7580  147.2170 N   0  0  0  0  0  0  0  0  0  0  0  0
  186.0550  178.4300  140.8100 N   0  0  0  0  0  0  0  0  0  0  0  0
  188.6380  177.5300  146.0530 C   0  0  0  0  0  3  0  0  0  0  0  0
  187.3940  178.8820  141.1560 C   0  0  0  0  0  2  0  0  0  0  0  0
  185.2660  178.4320  143.1290 C   0  0  0  0  0  0  0  0  0  0  0  0
  189.2950  177.1680  141.4210 C   0  0  0  0  0  2  0  0  0  0  0  0
  191.0810  178.3230  142.6060 C   0  0  0  0  0  2  0  0  0  0  0  0
  190.4190  177.1890  142.4080 C   0  0  0  0  0  0  0  0  0  0  0  0
  190.7490  175.9890  143.1960 C   0  0  0  0  0  0  0  0  0  0  0  0
  191.6840  176.0560  144.2230 O   0  0  0  0  0  1  0  0  0  0  0  0
  190.1880  174.8900  142.9430 O   0  0  0  0  0  0  0  0  0  0  0  0
  1 14  1  0  0  0  0
  1  4  1  0  0  0  0
  2  1  1  0  0  0  0
  3 14  1  0  0  0  0
  4  8  1  0  0  0  0
  5 12  2  0  0  0  0
  6  9  1  0  0  0  0
  7  3  2  0  0  0  0
  8  9  2  0  0  0  0
 10 19  1  0  0  0  0
 11 10  1  0  0  0  0
 12  2  1  0  0  0  0
 13  6  2  0  0  0  0
 14 15  2  0  0  0  0
 15  8  1  0  0  0  0
 16 18  1  0  0  0  0
 16 10  2  0  0  0  0
 17  4  2  0  0  0  0
 17 13  1  0  0  0  0
 18  5  1  0  0  0  0
 19  7  1  0  0  0  0
 19  2  2  0  0  0  0
 20  5  1  0  0  0  0
 20 22  1  0  0  0  0
 22 21  2  0  0  0  0
 22 23  1  0  0  0  0
 23 24  1  0  0  0  0
 25 23  2  0  0  0  0
M  END
>  <MODEL>
2

>  <REMARK>
 VINA RESULT:      -9.4      2.081      3.973
  Name = 
  3 active torsions:
  status: ('A' for Active; 'I' for Inactive)
    1  A    between atoms: C_2  and  C_25
    2  A    between atoms: C_6  and  C_15
    3  A    between atoms: C_15  and  C_25
                            x       y       z     vdW  Elec       q    Type
                         _______ _______ _______ _____ _____    ______ ____

>  <TORSDO>
F 3

$$$$
=
 OpenBabel11052412513D

 25 28  0  0  0  0  0  0  0  0999 V2000
  187.0730  177.8780  144.9780 N   0  0  0  0  0  0  0  0  0  0  0  0
  188.2710  177.5240  144.4260 C   0  0  0  0  0  0  0  0  0  0  0  0
  187.8350  177.4880  147.1890 C   0  0  0  0  0  3  0  0  0  0  0  0
  185.9120  178.2870  144.4390 C   0  0  0  0  0  0  0  0  0  0  0  0
  189.2630  176.8500  142.2380 C   0  0  0  0  0  0  0  0  0  0  0  0
  183.3410  179.1400  143.8730 C   0  0  0  0  0  3  0  0  0  0  0  0
  189.0480  177.1500  146.6730 N   0  0  0  0  0  0  0  0  0  0  0  0
  185.0170  178.4990  145.4570 C   0  0  0  0  0  0  0  0  0  0  0  0
  183.7160  178.9290  145.2130 C   0  0  0  0  0  3  0  0  0  0  0  0
  190.7000  176.8430  144.9050 C   0  0  0  0  0  0  0  0  0  0  0  0
  191.7680  177.2040  145.7740 N   0  0  0  0  0  1  0  0  0  0  0  0
  188.4610  177.6290  142.9610 C   0  0  0  0  0  3  0  0  0  0  0  0
  184.2620  178.9190  142.8240 C   0  0  0  0  0  3  0  0  0  0  0  0
  186.8340  177.8590  146.3070 C   0  0  0  0  0  0  0  0  0  0  0  0
  185.5780  178.2350  146.6570 N   0  0  0  0  0  0  0  0  0  0  0  0
  190.9860  176.2160  143.8030 N   0  0  0  0  0  0  0  0  0  0  0  0
  185.5710  178.4850  143.1010 C   0  0  0  0  0  3  0  0  0  0  0  0
  190.0010  175.7150  142.8580 C   0  0  0  0  0  2  0  0  0  0  0  0
  189.3080  177.1440  145.3280 C   0  0  0  0  0  0  0  0  0  0  0  0
  189.4050  177.1030  140.7740 C   0  0  0  0  0  2  0  0  0  0  0  0
  191.7250  177.7490  141.1330 C   0  0  0  0  0  2  0  0  0  0  0  0
  190.8450  177.1100  140.3700 C   0  0  0  0  0  0  0  0  0  0  0  0
  191.2950  176.3700  139.1780 C   0  0  0  0  0  0  0  0  0  0  0  0
  192.5190  176.6630  138.5880 O   0  0  0  0  0  0  0  0  0  0  0  0
  190.5700  175.4680  138.6810 O   0  0  0  0  0  1  0  0  0  0  0  0
  1 14  1  0  0  0  0
  2  1  1  0  0  0  0
  2 19  2  0  0  0  0
  4  1  1  0  0  0  0
  4  8  1  0  0  0  0
  5 18  1  0  0  0  0
  5 12  2  0  0  0  0
  6  9  1  0  0  0  0
  7  3  2  0  0  0  0
  8 15  1  0  0  0  0
  9  8  2  0  0  0  0
 10 19  1  0  0  0  0
 10 11  1  0  0  0  0
 12  2  1  0  0  0  0
 13 17  1  0  0  0  0
 13  6  2  0  0  0  0
 14 15  2  0  0  0  0
 14  3  1  0  0  0  0
 16 10  2  0  0  0  0
 17  4  2  0  0  0  0
 18 16  1  0  0  0  0
 19  7  1  0  0  0  0
 20  5  1  0  0  0  0
 22 20  1  0  0  0  0
 22 21  2  0  0  0  0
 23 22  1  0  0  0  0
 24 23  2  0  0  0  0
 25 23  1  0  0  0  0
M  END
>  <MODEL>
3

>  <REMARK>
 VINA RESULT:      -9.4      3.201      4.750
  Name = 
  3 active torsions:
  status: ('A' for Active; 'I' for Inactive)
    1  A    between atoms: C_2  and  C_25
    2  A    between atoms: C_6  and  C_15
    3  A    between atoms: C_15  and  C_25
                            x       y       z     vdW  Elec       q    Type
                         _______ _______ _______ _____ _____    ______ ____

>  <TORSDO>
F 3

$$$$
=
 OpenBabel11052412513D

 25 28  0  0  0  0  0  0  0  0999 V2000
  187.8320  177.8940  142.2540 N   0  0  0  0  0  0  0  0  0  0  0  0
  188.5970  177.4510  143.2940 C   0  0  0  0  0  0  0  0  0  0  0  0
  189.6570  177.8770  140.7410 C   0  0  0  0  0  3  0  0  0  0  0  0
  186.5300  178.2170  142.1580 C   0  0  0  0  0  0  0  0  0  0  0  0
  188.5680  177.3020  145.7850 C   0  0  0  0  0  0  0  0  0  0  0  0
  183.9830  179.0040  141.4180 C   0  0  0  0  0  3  0  0  0  0  0  0
  190.4430  177.4130  141.7500 N   0  0  0  0  0  0  0  0  0  0  0  0
  186.2820  178.6210  140.8720 C   0  0  0  0  0  0  0  0  0  0  0  0
  185.0140  179.0240  140.4610 C   0  0  0  0  0  3  0  0  0  0  0  0
  190.9150  176.6020  144.0020 C   0  0  0  0  0  0  0  0  0  0  0  0
  191.9340  175.7300  143.5260 N   0  0  0  0  0  1  0  0  0  0  0  0
  187.9640  177.1800  144.6050 C   0  0  0  0  0  3  0  0  0  0  0  0
  184.2400  178.5890  142.7450 C   0  0  0  0  0  3  0  0  0  0  0  0
  188.3210  178.1180  141.0160 C   0  0  0  0  0  0  0  0  0  0  0  0
  187.4040  178.5670  140.1230 N   0  0  0  0  0  0  0  0  0  0  0  0
  190.8880  176.8860  145.2700 N   0  0  0  0  0  0  0  0  0  0  0  0
  185.5310  178.1870  143.1320 C   0  0  0  0  0  3  0  0  0  0  0  0
  189.9610  177.8200  145.8890 C   0  0  0  0  0  2  0  0  0  0  0  0
  189.9730  177.1960  143.0190 C   0  0  0  0  0  0  0  0  0  0  0  0
  187.8280  176.9400  147.0290 C   0  0  0  0  0  2  0  0  0  0  0  0
  188.1290  178.6180  148.7680 C   0  0  0  0  0  2  0  0  0  0  0  0
  187.3860  178.1670  147.7640 C   0  0  0  0  0  0  0  0  0  0  0  0
  186.1800  178.9000  147.3450 C   0  0  0  0  0  0  0  0  0  0  0  0
  185.1700  178.2520  146.6430 O   0  0  0  0  0  0  0  0  0  0  0  0
  186.0550  180.1240  147.6160 O   0  0  0  0  0  1  0  0  0  0  0  0
  1  2  1  0  0  0  0
  2 12  1  0  0  0  0
  3 14  1  0  0  0  0
  3  7  2  0  0  0  0
  4  1  1  0  0  0  0
  4 17  1  0  0  0  0
  5 18  1  0  0  0  0
  5 20  1  0  0  0  0
  6 13  1  0  0  0  0
  7 19  1  0  0  0  0
  8  4  2  0  0  0  0
  9  8  1  0  0  0  0
  9  6  2  0  0  0  0
 10 16  2  0  0  0  0
 11 10  1  0  0  0  0
 12  5  2  0  0  0  0
 13 17  2  0  0  0  0
 14  1  1  0  0  0  0
 15  8  1  0  0  0  0
 15 14  2  0  0  0  0
 16 18  1  0  0  0  0
 19  2  2  0  0  0  0
 19 10  1  0  0  0  0
 20 22  1  0  0  0  0
 22 21  2  0  0  0  0
 23 25  1  0  0  0  0
 23 22  1  0  0  0  0
 24 23  2  0  0  0  0
M  END
>  <MODEL>
4

>  <REMARK>
 VINA RESULT:      -9.2      2.620      4.251
  Name = 
  3 active torsions:
  status: ('A' for Active; 'I' for Inactive)
    1  A    between atoms: C_2  and  C_25
    2  A    between atoms: C_6  and  C_15
    3  A    between atoms: C_15  and  C_25
                            x       y       z     vdW  Elec       q    Type
                         _______ _______ _______ _____ _____    ______ ____

>  <TORSDO>
F 3

$$$$
=
 OpenBabel11052412513D

 25 28  0  0  0  0  0  0  0  0999 V2000
  186.5870  178.2570  142.9910 N   0  0  0  0  0  0  0  0  0  0  0  0
  187.7840  177.7000  143.3370 C   0  0  0  0  0  0  0  0  0  0  0  0
  187.2610  178.6170  140.7460 C   0  0  0  0  0  3  0  0  0  0  0  0
  185.4650  178.5020  143.6890 C   0  0  0  0  0  0  0  0  0  0  0  0
  189.1390  177.1360  145.3560 C   0  0  0  0  0  0  0  0  0  0  0  0
  182.9660  179.2270  144.6340 C   0  0  0  0  0  3  0  0  0  0  0  0
  188.4580  178.0460  141.0520 N   0  0  0  0  0  0  0  0  0  0  0  0
  184.5580  179.0980  142.8500 C   0  0  0  0  0  0  0  0  0  0  0  0
  183.2920  179.4760  143.2870 C   0  0  0  0  0  3  0  0  0  0  0  0
  190.0720  176.9050  142.4830 C   0  0  0  0  0  0  0  0  0  0  0  0
  190.6210  176.1950  141.3780 N   0  0  0  0  0  1  0  0  0  0  0  0
  187.9770  177.1710  144.7070 C   0  0  0  0  0  3  0  0  0  0  0  0
  183.9020  178.6150  145.4990 C   0  0  0  0  0  3  0  0  0  0  0  0
  186.3130  178.7170  141.7520 C   0  0  0  0  0  0  0  0  0  0  0  0
  185.0720  179.2460  141.6100 N   0  0  0  0  0  0  0  0  0  0  0  0
  190.7650  176.9700  143.5810 N   0  0  0  0  0  0  0  0  0  0  0  0
  185.1750  178.2430  145.0300 C   0  0  0  0  0  3  0  0  0  0  0  0
  190.3720  177.7230  144.7620 C   0  0  0  0  0  2  0  0  0  0  0  0
  188.7650  177.5890  142.3080 C   0  0  0  0  0  0  0  0  0  0  0  0
  189.2020  176.5230  146.7150 C   0  0  0  0  0  2  0  0  0  0  0  0
  189.8300  178.2870  148.2710 C   0  0  0  0  0  2  0  0  0  0  0  0
  190.2090  177.2240  147.5720 C   0  0  0  0  0  0  0  0  0  0  0  0
  191.5830  176.7090  147.6900 C   0  0  0  0  0  0  0  0  0  0  0  0
  192.0300  175.6960  146.8490 O   0  0  0  0  0  0  0  0  0  0  0  0
  192.3650  177.1800  148.5570 O   0  0  0  0  0  1  0  0  0  0  0  0
  1  2  1  0  0  0  0
  1  4  1  0  0  0  0
  2 12  1  0  0  0  0
  3  7  2  0  0  0  0
  3 14  1  0  0  0  0
  4 17  1  0  0  0  0
  5 20  1  0  0  0  0
  6 13  1  0  0  0  0
  7 19  1  0  0  0  0
  8  9  1  0  0  0  0
  8  4  2  0  0  0  0
  9  6  2  0  0  0  0
 10 16  2  0  0  0  0
 11 10  1  0  0  0  0
 12  5  2  0  0  0  0
 14  1  1  0  0  0  0
 15 14  2  0  0  0  0
 15  8  1  0  0  0  0
 16 18  1  0  0  0  0
 17 13  2  0  0  0  0
 18  5  1  0  0  0  0
 19 10  1  0  0  0  0
 19  2  2  0  0  0  0
 20 22  1  0  0  0  0
 22 23  1  0  0  0  0
 22 21  2  0  0  0  0
 23 25  1  0  0  0  0
 24 23  2  0  0  0  0
M  END
>  <MODEL>
5

>  <REMARK>
 VINA RESULT:      -9.1      1.485      2.146
  Name = 
  3 active torsions:
  status: ('A' for Active; 'I' for Inactive)
    1  A    between atoms: C_2  and  C_25
    2  A    between atoms: C_6  and  C_15
    3  A    between atoms: C_15  and  C_25
                            x       y       z     vdW  Elec       q    Type
                         _______ _______ _______ _____ _____    ______ ____

>  <TORSDO>
F 3

$$$$
=
 OpenBabel11052412513D

 25 28  0  0  0  0  0  0  0  0999 V2000
  186.7440  178.2520  142.8500 N   0  0  0  0  0  0  0  0  0  0  0  0
  185.5310  178.6140  142.3400 C   0  0  0  0  0  0  0  0  0  0  0  0
  187.7790  178.2450  140.7160 C   0  0  0  0  0  3  0  0  0  0  0  0
  187.1630  177.9980  144.1010 C   0  0  0  0  0  0  0  0  0  0  0  0
  183.1130  178.6580  142.9580 C   0  0  0  0  0  0  0  0  0  0  0  0
  188.5270  177.3670  146.4250 C   0  0  0  0  0  3  0  0  0  0  0  0
  186.5880  178.6270  140.1780 N   0  0  0  0  0  0  0  0  0  0  0  0
  188.4910  177.6600  144.0490 C   0  0  0  0  0  0  0  0  0  0  0  0
  189.2120  177.3370  145.1960 C   0  0  0  0  0  3  0  0  0  0  0  0
  184.2490  179.3180  140.2290 C   0  0  0  0  0  0  0  0  0  0  0  0
  184.4230  180.1590  139.0940 N   0  0  0  0  0  1  0  0  0  0  0  0
  184.3950  178.8600  143.2580 C   0  0  0  0  0  3  0  0  0  0  0  0
  187.1580  177.7120  146.4780 C   0  0  0  0  0  3  0  0  0  0  0  0
  187.8410  178.0580  142.0870 C   0  0  0  0  0  0  0  0  0  0  0  0
  188.9490  177.6910  142.7800 N   0  0  0  0  0  0  0  0  0  0  0  0
  183.0400  178.9830  140.5690 N   0  0  0  0  0  0  0  0  0  0  0  0
  186.4550  178.0340  145.3030 C   0  0  0  0  0  3  0  0  0  0  0  0
  182.7100  178.0690  141.6520 C   0  0  0  0  0  2  0  0  0  0  0  0
  185.4580  178.8130  140.9290 C   0  0  0  0  0  0  0  0  0  0  0  0
  182.0630  179.0030  143.9610 C   0  0  0  0  0  2  0  0  0  0  0  0
  180.0630  177.6200  143.8490 C   0  0  0  0  0  2  0  0  0  0  0  0
  180.6970  178.7080  143.4270 C   0  0  0  0  0  0  0  0  0  0  0  0
  180.0370  179.6380  142.4970 C   0  0  0  0  0  0  0  0  0  0  0  0
  179.3930  179.1610  141.3610 O   0  0  0  0  0  0  0  0  0  0  0  0
  180.0550  180.8780  142.7200 O   0  0  0  0  0  1  0  0  0  0  0  0
  1  4  1  0  0  0  0
  2  1  1  0  0  0  0
  2 12  1  0  0  0  0
  3 14  1  0  0  0  0
  4 17  1  0  0  0  0
  5 12  2  0  0  0  0
  5 20  1  0  0  0  0
  6 13  1  0  0  0  0
  7  3  2  0  0  0  0
  7 19  1  0  0  0  0
  8  4  2  0  0  0  0
  8  9  1  0  0  0  0
  9  6  2  0  0  0  0
 10 16  2  0  0  0  0
 10 19  1  0  0  0  0
 11 10  1  0  0  0  0
 14 15  2  0  0  0  0
 14  1  1  0  0  0  0
 15  8  1  0  0  0  0
 16 18  1  0  0  0  0
 17 13  2  0  0  0  0
 18  5  1  0  0  0  0
 19  2  2  0  0  0  0
 22 21  2  0  0  0  0
 22 20  1  0  0  0  0
 23 25  1  0  0  0  0
 23 22  1  0  0  0  0
 24 23  2  0  0  0  0
M  END
>  <MODEL>
6

>  <REMARK>
 VINA RESULT:      -8.9      4.581      7.218
  Name = 
  3 active torsions:
  status: ('A' for Active; 'I' for Inactive)
    1  A    between atoms: C_2  and  C_25
    2  A    between atoms: C_6  and  C_15
    3  A    between atoms: C_15  and  C_25
                            x       y       z     vdW  Elec       q    Type
                         _______ _______ _______ _____ _____    ______ ____

>  <TORSDO>
F 3

$$$$
=
 OpenBabel11052412513D

 25 28  0  0  0  0  0  0  0  0999 V2000
  189.6850  177.3720  143.7590 N   0  0  0  0  0  0  0  0  0  0  0  0
  188.6890  177.4060  144.6910 C   0  0  0  0  0  0  0  0  0  0  0  0
  191.3910  177.2710  145.4030 C   0  0  0  0  0  3  0  0  0  0  0  0
  189.6720  177.3940  142.4150 C   0  0  0  0  0  0  0  0  0  0  0  0
  186.2710  177.9830  144.9110 C   0  0  0  0  0  0  0  0  0  0  0  0
  190.2130  177.4230  139.7010 C   0  0  0  0  0  3  0  0  0  0  0  0
  190.4210  177.2820  146.3580 N   0  0  0  0  0  0  0  0  0  0  0  0
  190.9690  177.3520  141.9720 C   0  0  0  0  0  0  0  0  0  0  0  0
  191.2820  177.3640  140.6150 C   0  0  0  0  0  3  0  0  0  0  0  0
  188.1290  177.2660  147.1930 C   0  0  0  0  0  0  0  0  0  0  0  0
  188.5010  176.5070  148.3390 N   0  0  0  0  0  1  0  0  0  0  0  0
  187.2750  177.4090  144.2510 C   0  0  0  0  0  3  0  0  0  0  0  0
  188.8760  177.4690  140.1590 C   0  0  0  0  0  3  0  0  0  0  0  0
  190.9970  177.3180  144.0760 C   0  0  0  0  0  0  0  0  0  0  0  0
  191.8330  177.3020  143.0080 N   0  0  0  0  0  0  0  0  0  0  0  0
  186.9910  177.8930  147.2120 N   0  0  0  0  0  0  0  0  0  0  0  0
  188.5900  177.4550  141.5360 C   0  0  0  0  0  3  0  0  0  0  0  0
  186.5130  178.7680  146.1530 C   0  0  0  0  0  2  0  0  0  0  0  0
  189.0850  177.3540  146.0600 C   0  0  0  0  0  0  0  0  0  0  0  0
  184.8810  177.8600  144.3810 C   0  0  0  0  0  2  0  0  0  0  0  0
  184.0930  180.1330  144.0010 C   0  0  0  0  0  2  0  0  0  0  0  0
  184.5520  179.0030  143.4740 C   0  0  0  0  0  0  0  0  0  0  0  0
  184.7900  178.9040  142.0240 C   0  0  0  0  0  0  0  0  0  0  0  0
  184.0270  178.0430  141.2430 O   0  0  0  0  0  0  0  0  0  0  0  0
  185.6900  179.5950  141.4800 O   0  0  0  0  0  1  0  0  0  0  0  0
  1 14  1  0  0  0  0
  1  2  1  0  0  0  0
  2 19  2  0  0  0  0
  3  7  2  0  0  0  0
  4  1  1  0  0  0  0
  5 18  1  0  0  0  0
  6 13  2  0  0  0  0
  6  9  1  0  0  0  0
  8  4  1  0  0  0  0
  8 15  1  0  0  0  0
  9  8  2  0  0  0  0
 10 16  2  0  0  0  0
 10 11  1  0  0  0  0
 12  2  1  0  0  0  0
 12  5  2  0  0  0  0
 13 17  1  0  0  0  0
 14  3  1  0  0  0  0
 15 14  2  0  0  0  0
 17  4  2  0  0  0  0
 18 16  1  0  0  0  0
 19  7  1  0  0  0  0
 19 10  1  0  0  0  0
 20  5  1  0  0  0  0
 22 21  2  0  0  0  0
 22 20  1  0  0  0  0
 23 22  1  0  0  0  0
 24 23  2  0  0  0  0
 25 23  1  0  0  0  0
M  END
>  <MODEL>
7

>  <REMARK>
 VINA RESULT:      -8.8      3.572      6.842
  Name = 
  3 active torsions:
  status: ('A' for Active; 'I' for Inactive)
    1  A    between atoms: C_2  and  C_25
    2  A    between atoms: C_6  and  C_15
    3  A    between atoms: C_15  and  C_25
                            x       y       z     vdW  Elec       q    Type
                         _______ _______ _______ _____ _____    ______ ____

>  <TORSDO>
F 3

$$$$
=
 OpenBabel11052412513D

 25 28  0  0  0  0  0  0  0  0999 V2000
  188.1560  177.6590  142.7350 N   0  0  0  0  0  0  0  0  0  0  0  0
  188.7310  177.6740  141.4970 C   0  0  0  0  0  0  0  0  0  0  0  0
  190.0900  176.7460  143.7590 C   0  0  0  0  0  3  0  0  0  0  0  0
  186.9410  178.0280  143.1760 C   0  0  0  0  0  0  0  0  0  0  0  0
  188.1130  177.8470  139.0850 C   0  0  0  0  0  0  0  0  0  0  0  0
  184.6340  178.6090  144.5900 C   0  0  0  0  0  3  0  0  0  0  0  0
  190.6990  176.7670  142.5420 N   0  0  0  0  0  0  0  0  0  0  0  0
  186.8820  177.7860  144.5240 C   0  0  0  0  0  0  0  0  0  0  0  0
  185.7400  178.0650  145.2700 C   0  0  0  0  0  3  0  0  0  0  0  0
  190.8840  177.2610  140.1600 C   0  0  0  0  0  0  0  0  0  0  0  0
  192.2830  177.5030  140.2700 N   0  0  0  0  0  1  0  0  0  0  0  0
  187.9840  178.2410  140.3500 C   0  0  0  0  0  3  0  0  0  0  0  0
  184.6950  178.8560  143.1990 C   0  0  0  0  0  3  0  0  0  0  0  0
  188.7860  177.2070  143.8400 C   0  0  0  0  0  0  0  0  0  0  0  0
  188.0430  177.2640  144.9740 N   0  0  0  0  0  0  0  0  0  0  0  0
  190.3860  177.0440  138.9790 N   0  0  0  0  0  0  0  0  0  0  0  0
  185.8620  178.5640  142.4710 C   0  0  0  0  0  3  0  0  0  0  0  0
  188.9960  176.7050  138.7190 C   0  0  0  0  0  2  0  0  0  0  0  0
  190.0740  177.2050  141.4040 C   0  0  0  0  0  0  0  0  0  0  0  0
  187.3390  178.5450  138.0170 C   0  0  0  0  0  2  0  0  0  0  0  0
  185.7630  176.9520  137.0650 C   0  0  0  0  0  2  0  0  0  0  0  0
  185.9630  177.9710  137.8920 C   0  0  0  0  0  0  0  0  0  0  0  0
  184.8570  178.4840  138.7180 C   0  0  0  0  0  0  0  0  0  0  0  0
  184.9300  179.7530  139.2830 O   0  0  0  0  0  1  0  0  0  0  0  0
  183.8370  177.7750  138.9240 O   0  0  0  0  0  0  0  0  0  0  0  0
  1  4  1  0  0  0  0
  1 14  1  0  0  0  0
  2  1  1  0  0  0  0
  3 14  1  0  0  0  0
  4  8  1  0  0  0  0
  5 12  2  0  0  0  0
  6  9  1  0  0  0  0
  7  3  2  0  0  0  0
  8 15  1  0  0  0  0
  8  9  2  0  0  0  0
 10 11  1  0  0  0  0
 10 19  1  0  0  0  0
 12  2  1  0  0  0  0
 13  6  2  0  0  0  0
 14 15  2  0  0  0  0
 16 10  2  0  0  0  0
 17  4  2  0  0  0  0
 17 13  1  0  0  0  0
 18 16  1  0  0  0  0
 18  5  1  0  0  0  0
 19  2  2  0  0  0  0
 19  7  1  0  0  0  0
 20  5  1  0  0  0  0
 21 22  2  0  0  0  0
 22 20  1  0  0  0  0
 22 23  1  0  0  0  0
 23 25  2  0  0  0  0
 23 24  1  0  0  0  0
M  END
>  <MODEL>
8

>  <REMARK>
 VINA RESULT:      -8.6      3.654      5.672
  Name = 
  3 active torsions:
  status: ('A' for Active; 'I' for Inactive)
    1  A    between atoms: C_2  and  C_25
    2  A    between atoms: C_6  and  C_15
    3  A    between atoms: C_15  and  C_25
                            x       y       z     vdW  Elec       q    Type
                         _______ _______ _______ _____ _____    ______ ____

>  <TORSDO>
F 3

$$$$
=
 OpenBabel11052412513D

 25 28  0  0  0  0  0  0  0  0999 V2000
  187.1850  178.2820  140.6200 N   0  0  0  0  0  0  0  0  0  0  0  0
  186.9840  178.3410  141.9690 C   0  0  0  0  0  0  0  0  0  0  0  0
  184.9370  178.8570  140.1330 C   0  0  0  0  0  3  0  0  0  0  0  0
  188.2680  177.9970  139.8760 C   0  0  0  0  0  0  0  0  0  0  0  0
  188.0300  177.6020  144.1110 C   0  0  0  0  0  0  0  0  0  0  0  0
  190.1410  177.4850  137.9040 C   0  0  0  0  0  3  0  0  0  0  0  0
  184.7080  178.9450  141.4710 N   0  0  0  0  0  0  0  0  0  0  0  0
  187.9110  178.0680  138.5540 C   0  0  0  0  0  0  0  0  0  0  0  0
  188.8250  177.8190  137.5330 C   0  0  0  0  0  3  0  0  0  0  0  0
  185.3150  178.9170  143.8340 C   0  0  0  0  0  0  0  0  0  0  0  0
  184.3480  179.9160  144.1440 N   0  0  0  0  0  1  0  0  0  0  0  0
  188.1240  178.1240  142.8900 C   0  0  0  0  0  3  0  0  0  0  0  0
  190.5070  177.4100  139.2670 C   0  0  0  0  0  3  0  0  0  0  0  0
  186.2130  178.5160  139.7140 C   0  0  0  0  0  0  0  0  0  0  0  0
  186.6090  178.3980  138.4210 N   0  0  0  0  0  0  0  0  0  0  0  0
  185.8000  178.2050  144.8070 N   0  0  0  0  0  0  0  0  0  0  0  0
  189.5630  177.6670  140.2780 C   0  0  0  0  0  3  0  0  0  0  0  0
  186.7310  177.1000  144.6380 C   0  0  0  0  0  2  0  0  0  0  0  0
  185.6750  178.6950  142.4100 C   0  0  0  0  0  0  0  0  0  0  0  0
  189.2540  177.4920  144.9570 C   0  0  0  0  0  2  0  0  0  0  0  0
  191.1810  178.4370  143.8070 C   0  0  0  0  0  2  0  0  0  0  0  0
  190.4790  177.3520  144.1090 C   0  0  0  0  0  0  0  0  0  0  0  0
  190.9370  176.0240  143.6650 C   0  0  0  0  0  0  0  0  0  0  0  0
  190.2150  175.3100  142.7160 O   0  0  0  0  0  0  0  0  0  0  0  0
  191.9870  175.5220  144.1470 O   0  0  0  0  0  1  0  0  0  0  0  0
  1  2  1  0  0  0  0
  2 19  2  0  0  0  0
  2 12  1  0  0  0  0
  3  7  2  0  0  0  0
  4 17  1  0  0  0  0
  4  1  1  0  0  0  0
  5 18  1  0  0  0  0
  5 20  1  0  0  0  0
  6 13  1  0  0  0  0
  7 19  1  0  0  0  0
  8  4  2  0  0  0  0
  9  6  2  0  0  0  0
  9  8  1  0  0  0  0
 10 11  1  0  0  0  0
 10 16  2  0  0  0  0
 12  5  2  0  0  0  0
 13 17  2  0  0  0  0
 14  3  1  0  0  0  0
 14  1  1  0  0  0  0
 15  8  1  0  0  0  0
 15 14  2  0  0  0  0
 18 16  1  0  0  0  0
 19 10  1  0  0  0  0
 21 22  2  0  0  0  0
 22 20  1  0  0  0  0
 23 22  1  0  0  0  0
 23 25  1  0  0  0  0
 24 23  2  0  0  0  0
M  END
>  <MODEL>
9

>  <REMARK>
 VINA RESULT:      -8.6      1.915      4.976
  Name = 
  3 active torsions:
  status: ('A' for Active; 'I' for Inactive)
    1  A    between atoms: C_2  and  C_25
    2  A    between atoms: C_6  and  C_15
    3  A    between atoms: C_15  and  C_25
                            x       y       z     vdW  Elec       q    Type
                         _______ _______ _______ _____ _____    ______ ____

>  <TORSDO>
F 3

$$$$
