=
 OpenBabel11052413333D

 28 32  0  0  1  0  0  0  0  0999 V2000
  190.6780  176.7400  144.3580 C   0  0  1  0  0  3  0  0  0  0  0  0
  185.6860  178.1460  143.3670 C   0  0  0  0  0  3  0  0  0  0  0  0
  188.8640  178.3570  148.5950 C   0  0  0  0  0  2  0  0  0  0  0  0
  184.8050  178.6480  145.5770 C   0  0  0  0  0  0  0  0  0  0  0  0
  187.1510  178.0630  145.3340 C   0  0  0  0  0  0  0  0  0  0  0  0
  183.3500  178.7260  143.6420 C   0  0  0  0  0  0  0  0  0  0  0  0
  185.8900  178.2810  144.7490 C   0  0  0  0  0  0  0  0  0  0  0  0
  186.1990  178.5990  147.4940 C   0  0  0  0  0  3  0  0  0  0  0  0
  183.5420  178.8670  145.0180 C   0  0  0  0  0  3  0  0  0  0  0  0
  189.6480  177.2900  146.5770 N   0  0  0  0  0  0  0  0  0  0  0  0
  188.3550  177.7840  144.4800 C   0  0  0  0  0  2  0  0  0  0  0  0
  184.9870  178.7980  146.9140 N   0  0  0  0  0  0  0  0  0  0  0  0
  191.4510  175.5920  146.4970 C   0  0  0  0  0  2  0  0  0  0  0  0
  187.3100  178.2310  146.7190 C   0  0  0  0  0  0  0  0  0  0  0  0
  190.8100  176.7300  147.2830 C   0  0  0  0  0  2  0  0  0  0  0  0
  182.0630  178.9500  143.0780 N   0  0  0  0  0  1  0  0  0  0  0  0
  184.4200  178.3670  142.8170 C   0  0  0  0  0  3  0  0  0  0  0  0
  188.6290  177.9740  147.3390 C   0  0  0  0  0  0  0  0  0  0  0  0
  191.8420  176.0800  145.1100 C   0  0  0  0  0  2  0  0  0  0  0  0
  189.3780  176.8850  145.1830 C   0  0  1  0  0  3  0  0  0  0  0  0
  191.2490  178.2580  143.4910 S   0  0  0  0  0  0  0  0  0  0  0  0
  190.7900  177.7500  141.8320 C   0  0  0  0  0  0  0  0  0  0  0  0
  190.0820  176.9840  139.2360 C   0  0  0  0  0  0  0  0  0  0  0  0
  189.4430  177.7040  141.4580 C   0  0  0  0  0  3  0  0  0  0  0  0
  191.7840  177.4350  140.8990 C   0  0  0  0  0  3  0  0  0  0  0  0
  191.4300  177.0480  139.6030 C   0  0  0  0  0  3  0  0  0  0  0  0
  189.7400  176.6060  137.9820 F   0  0  0  0  0  0  0  0  0  0  0  0
  189.0890  177.3160  140.1620 C   0  0  0  0  0  3  0  0  0  0  0  0
  1 21  1  1  0  0  0
  1 19  1  0  0  0  0
  1 20  1  0  0  0  0
  2  7  1  0  0  0  0
  4 12  1  0  0  0  0
  5 14  2  0  0  0  0
  6  9  2  0  0  0  0
  7  5  1  0  0  0  0
  7  4  2  0  0  0  0
  9  4  1  0  0  0  0
 10 15  1  0  0  0  0
 10 18  1  0  0  0  0
 11  5  1  0  0  0  0
 12  8  2  0  0  0  0
 13 15  1  0  0  0  0
 14 18  1  0  0  0  0
 14  8  1  0  0  0  0
 16  6  1  0  0  0  0
 17  2  2  0  0  0  0
 17  6  1  0  0  0  0
 18  3  2  0  0  0  0
 19 13  1  0  0  0  0
 20 11  1  6  0  0  0
 20 10  1  0  0  0  0
 22 21  1  0  0  0  0
 23 26  2  0  0  0  0
 23 28  1  0  0  0  0
 24 22  1  0  0  0  0
 25 22  2  0  0  0  0
 26 25  1  0  0  0  0
 27 23  1  0  0  0  0
 28 24  2  0  0  0  0
M  END
>  <MODEL>
1

>  <REMARK>
 VINA RESULT:     -11.3      0.000      0.000
  Name = 
  2 active torsions:
  status: ('A' for Active; 'I' for Inactive)
    1  A    between atoms: C_1  and  S_2
    2  A    between atoms: S_2  and  C_3
                            x       y       z     vdW  Elec       q    Type
                         _______ _______ _______ _____ _____    ______ ____

>  <TORSDO>
F 2

$$$$
=
 OpenBabel11052413333D

 28 32  0  0  1  0  0  0  0  0999 V2000
  188.8480  177.0670  141.5890 C   0  0  1  0  0  3  0  0  0  0  0  0
  183.8180  178.5230  142.2720 C   0  0  0  0  0  3  0  0  0  0  0  0
  188.3680  178.0750  146.3440 C   0  0  0  0  0  2  0  0  0  0  0  0
  183.6220  178.7120  144.6880 C   0  0  0  0  0  0  0  0  0  0  0  0
  185.7840  178.1980  143.7050 C   0  0  0  0  0  0  0  0  0  0  0  0
  181.6750  179.0290  143.2820 C   0  0  0  0  0  0  0  0  0  0  0  0
  184.4140  178.4740  143.5420 C   0  0  0  0  0  0  0  0  0  0  0  0
  185.5050  178.4250  146.0990 C   0  0  0  0  0  3  0  0  0  0  0  0
  182.2570  178.9860  144.5510 C   0  0  0  0  0  3  0  0  0  0  0  0
  188.5120  177.2990  144.0640 N   0  0  0  0  0  0  0  0  0  0  0  0
  186.6850  178.0530  142.5120 C   0  0  0  0  0  2  0  0  0  0  0  0
  184.1830  178.6830  145.9240 N   0  0  0  0  0  0  0  0  0  0  0  0
  190.1720  175.6530  143.2440 C   0  0  0  0  0  2  0  0  0  0  0  0
  186.3380  178.1800  144.9950 C   0  0  0  0  0  0  0  0  0  0  0  0
  189.8130  176.6660  144.3240 C   0  0  0  0  0  2  0  0  0  0  0  0
  180.2870  179.3080  143.1460 N   0  0  0  0  0  1  0  0  0  0  0  0
  182.4540  178.7990  142.1440 C   0  0  0  0  0  3  0  0  0  0  0  0
  187.7720  177.8600  145.1700 C   0  0  0  0  0  0  0  0  0  0  0  0
  190.1610  176.3280  141.8790 C   0  0  0  0  0  2  0  0  0  0  0  0
  187.8430  177.0820  142.7650 C   0  0  1  0  0  3  0  0  0  0  0  0
  189.1840  178.6950  140.8030 S   0  0  0  0  0  0  0  0  0  0  0  0
  188.6380  178.2600  139.1510 C   0  0  0  0  0  0  0  0  0  0  0  0
  187.7930  177.6070  136.5650 C   0  0  0  0  0  0  0  0  0  0  0  0
  187.2740  178.1160  138.8750 C   0  0  0  0  0  3  0  0  0  0  0  0
  189.5770  178.0990  138.1260 C   0  0  0  0  0  3  0  0  0  0  0  0
  189.1550  177.7690  136.8350 C   0  0  0  0  0  3  0  0  0  0  0  0
  187.3840  177.2840  135.3150 F   0  0  0  0  0  0  0  0  0  0  0  0
  186.8520  177.7860  137.5840 C   0  0  0  0  0  3  0  0  0  0  0  0
  1 21  1  1  0  0  0
  1 19  1  0  0  0  0
  1 20  1  0  0  0  0
  2  7  1  0  0  0  0
  4 12  1  0  0  0  0
  5 14  2  0  0  0  0
  6  9  2  0  0  0  0
  7  5  1  0  0  0  0
  7  4  2  0  0  0  0
  9  4  1  0  0  0  0
 10 15  1  0  0  0  0
 10 18  1  0  0  0  0
 11  5  1  0  0  0  0
 12  8  2  0  0  0  0
 13 15  1  0  0  0  0
 14 18  1  0  0  0  0
 14  8  1  0  0  0  0
 16  6  1  0  0  0  0
 17  2  2  0  0  0  0
 17  6  1  0  0  0  0
 18  3  2  0  0  0  0
 19 13  1  0  0  0  0
 20 11  1  6  0  0  0
 20 10  1  0  0  0  0
 22 21  1  0  0  0  0
 23 26  2  0  0  0  0
 23 28  1  0  0  0  0
 24 22  1  0  0  0  0
 25 22  2  0  0  0  0
 26 25  1  0  0  0  0
 27 23  1  0  0  0  0
 28 24  2  0  0  0  0
M  END
>  <MODEL>
2

>  <REMARK>
 VINA RESULT:      -9.5      1.925      2.772
  Name = 
  2 active torsions:
  status: ('A' for Active; 'I' for Inactive)
    1  A    between atoms: C_1  and  S_2
    2  A    between atoms: S_2  and  C_3
                            x       y       z     vdW  Elec       q    Type
                         _______ _______ _______ _____ _____    ______ ____

>  <TORSDO>
F 2

$$$$
=
 OpenBabel11052413333D

 28 32  0  0  1  0  0  0  0  0999 V2000
  188.8300  177.3010  143.4900 C   0  0  1  0  0  3  0  0  0  0  0  0
  184.1400  177.9520  141.1520 C   0  0  0  0  0  3  0  0  0  0  0  0
  185.9110  179.3080  146.8530 C   0  0  0  0  0  2  0  0  0  0  0  0
  182.7080  178.6710  142.9800 C   0  0  0  0  0  0  0  0  0  0  0  0
  185.0800  178.3340  143.3870 C   0  0  0  0  0  0  0  0  0  0  0  0
  181.7710  178.2900  140.7790 C   0  0  0  0  0  0  0  0  0  0  0  0
  183.9880  178.3140  142.5000 C   0  0  0  0  0  0  0  0  0  0  0  0
  183.5880  179.0710  145.1450 C   0  0  0  0  0  3  0  0  0  0  0  0
  181.6070  178.6550  142.1170 C   0  0  0  0  0  3  0  0  0  0  0  0
  187.2470  178.0510  145.2840 N   0  0  0  0  0  0  0  0  0  0  0  0
  186.4750  178.0730  142.8930 C   0  0  0  0  0  2  0  0  0  0  0  0
  182.5430  179.0380  144.2770 N   0  0  0  0  0  0  0  0  0  0  0  0
  189.1400  176.5820  145.9150 C   0  0  0  0  0  2  0  0  0  0  0  0
  184.8800  178.7240  144.7210 C   0  0  0  0  0  0  0  0  0  0  0  0
  188.2400  177.7430  146.3240 C   0  0  0  0  0  2  0  0  0  0  0  0
  180.6490  178.2750  139.9040 N   0  0  0  0  0  1  0  0  0  0  0  0
  183.0350  177.9390  140.2970 C   0  0  0  0  0  3  0  0  0  0  0  0
  186.0220  178.7170  145.6620 C   0  0  0  0  0  0  0  0  0  0  0  0
  189.8210  176.9000  144.5910 C   0  0  0  0  0  2  0  0  0  0  0  0
  187.3590  177.4150  143.9570 C   0  0  1  0  0  3  0  0  0  0  0  0
  189.4770  178.7290  142.5280 S   0  0  0  0  0  0  0  0  0  0  0  0
  189.5230  177.9160  140.9300 C   0  0  0  0  0  0  0  0  0  0  0  0
  189.5730  176.6290  138.4470 C   0  0  0  0  0  0  0  0  0  0  0  0
  190.5800  177.0580  140.6070 C   0  0  0  0  0  3  0  0  0  0  0  0
  188.4790  178.1100  140.0180 C   0  0  0  0  0  3  0  0  0  0  0  0
  188.5070  177.4700  138.7760 C   0  0  0  0  0  3  0  0  0  0  0  0
  189.6020  176.0120  137.2420 F   0  0  0  0  0  0  0  0  0  0  0  0
  190.6080  176.4180  139.3640 C   0  0  0  0  0  3  0  0  0  0  0  0
  1 21  1  1  0  0  0
  1 20  1  0  0  0  0
  1 19  1  0  0  0  0
  2  7  1  0  0  0  0
  4 12  1  0  0  0  0
  5 14  2  0  0  0  0
  6  9  2  0  0  0  0
  7  4  2  0  0  0  0
  7  5  1  0  0  0  0
  9  4  1  0  0  0  0
 10 18  1  0  0  0  0
 10 15  1  0  0  0  0
 11  5  1  0  0  0  0
 12  8  2  0  0  0  0
 13 15  1  0  0  0  0
 14  8  1  0  0  0  0
 14 18  1  0  0  0  0
 16  6  1  0  0  0  0
 17  6  1  0  0  0  0
 17  2  2  0  0  0  0
 18  3  2  0  0  0  0
 19 13  1  0  0  0  0
 20 11  1  6  0  0  0
 20 10  1  0  0  0  0
 22 21  1  0  0  0  0
 23 26  2  0  0  0  0
 23 28  1  0  0  0  0
 24 22  1  0  0  0  0
 25 22  2  0  0  0  0
 26 25  1  0  0  0  0
 27 23  1  0  0  0  0
 28 24  2  0  0  0  0
M  END
>  <MODEL>
3

>  <REMARK>
 VINA RESULT:      -8.9      1.611      2.797
  Name = 
  2 active torsions:
  status: ('A' for Active; 'I' for Inactive)
    1  A    between atoms: C_1  and  S_2
    2  A    between atoms: S_2  and  C_3
                            x       y       z     vdW  Elec       q    Type
                         _______ _______ _______ _____ _____    ______ ____

>  <TORSDO>
F 2

$$$$
=
 OpenBabel11052413333D

 28 32  0  0  1  0  0  0  0  0999 V2000
  189.2560  176.6840  142.0330 C   0  0  1  0  0  3  0  0  0  0  0  0
  184.2450  178.3110  142.4000 C   0  0  0  0  0  3  0  0  0  0  0  0
  188.6480  178.1570  146.6510 C   0  0  0  0  0  2  0  0  0  0  0  0
  183.9760  178.7360  144.7780 C   0  0  0  0  0  0  0  0  0  0  0  0
  186.1550  178.0820  143.9240 C   0  0  0  0  0  0  0  0  0  0  0  0
  182.0840  178.9590  143.2820 C   0  0  0  0  0  0  0  0  0  0  0  0
  184.7990  178.3710  143.6880 C   0  0  0  0  0  0  0  0  0  0  0  0
  185.8050  178.5450  146.2740 C   0  0  0  0  0  3  0  0  0  0  0  0
  182.6240  179.0260  144.5680 C   0  0  0  0  0  3  0  0  0  0  0  0
  188.8460  177.1620  144.4610 N   0  0  0  0  0  0  0  0  0  0  0  0
  187.0900  177.8020  142.7820 C   0  0  0  0  0  2  0  0  0  0  0  0
  184.4970  178.8140  146.0300 N   0  0  0  0  0  0  0  0  0  0  0  0
  190.4900  175.4070  143.8600 C   0  0  0  0  0  2  0  0  0  0  0  0
  186.6660  178.1760  145.2280 C   0  0  0  0  0  0  0  0  0  0  0  0
  190.1220  176.5280  144.8260 C   0  0  0  0  0  2  0  0  0  0  0  0
  180.7090  179.2540  143.0720 N   0  0  0  0  0  1  0  0  0  0  0  0
  182.8930  178.6030  142.1990 C   0  0  0  0  0  3  0  0  0  0  0  0
  188.0850  177.8430  145.4820 C   0  0  0  0  0  0  0  0  0  0  0  0
  190.5400  175.9480  142.4380 C   0  0  0  0  0  2  0  0  0  0  0  0
  188.2140  176.8350  143.1670 C   0  0  1  0  0  3  0  0  0  0  0  0
  189.6580  178.2210  141.1070 S   0  0  0  0  0  0  0  0  0  0  0  0
  190.8170  177.4850  139.9520 C   0  0  0  0  0  0  0  0  0  0  0  0
  192.6320  176.3640  138.1410 C   0  0  0  0  0  0  0  0  0  0  0  0
  190.3520  176.8610  138.7900 C   0  0  0  0  0  3  0  0  0  0  0  0
  192.1930  177.5690  140.1950 C   0  0  0  0  0  3  0  0  0  0  0  0
  193.0990  177.0040  139.2930 C   0  0  0  0  0  3  0  0  0  0  0  0
  193.5090  175.8150  137.2690 F   0  0  0  0  0  0  0  0  0  0  0  0
  191.2580  176.2970  137.8870 C   0  0  0  0  0  3  0  0  0  0  0  0
  1 21  1  1  0  0  0
  1 19  1  0  0  0  0
  1 20  1  0  0  0  0
  2  7  1  0  0  0  0
  4 12  1  0  0  0  0
  5 14  2  0  0  0  0
  6  9  2  0  0  0  0
  7  5  1  0  0  0  0
  7  4  2  0  0  0  0
  9  4  1  0  0  0  0
 10 15  1  0  0  0  0
 10 18  1  0  0  0  0
 11  5  1  0  0  0  0
 12  8  2  0  0  0  0
 13 15  1  0  0  0  0
 14 18  1  0  0  0  0
 14  8  1  0  0  0  0
 16  6  1  0  0  0  0
 17  2  2  0  0  0  0
 17  6  1  0  0  0  0
 18  3  2  0  0  0  0
 19 13  1  0  0  0  0
 20 11  1  6  0  0  0
 20 10  1  0  0  0  0
 22 25  1  0  0  0  0
 22 21  1  0  0  0  0
 23 26  1  0  0  0  0
 24 22  2  0  0  0  0
 26 25  2  0  0  0  0
 27 23  1  0  0  0  0
 28 23  2  0  0  0  0
 28 24  1  0  0  0  0
M  END
>  <MODEL>
4

>  <REMARK>
 VINA RESULT:      -8.9      1.600      2.190
  Name = 
  2 active torsions:
  status: ('A' for Active; 'I' for Inactive)
    1  A    between atoms: C_1  and  S_2
    2  A    between atoms: S_2  and  C_3
                            x       y       z     vdW  Elec       q    Type
                         _______ _______ _______ _____ _____    ______ ____

>  <TORSDO>
F 2

$$$$
=
 OpenBabel11052413333D

 28 32  0  0  1  0  0  0  0  0999 V2000
  182.9950  178.5960  139.3060 C   0  0  1  0  0  3  0  0  0  0  0  0
  186.6520  177.8540  143.0420 C   0  0  0  0  0  3  0  0  0  0  0  0
  180.6740  179.0630  143.5800 C   0  0  0  0  0  2  0  0  0  0  0  0
  185.4640  178.3950  145.0930 C   0  0  0  0  0  0  0  0  0  0  0  0
  184.2620  178.4070  142.9810 C   0  0  0  0  0  0  0  0  0  0  0  0
  187.8240  177.8560  145.1630 C   0  0  0  0  0  0  0  0  0  0  0  0
  185.4610  178.2170  143.6910 C   0  0  0  0  0  0  0  0  0  0  0  0
  183.1500  178.9110  145.0710 C   0  0  0  0  0  3  0  0  0  0  0  0
  186.6450  178.2150  145.8190 C   0  0  0  0  0  3  0  0  0  0  0  0
  181.8860  179.1250  141.4930 N   0  0  0  0  0  0  0  0  0  0  0  0
  184.1870  178.1180  141.5090 C   0  0  0  0  0  2  0  0  0  0  0  0
  184.3180  178.7320  145.7400 N   0  0  0  0  0  0  0  0  0  0  0  0
  181.1130  180.3080  139.4570 C   0  0  0  0  0  2  0  0  0  0  0  0
  183.0920  178.7500  143.6780 C   0  0  0  0  0  0  0  0  0  0  0  0
  180.7210  179.6880  140.7940 C   0  0  0  0  0  2  0  0  0  0  0  0
  189.0240  177.6740  145.9050 N   0  0  0  0  0  1  0  0  0  0  0  0
  187.8280  177.6750  143.7760 C   0  0  0  0  0  3  0  0  0  0  0  0
  181.8360  178.9780  142.9290 C   0  0  0  0  0  0  0  0  0  0  0  0
  181.8140  179.2680  138.5930 C   0  0  0  0  0  2  0  0  0  0  0  0
  183.1770  179.0140  140.7850 C   0  0  1  0  0  3  0  0  0  0  0  0
  183.0010  176.7860  138.9790 S   0  0  0  0  0  0  0  0  0  0  0  0
  184.4240  176.7650  137.8880 C   0  0  0  0  0  0  0  0  0  0  0  0
  186.6580  176.7130  136.2040 C   0  0  0  0  0  0  0  0  0  0  0  0
  185.2820  177.8680  137.8280 C   0  0  0  0  0  3  0  0  0  0  0  0
  184.6990  175.6260  137.1220 C   0  0  0  0  0  3  0  0  0  0  0  0
  185.8130  175.6020  136.2780 C   0  0  0  0  0  3  0  0  0  0  0  0
  187.7350  176.6910  135.3840 F   0  0  0  0  0  0  0  0  0  0  0  0
  186.3960  177.8450  136.9830 C   0  0  0  0  0  3  0  0  0  0  0  0
  1 21  1  1  0  0  0
  1 20  1  0  0  0  0
  2  7  2  0  0  0  0
  2 17  1  0  0  0  0
  4 12  1  0  0  0  0
  4  9  2  0  0  0  0
  5 14  2  0  0  0  0
  5  7  1  0  0  0  0
  6  9  1  0  0  0  0
  6 16  1  0  0  0  0
  7  4  1  0  0  0  0
  8 12  2  0  0  0  0
 10 18  1  0  0  0  0
 11  5  1  0  0  0  0
 13 15  1  0  0  0  0
 14  8  1  0  0  0  0
 15 10  1  0  0  0  0
 17  6  2  0  0  0  0
 18  3  2  0  0  0  0
 18 14  1  0  0  0  0
 19  1  1  0  0  0  0
 19 13  1  0  0  0  0
 20 10  1  0  0  0  0
 20 11  1  1  0  0  0
 22 21  1  0  0  0  0
 23 26  2  0  0  0  0
 23 28  1  0  0  0  0
 24 22  1  0  0  0  0
 25 22  2  0  0  0  0
 26 25  1  0  0  0  0
 27 23  1  0  0  0  0
 28 24  2  0  0  0  0
M  END
>  <MODEL>
5

>  <REMARK>
 VINA RESULT:      -8.7      3.562      7.112
  Name = 
  2 active torsions:
  status: ('A' for Active; 'I' for Inactive)
    1  A    between atoms: C_1  and  S_2
    2  A    between atoms: S_2  and  C_3
                            x       y       z     vdW  Elec       q    Type
                         _______ _______ _______ _____ _____    ______ ____

>  <TORSDO>
F 2

$$$$
=
 OpenBabel11052413333D

 28 32  0  0  1  0  0  0  0  0999 V2000
  189.1450  178.2470  143.4940 C   0  0  1  0  0  3  0  0  0  0  0  0
  187.0270  177.8780  138.6720 C   0  0  0  0  0  3  0  0  0  0  0  0
  192.7440  176.7530  140.5490 C   0  0  0  0  0  2  0  0  0  0  0  0
  188.9500  177.4210  137.2570 C   0  0  0  0  0  0  0  0  0  0  0  0
  189.2490  177.5620  139.6650 C   0  0  0  0  0  0  0  0  0  0  0  0
  186.7620  177.7360  136.2670 C   0  0  0  0  0  0  0  0  0  0  0  0
  188.4010  177.6240  138.5440 C   0  0  0  0  0  0  0  0  0  0  0  0
  191.1060  177.0890  138.1870 C   0  0  0  0  0  3  0  0  0  0  0  0
  188.1280  177.4800  136.1280 C   0  0  0  0  0  3  0  0  0  0  0  0
  191.0430  177.7710  141.9260 N   0  0  0  0  0  0  0  0  0  0  0  0
  188.6890  177.6580  141.0560 C   0  0  0  0  0  2  0  0  0  0  0  0
  190.2750  177.1590  137.1150 N   0  0  0  0  0  0  0  0  0  0  0  0
  191.5000  179.0970  143.9690 C   0  0  0  0  0  2  0  0  0  0  0  0
  190.6130  177.2850  139.4870 C   0  0  0  0  0  0  0  0  0  0  0  0
  192.0230  178.0560  142.9850 C   0  0  0  0  0  2  0  0  0  0  0  0
  185.9290  177.7960  135.1160 N   0  0  0  0  0  1  0  0  0  0  0  0
  186.2120  177.9350  137.5370 C   0  0  0  0  0  3  0  0  0  0  0  0
  191.5110  177.2490  140.6630 C   0  0  0  0  0  0  0  0  0  0  0  0
  190.1790  178.6280  144.5630 C   0  0  0  0  0  2  0  0  0  0  0  0
  189.6710  178.3020  142.0400 C   0  0  1  0  0  3  0  0  0  0  0  0
  188.2660  176.7030  143.9690 S   0  0  0  0  0  0  0  0  0  0  0  0
  186.7090  177.4680  144.4250 C   0  0  0  0  0  0  0  0  0  0  0  0
  184.2900  178.6870  145.1280 C   0  0  0  0  0  0  0  0  0  0  0  0
  186.4000  177.6890  145.7720 C   0  0  0  0  0  3  0  0  0  0  0  0
  185.8160  177.8800  143.4300 C   0  0  0  0  0  3  0  0  0  0  0  0
  184.6050  178.4850  143.7810 C   0  0  0  0  0  3  0  0  0  0  0  0
  183.1170  179.2700  145.4680 F   0  0  0  0  0  0  0  0  0  0  0  0
  185.1900  178.2940  146.1240 C   0  0  0  0  0  3  0  0  0  0  0  0
  1 21  1  1  0  0  0
  1 19  1  0  0  0  0
  3 18  2  0  0  0  0
  4  7  1  0  0  0  0
  5 11  1  0  0  0  0
  6 17  1  0  0  0  0
  7  2  1  0  0  0  0
  7  5  2  0  0  0  0
  8 14  2  0  0  0  0
  9  6  2  0  0  0  0
  9  4  1  0  0  0  0
 10 20  1  0  0  0  0
 10 15  1  0  0  0  0
 12  4  2  0  0  0  0
 12  8  1  0  0  0  0
 13 19  1  0  0  0  0
 14  5  1  0  0  0  0
 14 18  1  0  0  0  0
 15 13  1  0  0  0  0
 16  6  1  0  0  0  0
 17  2  2  0  0  0  0
 18 10  1  0  0  0  0
 20 11  1  6  0  0  0
 20  1  1  0  0  0  0
 21 22  1  0  0  0  0
 22 24  1  0  0  0  0
 23 27  1  0  0  0  0
 23 28  1  0  0  0  0
 24 28  2  0  0  0  0
 25 26  1  0  0  0  0
 25 22  2  0  0  0  0
 26 23  2  0  0  0  0
M  END
>  <MODEL>
6

>  <REMARK>
 VINA RESULT:      -8.7      3.791      7.115
  Name = 
  2 active torsions:
  status: ('A' for Active; 'I' for Inactive)
    1  A    between atoms: C_1  and  S_2
    2  A    between atoms: S_2  and  C_3
                            x       y       z     vdW  Elec       q    Type
                         _______ _______ _______ _____ _____    ______ ____

>  <TORSDO>
F 2

$$$$
=
 OpenBabel11052413333D

 28 32  0  0  1  0  0  0  0  0999 V2000
  188.9690  176.8000  137.8590 C   0  0  1  0  0  3  0  0  0  0  0  0
  187.5050  177.4850  142.8860 C   0  0  0  0  0  3  0  0  0  0  0  0
  193.0880  177.5560  140.3740 C   0  0  0  0  0  2  0  0  0  0  0  0
  189.6250  177.5560  144.0730 C   0  0  0  0  0  0  0  0  0  0  0  0
  189.6230  177.3980  141.6480 C   0  0  0  0  0  0  0  0  0  0  0  0
  187.5400  177.6380  145.3030 C   0  0  0  0  0  0  0  0  0  0  0  0
  188.9090  177.4780  142.8580 C   0  0  0  0  0  0  0  0  0  0  0  0
  191.6880  177.4960  142.9060 C   0  0  0  0  0  3  0  0  0  0  0  0
  188.9370  177.6350  145.2880 C   0  0  0  0  0  3  0  0  0  0  0  0
  191.0850  176.8930  139.2020 N   0  0  0  0  0  0  0  0  0  0  0  0
  188.9040  177.4270  140.3290 C   0  0  0  0  0  2  0  0  0  0  0  0
  190.9830  177.5660  144.0650 N   0  0  0  0  0  0  0  0  0  0  0  0
  191.0570  175.5350  137.1300 C   0  0  0  0  0  2  0  0  0  0  0  0
  191.0260  177.4140  141.6710 C   0  0  0  0  0  0  0  0  0  0  0  0
  191.8700  176.4460  138.0420 C   0  0  0  0  0  2  0  0  0  0  0  0
  186.8440  177.7170  146.5410 N   0  0  0  0  0  1  0  0  0  0  0  0
  186.8250  177.5640  144.1040 C   0  0  0  0  0  3  0  0  0  0  0  0
  191.7790  177.3000  140.4020 C   0  0  0  0  0  0  0  0  0  0  0  0
  189.7890  176.2500  136.6840 C   0  0  0  0  0  2  0  0  0  0  0  0
  189.6330  176.6270  139.2460 C   0  0  1  0  0  3  0  0  0  0  0  0
  188.3460  178.4870  137.4760 S   0  0  0  0  0  0  0  0  0  0  0  0
  186.6160  178.0470  137.2940 C   0  0  0  0  0  0  0  0  0  0  0  0
  183.9230  177.3370  137.0300 C   0  0  0  0  0  0  0  0  0  0  0  0
  186.1690  177.4140  136.1290 C   0  0  0  0  0  3  0  0  0  0  0  0
  185.7180  178.3020  138.3370 C   0  0  0  0  0  3  0  0  0  0  0  0
  184.3710  177.9510  138.2020 C   0  0  0  0  0  3  0  0  0  0  0  0
  182.6180  177.0000  136.8980 F   0  0  0  0  0  0  0  0  0  0  0  0
  184.8230  177.0640  135.9950 C   0  0  0  0  0  3  0  0  0  0  0  0
  1 21  1  6  0  0  0
  1 20  1  0  0  0  0
  2 17  1  0  0  0  0
  3 18  2  0  0  0  0
  4  9  2  0  0  0  0
  5 14  2  0  0  0  0
  5  7  1  0  0  0  0
  6 16  1  0  0  0  0
  7  2  2  0  0  0  0
  7  4  1  0  0  0  0
  8 12  2  0  0  0  0
  9  6  1  0  0  0  0
 10 20  1  0  0  0  0
 10 18  1  0  0  0  0
 11  5  1  0  0  0  0
 12  4  1  0  0  0  0
 13 15  1  0  0  0  0
 14  8  1  0  0  0  0
 15 10  1  0  0  0  0
 17  6  2  0  0  0  0
 18 14  1  0  0  0  0
 19 13  1  0  0  0  0
 19  1  1  0  0  0  0
 20 11  1  1  0  0  0
 22 21  1  0  0  0  0
 22 25  1  0  0  0  0
 23 26  1  0  0  0  0
 24 22  2  0  0  0  0
 26 25  2  0  0  0  0
 27 23  1  0  0  0  0
 28 24  1  0  0  0  0
 28 23  2  0  0  0  0
M  END
>  <MODEL>
7

>  <REMARK>
 VINA RESULT:      -8.6      3.534      6.539
  Name = 
  2 active torsions:
  status: ('A' for Active; 'I' for Inactive)
    1  A    between atoms: C_1  and  S_2
    2  A    between atoms: S_2  and  C_3
                            x       y       z     vdW  Elec       q    Type
                         _______ _______ _______ _____ _____    ______ ____

>  <TORSDO>
F 2

$$$$
