=
 OpenBabel11052415273D

 37 39  0  0  1  0  0  0  0  0999 V2000
  184.7240  178.6010  143.5270 C   0  0  0  0  0  2  0  0  0  0  0  0
  179.4880  177.4700  143.1320 C   0  0  0  0  0  1  0  0  0  0  0  0
  184.5420  178.2920  142.0490 C   0  0  1  0  0  3  0  0  0  0  0  0
  185.5960  176.8980  136.9920 C   0  0  1  0  0  3  0  0  0  0  0  0
  184.4680  179.4920  141.3210 O   0  0  0  0  0  0  0  0  0  0  0  0
  180.2900  176.1960  140.3240 C   0  0  0  0  0  2  0  0  0  0  0  0
  183.6760  178.2030  138.7890 N   0  0  0  0  0  0  0  0  0  0  0  0
  181.7910  176.2510  140.0920 C   0  0  0  0  0  2  0  0  0  0  0  0
  185.0900  178.6230  138.7910 C   0  0  2  0  0  3  0  0  0  0  0  0
  181.4930  179.6320  143.3230 C   0  0  0  0  0  2  0  0  0  0  0  0
  182.3620  178.7240  143.9350 O   0  0  0  0  0  0  0  0  0  0  0  0
  181.0100  179.0770  142.0170 C   0  0  0  0  0  3  0  0  0  0  0  0
  182.1180  176.2620  138.6020 C   0  0  1  0  0  3  0  0  0  0  0  0
  185.8050  178.3400  137.4590 C   0  0  0  0  0  2  0  0  0  0  0  0
  183.5480  176.7860  138.3900 C   0  0  1  0  0  3  0  0  0  0  0  0
  180.1080  178.0930  141.9200 C   0  0  0  0  0  0  0  0  0  0  0  0
  185.6960  178.8040  141.2710 C   0  0  2  0  0  3  0  0  0  0  0  0
  179.7290  177.5900  140.5630 C   0  0  0  0  0  2  0  0  0  0  0  0
  183.5620  179.4230  144.0730 C   0  0  0  0  0  2  0  0  0  0  0  0
  184.1060  176.5380  136.9870 C   0  0  0  0  0  2  0  0  0  0  0  0
  185.8370  178.0020  139.9740 C   0  0  0  0  0  2  0  0  0  0  0  0
  180.7980  174.8750  136.9290 C   0  0  0  0  0  1  0  0  0  0  0  0
  181.8910  174.8730  137.9890 C   0  0  0  0  0  2  0  0  0  0  0  0
  182.9220  179.0750  137.8870 C   0  0  0  0  0  2  0  0  0  0  0  0
  183.2090  181.2280  138.8520 O   0  0  0  0  0  0  0  0  0  0  0  0
  182.4250  180.2680  138.6260 C   0  0  0  0  0  0  0  0  0  0  0  0
  180.3400  181.5100  139.0240 C   0  0  0  0  0  1  0  0  0  0  0  0
  181.0980  180.3110  139.0540 O   0  0  0  0  0  0  0  0  0  0  0  0
  186.2700  176.6630  135.7040 N   0  0  0  0  0  0  0  0  0  0  0  0
  187.0480  175.4270  135.7300 C   0  0  0  0  0  2  0  0  0  0  0  0
  186.8440  174.7230  137.0560 C   0  0  0  0  0  2  0  0  0  0  0  0
  186.3610  173.3110  136.8070 C   0  0  0  0  0  2  0  0  0  0  0  0
  185.1900  173.0110  137.7190 C   0  0  0  0  0  1  0  0  0  0  0  0
  187.1970  177.7590  135.4510 C   0  0  0  0  0  2  0  0  0  0  0  0
  188.6350  177.2840  135.6070 C   0  0  0  0  0  2  0  0  0  0  0  0
  189.4150  177.3340  137.9780 C   0  0  0  0  0  1  0  0  0  0  0  0
  189.3700  178.0940  136.6650 C   0  0  0  0  0  2  0  0  0  0  0  0
  1 19  1  0  0  0  0
  3  1  1  1  0  0  0
  4 29  1  6  0  0  0
  4 14  1  0  0  0  0
  5  3  1  0  0  0  0
  6 18  1  0  0  0  0
  7  9  1  0  0  0  0
  8  6  1  0  0  0  0
  9 14  1  6  0  0  0
  9 21  1  0  0  0  0
 10 11  1  0  0  0  0
 11 19  1  0  0  0  0
 12 10  1  0  0  0  0
 13 23  1  1  0  0  0
 13  8  1  0  0  0  0
 15 20  1  6  0  0  0
 15 13  1  0  0  0  0
 15  7  1  0  0  0  0
 16 12  2  0  0  0  0
 16  2  1  0  0  0  0
 17 21  1  6  0  0  0
 17  5  1  0  0  0  0
 17  3  1  0  0  0  0
 18 16  1  0  0  0  0
 20  4  1  0  0  0  0
 22 23  1  0  0  0  0
 24 26  1  0  0  0  0
 24  7  1  0  0  0  0
 26 25  2  0  0  0  0
 26 28  1  0  0  0  0
 27 28  1  0  0  0  0
 29 30  1  0  0  0  0
 30 31  1  0  0  0  0
 32 31  1  0  0  0  0
 32 33  1  0  0  0  0
 34 35  1  0  0  0  0
 34 29  1  0  0  0  0
 35 37  1  0  0  0  0
 37 36  1  0  0  0  0
M  END
>  <MODEL>
1

>  <REMARK>
 VINA RESULT:      -4.7      0.000      0.000
  Name = 
  11 active torsions:
  status: ('A' for Active; 'I' for Inactive)
    1  A    between atoms: C_1  and  C_23
    2  A    between atoms: C_1  and  N_33
    3  A    between atoms: C_4  and  N_10
    4  A    between atoms: C_4  and  C_24
    5  A    between atoms: C_5  and  C_23
    6  A    between atoms: C_7  and  N_33
    7  A    between atoms: C_17  and  C_26
    8  A    between atoms: C_17  and  N_33
    9  A    between atoms: C_20  and  C_25
   10  A    between atoms: C_24  and  O_28
   11  A    between atoms: C_26  and  C_34
                            x       y       z     vdW  Elec       q    Type
                         _______ _______ _______ _____ _____    ______ ____

>  <TORSDO>
F 11

$$$$
=
 OpenBabel11052415273D

 37 39  0  0  1  0  0  0  0  0999 V2000
  182.9430  178.6420  142.4270 C   0  0  0  0  0  2  0  0  0  0  0  0
  178.9310  175.5500  140.6410 C   0  0  0  0  0  1  0  0  0  0  0  0
  183.4440  178.1640  141.0720 C   0  0  1  0  0  3  0  0  0  0  0  0
  186.7190  176.8680  137.0450 C   0  0  1  0  0  3  0  0  0  0  0  0
  183.2580  179.1770  140.1170 O   0  0  0  0  0  0  0  0  0  0  0  0
  181.1010  174.4540  138.5830 C   0  0  0  0  0  2  0  0  0  0  0  0
  183.9500  177.4760  137.8080 N   0  0  0  0  0  0  0  0  0  0  0  0
  182.4700  175.0640  138.8350 C   0  0  0  0  0  2  0  0  0  0  0  0
  185.0360  178.4080  138.1690 C   0  0  2  0  0  3  0  0  0  0  0  0
  179.8830  178.3260  140.9860 C   0  0  0  0  0  2  0  0  0  0  0  0
  180.7040  177.8770  142.0250 O   0  0  0  0  0  0  0  0  0  0  0  0
  180.1390  177.5200  139.7480 C   0  0  0  0  0  3  0  0  0  0  0  0
  183.3110  175.0760  137.5610 C   0  0  1  0  0  3  0  0  0  0  0  0
  186.2490  178.3120  137.2300 C   0  0  0  0  0  2  0  0  0  0  0  0
  184.4560  176.0910  137.7080 C   0  0  1  0  0  3  0  0  0  0  0  0
  179.7180  176.2600  139.5850 C   0  0  0  0  0  0  0  0  0  0  0  0
  184.5670  179.0140  140.6110 C   0  0  2  0  0  3  0  0  0  0  0  0
  180.0660  175.5390  138.3220 C   0  0  0  0  0  2  0  0  0  0  0  0
  181.4610  178.9940  142.3820 C   0  0  0  0  0  2  0  0  0  0  0  0
  185.5490  175.9620  136.6440 C   0  0  0  0  0  2  0  0  0  0  0  0
  185.4420  178.2240  139.6340 C   0  0  0  0  0  2  0  0  0  0  0  0
  183.3990  173.2200  135.8260 C   0  0  0  0  0  1  0  0  0  0  0  0
  183.8020  173.6610  137.2260 C   0  0  0  0  0  2  0  0  0  0  0  0
  183.3500  177.9120  136.5460 C   0  0  0  0  0  2  0  0  0  0  0  0
  180.9870  177.8610  136.2990 O   0  0  0  0  0  0  0  0  0  0  0  0
  181.9850  178.4530  136.7900 C   0  0  0  0  0  0  0  0  0  0  0  0
  180.9030  180.6220  137.2100 C   0  0  0  0  0  1  0  0  0  0  0  0
  181.8270  179.6030  137.5630 O   0  0  0  0  0  0  0  0  0  0  0  0
  187.8640  176.8040  136.1230 N   0  0  0  0  0  0  0  0  0  0  0  0
  187.7060  175.7230  135.1530 C   0  0  0  0  0  2  0  0  0  0  0  0
  188.6420  174.5840  135.5010 C   0  0  0  0  0  2  0  0  0  0  0  0
  187.8690  173.2820  135.5070 C   0  0  0  0  0  2  0  0  0  0  0  0
  187.8180  172.7330  136.9160 C   0  0  0  0  0  1  0  0  0  0  0  0
  189.0720  176.5290  136.8910 C   0  0  0  0  0  2  0  0  0  0  0  0
  188.8090  176.7210  138.3790 C   0  0  0  0  0  2  0  0  0  0  0  0
  190.7750  177.1030  139.8690 C   0  0  0  0  0  1  0  0  0  0  0  0
  189.7440  177.7640  138.9730 C   0  0  0  0  0  2  0  0  0  0  0  0
  3  1  1  1  0  0  0
  4 29  1  6  0  0  0
  4 14  1  0  0  0  0
  5 17  1  0  0  0  0
  5  3  1  0  0  0  0
  6  8  1  0  0  0  0
  7  9  1  0  0  0  0
  9 14  1  6  0  0  0
  9 21  1  0  0  0  0
 10 11  1  0  0  0  0
 11 19  1  0  0  0  0
 12 10  1  0  0  0  0
 13 23  1  1  0  0  0
 13 15  1  0  0  0  0
 13  8  1  0  0  0  0
 15 20  1  6  0  0  0
 15  7  1  0  0  0  0
 16 12  2  0  0  0  0
 16  2  1  0  0  0  0
 17 21  1  6  0  0  0
 17  3  1  0  0  0  0
 18  6  1  0  0  0  0
 18 16  1  0  0  0  0
 19  1  1  0  0  0  0
 20  4  1  0  0  0  0
 22 23  1  0  0  0  0
 24 26  1  0  0  0  0
 24  7  1  0  0  0  0
 25 26  2  0  0  0  0
 26 28  1  0  0  0  0
 27 28  1  0  0  0  0
 29 34  1  0  0  0  0
 30 31  1  0  0  0  0
 30 29  1  0  0  0  0
 31 32  1  0  0  0  0
 32 33  1  0  0  0  0
 34 35  1  0  0  0  0
 35 37  1  0  0  0  0
 37 36  1  0  0  0  0
M  END
>  <MODEL>
2

>  <REMARK>
 VINA RESULT:      -4.0      1.593      2.318
  Name = 
  11 active torsions:
  status: ('A' for Active; 'I' for Inactive)
    1  A    between atoms: C_1  and  C_23
    2  A    between atoms: C_1  and  N_33
    3  A    between atoms: C_4  and  N_10
    4  A    between atoms: C_4  and  C_24
    5  A    between atoms: C_5  and  C_23
    6  A    between atoms: C_7  and  N_33
    7  A    between atoms: C_17  and  C_26
    8  A    between atoms: C_17  and  N_33
    9  A    between atoms: C_20  and  C_25
   10  A    between atoms: C_24  and  O_28
   11  A    between atoms: C_26  and  C_34
                            x       y       z     vdW  Elec       q    Type
                         _______ _______ _______ _____ _____    ______ ____

>  <TORSDO>
F 11

$$$$
=
 OpenBabel11052415273D

 37 39  0  0  1  0  0  0  0  0999 V2000
  180.4200  175.5860  139.8160 C   0  0  0  0  0  2  0  0  0  0  0  0
  180.3770  171.1580  136.7770 C   0  0  0  0  0  1  0  0  0  0  0  0
  181.7370  175.6670  139.0580 C   0  0  1  0  0  3  0  0  0  0  0  0
  186.7580  176.9610  137.7410 C   0  0  1  0  0  3  0  0  0  0  0  0
  181.6080  176.5600  137.9820 O   0  0  0  0  0  0  0  0  0  0  0  0
  183.4950  171.7220  136.4500 C   0  0  0  0  0  2  0  0  0  0  0  0
  184.2090  175.8740  136.7720 N   0  0  0  0  0  0  0  0  0  0  0  0
  183.9370  172.9200  137.2770 C   0  0  0  0  0  2  0  0  0  0  0  0
  184.2380  177.1710  137.4760 C   0  0  2  0  0  3  0  0  0  0  0  0
  179.3640  173.9210  137.0500 C   0  0  0  0  0  2  0  0  0  0  0  0
  179.5700  173.8210  138.4290 O   0  0  0  0  0  0  0  0  0  0  0  0
  180.6290  173.5800  136.3190 C   0  0  0  0  0  3  0  0  0  0  0  0
  185.1770  173.5760  136.6770 C   0  0  1  0  0  3  0  0  0  0  0  0
  185.5960  177.8840  137.3700 C   0  0  0  0  0  2  0  0  0  0  0  0
  185.3180  175.0070  137.2200 C   0  0  1  0  0  3  0  0  0  0  0  0
  181.0990  172.3340  136.1950 C   0  0  0  0  0  0  0  0  0  0  0  0
  182.2820  177.0440  139.1200 C   0  0  2  0  0  3  0  0  0  0  0  0
  182.3930  172.1160  135.4780 C   0  0  0  0  0  2  0  0  0  0  0  0
  179.2890  175.0980  138.9190 C   0  0  0  0  0  2  0  0  0  0  0  0
  186.6830  175.6470  136.9540 C   0  0  0  0  0  2  0  0  0  0  0  0
  183.8010  177.0050  138.9330 C   0  0  0  0  0  2  0  0  0  0  0  0
  186.8440  171.9250  135.6970 C   0  0  0  0  0  1  0  0  0  0  0  0
  186.4200  172.7120  136.9290 C   0  0  0  0  0  2  0  0  0  0  0  0
  184.2770  176.1150  135.3290 C   0  0  0  0  0  2  0  0  0  0  0  0
  183.0850  178.0350  134.5940 O   0  0  0  0  0  0  0  0  0  0  0  0
  183.0420  176.8060  134.8680 C   0  0  0  0  0  0  0  0  0  0  0  0
  180.5980  176.7300  134.5940 C   0  0  0  0  0  1  0  0  0  0  0  0
  181.8540  176.0850  134.7400 O   0  0  0  0  0  0  0  0  0  0  0  0
  188.0460  177.6610  137.6070 N   0  0  0  0  0  0  0  0  0  0  0  0
  188.8500  177.0930  136.5280 C   0  0  0  0  0  2  0  0  0  0  0  0
  190.1090  176.4740  137.1000 C   0  0  0  0  0  2  0  0  0  0  0  0
  191.0140  176.0390  135.9680 C   0  0  0  0  0  2  0  0  0  0  0  0
  190.6440  174.6350  135.5380 C   0  0  0  0  0  1  0  0  0  0  0  0
  188.7990  177.5010  138.8450 C   0  0  0  0  0  2  0  0  0  0  0  0
  188.1640  178.3190  139.9620 C   0  0  0  0  0  2  0  0  0  0  0  0
  189.8650  177.1270  141.3460 C   0  0  0  0  0  1  0  0  0  0  0  0
  188.4670  177.7160  141.3250 C   0  0  0  0  0  2  0  0  0  0  0  0
  3 17  1  0  0  0  0
  3  1  1  1  0  0  0
  4 29  1  6  0  0  0
  5  3  1  0  0  0  0
  5 17  1  0  0  0  0
  6  8  1  0  0  0  0
  7 15  1  0  0  0  0
  7  9  1  0  0  0  0
  9 14  1  1  0  0  0
  9 21  1  0  0  0  0
 10 11  1  0  0  0  0
 11 19  1  0  0  0  0
 12 10  1  0  0  0  0
 13 23  1  1  0  0  0
 13 15  1  0  0  0  0
 13  8  1  0  0  0  0
 14  4  1  0  0  0  0
 15 20  1  6  0  0  0
 16 12  2  0  0  0  0
 16  2  1  0  0  0  0
 17 21  1  6  0  0  0
 18 16  1  0  0  0  0
 18  6  1  0  0  0  0
 19  1  1  0  0  0  0
 20  4  1  0  0  0  0
 22 23  1  0  0  0  0
 24  7  1  0  0  0  0
 25 26  2  0  0  0  0
 26 24  1  0  0  0  0
 27 28  1  0  0  0  0
 28 26  1  0  0  0  0
 29 34  1  0  0  0  0
 30 31  1  0  0  0  0
 30 29  1  0  0  0  0
 32 31  1  0  0  0  0
 33 32  1  0  0  0  0
 34 35  1  0  0  0  0
 35 37  1  0  0  0  0
 37 36  1  0  0  0  0
M  END
>  <MODEL>
3

>  <REMARK>
 VINA RESULT:      -3.9      3.014      5.462
  Name = 
  11 active torsions:
  status: ('A' for Active; 'I' for Inactive)
    1  A    between atoms: C_1  and  C_23
    2  A    between atoms: C_1  and  N_33
    3  A    between atoms: C_4  and  N_10
    4  A    between atoms: C_4  and  C_24
    5  A    between atoms: C_5  and  C_23
    6  A    between atoms: C_7  and  N_33
    7  A    between atoms: C_17  and  C_26
    8  A    between atoms: C_17  and  N_33
    9  A    between atoms: C_20  and  C_25
   10  A    between atoms: C_24  and  O_28
   11  A    between atoms: C_26  and  C_34
                            x       y       z     vdW  Elec       q    Type
                         _______ _______ _______ _____ _____    ______ ____

>  <TORSDO>
F 11

$$$$
=
 OpenBabel11052415273D

 37 39  0  0  1  0  0  0  0  0999 V2000
  187.1380  172.7560  136.6360 C   0  0  0  0  0  2  0  0  0  0  0  0
  192.1540  174.4600  137.5230 C   0  0  0  0  0  1  0  0  0  0  0  0
  186.9380  174.1390  137.2380 C   0  0  1  0  0  3  0  0  0  0  0  0
  184.6940  178.3130  139.7200 C   0  0  1  0  0  3  0  0  0  0  0  0
  186.6690  175.0640  136.2160 O   0  0  0  0  0  0  0  0  0  0  0  0
  190.7590  176.6220  139.4020 C   0  0  0  0  0  2  0  0  0  0  0  0
  186.8720  177.4340  137.9600 N   0  0  0  0  0  0  0  0  0  0  0  0
  189.2570  176.4080  139.4830 C   0  0  0  0  0  2  0  0  0  0  0  0
  185.4750  177.0930  137.6300 C   0  0  2  0  0  3  0  0  0  0  0  0
  190.0440  174.0890  135.4880 C   0  0  0  0  0  2  0  0  0  0  0  0
  189.4900  173.0920  136.2960 O   0  0  0  0  0  0  0  0  0  0  0  0
  190.2070  175.3540  136.2760 C   0  0  0  0  0  3  0  0  0  0  0  0
  188.5310  177.7110  139.8040 C   0  0  1  0  0  3  0  0  0  0  0  0
  184.4570  178.0790  138.2270 C   0  0  0  0  0  2  0  0  0  0  0  0
  187.0480  177.5850  139.4190 C   0  0  1  0  0  3  0  0  0  0  0  0
  191.1550  175.5290  137.2050 C   0  0  0  0  0  0  0  0  0  0  0  0
  185.5630  174.6230  136.9680 C   0  0  2  0  0  3  0  0  0  0  0  0
  191.1990  176.8200  137.9590 C   0  0  0  0  0  2  0  0  0  0  0  0
  188.3030  172.7380  135.6530 C   0  0  0  0  0  2  0  0  0  0  0  0
  186.1550  178.6900  139.9870 C   0  0  0  0  0  2  0  0  0  0  0  0
  185.1620  175.6490  138.0310 C   0  0  0  0  0  2  0  0  0  0  0  0
  188.4960  176.9300  142.2230 C   0  0  0  0  0  1  0  0  0  0  0  0
  188.7380  178.0960  141.2750 C   0  0  0  0  0  2  0  0  0  0  0  0
  187.2400  178.6630  137.2540 C   0  0  0  0  0  2  0  0  0  0  0  0
  189.3350  178.4410  136.1550 O   0  0  0  0  0  0  0  0  0  0  0  0
  188.0830  178.3390  136.0700 C   0  0  0  0  0  0  0  0  0  0  0  0
  186.1080  178.1830  134.6120 C   0  0  0  0  0  1  0  0  0  0  0  0
  187.4760  177.9220  134.8850 O   0  0  0  0  0  0  0  0  0  0  0  0
  183.7220  179.2790  140.2590 N   0  0  0  0  0  0  0  0  0  0  0  0
  182.9760  178.7130  141.3790 C   0  0  0  0  0  2  0  0  0  0  0  0
  183.8400  178.7200  142.6240 C   0  0  0  0  0  2  0  0  0  0  0  0
  182.9960  179.1000  143.8210 C   0  0  0  0  0  2  0  0  0  0  0  0
  181.5360  179.1250  143.4200 C   0  0  0  0  0  1  0  0  0  0  0  0
  182.7600  179.6100  139.2150 C   0  0  0  0  0  2  0  0  0  0  0  0
  181.3370  179.4180  139.7240 C   0  0  0  0  0  2  0  0  0  0  0  0
  180.7180  179.5320  137.3090 C   0  0  0  0  0  1  0  0  0  0  0  0
  180.4350  178.8550  138.6360 C   0  0  0  0  0  2  0  0  0  0  0  0
  3  1  1  6  0  0  0
  4 20  1  0  0  0  0
  4 29  1  6  0  0  0
  5 17  1  0  0  0  0
  5  3  1  0  0  0  0
  6  8  1  0  0  0  0
  7 15  1  0  0  0  0
  8 13  1  0  0  0  0
  9  7  1  0  0  0  0
  9 21  1  1  0  0  0
  9 14  1  0  0  0  0
 10 12  1  0  0  0  0
 10 11  1  0  0  0  0
 12 16  2  0  0  0  0
 13 23  1  1  0  0  0
 14  4  1  0  0  0  0
 15 13  1  0  0  0  0
 15 20  1  6  0  0  0
 16  2  1  0  0  0  0
 16 18  1  0  0  0  0
 17  3  1  0  0  0  0
 17 21  1  1  0  0  0
 18  6  1  0  0  0  0
 19 11  1  0  0  0  0
 19  1  1  0  0  0  0
 23 22  1  0  0  0  0
 24  7  1  0  0  0  0
 26 25  2  0  0  0  0
 26 24  1  0  0  0  0
 27 28  1  0  0  0  0
 28 26  1  0  0  0  0
 29 30  1  0  0  0  0
 30 31  1  0  0  0  0
 31 32  1  0  0  0  0
 33 32  1  0  0  0  0
 34 35  1  0  0  0  0
 34 29  1  0  0  0  0
 36 37  1  0  0  0  0
 37 35  1  0  0  0  0
M  END
>  <MODEL>
4

>  <REMARK>
 VINA RESULT:      -3.6      3.198      8.338
  Name = 
  11 active torsions:
  status: ('A' for Active; 'I' for Inactive)
    1  A    between atoms: C_1  and  C_23
    2  A    between atoms: C_1  and  N_33
    3  A    between atoms: C_4  and  N_10
    4  A    between atoms: C_4  and  C_24
    5  A    between atoms: C_5  and  C_23
    6  A    between atoms: C_7  and  N_33
    7  A    between atoms: C_17  and  C_26
    8  A    between atoms: C_17  and  N_33
    9  A    between atoms: C_20  and  C_25
   10  A    between atoms: C_24  and  O_28
   11  A    between atoms: C_26  and  C_34
                            x       y       z     vdW  Elec       q    Type
                         _______ _______ _______ _____ _____    ______ ____

>  <TORSDO>
F 11

$$$$
=
 OpenBabel11052415273D

 37 39  0  0  1  0  0  0  0  0999 V2000
  180.3640  181.5750  139.3820 C   0  0  0  0  0  2  0  0  0  0  0  0
  179.7070  179.6650  144.3590 C   0  0  0  0  0  1  0  0  0  0  0  0
  181.6050  180.7220  139.5980 C   0  0  1  0  0  3  0  0  0  0  0  0
  186.5590  178.7620  139.1090 C   0  0  1  0  0  3  0  0  0  0  0  0
  181.4400  179.4800  138.9630 O   0  0  0  0  0  0  0  0  0  0  0  0
  182.8130  178.9810  144.1760 C   0  0  0  0  0  2  0  0  0  0  0  0
  183.8570  178.2690  140.1440 N   0  0  0  0  0  0  0  0  0  0  0  0
  183.4180  179.4690  142.8700 C   0  0  0  0  0  2  0  0  0  0  0  0
  184.0470  178.6470  138.7310 C   0  0  2  0  0  3  0  0  0  0  0  0
  178.9310  179.3620  141.5240 C   0  0  0  0  0  2  0  0  0  0  0  0
  179.2590  180.7060  141.3280 O   0  0  0  0  0  0  0  0  0  0  0  0
  180.0910  178.6370  142.1370 C   0  0  0  0  0  3  0  0  0  0  0  0
  184.6400  178.6400  142.4850 C   0  0  1  0  0  3  0  0  0  0  0  0
  185.4380  178.2750  138.1900 C   0  0  0  0  0  2  0  0  0  0  0  0
  184.9370  178.8220  140.9870 C   0  0  1  0  0  3  0  0  0  0  0  0
  180.4550  178.7730  143.4180 C   0  0  0  0  0  0  0  0  0  0  0  0
  182.2520  180.4190  138.2990 C   0  0  2  0  0  3  0  0  0  0  0  0
  181.6560  178.0290  143.9120 C   0  0  0  0  0  2  0  0  0  0  0  0
  179.1200  180.9050  139.9530 C   0  0  0  0  0  2  0  0  0  0  0  0
  186.3130  178.3110  140.5540 C   0  0  0  0  0  2  0  0  0  0  0  0
  183.7400  180.1310  138.5210 C   0  0  0  0  0  2  0  0  0  0  0  0
  186.1460  177.9000  144.3950 C   0  0  0  0  0  1  0  0  0  0  0  0
  185.8350  178.9920  143.3810 C   0  0  0  0  0  2  0  0  0  0  0  0
  183.8040  176.8090  140.2430 C   0  0  0  0  0  2  0  0  0  0  0  0
  181.4680  176.6110  139.8510 O   0  0  0  0  0  0  0  0  0  0  0  0
  182.6310  176.2880  139.4900 C   0  0  0  0  0  0  0  0  0  0  0  0
  181.7490  174.9280  137.6390 C   0  0  0  0  0  1  0  0  0  0  0  0
  182.8330  175.4540  138.3890 O   0  0  0  0  0  0  0  0  0  0  0  0
  187.8760  178.3710  138.5800 N   0  0  0  0  0  0  0  0  0  0  0  0
  187.8780  176.9800  138.1350 C   0  0  0  0  0  2  0  0  0  0  0  0
  188.3700  176.9010  136.7040 C   0  0  0  0  0  2  0  0  0  0  0  0
  189.7580  176.2980  136.6820 C   0  0  0  0  0  2  0  0  0  0  0  0
  190.1270  175.9350  135.2590 C   0  0  0  0  0  1  0  0  0  0  0  0
  188.8650  178.4920  139.6440 C   0  0  0  0  0  2  0  0  0  0  0  0
  189.4620  177.1290  139.9720 C   0  0  0  0  0  2  0  0  0  0  0  0
  191.2430  177.1430  141.7210 C   0  0  0  0  0  1  0  0  0  0  0  0
  189.7550  177.0000  141.4590 C   0  0  0  0  0  2  0  0  0  0  0  0
  1 19  1  0  0  0  0
  3  1  1  6  0  0  0
  4 29  1  6  0  0  0
  4 20  1  0  0  0  0
  5  3  1  0  0  0  0
  7 24  1  0  0  0  0
  7 15  1  0  0  0  0
  8  6  1  0  0  0  0
  9 14  1  1  0  0  0
  9  7  1  0  0  0  0
 10 12  1  0  0  0  0
 11 10  1  0  0  0  0
 12 16  2  0  0  0  0
 13  8  1  0  0  0  0
 13 23  1  1  0  0  0
 14  4  1  0  0  0  0
 15 20  1  6  0  0  0
 15 13  1  0  0  0  0
 16 18  1  0  0  0  0
 16  2  1  0  0  0  0
 17 21  1  1  0  0  0
 17  5  1  0  0  0  0
 17  3  1  0  0  0  0
 18  6  1  0  0  0  0
 19 11  1  0  0  0  0
 21  9  1  0  0  0  0
 23 22  1  0  0  0  0
 26 25  2  0  0  0  0
 26 24  1  0  0  0  0
 27 28  1  0  0  0  0
 28 26  1  0  0  0  0
 29 34  1  0  0  0  0
 30 29  1  0  0  0  0
 31 30  1  0  0  0  0
 32 31  1  0  0  0  0
 33 32  1  0  0  0  0
 34 35  1  0  0  0  0
 35 37  1  0  0  0  0
 37 36  1  0  0  0  0
M  END
>  <MODEL>
5

>  <REMARK>
 VINA RESULT:      -3.5      2.025      4.610
  Name = 
  11 active torsions:
  status: ('A' for Active; 'I' for Inactive)
    1  A    between atoms: C_1  and  C_23
    2  A    between atoms: C_1  and  N_33
    3  A    between atoms: C_4  and  N_10
    4  A    between atoms: C_4  and  C_24
    5  A    between atoms: C_5  and  C_23
    6  A    between atoms: C_7  and  N_33
    7  A    between atoms: C_17  and  C_26
    8  A    between atoms: C_17  and  N_33
    9  A    between atoms: C_20  and  C_25
   10  A    between atoms: C_24  and  O_28
   11  A    between atoms: C_26  and  C_34
                            x       y       z     vdW  Elec       q    Type
                         _______ _______ _______ _____ _____    ______ ____

>  <TORSDO>
F 11

$$$$
=
 OpenBabel11052415273D

 37 39  0  0  1  0  0  0  0  0999 V2000
  179.7990  181.0960  139.7370 C   0  0  0  0  0  2  0  0  0  0  0  0
  182.6630  180.0880  144.1670 C   0  0  0  0  0  1  0  0  0  0  0  0
  180.8700  180.1310  139.2510 C   0  0  1  0  0  3  0  0  0  0  0  0
  184.2320  177.4870  136.0370 C   0  0  1  0  0  3  0  0  0  0  0  0
  180.3320  178.8380  139.1520 O   0  0  0  0  0  0  0  0  0  0  0  0
  184.8490  178.9820  142.1310 C   0  0  0  0  0  2  0  0  0  0  0  0
  182.9250  177.5200  138.6650 N   0  0  0  0  0  0  0  0  0  0  0  0
  184.4190  179.1770  140.6870 C   0  0  0  0  0  2  0  0  0  0  0  0
  182.1160  177.6450  137.4380 C   0  0  2  0  0  3  0  0  0  0  0  0
  180.1880  179.4510  142.6840 C   0  0  0  0  0  2  0  0  0  0  0  0
  180.2900  180.6930  142.0520 O   0  0  0  0  0  0  0  0  0  0  0  0
  181.4660  178.6840  142.5130 C   0  0  0  0  0  3  0  0  0  0  0  0
  185.0730  178.1450  139.7720 C   0  0  1  0  0  3  0  0  0  0  0  0
  182.7870  177.0140  136.2070 C   0  0  0  0  0  2  0  0  0  0  0  0
  184.2880  178.0510  138.4540 C   0  0  1  0  0  3  0  0  0  0  0  0
  182.5930  178.9690  143.1750 C   0  0  0  0  0  0  0  0  0  0  0  0
  180.4820  179.5480  137.9450 C   0  0  2  0  0  3  0  0  0  0  0  0
  183.8210  178.1610  142.8950 C   0  0  0  0  0  2  0  0  0  0  0  0
  179.2640  180.6920  141.1060 C   0  0  0  0  0  2  0  0  0  0  0  0
  185.0220  177.3030  137.3390 C   0  0  0  0  0  2  0  0  0  0  0  0
  181.7360  179.1060  137.1860 C   0  0  0  0  0  2  0  0  0  0  0  0
  187.4490  177.8340  140.6210 C   0  0  0  0  0  1  0  0  0  0  0  0
  186.5580  178.4730  139.5650 C   0  0  0  0  0  2  0  0  0  0  0  0
  182.9630  176.1130  139.0690 C   0  0  0  0  0  2  0  0  0  0  0  0
  181.1580  174.7200  138.4000 O   0  0  0  0  0  0  0  0  0  0  0  0
  181.5790  175.5850  139.2130 C   0  0  0  0  0  0  0  0  0  0  0  0
  179.4720  175.5170  140.4810 C   0  0  0  0  0  1  0  0  0  0  0  0
  180.7670  176.0500  140.2480 O   0  0  0  0  0  0  0  0  0  0  0  0
  184.8570  176.8490  134.8670 N   0  0  0  0  0  0  0  0  0  0  0  0
  184.2640  175.5420  134.5950 C   0  0  0  0  0  2  0  0  0  0  0  0
  185.1870  174.4480  135.0940 C   0  0  0  0  0  2  0  0  0  0  0  0
  184.5210  173.7120  136.2360 C   0  0  0  0  0  2  0  0  0  0  0  0
  183.1450  173.2490  135.8030 C   0  0  0  0  0  1  0  0  0  0  0  0
  186.2720  176.6380  135.1460 C   0  0  0  0  0  2  0  0  0  0  0  0
  187.0970  177.8050  134.6180 C   0  0  0  0  0  2  0  0  0  0  0  0
  188.6210  177.4460  136.5620 C   0  0  0  0  0  1  0  0  0  0  0  0
  188.5460  177.7020  135.0680 C   0  0  0  0  0  2  0  0  0  0  0  0
  1 19  1  0  0  0  0
  3  1  1  1  0  0  0
  4 29  1  6  0  0  0
  4 14  1  0  0  0  0
  4 20  1  0  0  0  0
  5  3  1  0  0  0  0
  6 18  1  0  0  0  0
  7 24  1  0  0  0  0
  8  6  1  0  0  0  0
  9 14  1  6  0  0  0
  9  7  1  0  0  0  0
 11 10  1  0  0  0  0
 12 10  1  0  0  0  0
 12 16  2  0  0  0  0
 13 23  1  6  0  0  0
 13  8  1  0  0  0  0
 15 20  1  6  0  0  0
 15  7  1  0  0  0  0
 15 13  1  0  0  0  0
 16  2  1  0  0  0  0
 17 21  1  6  0  0  0
 17  5  1  0  0  0  0
 17  3  1  0  0  0  0
 18 16  1  0  0  0  0
 19 11  1  0  0  0  0
 21  9  1  0  0  0  0
 23 22  1  0  0  0  0
 24 26  1  0  0  0  0
 25 26  2  0  0  0  0
 26 28  1  0  0  0  0
 28 27  1  0  0  0  0
 29 34  1  0  0  0  0
 30 29  1  0  0  0  0
 30 31  1  0  0  0  0
 31 32  1  0  0  0  0
 33 32  1  0  0  0  0
 35 37  1  0  0  0  0
 35 34  1  0  0  0  0
 37 36  1  0  0  0  0
M  END
>  <MODEL>
6

>  <REMARK>
 VINA RESULT:      -3.4      1.919      4.114
  Name = 
  11 active torsions:
  status: ('A' for Active; 'I' for Inactive)
    1  A    between atoms: C_1  and  C_23
    2  A    between atoms: C_1  and  N_33
    3  A    between atoms: C_4  and  N_10
    4  A    between atoms: C_4  and  C_24
    5  A    between atoms: C_5  and  C_23
    6  A    between atoms: C_7  and  N_33
    7  A    between atoms: C_17  and  C_26
    8  A    between atoms: C_17  and  N_33
    9  A    between atoms: C_20  and  C_25
   10  A    between atoms: C_24  and  O_28
   11  A    between atoms: C_26  and  C_34
                            x       y       z     vdW  Elec       q    Type
                         _______ _______ _______ _____ _____    ______ ____

>  <TORSDO>
F 11

$$$$
=
 OpenBabel11052415273D

 37 39  0  0  1  0  0  0  0  0999 V2000
  180.8740  181.8320  138.9600 C   0  0  0  0  0  2  0  0  0  0  0  0
  179.2170  180.0490  143.7480 C   0  0  0  0  0  1  0  0  0  0  0  0
  181.9940  180.8980  139.3940 C   0  0  1  0  0  3  0  0  0  0  0  0
  186.8050  178.5920  139.7950 C   0  0  1  0  0  3  0  0  0  0  0  0
  181.8560  179.6610  138.7440 O   0  0  0  0  0  0  0  0  0  0  0  0
  182.2500  179.1480  144.1190 C   0  0  0  0  0  2  0  0  0  0  0  0
  183.9350  178.3040  140.3370 N   0  0  0  0  0  0  0  0  0  0  0  0
  183.1090  179.5730  142.9390 C   0  0  0  0  0  2  0  0  0  0  0  0
  184.3970  178.6460  138.9790 C   0  0  2  0  0  3  0  0  0  0  0  0
  178.9320  179.7560  140.8210 C   0  0  0  0  0  2  0  0  0  0  0  0
  179.3850  181.0710  140.6820 O   0  0  0  0  0  0  0  0  0  0  0  0
  179.9120  178.9620  141.6320 C   0  0  0  0  0  3  0  0  0  0  0  0
  184.3180  178.6550  142.7780 C   0  0  1  0  0  3  0  0  0  0  0  0
  185.8320  178.1700  138.6930 C   0  0  0  0  0  2  0  0  0  0  0  0
  184.8860  178.7930  141.3570 C   0  0  1  0  0  3  0  0  0  0  0  0
  180.0540  179.0920  142.9560 C   0  0  0  0  0  0  0  0  0  0  0  0
  182.8370  180.5310  138.2310 C   0  0  2  0  0  3  0  0  0  0  0  0
  181.0930  178.2750  143.6570 C   0  0  0  0  0  2  0  0  0  0  0  0
  179.5040  181.2580  139.3040 C   0  0  0  0  0  2  0  0  0  0  0  0
  186.2770  178.1820  141.1750 C   0  0  0  0  0  2  0  0  0  0  0  0
  184.2380  180.1450  138.7140 C   0  0  0  0  0  2  0  0  0  0  0  0
  185.3370  177.8940  144.9790 C   0  0  0  0  0  1  0  0  0  0  0  0
  185.3580  178.9380  143.8710 C   0  0  0  0  0  2  0  0  0  0  0  0
  183.7620  176.8530  140.4300 C   0  0  0  0  0  2  0  0  0  0  0  0
  183.5270  175.6320  138.4040 O   0  0  0  0  0  0  0  0  0  0  0  0
  182.9710  176.3580  139.2700 C   0  0  0  0  0  0  0  0  0  0  0  0
  180.5950  175.8650  139.6760 C   0  0  0  0  0  1  0  0  0  0  0  0
  181.6220  176.6980  139.1600 O   0  0  0  0  0  0  0  0  0  0  0  0
  188.1640  178.1030  139.5080 N   0  0  0  0  0  0  0  0  0  0  0  0
  189.0470  178.2870  140.6560 C   0  0  0  0  0  2  0  0  0  0  0  0
  189.4340  176.9360  141.2250 C   0  0  0  0  0  2  0  0  0  0  0  0
  190.0290  177.1230  142.6040 C   0  0  0  0  0  2  0  0  0  0  0  0
  188.9240  177.0950  143.6380 C   0  0  0  0  0  1  0  0  0  0  0  0
  188.7170  178.8740  138.4020 C   0  0  0  0  0  2  0  0  0  0  0  0
  188.4770  178.1540  137.0810 C   0  0  0  0  0  2  0  0  0  0  0  0
  190.6780  177.0570  137.5080 C   0  0  0  0  0  1  0  0  0  0  0  0
  189.2570  176.8500  137.0150 C   0  0  0  0  0  2  0  0  0  0  0  0
  1 19  1  0  0  0  0
  3  1  1  6  0  0  0
  4 29  1  6  0  0  0
  4 20  1  0  0  0  0
  5  3  1  0  0  0  0
  7 24  1  0  0  0  0
  7 15  1  0  0  0  0
  8  6  1  0  0  0  0
  9 14  1  1  0  0  0
  9  7  1  0  0  0  0
 10 12  1  0  0  0  0
 11 10  1  0  0  0  0
 12 16  2  0  0  0  0
 13  8  1  0  0  0  0
 13 23  1  1  0  0  0
 14  4  1  0  0  0  0
 15 20  1  1  0  0  0
 15 13  1  0  0  0  0
 16 18  1  0  0  0  0
 16  2  1  0  0  0  0
 17 21  1  1  0  0  0
 17  5  1  0  0  0  0
 17  3  1  0  0  0  0
 18  6  1  0  0  0  0
 19 11  1  0  0  0  0
 21  9  1  0  0  0  0
 23 22  1  0  0  0  0
 25 26  2  0  0  0  0
 26 24  1  0  0  0  0
 28 26  1  0  0  0  0
 28 27  1  0  0  0  0
 29 30  1  0  0  0  0
 30 31  1  0  0  0  0
 31 32  1  0  0  0  0
 32 33  1  0  0  0  0
 34 29  1  0  0  0  0
 35 34  1  0  0  0  0
 37 35  1  0  0  0  0
 37 36  1  0  0  0  0
M  END
>  <MODEL>
7

>  <REMARK>
 VINA RESULT:      -3.1      2.225      4.761
  Name = 
  11 active torsions:
  status: ('A' for Active; 'I' for Inactive)
    1  A    between atoms: C_1  and  C_23
    2  A    between atoms: C_1  and  N_33
    3  A    between atoms: C_4  and  N_10
    4  A    between atoms: C_4  and  C_24
    5  A    between atoms: C_5  and  C_23
    6  A    between atoms: C_7  and  N_33
    7  A    between atoms: C_17  and  C_26
    8  A    between atoms: C_17  and  N_33
    9  A    between atoms: C_20  and  C_25
   10  A    between atoms: C_24  and  O_28
   11  A    between atoms: C_26  and  C_34
                            x       y       z     vdW  Elec       q    Type
                         _______ _______ _______ _____ _____    ______ ____

>  <TORSDO>
F 11

$$$$
=
 OpenBabel11052415273D

 37 39  0  0  1  0  0  0  0  0999 V2000
  180.0530  181.5920  139.3720 C   0  0  0  0  0  2  0  0  0  0  0  0
  180.4700  180.0320  144.4940 C   0  0  0  0  0  1  0  0  0  0  0  0
  181.2430  180.6440  139.3550 C   0  0  1  0  0  3  0  0  0  0  0  0
  185.7750  178.2200  137.8680 C   0  0  1  0  0  3  0  0  0  0  0  0
  180.8380  179.3880  138.8720 O   0  0  0  0  0  0  0  0  0  0  0  0
  183.3810  179.0600  143.6410 C   0  0  0  0  0  2  0  0  0  0  0  0
  183.3710  178.0330  139.5420 N   0  0  0  0  0  0  0  0  0  0  0  0
  183.6890  179.4180  142.1960 C   0  0  0  0  0  2  0  0  0  0  0  0
  183.2440  178.3120  138.0990 C   0  0  2  0  0  3  0  0  0  0  0  0
  179.0150  179.6410  141.9520 C   0  0  0  0  0  2  0  0  0  0  0  0
  179.3860  180.9370  141.5830 O   0  0  0  0  0  0  0  0  0  0  0  0
  180.2310  178.8500  142.3290 C   0  0  0  0  0  3  0  0  0  0  0  0
  184.7180  178.4620  141.5990 C   0  0  1  0  0  3  0  0  0  0  0  0
  184.4320  177.7860  137.2770 C   0  0  0  0  0  2  0  0  0  0  0  0
  184.6600  178.5320  140.0650 C   0  0  1  0  0  3  0  0  0  0  0  0
  180.9010  179.0240  143.4750 C   0  0  0  0  0  0  0  0  0  0  0  0
  181.5350  180.2120  137.9670 C   0  0  2  0  0  3  0  0  0  0  0  0
  182.1270  178.2040  143.7290 C   0  0  0  0  0  2  0  0  0  0  0  0
  178.9360  181.0700  140.2680 C   0  0  0  0  0  2  0  0  0  0  0  0
  185.8500  177.8760  139.3600 C   0  0  0  0  0  2  0  0  0  0  0  0
  183.0070  179.8040  137.8560 C   0  0  0  0  0  2  0  0  0  0  0  0
  186.5600  177.7210  143.1880 C   0  0  0  0  0  1  0  0  0  0  0  0
  186.1170  178.7540  142.1610 C   0  0  0  0  0  2  0  0  0  0  0  0
  183.2350  176.5920  139.7620 C   0  0  0  0  0  2  0  0  0  0  0  0
  180.9040  176.5620  140.2230 O   0  0  0  0  0  0  0  0  0  0  0  0
  181.8380  176.1610  139.4800 C   0  0  0  0  0  0  0  0  0  0  0  0
  182.6260  174.7050  137.6600 C   0  0  0  0  0  1  0  0  0  0  0  0
  181.5800  175.3250  138.3930 O   0  0  0  0  0  0  0  0  0  0  0  0
  186.8930  177.6830  137.0760 N   0  0  0  0  0  0  0  0  0  0  0  0
  188.1270  178.4220  137.3310 C   0  0  0  0  0  2  0  0  0  0  0  0
  189.1770  177.4850  137.8930 C   0  0  0  0  0  2  0  0  0  0  0  0
  189.7540  178.0780  139.1600 C   0  0  0  0  0  2  0  0  0  0  0  0
  189.3620  177.2180  140.3430 C   0  0  0  0  0  1  0  0  0  0  0  0
  186.5800  177.8290  135.6600 C   0  0  0  0  0  2  0  0  0  0  0  0
  186.5520  176.4660  134.9800 C   0  0  0  0  0  2  0  0  0  0  0  0
  186.2320  174.4750  136.4510 C   0  0  0  0  0  1  0  0  0  0  0  0
  187.2490  175.4130  135.8290 C   0  0  0  0  0  2  0  0  0  0  0  0
  1 19  1  0  0  0  0
  3  1  1  6  0  0  0
  4 29  1  6  0  0  0
  4 20  1  0  0  0  0
  5  3  1  0  0  0  0
  6 18  1  0  0  0  0
  7 24  1  0  0  0  0
  7 15  1  0  0  0  0
  8  6  1  0  0  0  0
  9 14  1  6  0  0  0
  9  7  1  0  0  0  0
 10 12  1  0  0  0  0
 11 10  1  0  0  0  0
 12 16  2  0  0  0  0
 13 23  1  1  0  0  0
 13  8  1  0  0  0  0
 14  4  1  0  0  0  0
 15 20  1  6  0  0  0
 15 13  1  0  0  0  0
 16 18  1  0  0  0  0
 16  2  1  0  0  0  0
 17 21  1  1  0  0  0
 17  5  1  0  0  0  0
 17  3  1  0  0  0  0
 19 11  1  0  0  0  0
 21  9  1  0  0  0  0
 23 22  1  0  0  0  0
 26 24  1  0  0  0  0
 26 25  2  0  0  0  0
 27 28  1  0  0  0  0
 28 26  1  0  0  0  0
 29 30  1  0  0  0  0
 30 31  1  0  0  0  0
 31 32  1  0  0  0  0
 32 33  1  0  0  0  0
 34 29  1  0  0  0  0
 35 34  1  0  0  0  0
 35 37  1  0  0  0  0
 37 36  1  0  0  0  0
M  END
>  <MODEL>
8

>  <REMARK>
 VINA RESULT:      -3.0      1.660      4.485
  Name = 
  11 active torsions:
  status: ('A' for Active; 'I' for Inactive)
    1  A    between atoms: C_1  and  C_23
    2  A    between atoms: C_1  and  N_33
    3  A    between atoms: C_4  and  N_10
    4  A    between atoms: C_4  and  C_24
    5  A    between atoms: C_5  and  C_23
    6  A    between atoms: C_7  and  N_33
    7  A    between atoms: C_17  and  C_26
    8  A    between atoms: C_17  and  N_33
    9  A    between atoms: C_20  and  C_25
   10  A    between atoms: C_24  and  O_28
   11  A    between atoms: C_26  and  C_34
                            x       y       z     vdW  Elec       q    Type
                         _______ _______ _______ _____ _____    ______ ____

>  <TORSDO>
F 11

$$$$
=
 OpenBabel11052415273D

 37 39  0  0  1  0  0  0  0  0999 V2000
  186.7620  172.5940  136.8020 C   0  0  0  0  0  2  0  0  0  0  0  0
  191.6270  174.7090  137.6400 C   0  0  0  0  0  1  0  0  0  0  0  0
  186.4560  174.0250  137.2190 C   0  0  1  0  0  3  0  0  0  0  0  0
  183.8680  178.3210  139.0800 C   0  0  1  0  0  3  0  0  0  0  0  0
  186.1760  174.7980  136.0800 O   0  0  0  0  0  0  0  0  0  0  0  0
  190.0310  176.9920  139.1850 C   0  0  0  0  0  2  0  0  0  0  0  0
  186.1660  177.3720  137.5200 N   0  0  0  0  0  0  0  0  0  0  0  0
  188.5410  176.6950  139.2400 C   0  0  0  0  0  2  0  0  0  0  0  0
  184.8070  176.9050  137.1880 C   0  0  2  0  0  3  0  0  0  0  0  0
  189.6310  173.9570  135.5960 C   0  0  0  0  0  2  0  0  0  0  0  0
  189.1030  173.0340  136.5030 O   0  0  0  0  0  0  0  0  0  0  0  0
  189.6860  175.3170  136.2250 C   0  0  0  0  0  3  0  0  0  0  0  0
  187.7270  177.9790  139.3710 C   0  0  1  0  0  3  0  0  0  0  0  0
  183.7080  177.8910  137.6210 C   0  0  0  0  0  2  0  0  0  0  0  0
  186.2720  177.7120  138.9540 C   0  0  1  0  0  3  0  0  0  0  0  0
  190.5820  175.6650  137.1560 C   0  0  0  0  0  0  0  0  0  0  0  0
  185.0680  174.3830  136.8430 C   0  0  2  0  0  3  0  0  0  0  0  0
  190.5180  177.0400  137.7440 C   0  0  0  0  0  2  0  0  0  0  0  0
  187.9660  172.5290  135.8690 C   0  0  0  0  0  2  0  0  0  0  0  0
  185.2930  178.8210  139.3480 C   0  0  0  0  0  2  0  0  0  0  0  0
  184.5620  175.5050  137.7550 C   0  0  0  0  0  2  0  0  0  0  0  0
  187.9430  177.4690  141.8520 C   0  0  0  0  0  1  0  0  0  0  0  0
  187.8500  178.5540  140.7880 C   0  0  0  0  0  2  0  0  0  0  0  0
  186.4910  178.5260  136.6790 C   0  0  0  0  0  2  0  0  0  0  0  0
  187.5350  177.4650  134.8260 O   0  0  0  0  0  0  0  0  0  0  0  0
  187.6710  178.2200  135.8250 C   0  0  0  0  0  0  0  0  0  0  0  0
  189.0560  179.7650  137.1470 C   0  0  0  0  0  1  0  0  0  0  0  0
  188.9120  178.7770  136.1380 O   0  0  0  0  0  0  0  0  0  0  0  0
  182.8190  179.2820  139.4600 N   0  0  0  0  0  0  0  0  0  0  0  0
  182.0610  178.8110  140.6150 C   0  0  0  0  0  2  0  0  0  0  0  0
  181.2440  177.5940  140.2280 C   0  0  0  0  0  2  0  0  0  0  0  0
  179.9690  177.5650  141.0420 C   0  0  0  0  0  2  0  0  0  0  0  0
  180.0680  178.5700  142.1700 C   0  0  0  0  0  1  0  0  0  0  0  0
  181.8850  179.4220  138.3500 C   0  0  0  0  0  2  0  0  0  0  0  0
  181.4540  180.8750  138.1980 C   0  0  0  0  0  2  0  0  0  0  0  0
  180.8060  180.7480  135.7910 C   0  0  0  0  0  1  0  0  0  0  0  0
  180.3120  181.0090  137.2020 C   0  0  0  0  0  2  0  0  0  0  0  0
  3  1  1  6  0  0  0
  4 20  1  0  0  0  0
  4 29  1  6  0  0  0
  5 17  1  0  0  0  0
  5  3  1  0  0  0  0
  6  8  1  0  0  0  0
  7 15  1  0  0  0  0
  8 13  1  0  0  0  0
  9  7  1  0  0  0  0
  9 14  1  1  0  0  0
  9 21  1  0  0  0  0
 10 12  1  0  0  0  0
 10 11  1  0  0  0  0
 12 16  2  0  0  0  0
 13 23  1  1  0  0  0
 14  4  1  0  0  0  0
 15 20  1  6  0  0  0
 15 13  1  0  0  0  0
 16  2  1  0  0  0  0
 16 18  1  0  0  0  0
 17  3  1  0  0  0  0
 17 21  1  1  0  0  0
 18  6  1  0  0  0  0
 19 11  1  0  0  0  0
 19  1  1  0  0  0  0
 23 22  1  0  0  0  0
 24  7  1  0  0  0  0
 25 26  2  0  0  0  0
 26 28  1  0  0  0  0
 26 24  1  0  0  0  0
 28 27  1  0  0  0  0
 29 30  1  0  0  0  0
 31 30  1  0  0  0  0
 31 32  1  0  0  0  0
 32 33  1  0  0  0  0
 34 29  1  0  0  0  0
 35 34  1  0  0  0  0
 36 37  1  0  0  0  0
 37 35  1  0  0  0  0
M  END
>  <MODEL>
9

>  <REMARK>
 VINA RESULT:      -3.0      3.139      8.127
  Name = 
  11 active torsions:
  status: ('A' for Active; 'I' for Inactive)
    1  A    between atoms: C_1  and  C_23
    2  A    between atoms: C_1  and  N_33
    3  A    between atoms: C_4  and  N_10
    4  A    between atoms: C_4  and  C_24
    5  A    between atoms: C_5  and  C_23
    6  A    between atoms: C_7  and  N_33
    7  A    between atoms: C_17  and  C_26
    8  A    between atoms: C_17  and  N_33
    9  A    between atoms: C_20  and  C_25
   10  A    between atoms: C_24  and  O_28
   11  A    between atoms: C_26  and  C_34
                            x       y       z     vdW  Elec       q    Type
                         _______ _______ _______ _____ _____    ______ ____

>  <TORSDO>
F 11

$$$$
