=
 OpenBabel11052415353D

 37 41  0  0  1  0  0  0  0  0999 V2000
  187.9150  177.8230  142.8560 C   0  0  2  0  0  3  0  0  0  0  0  0
  187.4070  177.6060  145.2460 C   0  0  1  0  0  3  0  0  0  0  0  0
  186.9690  178.2890  143.9590 C   0  0  2  0  0  3  0  0  0  0  0  0
  189.0440  177.0050  143.4950 C   0  0  1  0  0  0  0  0  0  0  0  0
  190.2950  177.6170  143.3540 O   0  0  0  0  0  1  0  0  0  0  0  0
  188.7040  176.8560  144.9760 C   0  0  1  0  0  3  0  0  0  0  0  0
  188.7290  178.1910  145.7070 C   0  0  2  0  0  3  0  0  0  0  0  0
  185.1410  178.5600  142.4500 O   0  0  0  0  0  0  0  0  0  0  0  0
  184.6690  179.0830  143.6670 C   0  0  2  0  0  3  0  0  0  0  0  0
  185.5450  177.8930  143.6220 C   0  0  2  0  0  3  0  0  0  0  0  0
  183.2320  178.6510  143.8710 C   0  0  0  0  0  2  0  0  0  0  0  0
  182.4860  178.8620  142.6450 N   0  0  0  0  0  2  0  0  0  0  0  0
  181.2030  179.4230  143.0260 C   0  0  0  0  0  3  0  0  0  0  0  0
  180.0940  178.5750  142.4360 C   0  0  0  0  0  2  0  0  0  0  0  0
  180.4630  178.4290  143.8960 C   0  0  0  0  0  2  0  0  0  0  0  0
  189.0880  175.6190  142.8690 C   0  0  0  0  0  2  0  0  0  0  0  0
  190.3950  175.1250  142.8520 O   0  0  0  0  0  1  0  0  0  0  0  0
  188.9030  177.9420  147.1930 C   0  0  0  0  0  2  0  0  0  0  0  0
  189.6940  176.7390  147.4050 N   0  0  0  0  0  2  0  0  0  0  0  0
  191.0890  176.6680  147.1010 C   0  0  0  0  0  0  0  0  0  0  0  0
  191.6890  177.6560  146.5980 O   0  0  0  0  0  0  0  0  0  0  0  0
  191.8450  175.4220  147.4020 C   0  0  0  0  0  2  0  0  0  0  0  0
  192.9560  175.7170  148.3880 C   0  0  0  0  0  1  0  0  0  0  0  0
  188.3320  178.8280  141.9470 O   0  0  0  0  0  0  0  0  0  0  0  0
  188.0630  178.4140  140.6300 C   0  0  0  0  0  2  0  0  0  0  0  0
  188.3030  176.0610  136.5530 C   0  0  0  0  0  2  0  0  0  0  0  0
  189.4620  177.5520  138.7630 C   0  0  0  0  0  0  0  0  0  0  0  0
  189.2420  177.6840  140.0750 C   0  0  0  0  0  3  0  0  0  0  0  0
  188.9240  179.5700  137.6250 O   0  0  0  0  0  1  0  0  0  0  0  0
  191.7470  176.9790  139.0130 O   0  0  0  0  0  0  0  0  0  0  0  0
  190.7500  176.1180  137.1050 N   0  0  0  0  0  2  0  0  0  0  0  0
  190.6980  176.8700  138.3220 C   0  0  0  0  0  0  0  0  0  0  0  0
  188.4620  177.5660  136.3970 C   0  0  2  0  0  3  0  0  0  0  0  0
  188.5430  178.2350  137.7700 C   0  0  1  0  0  3  0  0  0  0  0  0
  189.6490  175.3390  136.5350 C   0  0  0  0  0  2  0  0  0  0  0  0
  187.2750  178.1260  135.6310 C   0  0  0  0  0  2  0  0  0  0  0  0
  186.0870  177.7940  136.2820 O   0  0  0  0  0  1  0  0  0  0  0  0
  1 24  1  1  0  0  0
  1  4  1  0  0  0  0
  1  3  1  0  0  0  0
  2  7  1  0  0  0  0
  3  2  1  0  0  0  0
  4  6  1  0  0  0  0
  5  4  1  0  0  0  0
  6  2  1  0  0  0  0
  6  7  1  0  0  0  0
  7 18  1  0  0  0  0
  8 10  1  0  0  0  0
  8  9  1  0  0  0  0
  9 11  1  0  0  0  0
 10  9  1  0  0  0  0
 10  3  1  0  0  0  0
 12 13  1  0  0  0  0
 12 11  1  0  0  0  0
 13 15  1  0  0  0  0
 14 13  1  0  0  0  0
 14 15  1  0  0  0  0
 16  4  1  0  0  0  0
 17 16  1  0  0  0  0
 18 19  1  0  0  0  0
 20 22  1  0  0  0  0
 20 19  1  0  0  0  0
 21 20  2  0  0  0  0
 22 23  1  0  0  0  0
 25 24  1  0  0  0  0
 27 28  2  0  0  0  0
 28 25  1  0  0  0  0
 29 34  1  0  0  0  0
 31 32  1  0  0  0  0
 32 27  1  0  0  0  0
 32 30  2  0  0  0  0
 33 26  1  0  0  0  0
 33 34  1  0  0  0  0
 34 27  1  0  0  0  0
 35 26  1  0  0  0  0
 35 31  1  0  0  0  0
 36 37  1  0  0  0  0
 36 33  1  0  0  0  0
M  END
>  <MODEL>
1

>  <REMARK>
 VINA RESULT:      -7.7      0.000      0.000
  Name = 
  12 active torsions:
  status: ('A' for Active; 'I' for Inactive)
    1  A    between atoms: C_1  and  N_5
    2  A    between atoms: C_1  and  C_36
    3  A    between atoms: C_3  and  N_32
    4  A    between atoms: C_4  and  C_22
    5  A    between atoms: C_7  and  C_33
    6  A    between atoms: C_8  and  C_31
    7  A    between atoms: C_10  and  O_14
    8  A    between atoms: C_12  and  C_17
    9  A    between atoms: O_14  and  C_31
   10  A    between atoms: C_16  and  C_30
   11  A    between atoms: C_20  and  C_24
   12  A    between atoms: C_30  and  N_32
                            x       y       z     vdW  Elec       q    Type
                         _______ _______ _______ _____ _____    ______ ____

>  <TORSDO>
F 12

$$$$
=
 OpenBabel11052415353D

 37 41  0  0  1  0  0  0  0  0999 V2000
  186.7230  178.0670  142.4270 C   0  0  2  0  0  3  0  0  0  0  0  0
  185.1810  178.0240  144.3340 C   0  0  1  0  0  3  0  0  0  0  0  0
  185.3510  178.5280  142.9080 C   0  0  2  0  0  3  0  0  0  0  0  0
  187.4720  177.4440  143.6110 C   0  0  1  0  0  0  0  0  0  0  0  0
  188.6110  178.1730  143.9690 O   0  0  0  0  0  1  0  0  0  0  0  0
  186.4950  177.4000  144.7830 C   0  0  1  0  0  3  0  0  0  0  0  0
  186.1060  178.7930  145.2580 C   0  0  2  0  0  3  0  0  0  0  0  0
  184.2360  178.6500  140.8020 O   0  0  0  0  0  0  0  0  0  0  0  0
  183.2430  178.9750  141.7420 C   0  0  2  0  0  3  0  0  0  0  0  0
  184.2670  177.9470  142.0210 C   0  0  2  0  0  3  0  0  0  0  0  0
  181.9440  178.3050  141.3450 C   0  0  0  0  0  2  0  0  0  0  0  0
  180.8300  179.1750  141.6730 N   0  0  0  0  0  2  0  0  0  0  0  0
  180.8880  179.4090  143.1040 C   0  0  0  0  0  3  0  0  0  0  0  0
  179.4850  179.6440  143.6260 C   0  0  0  0  0  2  0  0  0  0  0  0
  180.1480  178.2980  143.8210 C   0  0  0  0  0  2  0  0  0  0  0  0
  187.8760  176.0170  143.2670 C   0  0  0  0  0  2  0  0  0  0  0  0
  189.2660  175.8980  143.2050 O   0  0  0  0  0  1  0  0  0  0  0  0
  185.5880  178.7090  146.6810 C   0  0  0  0  0  2  0  0  0  0  0  0
  186.6670  178.9820  147.6190 N   0  0  0  0  0  2  0  0  0  0  0  0
  187.6440  178.0030  147.9790 C   0  0  0  0  0  0  0  0  0  0  0  0
  187.5860  176.8330  147.5110 O   0  0  0  0  0  0  0  0  0  0  0  0
  188.7530  178.3740  148.8980 C   0  0  0  0  0  2  0  0  0  0  0  0
  190.0780  177.9270  148.3150 C   0  0  0  0  0  1  0  0  0  0  0  0
  187.4580  179.0210  141.6770 O   0  0  0  0  0  0  0  0  0  0  0  0
  187.6620  178.5380  140.3720 C   0  0  0  0  0  2  0  0  0  0  0  0
  189.2520  175.7470  136.9220 C   0  0  0  0  0  2  0  0  0  0  0  0
  189.6010  177.6450  139.0970 C   0  0  0  0  0  0  0  0  0  0  0  0
  189.0130  177.9090  140.2670 C   0  0  0  0  0  3  0  0  0  0  0  0
  189.2150  179.4150  137.5550 O   0  0  0  0  0  1  0  0  0  0  0  0
  191.7690  177.4170  140.0240 O   0  0  0  0  0  0  0  0  0  0  0  0
  191.4310  176.2000  138.0810 N   0  0  0  0  0  2  0  0  0  0  0  0
  190.9700  177.0840  139.1080 C   0  0  0  0  0  0  0  0  0  0  0  0
  189.3050  177.2290  136.5790 C   0  0  2  0  0  3  0  0  0  0  0  0
  188.9360  178.0690  137.8030 C   0  0  1  0  0  3  0  0  0  0  0  0
  190.6120  175.2150  137.3720 C   0  0  0  0  0  2  0  0  0  0  0  0
  188.3320  177.5260  135.4510 C   0  0  0  0  0  2  0  0  0  0  0  0
  187.0260  177.2590  135.8630 O   0  0  0  0  0  1  0  0  0  0  0  0
  1 24  1  1  0  0  0
  1  3  1  0  0  0  0
  1  4  1  0  0  0  0
  2  6  1  0  0  0  0
  2  7  1  0  0  0  0
  3  2  1  0  0  0  0
  4  5  1  0  0  0  0
  4  6  1  0  0  0  0
  6  7  1  0  0  0  0
  7 18  1  0  0  0  0
  8  9  1  0  0  0  0
  8 10  1  0  0  0  0
  9 10  1  0  0  0  0
 10  3  1  0  0  0  0
 11 12  1  0  0  0  0
 11  9  1  0  0  0  0
 12 13  1  0  0  0  0
 13 14  1  0  0  0  0
 13 15  1  0  0  0  0
 14 15  1  0  0  0  0
 16  4  1  0  0  0  0
 17 16  1  0  0  0  0
 18 19  1  0  0  0  0
 19 20  1  0  0  0  0
 20 22  1  0  0  0  0
 21 20  2  0  0  0  0
 23 22  1  0  0  0  0
 25 24  1  0  0  0  0
 26 35  1  0  0  0  0
 27 32  1  0  0  0  0
 27 28  2  0  0  0  0
 28 25  1  0  0  0  0
 29 34  1  0  0  0  0
 31 32  1  0  0  0  0
 32 30  2  0  0  0  0
 33 26  1  0  0  0  0
 33 34  1  0  0  0  0
 34 27  1  0  0  0  0
 35 31  1  0  0  0  0
 36 37  1  0  0  0  0
 36 33  1  0  0  0  0
M  END
>  <MODEL>
2

>  <REMARK>
 VINA RESULT:      -7.5      1.721      2.123
  Name = 
  12 active torsions:
  status: ('A' for Active; 'I' for Inactive)
    1  A    between atoms: C_1  and  N_5
    2  A    between atoms: C_1  and  C_36
    3  A    between atoms: C_3  and  N_32
    4  A    between atoms: C_4  and  C_22
    5  A    between atoms: C_7  and  C_33
    6  A    between atoms: C_8  and  C_31
    7  A    between atoms: C_10  and  O_14
    8  A    between atoms: C_12  and  C_17
    9  A    between atoms: O_14  and  C_31
   10  A    between atoms: C_16  and  C_30
   11  A    between atoms: C_20  and  C_24
   12  A    between atoms: C_30  and  N_32
                            x       y       z     vdW  Elec       q    Type
                         _______ _______ _______ _____ _____    ______ ____

>  <TORSDO>
F 12

$$$$
=
 OpenBabel11052415353D

 37 41  0  0  1  0  0  0  0  0999 V2000
  188.7100  178.1860  139.7580 C   0  0  2  0  0  3  0  0  0  0  0  0
  188.5430  177.7270  142.1620 C   0  0  1  0  0  3  0  0  0  0  0  0
  187.9740  178.5770  141.0370 C   0  0  2  0  0  3  0  0  0  0  0  0
  189.8560  177.2350  140.1260 C   0  0  1  0  0  0  0  0  0  0  0  0
  191.1150  177.7840  139.8580 O   0  0  0  0  0  1  0  0  0  0  0  0
  189.7260  176.9380  141.6180 C   0  0  1  0  0  3  0  0  0  0  0  0
  189.9590  178.1760  142.4720 C   0  0  2  0  0  3  0  0  0  0  0  0
  185.8550  179.4620  140.3870 O   0  0  0  0  0  0  0  0  0  0  0  0
  185.7220  179.2120  141.7650 C   0  0  2  0  0  3  0  0  0  0  0  0
  186.4900  178.3070  140.8830 C   0  0  2  0  0  3  0  0  0  0  0  0
  184.3540  178.6210  142.0330 C   0  0  0  0  0  2  0  0  0  0  0  0
  183.9470  178.9400  143.3890 N   0  0  0  0  0  2  0  0  0  0  0  0
  184.9960  178.4560  144.2680 C   0  0  0  0  0  3  0  0  0  0  0  0
  185.3200  179.5270  145.2900 C   0  0  0  0  0  2  0  0  0  0  0  0
  184.4540  178.3480  145.6780 C   0  0  0  0  0  2  0  0  0  0  0  0
  189.7020  175.9300  139.3590 C   0  0  0  0  0  2  0  0  0  0  0  0
  190.8920  175.5970  138.7070 O   0  0  0  0  0  1  0  0  0  0  0  0
  190.3300  177.7490  143.8790 C   0  0  0  0  0  2  0  0  0  0  0  0
  189.1640  177.8320  144.7470 N   0  0  0  0  0  2  0  0  0  0  0  0
  189.1660  177.3480  146.0910 C   0  0  0  0  0  0  0  0  0  0  0  0
  190.1900  176.7930  146.5740 O   0  0  0  0  0  0  0  0  0  0  0  0
  187.9550  177.5220  146.9380 C   0  0  0  0  0  2  0  0  0  0  0  0
  188.3390  178.1280  148.2720 C   0  0  0  0  0  1  0  0  0  0  0  0
  189.0640  179.2620  138.9050 O   0  0  0  0  0  0  0  0  0  0  0  0
  188.4300  179.1050  137.6600 C   0  0  0  0  0  2  0  0  0  0  0  0
  187.3280  174.6160  136.7380 C   0  0  0  0  0  2  0  0  0  0  0  0
  188.6140  177.1520  136.1320 C   0  0  0  0  0  0  0  0  0  0  0  0
  189.1970  178.1410  136.8160 C   0  0  0  0  0  3  0  0  0  0  0  0
  186.5750  177.9040  135.1650 O   0  0  0  0  0  1  0  0  0  0  0  0
  190.4690  176.7940  134.7020 O   0  0  0  0  0  0  0  0  0  0  0  0
  189.1440  174.9200  135.0340 N   0  0  0  0  0  2  0  0  0  0  0  0
  189.4610  176.2960  135.2720 C   0  0  0  0  0  0  0  0  0  0  0  0
  186.5690  175.6170  135.8790 C   0  0  2  0  0  3  0  0  0  0  0  0
  187.1040  177.0310  136.1180 C   0  0  1  0  0  3  0  0  0  0  0  0
  188.5170  174.0110  135.9940 C   0  0  0  0  0  2  0  0  0  0  0  0
  185.0910  175.5700  136.2290 C   0  0  0  0  0  2  0  0  0  0  0  0
  184.8640  176.2300  137.4360 O   0  0  0  0  0  1  0  0  0  0  0  0
  1 24  1  1  0  0  0
  1  4  1  0  0  0  0
  1  3  1  0  0  0  0
  2  7  1  0  0  0  0
  3  2  1  0  0  0  0
  4  6  1  0  0  0  0
  5  4  1  0  0  0  0
  6  2  1  0  0  0  0
  6  7  1  0  0  0  0
  7 18  1  0  0  0  0
  8 10  1  0  0  0  0
  8  9  1  0  0  0  0
  9 11  1  0  0  0  0
 10  3  1  0  0  0  0
 10  9  1  0  0  0  0
 11 12  1  0  0  0  0
 12 13  1  0  0  0  0
 13 14  1  0  0  0  0
 13 15  1  0  0  0  0
 14 15  1  0  0  0  0
 16  4  1  0  0  0  0
 17 16  1  0  0  0  0
 18 19  1  0  0  0  0
 19 20  1  0  0  0  0
 20 21  2  0  0  0  0
 20 22  1  0  0  0  0
 22 23  1  0  0  0  0
 25 24  1  0  0  0  0
 27 28  2  0  0  0  0
 28 25  1  0  0  0  0
 29 34  1  0  0  0  0
 30 32  2  0  0  0  0
 31 32  1  0  0  0  0
 31 35  1  0  0  0  0
 32 27  1  0  0  0  0
 33 34  1  0  0  0  0
 33 36  1  0  0  0  0
 33 26  1  0  0  0  0
 34 27  1  0  0  0  0
 35 26  1  0  0  0  0
 36 37  1  0  0  0  0
M  END
>  <MODEL>
3

>  <REMARK>
 VINA RESULT:      -7.4      2.288      3.350
  Name = 
  12 active torsions:
  status: ('A' for Active; 'I' for Inactive)
    1  A    between atoms: C_1  and  N_5
    2  A    between atoms: C_1  and  C_36
    3  A    between atoms: C_3  and  N_32
    4  A    between atoms: C_4  and  C_22
    5  A    between atoms: C_7  and  C_33
    6  A    between atoms: C_8  and  C_31
    7  A    between atoms: C_10  and  O_14
    8  A    between atoms: C_12  and  C_17
    9  A    between atoms: O_14  and  C_31
   10  A    between atoms: C_16  and  C_30
   11  A    between atoms: C_20  and  C_24
   12  A    between atoms: C_30  and  N_32
                            x       y       z     vdW  Elec       q    Type
                         _______ _______ _______ _____ _____    ______ ____

>  <TORSDO>
F 12

$$$$
=
 OpenBabel11052415353D

 37 41  0  0  1  0  0  0  0  0999 V2000
  185.3990  178.3900  142.7660 C   0  0  2  0  0  3  0  0  0  0  0  0
  187.4350  178.2080  144.1220 C   0  0  1  0  0  3  0  0  0  0  0  0
  186.8530  177.9260  142.7450 C   0  0  2  0  0  3  0  0  0  0  0  0
  185.0330  178.7840  144.2020 C   0  0  1  0  0  0  0  0  0  0  0  0
  184.0500  177.9540  144.7510 O   0  0  0  0  0  1  0  0  0  0  0  0
  186.3120  178.6910  145.0300 C   0  0  1  0  0  3  0  0  0  0  0  0
  186.8230  177.2610  145.1370 C   0  0  2  0  0  3  0  0  0  0  0  0
  186.9070  178.6700  140.4790 O   0  0  0  0  0  0  0  0  0  0  0  0
  187.9920  177.7820  140.5810 C   0  0  2  0  0  3  0  0  0  0  0  0
  187.6260  178.6900  141.6880 C   0  0  2  0  0  3  0  0  0  0  0  0
  189.1740  178.3520  139.8250 C   0  0  0  0  0  2  0  0  0  0  0  0
  189.2580  177.7280  138.5170 N   0  0  0  0  0  2  0  0  0  0  0  0
  188.9670  178.7610  137.5400 C   0  0  0  0  0  3  0  0  0  0  0  0
  188.8980  178.1350  136.1620 C   0  0  0  0  0  2  0  0  0  0  0  0
  187.6230  178.4780  136.9010 C   0  0  0  0  0  2  0  0  0  0  0  0
  184.5460  180.2260  144.2280 C   0  0  0  0  0  2  0  0  0  0  0  0
  183.1650  180.2850  144.0290 O   0  0  0  0  0  1  0  0  0  0  0  0
  187.7380  177.1470  146.3410 C   0  0  0  0  0  2  0  0  0  0  0  0
  189.0970  176.8560  145.9050 N   0  0  0  0  0  2  0  0  0  0  0  0
  190.2330  177.0330  146.7530 C   0  0  0  0  0  0  0  0  0  0  0  0
  190.1000  177.4870  147.9220 O   0  0  0  0  0  0  0  0  0  0  0  0
  191.5860  176.6580  146.2590 C   0  0  0  0  0  2  0  0  0  0  0  0
  192.2120  175.6410  147.1900 C   0  0  0  0  0  1  0  0  0  0  0  0
  184.4750  177.5320  142.1170 O   0  0  0  0  0  0  0  0  0  0  0  0
  183.6050  178.2940  141.3170 C   0  0  0  0  0  2  0  0  0  0  0  0
  180.6560  179.5320  137.8550 C   0  0  0  0  0  2  0  0  0  0  0  0
  183.1210  178.3790  138.8790 C   0  0  0  0  0  0  0  0  0  0  0  0
  183.5020  177.6860  139.9570 C   0  0  0  0  0  3  0  0  0  0  0  0
  184.0720  180.5590  138.9160 O   0  0  0  0  0  1  0  0  0  0  0  0
  183.9790  176.8050  137.3300 O   0  0  0  0  0  0  0  0  0  0  0  0
  182.1890  178.0460  136.5360 N   0  0  0  0  0  2  0  0  0  0  0  0
  183.1190  177.6960  137.5670 C   0  0  0  0  0  0  0  0  0  0  0  0
  181.8780  180.4330  137.9640 C   0  0  2  0  0  3  0  0  0  0  0  0
  182.8610  179.8680  138.9910 C   0  0  1  0  0  3  0  0  0  0  0  0
  180.8110  178.4920  136.7460 C   0  0  0  0  0  2  0  0  0  0  0  0
  181.4460  181.8260  138.3920 C   0  0  0  0  0  2  0  0  0  0  0  0
  181.0280  182.5580  137.2810 O   0  0  0  0  0  1  0  0  0  0  0  0
  1 24  1  1  0  0  0
  1  4  1  0  0  0  0
  2  6  1  0  0  0  0
  2  7  1  0  0  0  0
  3  1  1  0  0  0  0
  3  2  1  0  0  0  0
  4 16  1  0  0  0  0
  4  5  1  0  0  0  0
  4  6  1  0  0  0  0
  6  7  1  0  0  0  0
  7 18  1  0  0  0  0
  8  9  1  0  0  0  0
  8 10  1  0  0  0  0
  9 10  1  0  0  0  0
 10  3  1  0  0  0  0
 11  9  1  0  0  0  0
 12 11  1  0  0  0  0
 13 12  1  0  0  0  0
 14 15  1  0  0  0  0
 14 13  1  0  0  0  0
 15 13  1  0  0  0  0
 17 16  1  0  0  0  0
 19 18  1  0  0  0  0
 19 20  1  0  0  0  0
 20 21  2  0  0  0  0
 22 20  1  0  0  0  0
 22 23  1  0  0  0  0
 25 24  1  0  0  0  0
 26 33  1  0  0  0  0
 27 34  1  0  0  0  0
 27 28  2  0  0  0  0
 28 25  1  0  0  0  0
 29 34  1  0  0  0  0
 30 32  2  0  0  0  0
 31 35  1  0  0  0  0
 31 32  1  0  0  0  0
 32 27  1  0  0  0  0
 33 36  1  0  0  0  0
 33 34  1  0  0  0  0
 35 26  1  0  0  0  0
 37 36  1  0  0  0  0
M  END
>  <MODEL>
4

>  <REMARK>
 VINA RESULT:      -7.2      3.107      6.102
  Name = 
  12 active torsions:
  status: ('A' for Active; 'I' for Inactive)
    1  A    between atoms: C_1  and  N_5
    2  A    between atoms: C_1  and  C_36
    3  A    between atoms: C_3  and  N_32
    4  A    between atoms: C_4  and  C_22
    5  A    between atoms: C_7  and  C_33
    6  A    between atoms: C_8  and  C_31
    7  A    between atoms: C_10  and  O_14
    8  A    between atoms: C_12  and  C_17
    9  A    between atoms: O_14  and  C_31
   10  A    between atoms: C_16  and  C_30
   11  A    between atoms: C_20  and  C_24
   12  A    between atoms: C_30  and  N_32
                            x       y       z     vdW  Elec       q    Type
                         _______ _______ _______ _____ _____    ______ ____

>  <TORSDO>
F 12

$$$$
=
 OpenBabel11052415353D

 37 41  0  0  1  0  0  0  0  0999 V2000
  188.8880  176.6370  138.2630 C   0  0  2  0  0  3  0  0  0  0  0  0
  187.5260  178.2790  139.4750 C   0  0  1  0  0  3  0  0  0  0  0  0
  188.4500  177.0830  139.6560 C   0  0  2  0  0  3  0  0  0  0  0  0
  188.0910  177.4330  137.2230 C   0  0  1  0  0  0  0  0  0  0  0  0
  187.2440  176.6210  136.4600 O   0  0  0  0  0  1  0  0  0  0  0  0
  187.2670  178.4660  137.9870 C   0  0  1  0  0  3  0  0  0  0  0  0
  186.2120  177.8180  138.8720 C   0  0  2  0  0  3  0  0  0  0  0  0
  190.3460  176.3260  140.8910 O   0  0  0  0  0  0  0  0  0  0  0  0
  189.5320  176.9550  141.8500 C   0  0  2  0  0  3  0  0  0  0  0  0
  189.6610  177.4840  140.4760 C   0  0  2  0  0  3  0  0  0  0  0  0
  190.4040  177.7610  142.7900 C   0  0  0  0  0  2  0  0  0  0  0  0
  189.6020  178.2410  143.9010 N   0  0  0  0  0  2  0  0  0  0  0  0
  188.9760  177.0770  144.5000 C   0  0  0  0  0  3  0  0  0  0  0  0
  188.7020  177.3600  145.9640 C   0  0  0  0  0  2  0  0  0  0  0  0
  187.5780  177.4430  144.9540 C   0  0  0  0  0  2  0  0  0  0  0  0
  189.0500  178.1690  136.2980 C   0  0  0  0  0  2  0  0  0  0  0  0
  189.3960  179.4120  136.8330 O   0  0  0  0  0  1  0  0  0  0  0  0
  185.1290  178.8330  139.1820 C   0  0  0  0  0  2  0  0  0  0  0  0
  185.2800  179.3200  140.5460 N   0  0  0  0  0  2  0  0  0  0  0  0
  184.5780  178.7470  141.6520 C   0  0  0  0  0  0  0  0  0  0  0  0
  183.7630  177.8020  141.4770 O   0  0  0  0  0  0  0  0  0  0  0  0
  184.8300  179.2590  143.0260 C   0  0  0  0  0  2  0  0  0  0  0  0
  183.7480  178.7680  143.9660 C   0  0  0  0  0  1  0  0  0  0  0  0
  188.9260  175.2340  138.0570 O   0  0  0  0  0  0  0  0  0  0  0  0
  190.0440  174.9030  137.2710 C   0  0  0  0  0  2  0  0  0  0  0  0
  194.2660  172.8140  137.4260 C   0  0  0  0  0  2  0  0  0  0  0  0
  192.5120  175.1330  137.4620 C   0  0  0  0  0  0  0  0  0  0  0  0
  191.2870  175.4260  137.9110 C   0  0  0  0  0  3  0  0  0  0  0  0
  192.5470  175.1410  135.0830 O   0  0  0  0  0  1  0  0  0  0  0  0
  193.5640  176.9210  138.6060 O   0  0  0  0  0  0  0  0  0  0  0  0
  194.9420  175.0990  138.2120 N   0  0  0  0  0  2  0  0  0  0  0  0
  193.6740  175.7600  138.1280 C   0  0  0  0  0  0  0  0  0  0  0  0
  193.9850  173.5210  136.1080 C   0  0  2  0  0  3  0  0  0  0  0  0
  192.6790  174.3120  136.2000 C   0  0  1  0  0  3  0  0  0  0  0  0
  195.1440  173.6560  138.3500 C   0  0  0  0  0  2  0  0  0  0  0  0
  193.8770  172.4950  134.9920 C   0  0  0  0  0  2  0  0  0  0  0  0
  192.7990  171.6430  135.2290 O   0  0  0  0  0  1  0  0  0  0  0  0
  1 24  1  1  0  0  0
  1  3  1  0  0  0  0
  2  3  1  0  0  0  0
  3 10  1  0  0  0  0
  4  6  1  0  0  0  0
  4  1  1  0  0  0  0
  5  4  1  0  0  0  0
  6  7  1  0  0  0  0
  6  2  1  0  0  0  0
  7 18  1  0  0  0  0
  7  2  1  0  0  0  0
  8  9  1  0  0  0  0
  9 11  1  0  0  0  0
 10  8  1  0  0  0  0
 10  9  1  0  0  0  0
 11 12  1  0  0  0  0
 12 13  1  0  0  0  0
 13 15  1  0  0  0  0
 13 14  1  0  0  0  0
 15 14  1  0  0  0  0
 16 17  1  0  0  0  0
 16  4  1  0  0  0  0
 18 19  1  0  0  0  0
 19 20  1  0  0  0  0
 20 22  1  0  0  0  0
 21 20  2  0  0  0  0
 22 23  1  0  0  0  0
 25 28  1  0  0  0  0
 25 24  1  0  0  0  0
 26 35  1  0  0  0  0
 27 28  2  0  0  0  0
 27 32  1  0  0  0  0
 29 34  1  0  0  0  0
 31 35  1  0  0  0  0
 32 31  1  0  0  0  0
 32 30  2  0  0  0  0
 33 34  1  0  0  0  0
 33 26  1  0  0  0  0
 34 27  1  0  0  0  0
 36 37  1  0  0  0  0
 36 33  1  0  0  0  0
M  END
>  <MODEL>
5

>  <REMARK>
 VINA RESULT:      -6.9      2.921      6.968
  Name = 
  12 active torsions:
  status: ('A' for Active; 'I' for Inactive)
    1  A    between atoms: C_1  and  N_5
    2  A    between atoms: C_1  and  C_36
    3  A    between atoms: C_3  and  N_32
    4  A    between atoms: C_4  and  C_22
    5  A    between atoms: C_7  and  C_33
    6  A    between atoms: C_8  and  C_31
    7  A    between atoms: C_10  and  O_14
    8  A    between atoms: C_12  and  C_17
    9  A    between atoms: O_14  and  C_31
   10  A    between atoms: C_16  and  C_30
   11  A    between atoms: C_20  and  C_24
   12  A    between atoms: C_30  and  N_32
                            x       y       z     vdW  Elec       q    Type
                         _______ _______ _______ _____ _____    ______ ____

>  <TORSDO>
F 12

$$$$
=
 OpenBabel11052415353D

 37 41  0  0  1  0  0  0  0  0999 V2000
  189.2150  176.8940  138.3350 C   0  0  2  0  0  3  0  0  0  0  0  0
  191.4670  175.9360  138.5140 C   0  0  1  0  0  3  0  0  0  0  0  0
  190.5180  176.9550  139.1280 C   0  0  2  0  0  3  0  0  0  0  0  0
  189.4250  175.9780  137.1230 C   0  0  1  0  0  0  0  0  0  0  0  0
  189.3220  176.6650  135.9080 O   0  0  0  0  0  1  0  0  0  0  0  0
  190.8180  175.3700  137.2590 C   0  0  1  0  0  3  0  0  0  0  0  0
  191.9150  176.4190  137.1470 C   0  0  2  0  0  3  0  0  0  0  0  0
  189.6690  177.7140  141.2250 O   0  0  0  0  0  0  0  0  0  0  0  0
  191.0400  177.5060  141.4580 C   0  0  2  0  0  3  0  0  0  0  0  0
  190.2570  176.6090  140.5810 C   0  0  2  0  0  3  0  0  0  0  0  0
  191.2210  176.8600  142.8150 C   0  0  0  0  0  2  0  0  0  0  0  0
  190.6920  177.7370  143.8430 N   0  0  0  0  0  2  0  0  0  0  0  0
  189.9270  176.9050  144.7530 C   0  0  0  0  0  3  0  0  0  0  0  0
  189.1420  177.7940  145.6970 C   0  0  0  0  0  2  0  0  0  0  0  0
  188.4490  177.1420  144.5200 C   0  0  0  0  0  2  0  0  0  0  0  0
  188.4020  174.8510  137.1520 C   0  0  0  0  0  2  0  0  0  0  0  0
  189.0380  173.6090  137.2160 O   0  0  0  0  0  1  0  0  0  0  0  0
  193.2180  175.7410  136.7720 C   0  0  0  0  0  2  0  0  0  0  0  0
  194.0910  175.6640  137.9350 N   0  0  0  0  0  2  0  0  0  0  0  0
  194.8510  174.4960  138.2530 C   0  0  0  0  0  0  0  0  0  0  0  0
  194.7680  173.4590  137.5410 O   0  0  0  0  0  0  0  0  0  0  0  0
  195.7680  174.5130  139.4250 C   0  0  0  0  0  2  0  0  0  0  0  0
  197.2080  174.5000  138.9540 C   0  0  0  0  0  1  0  0  0  0  0  0
  188.6140  178.1470  138.0540 O   0  0  0  0  0  0  0  0  0  0  0  0
  187.3630  178.2230  138.6920 C   0  0  0  0  0  2  0  0  0  0  0  0
  183.0620  176.6770  139.8450 C   0  0  0  0  0  2  0  0  0  0  0  0
  184.9870  177.8930  138.0370 C   0  0  0  0  0  0  0  0  0  0  0  0
  186.2890  177.7620  137.7630 C   0  0  0  0  0  3  0  0  0  0  0  0
  184.5640  179.9930  139.0710 O   0  0  0  0  0  1  0  0  0  0  0  0
  184.2910  177.5860  135.7930 O   0  0  0  0  0  0  0  0  0  0  0  0
  182.7190  176.9540  137.3740 N   0  0  0  0  0  2  0  0  0  0  0  0
  184.0070  177.4660  137.0150 C   0  0  0  0  0  0  0  0  0  0  0  0
  183.1820  178.1940  139.8400 C   0  0  2  0  0  3  0  0  0  0  0  0
  184.5480  178.6150  139.2940 C   0  0  1  0  0  3  0  0  0  0  0  0
  182.4210  176.1510  138.5620 C   0  0  0  0  0  2  0  0  0  0  0  0
  183.0190  178.7220  141.2560 C   0  0  0  0  0  2  0  0  0  0  0  0
  184.2700  178.9760  141.8180 O   0  0  0  0  0  1  0  0  0  0  0  0
  1 24  1  6  0  0  0
  1  3  1  0  0  0  0
  2  3  1  0  0  0  0
  3 10  1  0  0  0  0
  4 16  1  0  0  0  0
  4  6  1  0  0  0  0
  4  1  1  0  0  0  0
  5  4  1  0  0  0  0
  6  2  1  0  0  0  0
  7  6  1  0  0  0  0
  7  2  1  0  0  0  0
  8  9  1  0  0  0  0
  9 11  1  0  0  0  0
 10  8  1  0  0  0  0
 10  9  1  0  0  0  0
 11 12  1  0  0  0  0
 12 13  1  0  0  0  0
 13 14  1  0  0  0  0
 15 13  1  0  0  0  0
 15 14  1  0  0  0  0
 16 17  1  0  0  0  0
 18  7  1  0  0  0  0
 18 19  1  0  0  0  0
 19 20  1  0  0  0  0
 20 22  1  0  0  0  0
 21 20  2  0  0  0  0
 23 22  1  0  0  0  0
 24 25  1  0  0  0  0
 27 34  1  0  0  0  0
 28 27  2  0  0  0  0
 28 25  1  0  0  0  0
 29 34  1  0  0  0  0
 30 32  2  0  0  0  0
 31 35  1  0  0  0  0
 32 31  1  0  0  0  0
 32 27  1  0  0  0  0
 33 26  1  0  0  0  0
 33 36  1  0  0  0  0
 34 33  1  0  0  0  0
 35 26  1  0  0  0  0
 36 37  1  0  0  0  0
M  END
>  <MODEL>
6

>  <REMARK>
 VINA RESULT:      -6.9      3.259      7.469
  Name = 
  12 active torsions:
  status: ('A' for Active; 'I' for Inactive)
    1  A    between atoms: C_1  and  N_5
    2  A    between atoms: C_1  and  C_36
    3  A    between atoms: C_3  and  N_32
    4  A    between atoms: C_4  and  C_22
    5  A    between atoms: C_7  and  C_33
    6  A    between atoms: C_8  and  C_31
    7  A    between atoms: C_10  and  O_14
    8  A    between atoms: C_12  and  C_17
    9  A    between atoms: O_14  and  C_31
   10  A    between atoms: C_16  and  C_30
   11  A    between atoms: C_20  and  C_24
   12  A    between atoms: C_30  and  N_32
                            x       y       z     vdW  Elec       q    Type
                         _______ _______ _______ _____ _____    ______ ____

>  <TORSDO>
F 12

$$$$
=
 OpenBabel11052415353D

 37 41  0  0  1  0  0  0  0  0999 V2000
  182.0070  178.8030  140.5300 C   0  0  2  0  0  3  0  0  0  0  0  0
  181.1020  179.9510  138.5600 C   0  0  1  0  0  3  0  0  0  0  0  0
  182.3920  179.5960  139.2840 C   0  0  2  0  0  3  0  0  0  0  0  0
  180.4800  178.8310  140.6730 C   0  0  1  0  0  0  0  0  0  0  0  0
  180.0620  179.5110  141.8230 O   0  0  0  0  0  1  0  0  0  0  0  0
  179.9290  179.5260  139.4310 C   0  0  1  0  0  3  0  0  0  0  0  0
  180.3400  180.9890  139.3620 C   0  0  2  0  0  3  0  0  0  0  0  0
  183.6690  177.5900  139.0760 O   0  0  0  0  0  0  0  0  0  0  0  0
  184.6200  178.6220  138.9830 C   0  0  2  0  0  3  0  0  0  0  0  0
  183.2750  178.7510  138.3850 C   0  0  2  0  0  3  0  0  0  0  0  0
  185.6250  178.2750  137.9040 C   0  0  0  0  0  2  0  0  0  0  0  0
  186.9610  178.6150  138.3600 N   0  0  0  0  0  2  0  0  0  0  0  0
  187.8910  177.9800  137.4440 C   0  0  0  0  0  3  0  0  0  0  0  0
  188.9620  178.9780  137.0540 C   0  0  0  0  0  2  0  0  0  0  0  0
  189.2590  177.9160  138.0900 C   0  0  0  0  0  2  0  0  0  0  0  0
  179.9440  177.4070  140.7080 C   0  0  0  0  0  2  0  0  0  0  0  0
  180.8690  176.5170  140.1570 O   0  0  0  0  0  1  0  0  0  0  0  0
  179.3840  181.7340  138.4500 C   0  0  0  0  0  2  0  0  0  0  0  0
  180.0010  182.9680  137.9860 N   0  0  0  0  0  2  0  0  0  0  0  0
  180.6340  183.0820  136.7090 C   0  0  0  0  0  0  0  0  0  0  0  0
  180.7100  182.0890  135.9370 O   0  0  0  0  0  0  0  0  0  0  0  0
  181.1900  184.3940  136.2790 C   0  0  0  0  0  2  0  0  0  0  0  0
  180.5160  184.8450  135.0000 C   0  0  0  0  0  1  0  0  0  0  0  0
  182.7340  179.1230  141.7050 O   0  0  0  0  0  0  0  0  0  0  0  0
  183.3040  177.9540  142.2390 C   0  0  0  0  0  2  0  0  0  0  0  0
  187.6150  176.8300  143.7790 C   0  0  0  0  0  2  0  0  0  0  0  0
  185.1950  178.4410  143.7800 C   0  0  0  0  0  0  0  0  0  0  0  0
  183.8880  178.2420  143.5840 C   0  0  0  0  0  3  0  0  0  0  0  0
  186.1110  179.7370  142.0070 O   0  0  0  0  0  1  0  0  0  0  0  0
  184.9130  179.4720  145.8940 O   0  0  0  0  0  0  0  0  0  0  0  0
  186.9520  178.4040  145.6180 N   0  0  0  0  0  2  0  0  0  0  0  0
  185.6580  178.7880  145.1410 C   0  0  0  0  0  0  0  0  0  0  0  0
  187.5860  178.0800  142.9110 C   0  0  2  0  0  3  0  0  0  0  0  0
  186.1410  178.4710  142.5960 C   0  0  1  0  0  3  0  0  0  0  0  0
  187.6570  177.1690  145.2690 C   0  0  0  0  0  2  0  0  0  0  0  0
  188.3320  177.8160  141.6140 C   0  0  0  0  0  2  0  0  0  0  0  0
  189.1850  176.7230  141.7680 O   0  0  0  0  0  1  0  0  0  0  0  0
  1  4  1  0  0  0  0
  1 24  1  1  0  0  0
  2  3  1  0  0  0  0
  2  7  1  0  0  0  0
  2  6  1  0  0  0  0
  3  1  1  0  0  0  0
  4 16  1  0  0  0  0
  4  5  1  0  0  0  0
  6  4  1  0  0  0  0
  7  6  1  0  0  0  0
  9  8  1  0  0  0  0
 10  9  1  0  0  0  0
 10  8  1  0  0  0  0
 10  3  1  0  0  0  0
 11 12  1  0  0  0  0
 11  9  1  0  0  0  0
 13 15  1  0  0  0  0
 13 12  1  0  0  0  0
 14 13  1  0  0  0  0
 14 15  1  0  0  0  0
 17 16  1  0  0  0  0
 18  7  1  0  0  0  0
 19 18  1  0  0  0  0
 20 19  1  0  0  0  0
 21 20  2  0  0  0  0
 22 20  1  0  0  0  0
 23 22  1  0  0  0  0
 24 25  1  0  0  0  0
 25 28  1  0  0  0  0
 26 35  1  0  0  0  0
 27 32  1  0  0  0  0
 28 27  2  0  0  0  0
 29 34  1  0  0  0  0
 32 31  1  0  0  0  0
 32 30  2  0  0  0  0
 33 26  1  0  0  0  0
 34 33  1  0  0  0  0
 34 27  1  0  0  0  0
 35 31  1  0  0  0  0
 36 37  1  0  0  0  0
 36 33  1  0  0  0  0
M  END
>  <MODEL>
7

>  <REMARK>
 VINA RESULT:      -6.8      4.025      9.888
  Name = 
  12 active torsions:
  status: ('A' for Active; 'I' for Inactive)
    1  A    between atoms: C_1  and  N_5
    2  A    between atoms: C_1  and  C_36
    3  A    between atoms: C_3  and  N_32
    4  A    between atoms: C_4  and  C_22
    5  A    between atoms: C_7  and  C_33
    6  A    between atoms: C_8  and  C_31
    7  A    between atoms: C_10  and  O_14
    8  A    between atoms: C_12  and  C_17
    9  A    between atoms: O_14  and  C_31
   10  A    between atoms: C_16  and  C_30
   11  A    between atoms: C_20  and  C_24
   12  A    between atoms: C_30  and  N_32
                            x       y       z     vdW  Elec       q    Type
                         _______ _______ _______ _____ _____    ______ ____

>  <TORSDO>
F 12

$$$$
=
 OpenBabel11052415353D

 37 41  0  0  1  0  0  0  0  0999 V2000
  187.3140  177.9310  138.7360 C   0  0  2  0  0  3  0  0  0  0  0  0
  185.8710  177.2190  136.8840 C   0  0  1  0  0  3  0  0  0  0  0  0
  185.8600  177.7250  138.3180 C   0  0  2  0  0  3  0  0  0  0  0  0
  188.2220  177.3770  137.6310 C   0  0  1  0  0  0  0  0  0  0  0  0
  188.9800  176.2810  138.0590 O   0  0  0  0  0  1  0  0  0  0  0  0
  187.3150  176.9610  136.4760 C   0  0  1  0  0  3  0  0  0  0  0  0
  186.4050  175.7990  136.8500 C   0  0  2  0  0  3  0  0  0  0  0  0
  185.1320  179.5100  139.7250 O   0  0  0  0  0  0  0  0  0  0  0  0
  183.9420  178.8940  139.2970 C   0  0  2  0  0  3  0  0  0  0  0  0
  185.1070  179.0390  138.3990 C   0  0  2  0  0  3  0  0  0  0  0  0
  182.9170  179.9620  138.9780 C   0  0  0  0  0  2  0  0  0  0  0  0
  181.6640  179.6410  139.6350 N   0  0  0  0  0  2  0  0  0  0  0  0
  181.9510  178.5960  140.6000 C   0  0  0  0  0  3  0  0  0  0  0  0
  181.0290  178.7540  141.7930 C   0  0  0  0  0  2  0  0  0  0  0  0
  180.7350  177.7040  140.7440 C   0  0  0  0  0  2  0  0  0  0  0  0
  189.1550  178.4740  137.1390 C   0  0  0  0  0  2  0  0  0  0  0  0
  188.6530  179.7350  137.4690 O   0  0  0  0  0  1  0  0  0  0  0  0
  185.9320  175.1080  135.5860 C   0  0  0  0  0  2  0  0  0  0  0  0
  184.6820  174.4060  135.8430 N   0  0  0  0  0  2  0  0  0  0  0  0
  184.6310  173.1350  136.4940 C   0  0  0  0  0  0  0  0  0  0  0  0
  185.6900  172.5500  136.8480 O   0  0  0  0  0  0  0  0  0  0  0  0
  183.3120  172.5070  136.7760 C   0  0  0  0  0  2  0  0  0  0  0  0
  183.4280  170.9990  136.6820 C   0  0  0  0  0  1  0  0  0  0  0  0
  187.6350  177.5130  140.0530 O   0  0  0  0  0  0  0  0  0  0  0  0
  188.2620  178.5670  140.7420 C   0  0  0  0  0  2  0  0  0  0  0  0
  189.9160  178.4090  145.1520 C   0  0  0  0  0  2  0  0  0  0  0  0
  189.8620  177.5770  142.3670 C   0  0  0  0  0  0  0  0  0  0  0  0
  189.6260  178.1460  141.1810 C   0  0  0  0  0  3  0  0  0  0  0  0
  188.1310  176.0370  142.9080 O   0  0  0  0  0  1  0  0  0  0  0  0
  191.9780  176.7130  141.7430 O   0  0  0  0  0  0  0  0  0  0  0  0
  191.7510  177.1330  144.0110 N   0  0  0  0  0  2  0  0  0  0  0  0
  191.2400  177.1350  142.6740 C   0  0  0  0  0  0  0  0  0  0  0  0
  189.0610  177.2070  144.7800 C   0  0  2  0  0  3  0  0  0  0  0  0
  188.7080  177.2500  143.2930 C   0  0  1  0  0  3  0  0  0  0  0  0
  191.4100  178.1000  145.0560 C   0  0  0  0  0  2  0  0  0  0  0  0
  187.7840  177.2170  145.6040 C   0  0  0  0  0  2  0  0  0  0  0  0
  186.8940  178.1630  145.0950 O   0  0  0  0  0  1  0  0  0  0  0  0
  1 24  1  1  0  0  0
  2  3  1  0  0  0  0
  3 10  1  0  0  0  0
  3  1  1  0  0  0  0
  4  5  1  0  0  0  0
  4  1  1  0  0  0  0
  6  7  1  0  0  0  0
  6  2  1  0  0  0  0
  6  4  1  0  0  0  0
  7  2  1  0  0  0  0
  9  8  1  0  0  0  0
 10  9  1  0  0  0  0
 10  8  1  0  0  0  0
 11  9  1  0  0  0  0
 11 12  1  0  0  0  0
 12 13  1  0  0  0  0
 13 15  1  0  0  0  0
 13 14  1  0  0  0  0
 15 14  1  0  0  0  0
 16 17  1  0  0  0  0
 16  4  1  0  0  0  0
 18 19  1  0  0  0  0
 18  7  1  0  0  0  0
 19 20  1  0  0  0  0
 20 22  1  0  0  0  0
 20 21  2  0  0  0  0
 23 22  1  0  0  0  0
 24 25  1  0  0  0  0
 25 28  1  0  0  0  0
 27 32  1  0  0  0  0
 27 34  1  0  0  0  0
 28 27  2  0  0  0  0
 29 34  1  0  0  0  0
 30 32  2  0  0  0  0
 31 35  1  0  0  0  0
 32 31  1  0  0  0  0
 33 26  1  0  0  0  0
 33 36  1  0  0  0  0
 34 33  1  0  0  0  0
 35 26  1  0  0  0  0
 37 36  1  0  0  0  0
M  END
>  <MODEL>
8

>  <REMARK>
 VINA RESULT:      -6.7      3.127      7.761
  Name = 
  12 active torsions:
  status: ('A' for Active; 'I' for Inactive)
    1  A    between atoms: C_1  and  N_5
    2  A    between atoms: C_1  and  C_36
    3  A    between atoms: C_3  and  N_32
    4  A    between atoms: C_4  and  C_22
    5  A    between atoms: C_7  and  C_33
    6  A    between atoms: C_8  and  C_31
    7  A    between atoms: C_10  and  O_14
    8  A    between atoms: C_12  and  C_17
    9  A    between atoms: O_14  and  C_31
   10  A    between atoms: C_16  and  C_30
   11  A    between atoms: C_20  and  C_24
   12  A    between atoms: C_30  and  N_32
                            x       y       z     vdW  Elec       q    Type
                         _______ _______ _______ _____ _____    ______ ____

>  <TORSDO>
F 12

$$$$
=
 OpenBabel11052415353D

 37 41  0  0  1  0  0  0  0  0999 V2000
  187.7580  177.1870  136.5190 C   0  0  2  0  0  3  0  0  0  0  0  0
  189.1090  176.1290  138.2730 C   0  0  1  0  0  3  0  0  0  0  0  0
  187.7750  176.0560  137.5440 C   0  0  2  0  0  3  0  0  0  0  0  0
  188.9940  178.0670  136.7430 C   0  0  1  0  0  0  0  0  0  0  0  0
  188.6620  179.3640  137.1510 O   0  0  0  0  0  1  0  0  0  0  0  0
  189.8370  177.3860  137.8180 C   0  0  1  0  0  3  0  0  0  0  0  0
  189.1330  177.3550  139.1660 C   0  0  2  0  0  3  0  0  0  0  0  0
  186.5590  174.7710  135.9430 O   0  0  0  0  0  0  0  0  0  0  0  0
  186.3320  174.1130  137.1650 C   0  0  2  0  0  3  0  0  0  0  0  0
  187.6410  174.7190  136.8420 C   0  0  2  0  0  3  0  0  0  0  0  0
  186.3950  172.6170  136.9430 C   0  0  0  0  0  2  0  0  0  0  0  0
  185.2040  172.1820  136.2360 N   0  0  0  0  0  2  0  0  0  0  0  0
  184.1330  172.1240  137.2140 C   0  0  0  0  0  3  0  0  0  0  0  0
  182.8380  172.5600  136.5580 C   0  0  0  0  0  2  0  0  0  0  0  0
  183.1160  171.0890  136.7780 C   0  0  0  0  0  2  0  0  0  0  0  0
  189.8110  178.1370  135.4610 C   0  0  0  0  0  2  0  0  0  0  0  0
  189.8950  176.8790  134.8600 O   0  0  0  0  0  1  0  0  0  0  0  0
  190.1620  177.1640  140.2630 C   0  0  0  0  0  2  0  0  0  0  0  0
  189.5680  177.4620  141.5590 N   0  0  0  0  0  2  0  0  0  0  0  0
  189.7000  176.5940  142.6860 C   0  0  0  0  0  0  0  0  0  0  0  0
  190.3210  175.5010  142.5890 O   0  0  0  0  0  0  0  0  0  0  0  0
  189.1160  176.9950  143.9950 C   0  0  0  0  0  2  0  0  0  0  0  0
  190.1990  177.0330  145.0540 C   0  0  0  0  0  1  0  0  0  0  0  0
  186.5280  177.8850  136.4020 O   0  0  0  0  0  0  0  0  0  0  0  0
  185.7860  177.7350  137.5870 C   0  0  0  0  0  2  0  0  0  0  0  0
  182.2140  177.2640  140.6260 C   0  0  0  0  0  2  0  0  0  0  0  0
  183.4270  178.2560  138.1770 C   0  0  0  0  0  0  0  0  0  0  0  0
  184.3260  177.8240  137.2870 C   0  0  0  0  0  3  0  0  0  0  0  0
  184.2970  180.0970  139.4070 O   0  0  0  0  0  1  0  0  0  0  0  0
  181.7490  178.6790  136.5600 O   0  0  0  0  0  0  0  0  0  0  0  0
  180.9340  178.1810  138.6720 N   0  0  0  0  0  2  0  0  0  0  0  0
  182.0150  178.3710  137.7530 C   0  0  0  0  0  0  0  0  0  0  0  0
  182.8580  178.6430  140.6520 C   0  0  2  0  0  3  0  0  0  0  0  0
  183.8870  178.7680  139.5270 C   0  0  1  0  0  3  0  0  0  0  0  0
  180.9280  177.2490  139.8010 C   0  0  0  0  0  2  0  0  0  0  0  0
  183.5430  178.8590  141.9910 C   0  0  0  0  0  2  0  0  0  0  0  0
  184.6170  177.9790  142.1250 O   0  0  0  0  0  1  0  0  0  0  0  0
  1 24  1  1  0  0  0
  1  4  1  0  0  0  0
  1  3  1  0  0  0  0
  2  7  1  0  0  0  0
  3  2  1  0  0  0  0
  4  5  1  0  0  0  0
  4  6  1  0  0  0  0
  6  2  1  0  0  0  0
  6  7  1  0  0  0  0
  7 18  1  0  0  0  0
  8 10  1  0  0  0  0
  8  9  1  0  0  0  0
 10  9  1  0  0  0  0
 10  3  1  0  0  0  0
 11  9  1  0  0  0  0
 12 11  1  0  0  0  0
 12 13  1  0  0  0  0
 14 15  1  0  0  0  0
 14 13  1  0  0  0  0
 15 13  1  0  0  0  0
 16  4  1  0  0  0  0
 17 16  1  0  0  0  0
 18 19  1  0  0  0  0
 19 20  1  0  0  0  0
 20 22  1  0  0  0  0
 21 20  2  0  0  0  0
 22 23  1  0  0  0  0
 24 25  1  0  0  0  0
 26 33  1  0  0  0  0
 27 34  1  0  0  0  0
 28 25  1  0  0  0  0
 28 27  2  0  0  0  0
 29 34  1  0  0  0  0
 30 32  2  0  0  0  0
 31 35  1  0  0  0  0
 32 27  1  0  0  0  0
 32 31  1  0  0  0  0
 33 36  1  0  0  0  0
 34 33  1  0  0  0  0
 35 26  1  0  0  0  0
 36 37  1  0  0  0  0
M  END
>  <MODEL>
9

>  <REMARK>
 VINA RESULT:      -6.5      3.405      7.419
  Name = 
  12 active torsions:
  status: ('A' for Active; 'I' for Inactive)
    1  A    between atoms: C_1  and  N_5
    2  A    between atoms: C_1  and  C_36
    3  A    between atoms: C_3  and  N_32
    4  A    between atoms: C_4  and  C_22
    5  A    between atoms: C_7  and  C_33
    6  A    between atoms: C_8  and  C_31
    7  A    between atoms: C_10  and  O_14
    8  A    between atoms: C_12  and  C_17
    9  A    between atoms: O_14  and  C_31
   10  A    between atoms: C_16  and  C_30
   11  A    between atoms: C_20  and  C_24
   12  A    between atoms: C_30  and  N_32
                            x       y       z     vdW  Elec       q    Type
                         _______ _______ _______ _____ _____    ______ ____

>  <TORSDO>
F 12

$$$$
