=
 OpenBabel11052413203D

 28 31  0  0  1  0  0  0  0  0999 V2000
  189.8490  177.5320  141.8180 C   0  0  2  0  0  3  0  0  0  0  0  0
  190.1300  178.0960  144.2540 C   0  0  2  0  0  3  0  0  0  0  0  0
  191.6990  176.7420  142.8250 C   0  0  0  0  0  2  0  0  0  0  0  0
  191.1980  176.9940  144.2500 C   0  0  0  0  0  2  0  0  0  0  0  0
  190.6250  176.3740  141.9980 O   0  0  0  0  0  0  0  0  0  0  0  0
  189.1150  177.9000  143.1200 C   0  0  2  0  0  3  0  0  0  0  0  0
  192.1420  179.3830  144.3660 O   0  0  0  0  0  1  0  0  0  0  0  0
  190.7670  179.4750  144.1510 C   0  0  0  0  0  2  0  0  0  0  0  0
  188.9340  177.3410  140.7640 O   0  0  0  0  0  0  0  0  0  0  0  0
  189.5810  177.5490  139.5220 C   0  0  2  0  0  3  0  0  0  0  0  0
  189.3630  176.8400  137.2270 N   0  0  0  0  0  0  0  0  0  0  0  0
  189.0320  178.7110  138.7330 C   0  0  0  0  0  2  0  0  0  0  0  0
  190.7150  175.6260  138.6930 O   0  0  0  0  0  1  0  0  0  0  0  0
  189.5280  176.3500  138.5930 C   0  0  1  0  0  3  0  0  0  0  0  0
  188.1030  176.3080  136.7360 C   0  0  0  0  0  1  0  0  0  0  0  0
  189.2200  178.2950  137.2900 C   0  0  0  0  0  2  0  0  0  0  0  0
  188.0850  176.8370  143.4950 C   0  0  0  0  0  2  0  0  0  0  0  0
  185.4500  177.9220  143.0070 C   0  0  0  0  0  3  0  0  0  0  0  0
  185.0990  178.2290  145.5480 C   0  0  0  0  0  0  0  0  0  0  0  0
  187.2140  177.3220  144.6140 C   0  0  1  0  0  3  0  0  0  0  0  0
  183.4710  179.0790  143.8580 C   0  0  0  0  0  0  0  0  0  0  0  0
  185.9870  177.8340  144.3820 C   0  0  0  0  0  0  0  0  0  0  0  0
  187.2620  177.9230  147.0040 C   0  0  0  0  0  3  0  0  0  0  0  0
  183.8640  178.9850  145.1300 C   0  0  0  0  0  3  0  0  0  0  0  0
  186.0440  179.2200  146.7450 S   0  0  0  0  0  0  0  0  0  0  0  0
  182.3330  179.7490  143.5590 F   0  0  0  0  0  0  0  0  0  0  0  0
  184.2730  178.4980  142.7680 C   0  0  0  0  0  3  0  0  0  0  0  0
  187.7470  177.2080  145.9870 C   0  0  0  0  0  3  0  0  0  0  0  0
  1  9  1  6  0  0  0
  1  5  1  0  0  0  0
  1  6  1  0  0  0  0
  2  8  1  6  0  0  0
  3  4  1  0  0  0  0
  4  2  1  0  0  0  0
  5  3  1  0  0  0  0
  6 17  1  1  0  0  0
  6  2  1  0  0  0  0
  8  7  1  0  0  0  0
 10  9  1  1  0  0  0
 11 16  1  0  0  0  0
 11 14  1  0  0  0  0
 12 10  1  0  0  0  0
 14 13  1  6  0  0  0
 14 10  1  0  0  0  0
 15 11  1  0  0  0  0
 16 12  1  0  0  0  0
 18 22  1  0  0  0  0
 19 25  1  0  0  0  0
 20 17  1  1  0  0  0
 20 28  1  0  0  0  0
 21 24  2  0  0  0  0
 22 20  1  0  0  0  0
 22 19  2  0  0  0  0
 24 19  1  0  0  0  0
 25 23  1  0  0  0  0
 26 21  1  0  0  0  0
 27 18  2  0  0  0  0
 27 21  1  0  0  0  0
 28 23  2  0  0  0  0
M  END
>  <MODEL>
1

>  <REMARK>
 VINA RESULT:      -9.2      0.000      0.000
  Name = 
  5 active torsions:
  status: ('A' for Active; 'I' for Inactive)
    1  A    between atoms: C_1  and  O_2
    2  A    between atoms: O_2  and  C_3
    3  A    between atoms: C_10  and  C_17
    4  A    between atoms: C_16  and  C_20
    5  A    between atoms: C_17  and  C_27
                            x       y       z     vdW  Elec       q    Type
                         _______ _______ _______ _____ _____    ______ ____

>  <TORSDO>
F 5

$$$$
=
 OpenBabel11052413203D

 28 31  0  0  1  0  0  0  0  0999 V2000
  190.6470  176.6830  142.0010 C   0  0  2  0  0  3  0  0  0  0  0  0
  189.9990  178.1720  143.9230 C   0  0  2  0  0  3  0  0  0  0  0  0
  191.6660  176.2860  143.9660 C   0  0  0  0  0  2  0  0  0  0  0  0
  190.6850  177.1150  144.8000 C   0  0  0  0  0  2  0  0  0  0  0  0
  190.9860  175.6630  142.9060 O   0  0  0  0  0  0  0  0  0  0  0  0
  189.5400  177.5790  142.5840 C   0  0  2  0  0  3  0  0  0  0  0  0
  192.0750  179.2350  144.4480 O   0  0  0  0  0  1  0  0  0  0  0  0
  190.9190  179.3600  143.6790 C   0  0  0  0  0  2  0  0  0  0  0  0
  190.2430  176.1230  140.7730 O   0  0  0  0  0  0  0  0  0  0  0  0
  190.5430  177.0170  139.7160 C   0  0  2  0  0  3  0  0  0  0  0  0
  190.9190  176.9400  137.3340 N   0  0  0  0  0  0  0  0  0  0  0  0
  189.3260  177.5960  139.0400 C   0  0  0  0  0  2  0  0  0  0  0  0
  192.7240  176.7280  138.8010 O   0  0  0  0  0  1  0  0  0  0  0  0
  191.3820  176.4010  138.6100 C   0  0  1  0  0  3  0  0  0  0  0  0
  190.4420  175.8160  136.5480 C   0  0  0  0  0  1  0  0  0  0  0  0
  189.7650  177.7970  137.6050 C   0  0  0  0  0  2  0  0  0  0  0  0
  188.2340  176.8060  142.7540 C   0  0  0  0  0  2  0  0  0  0  0  0
  186.8940  177.2990  145.2690 C   0  0  0  0  0  3  0  0  0  0  0  0
  185.3390  179.0080  144.1140 C   0  0  0  0  0  0  0  0  0  0  0  0
  187.0750  177.7510  142.8570 C   0  0  1  0  0  3  0  0  0  0  0  0
  185.0220  178.2960  146.4840 C   0  0  0  0  0  0  0  0  0  0  0  0
  186.4490  177.9740  144.0310 C   0  0  0  0  0  0  0  0  0  0  0  0
  185.4440  178.9940  141.4900 C   0  0  0  0  0  3  0  0  0  0  0  0
  184.5930  178.9820  145.4220 C   0  0  0  0  0  3  0  0  0  0  0  0
  184.1690  178.7780  142.7400 S   0  0  0  0  0  0  0  0  0  0  0  0
  184.3150  178.3430  147.6380 F   0  0  0  0  0  0  0  0  0  0  0  0
  186.2290  177.4560  146.4120 C   0  0  0  0  0  3  0  0  0  0  0  0
  186.6500  178.4420  141.6220 C   0  0  0  0  0  3  0  0  0  0  0  0
  1  9  1  6  0  0  0
  1  6  1  0  0  0  0
  1  5  1  0  0  0  0
  2  8  1  6  0  0  0
  2  4  1  0  0  0  0
  3  4  1  0  0  0  0
  5  3  1  0  0  0  0
  6 17  1  1  0  0  0
  6  2  1  0  0  0  0
  8  7  1  0  0  0  0
 10  9  1  1  0  0  0
 11 16  1  0  0  0  0
 11 14  1  0  0  0  0
 12 10  1  0  0  0  0
 14 13  1  1  0  0  0
 14 10  1  0  0  0  0
 15 11  1  0  0  0  0
 16 12  1  0  0  0  0
 18 27  1  0  0  0  0
 19 24  2  0  0  0  0
 20 17  1  1  0  0  0
 20 22  1  0  0  0  0
 21 26  1  0  0  0  0
 22 19  1  0  0  0  0
 22 18  2  0  0  0  0
 23 28  2  0  0  0  0
 23 25  1  0  0  0  0
 24 21  1  0  0  0  0
 25 19  1  0  0  0  0
 27 21  2  0  0  0  0
 28 20  1  0  0  0  0
M  END
>  <MODEL>
2

>  <REMARK>
 VINA RESULT:      -9.1      1.727      2.475
  Name = 
  5 active torsions:
  status: ('A' for Active; 'I' for Inactive)
    1  A    between atoms: C_1  and  O_2
    2  A    between atoms: O_2  and  C_3
    3  A    between atoms: C_10  and  C_17
    4  A    between atoms: C_16  and  C_20
    5  A    between atoms: C_17  and  C_27
                            x       y       z     vdW  Elec       q    Type
                         _______ _______ _______ _____ _____    ______ ____

>  <TORSDO>
F 5

$$$$
=
 OpenBabel11052413203D

 28 31  0  0  1  0  0  0  0  0999 V2000
  189.8790  177.3600  141.5020 C   0  0  2  0  0  3  0  0  0  0  0  0
  190.2770  178.0280  143.8940 C   0  0  2  0  0  3  0  0  0  0  0  0
  191.6520  176.4270  142.5220 C   0  0  0  0  0  2  0  0  0  0  0  0
  191.2160  176.8140  143.9380 C   0  0  0  0  0  2  0  0  0  0  0  0
  190.5250  176.1340  141.7370 O   0  0  0  0  0  0  0  0  0  0  0  0
  189.2210  177.8820  142.7910 C   0  0  2  0  0  3  0  0  0  0  0  0
  192.2410  179.2770  144.4400 O   0  0  0  0  0  1  0  0  0  0  0  0
  191.0620  179.3180  143.6980 C   0  0  0  0  0  2  0  0  0  0  0  0
  188.9240  177.2130  140.4760 O   0  0  0  0  0  0  0  0  0  0  0  0
  189.5400  177.3980  139.2150 C   0  0  2  0  0  3  0  0  0  0  0  0
  189.1930  176.7460  136.9180 N   0  0  0  0  0  0  0  0  0  0  0  0
  189.0470  178.6090  138.4640 C   0  0  0  0  0  2  0  0  0  0  0  0
  190.5060  175.4140  138.3160 O   0  0  0  0  0  1  0  0  0  0  0  0
  189.3710  176.2220  138.2700 C   0  0  1  0  0  3  0  0  0  0  0  0
  187.8830  176.3130  136.4650 C   0  0  0  0  0  1  0  0  0  0  0  0
  189.1560  178.2060  137.0090 C   0  0  0  0  0  2  0  0  0  0  0  0
  188.0880  176.9640  143.2460 C   0  0  0  0  0  2  0  0  0  0  0  0
  188.4840  177.3060  146.0890 C   0  0  0  0  0  3  0  0  0  0  0  0
  186.3290  178.7230  146.2270 C   0  0  0  0  0  0  0  0  0  0  0  0
  187.1090  177.7210  144.0920 C   0  0  1  0  0  3  0  0  0  0  0  0
  187.6080  178.0300  148.2540 C   0  0  0  0  0  0  0  0  0  0  0  0
  187.2940  177.8730  145.4200 C   0  0  0  0  0  0  0  0  0  0  0  0
  184.8300  178.6610  144.0720 C   0  0  0  0  0  3  0  0  0  0  0  0
  186.5360  178.6150  147.7150 C   0  0  0  0  0  3  0  0  0  0  0  0
  184.6130  178.2810  145.8160 S   0  0  0  0  0  0  0  0  0  0  0  0
  187.7430  177.9970  149.6010 F   0  0  0  0  0  0  0  0  0  0  0  0
  188.6300  177.3860  147.4110 C   0  0  0  0  0  3  0  0  0  0  0  0
  185.9340  178.3060  143.4130 C   0  0  0  0  0  3  0  0  0  0  0  0
  1  9  1  6  0  0  0
  1  5  1  0  0  0  0
  1  6  1  0  0  0  0
  2  8  1  6  0  0  0
  2  4  1  0  0  0  0
  3  4  1  0  0  0  0
  5  3  1  0  0  0  0
  6 17  1  1  0  0  0
  6  2  1  0  0  0  0
  8  7  1  0  0  0  0
 10  9  1  1  0  0  0
 11 16  1  0  0  0  0
 11 14  1  0  0  0  0
 12 10  1  0  0  0  0
 14 13  1  6  0  0  0
 14 10  1  0  0  0  0
 15 11  1  0  0  0  0
 16 12  1  0  0  0  0
 18 27  1  0  0  0  0
 19 24  2  0  0  0  0
 20 17  1  6  0  0  0
 20 22  1  0  0  0  0
 21 26  1  0  0  0  0
 22 18  2  0  0  0  0
 22 19  1  0  0  0  0
 23 25  1  0  0  0  0
 24 21  1  0  0  0  0
 25 19  1  0  0  0  0
 27 21  2  0  0  0  0
 28 23  2  0  0  0  0
 28 20  1  0  0  0  0
M  END
>  <MODEL>
3

>  <REMARK>
 VINA RESULT:      -8.6      1.769      2.796
  Name = 
  5 active torsions:
  status: ('A' for Active; 'I' for Inactive)
    1  A    between atoms: C_1  and  O_2
    2  A    between atoms: O_2  and  C_3
    3  A    between atoms: C_10  and  C_17
    4  A    between atoms: C_16  and  C_20
    5  A    between atoms: C_17  and  C_27
                            x       y       z     vdW  Elec       q    Type
                         _______ _______ _______ _____ _____    ______ ____

>  <TORSDO>
F 5

$$$$
=
 OpenBabel11052413203D

 28 31  0  0  1  0  0  0  0  0999 V2000
  185.1470  178.6280  138.9720 C   0  0  2  0  0  3  0  0  0  0  0  0
  183.4000  178.1520  140.7200 C   0  0  2  0  0  3  0  0  0  0  0  0
  183.1650  179.6610  138.7180 C   0  0  0  0  0  2  0  0  0  0  0  0
  182.6790  179.3790  140.1430 C   0  0  0  0  0  2  0  0  0  0  0  0
  184.5530  179.8760  138.7200 O   0  0  0  0  0  0  0  0  0  0  0  0
  184.9070  178.1990  140.4300 C   0  0  2  0  0  3  0  0  0  0  0  0
  181.4120  176.9250  140.2170 O   0  0  0  0  0  1  0  0  0  0  0  0
  182.8040  176.8620  140.1760 C   0  0  0  0  0  2  0  0  0  0  0  0
  186.5250  178.6820  138.6860 O   0  0  0  0  0  0  0  0  0  0  0  0
  186.7640  178.2060  137.3740 C   0  0  2  0  0  3  0  0  0  0  0  0
  188.0510  176.4850  136.2790 N   0  0  0  0  0  0  0  0  0  0  0  0
  185.8060  177.1290  136.9300 C   0  0  0  0  0  2  0  0  0  0  0  0
  188.9780  178.6050  136.5940 O   0  0  0  0  0  1  0  0  0  0  0  0
  188.1560  177.6380  137.1700 C   0  0  1  0  0  3  0  0  0  0  0  0
  188.5220  175.3300  137.0240 C   0  0  0  0  0  1  0  0  0  0  0  0
  186.6320  176.2670  136.0000 C   0  0  0  0  0  2  0  0  0  0  0  0
  185.6170  179.1330  141.4070 C   0  0  0  0  0  2  0  0  0  0  0  0
  184.7970  178.9210  144.1710 C   0  0  0  0  0  3  0  0  0  0  0  0
  186.8050  177.3690  144.6550 C   0  0  0  0  0  0  0  0  0  0  0  0
  186.4100  178.3440  142.4040 C   0  0  1  0  0  3  0  0  0  0  0  0
  185.3030  178.2180  146.4570 C   0  0  0  0  0  0  0  0  0  0  0  0
  186.0270  178.2520  143.6960 C   0  0  0  0  0  0  0  0  0  0  0  0
  188.5950  177.2550  142.7380 C   0  0  0  0  0  3  0  0  0  0  0  0
  186.3970  177.5440  146.0940 C   0  0  0  0  0  3  0  0  0  0  0  0
  188.5880  177.6820  144.4850 S   0  0  0  0  0  0  0  0  0  0  0  0
  184.9810  178.3080  147.7700 F   0  0  0  0  0  0  0  0  0  0  0  0
  184.4600  178.8970  145.4600 C   0  0  0  0  0  3  0  0  0  0  0  0
  187.6240  177.6590  141.9180 C   0  0  0  0  0  3  0  0  0  0  0  0
  1  9  1  1  0  0  0
  1  6  1  0  0  0  0
  2  8  1  6  0  0  0
  3  5  1  0  0  0  0
  3  4  1  0  0  0  0
  4  2  1  0  0  0  0
  5  1  1  0  0  0  0
  6  2  1  0  0  0  0
  6 17  1  1  0  0  0
  8  7  1  0  0  0  0
 10  9  1  1  0  0  0
 11 15  1  0  0  0  0
 11 14  1  0  0  0  0
 12 10  1  0  0  0  0
 14 13  1  6  0  0  0
 14 10  1  0  0  0  0
 16 11  1  0  0  0  0
 16 12  1  0  0  0  0
 18 27  1  0  0  0  0
 19 24  2  0  0  0  0
 20 17  1  6  0  0  0
 20 22  1  0  0  0  0
 21 26  1  0  0  0  0
 22 18  2  0  0  0  0
 22 19  1  0  0  0  0
 23 25  1  0  0  0  0
 24 21  1  0  0  0  0
 25 19  1  0  0  0  0
 27 21  2  0  0  0  0
 28 20  1  0  0  0  0
 28 23  2  0  0  0  0
M  END
>  <MODEL>
4

>  <REMARK>
 VINA RESULT:      -8.1      3.037      5.369
  Name = 
  5 active torsions:
  status: ('A' for Active; 'I' for Inactive)
    1  A    between atoms: C_1  and  O_2
    2  A    between atoms: O_2  and  C_3
    3  A    between atoms: C_10  and  C_17
    4  A    between atoms: C_16  and  C_20
    5  A    between atoms: C_17  and  C_27
                            x       y       z     vdW  Elec       q    Type
                         _______ _______ _______ _____ _____    ______ ____

>  <TORSDO>
F 5

$$$$
=
 OpenBabel11052413203D

 28 31  0  0  1  0  0  0  0  0999 V2000
  189.3330  176.7220  140.9780 C   0  0  2  0  0  3  0  0  0  0  0  0
  188.2820  177.7550  138.9380 C   0  0  2  0  0  3  0  0  0  0  0  0
  190.7420  177.5040  139.4090 C   0  0  0  0  0  2  0  0  0  0  0  0
  189.6820  178.3240  138.6680 C   0  0  0  0  0  2  0  0  0  0  0  0
  190.4780  177.5160  140.7890 O   0  0  0  0  0  0  0  0  0  0  0  0
  188.0850  177.4320  140.4250 C   0  0  2  0  0  3  0  0  0  0  0  0
  188.3590  176.7610  136.7660 O   0  0  0  0  0  1  0  0  0  0  0  0
  188.0250  176.5130  138.0960 C   0  0  0  0  0  2  0  0  0  0  0  0
  189.1740  176.4220  142.3450 O   0  0  0  0  0  0  0  0  0  0  0  0
  190.3430  176.7860  143.0570 C   0  0  2  0  0  3  0  0  0  0  0  0
  190.9730  177.4270  145.2950 N   0  0  0  0  0  0  0  0  0  0  0  0
  191.0680  175.6210  143.6810 C   0  0  0  0  0  2  0  0  0  0  0  0
  190.3810  179.0670  143.7420 O   0  0  0  0  0  1  0  0  0  0  0  0
  190.0950  177.7750  144.1810 C   0  0  1  0  0  3  0  0  0  0  0  0
  190.1170  177.1030  146.4240 C   0  0  0  0  0  1  0  0  0  0  0  0
  191.6880  176.2040  144.9320 C   0  0  0  0  0  2  0  0  0  0  0  0
  187.7720  178.7000  141.2170 C   0  0  0  0  0  2  0  0  0  0  0  0
  186.6450  178.6090  143.8780 C   0  0  0  0  0  3  0  0  0  0  0  0
  184.2860  178.9920  142.8990 C   0  0  0  0  0  0  0  0  0  0  0  0
  186.2970  178.8220  141.4510 C   0  0  1  0  0  3  0  0  0  0  0  0
  184.6690  178.4850  145.3120 C   0  0  0  0  0  0  0  0  0  0  0  0
  185.7740  178.7730  142.6940 C   0  0  0  0  0  0  0  0  0  0  0  0
  184.1250  178.7590  140.2890 C   0  0  0  0  0  3  0  0  0  0  0  0
  183.8230  178.6870  144.3000 C   0  0  0  0  0  3  0  0  0  0  0  0
  183.3380  177.9920  141.7120 S   0  0  0  0  0  0  0  0  0  0  0  0
  184.1810  178.2460  146.5520 F   0  0  0  0  0  0  0  0  0  0  0  0
  186.1260  178.4810  145.0980 C   0  0  0  0  0  3  0  0  0  0  0  0
  185.4340  179.0110  140.2670 C   0  0  0  0  0  3  0  0  0  0  0  0
  1  9  1  1  0  0  0
  2  8  1  6  0  0  0
  2  6  1  0  0  0  0
  3  5  1  0  0  0  0
  4  2  1  0  0  0  0
  4  3  1  0  0  0  0
  5  1  1  0  0  0  0
  6  1  1  0  0  0  0
  6 17  1  1  0  0  0
  7  8  1  0  0  0  0
 10  9  1  1  0  0  0
 10 12  1  0  0  0  0
 10 14  1  0  0  0  0
 11 15  1  0  0  0  0
 12 16  1  0  0  0  0
 14 13  1  6  0  0  0
 14 11  1  0  0  0  0
 16 11  1  0  0  0  0
 18 27  1  0  0  0  0
 19 24  2  0  0  0  0
 20 17  1  1  0  0  0
 20 22  1  0  0  0  0
 21 26  1  0  0  0  0
 22 19  1  0  0  0  0
 22 18  2  0  0  0  0
 23 25  1  0  0  0  0
 24 21  1  0  0  0  0
 25 19  1  0  0  0  0
 27 21  2  0  0  0  0
 28 23  2  0  0  0  0
 28 20  1  0  0  0  0
M  END
>  <MODEL>
5

>  <REMARK>
 VINA RESULT:      -7.6      2.572      5.287
  Name = 
  5 active torsions:
  status: ('A' for Active; 'I' for Inactive)
    1  A    between atoms: C_1  and  O_2
    2  A    between atoms: O_2  and  C_3
    3  A    between atoms: C_10  and  C_17
    4  A    between atoms: C_16  and  C_20
    5  A    between atoms: C_17  and  C_27
                            x       y       z     vdW  Elec       q    Type
                         _______ _______ _______ _____ _____    ______ ____

>  <TORSDO>
F 5

$$$$
=
 OpenBabel11052413203D

 28 31  0  0  1  0  0  0  0  0999 V2000
  188.0150  177.2150  143.8800 C   0  0  2  0  0  3  0  0  0  0  0  0
  190.3480  177.0880  142.9460 C   0  0  2  0  0  3  0  0  0  0  0  0
  189.6800  177.8580  145.2480 C   0  0  0  0  0  2  0  0  0  0  0  0
  190.7320  177.9730  144.1410 C   0  0  0  0  0  2  0  0  0  0  0  0
  188.4210  178.2380  144.7540 O   0  0  0  0  0  0  0  0  0  0  0  0
  188.8620  177.2330  142.5950 C   0  0  2  0  0  3  0  0  0  0  0  0
  191.8520  175.5370  143.9680 O   0  0  0  0  0  1  0  0  0  0  0  0
  190.6810  175.6280  143.2190 C   0  0  0  0  0  2  0  0  0  0  0  0
  186.6460  177.3520  143.5790 O   0  0  0  0  0  0  0  0  0  0  0  0
  186.0600  178.3160  144.4360 C   0  0  2  0  0  3  0  0  0  0  0  0
  183.8950  179.3010  144.8370 N   0  0  0  0  0  0  0  0  0  0  0  0
  185.5280  177.7450  145.7260 C   0  0  0  0  0  2  0  0  0  0  0  0
  185.3600  180.2990  143.3170 O   0  0  0  0  0  1  0  0  0  0  0  0
  184.9050  179.0750  143.8070 C   0  0  1  0  0  3  0  0  0  0  0  0
  182.6850  178.6280  144.3980 C   0  0  0  0  0  1  0  0  0  0  0  0
  184.3440  178.6280  146.0560 C   0  0  0  0  0  2  0  0  0  0  0  0
  188.6180  178.5070  141.7880 C   0  0  0  0  0  2  0  0  0  0  0  0
  186.1180  178.6440  140.3440 C   0  0  0  0  0  3  0  0  0  0  0  0
  187.3390  178.0180  138.1550 C   0  0  0  0  0  0  0  0  0  0  0  0
  188.5370  178.1930  140.3250 C   0  0  1  0  0  3  0  0  0  0  0  0
  184.8560  178.2080  138.2960 C   0  0  0  0  0  0  0  0  0  0  0  0
  187.3660  178.2530  139.6550 C   0  0  0  0  0  0  0  0  0  0  0  0
  189.8060  177.1770  138.4730 C   0  0  0  0  0  3  0  0  0  0  0  0
  185.9470  177.8960  137.5930 C   0  0  0  0  0  3  0  0  0  0  0  0
  188.2970  176.5300  137.7390 S   0  0  0  0  0  0  0  0  0  0  0  0
  183.6360  178.1020  137.7150 F   0  0  0  0  0  0  0  0  0  0  0  0
  184.9490  178.6280  139.7040 C   0  0  0  0  0  3  0  0  0  0  0  0
  189.7920  177.8270  139.6380 C   0  0  0  0  0  3  0  0  0  0  0  0
  1  9  1  6  0  0  0
  1  5  1  0  0  0  0
  2  8  1  1  0  0  0
  2  4  1  0  0  0  0
  4  3  1  0  0  0  0
  5  3  1  0  0  0  0
  6 17  1  1  0  0  0
  6  2  1  0  0  0  0
  6  1  1  0  0  0  0
  8  7  1  0  0  0  0
 10  9  1  6  0  0  0
 10 12  1  0  0  0  0
 11 16  1  0  0  0  0
 12 16  1  0  0  0  0
 14 13  1  1  0  0  0
 14 10  1  0  0  0  0
 14 11  1  0  0  0  0
 15 11  1  0  0  0  0
 19 22  1  0  0  0  0
 20 17  1  6  0  0  0
 21 27  2  0  0  0  0
 22 20  1  0  0  0  0
 22 18  2  0  0  0  0
 23 28  2  0  0  0  0
 24 19  2  0  0  0  0
 24 21  1  0  0  0  0
 25 19  1  0  0  0  0
 25 23  1  0  0  0  0
 26 21  1  0  0  0  0
 27 18  1  0  0  0  0
 28 20  1  0  0  0  0
M  END
>  <MODEL>
6

>  <REMARK>
 VINA RESULT:      -7.6      3.562      6.211
  Name = 
  5 active torsions:
  status: ('A' for Active; 'I' for Inactive)
    1  A    between atoms: C_1  and  O_2
    2  A    between atoms: O_2  and  C_3
    3  A    between atoms: C_10  and  C_17
    4  A    between atoms: C_16  and  C_20
    5  A    between atoms: C_17  and  C_27
                            x       y       z     vdW  Elec       q    Type
                         _______ _______ _______ _____ _____    ______ ____

>  <TORSDO>
F 5

$$$$
=
 OpenBabel11052413203D

 28 31  0  0  1  0  0  0  0  0999 V2000
  188.3040  178.4740  141.2550 C   0  0  2  0  0  3  0  0  0  0  0  0
  189.8240  177.3550  142.9180 C   0  0  2  0  0  3  0  0  0  0  0  0
  189.7050  176.9140  140.4430 C   0  0  0  0  0  2  0  0  0  0  0  0
  190.0560  176.3180  141.8090 C   0  0  0  0  0  2  0  0  0  0  0  0
  188.3650  177.3350  140.4340 O   0  0  0  0  0  0  0  0  0  0  0  0
  188.4880  178.0870  142.7330 C   0  0  2  0  0  3  0  0  0  0  0  0
  192.0640  177.7980  143.6250 O   0  0  0  0  0  1  0  0  0  0  0  0
  190.9660  178.3590  142.9750 C   0  0  0  0  0  2  0  0  0  0  0  0
  187.0790  179.1430  141.0620 O   0  0  0  0  0  0  0  0  0  0  0  0
  186.2300  178.3650  140.2380 C   0  0  2  0  0  3  0  0  0  0  0  0
  184.0850  178.5600  139.1540 N   0  0  0  0  0  0  0  0  0  0  0  0
  186.4770  178.5450  138.7610 C   0  0  0  0  0  2  0  0  0  0  0  0
  184.2190  177.6740  141.3100 O   0  0  0  0  0  1  0  0  0  0  0  0
  184.7520  178.6340  140.4510 C   0  0  1  0  0  3  0  0  0  0  0  0
  183.5010  179.8670  138.9030 C   0  0  0  0  0  1  0  0  0  0  0  0
  185.1130  178.3460  138.1360 C   0  0  0  0  0  2  0  0  0  0  0  0
  187.3270  177.2270  143.2300 C   0  0  0  0  0  2  0  0  0  0  0  0
  188.4720  177.4460  145.8750 C   0  0  0  0  0  3  0  0  0  0  0  0
  186.4180  178.8000  146.6600 C   0  0  0  0  0  0  0  0  0  0  0  0
  186.6040  177.9180  144.3460 C   0  0  1  0  0  3  0  0  0  0  0  0
  188.2040  178.0460  148.2300 C   0  0  0  0  0  0  0  0  0  0  0  0
  187.1390  178.0130  145.5810 C   0  0  0  0  0  0  0  0  0  0  0  0
  184.3940  178.8000  144.9880 C   0  0  0  0  0  3  0  0  0  0  0  0
  187.0200  178.6280  148.0300 C   0  0  0  0  0  3  0  0  0  0  0  0
  184.6600  178.3340  146.7040 S   0  0  0  0  0  0  0  0  0  0  0  0
  188.6980  177.9530  149.4880 F   0  0  0  0  0  0  0  0  0  0  0  0
  188.9680  177.4680  147.1110 C   0  0  0  0  0  3  0  0  0  0  0  0
  185.2830  178.5040  144.0390 C   0  0  0  0  0  3  0  0  0  0  0  0
  1  9  1  1  0  0  0
  1  6  1  0  0  0  0
  2  8  1  6  0  0  0
  3  4  1  0  0  0  0
  4  2  1  0  0  0  0
  5  3  1  0  0  0  0
  5  1  1  0  0  0  0
  6  2  1  0  0  0  0
  6 17  1  6  0  0  0
  8  7  1  0  0  0  0
 10 14  1  0  0  0  0
 10  9  1  1  0  0  0
 11 14  1  0  0  0  0
 12 10  1  0  0  0  0
 14 13  1  1  0  0  0
 15 11  1  0  0  0  0
 16 12  1  0  0  0  0
 16 11  1  0  0  0  0
 18 27  1  0  0  0  0
 19 25  1  0  0  0  0
 19 24  2  0  0  0  0
 20 17  1  6  0  0  0
 20 22  1  0  0  0  0
 21 26  1  0  0  0  0
 22 18  2  0  0  0  0
 22 19  1  0  0  0  0
 23 25  1  0  0  0  0
 24 21  1  0  0  0  0
 27 21  2  0  0  0  0
 28 20  1  0  0  0  0
 28 23  2  0  0  0  0
M  END
>  <MODEL>
7

>  <REMARK>
 VINA RESULT:      -7.5      2.836      4.114
  Name = 
  5 active torsions:
  status: ('A' for Active; 'I' for Inactive)
    1  A    between atoms: C_1  and  O_2
    2  A    between atoms: O_2  and  C_3
    3  A    between atoms: C_10  and  C_17
    4  A    between atoms: C_16  and  C_20
    5  A    between atoms: C_17  and  C_27
                            x       y       z     vdW  Elec       q    Type
                         _______ _______ _______ _____ _____    ______ ____

>  <TORSDO>
F 5

$$$$
=
 OpenBabel11052413203D

 28 31  0  0  1  0  0  0  0  0999 V2000
  188.1200  176.9360  143.8300 C   0  0  2  0  0  3  0  0  0  0  0  0
  190.5320  176.7970  143.1270 C   0  0  2  0  0  3  0  0  0  0  0  0
  189.6390  177.7190  145.2920 C   0  0  0  0  0  2  0  0  0  0  0  0
  190.7870  177.7770  144.2810 C   0  0  0  0  0  2  0  0  0  0  0  0
  188.4250  178.0310  144.6570 O   0  0  0  0  0  0  0  0  0  0  0  0
  189.0830  176.8790  142.6310 C   0  0  2  0  0  3  0  0  0  0  0  0
  192.0560  175.3450  144.2600 O   0  0  0  0  0  1  0  0  0  0  0  0
  190.8630  175.3690  143.5400 C   0  0  0  0  0  2  0  0  0  0  0  0
  186.7830  177.0180  143.3950 O   0  0  0  0  0  0  0  0  0  0  0  0
  186.2040  178.2300  143.8430 C   0  0  2  0  0  3  0  0  0  0  0  0
  184.0790  179.3670  143.7430 N   0  0  0  0  0  0  0  0  0  0  0  0
  185.5690  178.1380  145.2080 C   0  0  0  0  0  2  0  0  0  0  0  0
  185.6810  179.7530  142.0880 O   0  0  0  0  0  1  0  0  0  0  0  0
  185.1320  178.7770  142.9190 C   0  0  1  0  0  3  0  0  0  0  0  0
  182.8600  178.6270  143.4640 C   0  0  0  0  0  1  0  0  0  0  0  0
  184.4200  179.1200  145.1440 C   0  0  0  0  0  2  0  0  0  0  0  0
  188.8940  178.0830  141.7100 C   0  0  0  0  0  2  0  0  0  0  0  0
  187.1780  178.2530  139.3900 C   0  0  0  0  0  3  0  0  0  0  0  0
  189.1650  177.6210  137.8650 C   0  0  0  0  0  0  0  0  0  0  0  0
  189.4000  177.7760  140.3340 C   0  0  1  0  0  3  0  0  0  0  0  0
  186.8330  177.8360  137.0060 C   0  0  0  0  0  0  0  0  0  0  0  0
  188.5940  177.8500  139.2530 C   0  0  0  0  0  0  0  0  0  0  0  0
  191.2930  176.7520  139.1340 C   0  0  0  0  0  3  0  0  0  0  0  0
  188.1120  177.5160  136.7940 C   0  0  0  0  0  3  0  0  0  0  0  0
  190.1970  176.1240  137.8540 S   0  0  0  0  0  0  0  0  0  0  0  0
  185.9460  177.7460  135.9860 F   0  0  0  0  0  0  0  0  0  0  0  0
  186.3610  178.2510  138.3380 C   0  0  0  0  0  3  0  0  0  0  0  0
  190.8220  177.3980  140.2010 C   0  0  0  0  0  3  0  0  0  0  0  0
  1  9  1  6  0  0  0
  1  5  1  0  0  0  0
  2  8  1  1  0  0  0
  2  4  1  0  0  0  0
  4  3  1  0  0  0  0
  5  3  1  0  0  0  0
  6 17  1  6  0  0  0
  6  2  1  0  0  0  0
  6  1  1  0  0  0  0
  8  7  1  0  0  0  0
 10  9  1  6  0  0  0
 10 12  1  0  0  0  0
 11 16  1  0  0  0  0
 14 13  1  6  0  0  0
 14 11  1  0  0  0  0
 14 10  1  0  0  0  0
 15 11  1  0  0  0  0
 16 12  1  0  0  0  0
 19 22  2  0  0  0  0
 20 17  1  6  0  0  0
 21 27  1  0  0  0  0
 22 18  1  0  0  0  0
 22 20  1  0  0  0  0
 23 28  2  0  0  0  0
 24 21  2  0  0  0  0
 24 19  1  0  0  0  0
 25 19  1  0  0  0  0
 25 23  1  0  0  0  0
 26 21  1  0  0  0  0
 27 18  2  0  0  0  0
 28 20  1  0  0  0  0
M  END
>  <MODEL>
8

>  <REMARK>
 VINA RESULT:      -7.4      3.565      6.372
  Name = 
  5 active torsions:
  status: ('A' for Active; 'I' for Inactive)
    1  A    between atoms: C_1  and  O_2
    2  A    between atoms: O_2  and  C_3
    3  A    between atoms: C_10  and  C_17
    4  A    between atoms: C_16  and  C_20
    5  A    between atoms: C_17  and  C_27
                            x       y       z     vdW  Elec       q    Type
                         _______ _______ _______ _____ _____    ______ ____

>  <TORSDO>
F 5

$$$$
=
 OpenBabel11052413203D

 28 31  0  0  1  0  0  0  0  0999 V2000
  189.4990  176.7310  137.6490 C   0  0  2  0  0  3  0  0  0  0  0  0
  187.2210  177.7470  137.9740 C   0  0  2  0  0  3  0  0  0  0  0  0
  188.8040  178.1650  136.0620 C   0  0  0  0  0  2  0  0  0  0  0  0
  187.6580  178.7480  136.8950 C   0  0  0  0  0  2  0  0  0  0  0  0
  189.8900  177.8510  136.8960 O   0  0  0  0  0  0  0  0  0  0  0  0
  188.4290  177.1210  138.6830 C   0  0  2  0  0  3  0  0  0  0  0  0
  185.3950  177.2180  136.5250 O   0  0  0  0  0  1  0  0  0  0  0  0
  186.3400  176.6560  137.3820 C   0  0  0  0  0  2  0  0  0  0  0  0
  190.6210  176.1590  138.2800 O   0  0  0  0  0  0  0  0  0  0  0  0
  191.7360  176.1990  137.4090 C   0  0  2  0  0  3  0  0  0  0  0  0
  193.9020  175.1600  137.1920 N   0  0  0  0  0  0  0  0  0  0  0  0
  191.6600  175.2140  136.2700 C   0  0  0  0  0  2  0  0  0  0  0  0
  193.6870  177.1540  138.3880 O   0  0  0  0  0  1  0  0  0  0  0  0
  193.0640  175.9410  138.0980 C   0  0  1  0  0  3  0  0  0  0  0  0
  194.1860  173.9000  137.8580 C   0  0  0  0  0  1  0  0  0  0  0  0
  193.1050  174.8490  136.0050 C   0  0  0  0  0  2  0  0  0  0  0  0
  188.9940  178.0750  139.7330 C   0  0  0  0  0  2  0  0  0  0  0  0
  186.7860  178.4810  141.5550 C   0  0  0  0  0  3  0  0  0  0  0  0
  187.8990  176.9000  143.2670 C   0  0  0  0  0  0  0  0  0  0  0  0
  188.9660  177.4380  141.0890 C   0  0  1  0  0  3  0  0  0  0  0  0
  185.8390  178.2060  143.7920 C   0  0  0  0  0  0  0  0  0  0  0  0
  187.9360  177.6350  141.9390 C   0  0  0  0  0  0  0  0  0  0  0  0
  190.3880  176.2650  142.7240 C   0  0  0  0  0  3  0  0  0  0  0  0
  186.8150  177.3880  144.1920 C   0  0  0  0  0  3  0  0  0  0  0  0
  189.5120  177.0280  144.0970 S   0  0  0  0  0  0  0  0  0  0  0  0
  184.8800  178.5810  144.6720 F   0  0  0  0  0  0  0  0  0  0  0  0
  185.8070  178.7400  142.4200 C   0  0  0  0  0  3  0  0  0  0  0  0
  190.1060  176.5750  141.4580 C   0  0  0  0  0  3  0  0  0  0  0  0
  1  9  1  1  0  0  0
  1  6  1  0  0  0  0
  2  8  1  6  0  0  0
  2  6  1  0  0  0  0
  3  4  1  0  0  0  0
  3  5  1  0  0  0  0
  4  2  1  0  0  0  0
  5  1  1  0  0  0  0
  6 17  1  1  0  0  0
  7  8  1  0  0  0  0
 10 14  1  0  0  0  0
 10  9  1  1  0  0  0
 11 15  1  0  0  0  0
 11 14  1  0  0  0  0
 12 10  1  0  0  0  0
 14 13  1  6  0  0  0
 16 12  1  0  0  0  0
 16 11  1  0  0  0  0
 18 22  2  0  0  0  0
 18 27  1  0  0  0  0
 19 25  1  0  0  0  0
 19 24  2  0  0  0  0
 20 17  1  6  0  0  0
 20 28  1  0  0  0  0
 20 22  1  0  0  0  0
 21 24  1  0  0  0  0
 21 26  1  0  0  0  0
 22 19  1  0  0  0  0
 23 25  1  0  0  0  0
 27 21  2  0  0  0  0
 28 23  2  0  0  0  0
M  END
>  <MODEL>
9

>  <REMARK>
 VINA RESULT:      -7.4      2.787      5.229
  Name = 
  5 active torsions:
  status: ('A' for Active; 'I' for Inactive)
    1  A    between atoms: C_1  and  O_2
    2  A    between atoms: O_2  and  C_3
    3  A    between atoms: C_10  and  C_17
    4  A    between atoms: C_16  and  C_20
    5  A    between atoms: C_17  and  C_27
                            x       y       z     vdW  Elec       q    Type
                         _______ _______ _______ _____ _____    ______ ____

>  <TORSDO>
F 5

$$$$
