=
 OpenBabel11052415163D

 37 42  0  0  1  0  0  0  0  0999 V2000
  188.6650  179.4230  137.9470 O   0  0  0  0  0  1  0  0  0  0  0  0
  186.2270  178.3590  138.1900 N   0  0  1  0  0  0  0  0  0  0  0  0
  183.6890  178.2400  140.8710 O   0  0  0  0  0  0  0  0  0  0  0  0
  188.6060  177.0780  138.3450 C   0  0  0  0  0  2  0  0  0  0  0  0
  185.6720  178.0410  139.5370 C   0  0  2  0  0  3  0  0  0  0  0  0
  187.2750  177.4480  137.7260 C   0  0  1  0  0  0  0  0  0  0  0  0
  184.3500  178.8120  139.7800 C   0  0  1  0  0  3  0  0  0  0  0  0
  186.9470  177.1830  135.2050 C   0  0  0  0  0  1  0  0  0  0  0  0
  184.2080  176.8820  137.5150 C   0  0  0  0  0  2  0  0  0  0  0  0
  186.5180  176.7840  136.6120 C   0  0  2  0  0  3  0  0  0  0  0  0
  184.3470  178.7310  142.0100 C   0  0  1  0  0  3  0  0  0  0  0  0
  185.4180  177.7340  137.0810 C   0  0  2  0  0  3  0  0  0  0  0  0
  186.5460  178.4920  140.7390 C   0  0  1  0  0  3  0  0  0  0  0  0
  188.5560  178.1850  137.3080 C   0  0  1  0  0  3  0  0  0  0  0  0
  183.4170  179.0230  138.5820 C   0  0  1  0  0  3  0  0  0  0  0  0
  183.5680  178.3050  143.2400 C   0  0  0  0  0  1  0  0  0  0  0  0
  185.8040  178.2230  142.0730 C   0  0  1  0  0  3  0  0  0  0  0  0
  183.0020  177.7390  137.8760 C   0  0  0  0  0  2  0  0  0  0  0  0
  181.3060  179.5580  139.8710 C   0  0  0  0  0  3  0  0  0  0  0  0
  182.2540  179.9110  138.8980 C   0  0  0  0  0  0  0  0  0  0  0  0
  182.1310  181.1310  138.2230 C   0  0  0  0  0  3  0  0  0  0  0  0
  180.9190  183.5140  137.6610 Cl  0  0  0  0  0  0  0  0  0  0  0  0
  180.1210  181.6330  139.4780 C   0  0  0  0  0  3  0  0  0  0  0  0
  181.0650  181.9880  138.5100 C   0  0  0  0  0  0  0  0  0  0  0  0
  180.2420  180.4160  140.1590 C   0  0  0  0  0  3  0  0  0  0  0  0
  186.5380  178.9020  143.2230 C   0  0  0  0  0  2  0  0  0  0  0  0
  187.0680  177.8540  144.2070 C   0  0  1  0  0  3  0  0  0  0  0  0
  188.9870  176.9930  145.6330 C   0  0  0  0  0  1  0  0  0  0  0  0
  188.5240  178.0500  144.6430 C   0  0  0  0  0  2  0  0  0  0  0  0
  186.1860  177.5180  145.2610 O   0  0  0  0  0  0  0  0  0  0  0  0
  186.2100  178.6670  147.3470 C   0  0  0  0  0  2  0  0  0  0  0  0
  185.7550  178.6890  145.9030 C   0  0  0  0  0  3  0  0  0  0  0  0
  184.7800  178.3190  147.0030 C   0  0  0  0  0  2  0  0  0  0  0  0
  187.7810  177.8460  140.7800 O   0  0  0  0  0  0  0  0  0  0  0  0
  188.6910  178.8430  141.1440 C   0  0  0  0  0  2  0  0  0  0  0  0
  189.9950  178.2130  141.5860 C   0  0  0  0  0  2  0  0  0  0  0  0
  189.8340  176.7100  141.6330 C   0  0  0  0  0  1  0  0  0  0  0  0
  2  5  1  0  0  0  0
  3 11  1  0  0  0  0
  5  7  1  0  0  0  0
  5 13  1  0  0  0  0
  6  2  1  0  0  0  0
  6  4  1  0  0  0  0
  7  3  1  0  0  0  0
  8 10  1  0  0  0  0
  9 18  1  0  0  0  0
 10 12  1  0  0  0  0
 10  6  1  0  0  0  0
 11 17  1  0  0  0  0
 11 16  1  0  0  0  0
 12  9  1  0  0  0  0
 12  2  1  0  0  0  0
 13 34  1  0  0  0  0
 13 17  1  0  0  0  0
 14  6  1  0  0  0  0
 14  1  1  0  0  0  0
 14  4  1  0  0  0  0
 15 20  1  0  0  0  0
 15  7  1  0  0  0  0
 17 26  1  0  0  0  0
 18 15  1  0  0  0  0
 19 25  1  0  0  0  0
 20 19  2  0  0  0  0
 21 24  2  0  0  0  0
 21 20  1  0  0  0  0
 22 24  1  0  0  0  0
 23 25  2  0  0  0  0
 24 23  1  0  0  0  0
 26 27  1  0  0  0  0
 27 29  1  0  0  0  0
 27 30  1  0  0  0  0
 29 28  1  0  0  0  0
 30 32  1  0  0  0  0
 32 33  1  0  0  0  0
 32 31  1  0  0  0  0
 33 31  1  0  0  0  0
 34 35  1  0  0  0  0
 35 36  1  0  0  0  0
 36 37  1  0  0  0  0
M  END
>  <MODEL>
1

>  <REMARK>
 VINA RESULT:      -6.5      0.000      0.000
  Name = 
  9 active torsions:
  status: ('A' for Active; 'I' for Inactive)
    1  A    between atoms: C_1  and  C_5
    2  A    between atoms: C_1  and  C_36
    3  A    between atoms: C_5  and  O_17
    4  A    between atoms: C_5  and  C_23
    5  A    between atoms: C_6  and  C_31
    6  A    between atoms: O_17  and  C_26
    7  A    between atoms: O_20  and  C_25
    8  A    between atoms: O_20  and  C_29
    9  A    between atoms: C_21  and  C_25
                            x       y       z     vdW  Elec       q    Type
                         _______ _______ _______ _____ _____    ______ ____

>  <TORSDO>
F 9

$$$$
=
 OpenBabel11052415163D

 37 42  0  0  1  0  0  0  0  0999 V2000
  189.0890  179.9850  137.5780 O   0  0  0  0  0  1  0  0  0  0  0  0
  186.8670  178.5620  137.9900 N   0  0  1  0  0  0  0  0  0  0  0  0
  184.6540  177.9590  140.8850 O   0  0  0  0  0  0  0  0  0  0  0  0
  189.4080  177.6430  137.8510 C   0  0  0  0  0  2  0  0  0  0  0  0
  186.5010  178.1110  139.3630 C   0  0  2  0  0  3  0  0  0  0  0  0
  187.9830  177.8370  137.3800 C   0  0  1  0  0  0  0  0  0  0  0  0
  185.1130  178.6660  139.7700 C   0  0  1  0  0  3  0  0  0  0  0  0
  187.4440  177.6280  134.8900 C   0  0  0  0  0  1  0  0  0  0  0  0
  185.0240  176.8310  137.4260 C   0  0  0  0  0  2  0  0  0  0  0  0
  187.2210  177.1130  136.3070 C   0  0  2  0  0  3  0  0  0  0  0  0
  185.3460  178.4960  141.9830 C   0  0  1  0  0  3  0  0  0  0  0  0
  186.0480  177.8690  136.9280 C   0  0  2  0  0  3  0  0  0  0  0  0
  187.4170  178.6380  140.5000 C   0  0  1  0  0  3  0  0  0  0  0  0
  189.0960  178.7720  136.8850 C   0  0  1  0  0  3  0  0  0  0  0  0
  184.0440  178.7860  138.6780 C   0  0  1  0  0  3  0  0  0  0  0  0
  184.7640  177.9090  143.2550 C   0  0  0  0  0  1  0  0  0  0  0  0
  186.8600  178.2080  141.8810 C   0  0  1  0  0  3  0  0  0  0  0  0
  183.7490  177.4840  137.9450 C   0  0  0  0  0  2  0  0  0  0  0  0
  182.3720  180.6820  138.5730 C   0  0  0  0  0  3  0  0  0  0  0  0
  182.8030  179.4770  139.1490 C   0  0  0  0  0  0  0  0  0  0  0  0
  182.0460  178.8880  140.1690 C   0  0  0  0  0  3  0  0  0  0  0  0
  179.9300  178.7560  141.8920 Cl  0  0  0  0  0  0  0  0  0  0  0  0
  180.4470  180.7030  140.0430 C   0  0  0  0  0  3  0  0  0  0  0  0
  180.8730  179.5010  140.6160 C   0  0  0  0  0  0  0  0  0  0  0  0
  181.1980  181.2940  139.0210 C   0  0  0  0  0  3  0  0  0  0  0  0
  187.6000  178.9410  142.9930 C   0  0  0  0  0  2  0  0  0  0  0  0
  188.2850  177.9370  143.9270 C   0  0  1  0  0  3  0  0  0  0  0  0
  190.4870  177.1500  144.9210 C   0  0  0  0  0  1  0  0  0  0  0  0
  189.6930  178.3310  144.3850 C   0  0  0  0  0  2  0  0  0  0  0  0
  187.4640  177.4160  144.9560 O   0  0  0  0  0  0  0  0  0  0  0  0
  187.3770  177.8340  147.3000 C   0  0  0  0  0  2  0  0  0  0  0  0
  187.2180  178.4160  145.9100 C   0  0  0  0  0  3  0  0  0  0  0  0
  185.9950  178.0340  146.7210 C   0  0  0  0  0  2  0  0  0  0  0  0
  188.7300  178.1810  140.3900 O   0  0  0  0  0  0  0  0  0  0  0  0
  188.7090  176.9000  140.9530 C   0  0  0  0  0  2  0  0  0  0  0  0
  190.1230  176.4340  141.2240 C   0  0  0  0  0  2  0  0  0  0  0  0
  191.0720  177.6030  141.0810 C   0  0  0  0  0  1  0  0  0  0  0  0
  2  5  1  0  0  0  0
  3 11  1  0  0  0  0
  5  7  1  0  0  0  0
  5 13  1  0  0  0  0
  6  4  1  0  0  0  0
  6  2  1  0  0  0  0
  7  3  1  0  0  0  0
  8 10  1  0  0  0  0
  9 18  1  0  0  0  0
 10 12  1  0  0  0  0
 10  6  1  0  0  0  0
 11 16  1  0  0  0  0
 12  9  1  0  0  0  0
 12  2  1  0  0  0  0
 13 17  1  0  0  0  0
 14  6  1  0  0  0  0
 14  1  1  0  0  0  0
 14  4  1  0  0  0  0
 15 20  1  0  0  0  0
 15  7  1  0  0  0  0
 17 11  1  0  0  0  0
 17 26  1  0  0  0  0
 18 15  1  0  0  0  0
 19 25  2  0  0  0  0
 19 20  1  0  0  0  0
 20 21  2  0  0  0  0
 21 24  1  0  0  0  0
 23 24  2  0  0  0  0
 24 22  1  0  0  0  0
 25 23  1  0  0  0  0
 26 27  1  0  0  0  0
 27 29  1  0  0  0  0
 27 30  1  0  0  0  0
 29 28  1  0  0  0  0
 30 32  1  0  0  0  0
 32 33  1  0  0  0  0
 32 31  1  0  0  0  0
 33 31  1  0  0  0  0
 34 13  1  0  0  0  0
 34 35  1  0  0  0  0
 35 36  1  0  0  0  0
 37 36  1  0  0  0  0
M  END
>  <MODEL>
2

>  <REMARK>
 VINA RESULT:      -6.3      1.437      1.723
  Name = 
  9 active torsions:
  status: ('A' for Active; 'I' for Inactive)
    1  A    between atoms: C_1  and  C_5
    2  A    between atoms: C_1  and  C_36
    3  A    between atoms: C_5  and  O_17
    4  A    between atoms: C_5  and  C_23
    5  A    between atoms: C_6  and  C_31
    6  A    between atoms: O_17  and  C_26
    7  A    between atoms: O_20  and  C_25
    8  A    between atoms: O_20  and  C_29
    9  A    between atoms: C_21  and  C_25
                            x       y       z     vdW  Elec       q    Type
                         _______ _______ _______ _____ _____    ______ ____

>  <TORSDO>
F 9

$$$$
=
 OpenBabel11052415163D

 37 42  0  0  1  0  0  0  0  0999 V2000
  187.7410  178.4460  136.1730 O   0  0  0  0  0  1  0  0  0  0  0  0
  185.4750  177.6650  137.3510 N   0  0  1  0  0  0  0  0  0  0  0  0
  183.8600  178.3390  140.6040 O   0  0  0  0  0  0  0  0  0  0  0  0
  187.7710  176.2560  137.1010 C   0  0  0  0  0  2  0  0  0  0  0  0
  185.3460  177.6930  138.8360 C   0  0  2  0  0  3  0  0  0  0  0  0
  186.3220  176.5920  136.8270 C   0  0  1  0  0  0  0  0  0  0  0  0
  184.1700  178.6040  139.2670 C   0  0  1  0  0  3  0  0  0  0  0  0
  185.2460  175.8160  134.6410 C   0  0  0  0  0  1  0  0  0  0  0  0
  183.3260  176.2500  137.6500 C   0  0  0  0  0  2  0  0  0  0  0  0
  185.2550  175.7670  136.1650 C   0  0  2  0  0  3  0  0  0  0  0  0
  184.8370  179.0090  141.3570 C   0  0  1  0  0  3  0  0  0  0  0  0
  184.3600  176.8840  136.6990 C   0  0  2  0  0  3  0  0  0  0  0  0
  186.5470  178.3190  139.5950 C   0  0  1  0  0  3  0  0  0  0  0  0
  187.4280  177.1120  135.8970 C   0  0  1  0  0  3  0  0  0  0  0  0
  182.9220  178.6280  138.3750 C   0  0  1  0  0  3  0  0  0  0  0  0
  184.4580  178.9240  142.8240 C   0  0  0  0  0  1  0  0  0  0  0  0
  186.2380  178.4080  141.1110 C   0  0  1  0  0  3  0  0  0  0  0  0
  182.2960  177.2610  138.1370 C   0  0  0  0  0  2  0  0  0  0  0  0
  181.0690  179.4400  139.8950 C   0  0  0  0  0  3  0  0  0  0  0  0
  181.9210  179.6560  138.8010 C   0  0  0  0  0  0  0  0  0  0  0  0
  181.8580  180.8690  138.1040 C   0  0  0  0  0  3  0  0  0  0  0  0
  180.8730  183.3690  137.6130 Cl  0  0  0  0  0  0  0  0  0  0  0  0
  180.0950  181.6350  139.5780 C   0  0  0  0  0  3  0  0  0  0  0  0
  180.9460  181.8540  138.4900 C   0  0  0  0  0  0  0  0  0  0  0  0
  180.1570  180.4260  140.2810 C   0  0  0  0  0  3  0  0  0  0  0  0
  187.2930  179.2570  141.8100 C   0  0  0  0  0  2  0  0  0  0  0  0
  188.0870  178.4030  142.8050 C   0  0  1  0  0  3  0  0  0  0  0  0
  186.9310  176.9780  144.5620 C   0  0  0  0  0  1  0  0  0  0  0  0
  187.4620  177.0450  143.1400 C   0  0  0  0  0  2  0  0  0  0  0  0
  189.4840  178.3600  142.5800 O   0  0  0  0  0  0  0  0  0  0  0  0
  191.2660  179.2250  143.9030 C   0  0  0  0  0  2  0  0  0  0  0  0
  190.1510  178.2040  143.8050 C   0  0  0  0  0  3  0  0  0  0  0  0
  191.5850  177.7930  143.5360 C   0  0  0  0  0  2  0  0  0  0  0  0
  187.7280  177.5980  139.4240 O   0  0  0  0  0  0  0  0  0  0  0  0
  188.7150  178.5710  139.2380 C   0  0  0  0  0  2  0  0  0  0  0  0
  190.0490  177.9060  138.9730 C   0  0  0  0  0  2  0  0  0  0  0  0
  190.2240  176.7390  139.9180 C   0  0  0  0  0  1  0  0  0  0  0  0
  2  5  1  0  0  0  0
  3 11  1  0  0  0  0
  5  7  1  0  0  0  0
  5 13  1  0  0  0  0
  6  4  1  0  0  0  0
  6  2  1  0  0  0  0
  7  3  1  0  0  0  0
  8 10  1  0  0  0  0
  9 18  1  0  0  0  0
 10 12  1  0  0  0  0
 10  6  1  0  0  0  0
 11 16  1  0  0  0  0
 12  2  1  0  0  0  0
 12  9  1  0  0  0  0
 13 17  1  0  0  0  0
 14  1  1  0  0  0  0
 14  6  1  0  0  0  0
 14  4  1  0  0  0  0
 15 20  1  0  0  0  0
 15  7  1  0  0  0  0
 17 11  1  0  0  0  0
 17 26  1  0  0  0  0
 18 15  1  0  0  0  0
 19 25  1  0  0  0  0
 20 19  2  0  0  0  0
 21 24  2  0  0  0  0
 21 20  1  0  0  0  0
 22 24  1  0  0  0  0
 23 25  2  0  0  0  0
 24 23  1  0  0  0  0
 26 27  1  0  0  0  0
 27 29  1  0  0  0  0
 29 28  1  0  0  0  0
 30 27  1  0  0  0  0
 30 32  1  0  0  0  0
 32 31  1  0  0  0  0
 33 32  1  0  0  0  0
 33 31  1  0  0  0  0
 34 13  1  0  0  0  0
 35 34  1  0  0  0  0
 36 35  1  0  0  0  0
 36 37  1  0  0  0  0
M  END
>  <MODEL>
3

>  <REMARK>
 VINA RESULT:      -6.1      1.633      2.357
  Name = 
  9 active torsions:
  status: ('A' for Active; 'I' for Inactive)
    1  A    between atoms: C_1  and  C_5
    2  A    between atoms: C_1  and  C_36
    3  A    between atoms: C_5  and  O_17
    4  A    between atoms: C_5  and  C_23
    5  A    between atoms: C_6  and  C_31
    6  A    between atoms: O_17  and  C_26
    7  A    between atoms: O_20  and  C_25
    8  A    between atoms: O_20  and  C_29
    9  A    between atoms: C_21  and  C_25
                            x       y       z     vdW  Elec       q    Type
                         _______ _______ _______ _____ _____    ______ ____

>  <TORSDO>
F 9

$$$$
=
 OpenBabel11052415163D

 37 42  0  0  1  0  0  0  0  0999 V2000
  186.2120  175.0080  135.8920 O   0  0  0  0  0  1  0  0  0  0  0  0
  187.3550  177.0270  137.2150 N   0  0  1  0  0  0  0  0  0  0  0  0
  186.5970  178.8680  140.3260 O   0  0  0  0  0  0  0  0  0  0  0  0
  185.8160  177.1740  134.9940 C   0  0  0  0  0  2  0  0  0  0  0  0
  186.5530  177.8720  138.1450 C   0  0  2  0  0  3  0  0  0  0  0  0
  187.0990  177.2620  135.7930 C   0  0  1  0  0  0  0  0  0  0  0  0
  187.1400  177.8210  139.5770 C   0  0  1  0  0  3  0  0  0  0  0  0
  189.3430  177.0090  134.5950 C   0  0  0  0  0  1  0  0  0  0  0  0
  188.9950  179.0020  137.5680 C   0  0  0  0  0  2  0  0  0  0  0  0
  188.4150  177.8860  135.4270 C   0  0  2  0  0  3  0  0  0  0  0  0
  185.3090  178.4430  140.6890 C   0  0  1  0  0  3  0  0  0  0  0  0
  188.6990  177.6400  136.9080 C   0  0  2  0  0  3  0  0  0  0  0  0
  185.0890  177.4070  138.3690 C   0  0  1  0  0  3  0  0  0  0  0  0
  186.7440  175.9740  135.0350 C   0  0  1  0  0  3  0  0  0  0  0  0
  188.6650  177.7350  139.7200 C   0  0  1  0  0  3  0  0  0  0  0  0
  184.7250  179.4490  141.6630 C   0  0  0  0  0  1  0  0  0  0  0  0
  184.4050  178.2850  139.4470 C   0  0  1  0  0  3  0  0  0  0  0  0
  189.4240  178.8550  139.0220 C   0  0  0  0  0  2  0  0  0  0  0  0
  190.4680  177.5030  141.4810 C   0  0  0  0  0  3  0  0  0  0  0  0
  189.1080  177.5320  141.1360 C   0  0  0  0  0  0  0  0  0  0  0  0
  188.1370  177.3970  142.1350 C   0  0  0  0  0  3  0  0  0  0  0  0
  187.3000  177.0580  144.7140 Cl  0  0  0  0  0  0  0  0  0  0  0  0
  189.8770  177.1930  143.8090 C   0  0  0  0  0  3  0  0  0  0  0  0
  188.5210  177.2250  143.4680 C   0  0  0  0  0  0  0  0  0  0  0  0
  190.8510  177.3320  142.8130 C   0  0  0  0  0  3  0  0  0  0  0  0
  183.0730  177.6670  139.8550 C   0  0  0  0  0  2  0  0  0  0  0  0
  181.9180  178.6050  139.4880 C   0  0  1  0  0  3  0  0  0  0  0  0
  181.2110  178.7090  141.9260 C   0  0  0  0  0  1  0  0  0  0  0  0
  180.7500  178.6190  140.4800 C   0  0  0  0  0  2  0  0  0  0  0  0
  182.3070  179.8870  139.0310 O   0  0  0  0  0  0  0  0  0  0  0  0
  180.9510  180.9530  137.3880 C   0  0  0  0  0  2  0  0  0  0  0  0
  181.1680  180.6900  138.8630 C   0  0  0  0  0  3  0  0  0  0  0  0
  181.5840  182.0160  138.2580 C   0  0  0  0  0  2  0  0  0  0  0  0
  184.3220  177.4570  137.2050 O   0  0  0  0  0  0  0  0  0  0  0  0
  183.5490  176.2920  137.2380 C   0  0  0  0  0  2  0  0  0  0  0  0
  182.3360  176.4550  136.3480 C   0  0  0  0  0  2  0  0  0  0  0  0
  182.2350  177.8940  135.8960 C   0  0  0  0  0  1  0  0  0  0  0  0
  2  5  1  0  0  0  0
  3 11  1  0  0  0  0
  4 14  1  0  0  0  0
  4  6  1  0  0  0  0
  5 13  1  0  0  0  0
  5  7  1  0  0  0  0
  6  2  1  0  0  0  0
  7 15  1  0  0  0  0
  7  3  1  0  0  0  0
  8 10  1  0  0  0  0
  9 18  1  0  0  0  0
 10  6  1  0  0  0  0
 10 12  1  0  0  0  0
 11 16  1  0  0  0  0
 12  2  1  0  0  0  0
 12  9  1  0  0  0  0
 13 17  1  0  0  0  0
 14  6  1  0  0  0  0
 14  1  1  0  0  0  0
 15 20  1  0  0  0  0
 17 26  1  0  0  0  0
 17 11  1  0  0  0  0
 18 15  1  0  0  0  0
 19 25  1  0  0  0  0
 20 19  2  0  0  0  0
 20 21  1  0  0  0  0
 21 24  2  0  0  0  0
 24 23  1  0  0  0  0
 24 22  1  0  0  0  0
 25 23  2  0  0  0  0
 27 26  1  0  0  0  0
 27 29  1  0  0  0  0
 29 28  1  0  0  0  0
 30 27  1  0  0  0  0
 31 33  1  0  0  0  0
 31 32  1  0  0  0  0
 32 30  1  0  0  0  0
 33 32  1  0  0  0  0
 34 35  1  0  0  0  0
 34 13  1  0  0  0  0
 36 35  1  0  0  0  0
 37 36  1  0  0  0  0
M  END
>  <MODEL>
4

>  <REMARK>
 VINA RESULT:      -5.8      2.860      6.981
  Name = 
  9 active torsions:
  status: ('A' for Active; 'I' for Inactive)
    1  A    between atoms: C_1  and  C_5
    2  A    between atoms: C_1  and  C_36
    3  A    between atoms: C_5  and  O_17
    4  A    between atoms: C_5  and  C_23
    5  A    between atoms: C_6  and  C_31
    6  A    between atoms: O_17  and  C_26
    7  A    between atoms: O_20  and  C_25
    8  A    between atoms: O_20  and  C_29
    9  A    between atoms: C_21  and  C_25
                            x       y       z     vdW  Elec       q    Type
                         _______ _______ _______ _____ _____    ______ ____

>  <TORSDO>
F 9

$$$$
=
 OpenBabel11052415163D

 37 42  0  0  1  0  0  0  0  0999 V2000
  185.8160  175.1330  136.1490 O   0  0  0  0  0  1  0  0  0  0  0  0
  187.2190  177.0470  137.3740 N   0  0  1  0  0  0  0  0  0  0  0  0
  186.8720  178.9120  140.5430 O   0  0  0  0  0  0  0  0  0  0  0  0
  185.5130  177.3310  135.2930 C   0  0  0  0  0  2  0  0  0  0  0  0
  186.5660  177.9420  138.3710 C   0  0  2  0  0  3  0  0  0  0  0  0
  186.8610  177.3140  135.9800 C   0  0  1  0  0  0  0  0  0  0  0  0
  187.2680  177.8330  139.7480 C   0  0  1  0  0  3  0  0  0  0  0  0
  188.9700  176.9020  134.5940 C   0  0  0  0  0  1  0  0  0  0  0  0
  189.0290  178.8880  137.5900 C   0  0  0  0  0  2  0  0  0  0  0  0
  188.1860  177.8400  135.5040 C   0  0  2  0  0  3  0  0  0  0  0  0
  185.5910  178.5830  141.0140 C   0  0  1  0  0  3  0  0  0  0  0  0
  188.5750  177.5590  136.9550 C   0  0  2  0  0  3  0  0  0  0  0  0
  185.0950  177.5870  138.7190 C   0  0  1  0  0  3  0  0  0  0  0  0
  186.3460  176.0640  135.2510 C   0  0  1  0  0  3  0  0  0  0  0  0
  188.7870  177.6300  139.7600 C   0  0  1  0  0  3  0  0  0  0  0  0
  185.1700  179.6220  142.0370 C   0  0  0  0  0  1  0  0  0  0  0  0
  184.5740  178.5050  139.8540 C   0  0  1  0  0  3  0  0  0  0  0  0
  189.5680  178.6960  139.0020 C   0  0  0  0  0  2  0  0  0  0  0  0
  190.7080  177.2090  141.3530 C   0  0  0  0  0  3  0  0  0  0  0  0
  189.3320  177.3820  141.1320 C   0  0  0  0  0  0  0  0  0  0  0  0
  188.4470  177.3500  142.2160 C   0  0  0  0  0  3  0  0  0  0  0  0
  187.8150  177.1010  144.8610 Cl  0  0  0  0  0  0  0  0  0  0  0  0
  190.3000  176.9630  143.7280 C   0  0  0  0  0  3  0  0  0  0  0  0
  188.9290  177.1380  143.5100 C   0  0  0  0  0  0  0  0  0  0  0  0
  191.1890  176.9980  142.6480 C   0  0  0  0  0  3  0  0  0  0  0  0
  183.2380  177.9860  140.3720 C   0  0  0  0  0  2  0  0  0  0  0  0
  182.1840  179.0970  140.3260 C   0  0  1  0  0  3  0  0  0  0  0  0
  180.1780  177.7790  139.4910 C   0  0  0  0  0  1  0  0  0  0  0  0
  181.1230  178.9410  139.2310 C   0  0  0  0  0  2  0  0  0  0  0  0
  181.6660  179.4890  141.5840 O   0  0  0  0  0  0  0  0  0  0  0  0
  180.7540  178.5280  143.5630 C   0  0  0  0  0  2  0  0  0  0  0  0
  181.8350  178.4440  142.5060 C   0  0  0  0  0  3  0  0  0  0  0  0
  182.1470  179.0330  143.8670 C   0  0  0  0  0  2  0  0  0  0  0  0
  184.2380  177.7060  137.6240 O   0  0  0  0  0  0  0  0  0  0  0  0
  183.4450  176.5550  137.6670 C   0  0  0  0  0  2  0  0  0  0  0  0
  182.3730  176.6300  136.6020 C   0  0  0  0  0  2  0  0  0  0  0  0
  182.2170  178.0630  136.1470 C   0  0  0  0  0  1  0  0  0  0  0  0
  2  5  1  0  0  0  0
  3 11  1  0  0  0  0
  4  6  1  0  0  0  0
  5 13  1  0  0  0  0
  5  7  1  0  0  0  0
  6  2  1  0  0  0  0
  7 15  1  0  0  0  0
  7  3  1  0  0  0  0
  8 10  1  0  0  0  0
  9 18  1  0  0  0  0
 10  6  1  0  0  0  0
 10 12  1  0  0  0  0
 11 16  1  0  0  0  0
 12  2  1  0  0  0  0
 12  9  1  0  0  0  0
 13 17  1  0  0  0  0
 14  4  1  0  0  0  0
 14  6  1  0  0  0  0
 14  1  1  0  0  0  0
 15 20  1  0  0  0  0
 17 26  1  0  0  0  0
 17 11  1  0  0  0  0
 18 15  1  0  0  0  0
 19 25  1  0  0  0  0
 20 19  2  0  0  0  0
 20 21  1  0  0  0  0
 21 24  2  0  0  0  0
 24 23  1  0  0  0  0
 24 22  1  0  0  0  0
 25 23  2  0  0  0  0
 27 26  1  0  0  0  0
 27 30  1  0  0  0  0
 29 28  1  0  0  0  0
 29 27  1  0  0  0  0
 30 32  1  0  0  0  0
 31 33  1  0  0  0  0
 32 31  1  0  0  0  0
 32 33  1  0  0  0  0
 34 35  1  0  0  0  0
 34 13  1  0  0  0  0
 36 35  1  0  0  0  0
 37 36  1  0  0  0  0
M  END
>  <MODEL>
5

>  <REMARK>
 VINA RESULT:      -5.6      2.934      6.632
  Name = 
  9 active torsions:
  status: ('A' for Active; 'I' for Inactive)
    1  A    between atoms: C_1  and  C_5
    2  A    between atoms: C_1  and  C_36
    3  A    between atoms: C_5  and  O_17
    4  A    between atoms: C_5  and  C_23
    5  A    between atoms: C_6  and  C_31
    6  A    between atoms: O_17  and  C_26
    7  A    between atoms: O_20  and  C_25
    8  A    between atoms: O_20  and  C_29
    9  A    between atoms: C_21  and  C_25
                            x       y       z     vdW  Elec       q    Type
                         _______ _______ _______ _____ _____    ______ ____

>  <TORSDO>
F 9

$$$$
=
 OpenBabel11052415163D

 37 42  0  0  1  0  0  0  0  0999 V2000
  187.6460  175.9410  143.5140 O   0  0  0  0  0  1  0  0  0  0  0  0
  186.5220  177.6570  141.8040 N   0  0  1  0  0  0  0  0  0  0  0  0
  187.2190  178.7160  138.3350 O   0  0  0  0  0  0  0  0  0  0  0  0
  188.1510  178.2350  143.8860 C   0  0  0  0  0  2  0  0  0  0  0  0
  187.3150  178.2360  140.6820 C   0  0  2  0  0  3  0  0  0  0  0  0
  186.8420  178.1950  143.1270 C   0  0  1  0  0  0  0  0  0  0  0  0
  186.6700  177.8880  139.3180 C   0  0  1  0  0  3  0  0  0  0  0  0
  184.6400  178.3140  144.4200 C   0  0  0  0  0  1  0  0  0  0  0  0
  184.9380  179.5700  141.0640 C   0  0  0  0  0  2  0  0  0  0  0  0
  185.5630  178.9410  143.3820 C   0  0  2  0  0  3  0  0  0  0  0  0
  188.4760  178.1660  138.0380 C   0  0  1  0  0  3  0  0  0  0  0  0
  185.2120  178.3800  142.0050 C   0  0  2  0  0  3  0  0  0  0  0  0
  188.7520  177.6700  140.5250 C   0  0  1  0  0  3  0  0  0  0  0  0
  187.1820  177.0970  144.1460 C   0  0  1  0  0  3  0  0  0  0  0  0
  185.1390  177.8370  139.2450 C   0  0  1  0  0  3  0  0  0  0  0  0
  189.0550  178.9000  136.8440 C   0  0  0  0  0  1  0  0  0  0  0  0
  189.4230  178.2530  139.2550 C   0  0  1  0  0  3  0  0  0  0  0  0
  184.4470  179.1180  139.6940 C   0  0  0  0  0  2  0  0  0  0  0  0
  185.3040  176.3300  137.2190 C   0  0  0  0  0  3  0  0  0  0  0  0
  184.6330  177.3400  137.9270 C   0  0  0  0  0  0  0  0  0  0  0  0
  183.4500  177.8790  137.4090 C   0  0  0  0  0  3  0  0  0  0  0  0
  181.4620  178.1010  135.5490 Cl  0  0  0  0  0  0  0  0  0  0  0  0
  183.6160  176.4180  135.4840 C   0  0  0  0  0  3  0  0  0  0  0  0
  182.9440  177.4210  136.1900 C   0  0  0  0  0  0  0  0  0  0  0  0
  184.7970  175.8720  136.0000 C   0  0  0  0  0  3  0  0  0  0  0  0
  190.7150  177.5020  138.9570 C   0  0  0  0  0  2  0  0  0  0  0  0
  190.5030  176.5170  137.8030 C   0  0  1  0  0  3  0  0  0  0  0  0
  193.0290  176.3780  137.5690 C   0  0  0  0  0  1  0  0  0  0  0  0
  191.6910  176.3680  136.8470 C   0  0  0  0  0  2  0  0  0  0  0  0
  189.8890  175.2930  138.1620 O   0  0  0  0  0  0  0  0  0  0  0  0
  188.4870  174.7280  136.3210 C   0  0  0  0  0  2  0  0  0  0  0  0
  189.7980  174.4650  137.0320 C   0  0  0  0  0  3  0  0  0  0  0  0
  188.6310  173.5140  137.2100 C   0  0  0  0  0  2  0  0  0  0  0  0
  189.5650  177.9480  141.6230 O   0  0  0  0  0  0  0  0  0  0  0  0
  190.3740  176.8160  141.7630 C   0  0  0  0  0  2  0  0  0  0  0  0
  191.5260  177.1190  142.6970 C   0  0  0  0  0  2  0  0  0  0  0  0
  191.3440  176.3450  143.9830 C   0  0  0  0  0  1  0  0  0  0  0  0
  1 14  1  0  0  0  0
  2 12  1  0  0  0  0
  2  6  1  0  0  0  0
  3  7  1  0  0  0  0
  4 14  1  0  0  0  0
  5  2  1  0  0  0  0
  6 10  1  0  0  0  0
  6  4  1  0  0  0  0
  6 14  1  0  0  0  0
  7  5  1  0  0  0  0
  9 12  1  0  0  0  0
 10  8  1  0  0  0  0
 11  3  1  0  0  0  0
 11 17  1  0  0  0  0
 12 10  1  0  0  0  0
 13  5  1  0  0  0  0
 13 34  1  0  0  0  0
 15  7  1  0  0  0  0
 15 18  1  0  0  0  0
 16 11  1  0  0  0  0
 17 13  1  0  0  0  0
 18  9  1  0  0  0  0
 19 20  1  0  0  0  0
 20 15  1  0  0  0  0
 21 20  2  0  0  0  0
 22 24  1  0  0  0  0
 23 25  1  0  0  0  0
 23 24  2  0  0  0  0
 24 21  1  0  0  0  0
 25 19  2  0  0  0  0
 26 17  1  0  0  0  0
 27 30  1  0  0  0  0
 27 26  1  0  0  0  0
 29 28  1  0  0  0  0
 29 27  1  0  0  0  0
 31 32  1  0  0  0  0
 31 33  1  0  0  0  0
 32 33  1  0  0  0  0
 32 30  1  0  0  0  0
 34 35  1  0  0  0  0
 35 36  1  0  0  0  0
 36 37  1  0  0  0  0
M  END
>  <MODEL>
6

>  <REMARK>
 VINA RESULT:      -5.6      2.494      6.362
  Name = 
  9 active torsions:
  status: ('A' for Active; 'I' for Inactive)
    1  A    between atoms: C_1  and  C_5
    2  A    between atoms: C_1  and  C_36
    3  A    between atoms: C_5  and  O_17
    4  A    between atoms: C_5  and  C_23
    5  A    between atoms: C_6  and  C_31
    6  A    between atoms: O_17  and  C_26
    7  A    between atoms: O_20  and  C_25
    8  A    between atoms: O_20  and  C_29
    9  A    between atoms: C_21  and  C_25
                            x       y       z     vdW  Elec       q    Type
                         _______ _______ _______ _____ _____    ______ ____

>  <TORSDO>
F 9

$$$$
=
 OpenBabel11052415163D

 37 42  0  0  1  0  0  0  0  0999 V2000
  183.0970  177.2140  140.6710 O   0  0  0  0  0  1  0  0  0  0  0  0
  184.5670  177.3190  138.4430 N   0  0  1  0  0  0  0  0  0  0  0  0
  188.1850  177.2790  137.7010 O   0  0  0  0  0  0  0  0  0  0  0  0
  183.3350  179.3730  139.7020 C   0  0  0  0  0  2  0  0  0  0  0  0
  185.9790  177.7920  138.4910 C   0  0  2  0  0  3  0  0  0  0  0  0
  183.5590  178.3700  138.5910 C   0  0  1  0  0  0  0  0  0  0  0  0
  186.9430  176.6970  137.9700 C   0  0  1  0  0  3  0  0  0  0  0  0
  181.6100  177.7330  137.0640 C   0  0  0  0  0  1  0  0  0  0  0  0
  185.0170  177.6690  135.9160 C   0  0  0  0  0  2  0  0  0  0  0  0
  183.0000  178.3430  137.1960 C   0  0  2  0  0  3  0  0  0  0  0  0
  188.8090  177.4290  138.9500 C   0  0  1  0  0  3  0  0  0  0  0  0
  184.0420  177.2390  137.0300 C   0  0  2  0  0  3  0  0  0  0  0  0
  186.5370  178.0770  139.9120 C   0  0  1  0  0  3  0  0  0  0  0  0
  182.5530  178.0730  139.7120 C   0  0  1  0  0  3  0  0  0  0  0  0
  186.4570  175.8090  136.8180 C   0  0  1  0  0  3  0  0  0  0  0  0
  190.2390  177.8820  138.7250 C   0  0  0  0  0  1  0  0  0  0  0  0
  188.0430  178.4350  139.8370 C   0  0  1  0  0  3  0  0  0  0  0  0
  186.0210  176.5750  135.5760 C   0  0  0  0  0  2  0  0  0  0  0  0
  187.1190  173.3670  136.8770 C   0  0  0  0  0  3  0  0  0  0  0  0
  187.4010  174.6910  136.5050 C   0  0  0  0  0  0  0  0  0  0  0  0
  188.5770  174.9750  135.8000 C   0  0  0  0  0  3  0  0  0  0  0  0
  190.9370  174.3140  134.5950 Cl  0  0  0  0  0  0  0  0  0  0  0  0
  189.1870  172.6320  135.8530 C   0  0  0  0  0  3  0  0  0  0  0  0
  189.4680  173.9490  135.4780 C   0  0  0  0  0  0  0  0  0  0  0  0
  188.0100  172.3410  136.5540 C   0  0  0  0  0  3  0  0  0  0  0  0
  188.6450  178.4510  141.2370 C   0  0  0  0  0  2  0  0  0  0  0  0
  188.8100  177.0200  141.7590 C   0  0  1  0  0  3  0  0  0  0  0  0
  191.2150  177.5090  142.4200 C   0  0  0  0  0  1  0  0  0  0  0  0
  190.2530  176.5070  141.8030 C   0  0  0  0  0  2  0  0  0  0  0  0
  188.0480  176.7090  142.9100 O   0  0  0  0  0  0  0  0  0  0  0  0
  188.6300  177.1270  145.1820 C   0  0  0  0  0  2  0  0  0  0  0  0
  188.1970  177.7300  143.8620 C   0  0  0  0  0  3  0  0  0  0  0  0
  187.1860  177.5210  144.9720 C   0  0  0  0  0  2  0  0  0  0  0  0
  185.8650  179.1160  140.5570 O   0  0  0  0  0  0  0  0  0  0  0  0
  185.5530  178.6060  141.8210 C   0  0  0  0  0  2  0  0  0  0  0  0
  185.2430  179.7420  142.7720 C   0  0  0  0  0  2  0  0  0  0  0  0
  184.0780  179.3550  143.6540 C   0  0  0  0  0  1  0  0  0  0  0  0
  2  5  1  0  0  0  0
  2  6  1  0  0  0  0
  3  7  1  0  0  0  0
  3 11  1  0  0  0  0
  4 14  1  0  0  0  0
  5 13  1  0  0  0  0
  6  4  1  0  0  0  0
  6 14  1  0  0  0  0
  7  5  1  0  0  0  0
  8 10  1  0  0  0  0
  9 12  1  0  0  0  0
 10  6  1  0  0  0  0
 11 17  1  0  0  0  0
 12 10  1  0  0  0  0
 12  2  1  0  0  0  0
 13 34  1  0  0  0  0
 14  1  1  0  0  0  0
 15  7  1  0  0  0  0
 16 11  1  0  0  0  0
 17 13  1  0  0  0  0
 17 26  1  0  0  0  0
 18  9  1  0  0  0  0
 18 15  1  0  0  0  0
 20 15  1  0  0  0  0
 20 19  2  0  0  0  0
 21 20  1  0  0  0  0
 22 24  1  0  0  0  0
 23 25  2  0  0  0  0
 24 21  2  0  0  0  0
 24 23  1  0  0  0  0
 25 19  1  0  0  0  0
 26 27  1  0  0  0  0
 27 29  1  0  0  0  0
 27 30  1  0  0  0  0
 29 28  1  0  0  0  0
 30 32  1  0  0  0  0
 32 33  1  0  0  0  0
 32 31  1  0  0  0  0
 33 31  1  0  0  0  0
 34 35  1  0  0  0  0
 35 36  1  0  0  0  0
 36 37  1  0  0  0  0
M  END
>  <MODEL>
7

>  <REMARK>
 VINA RESULT:      -5.4      3.017      6.243
  Name = 
  9 active torsions:
  status: ('A' for Active; 'I' for Inactive)
    1  A    between atoms: C_1  and  C_5
    2  A    between atoms: C_1  and  C_36
    3  A    between atoms: C_5  and  O_17
    4  A    between atoms: C_5  and  C_23
    5  A    between atoms: C_6  and  C_31
    6  A    between atoms: O_17  and  C_26
    7  A    between atoms: O_20  and  C_25
    8  A    between atoms: O_20  and  C_29
    9  A    between atoms: C_21  and  C_25
                            x       y       z     vdW  Elec       q    Type
                         _______ _______ _______ _____ _____    ______ ____

>  <TORSDO>
F 9

$$$$
=
 OpenBabel11052415163D

 37 42  0  0  1  0  0  0  0  0999 V2000
  188.3560  175.7050  143.2570 O   0  0  0  0  0  1  0  0  0  0  0  0
  186.7140  177.5310  142.2070 N   0  0  1  0  0  0  0  0  0  0  0  0
  186.1490  178.8900  138.8190 O   0  0  0  0  0  0  0  0  0  0  0  0
  188.9780  177.9720  143.6220 C   0  0  0  0  0  2  0  0  0  0  0  0
  187.0640  178.2190  140.9310 C   0  0  2  0  0  3  0  0  0  0  0  0
  187.4850  177.9650  143.3730 C   0  0  1  0  0  0  0  0  0  0  0  0
  185.9760  177.9710  139.8580 C   0  0  1  0  0  3  0  0  0  0  0  0
  185.8820  177.9250  145.3640 C   0  0  0  0  0  1  0  0  0  0  0  0
  184.9860  179.4610  142.2380 C   0  0  0  0  0  2  0  0  0  0  0  0
  186.3840  178.6580  144.1250 C   0  0  2  0  0  3  0  0  0  0  0  0
  187.2160  178.3950  138.0520 C   0  0  1  0  0  3  0  0  0  0  0  0
  185.5650  178.2050  142.9180 C   0  0  2  0  0  3  0  0  0  0  0  0
  188.3490  177.7010  140.2290 C   0  0  1  0  0  3  0  0  0  0  0  0
  188.1540  176.7940  144.1090 C   0  0  1  0  0  3  0  0  0  0  0  0
  184.5180  177.8910  140.3250 C   0  0  1  0  0  3  0  0  0  0  0  0
  187.3420  179.2390  136.7970 C   0  0  0  0  0  1  0  0  0  0  0  0
  188.5320  178.4030  138.8600 C   0  0  1  0  0  3  0  0  0  0  0  0
  184.0390  179.1130  141.0970 C   0  0  0  0  0  2  0  0  0  0  0  0
  183.3220  176.1440  138.9380 C   0  0  0  0  0  3  0  0  0  0  0  0
  183.5760  177.4930  139.2320 C   0  0  0  0  0  0  0  0  0  0  0  0
  182.9150  178.4940  138.5100 C   0  0  0  0  0  3  0  0  0  0  0  0
  181.1930  179.4120  136.5980 Cl  0  0  0  0  0  0  0  0  0  0  0  0
  181.7680  176.8080  137.2030 C   0  0  0  0  0  3  0  0  0  0  0  0
  182.0160  178.1520  137.4970 C   0  0  0  0  0  0  0  0  0  0  0  0
  182.4220  175.8030  137.9250 C   0  0  0  0  0  3  0  0  0  0  0  0
  189.6300  177.7090  138.0620 C   0  0  0  0  0  2  0  0  0  0  0  0
  189.2560  176.2460  137.8050 C   0  0  1  0  0  3  0  0  0  0  0  0
  187.6260  174.7830  136.5160 C   0  0  0  0  0  1  0  0  0  0  0  0
  188.5650  175.9780  136.4630 C   0  0  0  0  0  2  0  0  0  0  0  0
  190.2540  175.3010  138.1420 O   0  0  0  0  0  0  0  0  0  0  0  0
  191.6040  173.9060  136.7610 C   0  0  0  0  0  2  0  0  0  0  0  0
  191.2690  175.3250  137.1730 C   0  0  0  0  0  3  0  0  0  0  0  0
  192.5010  174.6410  137.7320 C   0  0  0  0  0  2  0  0  0  0  0  0
  189.4990  177.9060  140.9900 O   0  0  0  0  0  0  0  0  0  0  0  0
  190.1910  176.6930  140.9220 C   0  0  0  0  0  2  0  0  0  0  0  0
  191.6080  176.8800  141.4210 C   0  0  0  0  0  2  0  0  0  0  0  0
  192.4530  177.4770  140.3180 C   0  0  0  0  0  1  0  0  0  0  0  0
  1 14  1  0  0  0  0
  2 12  1  0  0  0  0
  2  6  1  0  0  0  0
  3  7  1  0  0  0  0
  4 14  1  0  0  0  0
  5  2  1  0  0  0  0
  6  4  1  0  0  0  0
  6 14  1  0  0  0  0
  6 10  1  0  0  0  0
  7 15  1  0  0  0  0
  7  5  1  0  0  0  0
  9 12  1  0  0  0  0
 10  8  1  0  0  0  0
 11  3  1  0  0  0  0
 11 17  1  0  0  0  0
 12 10  1  0  0  0  0
 13  5  1  0  0  0  0
 13 34  1  0  0  0  0
 15 18  1  0  0  0  0
 16 11  1  0  0  0  0
 17 13  1  0  0  0  0
 18  9  1  0  0  0  0
 19 20  1  0  0  0  0
 20 15  1  0  0  0  0
 21 20  2  0  0  0  0
 22 24  1  0  0  0  0
 23 24  2  0  0  0  0
 23 25  1  0  0  0  0
 24 21  1  0  0  0  0
 25 19  2  0  0  0  0
 26 17  1  0  0  0  0
 27 26  1  0  0  0  0
 27 30  1  0  0  0  0
 29 28  1  0  0  0  0
 29 27  1  0  0  0  0
 31 32  1  0  0  0  0
 31 33  1  0  0  0  0
 32 33  1  0  0  0  0
 32 30  1  0  0  0  0
 35 34  1  0  0  0  0
 35 36  1  0  0  0  0
 37 36  1  0  0  0  0
M  END
>  <MODEL>
8

>  <REMARK>
 VINA RESULT:      -5.3      2.258      6.258
  Name = 
  9 active torsions:
  status: ('A' for Active; 'I' for Inactive)
    1  A    between atoms: C_1  and  C_5
    2  A    between atoms: C_1  and  C_36
    3  A    between atoms: C_5  and  O_17
    4  A    between atoms: C_5  and  C_23
    5  A    between atoms: C_6  and  C_31
    6  A    between atoms: O_17  and  C_26
    7  A    between atoms: O_20  and  C_25
    8  A    between atoms: O_20  and  C_29
    9  A    between atoms: C_21  and  C_25
                            x       y       z     vdW  Elec       q    Type
                         _______ _______ _______ _____ _____    ______ ____

>  <TORSDO>
F 9

$$$$
=
 OpenBabel11052415163D

 37 42  0  0  1  0  0  0  0  0999 V2000
  188.2870  175.6430  143.2100 O   0  0  0  0  0  1  0  0  0  0  0  0
  186.6510  177.5070  142.2180 N   0  0  1  0  0  0  0  0  0  0  0  0
  186.0660  178.9490  138.8680 O   0  0  0  0  0  0  0  0  0  0  0  0
  188.9320  177.8950  143.6210 C   0  0  0  0  0  2  0  0  0  0  0  0
  186.9950  178.2210  140.9560 C   0  0  2  0  0  3  0  0  0  0  0  0
  187.4370  177.9070  143.3870 C   0  0  1  0  0  0  0  0  0  0  0  0
  185.8950  178.0080  139.8870 C   0  0  1  0  0  3  0  0  0  0  0  0
  185.8530  177.8350  145.3920 C   0  0  0  0  0  1  0  0  0  0  0  0
  184.9410  179.4510  142.3120 C   0  0  0  0  0  2  0  0  0  0  0  0
  186.3500  178.5910  144.1650 C   0  0  2  0  0  3  0  0  0  0  0  0
  187.1210  178.4630  138.0800 C   0  0  1  0  0  3  0  0  0  0  0  0
  185.5160  178.1740  142.9560 C   0  0  2  0  0  3  0  0  0  0  0  0
  188.2690  177.7090  140.2300 C   0  0  1  0  0  3  0  0  0  0  0  0
  188.1030  176.7140  144.0890 C   0  0  1  0  0  3  0  0  0  0  0  0
  184.4410  177.9290  140.3670 C   0  0  1  0  0  3  0  0  0  0  0  0
  187.2430  179.3350  136.8440 C   0  0  0  0  0  1  0  0  0  0  0  0
  188.4450  178.4410  138.8750 C   0  0  1  0  0  3  0  0  0  0  0  0
  183.9800  179.1380  141.1720 C   0  0  0  0  0  2  0  0  0  0  0  0
  182.6680  178.5300  138.6640 C   0  0  0  0  0  3  0  0  0  0  0  0
  183.4850  177.5650  139.2740 C   0  0  0  0  0  0  0  0  0  0  0  0
  183.4300  176.2360  138.8380 C   0  0  0  0  0  3  0  0  0  0  0  0
  182.4990  174.2050  137.2660 Cl  0  0  0  0  0  0  0  0  0  0  0  0
  181.7450  176.8330  137.2020 C   0  0  0  0  0  3  0  0  0  0  0  0
  182.5610  175.8710  137.8070 C   0  0  0  0  0  0  0  0  0  0  0  0
  181.7990  178.1640  137.6320 C   0  0  0  0  0  3  0  0  0  0  0  0
  189.5300  177.7570  138.0510 C   0  0  0  0  0  2  0  0  0  0  0  0
  188.8990  176.7980  137.0360 C   0  0  1  0  0  3  0  0  0  0  0  0
  189.4110  177.4680  134.6390 C   0  0  0  0  0  1  0  0  0  0  0  0
  189.7430  176.5270  135.7860 C   0  0  0  0  0  2  0  0  0  0  0  0
  188.2980  175.6430  137.5920 O   0  0  0  0  0  0  0  0  0  0  0  0
  186.1980  175.4970  136.4780 C   0  0  0  0  0  2  0  0  0  0  0  0
  187.6040  174.9460  136.5900 C   0  0  0  0  0  3  0  0  0  0  0  0
  186.4440  174.2020  137.2200 C   0  0  0  0  0  2  0  0  0  0  0  0
  189.4280  177.8870  140.9840 O   0  0  0  0  0  0  0  0  0  0  0  0
  190.2180  176.7700  140.6890 C   0  0  0  0  0  2  0  0  0  0  0  0
  191.6830  177.1460  140.7540 C   0  0  0  0  0  2  0  0  0  0  0  0
  192.0460  177.5030  142.1780 C   0  0  0  0  0  1  0  0  0  0  0  0
  1 14  1  0  0  0  0
  2 12  1  0  0  0  0
  2  6  1  0  0  0  0
  3  7  1  0  0  0  0
  4 14  1  0  0  0  0
  5  2  1  0  0  0  0
  6  4  1  0  0  0  0
  6 14  1  0  0  0  0
  6 10  1  0  0  0  0
  7 15  1  0  0  0  0
  7  5  1  0  0  0  0
  9 12  1  0  0  0  0
 10  8  1  0  0  0  0
 11  3  1  0  0  0  0
 11 17  1  0  0  0  0
 12 10  1  0  0  0  0
 13  5  1  0  0  0  0
 13 34  1  0  0  0  0
 15 18  1  0  0  0  0
 16 11  1  0  0  0  0
 17 13  1  0  0  0  0
 18  9  1  0  0  0  0
 19 20  1  0  0  0  0
 20 15  1  0  0  0  0
 21 20  2  0  0  0  0
 22 24  1  0  0  0  0
 23 25  1  0  0  0  0
 23 24  2  0  0  0  0
 24 21  1  0  0  0  0
 25 19  2  0  0  0  0
 26 17  1  0  0  0  0
 27 30  1  0  0  0  0
 27 26  1  0  0  0  0
 28 29  1  0  0  0  0
 29 27  1  0  0  0  0
 31 32  1  0  0  0  0
 31 33  1  0  0  0  0
 32 33  1  0  0  0  0
 32 30  1  0  0  0  0
 35 36  1  0  0  0  0
 35 34  1  0  0  0  0
 36 37  1  0  0  0  0
M  END
>  <MODEL>
9

>  <REMARK>
 VINA RESULT:      -5.3      2.579      6.320
  Name = 
  9 active torsions:
  status: ('A' for Active; 'I' for Inactive)
    1  A    between atoms: C_1  and  C_5
    2  A    between atoms: C_1  and  C_36
    3  A    between atoms: C_5  and  O_17
    4  A    between atoms: C_5  and  C_23
    5  A    between atoms: C_6  and  C_31
    6  A    between atoms: O_17  and  C_26
    7  A    between atoms: O_20  and  C_25
    8  A    between atoms: O_20  and  C_29
    9  A    between atoms: C_21  and  C_25
                            x       y       z     vdW  Elec       q    Type
                         _______ _______ _______ _____ _____    ______ ____

>  <TORSDO>
F 9

$$$$
