=
 OpenBabel11052412413D

 25 28  0  0  1  0  0  0  0  0999 V2000
  187.0230  178.1230  142.9710 N   0  0  0  0  0  0  0  0  0  0  0  0
  188.1930  177.5170  143.3120 C   0  0  0  0  0  0  0  0  0  0  0  0
  187.7730  178.5420  140.7560 C   0  0  0  0  0  3  0  0  0  0  0  0
  185.8940  178.3640  143.6590 C   0  0  0  0  0  0  0  0  0  0  0  0
  190.2540  176.8900  146.3860 N   0  0  0  0  0  2  0  0  0  0  0  0
  183.2110  178.7380  144.5080 C   0  0  0  0  0  2  0  0  0  0  0  0
  188.9530  177.9360  141.0730 N   0  0  0  0  0  0  0  0  0  0  0  0
  185.0090  178.9860  142.8080 C   0  0  0  0  0  0  0  0  0  0  0  0
  183.6560  179.4650  143.2300 C   0  0  0  0  0  2  0  0  0  0  0  0
  190.4770  176.7120  142.6450 C   0  0  1  0  0  3  0  0  0  0  0  0
  191.6490  177.2670  141.8530 C   0  0  0  0  0  1  0  0  0  0  0  0
  188.4140  176.8920  144.6600 C   0  0  0  0  0  2  0  0  0  0  0  0
  184.3310  178.7190  145.5590 C   0  0  0  0  0  2  0  0  0  0  0  0
  186.7960  178.6310  141.7430 C   0  0  0  0  0  0  0  0  0  0  0  0
  185.5710  179.1820  141.5930 N   0  0  0  0  0  0  0  0  0  0  0  0
  190.7850  176.7900  144.0760 N   0  0  0  0  0  0  0  0  0  0  0  0
  185.5540  177.9380  145.0550 C   0  0  0  0  0  2  0  0  0  0  0  0
  189.8750  176.8580  145.0080 C   0  0  0  0  0  0  0  0  0  0  0  0
  189.1950  177.4340  142.3250 C   0  0  0  0  0  0  0  0  0  0  0  0
  191.6430  176.8860  146.8270 C   0  0  1  0  0  3  0  0  0  0  0  0
  191.7670  177.6350  147.9990 O   0  0  0  0  0  1  0  0  0  0  0  0
  193.2390  175.4690  147.8750 F   0  0  0  0  0  0  0  0  0  0  0  0
  192.1160  175.4570  147.0670 C   0  0  0  0  0  0  0  0  0  0  0  0
  192.4260  174.8470  145.8640 F   0  0  0  0  0  0  0  0  0  0  0  0
  191.1170  174.7390  147.6970 F   0  0  0  0  0  0  0  0  0  0  0  0
  1  2  1  0  0  0  0
  1  4  1  0  0  0  0
  2 12  1  0  0  0  0
  3  7  2  0  0  0  0
  3 14  1  0  0  0  0
  4 17  1  0  0  0  0
  5 20  1  0  0  0  0
  6 13  1  0  0  0  0
  7 19  1  0  0  0  0
  8  9  1  0  0  0  0
  8  4  2  0  0  0  0
  9  6  1  0  0  0  0
 10 11  1  6  0  0  0
 10 16  1  0  0  0  0
 12 18  1  0  0  0  0
 14  1  1  0  0  0  0
 15 14  2  0  0  0  0
 15  8  1  0  0  0  0
 16 18  2  0  0  0  0
 17 13  1  0  0  0  0
 18  5  1  0  0  0  0
 19 10  1  0  0  0  0
 19  2  2  0  0  0  0
 20 23  1  0  0  0  0
 20 21  1  1  0  0  0
 23 25  1  0  0  0  0
 23 22  1  0  0  0  0
 24 23  1  0  0  0  0
M  END
>  <MODEL>
1

>  <REMARK>
 VINA RESULT:      -9.5      0.000      0.000
  Name = 
  2 active torsions:
  status: ('A' for Active; 'I' for Inactive)
    1  A    between atoms: N_6  and  C_15
    2  A    between atoms: C_7  and  C_15
                            x       y       z     vdW  Elec       q    Type
                         _______ _______ _______ _____ _____    ______ ____

>  <TORSDO>
F 2

$$$$
=
 OpenBabel11052412413D

 25 28  0  0  1  0  0  0  0  0999 V2000
  189.9810  177.2800  143.3870 N   0  0  0  0  0  0  0  0  0  0  0  0
  188.8800  177.1940  144.1840 C   0  0  0  0  0  0  0  0  0  0  0  0
  191.4450  177.3750  145.2560 C   0  0  0  0  0  3  0  0  0  0  0  0
  190.1330  177.2950  142.0530 C   0  0  0  0  0  0  0  0  0  0  0  0
  185.2260  178.0420  144.0470 N   0  0  0  0  0  2  0  0  0  0  0  0
  191.0180  176.9570  139.3760 C   0  0  0  0  0  2  0  0  0  0  0  0
  190.3580  177.2870  146.0740 N   0  0  0  0  0  0  0  0  0  0  0  0
  191.4810  177.3660  141.7850 C   0  0  0  0  0  0  0  0  0  0  0  0
  192.0450  177.4600  140.4020 C   0  0  0  0  0  2  0  0  0  0  0  0
  187.8960  177.0510  146.4900 C   0  0  1  0  0  3  0  0  0  0  0  0
  188.1090  177.7520  147.8210 C   0  0  0  0  0  1  0  0  0  0  0  0
  187.4950  177.0220  143.6280 C   0  0  0  0  0  2  0  0  0  0  0  0
  189.6300  177.5630  139.6330 C   0  0  0  0  0  2  0  0  0  0  0  0
  191.2320  177.3730  143.8810 C   0  0  0  0  0  0  0  0  0  0  0  0
  192.1940  177.4360  142.9330 N   0  0  0  0  0  0  0  0  0  0  0  0
  186.6750  177.5690  145.8650 N   0  0  0  0  0  0  0  0  0  0  0  0
  189.0790  177.1310  141.0000 C   0  0  0  0  0  2  0  0  0  0  0  0
  186.4620  177.5560  144.5790 C   0  0  0  0  0  0  0  0  0  0  0  0
  189.0830  177.2110  145.5770 C   0  0  0  0  0  0  0  0  0  0  0  0
  184.1700  178.6020  144.8810 C   0  0  1  0  0  3  0  0  0  0  0  0
  184.6410  179.7420  145.5360 O   0  0  0  0  0  1  0  0  0  0  0  0
  182.7820  180.3260  144.0120 F   0  0  0  0  0  0  0  0  0  0  0  0
  182.9570  178.9540  144.0290 C   0  0  0  0  0  0  0  0  0  0  0  0
  181.8200  178.3560  144.5430 F   0  0  0  0  0  0  0  0  0  0  0  0
  183.1570  178.5120  142.7340 F   0  0  0  0  0  0  0  0  0  0  0  0
  1 14  1  0  0  0  0
  1  2  1  0  0  0  0
  2 19  2  0  0  0  0
  3  7  2  0  0  0  0
  4  1  1  0  0  0  0
  5 18  1  0  0  0  0
  5 20  1  0  0  0  0
  6 13  1  0  0  0  0
  6  9  1  0  0  0  0
  8  4  2  0  0  0  0
  8 15  1  0  0  0  0
  9  8  1  0  0  0  0
 10 11  1  1  0  0  0
 12  2  1  0  0  0  0
 12 18  1  0  0  0  0
 13 17  1  0  0  0  0
 14  3  1  0  0  0  0
 15 14  2  0  0  0  0
 16 10  1  0  0  0  0
 17  4  1  0  0  0  0
 18 16  2  0  0  0  0
 19  7  1  0  0  0  0
 19 10  1  0  0  0  0
 20 21  1  6  0  0  0
 22 23  1  0  0  0  0
 23 24  1  0  0  0  0
 23 20  1  0  0  0  0
 25 23  1  0  0  0  0
M  END
>  <MODEL>
2

>  <REMARK>
 VINA RESULT:      -8.5      4.315      7.030
  Name = 
  2 active torsions:
  status: ('A' for Active; 'I' for Inactive)
    1  A    between atoms: N_6  and  C_15
    2  A    between atoms: C_7  and  C_15
                            x       y       z     vdW  Elec       q    Type
                         _______ _______ _______ _____ _____    ______ ____

>  <TORSDO>
F 2

$$$$
=
 OpenBabel11052412413D

 25 28  0  0  1  0  0  0  0  0999 V2000
  188.0390  177.6070  145.1410 N   0  0  0  0  0  0  0  0  0  0  0  0
  187.4560  177.6240  143.9100 C   0  0  0  0  0  0  0  0  0  0  0  0
  186.0700  178.4210  146.1910 C   0  0  0  0  0  3  0  0  0  0  0  0
  189.2650  177.2480  145.5560 C   0  0  0  0  0  0  0  0  0  0  0  0
  188.4740  177.9450  140.3110 N   0  0  0  0  0  2  0  0  0  0  0  0
  191.5120  176.2530  146.9790 C   0  0  0  0  0  2  0  0  0  0  0  0
  185.4630  178.4440  144.9690 N   0  0  0  0  0  0  0  0  0  0  0  0
  189.3060  177.4010  146.9230 C   0  0  0  0  0  0  0  0  0  0  0  0
  190.5310  177.1550  147.7450 C   0  0  0  0  0  2  0  0  0  0  0  0
  185.4240  178.0430  142.4940 C   0  0  1  0  0  3  0  0  0  0  0  0
  184.3610  179.1230  142.3910 C   0  0  0  0  0  1  0  0  0  0  0  0
  188.1600  177.1300  142.6780 C   0  0  0  0  0  2  0  0  0  0  0  0
  191.6970  176.7350  145.5320 C   0  0  0  0  0  2  0  0  0  0  0  0
  187.3910  177.9900  146.2580 C   0  0  0  0  0  0  0  0  0  0  0  0
  188.1320  177.8900  147.3850 N   0  0  0  0  0  0  0  0  0  0  0  0
  186.3790  178.2030  141.3930 N   0  0  0  0  0  0  0  0  0  0  0  0
  190.3800  176.6580  144.7460 C   0  0  0  0  0  2  0  0  0  0  0  0
  187.6150  177.7890  141.4430 C   0  0  0  0  0  0  0  0  0  0  0  0
  186.1230  178.0720  143.8280 C   0  0  0  0  0  0  0  0  0  0  0  0
  188.0500  178.5920  139.0760 C   0  0  1  0  0  3  0  0  0  0  0  0
  189.1090  179.3320  138.5440 O   0  0  0  0  0  1  0  0  0  0  0  0
  186.2040  177.4520  138.1040 F   0  0  0  0  0  0  0  0  0  0  0  0
  187.5840  177.5490  138.0680 C   0  0  0  0  0  0  0  0  0  0  0  0
  188.1350  176.3150  138.3650 F   0  0  0  0  0  0  0  0  0  0  0  0
  187.9730  177.9270  136.7960 F   0  0  0  0  0  0  0  0  0  0  0  0
  1  4  1  0  0  0  0
  1 14  1  0  0  0  0
  2  1  1  0  0  0  0
  3 14  1  0  0  0  0
  4  8  2  0  0  0  0
  5 18  1  0  0  0  0
  6  9  1  0  0  0  0
  7  3  2  0  0  0  0
  8 15  1  0  0  0  0
  8  9  1  0  0  0  0
 10 11  1  1  0  0  0
 10 19  1  0  0  0  0
 12  2  1  0  0  0  0
 13  6  1  0  0  0  0
 14 15  2  0  0  0  0
 16 18  2  0  0  0  0
 16 10  1  0  0  0  0
 17 13  1  0  0  0  0
 17  4  1  0  0  0  0
 18 12  1  0  0  0  0
 19  2  2  0  0  0  0
 19  7  1  0  0  0  0
 20 21  1  6  0  0  0
 20  5  1  0  0  0  0
 23 22  1  0  0  0  0
 23 24  1  0  0  0  0
 23 20  1  0  0  0  0
 25 23  1  0  0  0  0
M  END
>  <MODEL>
3

>  <REMARK>
 VINA RESULT:      -8.4      4.238      7.088
  Name = 
  2 active torsions:
  status: ('A' for Active; 'I' for Inactive)
    1  A    between atoms: N_6  and  C_15
    2  A    between atoms: C_7  and  C_15
                            x       y       z     vdW  Elec       q    Type
                         _______ _______ _______ _____ _____    ______ ____

>  <TORSDO>
F 2

$$$$
=
 OpenBabel11052412413D

 25 28  0  0  1  0  0  0  0  0999 V2000
  187.5800  177.9370  144.1030 N   0  0  0  0  0  0  0  0  0  0  0  0
  188.3460  178.0170  142.9790 C   0  0  0  0  0  0  0  0  0  0  0  0
  189.4110  177.1800  145.4130 C   0  0  0  0  0  3  0  0  0  0  0  0
  186.2840  178.2030  144.3350 C   0  0  0  0  0  0  0  0  0  0  0  0
  187.9180  177.8320  139.2550 N   0  0  0  0  0  2  0  0  0  0  0  0
  183.7860  178.9930  145.4300 C   0  0  0  0  0  2  0  0  0  0  0  0
  190.1990  177.2560  144.3020 N   0  0  0  0  0  0  0  0  0  0  0  0
  186.0420  177.9750  145.6710 C   0  0  0  0  0  0  0  0  0  0  0  0
  184.6910  178.1080  146.3000 C   0  0  0  0  0  2  0  0  0  0  0  0
  190.5940  177.7900  141.8840 C   0  0  1  0  0  3  0  0  0  0  0  0
  191.7270  176.7780  141.9020 C   0  0  0  0  0  1  0  0  0  0  0  0
  187.8100  178.5360  141.6750 C   0  0  0  0  0  2  0  0  0  0  0  0
  183.8570  178.5800  143.9510 C   0  0  0  0  0  2  0  0  0  0  0  0
  188.0700  177.5310  145.2910 C   0  0  0  0  0  0  0  0  0  0  0  0
  187.1590  177.5300  146.2900 N   0  0  0  0  0  0  0  0  0  0  0  0
  189.8330  177.6350  140.6410 N   0  0  0  0  0  0  0  0  0  0  0  0
  185.2720  178.7720  143.3870 C   0  0  0  0  0  2  0  0  0  0  0  0
  188.5800  177.9760  140.5140 C   0  0  0  0  0  0  0  0  0  0  0  0
  189.7010  177.6510  143.0880 C   0  0  0  0  0  0  0  0  0  0  0  0
  188.5680  177.2770  138.0740 C   0  0  1  0  0  3  0  0  0  0  0  0
  187.8350  176.1860  137.6020 O   0  0  0  0  0  1  0  0  0  0  0  0
  189.3520  179.4430  137.4870 F   0  0  0  0  0  0  0  0  0  0  0  0
  188.6840  178.3390  136.9880 C   0  0  0  0  0  0  0  0  0  0  0  0
  187.4270  178.7220  136.5560 F   0  0  0  0  0  0  0  0  0  0  0  0
  189.3980  177.8300  135.9180 F   0  0  0  0  0  0  0  0  0  0  0  0
  1  4  1  0  0  0  0
  1 14  1  0  0  0  0
  2 19  2  0  0  0  0
  2  1  1  0  0  0  0
  4  8  2  0  0  0  0
  5 18  1  0  0  0  0
  6  9  1  0  0  0  0
  7  3  2  0  0  0  0
  8 15  1  0  0  0  0
  8  9  1  0  0  0  0
 10 11  1  1  0  0  0
 10 19  1  0  0  0  0
 12  2  1  0  0  0  0
 13  6  1  0  0  0  0
 14  3  1  0  0  0  0
 14 15  2  0  0  0  0
 16 10  1  0  0  0  0
 17 13  1  0  0  0  0
 17  4  1  0  0  0  0
 18 16  2  0  0  0  0
 18 12  1  0  0  0  0
 19  7  1  0  0  0  0
 20 21  1  6  0  0  0
 20  5  1  0  0  0  0
 23 22  1  0  0  0  0
 23 20  1  0  0  0  0
 24 23  1  0  0  0  0
 25 23  1  0  0  0  0
M  END
>  <MODEL>
4

>  <REMARK>
 VINA RESULT:      -8.3      4.670      6.239
  Name = 
  2 active torsions:
  status: ('A' for Active; 'I' for Inactive)
    1  A    between atoms: N_6  and  C_15
    2  A    between atoms: C_7  and  C_15
                            x       y       z     vdW  Elec       q    Type
                         _______ _______ _______ _____ _____    ______ ____

>  <TORSDO>
F 2

$$$$
=
 OpenBabel11052412413D

 25 28  0  0  1  0  0  0  0  0999 V2000
  186.0250  178.2470  144.8320 N   0  0  0  0  0  0  0  0  0  0  0  0
  185.8610  178.0970  143.4880 C   0  0  0  0  0  0  0  0  0  0  0  0
  183.7910  179.0030  145.1180 C   0  0  0  0  0  3  0  0  0  0  0  0
  187.0720  178.0300  145.6450 C   0  0  0  0  0  0  0  0  0  0  0  0
  187.9500  178.1400  140.3690 N   0  0  0  0  0  2  0  0  0  0  0  0
  188.7950  177.3610  147.8010 C   0  0  0  0  0  2  0  0  0  0  0  0
  183.6020  178.8570  143.7740 N   0  0  0  0  0  0  0  0  0  0  0  0
  186.6720  178.3200  146.9300 C   0  0  0  0  0  0  0  0  0  0  0  0
  187.5840  178.2530  148.1140 C   0  0  0  0  0  2  0  0  0  0  0  0
  184.3650  178.2120  141.4740 C   0  0  1  0  0  3  0  0  0  0  0  0
  183.3420  179.1890  140.9200 C   0  0  0  0  0  1  0  0  0  0  0  0
  186.9400  177.5410  142.6020 C   0  0  0  0  0  2  0  0  0  0  0  0
  189.4070  177.7100  146.4360 C   0  0  0  0  0  2  0  0  0  0  0  0
  185.0410  178.6870  145.6410 C   0  0  0  0  0  0  0  0  0  0  0  0
  185.3920  178.7570  146.9450 N   0  0  0  0  0  0  0  0  0  0  0  0
  185.6100  178.3380  140.7120 N   0  0  0  0  0  0  0  0  0  0  0  0
  188.4100  177.4520  145.2960 C   0  0  0  0  0  2  0  0  0  0  0  0
  186.7840  178.0290  141.1900 C   0  0  0  0  0  0  0  0  0  0  0  0
  184.6050  178.4280  142.9460 C   0  0  0  0  0  0  0  0  0  0  0  0
  187.9100  178.6260  138.9960 C   0  0  1  0  0  3  0  0  0  0  0  0
  189.0560  179.3780  138.7280 O   0  0  0  0  0  1  0  0  0  0  0  0
  186.4860  177.1300  137.8190 F   0  0  0  0  0  0  0  0  0  0  0  0
  187.8140  177.4550  138.0250 C   0  0  0  0  0  0  0  0  0  0  0  0
  188.4800  176.3550  138.5350 F   0  0  0  0  0  0  0  0  0  0  0  0
  188.3810  177.8110  136.8150 F   0  0  0  0  0  0  0  0  0  0  0  0
  1 14  1  0  0  0  0
  1  4  1  0  0  0  0
  2  1  1  0  0  0  0
  3 14  1  0  0  0  0
  4  8  2  0  0  0  0
  5 18  1  0  0  0  0
  6  9  1  0  0  0  0
  7  3  2  0  0  0  0
  8 15  1  0  0  0  0
  8  9  1  0  0  0  0
 10 11  1  6  0  0  0
 10 19  1  0  0  0  0
 12  2  1  0  0  0  0
 13  6  1  0  0  0  0
 14 15  2  0  0  0  0
 16 18  2  0  0  0  0
 16 10  1  0  0  0  0
 17  4  1  0  0  0  0
 17 13  1  0  0  0  0
 18 12  1  0  0  0  0
 19  2  2  0  0  0  0
 19  7  1  0  0  0  0
 20 21  1  6  0  0  0
 20  5  1  0  0  0  0
 22 23  1  0  0  0  0
 23 24  1  0  0  0  0
 23 20  1  0  0  0  0
 25 23  1  0  0  0  0
M  END
>  <MODEL>
5

>  <REMARK>
 VINA RESULT:      -8.3      4.454      6.823
  Name = 
  2 active torsions:
  status: ('A' for Active; 'I' for Inactive)
    1  A    between atoms: N_6  and  C_15
    2  A    between atoms: C_7  and  C_15
                            x       y       z     vdW  Elec       q    Type
                         _______ _______ _______ _____ _____    ______ ____

>  <TORSDO>
F 2

$$$$
=
 OpenBabel11052412413D

 25 28  0  0  1  0  0  0  0  0999 V2000
  187.2710  177.9670  144.0220 N   0  0  0  0  0  0  0  0  0  0  0  0
  188.2540  177.8450  143.0870 C   0  0  0  0  0  0  0  0  0  0  0  0
  188.7350  177.3320  145.7820 C   0  0  0  0  0  3  0  0  0  0  0  0
  185.9790  178.3220  143.9350 C   0  0  0  0  0  0  0  0  0  0  0  0
  188.5800  177.1270  139.4170 N   0  0  0  0  0  2  0  0  0  0  0  0
  183.3760  179.3780  144.3560 C   0  0  0  0  0  2  0  0  0  0  0  0
  189.7360  177.2070  144.8640 N   0  0  0  0  0  0  0  0  0  0  0  0
  185.4540  178.3070  145.2080 C   0  0  0  0  0  0  0  0  0  0  0  0
  184.0170  178.5930  145.5120 C   0  0  0  0  0  2  0  0  0  0  0  0
  190.6550  177.3560  142.5350 C   0  0  1  0  0  3  0  0  0  0  0  0
  191.6810  176.3090  142.9310 C   0  0  0  0  0  1  0  0  0  0  0  0
  188.0350  178.1870  141.6400 C   0  0  0  0  0  2  0  0  0  0  0  0
  183.7160  178.7460  142.9980 C   0  0  0  0  0  2  0  0  0  0  0  0
  187.4780  177.7210  145.3310 C   0  0  0  0  0  0  0  0  0  0  0  0
  186.3850  177.9090  146.1040 N   0  0  0  0  0  0  0  0  0  0  0  0
  190.1530  177.0520  141.1910 N   0  0  0  0  0  0  0  0  0  0  0  0
  185.2270  178.7890  142.7260 C   0  0  0  0  0  2  0  0  0  0  0  0
  188.9820  177.4260  140.7560 C   0  0  0  0  0  0  0  0  0  0  0  0
  189.5270  177.4380  143.5300 C   0  0  0  0  0  0  0  0  0  0  0  0
  189.4140  176.3730  138.4880 C   0  0  1  0  0  3  0  0  0  0  0  0
  188.6080  175.5780  137.6700 O   0  0  0  0  0  1  0  0  0  0  0  0
  190.1070  176.9930  136.3000 F   0  0  0  0  0  0  0  0  0  0  0  0
  190.2460  177.3240  137.6360 C   0  0  0  0  0  0  0  0  0  0  0  0
  191.5810  177.2400  137.9900 F   0  0  0  0  0  0  0  0  0  0  0  0
  189.8050  178.6200  137.8260 F   0  0  0  0  0  0  0  0  0  0  0  0
  1 14  1  0  0  0  0
  2 19  2  0  0  0  0
  2  1  1  0  0  0  0
  4  1  1  0  0  0  0
  4  8  2  0  0  0  0
  5 18  1  0  0  0  0
  6  9  1  0  0  0  0
  7  3  2  0  0  0  0
  8  9  1  0  0  0  0
  8 15  1  0  0  0  0
 10 11  1  1  0  0  0
 10 19  1  0  0  0  0
 12  2  1  0  0  0  0
 13  6  1  0  0  0  0
 14  3  1  0  0  0  0
 14 15  2  0  0  0  0
 16 10  1  0  0  0  0
 17 13  1  0  0  0  0
 17  4  1  0  0  0  0
 18 16  2  0  0  0  0
 18 12  1  0  0  0  0
 19  7  1  0  0  0  0
 20 21  1  6  0  0  0
 20  5  1  0  0  0  0
 22 23  1  0  0  0  0
 23 25  1  0  0  0  0
 23 24  1  0  0  0  0
 23 20  1  0  0  0  0
M  END
>  <MODEL>
6

>  <REMARK>
 VINA RESULT:      -8.3      4.242      5.735
  Name = 
  2 active torsions:
  status: ('A' for Active; 'I' for Inactive)
    1  A    between atoms: N_6  and  C_15
    2  A    between atoms: C_7  and  C_15
                            x       y       z     vdW  Elec       q    Type
                         _______ _______ _______ _____ _____    ______ ____

>  <TORSDO>
F 2

$$$$
=
 OpenBabel11052412413D

 25 28  0  0  1  0  0  0  0  0999 V2000
  188.2170  177.6880  143.4210 N   0  0  0  0  0  0  0  0  0  0  0  0
  187.8040  178.0770  142.1830 C   0  0  0  0  0  0  0  0  0  0  0  0
  190.2300  176.7620  142.5640 C   0  0  0  0  0  3  0  0  0  0  0  0
  187.6650  177.8110  144.6390 C   0  0  0  0  0  0  0  0  0  0  0  0
  184.5890  178.7420  140.3630 N   0  0  0  0  0  2  0  0  0  0  0  0
  187.1510  178.1660  147.4090 C   0  0  0  0  0  2  0  0  0  0  0  0
  189.8380  177.1440  141.3140 N   0  0  0  0  0  0  0  0  0  0  0  0
  188.5370  177.2630  145.5520 C   0  0  0  0  0  0  0  0  0  0  0  0
  188.2440  177.1600  147.0160 C   0  0  0  0  0  2  0  0  0  0  0  0
  188.2530  178.2530  139.7180 C   0  0  1  0  0  3  0  0  0  0  0  0
  188.7930  177.3380  138.6320 C   0  0  0  0  0  1  0  0  0  0  0  0
  186.5350  178.8520  141.9640 C   0  0  0  0  0  2  0  0  0  0  0  0
  185.9680  178.1150  146.4300 C   0  0  0  0  0  2  0  0  0  0  0  0
  189.3840  177.0470  143.6310 C   0  0  0  0  0  0  0  0  0  0  0  0
  189.6250  176.7550  144.9290 N   0  0  0  0  0  0  0  0  0  0  0  0
  186.7960  178.3460  139.5870 N   0  0  0  0  0  0  0  0  0  0  0  0
  186.3990  178.5220  145.0140 C   0  0  0  0  0  2  0  0  0  0  0  0
  185.9980  178.6280  140.5790 C   0  0  0  0  0  0  0  0  0  0  0  0
  188.6450  177.7800  141.0940 C   0  0  0  0  0  0  0  0  0  0  0  0
  183.9660  178.5200  139.0640 C   0  0  1  0  0  3  0  0  0  0  0  0
  183.4340  177.2300  139.0110 O   0  0  0  0  0  1  0  0  0  0  0  0
  183.4260  180.8100  138.7190 F   0  0  0  0  0  0  0  0  0  0  0  0
  182.8670  179.5490  138.8240 C   0  0  0  0  0  0  0  0  0  0  0  0
  181.9630  179.5360  139.8710 F   0  0  0  0  0  0  0  0  0  0  0  0
  182.2060  179.2520  137.6470 F   0  0  0  0  0  0  0  0  0  0  0  0
  1 14  1  0  0  0  0
  1  4  1  0  0  0  0
  2  1  1  0  0  0  0
  3 14  1  0  0  0  0
  4 17  1  0  0  0  0
  4  8  2  0  0  0  0
  5 18  1  0  0  0  0
  7  3  2  0  0  0  0
  8  9  1  0  0  0  0
  9  6  1  0  0  0  0
 10 11  1  6  0  0  0
 10 19  1  0  0  0  0
 12  2  1  0  0  0  0
 13  6  1  0  0  0  0
 14 15  2  0  0  0  0
 15  8  1  0  0  0  0
 16 10  1  0  0  0  0
 16 18  2  0  0  0  0
 17 13  1  0  0  0  0
 18 12  1  0  0  0  0
 19  7  1  0  0  0  0
 19  2  2  0  0  0  0
 20 21  1  1  0  0  0
 20  5  1  0  0  0  0
 22 23  1  0  0  0  0
 23 20  1  0  0  0  0
 23 24  1  0  0  0  0
 25 23  1  0  0  0  0
M  END
>  <MODEL>
7

>  <REMARK>
 VINA RESULT:      -8.2      5.568      7.428
  Name = 
  2 active torsions:
  status: ('A' for Active; 'I' for Inactive)
    1  A    between atoms: N_6  and  C_15
    2  A    between atoms: C_7  and  C_15
                            x       y       z     vdW  Elec       q    Type
                         _______ _______ _______ _____ _____    ______ ____

>  <TORSDO>
F 2

$$$$
=
 OpenBabel11052412413D

 25 28  0  0  1  0  0  0  0  0999 V2000
  187.7800  177.6740  144.9620 N   0  0  0  0  0  0  0  0  0  0  0  0
  186.5880  177.8090  144.3170 C   0  0  0  0  0  0  0  0  0  0  0  0
  186.8210  178.2530  147.0560 C   0  0  0  0  0  3  0  0  0  0  0  0
  189.0070  177.3320  144.5340 C   0  0  0  0  0  0  0  0  0  0  0  0
  185.3190  178.6100  140.8760 N   0  0  0  0  0  2  0  0  0  0  0  0
  191.6320  176.2900  144.2400 C   0  0  0  0  0  2  0  0  0  0  0  0
  185.6160  178.3920  146.4330 N   0  0  0  0  0  0  0  0  0  0  0  0
  189.8430  177.3210  145.6270 C   0  0  0  0  0  0  0  0  0  0  0  0
  191.3110  177.0410  145.5410 C   0  0  0  0  0  2  0  0  0  0  0  0
  184.1250  178.2890  144.4180 C   0  0  1  0  0  3  0  0  0  0  0  0
  183.2340  179.3170  145.0930 C   0  0  0  0  0  1  0  0  0  0  0  0
  186.4250  177.5030  142.8540 C   0  0  0  0  0  2  0  0  0  0  0  0
  190.9500  176.9500  143.0320 C   0  0  0  0  0  2  0  0  0  0  0  0
  187.9200  177.8870  146.2850 C   0  0  0  0  0  0  0  0  0  0  0  0
  189.1760  177.6900  146.7440 N   0  0  0  0  0  0  0  0  0  0  0  0
  184.2600  178.6290  142.9990 N   0  0  0  0  0  0  0  0  0  0  0  0
  189.4210  176.9000  143.1600 C   0  0  0  0  0  2  0  0  0  0  0  0
  185.2800  178.2760  142.2660 C   0  0  0  0  0  0  0  0  0  0  0  0
  185.4730  178.1940  145.0850 C   0  0  0  0  0  0  0  0  0  0  0  0
  184.2710  179.3780  140.2150 C   0  0  1  0  0  3  0  0  0  0  0  0
  184.7930  180.0090  139.0830 O   0  0  0  0  0  1  0  0  0  0  0  0
  182.0090  178.7520  140.5930 F   0  0  0  0  0  0  0  0  0  0  0  0
  183.1190  178.4640  139.8190 C   0  0  0  0  0  0  0  0  0  0  0  0
  183.4720  177.1390  140.0040 F   0  0  0  0  0  0  0  0  0  0  0  0
  182.8020  178.6690  138.4880 F   0  0  0  0  0  0  0  0  0  0  0  0
  1 14  1  0  0  0  0
  2  1  1  0  0  0  0
  2 19  2  0  0  0  0
  4  1  1  0  0  0  0
  4  8  2  0  0  0  0
  5 18  1  0  0  0  0
  6  9  1  0  0  0  0
  7  3  2  0  0  0  0
  8 15  1  0  0  0  0
  9  8  1  0  0  0  0
 10 19  1  0  0  0  0
 10 11  1  1  0  0  0
 12  2  1  0  0  0  0
 13 17  1  0  0  0  0
 13  6  1  0  0  0  0
 14 15  2  0  0  0  0
 14  3  1  0  0  0  0
 16 10  1  0  0  0  0
 17  4  1  0  0  0  0
 18 12  1  0  0  0  0
 18 16  2  0  0  0  0
 19  7  1  0  0  0  0
 20 21  1  6  0  0  0
 20  5  1  0  0  0  0
 23 24  1  0  0  0  0
 23 20  1  0  0  0  0
 23 22  1  0  0  0  0
 25 23  1  0  0  0  0
M  END
>  <MODEL>
8

>  <REMARK>
 VINA RESULT:      -8.2      5.036      7.937
  Name = 
  2 active torsions:
  status: ('A' for Active; 'I' for Inactive)
    1  A    between atoms: N_6  and  C_15
    2  A    between atoms: C_7  and  C_15
                            x       y       z     vdW  Elec       q    Type
                         _______ _______ _______ _____ _____    ______ ____

>  <TORSDO>
F 2

$$$$
=
 OpenBabel11052412413D

 25 28  0  0  1  0  0  0  0  0999 V2000
  188.3290  177.5210  142.8070 N   0  0  0  0  0  0  0  0  0  0  0  0
  188.6240  177.6500  141.4840 C   0  0  0  0  0  0  0  0  0  0  0  0
  190.4580  176.5830  143.2890 C   0  0  0  0  0  3  0  0  0  0  0  0
  187.2370  177.8290  143.5250 C   0  0  0  0  0  0  0  0  0  0  0  0
  186.8250  177.7650  138.1910 N   0  0  0  0  0  2  0  0  0  0  0  0
  185.3910  178.6510  145.5200 C   0  0  0  0  0  2  0  0  0  0  0  0
  190.7780  176.7050  141.9680 N   0  0  0  0  0  0  0  0  0  0  0  0
  187.4960  177.5140  144.8390 C   0  0  0  0  0  0  0  0  0  0  0  0
  186.4910  177.6630  145.9370 C   0  0  0  0  0  2  0  0  0  0  0  0
  190.2790  177.4000  139.6100 C   0  0  1  0  0  3  0  0  0  0  0  0
  191.2620  176.3380  139.1480 C   0  0  0  0  0  1  0  0  0  0  0  0
  187.6790  178.2890  140.5060 C   0  0  0  0  0  2  0  0  0  0  0  0
  184.8750  178.3470  144.1050 C   0  0  0  0  0  2  0  0  0  0  0  0
  189.1970  177.0050  143.6990 C   0  0  0  0  0  0  0  0  0  0  0  0
  188.7280  176.9710  144.9670 N   0  0  0  0  0  0  0  0  0  0  0  0
  189.1000  177.3740  138.7400 N   0  0  0  0  0  0  0  0  0  0  0  0
  185.9880  178.5150  143.0590 C   0  0  0  0  0  2  0  0  0  0  0  0
  187.9180  177.7820  139.1130 C   0  0  0  0  0  0  0  0  0  0  0  0
  189.8920  177.2130  141.0540 C   0  0  0  0  0  0  0  0  0  0  0  0
  186.9460  177.2700  136.8260 C   0  0  1  0  0  3  0  0  0  0  0  0
  185.7030  176.8180  136.3760 O   0  0  0  0  0  1  0  0  0  0  0  0
  188.8080  178.1710  135.6540 F   0  0  0  0  0  0  0  0  0  0  0  0
  187.4640  178.3720  135.9100 C   0  0  0  0  0  0  0  0  0  0  0  0
  187.2920  179.6090  136.5040 F   0  0  0  0  0  0  0  0  0  0  0  0
  186.7710  178.3420  134.7130 F   0  0  0  0  0  0  0  0  0  0  0  0
  1  4  1  0  0  0  0
  1 14  1  0  0  0  0
  2  1  1  0  0  0  0
  3 14  1  0  0  0  0
  4  8  2  0  0  0  0
  5 18  1  0  0  0  0
  6  9  1  0  0  0  0
  7  3  2  0  0  0  0
  8 15  1  0  0  0  0
  8  9  1  0  0  0  0
 10 11  1  6  0  0  0
 10 19  1  0  0  0  0
 12  2  1  0  0  0  0
 13  6  1  0  0  0  0
 14 15  2  0  0  0  0
 16 18  2  0  0  0  0
 16 10  1  0  0  0  0
 17  4  1  0  0  0  0
 17 13  1  0  0  0  0
 18 12  1  0  0  0  0
 19  2  2  0  0  0  0
 19  7  1  0  0  0  0
 20 21  1  6  0  0  0
 20  5  1  0  0  0  0
 22 23  1  0  0  0  0
 23 24  1  0  0  0  0
 23 20  1  0  0  0  0
 25 23  1  0  0  0  0
M  END
>  <MODEL>
9

>  <REMARK>
 VINA RESULT:      -8.2      5.368      7.118
  Name = 
  2 active torsions:
  status: ('A' for Active; 'I' for Inactive)
    1  A    between atoms: N_6  and  C_15
    2  A    between atoms: C_7  and  C_15
                            x       y       z     vdW  Elec       q    Type
                         _______ _______ _______ _____ _____    ______ ____

>  <TORSDO>
F 2

$$$$
