=
 OpenBabel11052413033D

 31 35  0  0  1  0  0  0  0  0999 V2000
  189.6870  177.5700  147.0730 C   0  0  0  0  0  0  0  0  0  0  0  0
  188.0550  177.8530  143.6180 C   0  0  0  0  0  0  0  0  0  0  0  0
  186.6940  178.2470  143.8130 C   0  0  0  0  0  0  0  0  0  0  0  0
  184.7020  177.7450  145.2970 C   0  0  0  0  0  2  0  0  0  0  0  0
  188.9860  177.4780  144.7380 C   0  0  0  0  0  0  0  0  0  0  0  0
  190.8220  176.8160  146.7720 C   0  0  0  0  0  3  0  0  0  0  0  0
  186.1210  178.2840  145.2110 C   0  0  0  0  0  2  0  0  0  0  0  0
  190.0080  177.3670  142.0550 C   0  0  2  0  0  3  0  0  0  0  0  0
  189.4400  178.0180  148.4670 C   0  0  0  0  0  1  0  0  0  0  0  0
  186.4830  178.6230  141.4120 C   0  0  0  0  0  3  0  0  0  0  0  0
  183.6880  178.8710  145.1040 C   0  0  0  0  0  2  0  0  0  0  0  0
  190.4290  176.2900  143.0510 C   0  0  0  0  0  2  0  0  0  0  0  0
  188.5720  177.7860  142.2970 C   0  0  0  0  0  0  0  0  0  0  0  0
  188.7820  177.9020  146.0620 C   0  0  0  0  0  3  0  0  0  0  0  0
  184.0560  179.8110  143.9560 C   0  0  0  0  0  2  0  0  0  0  0  0
  190.1580  176.7450  144.4460 C   0  0  0  0  0  0  0  0  0  0  0  0
  191.0570  176.4040  145.4610 C   0  0  0  0  0  3  0  0  0  0  0  0
  187.7890  178.2020  141.2180 C   0  0  0  0  0  3  0  0  0  0  0  0
  185.9210  178.6570  142.6850 C   0  0  0  0  0  0  0  0  0  0  0  0
  184.4590  179.0220  142.7220 C   0  0  0  0  0  2  0  0  0  0  0  0
  192.3080  177.8110  140.4360 O   0  0  0  0  0  0  0  0  0  0  0  0
  191.3830  177.1160  139.9360 C   0  0  0  0  0  0  0  0  0  0  0  0
  190.1940  176.8700  140.6960 N   0  0  0  0  0  2  0  0  0  0  0  0
  191.6510  175.5060  135.9650 C   0  0  0  0  0  0  0  0  0  0  0  0
  190.3530  176.4240  137.7860 C   0  0  0  0  0  3  0  0  0  0  0  0
  193.9290  176.2590  138.7560 O   0  0  0  0  0  1  0  0  0  0  0  0
  191.7190  175.0000  134.7110 F   0  0  0  0  0  0  0  0  0  0  0  0
  190.4220  175.9030  136.4920 C   0  0  0  0  0  3  0  0  0  0  0  0
  192.7510  176.1530  138.0270 C   0  0  0  0  0  0  0  0  0  0  0  0
  191.5100  176.5570  138.5710 C   0  0  0  0  0  0  0  0  0  0  0  0
  192.8110  175.6310  136.7310 C   0  0  0  0  0  3  0  0  0  0  0  0
  1  9  1  0  0  0  0
  2  3  1  0  0  0  0
  2  5  1  0  0  0  0
  3  7  1  0  0  0  0
  5 14  1  0  0  0  0
  6  1  1  0  0  0  0
  7  4  1  0  0  0  0
  8 23  1  6  0  0  0
  8 13  1  0  0  0  0
  8 12  1  0  0  0  0
 10 19  1  0  0  0  0
 11  4  1  0  0  0  0
 12 16  1  0  0  0  0
 13  2  2  0  0  0  0
 14  1  2  0  0  0  0
 15 11  1  0  0  0  0
 16  5  2  0  0  0  0
 16 17  1  0  0  0  0
 17  6  2  0  0  0  0
 18 10  2  0  0  0  0
 18 13  1  0  0  0  0
 19 20  1  0  0  0  0
 19  3  2  0  0  0  0
 20 15  1  0  0  0  0
 22 21  2  0  0  0  0
 22 23  1  0  0  0  0
 24 28  2  0  0  0  0
 24 31  1  0  0  0  0
 25 30  2  0  0  0  0
 27 24  1  0  0  0  0
 28 25  1  0  0  0  0
 29 30  1  0  0  0  0
 29 26  1  0  0  0  0
 30 22  1  0  0  0  0
 31 29  2  0  0  0  0
M  END
>  <MODEL>
1

>  <REMARK>
 VINA RESULT:     -11.1      0.000      0.000
  Name = 
  2 active torsions:
  status: ('A' for Active; 'I' for Inactive)
    1  A    between atoms: C_9  and  C_22
    2  A    between atoms: C_15  and  N_23
                            x       y       z     vdW  Elec       q    Type
                         _______ _______ _______ _____ _____    ______ ____

>  <TORSDO>
F 2

$$$$
=
 OpenBabel11052413033D

 31 35  0  0  1  0  0  0  0  0999 V2000
  191.8950  177.4130  140.6920 C   0  0  0  0  0  0  0  0  0  0  0  0
  189.3870  177.3970  143.5890 C   0  0  0  0  0  0  0  0  0  0  0  0
  190.0840  176.9720  144.7630 C   0  0  0  0  0  0  0  0  0  0  0  0
  191.7750  175.2420  145.5200 C   0  0  0  0  0  2  0  0  0  0  0  0
  189.9840  177.3790  142.2080 C   0  0  0  0  0  0  0  0  0  0  0  0
  191.0350  177.4380  139.5930 C   0  0  0  0  0  3  0  0  0  0  0  0
  191.4990  176.4530  144.6440 C   0  0  0  0  0  2  0  0  0  0  0  0
  187.2760  178.2990  142.4830 C   0  0  2  0  0  3  0  0  0  0  0  0
  193.3660  177.4090  140.4860 C   0  0  0  0  0  1  0  0  0  0  0  0
  188.1490  177.5970  146.1100 C   0  0  0  0  0  3  0  0  0  0  0  0
  192.2990  175.6770  146.8870 C   0  0  0  0  0  2  0  0  0  0  0  0
  187.6490  177.4500  141.2700 C   0  0  0  0  0  2  0  0  0  0  0  0
  188.0460  177.8470  143.7070 C   0  0  0  0  0  0  0  0  0  0  0  0
  191.3720  177.3900  141.9870 C   0  0  0  0  0  3  0  0  0  0  0  0
  191.5210  176.8550  147.4750 C   0  0  0  0  0  2  0  0  0  0  0  0
  189.1300  177.4390  141.0850 C   0  0  0  0  0  0  0  0  0  0  0  0
  189.6550  177.4510  139.7900 C   0  0  0  0  0  3  0  0  0  0  0  0
  187.4590  177.9700  144.9680 C   0  0  0  0  0  3  0  0  0  0  0  0
  189.4490  177.1040  146.0350 C   0  0  0  0  0  0  0  0  0  0  0  0
  190.0240  176.6290  147.3450 C   0  0  0  0  0  2  0  0  0  0  0  0
  185.2990  179.6510  140.9420 O   0  0  0  0  0  0  0  0  0  0  0  0
  184.8890  178.9180  141.8830 C   0  0  0  0  0  0  0  0  0  0  0  0
  185.8360  178.2230  142.7020 N   0  0  0  0  0  2  0  0  0  0  0  0
  180.6740  178.4710  142.5640 C   0  0  0  0  0  0  0  0  0  0  0  0
  182.5950  178.3840  141.1000 C   0  0  0  0  0  3  0  0  0  0  0  0
  183.6610  179.4000  144.5040 O   0  0  0  0  0  1  0  0  0  0  0  0
  179.3420  178.3250  142.7630 F   0  0  0  0  0  0  0  0  0  0  0  0
  181.2220  178.2330  141.3040 C   0  0  0  0  0  3  0  0  0  0  0  0
  182.8750  179.0110  143.4250 C   0  0  0  0  0  0  0  0  0  0  0  0
  183.4400  178.7730  142.1520 C   0  0  0  0  0  0  0  0  0  0  0  0
  181.4980  178.8580  143.6210 C   0  0  0  0  0  3  0  0  0  0  0  0
  1 14  1  0  0  0  0
  2 13  2  0  0  0  0
  2  3  1  0  0  0  0
  3 19  2  0  0  0  0
  4 11  1  0  0  0  0
  5  2  1  0  0  0  0
  6 17  1  0  0  0  0
  6  1  2  0  0  0  0
  7  3  1  0  0  0  0
  7  4  1  0  0  0  0
  8 23  1  1  0  0  0
  8 13  1  0  0  0  0
  9  1  1  0  0  0  0
 11 15  1  0  0  0  0
 12  8  1  0  0  0  0
 13 18  1  0  0  0  0
 14  5  2  0  0  0  0
 16 12  1  0  0  0  0
 16  5  1  0  0  0  0
 17 16  2  0  0  0  0
 18 10  2  0  0  0  0
 19 10  1  0  0  0  0
 19 20  1  0  0  0  0
 20 15  1  0  0  0  0
 21 22  2  0  0  0  0
 22 30  1  0  0  0  0
 22 23  1  0  0  0  0
 24 27  1  0  0  0  0
 24 31  1  0  0  0  0
 25 28  1  0  0  0  0
 25 30  2  0  0  0  0
 28 24  2  0  0  0  0
 29 31  2  0  0  0  0
 29 26  1  0  0  0  0
 30 29  1  0  0  0  0
M  END
>  <MODEL>
2

>  <REMARK>
 VINA RESULT:     -10.8      3.980      7.914
  Name = 
  2 active torsions:
  status: ('A' for Active; 'I' for Inactive)
    1  A    between atoms: C_9  and  C_22
    2  A    between atoms: C_15  and  N_23
                            x       y       z     vdW  Elec       q    Type
                         _______ _______ _______ _____ _____    ______ ____

>  <TORSDO>
F 2

$$$$
=
 OpenBabel11052413033D

 31 35  0  0  1  0  0  0  0  0999 V2000
  191.8980  177.4510  140.6680 C   0  0  0  0  0  0  0  0  0  0  0  0
  189.3880  177.4070  143.5630 C   0  0  0  0  0  0  0  0  0  0  0  0
  190.0870  176.9780  144.7350 C   0  0  0  0  0  0  0  0  0  0  0  0
  191.7860  175.2520  145.4830 C   0  0  0  0  0  2  0  0  0  0  0  0
  189.9860  177.3990  142.1830 C   0  0  0  0  0  0  0  0  0  0  0  0
  191.0380  177.4790  139.5690 C   0  0  0  0  0  3  0  0  0  0  0  0
  191.5050  176.4670  144.6140 C   0  0  0  0  0  2  0  0  0  0  0  0
  187.2740  178.3060  142.4620 C   0  0  2  0  0  3  0  0  0  0  0  0
  193.3690  177.4560  140.4620 C   0  0  0  0  0  1  0  0  0  0  0  0
  188.1490  177.5870  146.0850 C   0  0  0  0  0  3  0  0  0  0  0  0
  192.3070  175.6820  146.8530 C   0  0  0  0  0  2  0  0  0  0  0  0
  187.6510  177.4650  141.2440 C   0  0  0  0  0  2  0  0  0  0  0  0
  188.0450  177.8500  143.6840 C   0  0  0  0  0  0  0  0  0  0  0  0
  191.3740  177.4180  141.9620 C   0  0  0  0  0  3  0  0  0  0  0  0
  191.5230  176.8520  147.4460 C   0  0  0  0  0  2  0  0  0  0  0  0
  189.1320  177.4620  141.0600 C   0  0  0  0  0  0  0  0  0  0  0  0
  189.6570  177.4850  139.7650 C   0  0  0  0  0  3  0  0  0  0  0  0
  187.4570  177.9630  144.9450 C   0  0  0  0  0  3  0  0  0  0  0  0
  189.4500  177.1000  146.0070 C   0  0  0  0  0  0  0  0  0  0  0  0
  190.0270  176.6200  147.3150 C   0  0  0  0  0  2  0  0  0  0  0  0
  185.2930  179.6840  140.9500 O   0  0  0  0  0  0  0  0  0  0  0  0
  184.8850  178.9310  141.8760 C   0  0  0  0  0  0  0  0  0  0  0  0
  185.8340  178.2220  142.6800 N   0  0  0  0  0  2  0  0  0  0  0  0
  180.7030  178.5050  142.7460 C   0  0  0  0  0  0  0  0  0  0  0  0
  182.9710  178.9410  143.4570 C   0  0  0  0  0  3  0  0  0  0  0  0
  182.9050  178.2980  139.8040 O   0  0  0  0  0  1  0  0  0  0  0  0
  179.3860  178.3740  143.0370 F   0  0  0  0  0  0  0  0  0  0  0  0
  181.6140  178.8070  143.7580 C   0  0  0  0  0  3  0  0  0  0  0  0
  182.5040  178.4730  141.1240 C   0  0  0  0  0  0  0  0  0  0  0  0
  183.4370  178.7780  142.1420 C   0  0  0  0  0  0  0  0  0  0  0  0
  181.1470  178.3390  141.4340 C   0  0  0  0  0  3  0  0  0  0  0  0
  1 14  1  0  0  0  0
  2 13  2  0  0  0  0
  2  3  1  0  0  0  0
  3 19  2  0  0  0  0
  4 11  1  0  0  0  0
  5  2  1  0  0  0  0
  6 17  1  0  0  0  0
  6  1  2  0  0  0  0
  7  3  1  0  0  0  0
  7  4  1  0  0  0  0
  8 23  1  1  0  0  0
  8 13  1  0  0  0  0
  9  1  1  0  0  0  0
 11 15  1  0  0  0  0
 12  8  1  0  0  0  0
 13 18  1  0  0  0  0
 14  5  2  0  0  0  0
 16 12  1  0  0  0  0
 16  5  1  0  0  0  0
 17 16  2  0  0  0  0
 18 10  2  0  0  0  0
 19 10  1  0  0  0  0
 19 20  1  0  0  0  0
 20 15  1  0  0  0  0
 21 22  2  0  0  0  0
 22 30  1  0  0  0  0
 22 23  1  0  0  0  0
 24 27  1  0  0  0  0
 24 28  1  0  0  0  0
 25 28  2  0  0  0  0
 26 29  1  0  0  0  0
 29 31  1  0  0  0  0
 29 30  2  0  0  0  0
 30 25  1  0  0  0  0
 31 24  2  0  0  0  0
M  END
>  <MODEL>
3

>  <REMARK>
 VINA RESULT:     -10.7      3.997      7.902
  Name = 
  2 active torsions:
  status: ('A' for Active; 'I' for Inactive)
    1  A    between atoms: C_9  and  C_22
    2  A    between atoms: C_15  and  N_23
                            x       y       z     vdW  Elec       q    Type
                         _______ _______ _______ _____ _____    ______ ____

>  <TORSDO>
F 2

$$$$
=
 OpenBabel11052413033D

 31 35  0  0  1  0  0  0  0  0999 V2000
  183.8950  178.6900  143.5350 C   0  0  0  0  0  0  0  0  0  0  0  0
  187.5580  177.6640  143.9980 C   0  0  0  0  0  0  0  0  0  0  0  0
  187.8400  177.6880  145.4000 C   0  0  0  0  0  0  0  0  0  0  0  0
  187.4260  179.1060  147.4590 C   0  0  0  0  0  2  0  0  0  0  0  0
  186.2730  178.1610  143.3950 C   0  0  0  0  0  0  0  0  0  0  0  0
  183.8770  179.0120  142.1780 C   0  0  0  0  0  3  0  0  0  0  0  0
  186.8170  178.2530  146.3580 C   0  0  0  0  0  2  0  0  0  0  0  0
  188.2770  177.1300  141.6130 C   0  0  2  0  0  3  0  0  0  0  0  0
  182.6540  178.8010  144.3440 C   0  0  0  0  0  1  0  0  0  0  0  0
  189.9770  176.5940  144.9650 C   0  0  0  0  0  3  0  0  0  0  0  0
  187.7530  178.2510  148.6820 C   0  0  0  0  0  2  0  0  0  0  0  0
  187.4610  178.3470  141.1830 C   0  0  0  0  0  2  0  0  0  0  0  0
  188.5420  177.1640  143.1040 C   0  0  0  0  0  0  0  0  0  0  0  0
  185.0820  178.2620  144.1350 C   0  0  0  0  0  3  0  0  0  0  0  0
  188.4190  176.9240  148.3180 C   0  0  0  0  0  2  0  0  0  0  0  0
  186.2280  178.4590  142.0150 C   0  0  0  0  0  0  0  0  0  0  0  0
  185.0420  178.8960  141.4190 C   0  0  0  0  0  3  0  0  0  0  0  0
  189.7220  176.6090  143.6030 C   0  0  0  0  0  3  0  0  0  0  0  0
  189.0620  177.1180  145.8730 C   0  0  0  0  0  0  0  0  0  0  0  0
  189.5310  177.1400  147.3050 C   0  0  0  0  0  2  0  0  0  0  0  0
  188.5070  176.4470  138.8580 O   0  0  0  0  0  0  0  0  0  0  0  0
  189.5710  176.7500  139.4630 C   0  0  0  0  0  0  0  0  0  0  0  0
  189.5220  177.0890  140.8530 N   0  0  0  0  0  2  0  0  0  0  0  0
  193.2890  176.7290  137.3170 C   0  0  0  0  0  0  0  0  0  0  0  0
  190.9000  176.3760  137.3990 C   0  0  0  0  0  3  0  0  0  0  0  0
  192.1140  177.5030  140.7180 O   0  0  0  0  0  1  0  0  0  0  0  0
  194.4540  176.7170  136.6250 F   0  0  0  0  0  0  0  0  0  0  0  0
  192.1000  176.3640  136.6860 C   0  0  0  0  0  3  0  0  0  0  0  0
  192.0810  177.1220  139.3810 C   0  0  0  0  0  0  0  0  0  0  0  0
  190.8700  176.7530  138.7520 C   0  0  0  0  0  0  0  0  0  0  0  0
  193.2790  177.1070  138.6600 C   0  0  0  0  0  3  0  0  0  0  0  0
  1 14  1  0  0  0  0
  1  9  1  0  0  0  0
  2  3  1  0  0  0  0
  3 19  2  0  0  0  0
  3  7  1  0  0  0  0
  4 11  1  0  0  0  0
  5  2  1  0  0  0  0
  5 14  2  0  0  0  0
  6  1  2  0  0  0  0
  7  4  1  0  0  0  0
  8 23  1  6  0  0  0
  8 13  1  0  0  0  0
 10 19  1  0  0  0  0
 12  8  1  0  0  0  0
 12 16  1  0  0  0  0
 13 18  1  0  0  0  0
 13  2  2  0  0  0  0
 15 11  1  0  0  0  0
 16  5  1  0  0  0  0
 17 16  2  0  0  0  0
 17  6  1  0  0  0  0
 18 10  2  0  0  0  0
 19 20  1  0  0  0  0
 20 15  1  0  0  0  0
 21 22  2  0  0  0  0
 22 23  1  0  0  0  0
 24 31  1  0  0  0  0
 25 30  2  0  0  0  0
 27 24  1  0  0  0  0
 28 24  2  0  0  0  0
 28 25  1  0  0  0  0
 29 26  1  0  0  0  0
 30 29  1  0  0  0  0
 30 22  1  0  0  0  0
 31 29  2  0  0  0  0
M  END
>  <MODEL>
4

>  <REMARK>
 VINA RESULT:     -10.0      1.492      4.367
  Name = 
  2 active torsions:
  status: ('A' for Active; 'I' for Inactive)
    1  A    between atoms: C_9  and  C_22
    2  A    between atoms: C_15  and  N_23
                            x       y       z     vdW  Elec       q    Type
                         _______ _______ _______ _____ _____    ______ ____

>  <TORSDO>
F 2

$$$$
=
 OpenBabel11052413033D

 31 35  0  0  1  0  0  0  0  0999 V2000
  185.0240  178.5620  143.2520 C   0  0  0  0  0  0  0  0  0  0  0  0
  188.6920  177.4560  143.2170 C   0  0  0  0  0  0  0  0  0  0  0  0
  189.1310  177.3700  144.5750 C   0  0  0  0  0  0  0  0  0  0  0  0
  188.9820  178.6320  146.7680 C   0  0  0  0  0  2  0  0  0  0  0  0
  187.3590  178.0150  142.8030 C   0  0  0  0  0  0  0  0  0  0  0  0
  184.8600  178.9880  141.9330 C   0  0  0  0  0  3  0  0  0  0  0  0
  188.2340  177.8730  145.6830 C   0  0  0  0  0  2  0  0  0  0  0  0
  189.1270  177.0970  140.7330 C   0  0  2  0  0  3  0  0  0  0  0  0
  183.8840  178.6280  144.2020 C   0  0  0  0  0  1  0  0  0  0  0  0
  191.1810  176.2850  143.8200 C   0  0  0  0  0  3  0  0  0  0  0  0
  189.4250  177.6810  147.8790 C   0  0  0  0  0  2  0  0  0  0  0  0
  188.2950  178.3540  140.4900 C   0  0  0  0  0  2  0  0  0  0  0  0
  189.5580  177.0140  142.1820 C   0  0  0  0  0  0  0  0  0  0  0  0
  186.2610  178.0740  143.6790 C   0  0  0  0  0  3  0  0  0  0  0  0
  190.0180  176.3780  147.3430 C   0  0  0  0  0  2  0  0  0  0  0  0
  187.1650  178.4180  141.4630 C   0  0  0  0  0  0  0  0  0  0  0  0
  185.9290  178.9150  141.0400 C   0  0  0  0  0  3  0  0  0  0  0  0
  190.7750  176.4070  142.5010 C   0  0  0  0  0  3  0  0  0  0  0  0
  190.3850  176.7500  144.8620 C   0  0  0  0  0  0  0  0  0  0  0  0
  191.0130  176.6560  146.2300 C   0  0  0  0  0  2  0  0  0  0  0  0
  189.4730  175.3760  138.4900 O   0  0  0  0  0  0  0  0  0  0  0  0
  190.3870  176.2140  138.7140 C   0  0  0  0  0  0  0  0  0  0  0  0
  190.2770  177.0980  139.8350 N   0  0  0  0  0  2  0  0  0  0  0  0
  193.7720  176.4050  136.0790 C   0  0  0  0  0  0  0  0  0  0  0  0
  191.4330  175.9450  136.4780 C   0  0  0  0  0  3  0  0  0  0  0  0
  193.0460  177.0520  139.6290 O   0  0  0  0  0  1  0  0  0  0  0  0
  194.8300  176.4600  135.2350 F   0  0  0  0  0  0  0  0  0  0  0  0
  192.5220  176.0020  135.6070 C   0  0  0  0  0  3  0  0  0  0  0  0
  192.8440  176.6990  138.3000 C   0  0  0  0  0  0  0  0  0  0  0  0
  191.5740  176.2910  137.8320 C   0  0  0  0  0  0  0  0  0  0  0  0
  193.9310  176.7530  137.4210 C   0  0  0  0  0  3  0  0  0  0  0  0
  1 14  1  0  0  0  0
  1  9  1  0  0  0  0
  2  3  1  0  0  0  0
  3 19  2  0  0  0  0
  3  7  1  0  0  0  0
  4 11  1  0  0  0  0
  5  2  1  0  0  0  0
  5 14  2  0  0  0  0
  6  1  2  0  0  0  0
  7  4  1  0  0  0  0
  8 23  1  6  0  0  0
  8 13  1  0  0  0  0
 10 19  1  0  0  0  0
 12  8  1  0  0  0  0
 12 16  1  0  0  0  0
 13 18  1  0  0  0  0
 13  2  2  0  0  0  0
 15 11  1  0  0  0  0
 16  5  1  0  0  0  0
 17 16  2  0  0  0  0
 17  6  1  0  0  0  0
 18 10  2  0  0  0  0
 19 20  1  0  0  0  0
 20 15  1  0  0  0  0
 21 22  2  0  0  0  0
 22 23  1  0  0  0  0
 24 31  1  0  0  0  0
 25 30  2  0  0  0  0
 27 24  1  0  0  0  0
 28 24  2  0  0  0  0
 28 25  1  0  0  0  0
 29 26  1  0  0  0  0
 30 29  1  0  0  0  0
 30 22  1  0  0  0  0
 31 29  2  0  0  0  0
M  END
>  <MODEL>
5

>  <REMARK>
 VINA RESULT:      -9.9      1.330      4.350
  Name = 
  2 active torsions:
  status: ('A' for Active; 'I' for Inactive)
    1  A    between atoms: C_9  and  C_22
    2  A    between atoms: C_15  and  N_23
                            x       y       z     vdW  Elec       q    Type
                         _______ _______ _______ _____ _____    ______ ____

>  <TORSDO>
F 2

$$$$
=
 OpenBabel11052413033D

 31 35  0  0  1  0  0  0  0  0999 V2000
  187.3980  177.5050  147.0920 C   0  0  0  0  0  0  0  0  0  0  0  0
  187.2710  178.1350  143.3150 C   0  0  0  0  0  0  0  0  0  0  0  0
  188.6010  177.9940  142.8080 C   0  0  0  0  0  0  0  0  0  0  0  0
  190.9900  178.6280  143.3680 C   0  0  0  0  0  2  0  0  0  0  0  0
  186.9290  178.1240  144.7790 C   0  0  0  0  0  0  0  0  0  0  0  0
  186.1810  178.0560  147.4960 C   0  0  0  0  0  3  0  0  0  0  0  0
  189.7550  177.8390  143.7720 C   0  0  0  0  0  2  0  0  0  0  0  0
  184.7800  178.4750  142.9050 C   0  0  2  0  0  3  0  0  0  0  0  0
  188.3050  176.8880  148.0940 C   0  0  0  0  0  1  0  0  0  0  0  0
  187.7190  178.0740  140.5350 C   0  0  0  0  0  3  0  0  0  0  0  0
  191.9100  177.7760  142.4970 C   0  0  0  0  0  2  0  0  0  0  0  0
  184.7570  179.2640  144.2110 C   0  0  0  0  0  2  0  0  0  0  0  0
  186.2000  178.3170  142.4010 C   0  0  0  0  0  0  0  0  0  0  0  0
  187.7630  177.5340  145.7450 C   0  0  0  0  0  3  0  0  0  0  0  0
  191.1540  176.9870  141.4290 C   0  0  0  0  0  2  0  0  0  0  0  0
  185.6870  178.6460  145.2020 C   0  0  0  0  0  0  0  0  0  0  0  0
  185.3270  178.6260  146.5520 C   0  0  0  0  0  3  0  0  0  0  0  0
  186.4350  178.2520  141.0260 C   0  0  0  0  0  3  0  0  0  0  0  0
  188.8040  177.9400  141.3950 C   0  0  0  0  0  0  0  0  0  0  0  0
  190.1480  177.8740  140.7150 C   0  0  0  0  0  2  0  0  0  0  0  0
  183.1710  177.1720  140.9490 O   0  0  0  0  0  0  0  0  0  0  0  0
  183.1400  178.4320  140.9680 C   0  0  0  0  0  0  0  0  0  0  0  0
  183.9380  179.1450  141.9190 N   0  0  0  0  0  2  0  0  0  0  0  0
  180.5960  180.5570  138.2400 C   0  0  0  0  0  0  0  0  0  0  0  0
  180.9060  178.9440  140.0130 C   0  0  0  0  0  3  0  0  0  0  0  0
  184.1800  180.4050  139.0600 O   0  0  0  0  0  1  0  0  0  0  0  0
  179.7790  181.2200  137.3860 F   0  0  0  0  0  0  0  0  0  0  0  0
  180.0640  179.6270  139.1330 C   0  0  0  0  0  3  0  0  0  0  0  0
  182.8190  180.1280  139.1060 C   0  0  0  0  0  0  0  0  0  0  0  0
  182.2910  179.1820  140.0140 C   0  0  0  0  0  0  0  0  0  0  0  0
  181.9680  180.8070  138.2280 C   0  0  0  0  0  3  0  0  0  0  0  0
  1  6  1  0  0  0  0
  1  9  1  0  0  0  0
  2  5  1  0  0  0  0
  3  2  1  0  0  0  0
  3  7  1  0  0  0  0
  4  7  1  0  0  0  0
  5 16  2  0  0  0  0
  5 14  1  0  0  0  0
  8 23  1  6  0  0  0
  8 12  1  0  0  0  0
 10 18  2  0  0  0  0
 10 19  1  0  0  0  0
 11  4  1  0  0  0  0
 12 16  1  0  0  0  0
 13  8  1  0  0  0  0
 13  2  2  0  0  0  0
 14  1  2  0  0  0  0
 15 11  1  0  0  0  0
 16 17  1  0  0  0  0
 17  6  2  0  0  0  0
 18 13  1  0  0  0  0
 19  3  2  0  0  0  0
 20 19  1  0  0  0  0
 20 15  1  0  0  0  0
 21 22  2  0  0  0  0
 22 23  1  0  0  0  0
 24 28  1  0  0  0  0
 25 30  1  0  0  0  0
 26 29  1  0  0  0  0
 27 24  1  0  0  0  0
 28 25  2  0  0  0  0
 29 30  2  0  0  0  0
 30 22  1  0  0  0  0
 31 24  2  0  0  0  0
 31 29  1  0  0  0  0
M  END
>  <MODEL>
6

>  <REMARK>
 VINA RESULT:      -9.8      4.329      7.352
  Name = 
  2 active torsions:
  status: ('A' for Active; 'I' for Inactive)
    1  A    between atoms: C_9  and  C_22
    2  A    between atoms: C_15  and  N_23
                            x       y       z     vdW  Elec       q    Type
                         _______ _______ _______ _____ _____    ______ ____

>  <TORSDO>
F 2

$$$$
=
 OpenBabel11052413033D

 31 35  0  0  1  0  0  0  0  0999 V2000
  186.6000  177.8800  146.6470 C   0  0  0  0  0  0  0  0  0  0  0  0
  187.1910  178.2240  142.8770 C   0  0  0  0  0  0  0  0  0  0  0  0
  188.5930  178.0670  142.6420 C   0  0  0  0  0  0  0  0  0  0  0  0
  190.8320  178.7780  143.5930 C   0  0  0  0  0  2  0  0  0  0  0  0
  186.5770  178.3170  144.2470 C   0  0  0  0  0  0  0  0  0  0  0  0
  185.3280  178.4410  146.7710 C   0  0  0  0  0  3  0  0  0  0  0  0
  189.5440  178.0020  143.8160 C   0  0  0  0  0  2  0  0  0  0  0  0
  184.8220  178.4930  141.9790 C   0  0  2  0  0  3  0  0  0  0  0  0
  187.3010  177.3540  147.8460 C   0  0  0  0  0  1  0  0  0  0  0  0
  188.1570  177.9630  140.2440 C   0  0  0  0  0  3  0  0  0  0  0  0
  191.9010  177.8780  142.9790 C   0  0  0  0  0  2  0  0  0  0  0  0
  184.5510  179.3780  143.1930 C   0  0  0  0  0  2  0  0  0  0  0  0
  186.3120  178.3200  141.7660 C   0  0  0  0  0  0  0  0  0  0  0  0
  187.2140  177.8140  145.3940 C   0  0  0  0  0  3  0  0  0  0  0  0
  191.3610  176.9990  141.8500 C   0  0  0  0  0  2  0  0  0  0  0  0
  185.2760  178.8500  144.3860 C   0  0  0  0  0  0  0  0  0  0  0  0
  184.6680  178.9250  145.6420 C   0  0  0  0  0  3  0  0  0  0  0  0
  186.8030  178.1570  140.4690 C   0  0  0  0  0  3  0  0  0  0  0  0
  189.0600  177.9110  141.3020 C   0  0  0  0  0  0  0  0  0  0  0  0
  190.5080  177.8160  140.8940 C   0  0  0  0  0  2  0  0  0  0  0  0
  182.2020  177.8710  141.0500 O   0  0  0  0  0  0  0  0  0  0  0  0
  182.8530  178.7300  140.3950 C   0  0  0  0  0  0  0  0  0  0  0  0
  184.1810  179.0750  140.8040 N   0  0  0  0  0  2  0  0  0  0  0  0
  181.1180  180.7030  136.9990 C   0  0  0  0  0  0  0  0  0  0  0  0
  181.8200  180.7110  139.3120 C   0  0  0  0  0  3  0  0  0  0  0  0
  182.5310  177.4000  137.7990 O   0  0  0  0  0  1  0  0  0  0  0  0
  180.5690  181.3400  135.9370 F   0  0  0  0  0  0  0  0  0  0  0  0
  181.2550  181.3680  138.2180 C   0  0  0  0  0  3  0  0  0  0  0  0
  182.1170  178.7160  137.9650 C   0  0  0  0  0  0  0  0  0  0  0  0
  182.2590  179.3810  139.2050 C   0  0  0  0  0  0  0  0  0  0  0  0
  181.5490  179.3820  136.8740 C   0  0  0  0  0  3  0  0  0  0  0  0
  1  6  1  0  0  0  0
  1  9  1  0  0  0  0
  2  5  1  0  0  0  0
  3  2  1  0  0  0  0
  3  7  1  0  0  0  0
  4  7  1  0  0  0  0
  5 16  2  0  0  0  0
  5 14  1  0  0  0  0
  8 23  1  6  0  0  0
  8 12  1  0  0  0  0
 10 18  2  0  0  0  0
 10 19  1  0  0  0  0
 11  4  1  0  0  0  0
 12 16  1  0  0  0  0
 13  8  1  0  0  0  0
 13  2  2  0  0  0  0
 14  1  2  0  0  0  0
 15 11  1  0  0  0  0
 16 17  1  0  0  0  0
 17  6  2  0  0  0  0
 18 13  1  0  0  0  0
 19  3  2  0  0  0  0
 20 19  1  0  0  0  0
 20 15  1  0  0  0  0
 22 23  1  0  0  0  0
 22 21  2  0  0  0  0
 24 28  1  0  0  0  0
 26 29  1  0  0  0  0
 27 24  1  0  0  0  0
 28 25  2  0  0  0  0
 29 30  2  0  0  0  0
 30 25  1  0  0  0  0
 30 22  1  0  0  0  0
 31 24  2  0  0  0  0
 31 29  1  0  0  0  0
M  END
>  <MODEL>
7

>  <REMARK>
 VINA RESULT:      -9.5      4.579      7.389
  Name = 
  2 active torsions:
  status: ('A' for Active; 'I' for Inactive)
    1  A    between atoms: C_9  and  C_22
    2  A    between atoms: C_15  and  N_23
                            x       y       z     vdW  Elec       q    Type
                         _______ _______ _______ _____ _____    ______ ____

>  <TORSDO>
F 2

$$$$
=
 OpenBabel11052413033D

 31 35  0  0  1  0  0  0  0  0999 V2000
  186.1700  178.4660  146.3460 C   0  0  0  0  0  0  0  0  0  0  0  0
  184.9490  178.5370  142.7150 C   0  0  0  0  0  0  0  0  0  0  0  0
  183.5290  178.7050  142.7390 C   0  0  0  0  0  0  0  0  0  0  0  0
  181.4770  177.8680  143.9680 C   0  0  0  0  0  2  0  0  0  0  0  0
  185.7840  178.2990  143.9430 C   0  0  0  0  0  0  0  0  0  0  0  0
  187.4400  177.9090  146.1910 C   0  0  0  0  0  3  0  0  0  0  0  0
  182.7900  178.6280  144.0560 C   0  0  0  0  0  2  0  0  0  0  0  0
  187.1310  178.3950  141.4060 C   0  0  2  0  0  3  0  0  0  0  0  0
  185.6850  178.8480  147.6970 C   0  0  0  0  0  1  0  0  0  0  0  0
  183.5560  179.0790  140.3280 C   0  0  0  0  0  3  0  0  0  0  0  0
  180.3270  178.8200  143.6470 C   0  0  0  0  0  2  0  0  0  0  0  0
  187.5950  177.3830  142.4520 C   0  0  0  0  0  2  0  0  0  0  0  0
  185.6280  178.5740  141.4680 C   0  0  0  0  0  0  0  0  0  0  0  0
  185.3540  178.6650  145.2300 C   0  0  0  0  0  3  0  0  0  0  0  0
  180.6760  179.8240  142.5480 C   0  0  0  0  0  2  0  0  0  0  0  0
  187.0850  177.7680  143.8010 C   0  0  0  0  0  0  0  0  0  0  0  0
  187.8960  177.5600  144.9200 C   0  0  0  0  0  3  0  0  0  0  0  0
  184.9260  178.8760  140.2990 C   0  0  0  0  0  3  0  0  0  0  0  0
  182.8440  179.0040  141.5220 C   0  0  0  0  0  0  0  0  0  0  0  0
  181.3490  179.1290  141.3770 C   0  0  0  0  0  2  0  0  0  0  0  0
  189.8340  178.1330  140.5500 O   0  0  0  0  0  0  0  0  0  0  0  0
  188.9380  177.8300  139.7160 C   0  0  0  0  0  0  0  0  0  0  0  0
  187.5600  177.9540  140.0830 N   0  0  0  0  0  2  0  0  0  0  0  0
  190.0140  176.3580  135.8290 C   0  0  0  0  0  0  0  0  0  0  0  0
  189.8900  176.0860  138.2280 C   0  0  0  0  0  3  0  0  0  0  0  0
  188.4840  179.3810  137.2670 O   0  0  0  0  0  1  0  0  0  0  0  0
  190.3590  175.8800  134.6100 F   0  0  0  0  0  0  0  0  0  0  0  0
  190.2450  175.5910  136.9710 C   0  0  0  0  0  3  0  0  0  0  0  0
  189.0660  178.1210  137.1980 C   0  0  0  0  0  0  0  0  0  0  0  0
  189.2970  177.3520  138.3620 C   0  0  0  0  0  0  0  0  0  0  0  0
  189.4260  177.6180  135.9430 C   0  0  0  0  0  3  0  0  0  0  0  0
  1  9  1  0  0  0  0
  2  3  1  0  0  0  0
  2  5  1  0  0  0  0
  3  7  1  0  0  0  0
  4  7  1  0  0  0  0
  5 14  1  0  0  0  0
  6  1  1  0  0  0  0
  8 23  1  6  0  0  0
  8 13  1  0  0  0  0
  8 12  1  0  0  0  0
 10 19  1  0  0  0  0
 11  4  1  0  0  0  0
 12 16  1  0  0  0  0
 13  2  2  0  0  0  0
 14  1  2  0  0  0  0
 15 11  1  0  0  0  0
 16  5  2  0  0  0  0
 16 17  1  0  0  0  0
 17  6  2  0  0  0  0
 18 10  2  0  0  0  0
 18 13  1  0  0  0  0
 19  3  2  0  0  0  0
 20 19  1  0  0  0  0
 20 15  1  0  0  0  0
 22 23  1  0  0  0  0
 22 21  2  0  0  0  0
 24 31  2  0  0  0  0
 24 28  1  0  0  0  0
 25 30  1  0  0  0  0
 27 24  1  0  0  0  0
 28 25  2  0  0  0  0
 29 26  1  0  0  0  0
 29 30  2  0  0  0  0
 30 22  1  0  0  0  0
 31 29  1  0  0  0  0
M  END
>  <MODEL>
8

>  <REMARK>
 VINA RESULT:      -9.5      2.156      3.330
  Name = 
  2 active torsions:
  status: ('A' for Active; 'I' for Inactive)
    1  A    between atoms: C_9  and  C_22
    2  A    between atoms: C_15  and  N_23
                            x       y       z     vdW  Elec       q    Type
                         _______ _______ _______ _____ _____    ______ ____

>  <TORSDO>
F 2

$$$$
=
 OpenBabel11052413033D

 31 35  0  0  1  0  0  0  0  0999 V2000
  185.8160  178.4070  145.3750 C   0  0  0  0  0  0  0  0  0  0  0  0
  185.9870  178.2730  141.5500 C   0  0  0  0  0  0  0  0  0  0  0  0
  184.6750  178.5420  141.0480 C   0  0  0  0  0  0  0  0  0  0  0  0
  182.2490  177.9520  141.4880 C   0  0  0  0  0  2  0  0  0  0  0  0
  186.3010  178.0760  143.0070 C   0  0  0  0  0  0  0  0  0  0  0  0
  186.9980  177.7510  145.7190 C   0  0  0  0  0  3  0  0  0  0  0  0
  183.5110  178.6230  142.0090 C   0  0  0  0  0  2  0  0  0  0  0  0
  188.4680  177.8730  141.1320 C   0  0  2  0  0  3  0  0  0  0  0  0
  184.9180  178.9290  146.4370 C   0  0  0  0  0  1  0  0  0  0  0  0
  185.5970  178.7200  138.7970 C   0  0  0  0  0  3  0  0  0  0  0  0
  181.3860  178.9540  140.7240 C   0  0  0  0  0  2  0  0  0  0  0  0
  188.4300  176.9190  142.3230 C   0  0  0  0  0  2  0  0  0  0  0  0
  187.0670  178.1630  140.6340 C   0  0  0  0  0  0  0  0  0  0  0  0
  185.4760  178.5720  144.0310 C   0  0  0  0  0  3  0  0  0  0  0  0
  182.1980  179.8400  139.7800 C   0  0  0  0  0  2  0  0  0  0  0  0
  187.5110  177.4450  143.3740 C   0  0  0  0  0  0  0  0  0  0  0  0
  187.8440  177.2710  144.7200 C   0  0  0  0  0  3  0  0  0  0  0  0
  186.8620  178.4190  139.2770 C   0  0  0  0  0  3  0  0  0  0  0  0
  184.5020  178.7900  139.6530 C   0  0  0  0  0  0  0  0  0  0  0  0
  183.1760  179.0080  138.9680 C   0  0  0  0  0  2  0  0  0  0  0  0
  191.2900  177.5140  141.2660 O   0  0  0  0  0  0  0  0  0  0  0  0
  190.7150  177.1320  140.2110 C   0  0  0  0  0  0  0  0  0  0  0  0
  189.2990  177.2990  140.0780 N   0  0  0  0  0  2  0  0  0  0  0  0
  192.8710  175.3100  136.9760 C   0  0  0  0  0  0  0  0  0  0  0  0
  190.8120  175.7110  138.1780 C   0  0  0  0  0  3  0  0  0  0  0  0
  193.6020  177.5030  139.8410 O   0  0  0  0  0  1  0  0  0  0  0  0
  193.5360  174.7280  135.9500 F   0  0  0  0  0  0  0  0  0  0  0  0
  191.4970  175.1110  137.1190 C   0  0  0  0  0  3  0  0  0  0  0  0
  192.8790  176.7150  138.9520 C   0  0  0  0  0  0  0  0  0  0  0  0
  191.4880  176.5190  139.1070 C   0  0  0  0  0  0  0  0  0  0  0  0
  193.5580  176.1100  137.8900 C   0  0  0  0  0  3  0  0  0  0  0  0
  1  6  1  0  0  0  0
  1  9  1  0  0  0  0
  2  5  1  0  0  0  0
  3  2  1  0  0  0  0
  3  7  1  0  0  0  0
  4  7  1  0  0  0  0
  5 16  2  0  0  0  0
  5 14  1  0  0  0  0
  8 23  1  6  0  0  0
  8 12  1  0  0  0  0
 10 18  2  0  0  0  0
 10 19  1  0  0  0  0
 11  4  1  0  0  0  0
 12 16  1  0  0  0  0
 13  8  1  0  0  0  0
 13  2  2  0  0  0  0
 14  1  2  0  0  0  0
 15 11  1  0  0  0  0
 16 17  1  0  0  0  0
 17  6  2  0  0  0  0
 18 13  1  0  0  0  0
 19  3  2  0  0  0  0
 20 19  1  0  0  0  0
 20 15  1  0  0  0  0
 22 21  2  0  0  0  0
 23 22  1  0  0  0  0
 24 28  2  0  0  0  0
 24 31  1  0  0  0  0
 25 30  2  0  0  0  0
 27 24  1  0  0  0  0
 28 25  1  0  0  0  0
 29 30  1  0  0  0  0
 29 26  1  0  0  0  0
 30 22  1  0  0  0  0
 31 29  2  0  0  0  0
M  END
>  <MODEL>
9

>  <REMARK>
 VINA RESULT:      -9.1      1.809      3.027
  Name = 
  2 active torsions:
  status: ('A' for Active; 'I' for Inactive)
    1  A    between atoms: C_9  and  C_22
    2  A    between atoms: C_15  and  N_23
                            x       y       z     vdW  Elec       q    Type
                         _______ _______ _______ _____ _____    ______ ____

>  <TORSDO>
F 2

$$$$
