=
 OpenBabel11052416173D

 43 50  0  0  1  0  0  0  0  0999 V2000
  191.1830  176.7210  147.0250 C   0  0  0  0  0  0  0  0  0  0  0  0
  189.0060  177.8570  142.6400 N   0  0  0  0  0  0  0  0  0  0  0  0
  186.2860  178.0920  143.2870 C   0  0  0  0  0  0  0  0  0  0  0  0
  190.7590  177.1970  144.6820 C   0  0  0  0  0  0  0  0  0  0  0  0
  189.8170  176.8080  147.2960 C   0  0  0  0  0  3  0  0  0  0  0  0
  192.0560  176.4460  148.0240 F   0  0  0  0  0  0  0  0  0  0  0  0
  189.3750  177.2960  144.9540 C   0  0  0  0  0  0  0  0  0  0  0  0
  191.6510  176.9150  145.7230 C   0  0  0  0  0  3  0  0  0  0  0  0
  188.9180  177.0950  146.2660 C   0  0  0  0  0  3  0  0  0  0  0  0
  187.1130  177.7450  144.2270 N   0  0  0  0  0  0  0  0  0  0  0  0
  188.5190  177.6080  143.9700 C   0  0  0  0  0  0  0  0  0  0  0  0
  190.4100  177.6290  142.2960 C   0  0  0  0  0  2  0  0  0  0  0  0
  188.0780  178.2580  141.6170 C   0  0  0  0  0  0  0  0  0  0  0  0
  186.7790  178.3850  141.9250 C   0  0  0  0  0  3  0  0  0  0  0  0
  191.2290  177.3680  143.4820 N   0  0  0  0  0  0  0  0  0  0  0  0
  184.8350  178.2430  143.6090 C   0  0  2  0  0  3  0  0  0  0  0  0
  184.1960  179.1670  142.6410 C   0  0  2  0  0  3  0  0  0  0  0  0
  184.5460  179.5810  143.9390 O   0  0  0  0  0  0  0  0  0  0  0  0
  182.7320  178.8970  142.5710 C   0  0  0  0  0  0  0  0  0  0  0  0
  181.9580  179.3890  143.4390 O   0  0  0  0  0  0  0  0  0  0  0  0
  182.2290  178.1200  141.5240 O   0  0  0  0  0  0  0  0  0  0  0  0
  181.4080  178.6640  140.4960 C   0  0  2  0  0  3  0  0  0  0  0  0
  180.4160  177.3560  138.2160 S   0  0  0  0  0  0  0  0  0  0  0  0
  183.2620  177.9250  138.7550 C   0  0  2  0  0  3  0  0  0  0  0  0
  179.9720  178.2380  140.7370 C   0  0  0  0  0  2  0  0  0  0  0  0
  181.7910  178.1020  139.1390 C   0  0  2  0  0  0  0  0  0  0  0  0
  182.4810  179.1480  138.2940 C   0  0  0  0  0  2  0  0  0  0  0  0
  179.2710  178.1350  139.3920 C   0  0  0  0  0  2  0  0  0  0  0  0
  183.4560  176.9260  137.6500 C   0  0  0  0  0  0  0  0  0  0  0  0
  183.7150  176.3970  135.2910 C   0  0  0  0  0  3  0  0  0  0  0  0
  183.9330  174.6470  136.9530 C   0  0  0  0  0  3  0  0  0  0  0  0
  183.9370  175.0540  135.6150 C   0  0  0  0  0  3  0  0  0  0  0  0
  183.7000  175.5820  137.9670 C   0  0  0  0  0  3  0  0  0  0  0  0
  183.4820  177.3320  136.3070 C   0  0  0  0  0  3  0  0  0  0  0  0
  188.5650  178.5400  140.3260 O   0  0  0  0  0  0  0  0  0  0  0  0
  186.9870  177.2520  137.1920 C   0  0  0  0  0  3  0  0  0  0  0  0
  187.9130  176.2690  136.8310 C   0  0  0  0  0  0  0  0  0  0  0  0
  189.2440  176.8190  138.7850 C   0  0  0  0  0  3  0  0  0  0  0  0
  187.1900  178.0170  138.3450 C   0  0  0  0  0  3  0  0  0  0  0  0
  188.3260  177.8120  139.1480 C   0  0  0  0  0  0  0  0  0  0  0  0
  189.0420  176.0530  137.6320 C   0  0  0  0  0  3  0  0  0  0  0  0
  187.1350  175.9890  134.6030 O   0  0  0  0  0  0  0  0  0  0  0  0
  187.6820  175.4790  135.6180 C   0  0  0  0  0  3  0  0  0  0  0  0
  1  5  1  0  0  0  0
  1  6  1  0  0  0  0
  2 11  1  0  0  0  0
  3 10  2  0  0  0  0
  4  7  1  0  0  0  0
  4  8  1  0  0  0  0
  7  9  1  0  0  0  0
  8  1  2  0  0  0  0
  9  5  2  0  0  0  0
 11 10  1  0  0  0  0
 11  7  2  0  0  0  0
 12  2  1  0  0  0  0
 12 15  1  0  0  0  0
 13 14  2  0  0  0  0
 13  2  1  0  0  0  0
 14  3  1  0  0  0  0
 15  4  2  0  0  0  0
 16  3  1  6  0  0  0
 16 18  1  0  0  0  0
 17 19  1  1  0  0  0
 17 16  1  0  0  0  0
 17 18  1  0  0  0  0
 19 20  2  0  0  0  0
 21 19  1  0  0  0  0
 22 25  1  0  0  0  0
 22 21  1  1  0  0  0
 23 26  1  0  0  0  0
 23 28  1  0  0  0  0
 24 29  1  6  0  0  0
 24 26  1  0  0  0  0
 26 27  1  6  0  0  0
 26 22  1  0  0  0  0
 27 24  1  0  0  0  0
 28 25  1  0  0  0  0
 29 33  1  0  0  0  0
 30 32  2  0  0  0  0
 30 34  1  0  0  0  0
 31 33  2  0  0  0  0
 32 31  1  0  0  0  0
 34 29  2  0  0  0  0
 35 13  1  0  0  0  0
 36 39  1  0  0  0  0
 37 36  2  0  0  0  0
 37 41  1  0  0  0  0
 38 40  1  0  0  0  0
 39 40  2  0  0  0  0
 40 35  1  0  0  0  0
 41 38  2  0  0  0  0
 42 43  2  0  0  0  0
 43 37  1  0  0  0  0
M  END
>  <MODEL>
1

>  <REMARK>
 VINA RESULT:      -9.0      0.000      0.000
  Name = 
  8 active torsions:
  status: ('A' for Active; 'I' for Inactive)
    1  A    between atoms: O_1  and  C_34
    2  A    between atoms: O_1  and  C_35
    3  A    between atoms: C_2  and  C_13
    4  A    between atoms: O_3  and  C_4
    5  A    between atoms: O_3  and  C_12
    6  A    between atoms: C_6  and  C_12
    7  A    between atoms: C_11  and  C_14
    8  A    between atoms: C_19  and  C_37
                            x       y       z     vdW  Elec       q    Type
                         _______ _______ _______ _____ _____    ______ ____

>  <TORSDO>
F 8

$$$$
=
 OpenBabel11052416173D

 43 50  0  0  1  0  0  0  0  0999 V2000
  191.2880  176.5550  147.0380 C   0  0  0  0  0  0  0  0  0  0  0  0
  187.0870  177.8440  144.5970 N   0  0  0  0  0  0  0  0  0  0  0  0
  187.9340  178.1760  141.9430 C   0  0  0  0  0  0  0  0  0  0  0  0
  189.0000  177.1450  146.4770 C   0  0  0  0  0  0  0  0  0  0  0  0
  191.6740  176.7700  145.7150 C   0  0  0  0  0  3  0  0  0  0  0  0
  192.2040  176.1670  147.9580 F   0  0  0  0  0  0  0  0  0  0  0  0
  189.3850  177.3550  145.1330 C   0  0  0  0  0  0  0  0  0  0  0  0
  189.9560  176.7420  147.4160 C   0  0  0  0  0  3  0  0  0  0  0  0
  190.7280  177.1670  144.7670 C   0  0  0  0  0  3  0  0  0  0  0  0
  188.8280  177.8880  142.8410 N   0  0  0  0  0  0  0  0  0  0  0  0
  188.4670  177.6990  144.2180 C   0  0  0  0  0  0  0  0  0  0  0  0
  186.6790  177.7690  146.0010 C   0  0  0  0  0  2  0  0  0  0  0  0
  186.1100  178.1460  143.5860 C   0  0  0  0  0  0  0  0  0  0  0  0
  186.5080  178.2930  142.3140 C   0  0  0  0  0  3  0  0  0  0  0  0
  187.7710  177.3140  146.8650 N   0  0  0  0  0  0  0  0  0  0  0  0
  188.3550  178.3410  140.5190 C   0  0  2  0  0  3  0  0  0  0  0  0
  189.0210  177.1050  140.0420 C   0  0  2  0  0  3  0  0  0  0  0  0
  189.7560  178.2470  140.4110 O   0  0  0  0  0  0  0  0  0  0  0  0
  188.9280  177.0180  138.5570 C   0  0  0  0  0  0  0  0  0  0  0  0
  189.9060  177.3750  137.8420 O   0  0  0  0  0  0  0  0  0  0  0  0
  187.7630  176.5130  137.9740 O   0  0  0  0  0  0  0  0  0  0  0  0
  187.5620  176.4910  136.5650 C   0  0  2  0  0  3  0  0  0  0  0  0
  185.3110  175.5620  135.1630 S   0  0  0  0  0  0  0  0  0  0  0  0
  187.1410  173.8830  136.7600 C   0  0  2  0  0  3  0  0  0  0  0  0
  186.6830  177.6650  136.1760 C   0  0  0  0  0  2  0  0  0  0  0  0
  186.8080  175.2430  136.1410 C   0  0  2  0  0  0  0  0  0  0  0  0
  187.7170  174.2840  135.4090 C   0  0  0  0  0  2  0  0  0  0  0  0
  185.8790  177.2740  134.9470 C   0  0  0  0  0  2  0  0  0  0  0  0
  186.0160  172.8960  136.6290 C   0  0  0  0  0  0  0  0  0  0  0  0
  183.8400  172.0580  137.3160 C   0  0  0  0  0  3  0  0  0  0  0  0
  184.9710  171.0670  135.4170 C   0  0  0  0  0  3  0  0  0  0  0  0
  183.8760  171.1140  136.2850 C   0  0  0  0  0  3  0  0  0  0  0  0
  186.0350  171.9600  135.5850 C   0  0  0  0  0  3  0  0  0  0  0  0
  184.9040  172.9520  137.4830 C   0  0  0  0  0  3  0  0  0  0  0  0
  184.7550  178.2460  143.9550 O   0  0  0  0  0  0  0  0  0  0  0  0
  182.5920  178.5180  140.9190 C   0  0  0  0  0  3  0  0  0  0  0  0
  181.4190  179.0170  141.4910 C   0  0  0  0  0  0  0  0  0  0  0  0
  182.4810  178.9850  143.6730 C   0  0  0  0  0  3  0  0  0  0  0  0
  183.7060  178.2530  141.7210 C   0  0  0  0  0  3  0  0  0  0  0  0
  183.6570  178.4780  143.1090 C   0  0  0  0  0  0  0  0  0  0  0  0
  181.3660  179.2520  142.8720 C   0  0  0  0  0  3  0  0  0  0  0  0
  179.6390  180.3800  140.7010 O   0  0  0  0  0  0  0  0  0  0  0  0
  180.2620  179.2860  140.6320 C   0  0  0  0  0  3  0  0  0  0  0  0
  1  8  2  0  0  0  0
  1  6  1  0  0  0  0
  2 12  1  0  0  0  0
  3 14  1  0  0  0  0
  3 10  2  0  0  0  0
  4 15  2  0  0  0  0
  4  8  1  0  0  0  0
  5  1  1  0  0  0  0
  7  4  1  0  0  0  0
  9  7  1  0  0  0  0
  9  5  2  0  0  0  0
 10 11  1  0  0  0  0
 11  2  1  0  0  0  0
 11  7  2  0  0  0  0
 12 15  1  0  0  0  0
 13 35  1  0  0  0  0
 13  2  1  0  0  0  0
 14 13  2  0  0  0  0
 16  3  1  1  0  0  0
 17 19  1  6  0  0  0
 17 18  1  0  0  0  0
 17 16  1  0  0  0  0
 18 16  1  0  0  0  0
 20 19  2  0  0  0  0
 21 19  1  0  0  0  0
 22 21  1  1  0  0  0
 23 26  1  0  0  0  0
 24 29  1  6  0  0  0
 25 22  1  0  0  0  0
 26 27  1  6  0  0  0
 26 22  1  0  0  0  0
 26 24  1  0  0  0  0
 27 24  1  0  0  0  0
 28 23  1  0  0  0  0
 28 25  1  0  0  0  0
 29 34  1  0  0  0  0
 30 34  2  0  0  0  0
 31 33  1  0  0  0  0
 31 32  2  0  0  0  0
 32 30  1  0  0  0  0
 33 29  2  0  0  0  0
 36 37  2  0  0  0  0
 36 39  1  0  0  0  0
 37 41  1  0  0  0  0
 39 40  2  0  0  0  0
 40 38  1  0  0  0  0
 40 35  1  0  0  0  0
 41 38  2  0  0  0  0
 43 42  2  0  0  0  0
 43 37  1  0  0  0  0
M  END
>  <MODEL>
2

>  <REMARK>
 VINA RESULT:      -8.8      2.014      5.830
  Name = 
  8 active torsions:
  status: ('A' for Active; 'I' for Inactive)
    1  A    between atoms: O_1  and  C_34
    2  A    between atoms: O_1  and  C_35
    3  A    between atoms: C_2  and  C_13
    4  A    between atoms: O_3  and  C_4
    5  A    between atoms: O_3  and  C_12
    6  A    between atoms: C_6  and  C_12
    7  A    between atoms: C_11  and  C_14
    8  A    between atoms: C_19  and  C_37
                            x       y       z     vdW  Elec       q    Type
                         _______ _______ _______ _____ _____    ______ ____

>  <TORSDO>
F 8

$$$$
=
 OpenBabel11052416173D

 43 50  0  0  1  0  0  0  0  0999 V2000
  187.9010  177.7210  148.0100 C   0  0  0  0  0  0  0  0  0  0  0  0
  188.6350  177.7000  143.0370 N   0  0  0  0  0  0  0  0  0  0  0  0
  186.1950  178.6190  142.0000 C   0  0  0  0  0  0  0  0  0  0  0  0
  188.8480  177.4570  145.7900 C   0  0  0  0  0  0  0  0  0  0  0  0
  186.6920  178.1350  147.4510 C   0  0  0  0  0  3  0  0  0  0  0  0
  188.0340  177.6430  149.3560 F   0  0  0  0  0  0  0  0  0  0  0  0
  187.6280  177.8860  145.2190 C   0  0  0  0  0  0  0  0  0  0  0  0
  188.9740  177.3840  147.1810 C   0  0  0  0  0  3  0  0  0  0  0  0
  186.5560  178.2180  146.0630 C   0  0  0  0  0  3  0  0  0  0  0  0
  186.2950  178.4630  143.2860 N   0  0  0  0  0  0  0  0  0  0  0  0
  187.5140  178.0000  143.8870 C   0  0  0  0  0  0  0  0  0  0  0  0
  189.8640  177.1240  143.5850 C   0  0  0  0  0  2  0  0  0  0  0  0
  188.5100  177.8970  141.6190 C   0  0  0  0  0  0  0  0  0  0  0  0
  187.3510  178.3480  141.1190 C   0  0  0  0  0  3  0  0  0  0  0  0
  189.8670  177.1310  145.0490 N   0  0  0  0  0  0  0  0  0  0  0  0
  184.9140  179.1250  141.4220 C   0  0  2  0  0  3  0  0  0  0  0  0
  183.9530  178.0060  141.2650 C   0  0  2  0  0  3  0  0  0  0  0  0
  184.6730  178.5240  140.1720 O   0  0  0  0  0  0  0  0  0  0  0  0
  182.5590  178.5320  141.2500 C   0  0  0  0  0  0  0  0  0  0  0  0
  181.9510  178.7400  142.3370 O   0  0  0  0  0  0  0  0  0  0  0  0
  181.9480  178.8170  140.0250 O   0  0  0  0  0  0  0  0  0  0  0  0
  181.1750  177.8550  139.3150 C   0  0  2  0  0  3  0  0  0  0  0  0
  182.0360  175.3990  138.2570 S   0  0  0  0  0  0  0  0  0  0  0  0
  182.9180  178.0600  137.3310 C   0  0  2  0  0  3  0  0  0  0  0  0
  180.7970  176.7320  140.2620 C   0  0  0  0  0  2  0  0  0  0  0  0
  181.9890  177.2140  138.2050 C   0  0  2  0  0  0  0  0  0  0  0  0
  181.5230  177.6870  136.8480 C   0  0  0  0  0  2  0  0  0  0  0  0
  180.6720  175.4490  139.4560 C   0  0  0  0  0  2  0  0  0  0  0  0
  183.9870  177.2430  136.6630 C   0  0  0  0  0  0  0  0  0  0  0  0
  184.8980  176.1480  134.6930 C   0  0  0  0  0  3  0  0  0  0  0  0
  186.1850  176.2090  136.7450 C   0  0  0  0  0  3  0  0  0  0  0  0
  186.0540  175.8170  135.4090 C   0  0  0  0  0  3  0  0  0  0  0  0
  185.1570  176.9260  137.3670 C   0  0  0  0  0  3  0  0  0  0  0  0
  183.8710  176.8650  135.3160 C   0  0  0  0  0  3  0  0  0  0  0  0
  189.6230  177.6410  140.7940 O   0  0  0  0  0  0  0  0  0  0  0  0
  189.2480  178.3950  137.1530 C   0  0  0  0  0  3  0  0  0  0  0  0
  189.6530  177.1760  136.6010 C   0  0  0  0  0  0  0  0  0  0  0  0
  190.0310  176.3030  138.8340 C   0  0  0  0  0  3  0  0  0  0  0  0
  189.2360  178.5680  138.5400 C   0  0  0  0  0  3  0  0  0  0  0  0
  189.6350  177.5240  139.3930 C   0  0  0  0  0  0  0  0  0  0  0  0
  190.0430  176.1280  137.4460 C   0  0  0  0  0  3  0  0  0  0  0  0
  190.2760  176.0640  134.5940 O   0  0  0  0  0  0  0  0  0  0  0  0
  189.6590  177.0170  135.1440 C   0  0  0  0  0  3  0  0  0  0  0  0
  1  6  1  0  0  0  0
  2 12  1  0  0  0  0
  2 11  1  0  0  0  0
  3 10  2  0  0  0  0
  4  8  1  0  0  0  0
  5  1  1  0  0  0  0
  7  4  1  0  0  0  0
  7  9  1  0  0  0  0
  8  1  2  0  0  0  0
  9  5  2  0  0  0  0
 10 11  1  0  0  0  0
 11  7  2  0  0  0  0
 12 15  1  0  0  0  0
 13  2  1  0  0  0  0
 14 13  2  0  0  0  0
 14  3  1  0  0  0  0
 15  4  2  0  0  0  0
 16  3  1  1  0  0  0
 17 19  1  6  0  0  0
 17 16  1  0  0  0  0
 18 17  1  0  0  0  0
 18 16  1  0  0  0  0
 19 20  2  0  0  0  0
 21 19  1  0  0  0  0
 22 21  1  1  0  0  0
 22 25  1  0  0  0  0
 23 28  1  0  0  0  0
 24 29  1  6  0  0  0
 24 26  1  0  0  0  0
 26 27  1  6  0  0  0
 26 23  1  0  0  0  0
 26 22  1  0  0  0  0
 27 24  1  0  0  0  0
 28 25  1  0  0  0  0
 29 33  1  0  0  0  0
 30 34  1  0  0  0  0
 30 32  2  0  0  0  0
 31 33  2  0  0  0  0
 32 31  1  0  0  0  0
 34 29  2  0  0  0  0
 35 13  1  0  0  0  0
 36 39  1  0  0  0  0
 37 36  2  0  0  0  0
 37 41  1  0  0  0  0
 38 40  1  0  0  0  0
 39 40  2  0  0  0  0
 40 35  1  0  0  0  0
 41 38  2  0  0  0  0
 42 43  2  0  0  0  0
 43 37  1  0  0  0  0
M  END
>  <MODEL>
3

>  <REMARK>
 VINA RESULT:      -8.7      1.803      2.162
  Name = 
  8 active torsions:
  status: ('A' for Active; 'I' for Inactive)
    1  A    between atoms: O_1  and  C_34
    2  A    between atoms: O_1  and  C_35
    3  A    between atoms: C_2  and  C_13
    4  A    between atoms: O_3  and  C_4
    5  A    between atoms: O_3  and  C_12
    6  A    between atoms: C_6  and  C_12
    7  A    between atoms: C_11  and  C_14
    8  A    between atoms: C_19  and  C_37
                            x       y       z     vdW  Elec       q    Type
                         _______ _______ _______ _____ _____    ______ ____

>  <TORSDO>
F 8

$$$$
=
 OpenBabel11052416173D

 43 50  0  0  1  0  0  0  0  0999 V2000
  188.2500  177.8980  148.2470 C   0  0  0  0  0  0  0  0  0  0  0  0
  188.9470  177.7370  143.2720 N   0  0  0  0  0  0  0  0  0  0  0  0
  186.3750  178.1420  142.2250 C   0  0  0  0  0  0  0  0  0  0  0  0
  189.2170  177.6880  146.0290 C   0  0  0  0  0  0  0  0  0  0  0  0
  186.9830  178.0560  147.6850 C   0  0  0  0  0  3  0  0  0  0  0  0
  188.4030  177.9200  149.5930 F   0  0  0  0  0  0  0  0  0  0  0  0
  187.9360  177.8570  145.4560 C   0  0  0  0  0  0  0  0  0  0  0  0
  189.3620  177.7150  147.4210 C   0  0  0  0  0  3  0  0  0  0  0  0
  186.8260  178.0370  146.2980 C   0  0  0  0  0  3  0  0  0  0  0  0
  186.5090  178.0770  143.5160 N   0  0  0  0  0  0  0  0  0  0  0  0
  187.7950  177.8760  144.1220 C   0  0  0  0  0  0  0  0  0  0  0  0
  190.2630  177.4230  143.8300 C   0  0  0  0  0  2  0  0  0  0  0  0
  188.7810  177.8290  141.8470 C   0  0  0  0  0  0  0  0  0  0  0  0
  187.5560  178.0360  141.3420 C   0  0  0  0  0  3  0  0  0  0  0  0
  190.2730  177.5110  145.2920 N   0  0  0  0  0  0  0  0  0  0  0  0
  185.0200  178.3750  141.6420 C   0  0  2  0  0  3  0  0  0  0  0  0
  185.1460  179.0000  140.3030 C   0  0  2  0  0  3  0  0  0  0  0  0
  184.8060  179.7530  141.4430 O   0  0  0  0  0  0  0  0  0  0  0  0
  183.9250  178.7210  139.4950 C   0  0  0  0  0  0  0  0  0  0  0  0
  182.9310  179.4980  139.5660 O   0  0  0  0  0  0  0  0  0  0  0  0
  183.9070  177.6140  138.6440 O   0  0  0  0  0  0  0  0  0  0  0  0
  183.9260  177.7390  137.2260 C   0  0  2  0  0  3  0  0  0  0  0  0
  183.8760  175.6790  135.3160 S   0  0  0  0  0  0  0  0  0  0  0  0
  186.0790  176.1950  137.2130 C   0  0  2  0  0  3  0  0  0  0  0  0
  182.5140  177.5680  136.6980 C   0  0  0  0  0  2  0  0  0  0  0  0
  184.7490  176.6330  136.5920 C   0  0  2  0  0  0  0  0  0  0  0  0
  186.0500  177.1710  136.0440 C   0  0  0  0  0  2  0  0  0  0  0  0
  182.5940  176.9670  135.3040 C   0  0  0  0  0  2  0  0  0  0  0  0
  186.4880  174.8140  136.7910 C   0  0  0  0  0  0  0  0  0  0  0  0
  187.8760  173.3290  135.4560 C   0  0  0  0  0  3  0  0  0  0  0  0
  186.3590  172.4070  137.1040 C   0  0  0  0  0  3  0  0  0  0  0  0
  187.3190  172.2220  136.1040 C   0  0  0  0  0  3  0  0  0  0  0  0
  185.9500  173.7000  137.4500 C   0  0  0  0  0  3  0  0  0  0  0  0
  187.4670  174.6220  135.8030 C   0  0  0  0  0  3  0  0  0  0  0  0
  189.9160  177.7330  141.0200 O   0  0  0  0  0  0  0  0  0  0  0  0
  189.4190  178.2410  137.3500 C   0  0  0  0  0  3  0  0  0  0  0  0
  190.0020  177.0720  136.8540 C   0  0  0  0  0  0  0  0  0  0  0  0
  190.5160  176.3780  139.1220 C   0  0  0  0  0  3  0  0  0  0  0  0
  189.3860  178.4790  138.7270 C   0  0  0  0  0  3  0  0  0  0  0  0
  189.9420  177.5510  139.6260 C   0  0  0  0  0  0  0  0  0  0  0  0
  190.5490  176.1380  137.7440 C   0  0  0  0  0  3  0  0  0  0  0  0
  189.4310  177.6200  134.6120 O   0  0  0  0  0  0  0  0  0  0  0  0
  190.0270  176.8430  135.4060 C   0  0  0  0  0  3  0  0  0  0  0  0
  1  6  1  0  0  0  0
  2 12  1  0  0  0  0
  2 11  1  0  0  0  0
  3 10  2  0  0  0  0
  4  8  1  0  0  0  0
  5  1  1  0  0  0  0
  7  4  1  0  0  0  0
  7  9  1  0  0  0  0
  8  1  2  0  0  0  0
  9  5  2  0  0  0  0
 10 11  1  0  0  0  0
 11  7  2  0  0  0  0
 12 15  1  0  0  0  0
 13  2  1  0  0  0  0
 14 13  2  0  0  0  0
 14  3  1  0  0  0  0
 15  4  2  0  0  0  0
 16  3  1  1  0  0  0
 17 19  1  6  0  0  0
 17 18  1  0  0  0  0
 17 16  1  0  0  0  0
 18 16  1  0  0  0  0
 19 20  2  0  0  0  0
 21 19  1  0  0  0  0
 22 21  1  1  0  0  0
 23 26  1  0  0  0  0
 24 29  1  6  0  0  0
 25 22  1  0  0  0  0
 26 27  1  6  0  0  0
 26 24  1  0  0  0  0
 26 22  1  0  0  0  0
 27 24  1  0  0  0  0
 28 23  1  0  0  0  0
 28 25  1  0  0  0  0
 29 33  1  0  0  0  0
 30 34  1  0  0  0  0
 30 32  2  0  0  0  0
 31 33  2  0  0  0  0
 32 31  1  0  0  0  0
 34 29  2  0  0  0  0
 35 13  1  0  0  0  0
 36 39  1  0  0  0  0
 37 36  2  0  0  0  0
 37 41  1  0  0  0  0
 38 40  1  0  0  0  0
 39 40  2  0  0  0  0
 40 35  1  0  0  0  0
 41 38  2  0  0  0  0
 42 43  2  0  0  0  0
 43 37  1  0  0  0  0
M  END
>  <MODEL>
4

>  <REMARK>
 VINA RESULT:      -8.6      2.163      3.122
  Name = 
  8 active torsions:
  status: ('A' for Active; 'I' for Inactive)
    1  A    between atoms: O_1  and  C_34
    2  A    between atoms: O_1  and  C_35
    3  A    between atoms: C_2  and  C_13
    4  A    between atoms: O_3  and  C_4
    5  A    between atoms: O_3  and  C_12
    6  A    between atoms: C_6  and  C_12
    7  A    between atoms: C_11  and  C_14
    8  A    between atoms: C_19  and  C_37
                            x       y       z     vdW  Elec       q    Type
                         _______ _______ _______ _____ _____    ______ ____

>  <TORSDO>
F 8

$$$$
=
 OpenBabel11052416173D

 43 50  0  0  1  0  0  0  0  0999 V2000
  191.6950  176.8890  139.0900 C   0  0  0  0  0  0  0  0  0  0  0  0
  186.9400  177.3190  137.5210 N   0  0  0  0  0  0  0  0  0  0  0  0
  185.6530  178.6280  139.6430 C   0  0  0  0  0  0  0  0  0  0  0  0
  189.6380  176.7560  137.8070 C   0  0  0  0  0  0  0  0  0  0  0  0
  191.0090  177.5030  140.1380 C   0  0  0  0  0  3  0  0  0  0  0  0
  193.0250  176.6510  139.1970 F   0  0  0  0  0  0  0  0  0  0  0  0
  188.9400  177.3860  138.8620 C   0  0  0  0  0  0  0  0  0  0  0  0
  191.0110  176.5180  137.9290 C   0  0  0  0  0  3  0  0  0  0  0  0
  189.6380  177.7510  140.0250 C   0  0  0  0  0  3  0  0  0  0  0  0
  186.9090  178.3230  139.7800 N   0  0  0  0  0  0  0  0  0  0  0  0
  187.6320  177.6560  138.7350 C   0  0  0  0  0  0  0  0  0  0  0  0
  187.5980  176.5450  136.4670 C   0  0  0  0  0  2  0  0  0  0  0  0
  185.5550  177.6800  137.3800 C   0  0  0  0  0  0  0  0  0  0  0  0
  184.9400  178.3180  138.3860 C   0  0  0  0  0  3  0  0  0  0  0  0
  189.0330  176.3930  136.7140 N   0  0  0  0  0  0  0  0  0  0  0  0
  184.9490  179.3420  140.7500 C   0  0  2  0  0  3  0  0  0  0  0  0
  184.3910  178.3600  141.7110 C   0  0  2  0  0  3  0  0  0  0  0  0
  183.5820  179.0030  140.7550 O   0  0  0  0  0  0  0  0  0  0  0  0
  184.2090  179.0010  143.0440 C   0  0  0  0  0  0  0  0  0  0  0  0
  183.0610  179.3790  143.4110 O   0  0  0  0  0  0  0  0  0  0  0  0
  185.3130  179.1500  143.8870 O   0  0  0  0  0  0  0  0  0  0  0  0
  185.6230  178.2140  144.9140 C   0  0  2  0  0  3  0  0  0  0  0  0
  188.0150  177.9870  146.3700 S   0  0  0  0  0  0  0  0  0  0  0  0
  187.7220  177.4750  143.4760 C   0  0  2  0  0  3  0  0  0  0  0  0
  185.4660  178.8930  146.2610 C   0  0  0  0  0  2  0  0  0  0  0  0
  187.0730  177.7740  144.8310 C   0  0  2  0  0  0  0  0  0  0  0  0
  187.1800  176.3470  144.3450 C   0  0  0  0  0  2  0  0  0  0  0  0
  186.4400  178.2520  147.2360 C   0  0  0  0  0  2  0  0  0  0  0  0
  189.2210  177.5570  143.5220 C   0  0  0  0  0  0  0  0  0  0  0  0
  191.2690  178.8590  143.6740 C   0  0  0  0  0  3  0  0  0  0  0  0
  191.3720  176.4380  143.6860 C   0  0  0  0  0  3  0  0  0  0  0  0
  192.0180  177.6780  143.7230 C   0  0  0  0  0  3  0  0  0  0  0  0
  189.9770  176.3790  143.5920 C   0  0  0  0  0  3  0  0  0  0  0  0
  189.8740  178.7990  143.5810 C   0  0  0  0  0  3  0  0  0  0  0  0
  184.8920  177.3850  136.1740 O   0  0  0  0  0  0  0  0  0  0  0  0
  181.4160  176.2000  135.4760 C   0  0  0  0  0  3  0  0  0  0  0  0
  181.5620  174.8330  135.7260 C   0  0  0  0  0  0  0  0  0  0  0  0
  183.9030  175.1900  136.2580 C   0  0  0  0  0  3  0  0  0  0  0  0
  182.5100  177.0600  135.6150 C   0  0  0  0  0  3  0  0  0  0  0  0
  183.7670  176.5600  136.0010 C   0  0  0  0  0  0  0  0  0  0  0  0
  182.8090  174.3290  136.1190 C   0  0  0  0  0  3  0  0  0  0  0  0
  179.9180  173.3320  136.5590 O   0  0  0  0  0  0  0  0  0  0  0  0
  180.4020  173.9490  135.5730 C   0  0  0  0  0  3  0  0  0  0  0  0
  1  6  1  0  0  0  0
  1  5  1  0  0  0  0
  2 11  1  0  0  0  0
  3 10  2  0  0  0  0
  4  8  1  0  0  0  0
  4  7  1  0  0  0  0
  7  9  1  0  0  0  0
  8  1  2  0  0  0  0
  9  5  2  0  0  0  0
 11  7  2  0  0  0  0
 11 10  1  0  0  0  0
 12 15  1  0  0  0  0
 12  2  1  0  0  0  0
 13  2  1  0  0  0  0
 13 14  2  0  0  0  0
 14  3  1  0  0  0  0
 15  4  2  0  0  0  0
 16  3  1  6  0  0  0
 16 18  1  0  0  0  0
 16 17  1  0  0  0  0
 17 19  1  1  0  0  0
 18 17  1  0  0  0  0
 19 20  2  0  0  0  0
 19 21  1  0  0  0  0
 22 21  1  6  0  0  0
 22 25  1  0  0  0  0
 23 28  1  0  0  0  0
 24 29  1  1  0  0  0
 24 27  1  0  0  0  0
 24 26  1  0  0  0  0
 25 28  1  0  0  0  0
 26 27  1  1  0  0  0
 26 22  1  0  0  0  0
 26 23  1  0  0  0  0
 29 34  2  0  0  0  0
 29 33  1  0  0  0  0
 30 32  2  0  0  0  0
 31 32  1  0  0  0  0
 33 31  2  0  0  0  0
 34 30  1  0  0  0  0
 35 13  1  0  0  0  0
 36 39  2  0  0  0  0
 36 37  1  0  0  0  0
 37 41  2  0  0  0  0
 39 40  1  0  0  0  0
 40 35  1  0  0  0  0
 40 38  2  0  0  0  0
 41 38  1  0  0  0  0
 43 37  1  0  0  0  0
 43 42  2  0  0  0  0
M  END
>  <MODEL>
5

>  <REMARK>
 VINA RESULT:      -8.5      3.262      7.059
  Name = 
  8 active torsions:
  status: ('A' for Active; 'I' for Inactive)
    1  A    between atoms: O_1  and  C_34
    2  A    between atoms: O_1  and  C_35
    3  A    between atoms: C_2  and  C_13
    4  A    between atoms: O_3  and  C_4
    5  A    between atoms: O_3  and  C_12
    6  A    between atoms: C_6  and  C_12
    7  A    between atoms: C_11  and  C_14
    8  A    between atoms: C_19  and  C_37
                            x       y       z     vdW  Elec       q    Type
                         _______ _______ _______ _____ _____    ______ ____

>  <TORSDO>
F 8

$$$$
=
 OpenBabel11052416173D

 43 50  0  0  1  0  0  0  0  0999 V2000
  181.0640  173.8680  136.9480 C   0  0  0  0  0  0  0  0  0  0  0  0
  184.6070  177.3090  137.8820 N   0  0  0  0  0  0  0  0  0  0  0  0
  183.7890  178.4680  140.3030 C   0  0  0  0  0  0  0  0  0  0  0  0
  183.0070  175.3180  136.8070 C   0  0  0  0  0  0  0  0  0  0  0  0
  180.6720  174.4990  138.1290 C   0  0  0  0  0  3  0  0  0  0  0  0
  180.3160  172.8610  136.4370 F   0  0  0  0  0  0  0  0  0  0  0  0
  182.6190  175.9530  138.0090 C   0  0  0  0  0  0  0  0  0  0  0  0
  182.2270  174.2770  136.2910 C   0  0  0  0  0  3  0  0  0  0  0  0
  181.4460  175.5350  138.6580 C   0  0  0  0  0  3  0  0  0  0  0  0
  183.0270  177.5610  139.7680 N   0  0  0  0  0  0  0  0  0  0  0  0
  183.3840  176.9220  138.5330 C   0  0  0  0  0  0  0  0  0  0  0  0
  184.9660  176.7700  136.5700 C   0  0  0  0  0  2  0  0  0  0  0  0
  185.4450  178.3010  138.4980 C   0  0  0  0  0  0  0  0  0  0  0  0
  185.0650  178.8480  139.6620 C   0  0  0  0  0  3  0  0  0  0  0  0
  184.0810  175.6750  136.1660 N   0  0  0  0  0  0  0  0  0  0  0  0
  183.3870  179.0880  141.6010 C   0  0  2  0  0  3  0  0  0  0  0  0
  183.9900  178.3380  142.7290 C   0  0  2  0  0  3  0  0  0  0  0  0
  182.6400  178.1720  142.3670 O   0  0  0  0  0  0  0  0  0  0  0  0
  184.0910  179.2170  143.9280 C   0  0  0  0  0  0  0  0  0  0  0  0
  183.0740  179.8400  144.3400 O   0  0  0  0  0  0  0  0  0  0  0  0
  185.3120  179.3170  144.6000 O   0  0  0  0  0  0  0  0  0  0  0  0
  185.7610  178.3280  145.5210 C   0  0  2  0  0  3  0  0  0  0  0  0
  188.3870  177.8740  146.4100 S   0  0  0  0  0  0  0  0  0  0  0  0
  187.4280  177.4770  143.6460 C   0  0  2  0  0  3  0  0  0  0  0  0
  185.9580  178.9740  146.8790 C   0  0  0  0  0  2  0  0  0  0  0  0
  187.1180  177.7820  145.1140 C   0  0  2  0  0  0  0  0  0  0  0  0
  186.9990  176.3670  144.5960 C   0  0  0  0  0  2  0  0  0  0  0  0
  187.0670  178.2310  147.6060 C   0  0  0  0  0  2  0  0  0  0  0  0
  188.9020  177.4430  143.3610 C   0  0  0  0  0  0  0  0  0  0  0  0
  191.0380  178.5760  143.1050 C   0  0  0  0  0  3  0  0  0  0  0  0
  190.9330  176.1580  143.0010 C   0  0  0  0  0  3  0  0  0  0  0  0
  191.6750  177.3410  142.9420 C   0  0  0  0  0  3  0  0  0  0  0  0
  189.5510  176.2090  143.2160 C   0  0  0  0  0  3  0  0  0  0  0  0
  189.6570  178.6270  143.3220 C   0  0  0  0  0  3  0  0  0  0  0  0
  186.6610  178.6470  137.8790 O   0  0  0  0  0  0  0  0  0  0  0  0
  189.7260  177.5200  139.6970 C   0  0  0  0  0  3  0  0  0  0  0  0
  190.5260  177.1270  138.6200 C   0  0  0  0  0  0  0  0  0  0  0  0
  188.7490  177.7430  137.0870 C   0  0  0  0  0  3  0  0  0  0  0  0
  188.4420  178.0220  139.4700 C   0  0  0  0  0  3  0  0  0  0  0  0
  187.9380  178.1310  138.1610 C   0  0  0  0  0  0  0  0  0  0  0  0
  190.0350  177.2410  137.3130 C   0  0  0  0  0  3  0  0  0  0  0  0
  192.8030  176.7540  138.0470 O   0  0  0  0  0  0  0  0  0  0  0  0
  191.8700  176.6020  138.8810 C   0  0  0  0  0  3  0  0  0  0  0  0
  1  5  1  0  0  0  0
  2 13  1  0  0  0  0
  2 11  1  0  0  0  0
  4  7  1  0  0  0  0
  5  9  2  0  0  0  0
  6  1  1  0  0  0  0
  7 11  2  0  0  0  0
  7  9  1  0  0  0  0
  8  4  1  0  0  0  0
  8  1  2  0  0  0  0
 10  3  2  0  0  0  0
 11 10  1  0  0  0  0
 12  2  1  0  0  0  0
 13 14  2  0  0  0  0
 14  3  1  0  0  0  0
 15 12  1  0  0  0  0
 15  4  2  0  0  0  0
 16  3  1  6  0  0  0
 16 18  1  0  0  0  0
 16 17  1  0  0  0  0
 17 19  1  1  0  0  0
 18 17  1  0  0  0  0
 19 20  2  0  0  0  0
 19 21  1  0  0  0  0
 22 21  1  6  0  0  0
 22 25  1  0  0  0  0
 23 28  1  0  0  0  0
 24 29  1  1  0  0  0
 24 27  1  0  0  0  0
 24 26  1  0  0  0  0
 25 28  1  0  0  0  0
 26 27  1  1  0  0  0
 26 22  1  0  0  0  0
 26 23  1  0  0  0  0
 30 34  2  0  0  0  0
 31 33  1  0  0  0  0
 32 31  2  0  0  0  0
 32 30  1  0  0  0  0
 33 29  2  0  0  0  0
 34 29  1  0  0  0  0
 35 40  1  0  0  0  0
 35 13  1  0  0  0  0
 37 43  1  0  0  0  0
 37 36  2  0  0  0  0
 38 41  2  0  0  0  0
 38 40  1  0  0  0  0
 39 36  1  0  0  0  0
 40 39  2  0  0  0  0
 41 37  1  0  0  0  0
 42 43  2  0  0  0  0
M  END
>  <MODEL>
6

>  <REMARK>
 VINA RESULT:      -8.3      4.139      8.055
  Name = 
  8 active torsions:
  status: ('A' for Active; 'I' for Inactive)
    1  A    between atoms: O_1  and  C_34
    2  A    between atoms: O_1  and  C_35
    3  A    between atoms: C_2  and  C_13
    4  A    between atoms: O_3  and  C_4
    5  A    between atoms: O_3  and  C_12
    6  A    between atoms: C_6  and  C_12
    7  A    between atoms: C_11  and  C_14
    8  A    between atoms: C_19  and  C_37
                            x       y       z     vdW  Elec       q    Type
                         _______ _______ _______ _____ _____    ______ ____

>  <TORSDO>
F 8

$$$$
=
 OpenBabel11052416173D

 43 50  0  0  1  0  0  0  0  0999 V2000
  191.4500  176.4900  147.2930 C   0  0  0  0  0  0  0  0  0  0  0  0
  187.2650  177.9900  144.9490 N   0  0  0  0  0  0  0  0  0  0  0  0
  187.8700  177.6610  142.2290 C   0  0  0  0  0  0  0  0  0  0  0  0
  189.2340  177.3440  146.7880 C   0  0  0  0  0  0  0  0  0  0  0  0
  191.7240  176.3790  145.9290 C   0  0  0  0  0  3  0  0  0  0  0  0
  192.3870  176.1330  148.2040 F   0  0  0  0  0  0  0  0  0  0  0  0
  189.5040  177.2260  145.4060 C   0  0  0  0  0  0  0  0  0  0  0  0
  190.2100  176.9700  147.7190 C   0  0  0  0  0  3  0  0  0  0  0  0
  190.7560  176.7450  144.9900 C   0  0  0  0  0  3  0  0  0  0  0  0
  188.7980  177.4000  143.1000 N   0  0  0  0  0  0  0  0  0  0  0  0
  188.5590  177.5420  144.5080 C   0  0  0  0  0  0  0  0  0  0  0  0
  186.9990  178.2540  146.3630 C   0  0  0  0  0  2  0  0  0  0  0  0
  186.2450  178.2560  143.9710 C   0  0  0  0  0  0  0  0  0  0  0  0
  186.5250  178.0880  142.6700 C   0  0  0  0  0  3  0  0  0  0  0  0
  188.0920  177.7920  147.2220 N   0  0  0  0  0  0  0  0  0  0  0  0
  188.1590  177.4770  140.7750 C   0  0  2  0  0  3  0  0  0  0  0  0
  189.5710  177.8270  140.4910 C   0  0  2  0  0  3  0  0  0  0  0  0
  188.5150  178.7070  140.1890 O   0  0  0  0  0  0  0  0  0  0  0  0
  190.0280  177.1370  139.2520 C   0  0  0  0  0  0  0  0  0  0  0  0
  190.5920  176.0100  139.3280 O   0  0  0  0  0  0  0  0  0  0  0  0
  189.7970  177.7370  138.0110 O   0  0  0  0  0  0  0  0  0  0  0  0
  189.1540  177.0550  136.9400 C   0  0  2  0  0  3  0  0  0  0  0  0
  189.3130  174.3250  136.2970 S   0  0  0  0  0  0  0  0  0  0  0  0
  191.5480  176.2490  136.1410 C   0  0  2  0  0  3  0  0  0  0  0  0
  187.9340  176.3330  137.4790 C   0  0  0  0  0  2  0  0  0  0  0  0
  190.0550  175.9820  136.3570 C   0  0  2  0  0  0  0  0  0  0  0  0
  190.5590  176.3800  134.9900 C   0  0  0  0  0  2  0  0  0  0  0  0
  187.7010  175.0920  136.6340 C   0  0  0  0  0  2  0  0  0  0  0  0
  192.3560  174.9860  136.0550 C   0  0  0  0  0  0  0  0  0  0  0  0
  193.3570  173.1940  134.7530 C   0  0  0  0  0  3  0  0  0  0  0  0
  193.7840  173.3410  137.1330 C   0  0  0  0  0  3  0  0  0  0  0  0
  193.9660  172.6930  135.9070 C   0  0  0  0  0  3  0  0  0  0  0  0
  192.9860  174.4880  137.2050 C   0  0  0  0  0  3  0  0  0  0  0  0
  192.5600  174.3420  134.8250 C   0  0  0  0  0  3  0  0  0  0  0  0
  184.9680  178.6550  144.4080 O   0  0  0  0  0  0  0  0  0  0  0  0
  182.5650  178.6270  141.5450 C   0  0  0  0  0  3  0  0  0  0  0  0
  181.3610  178.8280  142.2260 C   0  0  0  0  0  0  0  0  0  0  0  0
  182.5740  178.9030  144.3270 C   0  0  0  0  0  3  0  0  0  0  0  0
  183.7690  178.5630  142.2530 C   0  0  0  0  0  3  0  0  0  0  0  0
  183.7830  178.6930  143.6530 C   0  0  0  0  0  0  0  0  0  0  0  0
  181.3680  178.9680  143.6210 C   0  0  0  0  0  3  0  0  0  0  0  0
  179.1950  178.0420  141.6410 O   0  0  0  0  0  0  0  0  0  0  0  0
  180.1100  178.8910  141.4650 C   0  0  0  0  0  3  0  0  0  0  0  0
  1  8  2  0  0  0  0
  1  6  1  0  0  0  0
  2 12  1  0  0  0  0
  3 14  1  0  0  0  0
  3 10  2  0  0  0  0
  4 15  2  0  0  0  0
  4  8  1  0  0  0  0
  5  1  1  0  0  0  0
  7  4  1  0  0  0  0
  9  7  1  0  0  0  0
  9  5  2  0  0  0  0
 10 11  1  0  0  0  0
 11  2  1  0  0  0  0
 11  7  2  0  0  0  0
 12 15  1  0  0  0  0
 13 35  1  0  0  0  0
 13  2  1  0  0  0  0
 14 13  2  0  0  0  0
 16  3  1  1  0  0  0
 17 19  1  6  0  0  0
 17 16  1  0  0  0  0
 18 17  1  0  0  0  0
 18 16  1  0  0  0  0
 19 20  2  0  0  0  0
 21 19  1  0  0  0  0
 22 25  1  0  0  0  0
 22 21  1  1  0  0  0
 23 26  1  0  0  0  0
 23 28  1  0  0  0  0
 24 29  1  6  0  0  0
 24 26  1  0  0  0  0
 26 27  1  6  0  0  0
 26 22  1  0  0  0  0
 27 24  1  0  0  0  0
 28 25  1  0  0  0  0
 29 33  1  0  0  0  0
 30 34  1  0  0  0  0
 30 32  2  0  0  0  0
 31 33  2  0  0  0  0
 32 31  1  0  0  0  0
 34 29  2  0  0  0  0
 36 37  2  0  0  0  0
 36 39  1  0  0  0  0
 37 41  1  0  0  0  0
 39 40  2  0  0  0  0
 40 38  1  0  0  0  0
 40 35  1  0  0  0  0
 41 38  2  0  0  0  0
 43 42  2  0  0  0  0
 43 37  1  0  0  0  0
M  END
>  <MODEL>
7

>  <REMARK>
 VINA RESULT:      -8.2      2.824      7.153
  Name = 
  8 active torsions:
  status: ('A' for Active; 'I' for Inactive)
    1  A    between atoms: O_1  and  C_34
    2  A    between atoms: O_1  and  C_35
    3  A    between atoms: C_2  and  C_13
    4  A    between atoms: O_3  and  C_4
    5  A    between atoms: O_3  and  C_12
    6  A    between atoms: C_6  and  C_12
    7  A    between atoms: C_11  and  C_14
    8  A    between atoms: C_19  and  C_37
                            x       y       z     vdW  Elec       q    Type
                         _______ _______ _______ _____ _____    ______ ____

>  <TORSDO>
F 8

$$$$
=
 OpenBabel11052416173D

 43 50  0  0  1  0  0  0  0  0999 V2000
  191.3200  176.5930  146.9380 C   0  0  0  0  0  0  0  0  0  0  0  0
  187.1100  177.9410  144.5470 N   0  0  0  0  0  0  0  0  0  0  0  0
  187.9040  178.1430  141.8640 C   0  0  0  0  0  0  0  0  0  0  0  0
  189.0420  177.2440  146.4080 C   0  0  0  0  0  0  0  0  0  0  0  0
  191.6810  176.7430  145.5990 C   0  0  0  0  0  3  0  0  0  0  0  0
  192.2440  176.2060  147.8510 F   0  0  0  0  0  0  0  0  0  0  0  0
  189.4010  177.3890  145.0480 C   0  0  0  0  0  0  0  0  0  0  0  0
  190.0050  176.8420  147.3390 C   0  0  0  0  0  3  0  0  0  0  0  0
  190.7280  177.1390  144.6590 C   0  0  0  0  0  3  0  0  0  0  0  0
  188.8080  177.8560  142.7510 N   0  0  0  0  0  0  0  0  0  0  0  0
  188.4740  177.7330  144.1420 C   0  0  0  0  0  0  0  0  0  0  0  0
  186.7340  177.9340  145.9620 C   0  0  0  0  0  2  0  0  0  0  0  0
  186.1200  178.2410  143.5490 C   0  0  0  0  0  0  0  0  0  0  0  0
  186.4920  178.3250  142.2630 C   0  0  0  0  0  3  0  0  0  0  0  0
  187.8290  177.4720  146.8170 N   0  0  0  0  0  0  0  0  0  0  0  0
  188.2950  178.2390  140.4250 C   0  0  2  0  0  3  0  0  0  0  0  0
  189.1720  177.1000  140.0630 C   0  0  2  0  0  3  0  0  0  0  0  0
  189.6900  178.3860  140.3090 O   0  0  0  0  0  0  0  0  0  0  0  0
  189.1040  176.8530  138.5950 C   0  0  0  0  0  0  0  0  0  0  0  0
  190.1320  177.0110  137.8790 O   0  0  0  0  0  0  0  0  0  0  0  0
  187.9010  176.4190  138.0300 O   0  0  0  0  0  0  0  0  0  0  0  0
  187.6600  176.4520  136.6280 C   0  0  2  0  0  3  0  0  0  0  0  0
  185.2710  177.1230  135.3090 S   0  0  0  0  0  0  0  0  0  0  0  0
  185.6650  174.7550  137.0280 C   0  0  2  0  0  3  0  0  0  0  0  0
  187.7280  177.8900  136.1500 C   0  0  0  0  0  2  0  0  0  0  0  0
  186.2570  175.9670  136.3050 C   0  0  2  0  0  0  0  0  0  0  0  0
  186.2920  174.6070  135.6480 C   0  0  0  0  0  2  0  0  0  0  0  0
  186.7980  178.0420  134.9580 C   0  0  0  0  0  2  0  0  0  0  0  0
  184.1640  174.7270  136.9770 C   0  0  0  0  0  0  0  0  0  0  0  0
  182.0920  173.9910  135.9400 C   0  0  0  0  0  3  0  0  0  0  0  0
  182.0270  175.2460  138.0110 C   0  0  0  0  0  3  0  0  0  0  0  0
  181.3610  174.5910  136.9700 C   0  0  0  0  0  3  0  0  0  0  0  0
  183.4250  175.3080  138.0170 C   0  0  0  0  0  3  0  0  0  0  0  0
  183.4900  174.0520  135.9470 C   0  0  0  0  0  3  0  0  0  0  0  0
  184.7790  178.4040  143.9440 O   0  0  0  0  0  0  0  0  0  0  0  0
  181.3210  179.1260  142.7230 C   0  0  0  0  0  3  0  0  0  0  0  0
  181.4620  178.8070  141.3690 C   0  0  0  0  0  0  0  0  0  0  0  0
  183.7890  178.2370  141.7560 C   0  0  0  0  0  3  0  0  0  0  0  0
  182.4110  179.0030  143.5900 C   0  0  0  0  0  3  0  0  0  0  0  0
  183.6580  178.5630  143.1110 C   0  0  0  0  0  0  0  0  0  0  0  0
  182.6990  178.3600  140.8870 C   0  0  0  0  0  3  0  0  0  0  0  0
  180.0920  178.1150  139.5530 O   0  0  0  0  0  0  0  0  0  0  0  0
  180.3060  178.9450  140.4780 C   0  0  0  0  0  3  0  0  0  0  0  0
  1  8  2  0  0  0  0
  1  6  1  0  0  0  0
  2 12  1  0  0  0  0
  3 14  1  0  0  0  0
  3 10  2  0  0  0  0
  4 15  2  0  0  0  0
  4  8  1  0  0  0  0
  5  1  1  0  0  0  0
  7  4  1  0  0  0  0
  9  7  1  0  0  0  0
  9  5  2  0  0  0  0
 10 11  1  0  0  0  0
 11  2  1  0  0  0  0
 11  7  2  0  0  0  0
 12 15  1  0  0  0  0
 13 35  1  0  0  0  0
 13  2  1  0  0  0  0
 14 13  2  0  0  0  0
 16  3  1  1  0  0  0
 17 19  1  6  0  0  0
 17 18  1  0  0  0  0
 17 16  1  0  0  0  0
 18 16  1  0  0  0  0
 20 19  2  0  0  0  0
 21 19  1  0  0  0  0
 22 21  1  1  0  0  0
 23 26  1  0  0  0  0
 24 29  1  6  0  0  0
 25 22  1  0  0  0  0
 26 27  1  6  0  0  0
 26 22  1  0  0  0  0
 26 24  1  0  0  0  0
 27 24  1  0  0  0  0
 28 23  1  0  0  0  0
 28 25  1  0  0  0  0
 29 33  1  0  0  0  0
 30 34  1  0  0  0  0
 30 32  2  0  0  0  0
 31 33  2  0  0  0  0
 32 31  1  0  0  0  0
 34 29  2  0  0  0  0
 36 39  1  0  0  0  0
 37 36  2  0  0  0  0
 38 40  1  0  0  0  0
 40 39  2  0  0  0  0
 40 35  1  0  0  0  0
 41 37  1  0  0  0  0
 41 38  2  0  0  0  0
 42 43  2  0  0  0  0
 43 37  1  0  0  0  0
M  END
>  <MODEL>
8

>  <REMARK>
 VINA RESULT:      -8.2      1.753      5.513
  Name = 
  8 active torsions:
  status: ('A' for Active; 'I' for Inactive)
    1  A    between atoms: O_1  and  C_34
    2  A    between atoms: O_1  and  C_35
    3  A    between atoms: C_2  and  C_13
    4  A    between atoms: O_3  and  C_4
    5  A    between atoms: O_3  and  C_12
    6  A    between atoms: C_6  and  C_12
    7  A    between atoms: C_11  and  C_14
    8  A    between atoms: C_19  and  C_37
                            x       y       z     vdW  Elec       q    Type
                         _______ _______ _______ _____ _____    ______ ____

>  <TORSDO>
F 8

$$$$
=
 OpenBabel11052416173D

 43 50  0  0  1  0  0  0  0  0999 V2000
  181.5730  179.6040  139.4670 C   0  0  0  0  0  0  0  0  0  0  0  0
  185.4900  178.3600  142.3610 N   0  0  0  0  0  0  0  0  0  0  0  0
  187.6710  178.4330  140.5980 C   0  0  0  0  0  0  0  0  0  0  0  0
  182.9840  178.9370  141.3280 C   0  0  0  0  0  0  0  0  0  0  0  0
  182.6780  179.5900  138.6170 C   0  0  0  0  0  3  0  0  0  0  0  0
  180.3500  179.9310  138.9850 F   0  0  0  0  0  0  0  0  0  0  0  0
  184.1090  178.9300  140.4710 C   0  0  0  0  0  0  0  0  0  0  0  0
  181.7270  179.2790  140.8180 C   0  0  0  0  0  3  0  0  0  0  0  0
  183.9400  179.2550  139.1150 C   0  0  0  0  0  3  0  0  0  0  0  0
  186.4850  178.6630  140.1180 N   0  0  0  0  0  0  0  0  0  0  0  0
  185.3240  178.6460  140.9620 C   0  0  0  0  0  0  0  0  0  0  0  0
  184.3320  178.2240  143.2460 C   0  0  0  0  0  2  0  0  0  0  0  0
  186.8110  178.1260  142.8770 C   0  0  0  0  0  0  0  0  0  0  0  0
  187.8580  178.1730  142.0410 C   0  0  0  0  0  3  0  0  0  0  0  0
  183.0890  178.6360  142.5890 N   0  0  0  0  0  0  0  0  0  0  0  0
  188.8520  178.4840  139.6850 C   0  0  2  0  0  3  0  0  0  0  0  0
  188.9180  177.2460  138.8730 C   0  0  2  0  0  3  0  0  0  0  0  0
  189.7490  177.4430  139.9910 O   0  0  0  0  0  0  0  0  0  0  0  0
  189.6840  177.5000  137.6190 C   0  0  0  0  0  0  0  0  0  0  0  0
  189.3050  178.4020  136.8210 O   0  0  0  0  0  0  0  0  0  0  0  0
  190.8340  176.7500  137.3570 O   0  0  0  0  0  0  0  0  0  0  0  0
  190.9530  175.9070  136.2170 C   0  0  2  0  0  3  0  0  0  0  0  0
  192.2060  173.3970  136.0580 S   0  0  0  0  0  0  0  0  0  0  0  0
  193.5780  175.9610  136.5680 C   0  0  2  0  0  3  0  0  0  0  0  0
  189.9090  174.8090  136.3060 C   0  0  0  0  0  2  0  0  0  0  0  0
  192.2990  175.2060  136.1950 C   0  0  2  0  0  0  0  0  0  0  0  0
  193.1860  175.7690  135.1090 C   0  0  0  0  0  2  0  0  0  0  0  0
  190.4540  173.5740  135.6100 C   0  0  0  0  0  2  0  0  0  0  0  0
  194.6920  175.0440  136.9830 C   0  0  0  0  0  0  0  0  0  0  0  0
  196.7900  173.9100  136.5130 C   0  0  0  0  0  3  0  0  0  0  0  0
  195.8000  173.7530  138.7190 C   0  0  0  0  0  3  0  0  0  0  0  0
  196.8220  173.4220  137.8230 C   0  0  0  0  0  3  0  0  0  0  0  0
  194.7420  174.5670  138.3010 C   0  0  0  0  0  3  0  0  0  0  0  0
  195.7320  174.7250  136.0960 C   0  0  0  0  0  3  0  0  0  0  0  0
  186.9730  177.8870  144.2550 O   0  0  0  0  0  0  0  0  0  0  0  0
  190.4660  176.7530  144.9550 C   0  0  0  0  0  3  0  0  0  0  0  0
  190.4590  176.7690  146.3520 C   0  0  0  0  0  0  0  0  0  0  0  0
  188.1550  177.5290  146.3230 C   0  0  0  0  0  3  0  0  0  0  0  0
  189.3210  177.1240  144.2440 C   0  0  0  0  0  3  0  0  0  0  0  0
  188.1560  177.5230  144.9230 C   0  0  0  0  0  0  0  0  0  0  0  0
  189.2990  177.1570  147.0360 C   0  0  0  0  0  3  0  0  0  0  0  0
  192.0550  177.0120  148.0970 O   0  0  0  0  0  0  0  0  0  0  0  0
  191.6720  176.3770  147.0780 C   0  0  0  0  0  3  0  0  0  0  0  0
  1  8  2  0  0  0  0
  2 13  1  0  0  0  0
  2 12  1  0  0  0  0
  3 14  1  0  0  0  0
  4 15  2  0  0  0  0
  5  9  2  0  0  0  0
  5  1  1  0  0  0  0
  6  1  1  0  0  0  0
  7 11  2  0  0  0  0
  7  4  1  0  0  0  0
  8  4  1  0  0  0  0
  9  7  1  0  0  0  0
 10  3  2  0  0  0  0
 10 11  1  0  0  0  0
 11  2  1  0  0  0  0
 13 35  1  0  0  0  0
 14 13  2  0  0  0  0
 15 12  1  0  0  0  0
 16 18  1  0  0  0  0
 16  3  1  1  0  0  0
 17 19  1  6  0  0  0
 17 16  1  0  0  0  0
 17 18  1  0  0  0  0
 20 19  2  0  0  0  0
 21 19  1  0  0  0  0
 22 25  1  0  0  0  0
 22 21  1  1  0  0  0
 23 26  1  0  0  0  0
 24 29  1  6  0  0  0
 26 27  1  6  0  0  0
 26 22  1  0  0  0  0
 26 24  1  0  0  0  0
 27 24  1  0  0  0  0
 28 23  1  0  0  0  0
 28 25  1  0  0  0  0
 29 33  1  0  0  0  0
 30 32  2  0  0  0  0
 32 31  1  0  0  0  0
 33 31  2  0  0  0  0
 34 30  1  0  0  0  0
 34 29  2  0  0  0  0
 35 40  1  0  0  0  0
 36 37  1  0  0  0  0
 37 41  2  0  0  0  0
 37 43  1  0  0  0  0
 38 41  1  0  0  0  0
 39 40  1  0  0  0  0
 39 36  2  0  0  0  0
 40 38  2  0  0  0  0
 43 42  2  0  0  0  0
M  END
>  <MODEL>
9

>  <REMARK>
 VINA RESULT:      -8.1      4.709      9.684
  Name = 
  8 active torsions:
  status: ('A' for Active; 'I' for Inactive)
    1  A    between atoms: O_1  and  C_34
    2  A    between atoms: O_1  and  C_35
    3  A    between atoms: C_2  and  C_13
    4  A    between atoms: O_3  and  C_4
    5  A    between atoms: O_3  and  C_12
    6  A    between atoms: C_6  and  C_12
    7  A    between atoms: C_11  and  C_14
    8  A    between atoms: C_19  and  C_37
                            x       y       z     vdW  Elec       q    Type
                         _______ _______ _______ _____ _____    ______ ____

>  <TORSDO>
F 8

$$$$
