=
 OpenBabel11052412173D

 30 35  0  0  1  0  0  0  0  0999 V2000
  187.8500  177.6140  142.2030 C   0  0  0  0  0  0  0  0  0  0  0  0
  189.0240  177.3510  139.7520 C   0  0  0  0  0  0  0  0  0  0  0  0
  191.6520  178.4760  142.9390 N   0  0  0  0  0  2  0  0  0  0  0  0
  187.9700  177.5680  143.6360 C   0  0  0  0  0  0  0  0  0  0  0  0
  186.6280  178.0190  141.6360 C   0  0  0  0  0  3  0  0  0  0  0  0
  184.5790  178.6870  144.3600 N   0  0  0  0  0  0  0  0  0  0  0  0
  186.9900  176.6470  146.5680 C   0  0  0  0  0  2  0  0  0  0  0  0
  185.7220  178.3280  143.8090 N   0  0  0  0  0  0  0  0  0  0  0  0
  184.3520  178.7500  142.1060 N   0  0  0  0  0  0  0  0  0  0  0  0
  190.7580  177.7210  146.0430 O   0  0  0  0  0  0  0  0  0  0  0  0
  190.9210  179.0280  144.0500 C   0  0  0  0  0  0  0  0  0  0  0  0
  185.5840  178.3610  142.4810 C   0  0  0  0  0  0  0  0  0  0  0  0
  186.8640  177.9460  144.4400 C   0  0  0  0  0  0  0  0  0  0  0  0
  190.1980  177.3220  139.0000 C   0  0  0  0  0  3  0  0  0  0  0  0
  189.9250  177.8920  147.1540 C   0  0  0  0  0  2  0  0  0  0  0  0
  187.8300  176.7200  147.8430 C   0  0  0  0  0  2  0  0  0  0  0  0
  182.3510  179.3840  143.4690 C   0  0  0  0  0  1  0  0  0  0  0  0
  187.7510  177.3810  138.9810 C   0  0  0  0  0  1  0  0  0  0  0  0
  191.4090  177.1670  142.3530 C   0  0  2  0  0  3  0  0  0  0  0  0
  191.6600  177.2660  139.5390 C   0  0  0  0  0  2  0  0  0  0  0  0
  183.7620  178.9410  143.3130 C   0  0  0  0  0  0  0  0  0  0  0  0
  188.9930  177.3190  141.2850 C   0  0  0  0  0  0  0  0  0  0  0  0
  189.2260  177.0860  144.3070 C   0  0  0  0  0  2  0  0  0  0  0  0
  191.0970  180.2420  144.3350 O   0  0  0  0  0  0  0  0  0  0  0  0
  190.0220  178.2190  144.9620 C   0  0  1  0  0  3  0  0  0  0  0  0
  189.3100  176.5580  147.5400 C   0  0  0  0  0  2  0  0  0  0  0  0
  186.5130  179.1160  146.6120 C   0  0  0  0  0  1  0  0  0  0  0  0
  191.5320  177.2160  140.9690 N   0  0  0  0  0  0  0  0  0  0  0  0
  190.2170  177.2310  141.6870 C   0  0  0  0  0  0  0  0  0  0  0  0
  186.9370  177.9320  145.8750 N   0  0  0  0  0  0  0  0  0  0  0  0
  1  4  1  0  0  0  0
  2 22  1  0  0  0  0
  3 11  1  0  0  0  0
  4 23  1  0  0  0  0
  4 13  2  0  0  0  0
  5  1  2  0  0  0  0
  5 12  1  0  0  0  0
  7 16  1  0  0  0  0
  8  6  1  0  0  0  0
  8 13  1  0  0  0  0
  9 12  2  0  0  0  0
  9 21  1  0  0  0  0
 10 15  1  0  0  0  0
 11 24  2  0  0  0  0
 11 25  1  0  0  0  0
 12  8  1  0  0  0  0
 13 30  1  0  0  0  0
 14 20  1  0  0  0  0
 14  2  2  0  0  0  0
 15 26  1  0  0  0  0
 18  2  1  0  0  0  0
 19 29  1  6  0  0  0
 19  3  1  0  0  0  0
 20 28  1  0  0  0  0
 21 17  1  0  0  0  0
 21  6  2  0  0  0  0
 22 29  2  0  0  0  0
 22  1  1  0  0  0  0
 25 23  1  6  0  0  0
 25 10  1  0  0  0  0
 26 16  1  0  0  0  0
 28 29  1  0  0  0  0
 28 19  1  0  0  0  0
 30  7  1  0  0  0  0
 30 27  1  0  0  0  0
M  END
>  <MODEL>
1

>  <REMARK>
 VINA RESULT:      -8.6      0.000      0.000
  Name = 
  0 active torsions:
  status: ('A' for Active; 'I' for Inactive)
                            x       y       z     vdW  Elec       q    Type
                         _______ _______ _______ _____ _____    ______ ____

>  <TORSDO>
F 0

$$$$
=
 OpenBabel11052412173D

 30 35  0  0  1  0  0  0  0  0999 V2000
  187.2550  177.7460  142.6780 C   0  0  0  0  0  0  0  0  0  0  0  0
  188.8040  177.2660  144.8750 C   0  0  0  0  0  0  0  0  0  0  0  0
  185.1120  179.2950  145.6360 N   0  0  0  0  0  2  0  0  0  0  0  0
  185.9480  177.9580  142.1170 C   0  0  0  0  0  0  0  0  0  0  0  0
  188.3800  177.8580  141.8410 C   0  0  0  0  0  3  0  0  0  0  0  0
  187.0730  178.6430  138.7200 N   0  0  0  0  0  0  0  0  0  0  0  0
  183.6370  177.3950  139.9380 C   0  0  0  0  0  2  0  0  0  0  0  0
  186.9650  178.3790  140.0080 N   0  0  0  0  0  0  0  0  0  0  0  0
  189.1450  178.2960  139.5700 N   0  0  0  0  0  0  0  0  0  0  0  0
  182.6500  178.9370  143.4420 O   0  0  0  0  0  0  0  0  0  0  0  0
  184.5930  179.9050  144.4380 C   0  0  0  0  0  0  0  0  0  0  0  0
  188.1860  178.1700  140.5050 C   0  0  0  0  0  0  0  0  0  0  0  0
  185.8250  178.2880  140.7430 C   0  0  0  0  0  0  0  0  0  0  0  0
  188.9290  177.2940  146.2640 C   0  0  0  0  0  3  0  0  0  0  0  0
  182.0930  179.1580  142.1780 C   0  0  0  0  0  2  0  0  0  0  0  0
  182.1720  177.8080  140.0790 C   0  0  0  0  0  2  0  0  0  0  0  0
  188.9910  178.8310  137.1300 C   0  0  0  0  0  1  0  0  0  0  0  0
  190.0470  176.9710  144.1110 C   0  0  0  0  0  1  0  0  0  0  0  0
  185.4440  177.8860  145.7750 C   0  0  2  0  0  3  0  0  0  0  0  0
  187.7970  177.5560  147.3050 C   0  0  0  0  0  2  0  0  0  0  0  0
  188.4020  178.5920  138.4740 C   0  0  0  0  0  0  0  0  0  0  0  0
  187.4800  177.4840  144.1340 C   0  0  0  0  0  0  0  0  0  0  0  0
  184.7010  177.7930  142.9410 C   0  0  0  0  0  2  0  0  0  0  0  0
  184.5320  181.1610  144.3870 O   0  0  0  0  0  0  0  0  0  0  0  0
  184.0250  179.1290  143.2680 C   0  0  1  0  0  3  0  0  0  0  0  0
  181.7400  177.8270  141.5360 C   0  0  0  0  0  2  0  0  0  0  0  0
  184.3500  179.7330  139.3470 C   0  0  0  0  0  1  0  0  0  0  0  0
  186.6010  177.7230  146.5270 N   0  0  0  0  0  0  0  0  0  0  0  0
  186.5660  177.6540  145.0300 C   0  0  0  0  0  0  0  0  0  0  0  0
  184.5430  178.5240  140.1380 N   0  0  0  0  0  0  0  0  0  0  0  0
  1 22  1  0  0  0  0
  2 14  2  0  0  0  0
  3 19  1  0  0  0  0
  4  1  1  0  0  0  0
  4 23  1  0  0  0  0
  5  1  2  0  0  0  0
  6  8  1  0  0  0  0
  7 16  1  0  0  0  0
  7 30  1  0  0  0  0
  8 12  1  0  0  0  0
  8 13  1  0  0  0  0
  9 12  2  0  0  0  0
 11  3  1  0  0  0  0
 12  5  1  0  0  0  0
 13  4  2  0  0  0  0
 14 20  1  0  0  0  0
 15 10  1  0  0  0  0
 16 26  1  0  0  0  0
 17 21  1  0  0  0  0
 18  2  1  0  0  0  0
 19 29  1  6  0  0  0
 19 28  1  0  0  0  0
 21  6  2  0  0  0  0
 21  9  1  0  0  0  0
 22  2  1  0  0  0  0
 22 29  2  0  0  0  0
 24 11  2  0  0  0  0
 25 23  1  1  0  0  0
 25 10  1  0  0  0  0
 25 11  1  0  0  0  0
 26 15  1  0  0  0  0
 27 30  1  0  0  0  0
 28 20  1  0  0  0  0
 29 28  1  0  0  0  0
 30 13  1  0  0  0  0
M  END
>  <MODEL>
2

>  <REMARK>
 VINA RESULT:      -8.5      2.815      6.522
  Name = 
  0 active torsions:
  status: ('A' for Active; 'I' for Inactive)
                            x       y       z     vdW  Elec       q    Type
                         _______ _______ _______ _____ _____    ______ ____

>  <TORSDO>
F 0

$$$$
=
 OpenBabel11052412173D

 30 35  0  0  1  0  0  0  0  0999 V2000
  188.6690  177.6990  141.0370 C   0  0  0  0  0  0  0  0  0  0  0  0
  190.7170  177.2210  139.2950 C   0  0  0  0  0  0  0  0  0  0  0  0
  191.8930  178.4730  143.2170 N   0  0  0  0  0  2  0  0  0  0  0  0
  188.1950  177.7510  142.3940 C   0  0  0  0  0  0  0  0  0  0  0  0
  187.8100  178.1070  140.0010 C   0  0  0  0  0  3  0  0  0  0  0  0
  184.8780  179.0400  141.6130 N   0  0  0  0  0  0  0  0  0  0  0  0
  186.0570  177.0770  144.7130 C   0  0  0  0  0  2  0  0  0  0  0  0
  186.1220  178.6020  141.5960 N   0  0  0  0  0  0  0  0  0  0  0  0
  185.5890  178.9510  139.4640 N   0  0  0  0  0  0  0  0  0  0  0  0
  189.7730  177.9740  145.7190 O   0  0  0  0  0  0  0  0  0  0  0  0
  190.8100  179.1290  143.9030 C   0  0  0  0  0  0  0  0  0  0  0  0
  186.5360  178.5460  140.3270 C   0  0  0  0  0  0  0  0  0  0  0  0
  186.8840  178.2250  142.6560 C   0  0  0  0  0  0  0  0  0  0  0  0
  192.0910  177.0950  139.0900 C   0  0  0  0  0  3  0  0  0  0  0  0
  188.5740  178.2530  146.3830 C   0  0  0  0  0  2  0  0  0  0  0  0
  186.3110  177.2100  146.2140 C   0  0  0  0  0  2  0  0  0  0  0  0
  183.2500  179.7530  139.8570 C   0  0  0  0  0  1  0  0  0  0  0  0
  189.8700  177.2420  138.0710 C   0  0  0  0  0  1  0  0  0  0  0  0
  191.8280  177.1360  142.6490 C   0  0  2  0  0  3  0  0  0  0  0  0
  193.2020  177.0260  140.1810 C   0  0  0  0  0  2  0  0  0  0  0  0
  184.5730  179.2490  140.3130 C   0  0  0  0  0  0  0  0  0  0  0  0
  190.0660  177.2990  140.6810 C   0  0  0  0  0  0  0  0  0  0  0  0
  189.0390  177.2720  143.5430 C   0  0  0  0  0  2  0  0  0  0  0  0
  190.9310  180.3530  144.1740 O   0  0  0  0  0  0  0  0  0  0  0  0
  189.5710  178.4200  144.4080 C   0  0  1  0  0  3  0  0  0  0  0  0
  187.7740  176.9730  146.5500 C   0  0  0  0  0  2  0  0  0  0  0  0
  185.7570  179.5580  144.4340 C   0  0  0  0  0  1  0  0  0  0  0  0
  192.5030  177.0810  141.4350 N   0  0  0  0  0  0  0  0  0  0  0  0
  191.0140  177.1960  141.5520 C   0  0  0  0  0  0  0  0  0  0  0  0
  186.3690  178.3100  143.9950 N   0  0  0  0  0  0  0  0  0  0  0  0
  1  4  1  0  0  0  0
  2 22  1  0  0  0  0
  3 11  1  0  0  0  0
  4 13  2  0  0  0  0
  4 23  1  0  0  0  0
  5 12  1  0  0  0  0
  5  1  2  0  0  0  0
  7 16  1  0  0  0  0
  8  6  1  0  0  0  0
  8 13  1  0  0  0  0
  9 21  1  0  0  0  0
  9 12  2  0  0  0  0
 10 15  1  0  0  0  0
 11 24  2  0  0  0  0
 11 25  1  0  0  0  0
 12  8  1  0  0  0  0
 13 30  1  0  0  0  0
 14  2  2  0  0  0  0
 14 20  1  0  0  0  0
 15 26  1  0  0  0  0
 16 26  1  0  0  0  0
 17 21  1  0  0  0  0
 18  2  1  0  0  0  0
 19 29  1  6  0  0  0
 19  3  1  0  0  0  0
 20 28  1  0  0  0  0
 21  6  2  0  0  0  0
 22  1  1  0  0  0  0
 22 29  2  0  0  0  0
 25 23  1  6  0  0  0
 25 10  1  0  0  0  0
 28 29  1  0  0  0  0
 28 19  1  0  0  0  0
 30 27  1  0  0  0  0
 30  7  1  0  0  0  0
M  END
>  <MODEL>
3

>  <REMARK>
 VINA RESULT:      -7.5      1.383      1.899
  Name = 
  0 active torsions:
  status: ('A' for Active; 'I' for Inactive)
                            x       y       z     vdW  Elec       q    Type
                         _______ _______ _______ _____ _____    ______ ____

>  <TORSDO>
F 0

$$$$
=
 OpenBabel11052412173D

 30 35  0  0  1  0  0  0  0  0999 V2000
  184.4300  178.5500  141.0240 C   0  0  0  0  0  0  0  0  0  0  0  0
  186.3650  178.1520  139.1390 C   0  0  0  0  0  0  0  0  0  0  0  0
  182.4710  176.6980  138.1130 N   0  0  0  0  0  2  0  0  0  0  0  0
  183.0390  178.7330  141.3390 C   0  0  0  0  0  0  0  0  0  0  0  0
  185.3590  178.4590  142.0760 C   0  0  0  0  0  3  0  0  0  0  0  0
  183.4460  178.7650  144.9590 N   0  0  0  0  0  0  0  0  0  0  0  0
  180.6090  180.2540  142.8180 C   0  0  0  0  0  2  0  0  0  0  0  0
  183.5980  178.7000  143.6510 N   0  0  0  0  0  0  0  0  0  0  0  0
  185.6470  178.4970  144.4950 N   0  0  0  0  0  0  0  0  0  0  0  0
  179.8470  178.0570  139.6210 O   0  0  0  0  0  0  0  0  0  0  0  0
  181.6500  176.5270  139.2840 C   0  0  0  0  0  0  0  0  0  0  0  0
  184.8970  178.5470  143.3800 C   0  0  0  0  0  0  0  0  0  0  0  0
  182.6350  178.8010  142.6970 C   0  0  0  0  0  0  0  0  0  0  0  0
  186.6910  177.7400  137.8470 C   0  0  0  0  0  3  0  0  0  0  0  0
  179.0680  178.2780  140.7610 C   0  0  0  0  0  2  0  0  0  0  0  0
  179.1280  180.0920  142.4770 C   0  0  0  0  0  2  0  0  0  0  0  0
  185.0050  178.6550  146.9090 C   0  0  0  0  0  1  0  0  0  0  0  0
  187.5110  178.4060  140.0550 C   0  0  0  0  0  1  0  0  0  0  0  0
  183.1300  177.9380  137.7330 C   0  0  2  0  0  3  0  0  0  0  0  0
  185.7030  177.4260  136.6820 C   0  0  0  0  0  2  0  0  0  0  0  0
  184.6980  178.6380  145.4540 C   0  0  0  0  0  0  0  0  0  0  0  0
  184.9280  178.3790  139.6240 C   0  0  0  0  0  0  0  0  0  0  0  0
  182.0020  178.9000  140.2620 C   0  0  0  0  0  2  0  0  0  0  0  0
  181.3000  175.3600  139.6010 O   0  0  0  0  0  0  0  0  0  0  0  0
  181.1000  177.6710  140.1100 C   0  0  1  0  0  3  0  0  0  0  0  0
  178.9310  179.7710  141.0040 C   0  0  0  0  0  2  0  0  0  0  0  0
  180.6760  178.0620  144.0490 C   0  0  0  0  0  1  0  0  0  0  0  0
  184.3950  177.6870  137.2170 N   0  0  0  0  0  0  0  0  0  0  0  0
  184.1480  178.1490  138.6200 C   0  0  0  0  0  0  0  0  0  0  0  0
  181.2560  178.9680  143.0650 N   0  0  0  0  0  0  0  0  0  0  0  0
  1  4  1  0  0  0  0
  1  5  2  0  0  0  0
  2 22  1  0  0  0  0
  2 18  1  0  0  0  0
  3 11  1  0  0  0  0
  4 13  2  0  0  0  0
  5 12  1  0  0  0  0
  6 21  2  0  0  0  0
  7 30  1  0  0  0  0
  8  6  1  0  0  0  0
  9 21  1  0  0  0  0
 10 25  1  0  0  0  0
 10 15  1  0  0  0  0
 11 24  2  0  0  0  0
 11 25  1  0  0  0  0
 12  8  1  0  0  0  0
 12  9  2  0  0  0  0
 13 30  1  0  0  0  0
 13  8  1  0  0  0  0
 14  2  2  0  0  0  0
 15 26  1  0  0  0  0
 16  7  1  0  0  0  0
 19  3  1  1  0  0  0
 19 29  1  0  0  0  0
 20 28  1  0  0  0  0
 20 14  1  0  0  0  0
 21 17  1  0  0  0  0
 22  1  1  0  0  0  0
 23  4  1  0  0  0  0
 25 23  1  6  0  0  0
 26 16  1  0  0  0  0
 28 19  1  0  0  0  0
 28 29  1  0  0  0  0
 29 22  2  0  0  0  0
 30 27  1  0  0  0  0
M  END
>  <MODEL>
4

>  <REMARK>
 VINA RESULT:      -7.4      4.554      7.505
  Name = 
  0 active torsions:
  status: ('A' for Active; 'I' for Inactive)
                            x       y       z     vdW  Elec       q    Type
                         _______ _______ _______ _____ _____    ______ ____

>  <TORSDO>
F 0

$$$$
=
 OpenBabel11052412173D

 30 35  0  0  1  0  0  0  0  0999 V2000
  186.1160  178.4510  140.0100 C   0  0  0  0  0  0  0  0  0  0  0  0
  188.7600  178.0790  139.4380 C   0  0  0  0  0  0  0  0  0  0  0  0
  186.0120  176.3020  136.6770 N   0  0  0  0  0  2  0  0  0  0  0  0
  184.7590  178.5550  139.5440 C   0  0  0  0  0  0  0  0  0  0  0  0
  186.3640  178.4860  141.3940 C   0  0  0  0  0  3  0  0  0  0  0  0
  183.2220  178.8260  142.8360 N   0  0  0  0  0  0  0  0  0  0  0  0
  181.8720  179.9880  139.4190 C   0  0  0  0  0  2  0  0  0  0  0  0
  184.0350  178.6950  141.8060 N   0  0  0  0  0  0  0  0  0  0  0  0
  185.3500  178.6840  143.6010 N   0  0  0  0  0  0  0  0  0  0  0  0
  182.9490  177.5620  136.4910 O   0  0  0  0  0  0  0  0  0  0  0  0
  184.7080  176.1430  137.2660 C   0  0  0  0  0  0  0  0  0  0  0  0
  185.2890  178.6170  142.2590 C   0  0  0  0  0  0  0  0  0  0  0  0
  183.7060  178.6740  140.4870 C   0  0  0  0  0  0  0  0  0  0  0  0
  189.7220  177.6160  138.5410 C   0  0  0  0  0  3  0  0  0  0  0  0
  181.6850  177.7940  137.0400 C   0  0  0  0  0  2  0  0  0  0  0  0
  180.7900  179.7040  138.3770 C   0  0  0  0  0  2  0  0  0  0  0  0
  183.5410  178.9370  145.3120 C   0  0  0  0  0  1  0  0  0  0  0  0
  189.2540  178.4640  140.7890 C   0  0  0  0  0  1  0  0  0  0  0  0
  186.7360  177.5600  136.5880 C   0  0  2  0  0  3  0  0  0  0  0  0
  189.4940  177.1670  137.0650 C   0  0  0  0  0  2  0  0  0  0  0  0
  184.0370  178.8140  143.9150 C   0  0  0  0  0  0  0  0  0  0  0  0
  187.2750  178.2330  139.0900 C   0  0  0  0  0  0  0  0  0  0  0  0
  184.4300  178.5880  138.0780 C   0  0  0  0  0  2  0  0  0  0  0  0
  184.2770  174.9750  137.4540 O   0  0  0  0  0  0  0  0  0  0  0  0
  183.7750  177.2920  137.5870 C   0  0  1  0  0  3  0  0  0  0  0  0
  181.3980  179.2860  137.0490 C   0  0  0  0  0  2  0  0  0  0  0  0
  181.3520  177.8810  140.6900 C   0  0  0  0  0  1  0  0  0  0  0  0
  188.0930  177.3670  136.8230 N   0  0  0  0  0  0  0  0  0  0  0  0
  187.1380  177.8920  137.8520 C   0  0  0  0  0  0  0  0  0  0  0  0
  182.3330  178.7660  140.0740 N   0  0  0  0  0  0  0  0  0  0  0  0
  1  5  2  0  0  0  0
  2 18  1  0  0  0  0
  3 11  1  0  0  0  0
  4  1  1  0  0  0  0
  4 13  2  0  0  0  0
  5 12  1  0  0  0  0
  6 21  2  0  0  0  0
  7 30  1  0  0  0  0
  8 12  1  0  0  0  0
  8  6  1  0  0  0  0
  9 21  1  0  0  0  0
 10 15  1  0  0  0  0
 10 25  1  0  0  0  0
 11 24  2  0  0  0  0
 11 25  1  0  0  0  0
 12  9  2  0  0  0  0
 13  8  1  0  0  0  0
 14  2  2  0  0  0  0
 15 26  1  0  0  0  0
 16  7  1  0  0  0  0
 19  3  1  1  0  0  0
 19 28  1  0  0  0  0
 19 29  1  0  0  0  0
 20 14  1  0  0  0  0
 21 17  1  0  0  0  0
 22  2  1  0  0  0  0
 22  1  1  0  0  0  0
 23  4  1  0  0  0  0
 25 23  1  6  0  0  0
 26 16  1  0  0  0  0
 28 20  1  0  0  0  0
 28 29  1  0  0  0  0
 29 22  2  0  0  0  0
 30 13  1  0  0  0  0
 30 27  1  0  0  0  0
M  END
>  <MODEL>
5

>  <REMARK>
 VINA RESULT:      -7.3      4.318      7.132
  Name = 
  0 active torsions:
  status: ('A' for Active; 'I' for Inactive)
                            x       y       z     vdW  Elec       q    Type
                         _______ _______ _______ _____ _____    ______ ____

>  <TORSDO>
F 0

$$$$
=
 OpenBabel11052412173D

 30 35  0  0  1  0  0  0  0  0999 V2000
  185.9110  178.6430  142.3790 C   0  0  0  0  0  0  0  0  0  0  0  0
  185.0350  179.0740  144.9290 C   0  0  0  0  0  0  0  0  0  0  0  0
  188.4600  176.5300  144.5650 N   0  0  0  0  0  2  0  0  0  0  0  0
  186.9950  178.3310  141.4860 C   0  0  0  0  0  0  0  0  0  0  0  0
  184.6110  178.7620  141.8530 C   0  0  0  0  0  3  0  0  0  0  0  0
  184.9840  178.1600  138.4530 N   0  0  0  0  0  0  0  0  0  0  0  0
  188.7590  178.8320  138.8330 C   0  0  0  0  0  2  0  0  0  0  0  0
  185.4420  178.2690  139.6850 N   0  0  0  0  0  0  0  0  0  0  0  0
  183.2580  178.6690  139.8300 N   0  0  0  0  0  0  0  0  0  0  0  0
  190.3350  176.8120  141.8430 O   0  0  0  0  0  0  0  0  0  0  0  0
  188.5730  175.9930  143.2330 C   0  0  0  0  0  0  0  0  0  0  0  0
  184.4240  178.5740  140.4930 C   0  0  0  0  0  0  0  0  0  0  0  0
  186.7280  178.1380  140.1070 C   0  0  0  0  0  0  0  0  0  0  0  0
  185.2520  178.9130  146.2970 C   0  0  0  0  0  3  0  0  0  0  0  0
  190.5260  176.6600  140.4660 C   0  0  0  0  0  2  0  0  0  0  0  0
  190.1370  178.2270  138.5620 C   0  0  0  0  0  2  0  0  0  0  0  0
  182.7290  178.3850  137.4000 C   0  0  0  0  0  1  0  0  0  0  0  0
  183.7010  179.6020  144.5340 C   0  0  0  0  0  1  0  0  0  0  0  0
  188.3840  177.9460  144.8860 C   0  0  2  0  0  3  0  0  0  0  0  0
  186.5520  178.4020  146.9900 C   0  0  0  0  0  2  0  0  0  0  0  0
  183.6580  178.4030  138.5610 C   0  0  0  0  0  0  0  0  0  0  0  0
  186.0900  178.7730  143.8580 C   0  0  0  0  0  0  0  0  0  0  0  0
  188.4160  178.2500  141.9710 C   0  0  0  0  0  2  0  0  0  0  0  0
  188.4340  174.7510  143.0780 O   0  0  0  0  0  0  0  0  0  0  0  0
  188.9460  176.8130  142.0160 C   0  0  1  0  0  3  0  0  0  0  0  0
  190.9040  177.9980  139.8530 C   0  0  0  0  0  2  0  0  0  0  0  0
  187.5860  176.6780  138.2780 C   0  0  0  0  0  1  0  0  0  0  0  0
  187.4830  178.1710  145.9210 N   0  0  0  0  0  0  0  0  0  0  0  0
  187.1600  178.3950  144.4750 C   0  0  0  0  0  0  0  0  0  0  0  0
  187.7730  177.8100  139.1760 N   0  0  0  0  0  0  0  0  0  0  0  0
  1 22  1  0  0  0  0
  2 14  2  0  0  0  0
  3 19  1  0  0  0  0
  4 23  1  0  0  0  0
  4  1  1  0  0  0  0
  5  1  2  0  0  0  0
  6 21  2  0  0  0  0
  6  8  1  0  0  0  0
  7 30  1  0  0  0  0
  8 13  1  0  0  0  0
  8 12  1  0  0  0  0
  9 12  2  0  0  0  0
 10 25  1  0  0  0  0
 11  3  1  0  0  0  0
 12  5  1  0  0  0  0
 13  4  2  0  0  0  0
 14 20  1  0  0  0  0
 15 10  1  0  0  0  0
 16  7  1  0  0  0  0
 16 26  1  0  0  0  0
 17 21  1  0  0  0  0
 18  2  1  0  0  0  0
 19 29  1  6  0  0  0
 19 28  1  0  0  0  0
 21  9  1  0  0  0  0
 22 29  2  0  0  0  0
 22  2  1  0  0  0  0
 24 11  2  0  0  0  0
 25 23  1  1  0  0  0
 25 11  1  0  0  0  0
 26 15  1  0  0  0  0
 27 30  1  0  0  0  0
 28 20  1  0  0  0  0
 29 28  1  0  0  0  0
 30 13  1  0  0  0  0
M  END
>  <MODEL>
6

>  <REMARK>
 VINA RESULT:      -6.9      2.413      5.822
  Name = 
  0 active torsions:
  status: ('A' for Active; 'I' for Inactive)
                            x       y       z     vdW  Elec       q    Type
                         _______ _______ _______ _____ _____    ______ ____

>  <TORSDO>
F 0

$$$$
=
 OpenBabel11052412173D

 30 35  0  0  1  0  0  0  0  0999 V2000
  183.8600  178.8390  140.7380 C   0  0  0  0  0  0  0  0  0  0  0  0
  186.5260  178.6690  141.2990 C   0  0  0  0  0  0  0  0  0  0  0  0
  185.3110  176.9070  137.5910 N   0  0  0  0  0  2  0  0  0  0  0  0
  182.8100  178.8890  139.7560 C   0  0  0  0  0  0  0  0  0  0  0  0
  183.5140  178.8000  142.1000 C   0  0  0  0  0  3  0  0  0  0  0  0
  180.0410  178.8530  142.1230 N   0  0  0  0  0  0  0  0  0  0  0  0
  180.1200  180.1450  138.4940 C   0  0  0  0  0  2  0  0  0  0  0  0
  181.2130  178.8390  141.5180 N   0  0  0  0  0  0  0  0  0  0  0  0
  181.6720  178.7940  143.6950 N   0  0  0  0  0  0  0  0  0  0  0  0
  182.5010  177.9840  136.1960 O   0  0  0  0  0  0  0  0  0  0  0  0
  183.8970  176.6300  137.5820 C   0  0  0  0  0  0  0  0  0  0  0  0
  182.1720  178.8090  142.4470 C   0  0  0  0  0  0  0  0  0  0  0  0
  181.4570  178.8820  140.1810 C   0  0  0  0  0  0  0  0  0  0  0  0
  187.8070  178.3250  140.8660 C   0  0  0  0  0  3  0  0  0  0  0  0
  181.1070  178.1020  136.1800 C   0  0  0  0  0  2  0  0  0  0  0  0
  179.5880  179.8630  137.0890 C   0  0  0  0  0  2  0  0  0  0  0  0
  179.3060  178.8240  144.5120 C   0  0  0  0  0  1  0  0  0  0  0  0
  186.3890  178.9960  142.7450 C   0  0  0  0  0  1  0  0  0  0  0  0
  185.9000  178.2100  137.8510 C   0  0  2  0  0  3  0  0  0  0  0  0
  188.2420  177.9590  139.4140 C   0  0  0  0  0  2  0  0  0  0  0  0
  180.3390  178.8220  143.4420 C   0  0  0  0  0  0  0  0  0  0  0  0
  185.3080  178.7530  140.3730 C   0  0  0  0  0  0  0  0  0  0  0  0
  183.1100  178.9950  138.2860 C   0  0  0  0  0  2  0  0  0  0  0  0
  183.5260  175.4280  137.5370 O   0  0  0  0  0  0  0  0  0  0  0  0
  182.8230  177.6960  137.5260 C   0  0  1  0  0  3  0  0  0  0  0  0
  180.7200  179.5690  136.1180 C   0  0  0  0  0  2  0  0  0  0  0  0
  179.3010  177.9330  139.3660 C   0  0  0  0  0  1  0  0  0  0  0  0
  187.0520  178.0870  138.6200 N   0  0  0  0  0  0  0  0  0  0  0  0
  185.7190  178.4840  139.1780 C   0  0  0  0  0  0  0  0  0  0  0  0
  180.3710  178.9150  139.2410 N   0  0  0  0  0  0  0  0  0  0  0  0
  1  5  2  0  0  0  0
  2 18  1  0  0  0  0
  4 13  2  0  0  0  0
  4  1  1  0  0  0  0
  5 12  1  0  0  0  0
  6 21  2  0  0  0  0
  7 30  1  0  0  0  0
  8  6  1  0  0  0  0
  8 12  1  0  0  0  0
 10 25  1  0  0  0  0
 11  3  1  0  0  0  0
 12  9  2  0  0  0  0
 13  8  1  0  0  0  0
 14  2  2  0  0  0  0
 15 10  1  0  0  0  0
 16  7  1  0  0  0  0
 19  3  1  1  0  0  0
 19 28  1  0  0  0  0
 19 29  1  0  0  0  0
 20 14  1  0  0  0  0
 21  9  1  0  0  0  0
 21 17  1  0  0  0  0
 22  1  1  0  0  0  0
 22  2  1  0  0  0  0
 23  4  1  0  0  0  0
 24 11  2  0  0  0  0
 25 11  1  0  0  0  0
 25 23  1  6  0  0  0
 26 15  1  0  0  0  0
 26 16  1  0  0  0  0
 28 29  1  0  0  0  0
 28 20  1  0  0  0  0
 29 22  2  0  0  0  0
 30 27  1  0  0  0  0
 30 13  1  0  0  0  0
M  END
>  <MODEL>
7

>  <REMARK>
 VINA RESULT:      -6.9      4.938      8.082
  Name = 
  0 active torsions:
  status: ('A' for Active; 'I' for Inactive)
                            x       y       z     vdW  Elec       q    Type
                         _______ _______ _______ _____ _____    ______ ____

>  <TORSDO>
F 0

$$$$
=
 OpenBabel11052412173D

 30 35  0  0  1  0  0  0  0  0999 V2000
  184.0160  178.0490  140.3010 C   0  0  0  0  0  0  0  0  0  0  0  0
  184.8830  178.7370  142.7970 C   0  0  0  0  0  0  0  0  0  0  0  0
  180.8070  179.7170  141.9310 N   0  0  0  0  0  2  0  0  0  0  0  0
  182.9280  177.6850  139.4340 C   0  0  0  0  0  0  0  0  0  0  0  0
  185.2960  178.2280  139.7470 C   0  0  0  0  0  3  0  0  0  0  0  0
  184.8760  177.6070  136.3560 N   0  0  0  0  0  0  0  0  0  0  0  0
  181.5560  175.8320  137.1780 C   0  0  0  0  0  2  0  0  0  0  0  0
  184.4340  177.7260  137.5930 N   0  0  0  0  0  0  0  0  0  0  0  0
  186.6140  178.1620  137.6990 N   0  0  0  0  0  0  0  0  0  0  0  0
  179.2570  178.0000  139.5530 O   0  0  0  0  0  0  0  0  0  0  0  0
  180.5670  179.7530  140.5110 C   0  0  0  0  0  0  0  0  0  0  0  0
  185.4620  178.0480  138.3820 C   0  0  0  0  0  0  0  0  0  0  0  0
  183.1670  177.5310  138.0440 C   0  0  0  0  0  0  0  0  0  0  0  0
  184.5690  179.2210  144.0670 C   0  0  0  0  0  3  0  0  0  0  0  0
  179.0810  177.6530  138.2100 C   0  0  0  0  0  2  0  0  0  0  0  0
  180.0660  175.8160  136.8350 C   0  0  0  0  0  2  0  0  0  0  0  0
  187.1090  177.8610  135.2640 C   0  0  0  0  0  1  0  0  0  0  0  0
  186.3330  178.6050  142.4860 C   0  0  0  0  0  1  0  0  0  0  0  0
  181.3560  178.5810  142.6530 C   0  0  2  0  0  3  0  0  0  0  0  0
  183.1450  179.4400  144.6650 C   0  0  0  0  0  2  0  0  0  0  0  0
  186.1980  177.8780  136.4390 C   0  0  0  0  0  0  0  0  0  0  0  0
  183.8340  178.3190  141.7610 C   0  0  0  0  0  0  0  0  0  0  0  0
  181.5490  177.4170  139.9690 C   0  0  0  0  0  2  0  0  0  0  0  0
  180.2740  180.8580  139.9840 O   0  0  0  0  0  0  0  0  0  0  0  0
  180.5510  178.5280  139.6210 C   0  0  1  0  0  3  0  0  0  0  0  0
  179.2160  176.1480  138.0500 C   0  0  0  0  0  2  0  0  0  0  0  0
  181.9300  177.9810  135.9280 C   0  0  0  0  0  1  0  0  0  0  0  0
  182.2360  179.0030  143.6420 N   0  0  0  0  0  0  0  0  0  0  0  0
  182.6750  178.4760  142.3100 C   0  0  0  0  0  0  0  0  0  0  0  0
  182.1120  177.1820  137.1330 N   0  0  0  0  0  0  0  0  0  0  0  0
  1 22  1  0  0  0  0
  2 14  2  0  0  0  0
  4 23  1  0  0  0  0
  4  1  1  0  0  0  0
  5  1  2  0  0  0  0
  6 21  2  0  0  0  0
  6  8  1  0  0  0  0
  8 13  1  0  0  0  0
  8 12  1  0  0  0  0
  9 12  2  0  0  0  0
 10 25  1  0  0  0  0
 11  3  1  0  0  0  0
 12  5  1  0  0  0  0
 13  4  2  0  0  0  0
 14 20  1  0  0  0  0
 15 10  1  0  0  0  0
 16  7  1  0  0  0  0
 16 26  1  0  0  0  0
 17 21  1  0  0  0  0
 18  2  1  0  0  0  0
 19  3  1  6  0  0  0
 19 28  1  0  0  0  0
 21  9  1  0  0  0  0
 22 29  2  0  0  0  0
 22  2  1  0  0  0  0
 24 11  2  0  0  0  0
 25 23  1  1  0  0  0
 25 11  1  0  0  0  0
 26 15  1  0  0  0  0
 27 30  1  0  0  0  0
 28 20  1  0  0  0  0
 29 19  1  0  0  0  0
 29 28  1  0  0  0  0
 30  7  1  0  0  0  0
 30 13  1  0  0  0  0
M  END
>  <MODEL>
8

>  <REMARK>
 VINA RESULT:      -6.4      5.224      9.284
  Name = 
  0 active torsions:
  status: ('A' for Active; 'I' for Inactive)
                            x       y       z     vdW  Elec       q    Type
                         _______ _______ _______ _____ _____    ______ ____

>  <TORSDO>
F 0

$$$$
=
 OpenBabel11052412173D

 30 35  0  0  1  0  0  0  0  0999 V2000
  183.7700  177.9120  139.9270 C   0  0  0  0  0  0  0  0  0  0  0  0
  183.3150  178.8130  142.4640 C   0  0  0  0  0  0  0  0  0  0  0  0
  179.8910  178.7450  139.8930 N   0  0  0  0  0  2  0  0  0  0  0  0
  183.2660  177.2820  138.7360 C   0  0  0  0  0  0  0  0  0  0  0  0
  185.0890  178.3980  139.9310 C   0  0  0  0  0  3  0  0  0  0  0  0
  186.3030  177.6660  136.7610 N   0  0  0  0  0  0  0  0  0  0  0  0
  183.4320  175.1290  136.3390 C   0  0  0  0  0  2  0  0  0  0  0  0
  185.3620  177.6810  137.6850 N   0  0  0  0  0  0  0  0  0  0  0  0
  187.1330  178.6440  138.6280 N   0  0  0  0  0  0  0  0  0  0  0  0
  179.9250  176.6790  137.2990 O   0  0  0  0  0  0  0  0  0  0  0  0
  180.2780  178.7090  138.5070 C   0  0  0  0  0  0  0  0  0  0  0  0
  185.8560  178.2540  138.7850 C   0  0  0  0  0  0  0  0  0  0  0  0
  184.1010  177.1810  137.5940 C   0  0  0  0  0  0  0  0  0  0  0  0
  182.3910  179.2140  143.4290 C   0  0  0  0  0  3  0  0  0  0  0  0
  180.4190  176.2880  136.0500 C   0  0  0  0  0  2  0  0  0  0  0  0
  182.2750  174.7420  135.4190 C   0  0  0  0  0  2  0  0  0  0  0  0
  188.6720  178.4560  136.6630 C   0  0  0  0  0  1  0  0  0  0  0  0
  184.7480  179.0420  142.7930 C   0  0  0  0  0  1  0  0  0  0  0  0
  180.3160  177.7860  140.9000 C   0  0  2  0  0  3  0  0  0  0  0  0
  180.8390  179.0770  143.3590 C   0  0  0  0  0  2  0  0  0  0  0  0
  187.3670  178.2560  137.3490 C   0  0  0  0  0  0  0  0  0  0  0  0
  182.9280  178.1400  141.1420 C   0  0  0  0  0  0  0  0  0  0  0  0
  181.8870  176.6860  138.6830 C   0  0  0  0  0  2  0  0  0  0  0  0
  180.0010  179.7030  137.7850 O   0  0  0  0  0  0  0  0  0  0  0  0
  180.9140  177.5110  137.8330 C   0  0  1  0  0  3  0  0  0  0  0  0
  180.9380  174.8630  136.1300 C   0  0  0  0  0  2  0  0  0  0  0  0
  183.8190  177.2950  135.1200 C   0  0  0  0  0  1  0  0  0  0  0  0
  180.5740  178.4210  142.1100 N   0  0  0  0  0  0  0  0  0  0  0  0
  181.6420  178.0090  141.1440 C   0  0  0  0  0  0  0  0  0  0  0  0
  183.6410  176.5750  136.3760 N   0  0  0  0  0  0  0  0  0  0  0  0
  1  5  2  0  0  0  0
  1 22  1  0  0  0  0
  2 18  1  0  0  0  0
  2 14  2  0  0  0  0
  4  1  1  0  0  0  0
  6 21  2  0  0  0  0
  6  8  1  0  0  0  0
  7 30  1  0  0  0  0
  8 12  1  0  0  0  0
  9 12  2  0  0  0  0
 10 25  1  0  0  0  0
 11  3  1  0  0  0  0
 12  5  1  0  0  0  0
 13  8  1  0  0  0  0
 13  4  2  0  0  0  0
 15 26  1  0  0  0  0
 15 10  1  0  0  0  0
 16 26  1  0  0  0  0
 16  7  1  0  0  0  0
 17 21  1  0  0  0  0
 19  3  1  6  0  0  0
 19 29  1  0  0  0  0
 19 28  1  0  0  0  0
 20 14  1  0  0  0  0
 21  9  1  0  0  0  0
 22 29  2  0  0  0  0
 22  2  1  0  0  0  0
 23  4  1  0  0  0  0
 24 11  2  0  0  0  0
 25 11  1  0  0  0  0
 25 23  1  1  0  0  0
 27 30  1  0  0  0  0
 28 20  1  0  0  0  0
 29 28  1  0  0  0  0
 30 13  1  0  0  0  0
M  END
>  <MODEL>
9

>  <REMARK>
 VINA RESULT:      -6.4      5.730      9.819
  Name = 
  0 active torsions:
  status: ('A' for Active; 'I' for Inactive)
                            x       y       z     vdW  Elec       q    Type
                         _______ _______ _______ _____ _____    ______ ____

>  <TORSDO>
F 0

$$$$
