=
 OpenBabel11052416473D

 32 36  0  0  1  0  0  0  0  0999 V2000
  191.0390  175.3000  135.5030 C   0  0  0  0  0  2  0  0  0  0  0  0
  186.5110  177.5280  137.5090 C   0  0  0  0  0  2  0  0  0  0  0  0
  191.2250  177.0930  139.7780 C   0  0  0  0  0  3  0  0  0  0  0  0
  190.3770  176.7290  140.8180 C   0  0  0  0  0  3  0  0  0  0  0  0
  184.6310  178.0930  139.1050 C   0  0  0  0  0  0  0  0  0  0  0  0
  184.2520  178.4810  140.4630 C   0  0  0  0  0  0  0  0  0  0  0  0
  187.9930  175.8970  136.4540 C   0  0  1  0  0  3  0  0  0  0  0  0
  188.8180  178.1230  135.9510 C   0  0  0  0  0  2  0  0  0  0  0  0
  184.4350  179.0040  142.5860 C   0  0  0  0  0  0  0  0  0  0  0  0
  189.9530  176.3050  135.1290 C   0  0  0  0  0  2  0  0  0  0  0  0
  190.7430  177.8780  138.7350 C   0  0  0  0  0  3  0  0  0  0  0  0
  188.9610  179.3670  137.3220 S   0  0  0  0  0  0  0  0  0  0  0  0
  189.4060  178.2960  138.7000 C   0  0  0  0  0  0  0  0  0  0  0  0
  187.0770  178.3300  139.8880 C   0  0  0  0  0  0  0  0  0  0  0  0
  183.0390  178.8640  142.3430 N   0  0  0  0  0  0  0  0  0  0  0  0
  189.1640  173.8380  135.8660 O   0  0  0  0  0  0  0  0  0  0  0  0
  189.2060  176.7500  136.3040 N   0  0  2  0  0  0  0  0  0  0  0  0
  182.9250  178.5520  141.0860 C   0  0  0  0  0  3  0  0  0  0  0  0
  188.3630  174.4540  136.8330 C   0  0  0  0  0  2  0  0  0  0  0  0
  190.4740  174.1130  136.2750 C   0  0  1  0  0  3  0  0  0  0  0  0
  189.0500  177.1550  140.8150 C   0  0  0  0  0  3  0  0  0  0  0  0
  188.5280  177.9490  139.7750 C   0  0  0  0  0  0  0  0  0  0  0  0
  186.6060  178.6070  141.1250 C   0  0  0  0  0  3  0  0  0  0  0  0
  187.1830  176.3880  137.6100 C   0  0  0  0  0  2  0  0  0  0  0  0
  183.7660  177.6970  138.2790 O   0  0  0  0  0  0  0  0  0  0  0  0
  184.9350  179.2760  143.7080 O   0  0  0  0  0  0  0  0  0  0  0  0
  186.0760  178.2990  138.7100 C   0  0  1  0  0  3  0  0  0  0  0  0
  185.1640  178.7670  141.3630 C   0  0  0  0  0  0  0  0  0  0  0  0
  191.3600  172.8970  136.0690 C   0  0  0  0  0  2  0  0  0  0  0  0
  192.9430  173.3840  135.3100 S   0  0  0  0  0  0  0  0  0  0  0  0
  194.0040  174.4610  137.5890 C   0  0  0  0  0  1  0  0  0  0  0  0
  193.8840  173.1460  136.8480 C   0  0  0  0  0  2  0  0  0  0  0  0
  1 20  1  0  0  0  0
  2 24  1  0  0  0  0
  3  4  1  0  0  0  0
  5  6  1  0  0  0  0
  6 18  1  0  0  0  0
  6 28  2  0  0  0  0
  7 19  1  1  0  0  0
  7 24  1  0  0  0  0
  8 17  1  0  0  0  0
  8 12  1  0  0  0  0
  9 26  2  0  0  0  0
 10  1  1  0  0  0  0
 11  3  2  0  0  0  0
 12 13  1  0  0  0  0
 13 11  1  0  0  0  0
 13 22  2  0  0  0  0
 14 23  2  0  0  0  0
 15  9  1  0  0  0  0
 16 20  1  0  0  0  0
 16 19  1  0  0  0  0
 17 10  1  6  0  0  0
 17  7  1  0  0  0  0
 18 15  2  0  0  0  0
 20 29  1  6  0  0  0
 21  4  2  0  0  0  0
 22 14  1  0  0  0  0
 22 21  1  0  0  0  0
 23 28  1  0  0  0  0
 25  5  2  0  0  0  0
 27  2  1  6  0  0  0
 27  5  1  0  0  0  0
 27 14  1  0  0  0  0
 28  9  1  0  0  0  0
 30 29  1  0  0  0  0
 30 32  1  0  0  0  0
 32 31  1  0  0  0  0
M  END
>  <MODEL>
1

>  <REMARK>
 VINA RESULT:      -6.2      0.000      0.000
  Name = 
  3 active torsions:
  status: ('A' for Active; 'I' for Inactive)
    1  A    between atoms: S_1  and  C_10
    2  A    between atoms: S_1  and  C_20
    3  A    between atoms: C_10  and  C_24
                            x       y       z     vdW  Elec       q    Type
                         _______ _______ _______ _____ _____    ______ ____

>  <TORSDO>
F 3

$$$$
=
 OpenBabel11052416473D

 32 36  0  0  1  0  0  0  0  0999 V2000
  191.0510  175.4440  135.4460 C   0  0  0  0  0  2  0  0  0  0  0  0
  185.7070  175.5550  136.4090 C   0  0  0  0  0  2  0  0  0  0  0  0
  189.4290  178.7760  138.2360 C   0  0  0  0  0  3  0  0  0  0  0  0
  188.6730  178.5420  139.3790 C   0  0  0  0  0  3  0  0  0  0  0  0
  183.5050  175.6930  137.6480 C   0  0  0  0  0  0  0  0  0  0  0  0
  182.7090  176.3900  138.6560 C   0  0  0  0  0  0  0  0  0  0  0  0
  187.9830  174.6920  136.1970 C   0  0  1  0  0  3  0  0  0  0  0  0
  187.6920  176.4910  134.5950 C   0  0  0  0  0  2  0  0  0  0  0  0
  182.1610  177.8300  140.2180 C   0  0  0  0  0  0  0  0  0  0  0  0
  189.7170  175.4170  134.7040 C   0  0  0  0  0  2  0  0  0  0  0  0
  188.8540  178.6060  136.9800 C   0  0  0  0  0  3  0  0  0  0  0  0
  186.9130  178.0820  135.1510 S   0  0  0  0  0  0  0  0  0  0  0  0
  187.5260  178.1820  136.8420 C   0  0  0  0  0  0  0  0  0  0  0  0
  185.2910  177.5160  138.0250 C   0  0  0  0  0  0  0  0  0  0  0  0
  181.1010  176.8810  140.1820 N   0  0  0  0  0  0  0  0  0  0  0  0
  190.1080  173.5720  136.6260 O   0  0  0  0  0  0  0  0  0  0  0  0
  188.6210  175.8760  135.5530 N   0  0  2  0  0  0  0  0  0  0  0  0
  181.4220  176.0230  139.2590 C   0  0  0  0  0  3  0  0  0  0  0  0
  188.9250  174.0300  137.2150 C   0  0  0  0  0  2  0  0  0  0  0  0
  190.9940  174.6480  136.7460 C   0  0  1  0  0  3  0  0  0  0  0  0
  187.3420  178.1430  139.2640 C   0  0  0  0  0  3  0  0  0  0  0  0
  186.7290  177.9590  138.0080 C   0  0  0  0  0  0  0  0  0  0  0  0
  184.4980  178.0290  138.9910 C   0  0  0  0  0  3  0  0  0  0  0  0
  186.8150  175.1420  137.0130 C   0  0  0  0  0  2  0  0  0  0  0  0
  183.1420  174.5750  137.1940 O   0  0  0  0  0  0  0  0  0  0  0  0
  182.2140  178.8020  141.0160 O   0  0  0  0  0  0  0  0  0  0  0  0
  184.7080  176.4250  137.0960 C   0  0  1  0  0  3  0  0  0  0  0  0
  183.1500  177.4890  139.2250 C   0  0  0  0  0  0  0  0  0  0  0  0
  192.3840  174.1540  137.1050 C   0  0  0  0  0  2  0  0  0  0  0  0
  193.5010  175.5600  137.4130 S   0  0  0  0  0  0  0  0  0  0  0  0
  195.4430  174.2820  138.8530 C   0  0  0  0  0  1  0  0  0  0  0  0
  194.9920  174.5190  137.4260 C   0  0  0  0  0  2  0  0  0  0  0  0
  1 20  1  0  0  0  0
  2 24  1  0  0  0  0
  3  4  1  0  0  0  0
  5  6  1  0  0  0  0
  6 28  2  0  0  0  0
  6 18  1  0  0  0  0
  7 24  1  1  0  0  0
  7 19  1  0  0  0  0
  8 12  1  0  0  0  0
  9 26  2  0  0  0  0
 10  1  1  0  0  0  0
 10 17  1  0  0  0  0
 11  3  2  0  0  0  0
 12 13  1  0  0  0  0
 13 11  1  0  0  0  0
 13 22  2  0  0  0  0
 14 23  2  0  0  0  0
 15  9  1  0  0  0  0
 16 20  1  0  0  0  0
 16 19  1  0  0  0  0
 17  8  1  6  0  0  0
 17  7  1  0  0  0  0
 18 15  2  0  0  0  0
 20 29  1  6  0  0  0
 21  4  2  0  0  0  0
 22 14  1  0  0  0  0
 22 21  1  0  0  0  0
 23 28  1  0  0  0  0
 25  5  2  0  0  0  0
 27  2  1  1  0  0  0
 27  5  1  0  0  0  0
 27 14  1  0  0  0  0
 28  9  1  0  0  0  0
 29 30  1  0  0  0  0
 30 32  1  0  0  0  0
 32 31  1  0  0  0  0
M  END
>  <MODEL>
2

>  <REMARK>
 VINA RESULT:      -5.7      2.022      2.574
  Name = 
  3 active torsions:
  status: ('A' for Active; 'I' for Inactive)
    1  A    between atoms: S_1  and  C_10
    2  A    between atoms: S_1  and  C_20
    3  A    between atoms: C_10  and  C_24
                            x       y       z     vdW  Elec       q    Type
                         _______ _______ _______ _____ _____    ______ ____

>  <TORSDO>
F 3

$$$$
=
 OpenBabel11052416473D

 32 36  0  0  1  0  0  0  0  0999 V2000
  180.2900  176.3020  137.2930 C   0  0  0  0  0  2  0  0  0  0  0  0
  185.5370  177.6880  137.0990 C   0  0  0  0  0  2  0  0  0  0  0  0
  183.3990  172.9090  136.7060 C   0  0  0  0  0  3  0  0  0  0  0  0
  184.4690  172.6700  137.5610 C   0  0  0  0  0  3  0  0  0  0  0  0
  188.0270  177.6850  137.5480 C   0  0  0  0  0  0  0  0  0  0  0  0
  189.2510  176.8930  137.6570 C   0  0  0  0  0  0  0  0  0  0  0  0
  183.2290  177.5460  137.8870 C   0  0  1  0  0  3  0  0  0  0  0  0
  183.2250  177.3740  135.4670 C   0  0  0  0  0  2  0  0  0  0  0  0
  190.5870  175.1530  137.6760 C   0  0  0  0  0  0  0  0  0  0  0  0
  181.2260  177.2810  136.5900 C   0  0  0  0  0  2  0  0  0  0  0  0
  183.4280  174.0090  135.8530 C   0  0  0  0  0  3  0  0  0  0  0  0
  184.4270  176.2260  134.6390 S   0  0  0  0  0  0  0  0  0  0  0  0
  184.5110  174.8970  135.8520 C   0  0  0  0  0  0  0  0  0  0  0  0
  186.8660  175.5020  136.8160 C   0  0  0  0  0  0  0  0  0  0  0  0
  191.3690  176.2440  138.1520 N   0  0  0  0  0  0  0  0  0  0  0  0
  181.2490  177.2540  139.2830 O   0  0  0  0  0  0  0  0  0  0  0  0
  182.6230  176.8660  136.7070 N   0  0  2  0  0  0  0  0  0  0  0  0
  190.5810  177.2770  138.1440 C   0  0  0  0  0  3  0  0  0  0  0  0
  182.6270  177.0310  139.2040 C   0  0  0  0  0  2  0  0  0  0  0  0
  180.6790  176.0910  138.7520 C   0  0  1  0  0  3  0  0  0  0  0  0
  185.5670  173.5280  137.5580 C   0  0  0  0  0  3  0  0  0  0  0  0
  185.6280  174.6510  136.7100 C   0  0  0  0  0  0  0  0  0  0  0  0
  188.0390  174.8620  137.0230 C   0  0  0  0  0  3  0  0  0  0  0  0
  184.6770  177.1860  137.9760 C   0  0  0  0  0  2  0  0  0  0  0  0
  187.9890  178.8790  137.9510 O   0  0  0  0  0  0  0  0  0  0  0  0
  191.0080  173.9720  137.5730 O   0  0  0  0  0  0  0  0  0  0  0  0
  186.8580  177.0480  136.8310 C   0  0  1  0  0  3  0  0  0  0  0  0
  189.2560  175.6140  137.3610 C   0  0  0  0  0  0  0  0  0  0  0  0
  179.4560  175.6850  139.5550 C   0  0  0  0  0  2  0  0  0  0  0  0
  179.5280  173.9150  139.9770 S   0  0  0  0  0  0  0  0  0  0  0  0
  179.9050  172.3970  137.7340 C   0  0  0  0  0  1  0  0  0  0  0  0
  178.9320  173.3840  138.3440 C   0  0  0  0  0  2  0  0  0  0  0  0
  1 20  1  0  0  0  0
  2 24  1  0  0  0  0
  3  4  1  0  0  0  0
  5  6  1  0  0  0  0
  5 25  2  0  0  0  0
  6 18  1  0  0  0  0
  7 24  1  1  0  0  0
  7 19  1  0  0  0  0
  9 15  1  0  0  0  0
 10 17  1  0  0  0  0
 10  1  1  0  0  0  0
 11  3  2  0  0  0  0
 12  8  1  0  0  0  0
 12 13  1  0  0  0  0
 13 11  1  0  0  0  0
 13 22  2  0  0  0  0
 14 27  1  0  0  0  0
 14 23  2  0  0  0  0
 17  8  1  6  0  0  0
 17  7  1  0  0  0  0
 18 15  2  0  0  0  0
 19 16  1  0  0  0  0
 20 16  1  0  0  0  0
 20 29  1  1  0  0  0
 21  4  2  0  0  0  0
 22 14  1  0  0  0  0
 22 21  1  0  0  0  0
 23 28  1  0  0  0  0
 26  9  2  0  0  0  0
 27  2  1  1  0  0  0
 27  5  1  0  0  0  0
 28  6  2  0  0  0  0
 28  9  1  0  0  0  0
 29 30  1  0  0  0  0
 31 32  1  0  0  0  0
 32 30  1  0  0  0  0
M  END
>  <MODEL>
3

>  <REMARK>
 VINA RESULT:      -5.5      4.216      8.334
  Name = 
  3 active torsions:
  status: ('A' for Active; 'I' for Inactive)
    1  A    between atoms: S_1  and  C_10
    2  A    between atoms: S_1  and  C_20
    3  A    between atoms: C_10  and  C_24
                            x       y       z     vdW  Elec       q    Type
                         _______ _______ _______ _____ _____    ______ ____

>  <TORSDO>
F 3

$$$$
=
 OpenBabel11052416473D

 32 36  0  0  1  0  0  0  0  0999 V2000
  179.1810  176.7000  137.8530 C   0  0  0  0  0  2  0  0  0  0  0  0
  183.3370  178.2290  140.9960 C   0  0  0  0  0  2  0  0  0  0  0  0
  183.3240  177.2490  135.8380 C   0  0  0  0  0  3  0  0  0  0  0  0
  184.4850  176.6020  136.2450 C   0  0  0  0  0  3  0  0  0  0  0  0
  185.6410  178.3070  142.0390 C   0  0  0  0  0  0  0  0  0  0  0  0
  187.0850  178.3020  141.8180 C   0  0  0  0  0  0  0  0  0  0  0  0
  181.3940  176.9720  140.2120 C   0  0  1  0  0  3  0  0  0  0  0  0
  181.1930  179.2610  139.4320 C   0  0  0  0  0  2  0  0  0  0  0  0
  189.0120  178.2230  140.7720 C   0  0  0  0  0  0  0  0  0  0  0  0
  179.5470  177.7550  138.8930 C   0  0  0  0  0  2  0  0  0  0  0  0
  182.8030  178.2850  136.6090 C   0  0  0  0  0  3  0  0  0  0  0  0
  182.6610  180.0810  138.6440 S   0  0  0  0  0  0  0  0  0  0  0  0
  183.4170  178.6780  137.8050 C   0  0  0  0  0  0  0  0  0  0  0  0
  185.4070  178.3530  139.4710 C   0  0  0  0  0  0  0  0  0  0  0  0
  189.3240  178.1360  142.1580 N   0  0  0  0  0  0  0  0  0  0  0  0
  179.8780  175.1700  139.5720 O   0  0  0  0  0  0  0  0  0  0  0  0
  180.9940  177.8490  139.0750 N   0  0  2  0  0  0  0  0  0  0  0  0
  188.1850  178.1810  142.7830 C   0  0  0  0  0  3  0  0  0  0  0  0
  181.2080  175.4860  139.8680 C   0  0  0  0  0  2  0  0  0  0  0  0
  179.7810  175.3390  138.1860 C   0  0  1  0  0  3  0  0  0  0  0  0
  185.1250  176.9950  137.4190 C   0  0  0  0  0  3  0  0  0  0  0  0
  184.6250  178.0370  138.2240 C   0  0  0  0  0  0  0  0  0  0  0  0
  186.7540  178.2720  139.3920 C   0  0  0  0  0  3  0  0  0  0  0  0
  182.8620  177.1140  140.4540 C   0  0  0  0  0  2  0  0  0  0  0  0
  185.1600  178.1430  143.1930 O   0  0  0  0  0  0  0  0  0  0  0  0
  189.8670  178.1810  139.8490 O   0  0  0  0  0  0  0  0  0  0  0  0
  184.7650  178.6330  140.8500 C   0  0  1  0  0  3  0  0  0  0  0  0
  187.5840  178.3410  140.6040 C   0  0  0  0  0  0  0  0  0  0  0  0
  178.9310  174.2390  137.5760 C   0  0  0  0  0  2  0  0  0  0  0  0
  179.9860  172.9160  136.9030 S   0  0  0  0  0  0  0  0  0  0  0  0
  182.6460  173.3820  136.4670 C   0  0  0  0  0  1  0  0  0  0  0  0
  181.2970  174.0670  136.3880 C   0  0  0  0  0  2  0  0  0  0  0  0
  1 20  1  0  0  0  0
  1 10  1  0  0  0  0
  3  4  2  0  0  0  0
  3 11  1  0  0  0  0
  4 21  1  0  0  0  0
  5 25  2  0  0  0  0
  6  5  1  0  0  0  0
  6 18  1  0  0  0  0
  7 19  1  6  0  0  0
  7 24  1  0  0  0  0
  9 15  1  0  0  0  0
 11 13  2  0  0  0  0
 12  8  1  0  0  0  0
 13 22  1  0  0  0  0
 13 12  1  0  0  0  0
 14 27  1  0  0  0  0
 15 18  2  0  0  0  0
 16 19  1  0  0  0  0
 17 10  1  1  0  0  0
 17  8  1  0  0  0  0
 17  7  1  0  0  0  0
 20 29  1  1  0  0  0
 20 16  1  0  0  0  0
 21 22  2  0  0  0  0
 22 14  1  0  0  0  0
 23 14  2  0  0  0  0
 23 28  1  0  0  0  0
 24  2  1  0  0  0  0
 26  9  2  0  0  0  0
 27  2  1  1  0  0  0
 27  5  1  0  0  0  0
 28  9  1  0  0  0  0
 28  6  2  0  0  0  0
 30 29  1  0  0  0  0
 32 31  1  0  0  0  0
 32 30  1  0  0  0  0
M  END
>  <MODEL>
4

>  <REMARK>
 VINA RESULT:      -5.3      4.595      7.822
  Name = 
  3 active torsions:
  status: ('A' for Active; 'I' for Inactive)
    1  A    between atoms: S_1  and  C_10
    2  A    between atoms: S_1  and  C_20
    3  A    between atoms: C_10  and  C_24
                            x       y       z     vdW  Elec       q    Type
                         _______ _______ _______ _____ _____    ______ ____

>  <TORSDO>
F 3

$$$$
=
 OpenBabel11052416473D

 32 36  0  0  1  0  0  0  0  0999 V2000
  191.1790  175.6910  135.7920 C   0  0  0  0  0  2  0  0  0  0  0  0
  185.7800  175.8050  136.3560 C   0  0  0  0  0  2  0  0  0  0  0  0
  189.3800  178.8100  138.7170 C   0  0  0  0  0  3  0  0  0  0  0  0
  188.5370  178.4950  139.7770 C   0  0  0  0  0  3  0  0  0  0  0  0
  183.4910  175.8750  137.4330 C   0  0  0  0  0  0  0  0  0  0  0  0
  182.6270  176.5000  138.4320 C   0  0  0  0  0  0  0  0  0  0  0  0
  188.0570  174.9280  136.2460 C   0  0  1  0  0  3  0  0  0  0  0  0
  187.9050  176.8550  134.7800 C   0  0  0  0  0  2  0  0  0  0  0  0
  181.9740  177.8170  140.0620 C   0  0  0  0  0  0  0  0  0  0  0  0
  189.9060  175.7450  134.9520 C   0  0  0  0  0  2  0  0  0  0  0  0
  188.9010  178.7510  137.4120 C   0  0  0  0  0  3  0  0  0  0  0  0
  187.1010  178.4080  135.4050 S   0  0  0  0  0  0  0  0  0  0  0  0
  187.5840  178.3600  137.1390 C   0  0  0  0  0  0  0  0  0  0  0  0
  185.2590  177.6340  138.0920 C   0  0  0  0  0  0  0  0  0  0  0  0
  180.9110  176.8890  139.8680 N   0  0  0  0  0  0  0  0  0  0  0  0
  190.1330  173.7440  136.7390 O   0  0  0  0  0  0  0  0  0  0  0  0
  188.7520  176.1500  135.7510 N   0  0  2  0  0  0  0  0  0  0  0  0
  181.2940  176.1050  138.9040 C   0  0  0  0  0  3  0  0  0  0  0  0
  188.9130  174.1700  137.2730 C   0  0  0  0  0  2  0  0  0  0  0  0
  191.0170  174.7930  137.0140 C   0  0  1  0  0  3  0  0  0  0  0  0
  187.2150  178.1270  139.5290 C   0  0  0  0  0  3  0  0  0  0  0  0
  186.6990  178.0550  138.2200 C   0  0  0  0  0  0  0  0  0  0  0  0
  184.3990  178.0780  139.0350 C   0  0  0  0  0  3  0  0  0  0  0  0
  186.8340  175.3280  137.0060 C   0  0  0  0  0  2  0  0  0  0  0  0
  183.1530  174.8030  136.8630 O   0  0  0  0  0  0  0  0  0  0  0  0
  181.9750  178.7190  140.9390 O   0  0  0  0  0  0  0  0  0  0  0  0
  184.7390  176.6310  137.0360 C   0  0  1  0  0  3  0  0  0  0  0  0
  183.0330  177.5420  139.1210 C   0  0  0  0  0  0  0  0  0  0  0  0
  192.3710  174.2500  137.4350 C   0  0  0  0  0  2  0  0  0  0  0  0
  193.5160  174.2240  136.0190 S   0  0  0  0  0  0  0  0  0  0  0  0
  193.1170  171.5210  135.8860 C   0  0  0  0  0  1  0  0  0  0  0  0
  194.1130  172.5460  136.3870 C   0  0  0  0  0  2  0  0  0  0  0  0
  1 20  1  0  0  0  0
  2 24  1  0  0  0  0
  3  4  1  0  0  0  0
  5  6  1  0  0  0  0
  6 18  1  0  0  0  0
  6 28  2  0  0  0  0
  7 24  1  1  0  0  0
  7 19  1  0  0  0  0
  8 12  1  0  0  0  0
  9 26  2  0  0  0  0
 10 17  1  0  0  0  0
 10  1  1  0  0  0  0
 11  3  2  0  0  0  0
 12 13  1  0  0  0  0
 13 11  1  0  0  0  0
 13 22  2  0  0  0  0
 14 22  1  0  0  0  0
 14 23  2  0  0  0  0
 15  9  1  0  0  0  0
 16 20  1  0  0  0  0
 16 19  1  0  0  0  0
 17  8  1  6  0  0  0
 17  7  1  0  0  0  0
 18 15  2  0  0  0  0
 20 29  1  6  0  0  0
 21  4  2  0  0  0  0
 22 21  1  0  0  0  0
 23 28  1  0  0  0  0
 25  5  2  0  0  0  0
 27  2  1  1  0  0  0
 27  5  1  0  0  0  0
 27 14  1  0  0  0  0
 28  9  1  0  0  0  0
 30 32  1  0  0  0  0
 30 29  1  0  0  0  0
 31 32  1  0  0  0  0
M  END
>  <MODEL>
5

>  <REMARK>
 VINA RESULT:      -5.2      1.943      2.537
  Name = 
  3 active torsions:
  status: ('A' for Active; 'I' for Inactive)
    1  A    between atoms: S_1  and  C_10
    2  A    between atoms: S_1  and  C_20
    3  A    between atoms: C_10  and  C_24
                            x       y       z     vdW  Elec       q    Type
                         _______ _______ _______ _____ _____    ______ ____

>  <TORSDO>
F 3

$$$$
=
 OpenBabel11052416473D

 32 36  0  0  1  0  0  0  0  0999 V2000
  179.4530  175.5340  135.1880 C   0  0  0  0  0  2  0  0  0  0  0  0
  180.2670  177.9750  139.9700 C   0  0  0  0  0  2  0  0  0  0  0  0
  183.8100  176.6460  136.3310 C   0  0  0  0  0  3  0  0  0  0  0  0
  184.4410  176.2390  137.5010 C   0  0  0  0  0  3  0  0  0  0  0  0
  181.2510  178.5240  142.2360 C   0  0  0  0  0  0  0  0  0  0  0  0
  182.4620  178.7530  143.0220 C   0  0  0  0  0  0  0  0  0  0  0  0
  179.4690  176.3500  138.3300 C   0  0  1  0  0  3  0  0  0  0  0  0
  179.6620  178.5090  137.2400 C   0  0  0  0  0  2  0  0  0  0  0  0
  184.5890  178.9330  143.5290 C   0  0  0  0  0  0  0  0  0  0  0  0
  178.9370  176.7070  136.0170 C   0  0  0  0  0  2  0  0  0  0  0  0
  182.8240  177.6280  136.3820 C   0  0  0  0  0  3  0  0  0  0  0  0
  181.2050  179.5120  137.4840 S   0  0  0  0  0  0  0  0  0  0  0  0
  182.4390  178.2060  137.5990 C   0  0  0  0  0  0  0  0  0  0  0  0
  182.8050  178.3470  140.1850 C   0  0  0  0  0  0  0  0  0  0  0  0
  183.8910  179.0000  144.7680 N   0  0  0  0  0  0  0  0  0  0  0  0
  178.9310  174.2730  137.1680 O   0  0  0  0  0  0  0  0  0  0  0  0
  179.8700  177.0620  137.0840 N   0  0  2  0  0  0  0  0  0  0  0  0
  182.6300  178.8910  144.4730 C   0  0  0  0  0  3  0  0  0  0  0  0
  179.6830  174.8330  138.2040 C   0  0  0  0  0  2  0  0  0  0  0  0
  179.7790  174.3240  136.0560 C   0  0  1  0  0  3  0  0  0  0  0  0
  184.0900  176.8190  138.7190 C   0  0  0  0  0  3  0  0  0  0  0  0
  183.0960  177.8130  138.8080 C   0  0  0  0  0  0  0  0  0  0  0  0
  183.8540  178.4940  141.0240 C   0  0  0  0  0  3  0  0  0  0  0  0
  180.3730  176.7600  139.4470 C   0  0  0  0  0  2  0  0  0  0  0  0
  180.1340  178.3610  142.7970 O   0  0  0  0  0  0  0  0  0  0  0  0
  185.8420  178.9750  143.4180 O   0  0  0  0  0  0  0  0  0  0  0  0
  181.3820  178.6090  140.7310 C   0  0  1  0  0  3  0  0  0  0  0  0
  183.6430  178.7910  142.4490 C   0  0  0  0  0  0  0  0  0  0  0  0
  179.6540  173.0540  135.2340 C   0  0  0  0  0  2  0  0  0  0  0  0
  180.9550  171.8650  135.6950 S   0  0  0  0  0  0  0  0  0  0  0  0
  183.3170  172.6880  136.8030 C   0  0  0  0  0  1  0  0  0  0  0  0
  182.2330  173.1490  135.8500 C   0  0  0  0  0  2  0  0  0  0  0  0
  1 10  1  0  0  0  0
  1 20  1  0  0  0  0
  3 11  2  0  0  0  0
  3  4  1  0  0  0  0
  4 21  2  0  0  0  0
  5 25  2  0  0  0  0
  5  6  1  0  0  0  0
  6 18  1  0  0  0  0
  7 19  1  6  0  0  0
  7 24  1  0  0  0  0
  8 12  1  0  0  0  0
  9 15  1  0  0  0  0
 11 13  1  0  0  0  0
 12 13  1  0  0  0  0
 13 22  2  0  0  0  0
 14 27  1  0  0  0  0
 14 23  2  0  0  0  0
 16 19  1  0  0  0  0
 17 10  1  6  0  0  0
 17  8  1  0  0  0  0
 17  7  1  0  0  0  0
 18 15  2  0  0  0  0
 20 29  1  6  0  0  0
 20 16  1  0  0  0  0
 21 22  1  0  0  0  0
 22 14  1  0  0  0  0
 23 28  1  0  0  0  0
 24  2  1  0  0  0  0
 26  9  2  0  0  0  0
 27  2  1  6  0  0  0
 27  5  1  0  0  0  0
 28  6  2  0  0  0  0
 28  9  1  0  0  0  0
 29 30  1  0  0  0  0
 30 32  1  0  0  0  0
 32 31  1  0  0  0  0
M  END
>  <MODEL>
6

>  <REMARK>
 VINA RESULT:      -5.1      5.954      7.769
  Name = 
  3 active torsions:
  status: ('A' for Active; 'I' for Inactive)
    1  A    between atoms: S_1  and  C_10
    2  A    between atoms: S_1  and  C_20
    3  A    between atoms: C_10  and  C_24
                            x       y       z     vdW  Elec       q    Type
                         _______ _______ _______ _____ _____    ______ ____

>  <TORSDO>
F 3

$$$$
=
 OpenBabel11052416473D

 32 36  0  0  1  0  0  0  0  0999 V2000
  187.9510  178.4810  139.3750 C   0  0  0  0  0  2  0  0  0  0  0  0
  192.0570  175.9840  136.8480 C   0  0  0  0  0  2  0  0  0  0  0  0
  187.0590  174.4380  137.2820 C   0  0  0  0  0  3  0  0  0  0  0  0
  187.7430  173.2560  137.5380 C   0  0  0  0  0  3  0  0  0  0  0  0
  193.6520  174.1670  136.1020 C   0  0  0  0  0  0  0  0  0  0  0  0
  193.8060  172.8020  135.6020 C   0  0  0  0  0  0  0  0  0  0  0  0
  190.7960  177.1240  138.6030 C   0  0  1  0  0  3  0  0  0  0  0  0
  190.0080  177.9190  136.4500 C   0  0  0  0  0  2  0  0  0  0  0  0
  193.2820  170.7790  134.9320 C   0  0  0  0  0  0  0  0  0  0  0  0
  189.0570  178.7610  138.3620 C   0  0  0  0  0  2  0  0  0  0  0  0
  187.6790  175.4530  136.5590 C   0  0  0  0  0  3  0  0  0  0  0  0
  189.6240  176.6870  135.1150 S   0  0  0  0  0  0  0  0  0  0  0  0
  188.9940  175.3140  136.0970 C   0  0  0  0  0  0  0  0  0  0  0  0
  191.1090  173.7890  135.8940 C   0  0  0  0  0  0  0  0  0  0  0  0
  194.7020  170.7930  135.0400 N   0  0  0  0  0  0  0  0  0  0  0  0
  189.7800  177.7220  140.7390 O   0  0  0  0  0  0  0  0  0  0  0  0
  189.6020  177.5240  137.8060 N   0  0  2  0  0  0  0  0  0  0  0  0
  195.0170  171.9890  135.4390 C   0  0  0  0  0  3  0  0  0  0  0  0
  190.4060  176.6950  140.0260 C   0  0  0  0  0  2  0  0  0  0  0  0
  188.4160  177.5420  140.4820 C   0  0  1  0  0  3  0  0  0  0  0  0
  189.0430  173.0880  137.0670 C   0  0  0  0  0  3  0  0  0  0  0  0
  189.7020  174.0940  136.3340 C   0  0  0  0  0  0  0  0  0  0  0  0
  191.3750  172.5200  135.5120 C   0  0  0  0  0  3  0  0  0  0  0  0
  191.4050  175.8990  138.0010 C   0  0  0  0  0  2  0  0  0  0  0  0
  194.6450  174.8170  136.5270 O   0  0  0  0  0  0  0  0  0  0  0  0
  192.6070  169.7710  134.5970 O   0  0  0  0  0  0  0  0  0  0  0  0
  192.2820  174.7940  135.9770 C   0  0  1  0  0  3  0  0  0  0  0  0
  192.7580  172.0770  135.2830 C   0  0  0  0  0  0  0  0  0  0  0  0
  187.6020  177.7870  141.7390 C   0  0  0  0  0  2  0  0  0  0  0  0
  188.1670  176.7000  143.0870 S   0  0  0  0  0  0  0  0  0  0  0  0
  188.2240  177.4870  145.7060 C   0  0  0  0  0  1  0  0  0  0  0  0
  187.5390  177.8000  144.3910 C   0  0  0  0  0  2  0  0  0  0  0  0
  1 20  1  0  0  0  0
  2 24  1  0  0  0  0
  3  4  1  0  0  0  0
  5 25  2  0  0  0  0
  6  5  1  0  0  0  0
  7 24  1  6  0  0  0
  7 19  1  0  0  0  0
  9 15  1  0  0  0  0
  9 28  1  0  0  0  0
 10  1  1  0  0  0  0
 11  3  2  0  0  0  0
 12 13  1  0  0  0  0
 12  8  1  0  0  0  0
 13 22  2  0  0  0  0
 13 11  1  0  0  0  0
 14 27  1  0  0  0  0
 14 22  1  0  0  0  0
 15 18  2  0  0  0  0
 17  8  1  6  0  0  0
 17 10  1  0  0  0  0
 17  7  1  0  0  0  0
 18  6  1  0  0  0  0
 19 16  1  0  0  0  0
 20 16  1  0  0  0  0
 20 29  1  1  0  0  0
 21  4  2  0  0  0  0
 22 21  1  0  0  0  0
 23 14  2  0  0  0  0
 26  9  2  0  0  0  0
 27  5  1  0  0  0  0
 27  2  1  1  0  0  0
 28 23  1  0  0  0  0
 28  6  2  0  0  0  0
 29 30  1  0  0  0  0
 30 32  1  0  0  0  0
 32 31  1  0  0  0  0
M  END
>  <MODEL>
7

>  <REMARK>
 VINA RESULT:      -5.0      3.111      8.680
  Name = 
  3 active torsions:
  status: ('A' for Active; 'I' for Inactive)
    1  A    between atoms: S_1  and  C_10
    2  A    between atoms: S_1  and  C_20
    3  A    between atoms: C_10  and  C_24
                            x       y       z     vdW  Elec       q    Type
                         _______ _______ _______ _____ _____    ______ ____

>  <TORSDO>
F 3

$$$$
=
 OpenBabel11052416473D

 32 36  0  0  1  0  0  0  0  0999 V2000
  187.7720  178.6390  137.2420 C   0  0  0  0  0  2  0  0  0  0  0  0
  184.7510  174.5670  135.2980 C   0  0  0  0  0  2  0  0  0  0  0  0
  183.4820  178.1340  138.9350 C   0  0  0  0  0  3  0  0  0  0  0  0
  182.9990  176.9630  139.5080 C   0  0  0  0  0  3  0  0  0  0  0  0
  183.2110  172.5600  135.2200 C   0  0  0  0  0  0  0  0  0  0  0  0
  181.9740  171.9470  135.7000 C   0  0  0  0  0  0  0  0  0  0  0  0
  186.6590  175.7530  136.2580 C   0  0  1  0  0  3  0  0  0  0  0  0
  185.4460  177.2860  134.8210 C   0  0  0  0  0  2  0  0  0  0  0  0
  180.1040  171.6740  136.8140 C   0  0  0  0  0  0  0  0  0  0  0  0
  187.3190  178.0350  135.9150 C   0  0  0  0  0  2  0  0  0  0  0  0
  183.6620  178.2070  137.5570 C   0  0  0  0  0  3  0  0  0  0  0  0
  183.5980  177.3920  134.9650 S   0  0  0  0  0  0  0  0  0  0  0  0
  183.3820  177.1110  136.7300 C   0  0  0  0  0  0  0  0  0  0  0  0
  182.5040  174.6540  136.5510 C   0  0  0  0  0  0  0  0  0  0  0  0
  180.3660  170.4210  136.1900 N   0  0  0  0  0  0  0  0  0  0  0  0
  188.5370  176.4010  137.6750 O   0  0  0  0  0  0  0  0  0  0  0  0
  186.1690  177.1510  136.0930 N   0  0  2  0  0  0  0  0  0  0  0  0
  181.4750  170.5770  135.5300 C   0  0  0  0  0  3  0  0  0  0  0  0
  187.4130  175.5740  137.5860 C   0  0  0  0  0  2  0  0  0  0  0  0
  188.0610  177.5670  138.2860 C   0  0  1  0  0  3  0  0  0  0  0  0
  182.6910  175.8690  138.7010 C   0  0  0  0  0  3  0  0  0  0  0  0
  182.8630  175.9070  137.3030 C   0  0  0  0  0  0  0  0  0  0  0  0
  181.4310  173.9570  136.9880 C   0  0  0  0  0  3  0  0  0  0  0  0
  185.4890  174.8290  136.3700 C   0  0  0  0  0  2  0  0  0  0  0  0
  184.0710  171.8840  134.5940 O   0  0  0  0  0  0  0  0  0  0  0  0
  179.1210  171.8980  137.5680 O   0  0  0  0  0  0  0  0  0  0  0  0
  183.3540  174.0550  135.4060 C   0  0  1  0  0  3  0  0  0  0  0  0
  181.1410  172.6150  136.4640 C   0  0  0  0  0  0  0  0  0  0  0  0
  189.0720  178.0890  139.2920 C   0  0  0  0  0  2  0  0  0  0  0  0
  188.2910  178.3160  140.9220 S   0  0  0  0  0  0  0  0  0  0  0  0
  188.7970  176.7170  143.0820 C   0  0  0  0  0  1  0  0  0  0  0  0
  189.3760  177.1060  141.7370 C   0  0  0  0  0  2  0  0  0  0  0  0
  1 20  1  0  0  0  0
  2 24  1  0  0  0  0
  3  4  1  0  0  0  0
  5 27  1  0  0  0  0
  5  6  1  0  0  0  0
  6 28  2  0  0  0  0
  7 24  1  1  0  0  0
  7 19  1  0  0  0  0
  8 12  1  0  0  0  0
  9 26  2  0  0  0  0
 10 17  1  0  0  0  0
 10  1  1  0  0  0  0
 11  3  2  0  0  0  0
 12 13  1  0  0  0  0
 13 22  2  0  0  0  0
 13 11  1  0  0  0  0
 14 23  2  0  0  0  0
 14 22  1  0  0  0  0
 15  9  1  0  0  0  0
 16 20  1  0  0  0  0
 17  8  1  6  0  0  0
 17  7  1  0  0  0  0
 18  6  1  0  0  0  0
 18 15  2  0  0  0  0
 19 16  1  0  0  0  0
 20 29  1  1  0  0  0
 21  4  2  0  0  0  0
 22 21  1  0  0  0  0
 25  5  2  0  0  0  0
 27  2  1  1  0  0  0
 27 14  1  0  0  0  0
 28  9  1  0  0  0  0
 28 23  1  0  0  0  0
 29 30  1  0  0  0  0
 30 32  1  0  0  0  0
 32 31  1  0  0  0  0
M  END
>  <MODEL>
8

>  <REMARK>
 VINA RESULT:      -5.0      4.676      6.926
  Name = 
  3 active torsions:
  status: ('A' for Active; 'I' for Inactive)
    1  A    between atoms: S_1  and  C_10
    2  A    between atoms: S_1  and  C_20
    3  A    between atoms: C_10  and  C_24
                            x       y       z     vdW  Elec       q    Type
                         _______ _______ _______ _____ _____    ______ ____

>  <TORSDO>
F 3

$$$$
=
 OpenBabel11052416473D

 32 36  0  0  1  0  0  0  0  0999 V2000
  188.6350  178.7350  137.8150 C   0  0  0  0  0  2  0  0  0  0  0  0
  186.7050  174.2670  135.4070 C   0  0  0  0  0  2  0  0  0  0  0  0
  184.1260  177.7770  138.3380 C   0  0  0  0  0  3  0  0  0  0  0  0
  183.6330  176.5760  138.8370 C   0  0  0  0  0  3  0  0  0  0  0  0
  185.4670  172.0880  135.0540 C   0  0  0  0  0  0  0  0  0  0  0  0
  184.2190  171.3480  135.2270 C   0  0  0  0  0  0  0  0  0  0  0  0
  188.1440  175.7050  136.7600 C   0  0  1  0  0  3  0  0  0  0  0  0
  187.2100  177.0320  134.9560 C   0  0  0  0  0  2  0  0  0  0  0  0
  182.1570  170.8900  135.8210 C   0  0  0  0  0  0  0  0  0  0  0  0
  188.6250  178.0370  136.4570 C   0  0  0  0  0  2  0  0  0  0  0  0
  184.6640  177.8230  137.0550 C   0  0  0  0  0  3  0  0  0  0  0  0
  185.3910  176.9200  134.5980 S   0  0  0  0  0  0  0  0  0  0  0  0
  184.7370  176.6750  136.2580 C   0  0  0  0  0  0  0  0  0  0  0  0
  184.2070  174.1260  136.0110 C   0  0  0  0  0  0  0  0  0  0  0  0
  182.7100  169.6570  135.3710 N   0  0  0  0  0  0  0  0  0  0  0  0
  189.4880  176.6210  138.5790 O   0  0  0  0  0  0  0  0  0  0  0  0
  187.5710  177.0280  136.3810 N   0  0  2  0  0  0  0  0  0  0  0  0
  183.9330  169.9230  135.0200 C   0  0  0  0  0  3  0  0  0  0  0  0
  188.5250  175.6630  138.2480 C   0  0  0  0  0  2  0  0  0  0  0  0
  188.7430  177.7410  138.9650 C   0  0  1  0  0  3  0  0  0  0  0  0
  183.6740  175.4270  138.0500 C   0  0  0  0  0  3  0  0  0  0  0  0
  184.2130  175.4380  136.7490 C   0  0  0  0  0  0  0  0  0  0  0  0
  183.1360  173.3200  136.1920 C   0  0  0  0  0  3  0  0  0  0  0  0
  187.0930  174.6510  136.6170 C   0  0  0  0  0  2  0  0  0  0  0  0
  186.5300  171.4990  134.7230 O   0  0  0  0  0  0  0  0  0  0  0  0
  180.9890  171.0190  136.2710 O   0  0  0  0  0  0  0  0  0  0  0  0
  185.3940  173.5940  135.1740 C   0  0  1  0  0  3  0  0  0  0  0  0
  183.1430  171.9360  135.6980 C   0  0  0  0  0  0  0  0  0  0  0  0
  189.3820  178.4140  140.1670 C   0  0  0  0  0  2  0  0  0  0  0  0
  190.2300  177.1860  141.2100 S   0  0  0  0  0  0  0  0  0  0  0  0
  188.1730  177.0900  143.0100 C   0  0  0  0  0  1  0  0  0  0  0  0
  189.4820  177.8060  142.7470 C   0  0  0  0  0  2  0  0  0  0  0  0
  1 20  1  0  0  0  0
  2 24  1  0  0  0  0
  3  4  1  0  0  0  0
  5 27  1  0  0  0  0
  5  6  1  0  0  0  0
  6 28  2  0  0  0  0
  7 24  1  1  0  0  0
  7 19  1  0  0  0  0
  9 26  2  0  0  0  0
 10  1  1  0  0  0  0
 11  3  2  0  0  0  0
 12  8  1  0  0  0  0
 12 13  1  0  0  0  0
 13 22  2  0  0  0  0
 13 11  1  0  0  0  0
 14 23  2  0  0  0  0
 14 22  1  0  0  0  0
 15  9  1  0  0  0  0
 16 20  1  0  0  0  0
 17  8  1  6  0  0  0
 17 10  1  0  0  0  0
 17  7  1  0  0  0  0
 18  6  1  0  0  0  0
 18 15  2  0  0  0  0
 19 16  1  0  0  0  0
 20 29  1  1  0  0  0
 21  4  2  0  0  0  0
 22 21  1  0  0  0  0
 25  5  2  0  0  0  0
 27  2  1  1  0  0  0
 27 14  1  0  0  0  0
 28  9  1  0  0  0  0
 28 23  1  0  0  0  0
 29 30  1  0  0  0  0
 30 32  1  0  0  0  0
 32 31  1  0  0  0  0
M  END
>  <MODEL>
9

>  <REMARK>
 VINA RESULT:      -4.4      4.042      6.936
  Name = 
  3 active torsions:
  status: ('A' for Active; 'I' for Inactive)
    1  A    between atoms: S_1  and  C_10
    2  A    between atoms: S_1  and  C_20
    3  A    between atoms: C_10  and  C_24
                            x       y       z     vdW  Elec       q    Type
                         _______ _______ _______ _____ _____    ______ ____

>  <TORSDO>
F 3

$$$$
