=
 OpenBabel11052416213D

 43 49  0  0  1  0  0  0  0  0999 V2000
  191.0870  176.5960  146.4940 C   0  0  0  0  0  0  0  0  0  0  0  0
  189.5960  177.6400  141.7680 C   0  0  0  0  0  0  0  0  0  0  0  0
  186.9990  178.6290  142.0160 C   0  0  0  0  0  0  0  0  0  0  0  0
  190.9850  176.8700  144.0850 C   0  0  0  0  0  0  0  0  0  0  0  0
  189.7940  177.1100  146.6100 C   0  0  0  0  0  3  0  0  0  0  0  0
  191.8300  176.1710  147.7120 C   0  0  0  0  0  1  0  0  0  0  0  0
  189.6740  177.3890  144.1960 C   0  0  0  0  0  0  0  0  0  0  0  0
  191.6810  176.4780  145.2340 C   0  0  0  0  0  3  0  0  0  0  0  0
  189.0890  177.5050  145.4670 C   0  0  0  0  0  3  0  0  0  0  0  0
  187.7100  178.2690  143.1200 N   0  0  0  0  0  0  0  0  0  0  0  0
  188.9770  177.7710  143.0340 C   0  0  0  0  0  0  0  0  0  0  0  0
  190.8990  177.1280  141.6790 C   0  0  0  0  0  3  0  0  0  0  0  0
  188.8860  178.0410  140.6220 C   0  0  0  0  0  0  0  0  0  0  0  0
  187.5840  178.5320  140.7530 C   0  0  0  0  0  3  0  0  0  0  0  0
  191.5870  176.7440  142.8310 C   0  0  0  0  0  3  0  0  0  0  0  0
  185.6320  179.2270  142.1450 C   0  0  1  0  0  3  0  0  0  0  0  0
  184.7900  178.9930  140.8970 C   0  0  0  0  0  2  0  0  0  0  0  0
  184.8830  178.5520  143.2690 C   0  0  0  0  0  2  0  0  0  0  0  0
  183.7130  178.0780  141.2490 N   0  0  0  0  0  0  0  0  0  0  0  0
  183.5250  178.2520  142.6840 C   0  0  0  0  0  2  0  0  0  0  0  0
  182.5100  178.5390  140.5710 C   0  0  0  0  0  2  0  0  0  0  0  0
  181.7930  177.3650  139.8960 C   0  0  2  0  0  3  0  0  0  0  0  0
  181.0080  176.5060  137.8490 O   0  0  0  0  0  0  0  0  0  0  0  0
  182.7310  176.2750  139.4980 C   0  0  0  0  0  2  0  0  0  0  0  0
  181.0690  177.6940  138.6020 C   0  0  1  0  0  0  0  0  0  0  0  0
  179.6570  178.1450  138.9410 C   0  0  0  0  0  1  0  0  0  0  0  0
  182.0490  175.6650  138.2980 C   0  0  0  0  0  2  0  0  0  0  0  0
  181.7930  178.7810  137.7860 C   0  0  0  0  0  2  0  0  0  0  0  0
  180.9280  180.0150  137.5490 C   0  0  0  0  0  3  0  0  0  0  0  0
  180.6790  182.4710  137.9660 C   0  0  0  0  0  2  0  0  0  0  0  0
  179.9020  181.4780  135.7990 C   0  0  0  0  0  2  0  0  0  0  0  0
  180.5100  182.7100  136.4660 C   0  0  0  0  0  2  0  0  0  0  0  0
  180.7890  180.2570  136.0480 C   0  0  0  0  0  2  0  0  0  0  0  0
  181.5540  181.2400  138.2110 C   0  0  0  0  0  2  0  0  0  0  0  0
  189.4890  177.9680  139.2570 C   0  0  0  0  0  2  0  0  0  0  0  0
  189.0420  177.4130  136.0970 C   0  0  0  0  0  2  0  0  0  0  0  0
  189.6790  176.0640  135.7260 C   0  0  1  0  0  3  0  0  0  0  0  0
  190.1460  175.9870  138.1800 C   0  0  0  0  0  2  0  0  0  0  0  0
  188.2120  177.3110  137.3850 C   0  0  0  0  0  2  0  0  0  0  0  0
  188.9800  176.8100  138.5420 N   0  0  0  0  0  0  0  0  0  0  0  0
  189.8870  175.1440  136.9330 C   0  0  0  0  0  2  0  0  0  0  0  0
  188.1250  174.1590  135.0920 C   0  0  0  0  0  1  0  0  0  0  0  0
  188.9320  175.3550  134.5950 C   0  0  0  0  0  2  0  0  0  0  0  0
  1  5  1  0  0  0  0
  1  6  1  0  0  0  0
  2 11  1  0  0  0  0
  3 10  1  0  0  0  0
  4  7  2  0  0  0  0
  4  8  1  0  0  0  0
  7  9  1  0  0  0  0
  8  1  2  0  0  0  0
  9  5  2  0  0  0  0
 11 10  2  0  0  0  0
 11  7  1  0  0  0  0
 12  2  1  0  0  0  0
 12 15  2  0  0  0  0
 13 14  1  0  0  0  0
 13  2  2  0  0  0  0
 14  3  2  0  0  0  0
 15  4  1  0  0  0  0
 16  3  1  6  0  0  0
 16 18  1  0  0  0  0
 17 19  1  0  0  0  0
 17 16  1  0  0  0  0
 19 20  1  0  0  0  0
 20 18  1  0  0  0  0
 21 19  1  0  0  0  0
 22 21  1  6  0  0  0
 23 27  1  0  0  0  0
 23 25  1  0  0  0  0
 24 22  1  0  0  0  0
 25 26  1  1  0  0  0
 25 22  1  0  0  0  0
 27 24  1  0  0  0  0
 28 25  1  0  0  0  0
 29 28  1  0  0  0  0
 29 34  1  0  0  0  0
 30 34  1  0  0  0  0
 31 33  1  0  0  0  0
 31 32  1  0  0  0  0
 32 30  1  0  0  0  0
 33 29  1  0  0  0  0
 35 13  1  0  0  0  0
 36 39  1  0  0  0  0
 37 43  1  6  0  0  0
 37 36  1  0  0  0  0
 37 41  1  0  0  0  0
 38 40  1  0  0  0  0
 39 40  1  0  0  0  0
 40 35  1  0  0  0  0
 41 38  1  0  0  0  0
 43 42  1  0  0  0  0
M  END
>  <MODEL>
1

>  <REMARK>
 VINA RESULT:      -9.6      0.000      0.000
  Name = 
  8 active torsions:
  status: ('A' for Active; 'I' for Inactive)
    1  A    between atoms: C_1  and  C_34
    2  A    between atoms: C_1  and  N_35
    3  A    between atoms: C_2  and  C_13
    4  A    between atoms: C_3  and  C_4
    5  A    between atoms: C_3  and  N_12
    6  A    between atoms: C_11  and  C_14
    7  A    between atoms: C_14  and  C_22
    8  A    between atoms: C_19  and  C_37
                            x       y       z     vdW  Elec       q    Type
                         _______ _______ _______ _____ _____    ______ ____

>  <TORSDO>
F 8

$$$$
=
 OpenBabel11052416213D

 43 49  0  0  1  0  0  0  0  0999 V2000
  187.9950  177.4960  146.9920 C   0  0  0  0  0  0  0  0  0  0  0  0
  186.1180  178.4970  142.3960 C   0  0  0  0  0  0  0  0  0  0  0  0
  188.2630  178.1900  140.6400 C   0  0  0  0  0  0  0  0  0  0  0  0
  186.5340  178.0700  145.1410 C   0  0  0  0  0  0  0  0  0  0  0  0
  189.0590  177.3270  146.1040 C   0  0  0  0  0  3  0  0  0  0  0  0
  188.2040  177.2870  148.4510 C   0  0  0  0  0  1  0  0  0  0  0  0
  187.6080  177.9020  144.2370 C   0  0  0  0  0  0  0  0  0  0  0  0
  186.7350  177.8660  146.5110 C   0  0  0  0  0  3  0  0  0  0  0  0
  188.8680  177.5280  144.7320 C   0  0  0  0  0  3  0  0  0  0  0  0
  188.4250  177.9680  141.9740 N   0  0  0  0  0  0  0  0  0  0  0  0
  187.3990  178.1190  142.8620 C   0  0  0  0  0  0  0  0  0  0  0  0
  185.0630  178.6530  143.3080 C   0  0  0  0  0  3  0  0  0  0  0  0
  185.9290  178.6950  141.0160 C   0  0  0  0  0  0  0  0  0  0  0  0
  187.0090  178.5440  140.1430 C   0  0  0  0  0  3  0  0  0  0  0  0
  185.2720  178.4440  144.6720 C   0  0  0  0  0  3  0  0  0  0  0  0
  189.3920  177.9590  139.6830 C   0  0  1  0  0  3  0  0  0  0  0  0
  189.5470  176.4830  139.3350 C   0  0  0  0  0  2  0  0  0  0  0  0
  189.1020  178.6530  138.3730 C   0  0  0  0  0  2  0  0  0  0  0  0
  189.1850  176.3140  137.9340 N   0  0  0  0  0  0  0  0  0  0  0  0
  189.4180  177.6170  137.3240 C   0  0  0  0  0  2  0  0  0  0  0  0
  190.1220  175.3630  137.3540 C   0  0  0  0  0  2  0  0  0  0  0  0
  191.2600  176.1000  136.6390 C   0  0  2  0  0  3  0  0  0  0  0  0
  193.5350  176.0120  136.0350 O   0  0  0  0  0  0  0  0  0  0  0  0
  191.3060  175.8010  135.1780 C   0  0  0  0  0  2  0  0  0  0  0  0
  192.6630  175.7590  137.1120 C   0  0  1  0  0  0  0  0  0  0  0  0
  193.0180  176.6780  138.2700 C   0  0  0  0  0  1  0  0  0  0  0  0
  192.7710  175.9560  134.8490 C   0  0  0  0  0  2  0  0  0  0  0  0
  192.7930  174.2860  137.5410 C   0  0  0  0  0  2  0  0  0  0  0  0
  194.1390  173.6770  137.1590 C   0  0  0  0  0  3  0  0  0  0  0  0
  196.3610  172.8930  138.0010 C   0  0  0  0  0  2  0  0  0  0  0  0
  195.2540  171.7110  136.0880 C   0  0  0  0  0  2  0  0  0  0  0  0
  196.1480  171.5450  137.3140 C   0  0  0  0  0  2  0  0  0  0  0  0
  193.9120  172.3200  136.4980 C   0  0  0  0  0  2  0  0  0  0  0  0
  195.0170  173.5050  138.3970 C   0  0  0  0  0  2  0  0  0  0  0  0
  184.5950  179.0570  140.4480 C   0  0  0  0  0  2  0  0  0  0  0  0
  181.6410  177.7490  140.2080 C   0  0  0  0  0  2  0  0  0  0  0  0
  181.2440  177.6660  138.7250 C   0  0  1  0  0  3  0  0  0  0  0  0
  183.5500  178.5760  138.4010 C   0  0  0  0  0  2  0  0  0  0  0  0
  183.0750  177.2500  140.4380 C   0  0  0  0  0  2  0  0  0  0  0  0
  184.0830  177.9690  139.6310 N   0  0  0  0  0  0  0  0  0  0  0  0
  182.4450  177.7250  137.7760 C   0  0  0  0  0  2  0  0  0  0  0  0
  179.7310  175.8710  139.6900 C   0  0  0  0  0  1  0  0  0  0  0  0
  180.3430  176.4670  138.4260 C   0  0  0  0  0  2  0  0  0  0  0  0
  1  6  1  0  0  0  0
  2 11  1  0  0  0  0
  2 12  1  0  0  0  0
  3 10  1  0  0  0  0
  4  8  2  0  0  0  0
  5  1  2  0  0  0  0
  7  9  2  0  0  0  0
  7  4  1  0  0  0  0
  8  1  1  0  0  0  0
  9  5  1  0  0  0  0
 10 11  2  0  0  0  0
 11  7  1  0  0  0  0
 12 15  2  0  0  0  0
 13  2  2  0  0  0  0
 14  3  2  0  0  0  0
 14 13  1  0  0  0  0
 15  4  1  0  0  0  0
 16  3  1  1  0  0  0
 17 16  1  0  0  0  0
 18 16  1  0  0  0  0
 19 17  1  0  0  0  0
 20 19  1  0  0  0  0
 20 18  1  0  0  0  0
 21 19  1  0  0  0  0
 22 25  1  0  0  0  0
 22 21  1  1  0  0  0
 23 25  1  0  0  0  0
 24 22  1  0  0  0  0
 25 28  1  0  0  0  0
 25 26  1  1  0  0  0
 27 24  1  0  0  0  0
 27 23  1  0  0  0  0
 29 28  1  0  0  0  0
 29 34  1  0  0  0  0
 30 34  1  0  0  0  0
 31 33  1  0  0  0  0
 31 32  1  0  0  0  0
 32 30  1  0  0  0  0
 33 29  1  0  0  0  0
 35 13  1  0  0  0  0
 36 39  1  0  0  0  0
 37 43  1  1  0  0  0
 37 36  1  0  0  0  0
 38 40  1  0  0  0  0
 40 39  1  0  0  0  0
 40 35  1  0  0  0  0
 41 38  1  0  0  0  0
 41 37  1  0  0  0  0
 43 42  1  0  0  0  0
M  END
>  <MODEL>
2

>  <REMARK>
 VINA RESULT:      -9.5      3.336      9.270
  Name = 
  8 active torsions:
  status: ('A' for Active; 'I' for Inactive)
    1  A    between atoms: C_1  and  C_34
    2  A    between atoms: C_1  and  N_35
    3  A    between atoms: C_2  and  C_13
    4  A    between atoms: C_3  and  C_4
    5  A    between atoms: C_3  and  N_12
    6  A    between atoms: C_11  and  C_14
    7  A    between atoms: C_14  and  C_22
    8  A    between atoms: C_19  and  C_37
                            x       y       z     vdW  Elec       q    Type
                         _______ _______ _______ _____ _____    ______ ____

>  <TORSDO>
F 8

$$$$
=
 OpenBabel11052416213D

 43 49  0  0  1  0  0  0  0  0999 V2000
  184.1020  177.1520  135.8400 C   0  0  0  0  0  0  0  0  0  0  0  0
  189.1080  176.6020  136.3720 C   0  0  0  0  0  0  0  0  0  0  0  0
  189.6560  177.3490  139.0040 C   0  0  0  0  0  0  0  0  0  0  0  0
  186.4550  176.6960  135.4560 C   0  0  0  0  0  0  0  0  0  0  0  0
  184.3830  177.5070  137.1600 C   0  0  0  0  0  3  0  0  0  0  0  0
  182.7020  177.2110  135.3360 C   0  0  0  0  0  1  0  0  0  0  0  0
  186.7450  177.0550  136.7920 C   0  0  0  0  0  0  0  0  0  0  0  0
  185.1360  176.7470  134.9900 C   0  0  0  0  0  3  0  0  0  0  0  0
  185.6980  177.4590  137.6370 C   0  0  0  0  0  3  0  0  0  0  0  0
  188.3780  177.3600  138.5340 N   0  0  0  0  0  0  0  0  0  0  0  0
  188.0760  177.0120  137.2500 C   0  0  0  0  0  0  0  0  0  0  0  0
  188.7990  176.2440  135.0520 C   0  0  0  0  0  3  0  0  0  0  0  0
  190.4280  176.5530  136.8550 C   0  0  0  0  0  0  0  0  0  0  0  0
  190.6960  176.9320  138.1730 C   0  0  0  0  0  3  0  0  0  0  0  0
  187.4810  176.2940  134.5970 C   0  0  0  0  0  3  0  0  0  0  0  0
  189.9500  177.6800  140.4350 C   0  0  1  0  0  3  0  0  0  0  0  0
  189.2710  176.7080  141.3930 C   0  0  0  0  0  2  0  0  0  0  0  0
  191.4300  177.5390  140.6990 C   0  0  0  0  0  2  0  0  0  0  0  0
  190.3110  175.9200  142.0400 N   0  0  0  0  0  0  0  0  0  0  0  0
  191.5060  176.7530  141.9840 C   0  0  0  0  0  2  0  0  0  0  0  0
  189.9300  175.7600  143.4370 C   0  0  0  0  0  2  0  0  0  0  0  0
  190.9460  176.4540  144.3510 C   0  0  2  0  0  3  0  0  0  0  0  0
  191.2850  177.4230  146.4710 O   0  0  0  0  0  0  0  0  0  0  0  0
  191.7580  175.4850  145.1430 C   0  0  0  0  0  2  0  0  0  0  0  0
  190.3580  177.3680  145.4120 C   0  0  1  0  0  0  0  0  0  0  0  0
  190.1950  178.7570  144.8160 C   0  0  0  0  0  1  0  0  0  0  0  0
  192.0850  176.2620  146.3950 C   0  0  0  0  0  2  0  0  0  0  0  0
  189.0050  176.8550  145.9420 C   0  0  0  0  0  2  0  0  0  0  0  0
  187.8670  177.8430  145.7070 C   0  0  0  0  0  3  0  0  0  0  0  0
  185.7810  178.3130  144.4060 C   0  0  0  0  0  2  0  0  0  0  0  0
  185.9710  179.0610  146.7910 C   0  0  0  0  0  2  0  0  0  0  0  0
  185.0200  178.5530  145.7090 C   0  0  0  0  0  2  0  0  0  0  0  0
  187.1000  178.0530  147.0100 C   0  0  0  0  0  2  0  0  0  0  0  0
  186.9180  177.3160  144.6320 C   0  0  0  0  0  2  0  0  0  0  0  0
  191.5630  176.0930  135.9980 C   0  0  0  0  0  2  0  0  0  0  0  0
  193.3130  173.3720  136.1760 C   0  0  0  0  0  2  0  0  0  0  0  0
  194.8060  173.7260  136.0910 C   0  0  1  0  0  3  0  0  0  0  0  0
  193.9100  176.0590  136.0480 C   0  0  0  0  0  2  0  0  0  0  0  0
  192.5680  174.2960  137.1520 C   0  0  0  0  0  2  0  0  0  0  0  0
  192.7030  175.7300  136.8230 N   0  0  0  0  0  0  0  0  0  0  0  0
  195.1010  175.1870  136.4450 C   0  0  0  0  0  2  0  0  0  0  0  0
  195.7430  173.1220  138.3720 C   0  0  0  0  0  1  0  0  0  0  0  0
  195.6830  172.7610  136.8910 C   0  0  0  0  0  2  0  0  0  0  0  0
  1  5  1  0  0  0  0
  2 13  2  0  0  0  0
  2 11  1  0  0  0  0
  4  7  2  0  0  0  0
  5  9  2  0  0  0  0
  6  1  1  0  0  0  0
  7 11  1  0  0  0  0
  7  9  1  0  0  0  0
  8  4  1  0  0  0  0
  8  1  2  0  0  0  0
 10  3  1  0  0  0  0
 11 10  2  0  0  0  0
 12  2  1  0  0  0  0
 13 14  1  0  0  0  0
 14  3  2  0  0  0  0
 15 12  2  0  0  0  0
 15  4  1  0  0  0  0
 16  3  1  6  0  0  0
 16 18  1  0  0  0  0
 16 17  1  0  0  0  0
 17 19  1  0  0  0  0
 18 20  1  0  0  0  0
 19 21  1  0  0  0  0
 20 19  1  0  0  0  0
 22 21  1  1  0  0  0
 22 24  1  0  0  0  0
 22 25  1  0  0  0  0
 24 27  1  0  0  0  0
 25 26  1  6  0  0  0
 25 28  1  0  0  0  0
 25 23  1  0  0  0  0
 27 23  1  0  0  0  0
 29 28  1  0  0  0  0
 29 33  1  0  0  0  0
 30 34  1  0  0  0  0
 30 32  1  0  0  0  0
 31 33  1  0  0  0  0
 32 31  1  0  0  0  0
 34 29  1  0  0  0  0
 35 40  1  0  0  0  0
 35 13  1  0  0  0  0
 36 39  1  0  0  0  0
 37 36  1  0  0  0  0
 37 41  1  0  0  0  0
 37 43  1  1  0  0  0
 38 41  1  0  0  0  0
 38 40  1  0  0  0  0
 40 39  1  0  0  0  0
 43 42  1  0  0  0  0
M  END
>  <MODEL>
3

>  <REMARK>
 VINA RESULT:      -9.0      3.558      8.988
  Name = 
  8 active torsions:
  status: ('A' for Active; 'I' for Inactive)
    1  A    between atoms: C_1  and  C_34
    2  A    between atoms: C_1  and  N_35
    3  A    between atoms: C_2  and  C_13
    4  A    between atoms: C_3  and  C_4
    5  A    between atoms: C_3  and  N_12
    6  A    between atoms: C_11  and  C_14
    7  A    between atoms: C_14  and  C_22
    8  A    between atoms: C_19  and  C_37
                            x       y       z     vdW  Elec       q    Type
                         _______ _______ _______ _____ _____    ______ ____

>  <TORSDO>
F 8

$$$$
=
 OpenBabel11052416213D

 43 49  0  0  1  0  0  0  0  0999 V2000
  191.0470  176.6490  146.4940 C   0  0  0  0  0  0  0  0  0  0  0  0
  189.6460  177.5870  141.7190 C   0  0  0  0  0  0  0  0  0  0  0  0
  187.0810  178.6680  141.9020 C   0  0  0  0  0  0  0  0  0  0  0  0
  190.9830  176.8480  144.0770 C   0  0  0  0  0  0  0  0  0  0  0  0
  189.7710  177.2080  146.5780 C   0  0  0  0  0  3  0  0  0  0  0  0
  191.7620  176.2390  147.7340 C   0  0  0  0  0  1  0  0  0  0  0  0
  189.6890  177.4130  144.1550 C   0  0  0  0  0  0  0  0  0  0  0  0
  191.6520  176.4710  145.2460 C   0  0  0  0  0  3  0  0  0  0  0  0
  189.0930  177.5890  145.4140 C   0  0  0  0  0  3  0  0  0  0  0  0
  187.7660  178.3210  143.0270 N   0  0  0  0  0  0  0  0  0  0  0  0
  189.0180  177.7800  142.9720 C   0  0  0  0  0  0  0  0  0  0  0  0
  190.9330  177.0310  141.6630 C   0  0  0  0  0  3  0  0  0  0  0  0
  188.9630  177.9750  140.5520 C   0  0  0  0  0  0  0  0  0  0  0  0
  187.6770  178.5110  140.6510 C   0  0  0  0  0  3  0  0  0  0  0  0
  191.5940  176.6620  142.8340 C   0  0  0  0  0  3  0  0  0  0  0  0
  185.7330  179.3140  141.9960 C   0  0  1  0  0  3  0  0  0  0  0  0
  184.9210  179.1180  140.7210 C   0  0  0  0  0  2  0  0  0  0  0  0
  184.9260  178.6600  143.0920 C   0  0  0  0  0  2  0  0  0  0  0  0
  183.8020  178.2410  141.0350 N   0  0  0  0  0  0  0  0  0  0  0  0
  183.5770  178.4120  142.4650 C   0  0  0  0  0  2  0  0  0  0  0  0
  182.6370  178.7490  140.3250 C   0  0  0  0  0  2  0  0  0  0  0  0
  181.7060  177.5980  139.9300 C   0  0  2  0  0  3  0  0  0  0  0  0
  180.9100  176.2870  138.1420 O   0  0  0  0  0  0  0  0  0  0  0  0
  182.3650  176.2640  140.0470 C   0  0  0  0  0  2  0  0  0  0  0  0
  181.2070  177.6180  138.4960 C   0  0  1  0  0  0  0  0  0  0  0  0
  179.9330  178.4460  138.4400 C   0  0  0  0  0  1  0  0  0  0  0  0
  181.6580  175.4450  138.9950 C   0  0  0  0  0  2  0  0  0  0  0  0
  182.2540  178.1860  137.5200 C   0  0  0  0  0  2  0  0  0  0  0  0
  183.0510  177.0970  136.8100 C   0  0  0  0  0  3  0  0  0  0  0  0
  183.7700  176.1790  134.5940 C   0  0  0  0  0  2  0  0  0  0  0  0
  185.3130  176.0590  136.5650 C   0  0  0  0  0  2  0  0  0  0  0  0
  185.2280  176.2180  135.0490 C   0  0  0  0  0  2  0  0  0  0  0  0
  184.5100  177.1630  137.2540 C   0  0  0  0  0  2  0  0  0  0  0  0
  182.9660  177.2760  135.2950 C   0  0  0  0  0  2  0  0  0  0  0  0
  189.5790  177.8380  139.1970 C   0  0  0  0  0  2  0  0  0  0  0  0
  189.0110  177.2020  136.0720 C   0  0  0  0  0  2  0  0  0  0  0  0
  189.6670  175.8610  135.7030 C   0  0  1  0  0  3  0  0  0  0  0  0
  190.2420  175.8510  138.1350 C   0  0  0  0  0  2  0  0  0  0  0  0
  188.2400  177.1060  137.3970 C   0  0  0  0  0  2  0  0  0  0  0  0
  189.0710  176.6510  138.5300 N   0  0  0  0  0  0  0  0  0  0  0  0
  189.9520  174.9740  136.9180 C   0  0  0  0  0  2  0  0  0  0  0  0
  188.2290  173.8420  135.1550 C   0  0  0  0  0  1  0  0  0  0  0  0
  188.8910  175.1090  134.6200 C   0  0  0  0  0  2  0  0  0  0  0  0
  1  5  1  0  0  0  0
  1  6  1  0  0  0  0
  2 11  1  0  0  0  0
  3 10  1  0  0  0  0
  4  7  2  0  0  0  0
  4  8  1  0  0  0  0
  7  9  1  0  0  0  0
  8  1  2  0  0  0  0
  9  5  2  0  0  0  0
 11 10  2  0  0  0  0
 11  7  1  0  0  0  0
 12  2  1  0  0  0  0
 12 15  2  0  0  0  0
 13 14  1  0  0  0  0
 13  2  2  0  0  0  0
 14  3  2  0  0  0  0
 15  4  1  0  0  0  0
 16  3  1  6  0  0  0
 16 18  1  0  0  0  0
 17 19  1  0  0  0  0
 17 16  1  0  0  0  0
 19 20  1  0  0  0  0
 20 18  1  0  0  0  0
 21 19  1  0  0  0  0
 22 24  1  0  0  0  0
 22 21  1  6  0  0  0
 23 25  1  0  0  0  0
 23 27  1  0  0  0  0
 25 26  1  6  0  0  0
 25 22  1  0  0  0  0
 27 24  1  0  0  0  0
 28 25  1  0  0  0  0
 29 33  1  0  0  0  0
 29 28  1  0  0  0  0
 30 32  1  0  0  0  0
 30 34  1  0  0  0  0
 31 33  1  0  0  0  0
 32 31  1  0  0  0  0
 34 29  1  0  0  0  0
 35 13  1  0  0  0  0
 36 39  1  0  0  0  0
 37 43  1  6  0  0  0
 37 36  1  0  0  0  0
 37 41  1  0  0  0  0
 38 40  1  0  0  0  0
 39 40  1  0  0  0  0
 40 35  1  0  0  0  0
 41 38  1  0  0  0  0
 43 42  1  0  0  0  0
M  END
>  <MODEL>
4

>  <REMARK>
 VINA RESULT:      -9.0      1.382      2.432
  Name = 
  8 active torsions:
  status: ('A' for Active; 'I' for Inactive)
    1  A    between atoms: C_1  and  C_34
    2  A    between atoms: C_1  and  N_35
    3  A    between atoms: C_2  and  C_13
    4  A    between atoms: C_3  and  C_4
    5  A    between atoms: C_3  and  N_12
    6  A    between atoms: C_11  and  C_14
    7  A    between atoms: C_14  and  C_22
    8  A    between atoms: C_19  and  C_37
                            x       y       z     vdW  Elec       q    Type
                         _______ _______ _______ _____ _____    ______ ____

>  <TORSDO>
F 8

$$$$
=
 OpenBabel11052416213D

 43 49  0  0  1  0  0  0  0  0999 V2000
  191.1710  176.1870  146.2150 C   0  0  0  0  0  0  0  0  0  0  0  0
  187.7450  178.1820  143.0640 C   0  0  0  0  0  0  0  0  0  0  0  0
  188.8030  177.8330  140.5070 C   0  0  0  0  0  0  0  0  0  0  0  0
  189.2080  177.2650  145.2790 C   0  0  0  0  0  0  0  0  0  0  0  0
  191.6850  176.0010  144.9300 C   0  0  0  0  0  3  0  0  0  0  0  0
  191.9420  175.7200  147.3990 C   0  0  0  0  0  1  0  0  0  0  0  0
  189.7240  177.0800  143.9760 C   0  0  0  0  0  0  0  0  0  0  0  0
  189.9350  176.8170  146.3880 C   0  0  0  0  0  3  0  0  0  0  0  0
  190.9660  176.4450  143.8140 C   0  0  0  0  0  3  0  0  0  0  0  0
  189.4760  177.3800  141.6010 N   0  0  0  0  0  0  0  0  0  0  0  0
  188.9920  177.5430  142.8660 C   0  0  0  0  0  0  0  0  0  0  0  0
  187.2460  178.3500  144.3640 C   0  0  0  0  0  3  0  0  0  0  0  0
  187.0230  178.6230  141.9400 C   0  0  0  0  0  0  0  0  0  0  0  0
  187.5610  178.4500  140.6620 C   0  0  0  0  0  3  0  0  0  0  0  0
  187.9760  177.8970  145.4640 C   0  0  0  0  0  3  0  0  0  0  0  0
  189.3310  177.5870  139.1260 C   0  0  1  0  0  3  0  0  0  0  0  0
  190.2730  176.3900  139.0840 C   0  0  0  0  0  2  0  0  0  0  0  0
  188.1920  177.2370  138.1980 C   0  0  0  0  0  2  0  0  0  0  0  0
  189.6220  175.3360  138.3190 N   0  0  0  0  0  0  0  0  0  0  0  0
  188.6860  176.0300  137.4420 C   0  0  0  0  0  2  0  0  0  0  0  0
  190.6400  174.7040  137.4930 C   0  0  0  0  0  2  0  0  0  0  0  0
  191.3660  175.7530  136.6420 C   0  0  2  0  0  3  0  0  0  0  0  0
  193.4070  176.3260  135.6160 O   0  0  0  0  0  0  0  0  0  0  0  0
  191.1920  175.5220  135.1790 C   0  0  0  0  0  2  0  0  0  0  0  0
  192.8750  175.8060  136.8110 C   0  0  1  0  0  0  0  0  0  0  0  0
  193.1980  176.7530  137.9560 C   0  0  0  0  0  1  0  0  0  0  0  0
  192.4610  176.0930  134.5940 C   0  0  0  0  0  2  0  0  0  0  0  0
  193.4830  174.4170  137.0810 C   0  0  0  0  0  2  0  0  0  0  0  0
  194.9960  174.4620  137.2720 C   0  0  0  0  0  3  0  0  0  0  0  0
  196.9150  173.7420  138.7070 C   0  0  0  0  0  2  0  0  0  0  0  0
  197.1980  173.9130  136.2230 C   0  0  0  0  0  2  0  0  0  0  0  0
  197.6140  173.1560  137.4820 C   0  0  0  0  0  2  0  0  0  0  0  0
  195.6800  173.8500  136.0520 C   0  0  0  0  0  2  0  0  0  0  0  0
  195.3970  173.6910  138.5280 C   0  0  0  0  0  2  0  0  0  0  0  0
  185.6820  179.2700  142.0700 C   0  0  0  0  0  2  0  0  0  0  0  0
  182.7040  179.1680  143.3410 C   0  0  0  0  0  2  0  0  0  0  0  0
  181.6960  178.8150  142.2350 C   0  0  1  0  0  3  0  0  0  0  0  0
  183.7720  178.6480  140.8540 C   0  0  0  0  0  2  0  0  0  0  0  0
  183.9380  178.2540  143.2920 C   0  0  0  0  0  2  0  0  0  0  0  0
  184.6300  178.2700  141.9880 N   0  0  0  0  0  0  0  0  0  0  0  0
  182.3420  178.1370  141.0230 C   0  0  0  0  0  2  0  0  0  0  0  0
  179.9490  178.5900  144.0640 C   0  0  0  0  0  1  0  0  0  0  0  0
  180.5040  178.0150  142.7640 C   0  0  0  0  0  2  0  0  0  0  0  0
  1  8  1  0  0  0  0
  1  6  1  0  0  0  0
  2 12  1  0  0  0  0
  3 14  2  0  0  0  0
  3 10  1  0  0  0  0
  4 15  1  0  0  0  0
  4  8  2  0  0  0  0
  5  1  2  0  0  0  0
  7  4  1  0  0  0  0
  9  7  2  0  0  0  0
  9  5  1  0  0  0  0
 10 11  2  0  0  0  0
 11  2  1  0  0  0  0
 11  7  1  0  0  0  0
 12 15  2  0  0  0  0
 13 35  1  0  0  0  0
 13  2  2  0  0  0  0
 14 13  1  0  0  0  0
 16  3  1  1  0  0  0
 17 16  1  0  0  0  0
 18 16  1  0  0  0  0
 19 17  1  0  0  0  0
 20 18  1  0  0  0  0
 20 19  1  0  0  0  0
 21 19  1  0  0  0  0
 22 25  1  0  0  0  0
 22 21  1  1  0  0  0
 23 25  1  0  0  0  0
 24 22  1  0  0  0  0
 25 28  1  0  0  0  0
 25 26  1  1  0  0  0
 27 24  1  0  0  0  0
 27 23  1  0  0  0  0
 28 29  1  0  0  0  0
 29 34  1  0  0  0  0
 31 32  1  0  0  0  0
 32 30  1  0  0  0  0
 33 31  1  0  0  0  0
 33 29  1  0  0  0  0
 34 30  1  0  0  0  0
 37 43  1  1  0  0  0
 37 36  1  0  0  0  0
 38 41  1  0  0  0  0
 38 40  1  0  0  0  0
 39 36  1  0  0  0  0
 40 35  1  0  0  0  0
 40 39  1  0  0  0  0
 41 37  1  0  0  0  0
 43 42  1  0  0  0  0
M  END
>  <MODEL>
5

>  <REMARK>
 VINA RESULT:      -8.8      3.507      9.588
  Name = 
  8 active torsions:
  status: ('A' for Active; 'I' for Inactive)
    1  A    between atoms: C_1  and  C_34
    2  A    between atoms: C_1  and  N_35
    3  A    between atoms: C_2  and  C_13
    4  A    between atoms: C_3  and  C_4
    5  A    between atoms: C_3  and  N_12
    6  A    between atoms: C_11  and  C_14
    7  A    between atoms: C_14  and  C_22
    8  A    between atoms: C_19  and  C_37
                            x       y       z     vdW  Elec       q    Type
                         _______ _______ _______ _____ _____    ______ ____

>  <TORSDO>
F 8

$$$$
=
 OpenBabel11052416213D

 43 49  0  0  1  0  0  0  0  0999 V2000
  191.9520  176.1100  147.4890 C   0  0  0  0  0  0  0  0  0  0  0  0
  188.0460  177.9140  144.8170 C   0  0  0  0  0  0  0  0  0  0  0  0
  188.5960  177.2460  142.1650 C   0  0  0  0  0  0  0  0  0  0  0  0
  189.8760  177.1710  146.8150 C   0  0  0  0  0  0  0  0  0  0  0  0
  192.2100  175.7640  146.1610 C   0  0  0  0  0  3  0  0  0  0  0  0
  192.9200  175.7360  148.5560 C   0  0  0  0  0  1  0  0  0  0  0  0
  190.1330  176.8250  145.4680 C   0  0  0  0  0  0  0  0  0  0  0  0
  190.7870  176.8110  147.8140 C   0  0  0  0  0  3  0  0  0  0  0  0
  191.3060  176.1190  145.1530 C   0  0  0  0  0  3  0  0  0  0  0  0
  189.4500  176.8810  143.1610 N   0  0  0  0  0  0  0  0  0  0  0  0
  189.2170  177.2010  144.4670 C   0  0  0  0  0  0  0  0  0  0  0  0
  187.8060  178.2420  146.1600 C   0  0  0  0  0  3  0  0  0  0  0  0
  187.1380  178.2660  143.8030 C   0  0  0  0  0  0  0  0  0  0  0  0
  187.4210  177.9330  142.4760 C   0  0  0  0  0  3  0  0  0  0  0  0
  188.7180  177.8760  147.1510 C   0  0  0  0  0  3  0  0  0  0  0  0
  188.8480  176.8310  140.7480 C   0  0  1  0  0  3  0  0  0  0  0  0
  188.2900  177.8410  139.7530 C   0  0  0  0  0  2  0  0  0  0  0  0
  190.3340  176.7850  140.4850 C   0  0  0  0  0  2  0  0  0  0  0  0
  189.4150  178.4760  139.0820 N   0  0  0  0  0  0  0  0  0  0  0  0
  190.5020  177.5090  139.1730 C   0  0  0  0  0  2  0  0  0  0  0  0
  189.0560  178.6290  137.6790 C   0  0  0  0  0  2  0  0  0  0  0  0
  189.3380  177.3350  136.9100 C   0  0  2  0  0  3  0  0  0  0  0  0
  188.5240  175.8460  135.2770 O   0  0  0  0  0  0  0  0  0  0  0  0
  190.1430  177.5670  135.6750 C   0  0  0  0  0  2  0  0  0  0  0  0
  188.1150  176.5950  136.3960 C   0  0  1  0  0  0  0  0  0  0  0  0
  187.6330  175.6480  137.4840 C   0  0  0  0  0  1  0  0  0  0  0  0
  189.6900  176.4540  134.7620 C   0  0  0  0  0  2  0  0  0  0  0  0
  186.9810  177.5540  135.9850 C   0  0  0  0  0  2  0  0  0  0  0  0
  185.6550  177.2240  136.6620 C   0  0  0  0  0  3  0  0  0  0  0  0
  183.9650  177.9580  138.3560 C   0  0  0  0  0  2  0  0  0  0  0  0
  183.2250  176.7780  136.2730 C   0  0  0  0  0  2  0  0  0  0  0  0
  182.8600  177.8380  137.3090 C   0  0  0  0  0  2  0  0  0  0  0  0
  184.5550  177.1330  135.6070 C   0  0  0  0  0  2  0  0  0  0  0  0
  185.2970  178.2990  137.6860 C   0  0  0  0  0  2  0  0  0  0  0  0
  185.8620  178.9840  144.1030 C   0  0  0  0  0  2  0  0  0  0  0  0
  182.6770  179.3680  144.5570 C   0  0  0  0  0  2  0  0  0  0  0  0
  181.9550  179.2270  143.2070 C   0  0  1  0  0  3  0  0  0  0  0  0
  184.2680  178.7400  142.3960 C   0  0  0  0  0  2  0  0  0  0  0  0
  183.7160  178.2540  144.7600 C   0  0  0  0  0  2  0  0  0  0  0  0
  184.7230  178.1860  143.6820 N   0  0  0  0  0  0  0  0  0  0  0  0
  182.7810  178.4810  142.1560 C   0  0  0  0  0  2  0  0  0  0  0  0
  179.4640  179.7020  143.3370 C   0  0  0  0  0  1  0  0  0  0  0  0
  180.5530  178.6330  143.3530 C   0  0  0  0  0  2  0  0  0  0  0  0
  1  8  1  0  0  0  0
  1  6  1  0  0  0  0
  2 12  1  0  0  0  0
  3 14  2  0  0  0  0
  3 10  1  0  0  0  0
  4 15  1  0  0  0  0
  4  8  2  0  0  0  0
  5  1  2  0  0  0  0
  7  4  1  0  0  0  0
  9  7  2  0  0  0  0
  9  5  1  0  0  0  0
 10 11  2  0  0  0  0
 11  2  1  0  0  0  0
 11  7  1  0  0  0  0
 12 15  2  0  0  0  0
 13 35  1  0  0  0  0
 13  2  2  0  0  0  0
 14 13  1  0  0  0  0
 16  3  1  1  0  0  0
 17 16  1  0  0  0  0
 18 16  1  0  0  0  0
 19 20  1  0  0  0  0
 19 17  1  0  0  0  0
 20 18  1  0  0  0  0
 21 19  1  0  0  0  0
 22 21  1  6  0  0  0
 23 25  1  0  0  0  0
 24 22  1  0  0  0  0
 25 22  1  0  0  0  0
 25 26  1  1  0  0  0
 27 23  1  0  0  0  0
 27 24  1  0  0  0  0
 28 25  1  0  0  0  0
 28 29  1  0  0  0  0
 29 34  1  0  0  0  0
 31 32  1  0  0  0  0
 32 30  1  0  0  0  0
 33 31  1  0  0  0  0
 33 29  1  0  0  0  0
 34 30  1  0  0  0  0
 36 39  1  0  0  0  0
 37 43  1  1  0  0  0
 37 36  1  0  0  0  0
 38 40  1  0  0  0  0
 40 35  1  0  0  0  0
 40 39  1  0  0  0  0
 41 38  1  0  0  0  0
 41 37  1  0  0  0  0
 42 43  1  0  0  0  0
M  END
>  <MODEL>
6

>  <REMARK>
 VINA RESULT:      -8.7      2.575      6.552
  Name = 
  8 active torsions:
  status: ('A' for Active; 'I' for Inactive)
    1  A    between atoms: C_1  and  C_34
    2  A    between atoms: C_1  and  N_35
    3  A    between atoms: C_2  and  C_13
    4  A    between atoms: C_3  and  C_4
    5  A    between atoms: C_3  and  N_12
    6  A    between atoms: C_11  and  C_14
    7  A    between atoms: C_14  and  C_22
    8  A    between atoms: C_19  and  C_37
                            x       y       z     vdW  Elec       q    Type
                         _______ _______ _______ _____ _____    ______ ____

>  <TORSDO>
F 8

$$$$
=
 OpenBabel11052416213D

 43 49  0  0  1  0  0  0  0  0999 V2000
  188.0000  177.4970  147.0050 C   0  0  0  0  0  0  0  0  0  0  0  0
  188.4550  178.0640  141.9930 C   0  0  0  0  0  0  0  0  0  0  0  0
  185.8820  178.6340  141.0790 C   0  0  0  0  0  0  0  0  0  0  0  0
  188.8600  177.6370  144.7400 C   0  0  0  0  0  0  0  0  0  0  0  0
  186.7190  177.8000  146.5410 C   0  0  0  0  0  3  0  0  0  0  0  0
  188.2270  177.2540  148.4560 C   0  0  0  0  0  1  0  0  0  0  0  0
  187.5640  177.9430  144.2640 C   0  0  0  0  0  0  0  0  0  0  0  0
  189.0680  177.4160  146.1060 C   0  0  0  0  0  3  0  0  0  0  0  0
  186.4990  178.0230  145.1760 C   0  0  0  0  0  3  0  0  0  0  0  0
  186.1170  178.4450  142.4070 N   0  0  0  0  0  0  0  0  0  0  0  0
  187.3610  178.1540  142.8860 C   0  0  0  0  0  0  0  0  0  0  0  0
  189.7340  177.7650  142.4860 C   0  0  0  0  0  3  0  0  0  0  0  0
  188.2310  178.2920  140.6230 C   0  0  0  0  0  0  0  0  0  0  0  0
  186.9400  178.5720  140.1710 C   0  0  0  0  0  3  0  0  0  0  0  0
  189.9330  177.5500  143.8500 C   0  0  0  0  0  3  0  0  0  0  0  0
  184.5170  179.0090  140.5880 C   0  0  1  0  0  3  0  0  0  0  0  0
  184.3340  178.6790  139.1120 C   0  0  0  0  0  2  0  0  0  0  0  0
  183.4710  178.1990  141.3160 C   0  0  0  0  0  2  0  0  0  0  0  0
  183.3610  177.6000  139.0130 N   0  0  0  0  0  0  0  0  0  0  0  0
  182.5550  177.7070  140.2230 C   0  0  0  0  0  2  0  0  0  0  0  0
  182.5080  177.8860  137.8680 C   0  0  0  0  0  2  0  0  0  0  0  0
  181.9840  176.5840  137.2530 C   0  0  2  0  0  3  0  0  0  0  0  0
  182.5440  174.7050  135.9490 O   0  0  0  0  0  0  0  0  0  0  0  0
  182.0900  175.4270  138.1890 C   0  0  0  0  0  2  0  0  0  0  0  0
  182.7160  176.1010  136.0140 C   0  0  1  0  0  0  0  0  0  0  0  0
  182.0730  176.7420  134.7930 C   0  0  0  0  0  1  0  0  0  0  0  0
  182.2550  174.2530  137.2550 C   0  0  0  0  0  2  0  0  0  0  0  0
  184.2200  176.4310  136.0570 C   0  0  0  0  0  2  0  0  0  0  0  0
  185.1000  175.1970  135.8850 C   0  0  0  0  0  3  0  0  0  0  0  0
  187.0480  174.2060  134.6650 C   0  0  0  0  0  2  0  0  0  0  0  0
  186.6290  173.6060  137.0620 C   0  0  0  0  0  2  0  0  0  0  0  0
  187.6990  173.8390  135.9980 C   0  0  0  0  0  2  0  0  0  0  0  0
  185.7640  174.8570  137.2180 C   0  0  0  0  0  2  0  0  0  0  0  0
  186.1720  175.4490  134.8270 C   0  0  0  0  0  2  0  0  0  0  0  0
  189.3450  178.2530  139.6270 C   0  0  0  0  0  2  0  0  0  0  0  0
  189.8890  176.9790  136.6980 C   0  0  0  0  0  2  0  0  0  0  0  0
  191.1360  176.0830  136.7620 C   0  0  1  0  0  3  0  0  0  0  0  0
  191.0510  176.7010  139.1820 C   0  0  0  0  0  2  0  0  0  0  0  0
  188.9440  176.7160  137.8810 C   0  0  0  0  0  2  0  0  0  0  0  0
  189.5910  176.8860  139.1980 N   0  0  0  0  0  0  0  0  0  0  0  0
  191.4800  175.6280  138.1830 C   0  0  0  0  0  2  0  0  0  0  0  0
  191.3740  173.5730  136.4690 C   0  0  0  0  0  1  0  0  0  0  0  0
  191.0580  174.9030  135.7910 C   0  0  0  0  0  2  0  0  0  0  0  0
  1  6  1  0  0  0  0
  2 12  1  0  0  0  0
  2 11  1  0  0  0  0
  3 10  1  0  0  0  0
  4  8  1  0  0  0  0
  5  1  1  0  0  0  0
  7  4  2  0  0  0  0
  7  9  1  0  0  0  0
  8  1  2  0  0  0  0
  9  5  2  0  0  0  0
 10 11  2  0  0  0  0
 11  7  1  0  0  0  0
 12 15  2  0  0  0  0
 13  2  2  0  0  0  0
 14 13  1  0  0  0  0
 14  3  2  0  0  0  0
 15  4  1  0  0  0  0
 16  3  1  1  0  0  0
 16 18  1  0  0  0  0
 17 16  1  0  0  0  0
 19 17  1  0  0  0  0
 19 20  1  0  0  0  0
 20 18  1  0  0  0  0
 21 19  1  0  0  0  0
 22 21  1  1  0  0  0
 22 24  1  0  0  0  0
 23 25  1  0  0  0  0
 23 27  1  0  0  0  0
 25 26  1  6  0  0  0
 25 28  1  0  0  0  0
 25 22  1  0  0  0  0
 27 24  1  0  0  0  0
 29 28  1  0  0  0  0
 29 33  1  0  0  0  0
 30 34  1  0  0  0  0
 30 32  1  0  0  0  0
 31 33  1  0  0  0  0
 32 31  1  0  0  0  0
 34 29  1  0  0  0  0
 35 13  1  0  0  0  0
 36 37  1  0  0  0  0
 36 39  1  0  0  0  0
 37 43  1  6  0  0  0
 37 41  1  0  0  0  0
 38 40  1  0  0  0  0
 39 40  1  0  0  0  0
 40 35  1  0  0  0  0
 41 38  1  0  0  0  0
 43 42  1  0  0  0  0
M  END
>  <MODEL>
7

>  <REMARK>
 VINA RESULT:      -8.7      2.186      4.156
  Name = 
  8 active torsions:
  status: ('A' for Active; 'I' for Inactive)
    1  A    between atoms: C_1  and  C_34
    2  A    between atoms: C_1  and  N_35
    3  A    between atoms: C_2  and  C_13
    4  A    between atoms: C_3  and  C_4
    5  A    between atoms: C_3  and  N_12
    6  A    between atoms: C_11  and  C_14
    7  A    between atoms: C_14  and  C_22
    8  A    between atoms: C_19  and  C_37
                            x       y       z     vdW  Elec       q    Type
                         _______ _______ _______ _____ _____    ______ ____

>  <TORSDO>
F 8

$$$$
=
 OpenBabel11052416213D

 43 49  0  0  1  0  0  0  0  0999 V2000
  182.1030  179.5760  139.5270 C   0  0  0  0  0  0  0  0  0  0  0  0
  186.0770  178.1360  142.3160 C   0  0  0  0  0  0  0  0  0  0  0  0
  188.2570  178.1930  140.5770 C   0  0  0  0  0  0  0  0  0  0  0  0
  183.5400  178.8450  141.3410 C   0  0  0  0  0  0  0  0  0  0  0  0
  183.2030  179.6200  138.6690 C   0  0  0  0  0  3  0  0  0  0  0  0
  180.7500  179.9360  139.0210 C   0  0  0  0  0  1  0  0  0  0  0  0
  184.6580  178.8860  140.4760 C   0  0  0  0  0  0  0  0  0  0  0  0
  182.2720  179.1910  140.8610 C   0  0  0  0  0  3  0  0  0  0  0  0
  184.4760  179.2760  139.1390 C   0  0  0  0  0  3  0  0  0  0  0  0
  187.0180  178.5540  140.1440 N   0  0  0  0  0  0  0  0  0  0  0  0
  185.9280  178.5260  140.9640 C   0  0  0  0  0  0  0  0  0  0  0  0
  184.9570  178.1080  143.1610 C   0  0  0  0  0  3  0  0  0  0  0  0
  187.3580  177.7950  142.7860 C   0  0  0  0  0  0  0  0  0  0  0  0
  188.4450  177.8210  141.9090 C   0  0  0  0  0  3  0  0  0  0  0  0
  183.6970  178.4570  142.6740 C   0  0  0  0  0  3  0  0  0  0  0  0
  189.4450  178.2890  139.6700 C   0  0  1  0  0  3  0  0  0  0  0  0
  190.3120  177.0370  139.7350 C   0  0  0  0  0  2  0  0  0  0  0  0
  188.9860  178.3860  138.2350 C   0  0  0  0  0  2  0  0  0  0  0  0
  190.2050  176.3530  138.4540 N   0  0  0  0  0  0  0  0  0  0  0  0
  189.8510  177.3940  137.4980 C   0  0  0  0  0  2  0  0  0  0  0  0
  191.5300  175.8530  138.1160 C   0  0  0  0  0  2  0  0  0  0  0  0
  191.4980  175.1160  136.7720 C   0  0  2  0  0  3  0  0  0  0  0  0
  192.5570  173.4900  135.4390 O   0  0  0  0  0  0  0  0  0  0  0  0
  190.6340  173.9010  136.8080 C   0  0  0  0  0  2  0  0  0  0  0  0
  192.8330  174.5830  136.2820 C   0  0  1  0  0  0  0  0  0  0  0  0
  193.5220  175.6750  135.4780 C   0  0  0  0  0  1  0  0  0  0  0  0
  191.2810  172.9970  135.7870 C   0  0  0  0  0  2  0  0  0  0  0  0
  193.7390  174.1220  137.4390 C   0  0  0  0  0  2  0  0  0  0  0  0
  195.0240  173.4580  136.9540 C   0  0  0  0  0  3  0  0  0  0  0  0
  197.5130  173.6610  136.7840 C   0  0  0  0  0  2  0  0  0  0  0  0
  196.4550  171.4160  137.1350 C   0  0  0  0  0  2  0  0  0  0  0  0
  197.6710  172.2890  137.4370 C   0  0  0  0  0  2  0  0  0  0  0  0
  195.1820  172.1010  137.6340 C   0  0  0  0  0  2  0  0  0  0  0  0
  196.2310  174.3370  137.2730 C   0  0  0  0  0  2  0  0  0  0  0  0
  187.5970  177.4100  144.2110 C   0  0  0  0  0  2  0  0  0  0  0  0
  189.3020  176.8250  146.9030 C   0  0  0  0  0  2  0  0  0  0  0  0
  190.7260  176.3970  146.5150 C   0  0  1  0  0  3  0  0  0  0  0  0
  189.8770  176.8480  144.2080 C   0  0  0  0  0  2  0  0  0  0  0  0
  188.8460  178.0570  146.1060 C   0  0  0  0  0  2  0  0  0  0  0  0
  188.9080  177.8670  144.6430 N   0  0  0  0  0  0  0  0  0  0  0  0
  191.1190  176.8240  145.0980 C   0  0  0  0  0  2  0  0  0  0  0  0
  192.5580  175.6500  148.1060 C   0  0  0  0  0  1  0  0  0  0  0  0
  191.7690  176.8300  147.5470 C   0  0  0  0  0  2  0  0  0  0  0  0
  1  8  1  0  0  0  0
  2 13  1  0  0  0  0
  2 12  1  0  0  0  0
  3 14  1  0  0  0  0
  4 15  1  0  0  0  0
  5  9  1  0  0  0  0
  5  1  2  0  0  0  0
  6  1  1  0  0  0  0
  7 11  1  0  0  0  0
  7  4  1  0  0  0  0
  8  4  2  0  0  0  0
  9  7  2  0  0  0  0
 10  3  2  0  0  0  0
 10 11  1  0  0  0  0
 11  2  2  0  0  0  0
 13 35  1  0  0  0  0
 14 13  2  0  0  0  0
 15 12  2  0  0  0  0
 16 17  1  0  0  0  0
 16  3  1  1  0  0  0
 18 16  1  0  0  0  0
 19 17  1  0  0  0  0
 20 18  1  0  0  0  0
 20 19  1  0  0  0  0
 21 19  1  0  0  0  0
 22 24  1  0  0  0  0
 22 21  1  1  0  0  0
 23 27  1  0  0  0  0
 23 25  1  0  0  0  0
 25 26  1  6  0  0  0
 25 22  1  0  0  0  0
 25 28  1  0  0  0  0
 27 24  1  0  0  0  0
 29 34  1  0  0  0  0
 29 28  1  0  0  0  0
 29 33  1  0  0  0  0
 30 34  1  0  0  0  0
 30 32  1  0  0  0  0
 31 32  1  0  0  0  0
 31 33  1  0  0  0  0
 35 40  1  0  0  0  0
 37 36  1  0  0  0  0
 37 43  1  1  0  0  0
 38 40  1  0  0  0  0
 38 41  1  0  0  0  0
 39 36  1  0  0  0  0
 40 39  1  0  0  0  0
 41 37  1  0  0  0  0
 43 42  1  0  0  0  0
M  END
>  <MODEL>
8

>  <REMARK>
 VINA RESULT:      -8.5      3.562     10.741
  Name = 
  8 active torsions:
  status: ('A' for Active; 'I' for Inactive)
    1  A    between atoms: C_1  and  C_34
    2  A    between atoms: C_1  and  N_35
    3  A    between atoms: C_2  and  C_13
    4  A    between atoms: C_3  and  C_4
    5  A    between atoms: C_3  and  N_12
    6  A    between atoms: C_11  and  C_14
    7  A    between atoms: C_14  and  C_22
    8  A    between atoms: C_19  and  C_37
                            x       y       z     vdW  Elec       q    Type
                         _______ _______ _______ _____ _____    ______ ____

>  <TORSDO>
F 8

$$$$
=
 OpenBabel11052416213D

 43 49  0  0  1  0  0  0  0  0999 V2000
  188.0580  177.4680  147.0210 C   0  0  0  0  0  0  0  0  0  0  0  0
  188.4940  178.0390  142.0080 C   0  0  0  0  0  0  0  0  0  0  0  0
  185.9190  178.6180  141.1050 C   0  0  0  0  0  0  0  0  0  0  0  0
  188.9090  177.6080  144.7520 C   0  0  0  0  0  0  0  0  0  0  0  0
  186.7760  177.7770  146.5630 C   0  0  0  0  0  3  0  0  0  0  0  0
  188.2900  177.2230  148.4710 C   0  0  0  0  0  1  0  0  0  0  0  0
  187.6120  177.9190  144.2820 C   0  0  0  0  0  0  0  0  0  0  0  0
  189.1220  177.3850  146.1170 C   0  0  0  0  0  3  0  0  0  0  0  0
  186.5520  178.0020  145.1990 C   0  0  0  0  0  3  0  0  0  0  0  0
  186.1600  178.4270  142.4310 N   0  0  0  0  0  0  0  0  0  0  0  0
  187.4050  178.1320  142.9060 C   0  0  0  0  0  0  0  0  0  0  0  0
  189.7750  177.7350  142.4950 C   0  0  0  0  0  3  0  0  0  0  0  0
  188.2660  178.2690  140.6390 C   0  0  0  0  0  0  0  0  0  0  0  0
  186.9740  178.5540  140.1930 C   0  0  0  0  0  3  0  0  0  0  0  0
  189.9790  177.5190  143.8580 C   0  0  0  0  0  3  0  0  0  0  0  0
  184.5540  178.9990  140.6200 C   0  0  1  0  0  3  0  0  0  0  0  0
  184.2660  178.4330  139.2350 C   0  0  0  0  0  2  0  0  0  0  0  0
  183.5050  178.4010  141.5260 C   0  0  0  0  0  2  0  0  0  0  0  0
  183.2240  177.4240  139.3720 N   0  0  0  0  0  0  0  0  0  0  0  0
  182.4980  177.7940  140.5810 C   0  0  0  0  0  2  0  0  0  0  0  0
  182.3250  177.5690  138.2360 C   0  0  0  0  0  2  0  0  0  0  0  0
  183.0880  177.3720  136.9220 C   0  0  2  0  0  3  0  0  0  0  0  0
  183.5680  175.8620  135.1790 O   0  0  0  0  0  0  0  0  0  0  0  0
  182.3060  177.8230  135.7340 C   0  0  0  0  0  2  0  0  0  0  0  0
  183.4480  175.9360  136.5800 C   0  0  1  0  0  0  0  0  0  0  0  0
  184.7920  175.6120  137.2140 C   0  0  0  0  0  1  0  0  0  0  0  0
  182.8190  176.9280  134.6320 C   0  0  0  0  0  2  0  0  0  0  0  0
  182.3790  174.9350  137.0560 C   0  0  0  0  0  2  0  0  0  0  0  0
  182.2960  173.6950  136.1720 C   0  0  0  0  0  3  0  0  0  0  0  0
  182.6540  171.2210  136.0510 C   0  0  0  0  0  2  0  0  0  0  0  0
  180.7700  172.2810  134.7840 C   0  0  0  0  0  2  0  0  0  0  0  0
  181.2260  171.0370  135.5420 C   0  0  0  0  0  2  0  0  0  0  0  0
  180.8590  173.5090  135.6920 C   0  0  0  0  0  2  0  0  0  0  0  0
  182.7430  172.4570  136.9470 C   0  0  0  0  0  2  0  0  0  0  0  0
  189.3760  178.2270  139.6380 C   0  0  0  0  0  2  0  0  0  0  0  0
  189.7700  176.8800  136.7190 C   0  0  0  0  0  2  0  0  0  0  0  0
  191.0490  176.0270  136.7250 C   0  0  1  0  0  3  0  0  0  0  0  0
  191.1000  176.7180  139.1260 C   0  0  0  0  0  2  0  0  0  0  0  0
  188.9140  176.6240  137.9690 C   0  0  0  0  0  2  0  0  0  0  0  0
  189.6390  176.8560  139.2350 N   0  0  0  0  0  0  0  0  0  0  0  0
  191.5000  175.6280  138.1330 C   0  0  0  0  0  2  0  0  0  0  0  0
  191.7760  173.6330  136.2940 C   0  0  0  0  0  1  0  0  0  0  0  0
  190.9480  174.8150  135.7980 C   0  0  0  0  0  2  0  0  0  0  0  0
  1  6  1  0  0  0  0
  2 12  1  0  0  0  0
  2 11  1  0  0  0  0
  3 10  1  0  0  0  0
  4  8  1  0  0  0  0
  5  1  1  0  0  0  0
  7  4  2  0  0  0  0
  7  9  1  0  0  0  0
  8  1  2  0  0  0  0
  9  5  2  0  0  0  0
 10 11  2  0  0  0  0
 11  7  1  0  0  0  0
 12 15  2  0  0  0  0
 13  2  2  0  0  0  0
 14 13  1  0  0  0  0
 14  3  2  0  0  0  0
 15  4  1  0  0  0  0
 16  3  1  1  0  0  0
 16 18  1  0  0  0  0
 17 19  1  0  0  0  0
 17 16  1  0  0  0  0
 19 20  1  0  0  0  0
 20 18  1  0  0  0  0
 21 19  1  0  0  0  0
 22 21  1  1  0  0  0
 23 25  1  0  0  0  0
 24 22  1  0  0  0  0
 25 22  1  0  0  0  0
 25 28  1  0  0  0  0
 25 26  1  1  0  0  0
 27 23  1  0  0  0  0
 27 24  1  0  0  0  0
 29 34  1  0  0  0  0
 29 28  1  0  0  0  0
 30 34  1  0  0  0  0
 31 32  1  0  0  0  0
 31 33  1  0  0  0  0
 32 30  1  0  0  0  0
 33 29  1  0  0  0  0
 35 13  1  0  0  0  0
 36 37  1  0  0  0  0
 36 39  1  0  0  0  0
 37 43  1  6  0  0  0
 37 41  1  0  0  0  0
 38 40  1  0  0  0  0
 39 40  1  0  0  0  0
 40 35  1  0  0  0  0
 41 38  1  0  0  0  0
 43 42  1  0  0  0  0
M  END
>  <MODEL>
9

>  <REMARK>
 VINA RESULT:      -8.4      2.334      4.276
  Name = 
  8 active torsions:
  status: ('A' for Active; 'I' for Inactive)
    1  A    between atoms: C_1  and  C_34
    2  A    between atoms: C_1  and  N_35
    3  A    between atoms: C_2  and  C_13
    4  A    between atoms: C_3  and  C_4
    5  A    between atoms: C_3  and  N_12
    6  A    between atoms: C_11  and  C_14
    7  A    between atoms: C_14  and  C_22
    8  A    between atoms: C_19  and  C_37
                            x       y       z     vdW  Elec       q    Type
                         _______ _______ _______ _____ _____    ______ ____

>  <TORSDO>
F 8

$$$$
