=
 OpenBabel11052412403D

 25 29  0  0  1  0  0  0  0  0999 V2000
  186.7660  177.7390  144.6370 C   0  0  0  0  0  0  0  0  0  0  0  0
  188.1340  177.3730  144.1840 C   0  0  0  0  0  0  0  0  0  0  0  0
  187.5980  177.7090  146.9980 C   0  0  0  0  0  3  0  0  0  0  0  0
  185.8150  178.2500  143.8380 C   0  0  0  0  0  0  0  0  0  0  0  0
  183.8430  179.2530  143.3810 C   0  0  0  0  0  3  0  0  0  0  0  0
  188.8460  177.5950  146.5330 C   0  0  0  0  0  3  0  0  0  0  0  0
  184.2700  178.7200  145.7870 C   0  0  0  0  0  3  0  0  0  0  0  0
  184.5550  178.7140  144.3520 C   0  0  2  0  0  3  0  0  0  0  0  0
  190.5400  176.9170  144.6960 C   0  0  2  0  0  3  0  0  0  0  0  0
  191.5950  177.6930  145.4660 C   0  0  0  0  0  1  0  0  0  0  0  0
  188.4160  177.1130  142.7240 C   0  0  0  0  0  2  0  0  0  0  0  0
  184.6450  179.1310  142.1500 C   0  0  0  0  0  3  0  0  0  0  0  0
  186.4210  177.4780  146.1000 C   0  0  0  0  0  0  0  0  0  0  0  0
  185.1710  178.1710  146.6130 C   0  0  0  0  0  3  0  0  0  0  0  0
  190.7770  177.0980  143.2640 N   0  0  0  0  0  2  0  0  0  0  0  0
  185.8180  178.5540  142.4150 C   0  0  0  0  0  3  0  0  0  0  0  0
  189.7380  176.3860  142.5320 C   0  0  2  0  0  3  0  0  0  0  0  0
  189.1340  177.3330  145.0990 C   0  0  0  0  0  0  0  0  0  0  0  0
  190.0800  176.3430  141.0520 C   0  0  0  0  0  2  0  0  0  0  0  0
  189.4440  177.4500  140.3520 N   0  0  0  0  0  2  0  0  0  0  0  0
  189.7330  177.7700  138.9870 C   0  0  0  0  0  0  0  0  0  0  0  0
  190.5160  177.0460  138.3150 O   0  0  0  0  0  0  0  0  0  0  0  0
  189.0680  178.9430  138.3450 C   0  0  2  0  0  3  0  0  0  0  0  0
  187.7420  178.5440  137.8440 N   0  0  0  0  0  2  0  0  0  0  0  0
  188.8730  178.6940  136.9190 C   0  0  0  0  0  2  0  0  0  0  0  0
  1 13  1  0  0  0  0
  2  1  2  0  0  0  0
  2 18  1  0  0  0  0
  4  8  1  0  0  0  0
  4  1  1  0  0  0  0
  6  3  1  0  0  0  0
  7 14  2  0  0  0  0
  8  5  1  1  0  0  0
  8  7  1  0  0  0  0
  9 18  1  0  0  0  0
  9 10  1  1  0  0  0
 11  2  1  0  0  0  0
 12 16  1  0  0  0  0
 12  5  2  0  0  0  0
 13 14  1  0  0  0  0
 13  3  2  0  0  0  0
 15  9  1  0  0  0  0
 16  4  2  0  0  0  0
 17 19  1  6  0  0  0
 17 11  1  0  0  0  0
 17 15  1  0  0  0  0
 18  6  2  0  0  0  0
 20 19  1  0  0  0  0
 21 20  1  0  0  0  0
 22 21  2  0  0  0  0
 23 21  1  1  0  0  0
 24 23  1  0  0  0  0
 25 24  1  0  0  0  0
 25 23  1  0  0  0  0
M  END
>  <MODEL>
1

>  <REMARK>
 VINA RESULT:     -10.2      0.000      0.000
  Name = 
  3 active torsions:
  status: ('A' for Active; 'I' for Inactive)
    1  A    between atoms: C_2  and  C_21
    2  A    between atoms: C_6  and  N_15
    3  A    between atoms: C_6  and  C_23
                            x       y       z     vdW  Elec       q    Type
                         _______ _______ _______ _____ _____    ______ ____

>  <TORSDO>
F 3

$$$$
=
 OpenBabel11052412403D

 25 29  0  0  1  0  0  0  0  0999 V2000
  186.8680  177.8430  144.5170 C   0  0  0  0  0  0  0  0  0  0  0  0
  188.1410  177.6500  143.7710 C   0  0  0  0  0  0  0  0  0  0  0  0
  188.1820  177.8640  146.6470 C   0  0  0  0  0  3  0  0  0  0  0  0
  185.7180  178.2530  143.9580 C   0  0  0  0  0  0  0  0  0  0  0  0
  183.5940  179.0240  143.9690 C   0  0  0  0  0  3  0  0  0  0  0  0
  189.3070  177.9090  145.9260 C   0  0  0  0  0  3  0  0  0  0  0  0
  184.5810  178.4980  146.2060 C   0  0  0  0  0  3  0  0  0  0  0  0
  184.5530  178.5550  144.7450 C   0  0  0  0  0  0  0  0  0  0  0  0
  190.6350  177.4730  143.7470 C   0  0  2  0  0  3  0  0  0  0  0  0
  191.7380  178.3530  144.3130 C   0  0  0  0  0  1  0  0  0  0  0  0
  188.1310  177.4550  142.2750 C   0  0  0  0  0  2  0  0  0  0  0  0
  184.1240  179.0230  142.5940 C   0  0  0  0  0  3  0  0  0  0  0  0
  186.8740  177.5140  146.0060 C   0  0  1  0  0  3  0  0  0  0  0  0
  185.6930  178.0440  146.8000 C   0  0  0  0  0  3  0  0  0  0  0  0
  190.5400  177.7090  142.3070 N   0  0  0  0  0  2  0  0  0  0  0  0
  185.3840  178.5840  142.5810 C   0  0  0  0  0  3  0  0  0  0  0  0
  189.4550  176.8940  141.7770 C   0  0  2  0  0  3  0  0  0  0  0  0
  189.3100  177.7110  144.4530 C   0  0  0  0  0  0  0  0  0  0  0  0
  189.4760  176.9210  140.2580 C   0  0  0  0  0  2  0  0  0  0  0  0
  190.6480  176.2180  139.7540 N   0  0  0  0  0  2  0  0  0  0  0  0
  191.1200  176.3660  138.4120 C   0  0  0  0  0  0  0  0  0  0  0  0
  190.5620  177.1790  137.6260 O   0  0  0  0  0  0  0  0  0  0  0  0
  192.3090  175.5860  137.9550 C   0  0  2  0  0  3  0  0  0  0  0  0
  193.5390  176.3290  138.2740 N   0  0  0  0  0  2  0  0  0  0  0  0
  193.0140  176.3110  136.9020 C   0  0  0  0  0  2  0  0  0  0  0  0
  1 13  1  0  0  0  0
  2 18  2  0  0  0  0
  2  1  1  0  0  0  0
  4  1  2  0  0  0  0
  4  8  1  0  0  0  0
  5  8  2  0  0  0  0
  6  3  2  0  0  0  0
  7 14  2  0  0  0  0
  8  7  1  0  0  0  0
  9 10  1  1  0  0  0
  9 18  1  0  0  0  0
 11  2  1  0  0  0  0
 12  5  1  0  0  0  0
 13  3  1  1  0  0  0
 13 14  1  0  0  0  0
 15  9  1  0  0  0  0
 16 12  2  0  0  0  0
 16  4  1  0  0  0  0
 17 19  1  6  0  0  0
 17 11  1  0  0  0  0
 17 15  1  0  0  0  0
 18  6  1  0  0  0  0
 20 19  1  0  0  0  0
 21 20  1  0  0  0  0
 22 21  2  0  0  0  0
 23 24  1  0  0  0  0
 23 21  1  1  0  0  0
 25 23  1  0  0  0  0
 25 24  1  0  0  0  0
M  END
>  <MODEL>
2

>  <REMARK>
 VINA RESULT:     -10.1      1.690      2.027
  Name = 
  3 active torsions:
  status: ('A' for Active; 'I' for Inactive)
    1  A    between atoms: C_2  and  C_21
    2  A    between atoms: C_6  and  N_15
    3  A    between atoms: C_6  and  C_23
                            x       y       z     vdW  Elec       q    Type
                         _______ _______ _______ _____ _____    ______ ____

>  <TORSDO>
F 3

$$$$
=
 OpenBabel11052412403D

 25 29  0  0  1  0  0  0  0  0999 V2000
  186.0430  178.0640  144.5100 C   0  0  0  0  0  0  0  0  0  0  0  0
  187.4020  177.6830  144.9800 C   0  0  0  0  0  0  0  0  0  0  0  0
  185.3890  178.4630  146.8930 C   0  0  0  0  0  3  0  0  0  0  0  0
  185.7450  178.3930  143.2430 C   0  0  0  0  0  0  0  0  0  0  0  0
  184.4440  179.2240  141.5930 C   0  0  0  0  0  3  0  0  0  0  0  0
  186.6710  178.3250  147.2450 C   0  0  0  0  0  3  0  0  0  0  0  0
  183.4000  179.1190  143.8630 C   0  0  0  0  0  3  0  0  0  0  0  0
  184.4470  178.8850  142.8680 C   0  0  2  0  0  3  0  0  0  0  0  0
  189.0610  177.4190  146.8330 C   0  0  2  0  0  3  0  0  0  0  0  0
  189.5410  178.3560  147.9290 C   0  0  0  0  0  1  0  0  0  0  0  0
  188.4430  177.1950  144.0030 C   0  0  0  0  0  2  0  0  0  0  0  0
  185.7920  178.9310  141.0740 C   0  0  0  0  0  3  0  0  0  0  0  0
  184.9150  178.0370  145.5370 C   0  0  0  0  0  0  0  0  0  0  0  0
  183.6400  178.7540  145.1300 C   0  0  0  0  0  3  0  0  0  0  0  0
  190.0780  177.3680  145.7830 N   0  0  0  0  0  2  0  0  0  0  0  0
  186.5720  178.4550  142.0470 C   0  0  0  0  0  3  0  0  0  0  0  0
  189.5950  176.5010  144.7160 C   0  0  2  0  0  3  0  0  0  0  0  0
  187.7030  177.8380  146.2930 C   0  0  0  0  0  0  0  0  0  0  0  0
  190.7100  176.2250  143.7230 C   0  0  0  0  0  2  0  0  0  0  0  0
  190.1990  176.2670  142.3600 N   0  0  0  0  0  2  0  0  0  0  0  0
  190.8520  176.9890  141.3110 C   0  0  0  0  0  0  0  0  0  0  0  0
  191.9510  177.5680  141.5250 O   0  0  0  0  0  0  0  0  0  0  0  0
  190.2490  177.0160  139.9450 C   0  0  2  0  0  3  0  0  0  0  0  0
  190.6260  175.7950  139.2150 N   0  0  0  0  0  2  0  0  0  0  0  0
  191.2990  177.0690  138.9310 C   0  0  0  0  0  2  0  0  0  0  0  0
  1  2  2  0  0  0  0
  1 13  1  0  0  0  0
  2 18  1  0  0  0  0
  3  6  1  0  0  0  0
  4  1  1  0  0  0  0
  7 14  2  0  0  0  0
  8  5  1  1  0  0  0
  8  4  1  0  0  0  0
  8  7  1  0  0  0  0
  9 10  1  1  0  0  0
 11 17  1  0  0  0  0
 11  2  1  0  0  0  0
 12  5  2  0  0  0  0
 12 16  1  0  0  0  0
 13  3  2  0  0  0  0
 14 13  1  0  0  0  0
 15  9  1  0  0  0  0
 16  4  2  0  0  0  0
 17 19  1  6  0  0  0
 17 15  1  0  0  0  0
 18  9  1  0  0  0  0
 18  6  2  0  0  0  0
 20 19  1  0  0  0  0
 21 22  2  0  0  0  0
 21 20  1  0  0  0  0
 23 21  1  1  0  0  0
 24 23  1  0  0  0  0
 25 24  1  0  0  0  0
 25 23  1  0  0  0  0
M  END
>  <MODEL>
3

>  <REMARK>
 VINA RESULT:     -10.1      1.794      2.376
  Name = 
  3 active torsions:
  status: ('A' for Active; 'I' for Inactive)
    1  A    between atoms: C_2  and  C_21
    2  A    between atoms: C_6  and  N_15
    3  A    between atoms: C_6  and  C_23
                            x       y       z     vdW  Elec       q    Type
                         _______ _______ _______ _____ _____    ______ ____

>  <TORSDO>
F 3

$$$$
=
 OpenBabel11052412403D

 25 29  0  0  1  0  0  0  0  0999 V2000
  186.7280  178.1330  144.7490 C   0  0  0  0  0  0  0  0  0  0  0  0
  185.6170  178.4330  143.8070 C   0  0  0  0  0  0  0  0  0  0  0  0
  185.1680  178.5950  146.6510 C   0  0  0  0  0  3  0  0  0  0  0  0
  187.8490  177.4760  144.4120 C   0  0  0  0  0  0  0  0  0  0  0  0
  189.7830  176.3810  144.8180 C   0  0  0  0  0  3  0  0  0  0  0  0
  184.1550  178.6410  145.7800 C   0  0  0  0  0  3  0  0  0  0  0  0
  188.6260  177.3380  146.8180 C   0  0  0  0  0  3  0  0  0  0  0  0
  188.8320  177.0930  145.3900 C   0  0  0  0  0  0  0  0  0  0  0  0
  183.2170  179.0050  143.3950 C   0  0  2  0  0  3  0  0  0  0  0  0
  181.9130  178.3930  143.8780 C   0  0  0  0  0  1  0  0  0  0  0  0
  185.8530  178.4330  142.3170 C   0  0  0  0  0  2  0  0  0  0  0  0
  189.4440  176.2930  143.3870 C   0  0  0  0  0  3  0  0  0  0  0  0
  186.5890  178.6450  146.1790 C   0  0  1  0  0  3  0  0  0  0  0  0
  187.5450  178.0370  147.1900 C   0  0  0  0  0  3  0  0  0  0  0  0
  183.4540  178.5760  142.0170 N   0  0  0  0  0  2  0  0  0  0  0  0
  188.2940  176.9240  143.1420 C   0  0  0  0  0  3  0  0  0  0  0  0
  184.7250  179.1320  141.5730 C   0  0  2  0  0  3  0  0  0  0  0  0
  184.3770  178.6480  144.3110 C   0  0  0  0  0  0  0  0  0  0  0  0
  184.8950  178.9170  140.0790 C   0  0  0  0  0  2  0  0  0  0  0  0
  186.2960  178.6810  139.7560 N   0  0  0  0  0  2  0  0  0  0  0  0
  186.7250  178.2130  138.4740 C   0  0  0  0  0  0  0  0  0  0  0  0
  185.8910  178.0500  137.5430 O   0  0  0  0  0  0  0  0  0  0  0  0
  188.1760  177.9600  138.2270 C   0  0  2  0  0  3  0  0  0  0  0  0
  188.8970  179.2430  138.1680 N   0  0  0  0  0  2  0  0  0  0  0  0
  188.5710  178.5140  136.9350 C   0  0  0  0  0  2  0  0  0  0  0  0
  1 13  1  0  0  0  0
  2 18  2  0  0  0  0
  2  1  1  0  0  0  0
  4  1  2  0  0  0  0
  4  8  1  0  0  0  0
  5  8  2  0  0  0  0
  6  3  2  0  0  0  0
  7 14  2  0  0  0  0
  8  7  1  0  0  0  0
  9 10  1  1  0  0  0
  9 18  1  0  0  0  0
 11  2  1  0  0  0  0
 12  5  1  0  0  0  0
 13  3  1  1  0  0  0
 13 14  1  0  0  0  0
 15  9  1  0  0  0  0
 16 12  2  0  0  0  0
 16  4  1  0  0  0  0
 17 19  1  6  0  0  0
 17 15  1  0  0  0  0
 17 11  1  0  0  0  0
 18  6  1  0  0  0  0
 20 19  1  0  0  0  0
 21 20  1  0  0  0  0
 22 21  2  0  0  0  0
 23 21  1  6  0  0  0
 24 23  1  0  0  0  0
 25 24  1  0  0  0  0
 25 23  1  0  0  0  0
M  END
>  <MODEL>
4

>  <REMARK>
 VINA RESULT:      -9.9      1.886      4.672
  Name = 
  3 active torsions:
  status: ('A' for Active; 'I' for Inactive)
    1  A    between atoms: C_2  and  C_21
    2  A    between atoms: C_6  and  N_15
    3  A    between atoms: C_6  and  C_23
                            x       y       z     vdW  Elec       q    Type
                         _______ _______ _______ _____ _____    ______ ____

>  <TORSDO>
F 3

$$$$
=
 OpenBabel11052412403D

 25 29  0  0  1  0  0  0  0  0999 V2000
  185.7230  178.4000  144.0930 C   0  0  0  0  0  0  0  0  0  0  0  0
  184.8180  178.5660  142.9240 C   0  0  0  0  0  0  0  0  0  0  0  0
  183.8050  178.9780  145.5930 C   0  0  0  0  0  3  0  0  0  0  0  0
  186.9020  177.7590  144.0520 C   0  0  0  0  0  0  0  0  0  0  0  0
  188.7360  176.7820  144.9400 C   0  0  0  0  0  3  0  0  0  0  0  0
  182.9870  178.9020  144.5390 C   0  0  0  0  0  3  0  0  0  0  0  0
  187.1830  177.8780  146.5650 C   0  0  0  0  0  3  0  0  0  0  0  0
  187.6750  177.5080  145.2390 C   0  0  0  0  0  0  0  0  0  0  0  0
  182.5390  179.0030  141.9910 C   0  0  2  0  0  3  0  0  0  0  0  0
  181.1760  178.3890  142.2660 C   0  0  0  0  0  1  0  0  0  0  0  0
  185.3480  178.4350  141.5180 C   0  0  0  0  0  2  0  0  0  0  0  0
  188.6920  176.5460  143.4860 C   0  0  0  0  0  3  0  0  0  0  0  0
  185.2900  179.0390  145.4090 C   0  0  1  0  0  3  0  0  0  0  0  0
  186.0360  178.5670  146.6450 C   0  0  0  0  0  3  0  0  0  0  0  0
  183.0550  178.4550  140.7370 N   0  0  0  0  0  2  0  0  0  0  0  0
  187.6030  177.1070  142.9570 C   0  0  0  0  0  3  0  0  0  0  0  0
  184.3790  179.0160  140.5000 C   0  0  2  0  0  3  0  0  0  0  0  0
  183.4980  178.7790  143.1490 C   0  0  0  0  0  0  0  0  0  0  0  0
  184.8490  178.6680  139.0980 C   0  0  0  0  0  2  0  0  0  0  0  0
  186.3040  178.6280  139.0460 N   0  0  0  0  0  2  0  0  0  0  0  0
  187.0230  178.1000  137.9280 C   0  0  0  0  0  0  0  0  0  0  0  0
  186.4060  177.7050  136.9020 O   0  0  0  0  0  0  0  0  0  0  0  0
  188.5160  178.0580  137.9600 C   0  0  2  0  0  3  0  0  0  0  0  0
  189.0540  179.3780  137.5890 N   0  0  0  0  0  2  0  0  0  0  0  0
  189.0560  178.2740  136.6200 C   0  0  0  0  0  2  0  0  0  0  0  0
  1 13  1  0  0  0  0
  2 18  2  0  0  0  0
  2  1  1  0  0  0  0
  4  1  2  0  0  0  0
  4  8  1  0  0  0  0
  5  8  2  0  0  0  0
  6  3  2  0  0  0  0
  7 14  2  0  0  0  0
  8  7  1  0  0  0  0
  9 10  1  1  0  0  0
  9 18  1  0  0  0  0
 11  2  1  0  0  0  0
 12  5  1  0  0  0  0
 13  3  1  1  0  0  0
 13 14  1  0  0  0  0
 15  9  1  0  0  0  0
 16 12  2  0  0  0  0
 16  4  1  0  0  0  0
 17 19  1  6  0  0  0
 17 15  1  0  0  0  0
 17 11  1  0  0  0  0
 18  6  1  0  0  0  0
 20 19  1  0  0  0  0
 21 20  1  0  0  0  0
 22 21  2  0  0  0  0
 23 21  1  6  0  0  0
 24 23  1  0  0  0  0
 25 24  1  0  0  0  0
 25 23  1  0  0  0  0
M  END
>  <MODEL>
5

>  <REMARK>
 VINA RESULT:      -9.9      2.120      4.896
  Name = 
  3 active torsions:
  status: ('A' for Active; 'I' for Inactive)
    1  A    between atoms: C_2  and  C_21
    2  A    between atoms: C_6  and  N_15
    3  A    between atoms: C_6  and  C_23
                            x       y       z     vdW  Elec       q    Type
                         _______ _______ _______ _____ _____    ______ ____

>  <TORSDO>
F 3

$$$$
=
 OpenBabel11052412403D

 25 29  0  0  1  0  0  0  0  0999 V2000
  186.9490  177.8880  144.7910 C   0  0  0  0  0  0  0  0  0  0  0  0
  188.0550  177.8310  143.7980 C   0  0  0  0  0  0  0  0  0  0  0  0
  188.6510  177.7050  146.6170 C   0  0  0  0  0  3  0  0  0  0  0  0
  185.7070  178.3180  144.5170 C   0  0  0  0  0  0  0  0  0  0  0  0
  183.6160  179.0040  145.0290 C   0  0  0  0  0  3  0  0  0  0  0  0
  189.6140  177.8760  145.7060 C   0  0  0  0  0  3  0  0  0  0  0  0
  185.0250  178.2530  146.9540 C   0  0  0  0  0  3  0  0  0  0  0  0
  184.7130  178.4810  145.5430 C   0  0  0  0  0  0  0  0  0  0  0  0
  190.5000  177.7500  143.2770 C   0  0  2  0  0  3  0  0  0  0  0  0
  191.6790  178.5970  143.7260 C   0  0  0  0  0  1  0  0  0  0  0  0
  187.7580  177.8140  142.3190 C   0  0  0  0  0  2  0  0  0  0  0  0
  183.8680  179.1850  143.5880 C   0  0  0  0  0  3  0  0  0  0  0  0
  187.2480  177.3850  146.2000 C   0  0  1  0  0  3  0  0  0  0  0  0
  186.2360  177.7730  147.2640 C   0  0  0  0  0  3  0  0  0  0  0  0
  190.1240  178.1510  141.9210 N   0  0  0  0  0  2  0  0  0  0  0  0
  185.1070  178.7970  143.2810 C   0  0  0  0  0  3  0  0  0  0  0  0
  188.9670  177.3650  141.5120 C   0  0  2  0  0  3  0  0  0  0  0  0
  189.3340  177.8540  144.2470 C   0  0  0  0  0  0  0  0  0  0  0  0
  188.6930  177.5720  140.0320 C   0  0  0  0  0  2  0  0  0  0  0  0
  187.2740  177.8110  139.8080 N   0  0  0  0  0  2  0  0  0  0  0  0
  186.7660  178.3610  138.5880 C   0  0  0  0  0  0  0  0  0  0  0  0
  187.5430  178.5980  137.6240 O   0  0  0  0  0  0  0  0  0  0  0  0
  185.3020  178.6110  138.4430 C   0  0  2  0  0  3  0  0  0  0  0  0
  184.9100  179.7520  139.2870 N   0  0  0  0  0  2  0  0  0  0  0  0
  184.6210  178.3770  139.7130 C   0  0  0  0  0  2  0  0  0  0  0  0
  1 13  1  0  0  0  0
  2 18  2  0  0  0  0
  2  1  1  0  0  0  0
  4  1  2  0  0  0  0
  4  8  1  0  0  0  0
  5  8  2  0  0  0  0
  6  3  2  0  0  0  0
  7 14  2  0  0  0  0
  8  7  1  0  0  0  0
  9 10  1  1  0  0  0
  9 18  1  0  0  0  0
 11  2  1  0  0  0  0
 12  5  1  0  0  0  0
 13  3  1  1  0  0  0
 13 14  1  0  0  0  0
 15  9  1  0  0  0  0
 16 12  2  0  0  0  0
 16  4  1  0  0  0  0
 17 19  1  6  0  0  0
 17 15  1  0  0  0  0
 17 11  1  0  0  0  0
 18  6  1  0  0  0  0
 20 19  1  0  0  0  0
 21 20  1  0  0  0  0
 22 21  2  0  0  0  0
 23 21  1  1  0  0  0
 23 24  1  0  0  0  0
 23 25  1  0  0  0  0
 24 25  1  0  0  0  0
M  END
>  <MODEL>
6

>  <REMARK>
 VINA RESULT:      -9.7      1.758      2.131
  Name = 
  3 active torsions:
  status: ('A' for Active; 'I' for Inactive)
    1  A    between atoms: C_2  and  C_21
    2  A    between atoms: C_6  and  N_15
    3  A    between atoms: C_6  and  C_23
                            x       y       z     vdW  Elec       q    Type
                         _______ _______ _______ _____ _____    ______ ____

>  <TORSDO>
F 3

$$$$
=
 OpenBabel11052412403D

 25 29  0  0  1  0  0  0  0  0999 V2000
  187.1920  178.1630  145.4500 C   0  0  0  0  0  0  0  0  0  0  0  0
  186.1360  178.4420  144.4400 C   0  0  0  0  0  0  0  0  0  0  0  0
  185.5090  178.5930  147.2510 C   0  0  0  0  0  3  0  0  0  0  0  0
  188.3450  177.5280  145.1830 C   0  0  0  0  0  0  0  0  0  0  0  0
  190.2710  176.4690  145.7090 C   0  0  0  0  0  3  0  0  0  0  0  0
  184.5510  178.6200  146.3190 C   0  0  0  0  0  3  0  0  0  0  0  0
  188.9730  177.4030  147.6320 C   0  0  0  0  0  3  0  0  0  0  0  0
  189.2720  177.1630  146.2210 C   0  0  0  0  0  0  0  0  0  0  0  0
  183.7560  178.9690  143.8800 C   0  0  2  0  0  3  0  0  0  0  0  0
  182.4360  178.3310  144.2820 C   0  0  0  0  0  1  0  0  0  0  0  0
  186.4640  178.4480  142.9670 C   0  0  0  0  0  2  0  0  0  0  0  0
  190.0230  176.3760  144.2590 C   0  0  0  0  0  3  0  0  0  0  0  0
  186.9550  178.6710  146.8680 C   0  0  1  0  0  3  0  0  0  0  0  0
  187.8580  178.0810  147.9370 C   0  0  0  0  0  3  0  0  0  0  0  0
  184.0860  178.5460  142.5200 N   0  0  0  0  0  2  0  0  0  0  0  0
  188.8780  176.9860  143.9430 C   0  0  0  0  0  3  0  0  0  0  0  0
  185.3710  179.1270  142.1550 C   0  0  2  0  0  3  0  0  0  0  0  0
  184.8630  178.6330  144.8670 C   0  0  0  0  0  0  0  0  0  0  0  0
  185.6370  178.9160  140.6750 C   0  0  0  0  0  2  0  0  0  0  0  0
  184.4130  178.5240  139.9890 N   0  0  0  0  0  2  0  0  0  0  0  0
  183.7070  179.4010  139.1070 C   0  0  0  0  0  0  0  0  0  0  0  0
  184.1700  180.5430  138.8380 O   0  0  0  0  0  0  0  0  0  0  0  0
  182.4380  178.9430  138.4670 C   0  0  2  0  0  3  0  0  0  0  0  0
  181.3080  179.1980  139.3760 N   0  0  0  0  0  2  0  0  0  0  0  0
  181.8560  177.8430  139.2310 C   0  0  0  0  0  2  0  0  0  0  0  0
  1 13  1  0  0  0  0
  2 18  2  0  0  0  0
  2  1  1  0  0  0  0
  4  1  2  0  0  0  0
  4  8  1  0  0  0  0
  5  8  2  0  0  0  0
  6  3  2  0  0  0  0
  7 14  2  0  0  0  0
  8  7  1  0  0  0  0
  9 10  1  1  0  0  0
  9 18  1  0  0  0  0
 11  2  1  0  0  0  0
 12  5  1  0  0  0  0
 13  3  1  1  0  0  0
 13 14  1  0  0  0  0
 15  9  1  0  0  0  0
 16 12  2  0  0  0  0
 16  4  1  0  0  0  0
 17 19  1  6  0  0  0
 17 15  1  0  0  0  0
 17 11  1  0  0  0  0
 18  6  1  0  0  0  0
 20 19  1  0  0  0  0
 21 20  1  0  0  0  0
 22 21  2  0  0  0  0
 23 21  1  1  0  0  0
 23 25  1  0  0  0  0
 23 24  1  0  0  0  0
 25 24  1  0  0  0  0
M  END
>  <MODEL>
7

>  <REMARK>
 VINA RESULT:      -9.2      3.053      5.443
  Name = 
  3 active torsions:
  status: ('A' for Active; 'I' for Inactive)
    1  A    between atoms: C_2  and  C_21
    2  A    between atoms: C_6  and  N_15
    3  A    between atoms: C_6  and  C_23
                            x       y       z     vdW  Elec       q    Type
                         _______ _______ _______ _____ _____    ______ ____

>  <TORSDO>
F 3

$$$$
=
 OpenBabel11052412403D

 25 29  0  0  1  0  0  0  0  0999 V2000
  188.8500  177.5160  145.0950 C   0  0  0  0  0  0  0  0  0  0  0  0
  187.5550  177.9380  144.4950 C   0  0  0  0  0  0  0  0  0  0  0  0
  187.8820  177.9560  147.3610 C   0  0  0  0  0  3  0  0  0  0  0  0
  189.7910  176.8140  144.4450 C   0  0  0  0  0  0  0  0  0  0  0  0
  191.6770  175.5800  144.2760 C   0  0  0  0  0  3  0  0  0  0  0  0
  186.6830  178.1160  146.7930 C   0  0  0  0  0  3  0  0  0  0  0  0
  191.1600  176.4850  146.5490 C   0  0  0  0  0  3  0  0  0  0  0  0
  190.9650  176.3140  145.1100 C   0  0  2  0  0  3  0  0  0  0  0  0
  185.1810  178.6780  144.7600 C   0  0  2  0  0  3  0  0  0  0  0  0
  184.0080  178.1180  145.5480 C   0  0  0  0  0  1  0  0  0  0  0  0
  187.3920  178.0120  142.9970 C   0  0  0  0  0  2  0  0  0  0  0  0
  190.9690  175.5990  142.9840 C   0  0  0  0  0  3  0  0  0  0  0  0
  189.1290  177.9490  146.5300 C   0  0  0  0  0  0  0  0  0  0  0  0
  190.2700  177.2250  147.2240 C   0  0  0  0  0  3  0  0  0  0  0  0
  185.0150  178.3180  143.3520 N   0  0  0  0  0  2  0  0  0  0  0  0
  189.8450  176.3120  143.0800 C   0  0  0  0  0  3  0  0  0  0  0  0
  186.1630  178.8220  142.6100 C   0  0  2  0  0  3  0  0  0  0  0  0
  186.5110  178.1970  145.3190 C   0  0  0  0  0  0  0  0  0  0  0  0
  185.9180  178.6860  141.1170 C   0  0  0  0  0  2  0  0  0  0  0  0
  187.1790  178.5020  140.4100 N   0  0  0  0  0  2  0  0  0  0  0  0
  187.2620  178.4320  138.9840 C   0  0  0  0  0  0  0  0  0  0  0  0
  186.2320  178.5990  138.2760 O   0  0  0  0  0  0  0  0  0  0  0  0
  188.5860  178.2060  138.3300 C   0  0  2  0  0  3  0  0  0  0  0  0
  188.9400  179.3800  137.5150 N   0  0  0  0  0  2  0  0  0  0  0  0
  188.4300  178.1580  136.8790 C   0  0  0  0  0  2  0  0  0  0  0  0
  1 13  1  0  0  0  0
  2  1  2  0  0  0  0
  2 18  1  0  0  0  0
  4  1  1  0  0  0  0
  4  8  1  0  0  0  0
  6  3  1  0  0  0  0
  7 14  2  0  0  0  0
  8  5  1  1  0  0  0
  8  7  1  0  0  0  0
  9 18  1  0  0  0  0
  9 10  1  1  0  0  0
 11  2  1  0  0  0  0
 12 16  1  0  0  0  0
 12  5  2  0  0  0  0
 13 14  1  0  0  0  0
 13  3  2  0  0  0  0
 15  9  1  0  0  0  0
 16  4  2  0  0  0  0
 17 19  1  6  0  0  0
 17 11  1  0  0  0  0
 17 15  1  0  0  0  0
 18  6  2  0  0  0  0
 20 19  1  0  0  0  0
 21 20  1  0  0  0  0
 22 21  2  0  0  0  0
 23 21  1  1  0  0  0
 24 23  1  0  0  0  0
 25 24  1  0  0  0  0
 25 23  1  0  0  0  0
M  END
>  <MODEL>
8

>  <REMARK>
 VINA RESULT:      -9.0      1.838      4.593
  Name = 
  3 active torsions:
  status: ('A' for Active; 'I' for Inactive)
    1  A    between atoms: C_2  and  C_21
    2  A    between atoms: C_6  and  N_15
    3  A    between atoms: C_6  and  C_23
                            x       y       z     vdW  Elec       q    Type
                         _______ _______ _______ _____ _____    ______ ____

>  <TORSDO>
F 3

$$$$
=
 OpenBabel11052412403D

 25 29  0  0  1  0  0  0  0  0999 V2000
  186.7830  178.3580  145.1650 C   0  0  0  0  0  0  0  0  0  0  0  0
  186.5050  178.3750  143.7030 C   0  0  0  0  0  0  0  0  0  0  0  0
  184.3620  178.8440  145.5760 C   0  0  0  0  0  3  0  0  0  0  0  0
  187.8820  177.8240  145.7190 C   0  0  0  0  0  0  0  0  0  0  0  0
  189.1570  177.0690  147.4260 C   0  0  0  0  0  3  0  0  0  0  0  0
  184.1230  178.6360  144.2780 C   0  0  0  0  0  3  0  0  0  0  0  0
  186.9750  178.1100  148.0660 C   0  0  0  0  0  3  0  0  0  0  0  0
  188.0400  177.7110  147.1450 C   0  0  0  0  0  0  0  0  0  0  0  0
  184.8860  178.5520  141.8050 C   0  0  2  0  0  3  0  0  0  0  0  0
  183.5840  177.8340  141.4900 C   0  0  0  0  0  1  0  0  0  0  0  0
  187.6260  178.2130  142.7070 C   0  0  0  0  0  2  0  0  0  0  0  0
  189.7970  176.7480  146.1370 C   0  0  0  0  0  3  0  0  0  0  0  0
  185.7620  179.0280  146.0780 C   0  0  1  0  0  3  0  0  0  0  0  0
  185.8840  178.6950  147.5550 C   0  0  0  0  0  3  0  0  0  0  0  0
  185.9480  177.9830  140.9760 N   0  0  0  0  0  2  0  0  0  0  0  0
  189.0420  177.1770  145.1240 C   0  0  0  0  0  3  0  0  0  0  0  0
  187.2000  178.6470  141.3120 C   0  0  2  0  0  3  0  0  0  0  0  0
  185.2190  178.4810  143.2870 C   0  0  0  0  0  0  0  0  0  0  0  0
  188.2780  178.2640  140.3130 C   0  0  0  0  0  2  0  0  0  0  0  0
  189.5810  178.2220  140.9620 N   0  0  0  0  0  2  0  0  0  0  0  0
  190.4810  177.1190  140.8200 C   0  0  0  0  0  0  0  0  0  0  0  0
  190.1940  176.1570  140.0570 O   0  0  0  0  0  0  0  0  0  0  0  0
  191.7860  177.1300  141.5450 C   0  0  2  0  0  3  0  0  0  0  0  0
  191.6240  176.4900  142.8610 N   0  0  0  0  0  2  0  0  0  0  0  0
  191.6880  177.9530  142.7480 C   0  0  0  0  0  2  0  0  0  0  0  0
  1  4  2  0  0  0  0
  1 13  1  0  0  0  0
  2  1  1  0  0  0  0
  4  8  1  0  0  0  0
  6  3  2  0  0  0  0
  8  5  2  0  0  0  0
  8  7  1  0  0  0  0
  9 10  1  1  0  0  0
  9 18  1  0  0  0  0
 11  2  1  0  0  0  0
 12  5  1  0  0  0  0
 13  3  1  6  0  0  0
 13 14  1  0  0  0  0
 14  7  2  0  0  0  0
 15 17  1  0  0  0  0
 15  9  1  0  0  0  0
 16  4  1  0  0  0  0
 16 12  2  0  0  0  0
 17 19  1  6  0  0  0
 17 11  1  0  0  0  0
 18  2  2  0  0  0  0
 18  6  1  0  0  0  0
 19 20  1  0  0  0  0
 21 20  1  0  0  0  0
 22 21  2  0  0  0  0
 23 21  1  6  0  0  0
 23 25  1  0  0  0  0
 23 24  1  0  0  0  0
 25 24  1  0  0  0  0
M  END
>  <MODEL>
9

>  <REMARK>
 VINA RESULT:      -9.0      1.610      4.569
  Name = 
  3 active torsions:
  status: ('A' for Active; 'I' for Inactive)
    1  A    between atoms: C_2  and  C_21
    2  A    between atoms: C_6  and  N_15
    3  A    between atoms: C_6  and  C_23
                            x       y       z     vdW  Elec       q    Type
                         _______ _______ _______ _____ _____    ______ ____

>  <TORSDO>
F 3

$$$$
