=
 OpenBabel11052412493D

 25 28  0  0  1  0  0  0  0  0999 V2000
  187.1680  177.8510  145.3410 C   0  0  0  0  0  0  0  0  0  0  0  0
  188.4470  177.4210  144.9310 C   0  0  0  0  0  0  0  0  0  0  0  0
  187.8490  177.7630  147.6840 C   0  0  0  0  0  3  0  0  0  0  0  0
  186.0490  178.1640  144.5450 C   0  0  0  0  0  0  0  0  0  0  0  0
  183.6400  178.8660  143.3090 C   0  0  0  0  0  3  0  0  0  0  0  0
  189.1210  177.3370  147.2870 C   0  0  0  0  0  3  0  0  0  0  0  0
  184.9430  178.5580  145.2970 C   0  0  0  0  0  0  0  0  0  0  0  0
  183.7330  178.9120  144.7070 C   0  0  0  0  0  3  0  0  0  0  0  0
  190.7090  176.7370  145.5210 C   0  0  0  0  0  0  0  0  0  0  0  0
  191.9810  176.4060  146.6900 Cl  0  0  0  0  0  0  0  0  0  0  0  0
  188.7760  177.2410  143.5840 C   0  0  0  0  0  3  0  0  0  0  0  0
  184.7460  178.4700  142.5340 C   0  0  0  0  0  3  0  0  0  0  0  0
  186.8970  178.0120  146.7010 C   0  0  0  0  0  0  0  0  0  0  0  0
  185.3110  178.5310  146.9400 S   0  0  0  0  0  0  0  0  0  0  0  0
  190.9840  176.5770  144.1990 N   0  0  0  0  0  0  0  0  0  0  0  0
  185.9570  178.1170  143.1490 C   0  0  0  0  0  3  0  0  0  0  0  0
  190.0540  176.8100  143.2340 C   0  0  0  0  0  0  0  0  0  0  0  0
  189.4310  177.1630  145.9240 C   0  0  0  0  0  0  0  0  0  0  0  0
  190.4140  176.6460  141.8000 C   0  0  0  0  0  2  0  0  0  0  0  0
  189.2820  177.0150  140.9670 N   0  0  0  0  0  2  0  0  0  0  0  0
  189.8170  177.6460  139.7720 C   0  0  1  0  0  3  0  0  0  0  0  0
  190.3130  176.5860  138.8030 C   0  0  0  0  0  1  0  0  0  0  0  0
  188.7690  178.4860  139.1230 C   0  0  0  0  0  0  0  0  0  0  0  0
  189.0610  179.2520  138.1660 O   0  0  0  0  0  0  0  0  0  0  0  0
  187.4280  178.4300  139.5980 N   0  0  0  0  0  1  0  0  0  0  0  0
  1 13  1  0  0  0  0
  2  1  2  0  0  0  0
  2 18  1  0  0  0  0
  4  7  1  0  0  0  0
  4  1  1  0  0  0  0
  5  8  1  0  0  0  0
  6  3  1  0  0  0  0
  7 14  1  0  0  0  0
  8  7  2  0  0  0  0
  9 18  1  0  0  0  0
  9 10  1  0  0  0  0
 11  2  1  0  0  0  0
 12 16  1  0  0  0  0
 12  5  2  0  0  0  0
 13 14  1  0  0  0  0
 13  3  2  0  0  0  0
 15  9  2  0  0  0  0
 16  4  2  0  0  0  0
 17 11  2  0  0  0  0
 17 15  1  0  0  0  0
 18  6  2  0  0  0  0
 19 17  1  0  0  0  0
 20 19  1  0  0  0  0
 21 22  1  6  0  0  0
 21 20  1  0  0  0  0
 23 25  1  0  0  0  0
 23 21  1  0  0  0  0
 24 23  2  0  0  0  0
M  END
>  <MODEL>
1

>  <REMARK>
 VINA RESULT:     -10.5      0.000      0.000
  Name = 
  4 active torsions:
  status: ('A' for Active; 'I' for Inactive)
    1  A    between atoms: C_2  and  C_21
    2  A    between atoms: C_6  and  N_15
    3  A    between atoms: C_6  and  C_23
    4  A    between atoms: N_15  and  C_21
                            x       y       z     vdW  Elec       q    Type
                         _______ _______ _______ _____ _____    ______ ____

>  <TORSDO>
F 4

$$$$
=
 OpenBabel11052412493D

 25 28  0  0  1  0  0  0  0  0999 V2000
  187.2520  177.8460  145.5830 C   0  0  0  0  0  0  0  0  0  0  0  0
  188.5340  177.3650  145.2450 C   0  0  0  0  0  0  0  0  0  0  0  0
  187.8560  177.8990  147.9480 C   0  0  0  0  0  3  0  0  0  0  0  0
  186.1650  178.1260  144.7310 C   0  0  0  0  0  0  0  0  0  0  0  0
  183.8120  178.7900  143.3740 C   0  0  0  0  0  3  0  0  0  0  0  0
  189.1310  177.4240  147.6220 C   0  0  0  0  0  3  0  0  0  0  0  0
  185.0450  178.5900  145.4200 C   0  0  0  0  0  0  0  0  0  0  0  0
  183.8620  178.9270  144.7690 C   0  0  0  0  0  3  0  0  0  0  0  0
  190.7620  176.6800  145.9520 C   0  0  0  0  0  0  0  0  0  0  0  0
  191.9880  176.4020  147.1820 Cl  0  0  0  0  0  0  0  0  0  0  0  0
  188.9020  177.0920  143.9230 C   0  0  0  0  0  3  0  0  0  0  0  0
  184.9340  178.3240  142.6630 C   0  0  0  0  0  3  0  0  0  0  0  0
  186.9410  178.1000  146.9200 C   0  0  0  0  0  0  0  0  0  0  0  0
  185.3590  178.6630  147.0720 S   0  0  0  0  0  0  0  0  0  0  0  0
  191.0750  176.4280  144.6530 N   0  0  0  0  0  0  0  0  0  0  0  0
  186.1170  177.9900  143.3390 C   0  0  0  0  0  3  0  0  0  0  0  0
  190.1820  176.6140  143.6450 C   0  0  0  0  0  0  0  0  0  0  0  0
  189.4800  177.1550  146.2840 C   0  0  0  0  0  0  0  0  0  0  0  0
  190.5830  176.3500  142.2380 C   0  0  0  0  0  2  0  0  0  0  0  0
  190.3300  177.5290  141.4270 N   0  0  0  0  0  2  0  0  0  0  0  0
  189.3460  177.1560  140.4240 C   0  0  1  0  0  3  0  0  0  0  0  0
  188.2540  178.2100  140.3520 C   0  0  0  0  0  1  0  0  0  0  0  0
  190.0030  177.0040  139.0930 C   0  0  0  0  0  0  0  0  0  0  0  0
  189.9500  177.9310  138.2410 O   0  0  0  0  0  0  0  0  0  0  0  0
  190.6870  175.7960  138.7800 N   0  0  0  0  0  1  0  0  0  0  0  0
  1 13  1  0  0  0  0
  2  1  2  0  0  0  0
  2 18  1  0  0  0  0
  4  7  1  0  0  0  0
  4  1  1  0  0  0  0
  5  8  1  0  0  0  0
  6  3  1  0  0  0  0
  7 14  1  0  0  0  0
  8  7  2  0  0  0  0
  9 18  1  0  0  0  0
  9 10  1  0  0  0  0
 11  2  1  0  0  0  0
 12 16  1  0  0  0  0
 12  5  2  0  0  0  0
 13 14  1  0  0  0  0
 13  3  2  0  0  0  0
 15  9  2  0  0  0  0
 16  4  2  0  0  0  0
 17 11  2  0  0  0  0
 17 15  1  0  0  0  0
 18  6  2  0  0  0  0
 19 17  1  0  0  0  0
 20 19  1  0  0  0  0
 21 22  1  6  0  0  0
 21 20  1  0  0  0  0
 23 21  1  0  0  0  0
 24 23  2  0  0  0  0
 25 23  1  0  0  0  0
M  END
>  <MODEL>
2

>  <REMARK>
 VINA RESULT:     -10.2      0.939      1.241
  Name = 
  4 active torsions:
  status: ('A' for Active; 'I' for Inactive)
    1  A    between atoms: C_2  and  C_21
    2  A    between atoms: C_6  and  N_15
    3  A    between atoms: C_6  and  C_23
    4  A    between atoms: N_15  and  C_21
                            x       y       z     vdW  Elec       q    Type
                         _______ _______ _______ _____ _____    ______ ____

>  <TORSDO>
F 4

$$$$
=
 OpenBabel11052412493D

 25 28  0  0  1  0  0  0  0  0999 V2000
  187.6500  177.7890  145.6800 C   0  0  0  0  0  0  0  0  0  0  0  0
  186.8530  178.1050  144.5590 C   0  0  0  0  0  0  0  0  0  0  0  0
  185.7820  178.2510  147.1830 C   0  0  0  0  0  3  0  0  0  0  0  0
  188.9980  177.3810  145.7140 C   0  0  0  0  0  0  0  0  0  0  0  0
  191.6280  176.5540  146.1790 C   0  0  0  0  0  3  0  0  0  0  0  0
  184.9840  178.5650  146.0770 C   0  0  0  0  0  3  0  0  0  0  0  0
  189.4610  177.1530  147.0090 C   0  0  0  0  0  0  0  0  0  0  0  0
  190.7650  176.7420  147.2680 C   0  0  0  0  0  3  0  0  0  0  0  0
  184.7050  178.8100  143.6550 C   0  0  0  0  0  0  0  0  0  0  0  0
  183.0240  179.2950  143.8350 Cl  0  0  0  0  0  0  0  0  0  0  0  0
  187.3500  178.0440  143.2530 C   0  0  0  0  0  3  0  0  0  0  0  0
  191.1780  176.7790  144.8650 C   0  0  0  0  0  3  0  0  0  0  0  0
  187.1000  177.8690  146.9610 C   0  0  0  0  0  0  0  0  0  0  0  0
  188.2400  177.4470  148.1300 S   0  0  0  0  0  0  0  0  0  0  0  0
  185.2290  178.7350  142.4030 N   0  0  0  0  0  0  0  0  0  0  0  0
  189.8580  177.1940  144.6260 C   0  0  0  0  0  3  0  0  0  0  0  0
  186.5200  178.3720  142.1810 C   0  0  0  0  0  0  0  0  0  0  0  0
  185.5040  178.4970  144.7690 C   0  0  0  0  0  0  0  0  0  0  0  0
  187.0380  178.2800  140.7900 C   0  0  0  0  0  2  0  0  0  0  0  0
  188.4900  178.3380  140.8040 N   0  0  0  0  0  2  0  0  0  0  0  0
  188.9600  177.5830  139.6530 C   0  0  1  0  0  3  0  0  0  0  0  0
  189.1470  178.5120  138.4660 C   0  0  0  0  0  1  0  0  0  0  0  0
  190.2460  176.8990  139.9800 C   0  0  0  0  0  0  0  0  0  0  0  0
  190.6700  175.9540  139.2620 O   0  0  0  0  0  0  0  0  0  0  0  0
  190.9930  177.3120  141.1180 N   0  0  0  0  0  1  0  0  0  0  0  0
  1  4  1  0  0  0  0
  1 13  2  0  0  0  0
  2 18  1  0  0  0  0
  2  1  1  0  0  0  0
  4  7  1  0  0  0  0
  5  8  1  0  0  0  0
  6  3  2  0  0  0  0
  7  8  2  0  0  0  0
  7 14  1  0  0  0  0
  9 10  1  0  0  0  0
  9 18  2  0  0  0  0
 11  2  2  0  0  0  0
 12  5  2  0  0  0  0
 13  3  1  0  0  0  0
 13 14  1  0  0  0  0
 15  9  1  0  0  0  0
 16 12  1  0  0  0  0
 16  4  2  0  0  0  0
 17 15  2  0  0  0  0
 17 11  1  0  0  0  0
 18  6  1  0  0  0  0
 19 20  1  0  0  0  0
 19 17  1  0  0  0  0
 21 22  1  6  0  0  0
 21 23  1  0  0  0  0
 21 20  1  0  0  0  0
 23 25  1  0  0  0  0
 24 23  2  0  0  0  0
M  END
>  <MODEL>
3

>  <REMARK>
 VINA RESULT:     -10.0      2.563      4.734
  Name = 
  4 active torsions:
  status: ('A' for Active; 'I' for Inactive)
    1  A    between atoms: C_2  and  C_21
    2  A    between atoms: C_6  and  N_15
    3  A    between atoms: C_6  and  C_23
    4  A    between atoms: N_15  and  C_21
                            x       y       z     vdW  Elec       q    Type
                         _______ _______ _______ _____ _____    ______ ____

>  <TORSDO>
F 4

$$$$
=
 OpenBabel11052412493D

 25 28  0  0  1  0  0  0  0  0999 V2000
  188.0080  177.5850  145.4570 C   0  0  0  0  0  0  0  0  0  0  0  0
  187.3730  177.8900  144.2340 C   0  0  0  0  0  0  0  0  0  0  0  0
  185.9490  178.0500  146.6840 C   0  0  0  0  0  3  0  0  0  0  0  0
  189.3400  177.1830  145.6790 C   0  0  0  0  0  0  0  0  0  0  0  0
  191.8840  176.3710  146.5090 C   0  0  0  0  0  3  0  0  0  0  0  0
  185.3110  178.3520  145.4760 C   0  0  0  0  0  3  0  0  0  0  0  0
  189.6210  176.9670  147.0270 C   0  0  0  0  0  0  0  0  0  0  0  0
  190.8780  176.5630  147.4670 C   0  0  0  0  0  3  0  0  0  0  0  0
  185.3670  178.5780  143.0380 C   0  0  0  0  0  0  0  0  0  0  0  0
  183.6760  179.0570  142.9800 Cl  0  0  0  0  0  0  0  0  0  0  0  0
  188.0450  177.8220  143.0100 C   0  0  0  0  0  3  0  0  0  0  0  0
  191.6180  176.5850  145.1440 C   0  0  0  0  0  3  0  0  0  0  0  0
  187.2870  177.6720  146.6490 C   0  0  0  0  0  0  0  0  0  0  0  0
  188.2560  177.2630  147.9670 S   0  0  0  0  0  0  0  0  0  0  0  0
  186.0590  178.4970  141.8700 N   0  0  0  0  0  0  0  0  0  0  0  0
  190.3430  176.9920  144.7220 C   0  0  0  0  0  3  0  0  0  0  0  0
  187.3700  178.1380  141.8310 C   0  0  0  0  0  0  0  0  0  0  0  0
  186.0060  178.2770  144.2530 C   0  0  0  0  0  0  0  0  0  0  0  0
  188.0750  178.0380  140.5250 C   0  0  0  0  0  2  0  0  0  0  0  0
  187.2030  178.5060  139.4620 N   0  0  0  0  0  2  0  0  0  0  0  0
  187.6070  177.8240  138.2440 C   0  0  1  0  0  3  0  0  0  0  0  0
  186.5020  177.9180  137.2050 C   0  0  0  0  0  1  0  0  0  0  0  0
  188.8650  178.4260  137.7120 C   0  0  0  0  0  0  0  0  0  0  0  0
  188.9440  179.6660  137.5010 O   0  0  0  0  0  0  0  0  0  0  0  0
  189.9810  177.5900  137.4320 N   0  0  0  0  0  1  0  0  0  0  0  0
  1  4  1  0  0  0  0
  1 13  2  0  0  0  0
  2 18  1  0  0  0  0
  2  1  1  0  0  0  0
  4  7  1  0  0  0  0
  5  8  1  0  0  0  0
  6  3  2  0  0  0  0
  7  8  2  0  0  0  0
  7 14  1  0  0  0  0
  9 18  2  0  0  0  0
 10  9  1  0  0  0  0
 11  2  2  0  0  0  0
 12  5  2  0  0  0  0
 13  3  1  0  0  0  0
 13 14  1  0  0  0  0
 15  9  1  0  0  0  0
 16 12  1  0  0  0  0
 16  4  2  0  0  0  0
 17 15  2  0  0  0  0
 17 11  1  0  0  0  0
 18  6  1  0  0  0  0
 19 17  1  0  0  0  0
 20 19  1  0  0  0  0
 21 22  1  6  0  0  0
 21 20  1  0  0  0  0
 23 21  1  0  0  0  0
 24 23  2  0  0  0  0
 25 23  1  0  0  0  0
M  END
>  <MODEL>
4

>  <REMARK>
 VINA RESULT:      -9.9      2.689      4.712
  Name = 
  4 active torsions:
  status: ('A' for Active; 'I' for Inactive)
    1  A    between atoms: C_2  and  C_21
    2  A    between atoms: C_6  and  N_15
    3  A    between atoms: C_6  and  C_23
    4  A    between atoms: N_15  and  C_21
                            x       y       z     vdW  Elec       q    Type
                         _______ _______ _______ _____ _____    ______ ____

>  <TORSDO>
F 4

$$$$
=
 OpenBabel11052412493D

 25 28  0  0  1  0  0  0  0  0999 V2000
  186.9090  177.8970  144.9680 C   0  0  0  0  0  0  0  0  0  0  0  0
  188.1120  177.5000  144.3480 C   0  0  0  0  0  0  0  0  0  0  0  0
  187.9340  177.6890  147.1740 C   0  0  0  0  0  3  0  0  0  0  0  0
  185.6830  178.2440  144.3660 C   0  0  0  0  0  0  0  0  0  0  0  0
  183.1160  178.9910  143.5470 C   0  0  0  0  0  3  0  0  0  0  0  0
  189.1320  177.2950  146.5670 C   0  0  0  0  0  3  0  0  0  0  0  0
  184.7030  178.5880  145.2970 C   0  0  0  0  0  0  0  0  0  0  0  0
  183.4180  178.9630  144.9150 C   0  0  0  0  0  3  0  0  0  0  0  0
  190.4370  176.8040  144.5530 C   0  0  0  0  0  0  0  0  0  0  0  0
  191.8690  176.4200  145.4980 Cl  0  0  0  0  0  0  0  0  0  0  0  0
  188.2340  177.3960  142.9580 C   0  0  0  0  0  3  0  0  0  0  0  0
  184.0920  178.6470  142.5930 C   0  0  0  0  0  3  0  0  0  0  0  0
  186.8450  177.9820  146.3600 C   0  0  0  0  0  0  0  0  0  0  0  0
  185.3130  178.4750  146.8620 S   0  0  0  0  0  0  0  0  0  0  0  0
  190.5100  176.7170  143.1980 N   0  0  0  0  0  0  0  0  0  0  0  0
  185.3820  178.2710  142.9990 C   0  0  0  0  0  3  0  0  0  0  0  0
  189.4460  176.9940  142.3980 C   0  0  0  0  0  0  0  0  0  0  0  0
  189.2330  177.1970  145.1660 C   0  0  0  0  0  0  0  0  0  0  0  0
  189.5860  176.9110  140.9200 C   0  0  0  0  0  2  0  0  0  0  0  0
  190.9610  177.1860  140.5430 N   0  0  0  0  0  2  0  0  0  0  0  0
  191.1750  176.5900  139.2330 C   0  0  1  0  0  3  0  0  0  0  0  0
  190.2050  177.1870  138.2280 C   0  0  0  0  0  1  0  0  0  0  0  0
  192.5820  176.8170  138.7900 C   0  0  0  0  0  0  0  0  0  0  0  0
  192.9080  176.6560  137.5830 O   0  0  0  0  0  0  0  0  0  0  0  0
  193.5640  177.2090  139.7410 N   0  0  0  0  0  1  0  0  0  0  0  0
  1 13  1  0  0  0  0
  2  1  2  0  0  0  0
  2 18  1  0  0  0  0
  4  1  1  0  0  0  0
  4  7  1  0  0  0  0
  5  8  1  0  0  0  0
  6  3  1  0  0  0  0
  7 14  1  0  0  0  0
  8  7  2  0  0  0  0
  9 18  1  0  0  0  0
  9 10  1  0  0  0  0
 11  2  1  0  0  0  0
 12 16  1  0  0  0  0
 12  5  2  0  0  0  0
 13 14  1  0  0  0  0
 13  3  2  0  0  0  0
 15  9  2  0  0  0  0
 16  4  2  0  0  0  0
 17 11  2  0  0  0  0
 17 15  1  0  0  0  0
 18  6  2  0  0  0  0
 19 17  1  0  0  0  0
 20 19  1  0  0  0  0
 21 22  1  6  0  0  0
 21 20  1  0  0  0  0
 23 21  1  0  0  0  0
 23 25  1  0  0  0  0
 24 23  2  0  0  0  0
M  END
>  <MODEL>
5

>  <REMARK>
 VINA RESULT:      -9.7      1.580      1.962
  Name = 
  4 active torsions:
  status: ('A' for Active; 'I' for Inactive)
    1  A    between atoms: C_2  and  C_21
    2  A    between atoms: C_6  and  N_15
    3  A    between atoms: C_6  and  C_23
    4  A    between atoms: N_15  and  C_21
                            x       y       z     vdW  Elec       q    Type
                         _______ _______ _______ _____ _____    ______ ____

>  <TORSDO>
F 4

$$$$
=
 OpenBabel11052412493D

 25 28  0  0  1  0  0  0  0  0999 V2000
  187.7330  177.7890  145.6300 C   0  0  0  0  0  0  0  0  0  0  0  0
  186.9830  178.1030  144.4770 C   0  0  0  0  0  0  0  0  0  0  0  0
  185.8130  178.2720  147.0570 C   0  0  0  0  0  3  0  0  0  0  0  0
  189.0760  177.3710  145.7170 C   0  0  0  0  0  0  0  0  0  0  0  0
  191.6810  176.5290  146.2880 C   0  0  0  0  0  3  0  0  0  0  0  0
  185.0600  178.5850  145.9200 C   0  0  0  0  0  3  0  0  0  0  0  0
  189.4880  177.1480  147.0300 C   0  0  0  0  0  0  0  0  0  0  0  0
  190.7780  176.7300  147.3420 C   0  0  0  0  0  3  0  0  0  0  0  0
  184.8750  178.8160  143.4880 C   0  0  0  0  0  0  0  0  0  0  0  0
  183.1920  179.3150  143.6000 Cl  0  0  0  0  0  0  0  0  0  0  0  0
  187.5280  178.0310  143.1920 C   0  0  0  0  0  3  0  0  0  0  0  0
  191.2830  176.7490  144.9560 C   0  0  0  0  0  3  0  0  0  0  0  0
  187.1360  177.8800  146.8880 C   0  0  0  0  0  0  0  0  0  0  0  0
  188.2270  177.4570  148.1020 S   0  0  0  0  0  0  0  0  0  0  0  0
  185.4460  178.7310  142.2570 N   0  0  0  0  0  0  0  0  0  0  0  0
  189.9760  177.1710  144.6640 C   0  0  0  0  0  3  0  0  0  0  0  0
  186.7430  178.3570  142.0870 C   0  0  0  0  0  0  0  0  0  0  0  0
  185.6290  178.5060  144.6330 C   0  0  0  0  0  0  0  0  0  0  0  0
  187.3120  178.2530  140.7170 C   0  0  0  0  0  2  0  0  0  0  0  0
  188.4710  177.3770  140.7350 N   0  0  0  0  0  2  0  0  0  0  0  0
  189.5280  178.0470  139.9950 C   0  0  1  0  0  3  0  0  0  0  0  0
  190.8140  177.2440  140.0850 C   0  0  0  0  0  1  0  0  0  0  0  0
  189.1260  178.2180  138.5680 C   0  0  0  0  0  0  0  0  0  0  0  0
  189.0530  179.3660  138.0540 O   0  0  0  0  0  0  0  0  0  0  0  0
  188.8120  177.0720  137.7840 N   0  0  0  0  0  1  0  0  0  0  0  0
  1  4  1  0  0  0  0
  1 13  2  0  0  0  0
  2 18  1  0  0  0  0
  2  1  1  0  0  0  0
  4  7  1  0  0  0  0
  5  8  1  0  0  0  0
  6  3  2  0  0  0  0
  7  8  2  0  0  0  0
  7 14  1  0  0  0  0
  9 10  1  0  0  0  0
  9 18  2  0  0  0  0
 11  2  2  0  0  0  0
 12  5  2  0  0  0  0
 13  3  1  0  0  0  0
 13 14  1  0  0  0  0
 15  9  1  0  0  0  0
 16 12  1  0  0  0  0
 16  4  2  0  0  0  0
 17 15  2  0  0  0  0
 17 11  1  0  0  0  0
 18  6  1  0  0  0  0
 19 20  1  0  0  0  0
 19 17  1  0  0  0  0
 21 22  1  6  0  0  0
 21 20  1  0  0  0  0
 23 21  1  0  0  0  0
 24 23  2  0  0  0  0
 25 23  1  0  0  0  0
M  END
>  <MODEL>
6

>  <REMARK>
 VINA RESULT:      -9.7      2.469      4.575
  Name = 
  4 active torsions:
  status: ('A' for Active; 'I' for Inactive)
    1  A    between atoms: C_2  and  C_21
    2  A    between atoms: C_6  and  N_15
    3  A    between atoms: C_6  and  C_23
    4  A    between atoms: N_15  and  C_21
                            x       y       z     vdW  Elec       q    Type
                         _______ _______ _______ _____ _____    ______ ____

>  <TORSDO>
F 4

$$$$
=
 OpenBabel11052412493D

 25 28  0  0  1  0  0  0  0  0999 V2000
  186.9490  177.9820  145.1130 C   0  0  0  0  0  0  0  0  0  0  0  0
  186.0440  178.2730  144.0710 C   0  0  0  0  0  0  0  0  0  0  0  0
  185.1990  178.3280  146.7800 C   0  0  0  0  0  3  0  0  0  0  0  0
  188.3130  177.6410  145.0230 C   0  0  0  0  0  0  0  0  0  0  0  0
  191.0110  176.9410  145.2440 C   0  0  0  0  0  3  0  0  0  0  0  0
  184.2940  178.6170  145.7530 C   0  0  0  0  0  3  0  0  0  0  0  0
  188.8980  177.4190  146.2680 C   0  0  0  0  0  0  0  0  0  0  0  0
  190.2390  177.0700  146.4060 C   0  0  0  0  0  3  0  0  0  0  0  0
  183.7920  178.8810  143.3700 C   0  0  0  0  0  0  0  0  0  0  0  0
  182.1120  179.2790  143.7030 Cl  0  0  0  0  0  0  0  0  0  0  0  0
  186.4260  178.2550  142.7260 C   0  0  0  0  0  3  0  0  0  0  0  0
  190.4380  177.1620  143.9780 C   0  0  0  0  0  3  0  0  0  0  0  0
  186.5110  178.0160  146.4380 C   0  0  0  0  0  0  0  0  0  0  0  0
  187.7670  177.6350  147.4960 S   0  0  0  0  0  0  0  0  0  0  0  0
  184.2080  178.8510  142.0760 N   0  0  0  0  0  0  0  0  0  0  0  0
  189.0840  177.5130  143.8610 C   0  0  0  0  0  3  0  0  0  0  0  0
  185.4920  178.5550  141.7360 C   0  0  0  0  0  0  0  0  0  0  0  0
  184.7000  178.5940  144.4040 C   0  0  0  0  0  0  0  0  0  0  0  0
  185.8900  178.5090  140.3040 C   0  0  0  0  0  2  0  0  0  0  0  0
  187.3340  178.6170  140.1950 N   0  0  0  0  0  2  0  0  0  0  0  0
  187.7230  177.9380  138.9690 C   0  0  1  0  0  3  0  0  0  0  0  0
  186.6550  178.1330  137.9070 C   0  0  0  0  0  1  0  0  0  0  0  0
  189.0330  178.4650  138.4850 C   0  0  0  0  0  0  0  0  0  0  0  0
  190.1150  177.9570  138.8820 O   0  0  0  0  0  0  0  0  0  0  0  0
  189.0580  179.5590  137.5750 N   0  0  0  0  0  1  0  0  0  0  0  0
  1 13  2  0  0  0  0
  2 18  1  0  0  0  0
  2  1  1  0  0  0  0
  4  1  1  0  0  0  0
  4  7  1  0  0  0  0
  5  8  1  0  0  0  0
  6  3  2  0  0  0  0
  7  8  2  0  0  0  0
  7 14  1  0  0  0  0
  9 10  1  0  0  0  0
  9 18  2  0  0  0  0
 11  2  2  0  0  0  0
 12  5  2  0  0  0  0
 13  3  1  0  0  0  0
 13 14  1  0  0  0  0
 15  9  1  0  0  0  0
 16 12  1  0  0  0  0
 16  4  2  0  0  0  0
 17 15  2  0  0  0  0
 17 11  1  0  0  0  0
 18  6  1  0  0  0  0
 19 17  1  0  0  0  0
 20 19  1  0  0  0  0
 21 22  1  6  0  0  0
 21 20  1  0  0  0  0
 23 24  2  0  0  0  0
 23 21  1  0  0  0  0
 25 23  1  0  0  0  0
M  END
>  <MODEL>
7

>  <REMARK>
 VINA RESULT:      -9.7      2.755      4.837
  Name = 
  4 active torsions:
  status: ('A' for Active; 'I' for Inactive)
    1  A    between atoms: C_2  and  C_21
    2  A    between atoms: C_6  and  N_15
    3  A    between atoms: C_6  and  C_23
    4  A    between atoms: N_15  and  C_21
                            x       y       z     vdW  Elec       q    Type
                         _______ _______ _______ _____ _____    ______ ____

>  <TORSDO>
F 4

$$$$
=
 OpenBabel11052412493D

 25 28  0  0  1  0  0  0  0  0999 V2000
  185.9970  178.3450  144.4050 C   0  0  0  0  0  0  0  0  0  0  0  0
  185.9610  178.4700  143.0010 C   0  0  0  0  0  0  0  0  0  0  0  0
  183.6180  178.8760  144.5500 C   0  0  0  0  0  3  0  0  0  0  0  0
  187.0920  178.0270  145.2320 C   0  0  0  0  0  0  0  0  0  0  0  0
  189.0090  177.4260  147.1780 C   0  0  0  0  0  3  0  0  0  0  0  0
  183.5720  179.0010  143.1570 C   0  0  0  0  0  3  0  0  0  0  0  0
  186.7560  177.9910  146.5840 C   0  0  0  0  0  0  0  0  0  0  0  0
  187.6910  177.6950  147.5730 C   0  0  0  0  0  3  0  0  0  0  0  0
  184.6860  178.9240  140.9760 C   0  0  0  0  0  0  0  0  0  0  0  0
  183.1960  179.3250  140.1320 Cl  0  0  0  0  0  0  0  0  0  0  0  0
  187.0960  178.2780  142.2070 C   0  0  0  0  0  3  0  0  0  0  0  0
  189.3660  177.4590  145.8170 C   0  0  0  0  0  3  0  0  0  0  0  0
  184.8310  178.5500  145.1470 C   0  0  0  0  0  0  0  0  0  0  0  0
  185.1240  178.3470  146.7940 S   0  0  0  0  0  0  0  0  0  0  0  0
  185.8150  178.7270  140.2450 N   0  0  0  0  0  0  0  0  0  0  0  0
  188.4080  177.7590  144.8360 C   0  0  0  0  0  3  0  0  0  0  0  0
  187.0060  178.4180  140.8230 C   0  0  0  0  0  0  0  0  0  0  0  0
  184.7280  178.8020  142.3760 C   0  0  0  0  0  0  0  0  0  0  0  0
  188.2050  178.1860  139.9760 C   0  0  0  0  0  2  0  0  0  0  0  0
  189.4000  178.2130  140.8020 N   0  0  0  0  0  2  0  0  0  0  0  0
  189.9990  176.8900  140.7340 C   0  0  1  0  0  3  0  0  0  0  0  0
  191.0580  176.8550  139.6440 C   0  0  0  0  0  1  0  0  0  0  0  0
  190.6040  176.5320  142.0510 C   0  0  0  0  0  0  0  0  0  0  0  0
  190.2600  175.4790  142.6500 O   0  0  0  0  0  0  0  0  0  0  0  0
  191.5690  177.3960  142.6390 N   0  0  0  0  0  1  0  0  0  0  0  0
  1 13  2  0  0  0  0
  1  4  1  0  0  0  0
  2  1  1  0  0  0  0
  3 13  1  0  0  0  0
  4  7  1  0  0  0  0
  5  8  1  0  0  0  0
  6  3  2  0  0  0  0
  7 14  1  0  0  0  0
  7  8  2  0  0  0  0
  9 18  2  0  0  0  0
 10  9  1  0  0  0  0
 11  2  2  0  0  0  0
 12  5  2  0  0  0  0
 13 14  1  0  0  0  0
 15 17  2  0  0  0  0
 15  9  1  0  0  0  0
 16  4  2  0  0  0  0
 16 12  1  0  0  0  0
 17 11  1  0  0  0  0
 18  2  1  0  0  0  0
 18  6  1  0  0  0  0
 19 20  1  0  0  0  0
 19 17  1  0  0  0  0
 21 22  1  6  0  0  0
 21 20  1  0  0  0  0
 21 23  1  0  0  0  0
 23 25  1  0  0  0  0
 23 24  2  0  0  0  0
M  END
>  <MODEL>
8

>  <REMARK>
 VINA RESULT:      -9.6      2.744      4.950
  Name = 
  4 active torsions:
  status: ('A' for Active; 'I' for Inactive)
    1  A    between atoms: C_2  and  C_21
    2  A    between atoms: C_6  and  N_15
    3  A    between atoms: C_6  and  C_23
    4  A    between atoms: N_15  and  C_21
                            x       y       z     vdW  Elec       q    Type
                         _______ _______ _______ _____ _____    ______ ____

>  <TORSDO>
F 4

$$$$
=
 OpenBabel11052412493D

 25 28  0  0  1  0  0  0  0  0999 V2000
  186.3490  178.2480  144.3030 C   0  0  0  0  0  0  0  0  0  0  0  0
  186.4370  178.3750  142.9010 C   0  0  0  0  0  0  0  0  0  0  0  0
  183.9920  178.8820  144.2500 C   0  0  0  0  0  3  0  0  0  0  0  0
  187.3560  177.8810  145.2180 C   0  0  0  0  0  0  0  0  0  0  0  0
  189.0740  177.1970  147.3150 C   0  0  0  0  0  3  0  0  0  0  0  0
  184.0690  179.0090  142.8590 C   0  0  0  0  0  3  0  0  0  0  0  0
  186.9060  177.8600  146.5370 C   0  0  0  0  0  0  0  0  0  0  0  0
  187.7400  177.5230  147.5990 C   0  0  0  0  0  3  0  0  0  0  0  0
  185.3580  178.8850  140.7780 C   0  0  0  0  0  0  0  0  0  0  0  0
  183.9630  179.3510  139.8130 Cl  0  0  0  0  0  0  0  0  0  0  0  0
  187.6250  178.1330  142.2050 C   0  0  0  0  0  3  0  0  0  0  0  0
  189.5460  177.2140  145.9900 C   0  0  0  0  0  3  0  0  0  0  0  0
  185.1350  178.5030  144.9450 C   0  0  0  0  0  0  0  0  0  0  0  0
  185.2790  178.2860  146.6100 S   0  0  0  0  0  0  0  0  0  0  0  0
  186.5350  178.6390  140.1440 N   0  0  0  0  0  0  0  0  0  0  0  0
  188.6880  177.5560  144.9330 C   0  0  0  0  0  3  0  0  0  0  0  0
  187.6580  178.2780  140.8190 C   0  0  0  0  0  0  0  0  0  0  0  0
  185.2770  178.7610  142.1770 C   0  0  0  0  0  0  0  0  0  0  0  0
  188.9140  177.9930  140.0750 C   0  0  0  0  0  2  0  0  0  0  0  0
  189.0240  178.8940  138.9400 N   0  0  0  0  0  2  0  0  0  0  0  0
  189.3020  178.0780  137.7700 C   0  0  1  0  0  3  0  0  0  0  0  0
  189.9860  176.7880  138.1880 C   0  0  0  0  0  1  0  0  0  0  0  0
  188.0340  177.7770  137.0420 C   0  0  0  0  0  0  0  0  0  0  0  0
  187.5170  178.6320  136.2740 O   0  0  0  0  0  0  0  0  0  0  0  0
  187.4000  176.5170  137.2270 N   0  0  0  0  0  1  0  0  0  0  0  0
  1 13  2  0  0  0  0
  1  4  1  0  0  0  0
  2  1  1  0  0  0  0
  3 13  1  0  0  0  0
  4  7  1  0  0  0  0
  5  8  1  0  0  0  0
  6  3  2  0  0  0  0
  7 14  1  0  0  0  0
  7  8  2  0  0  0  0
  9 18  1  0  0  0  0
 10  9  1  0  0  0  0
 11  2  1  0  0  0  0
 12  5  2  0  0  0  0
 13 14  1  0  0  0  0
 15  9  2  0  0  0  0
 15 17  1  0  0  0  0
 16  4  2  0  0  0  0
 16 12  1  0  0  0  0
 17 11  2  0  0  0  0
 18  6  1  0  0  0  0
 18  2  2  0  0  0  0
 19 17  1  0  0  0  0
 20 19  1  0  0  0  0
 21 22  1  1  0  0  0
 21 20  1  0  0  0  0
 23 25  1  0  0  0  0
 23 21  1  0  0  0  0
 24 23  2  0  0  0  0
M  END
>  <MODEL>
9

>  <REMARK>
 VINA RESULT:      -9.3      2.782      4.616
  Name = 
  4 active torsions:
  status: ('A' for Active; 'I' for Inactive)
    1  A    between atoms: C_2  and  C_21
    2  A    between atoms: C_6  and  N_15
    3  A    between atoms: C_6  and  C_23
    4  A    between atoms: N_15  and  C_21
                            x       y       z     vdW  Elec       q    Type
                         _______ _______ _______ _____ _____    ______ ____

>  <TORSDO>
F 4

$$$$
