=
 OpenBabel11052416563D

 32 37  0  0  1  0  0  0  0  0999 V2000
  189.0870  178.2440  138.5210 C   0  0  2  0  0  3  0  0  0  0  0  0
  188.2940  177.1850  142.5620 C   0  0  0  0  0  0  0  0  0  0  0  0
  183.9760  179.3690  142.3810 C   0  0  0  0  0  3  0  0  0  0  0  0
  183.7880  179.0140  143.7170 C   0  0  0  0  0  3  0  0  0  0  0  0
  189.7220  177.1160  140.6780 C   0  0  2  0  0  3  0  0  0  0  0  0
  187.6090  178.2120  140.5140 N   0  0  0  0  0  0  0  0  0  0  0  0
  189.4230  179.5850  138.5080 F   0  0  0  0  0  0  0  0  0  0  0  0
  185.1570  179.0030  141.7350 C   0  0  0  0  0  3  0  0  0  0  0  0
  187.3410  177.9030  141.8130 C   0  0  2  0  0  3  0  0  0  0  0  0
  186.1400  178.2860  142.4270 C   0  0  0  0  0  0  0  0  0  0  0  0
  186.8920  177.2260  144.4830 C   0  0  0  0  0  0  0  0  0  0  0  0
  191.1610  176.8640  138.7390 C   0  0  0  0  0  0  0  0  0  0  0  0
  188.7730  177.8280  139.9290 C   0  0  0  0  0  0  0  0  0  0  0  0
  190.9710  176.6790  140.0500 C   0  0  0  0  0  3  0  0  0  0  0  0
  190.1640  177.4800  137.9650 O   0  0  0  0  0  0  0  0  0  0  0  0
  184.7480  178.3180  144.3830 N   0  0  0  0  0  0  0  0  0  0  0  0
  185.9110  177.9450  143.7790 C   0  0  0  0  0  0  0  0  0  0  0  0
  189.4610  176.8100  141.9760 N   0  0  0  0  0  0  0  0  0  0  0  0
  188.0480  176.8690  143.8600 N   0  0  0  0  0  0  0  0  0  0  0  0
  192.3920  176.3990  138.0800 C   0  0  0  0  0  0  0  0  0  0  0  0
  193.5550  176.7530  138.5290 N   0  0  0  0  0  2  0  0  0  0  0  0
  192.2870  175.5680  136.9600 O   0  0  0  0  0  0  0  0  0  0  0  0
  191.9020  174.2040  137.0570 C   0  0  0  0  0  1  0  0  0  0  0  0
  186.6790  176.8240  145.9080 C   0  0  0  0  0  2  0  0  0  0  0  0
  191.4260  176.7530  146.5280 C   0  0  0  0  0  1  0  0  0  0  0  0
  189.0010  176.6840  147.0000 C   0  0  2  0  0  3  0  0  0  0  0  0
  187.6020  178.4570  147.6380 C   0  0  0  0  0  0  0  0  0  0  0  0
  188.6750  178.6090  148.3860 C   0  0  0  0  0  3  0  0  0  0  0  0
  189.6700  177.5180  148.0930 C   0  0  2  0  0  3  0  0  0  0  0  0
  190.1720  177.5900  146.6590 C   0  0  1  0  0  3  0  0  0  0  0  0
  186.4300  179.3740  147.6720 C   0  0  0  0  0  1  0  0  0  0  0  0
  187.7390  177.3630  146.7490 N   0  0  0  0  0  0  0  0  0  0  0  0
  1  7  1  1  0  0  0
  1 13  1  0  0  0  0
  2 19  1  0  0  0  0
  3  4  1  0  0  0  0
  4 16  2  0  0  0  0
  5 14  1  6  0  0  0
  5 18  1  0  0  0  0
  8  3  2  0  0  0  0
  8 10  1  0  0  0  0
  9  6  1  1  0  0  0
  9 10  1  0  0  0  0
  9  2  1  0  0  0  0
 10 17  2  0  0  0  0
 11 24  1  0  0  0  0
 12 14  2  0  0  0  0
 13  6  2  0  0  0  0
 13  5  1  0  0  0  0
 15  1  1  0  0  0  0
 15 12  1  0  0  0  0
 17 16  1  0  0  0  0
 17 11  1  0  0  0  0
 18  2  2  0  0  0  0
 19 11  2  0  0  0  0
 20 21  2  0  0  0  0
 20 12  1  0  0  0  0
 22 23  1  0  0  0  0
 22 20  1  0  0  0  0
 24 32  1  0  0  0  0
 26 32  1  6  0  0  0
 26 29  1  0  0  0  0
 27 31  1  0  0  0  0
 27 28  2  0  0  0  0
 29 28  1  6  0  0  0
 30 25  1  1  0  0  0
 30 26  1  0  0  0  0
 30 29  1  0  0  0  0
 32 27  1  0  0  0  0
M  END
>  <MODEL>
1

>  <REMARK>
 VINA RESULT:      -8.8      0.000      0.000
  Name = 
  4 active torsions:
  status: ('A' for Active; 'I' for Inactive)
    1  A    between atoms: C_1  and  O_10
    2  A    between atoms: C_1  and  C_19
    3  A    between atoms: C_16  and  C_27
    4  A    between atoms: C_27  and  N_32
                            x       y       z     vdW  Elec       q    Type
                         _______ _______ _______ _____ _____    ______ ____

>  <TORSDO>
F 4

$$$$
=
 OpenBabel11052416563D

 32 37  0  0  1  0  0  0  0  0999 V2000
  183.7710  178.4130  144.7330 C   0  0  2  0  0  3  0  0  0  0  0  0
  186.2380  178.5620  141.2720 C   0  0  0  0  0  0  0  0  0  0  0  0
  190.0450  176.9720  143.8080 C   0  0  0  0  0  3  0  0  0  0  0  0
  190.8070  177.0700  142.6440 C   0  0  0  0  0  3  0  0  0  0  0  0
  184.1170  178.8490  142.2790 C   0  0  2  0  0  3  0  0  0  0  0  0
  185.9470  178.0640  143.5930 N   0  0  0  0  0  0  0  0  0  0  0  0
  184.0950  179.5070  145.5140 F   0  0  0  0  0  0  0  0  0  0  0  0
  188.6940  177.3210  143.7730 C   0  0  0  0  0  3  0  0  0  0  0  0
  186.7630  178.1220  142.5040 C   0  0  2  0  0  3  0  0  0  0  0  0
  188.1150  177.7620  142.5770 C   0  0  0  0  0  0  0  0  0  0  0  0
  188.3500  178.2870  140.2140 C   0  0  0  0  0  0  0  0  0  0  0  0
  181.8800  179.0060  143.2070 C   0  0  0  0  0  0  0  0  0  0  0  0
  184.6360  178.4090  143.5050 C   0  0  0  0  0  0  0  0  0  0  0  0
  182.7000  179.2030  142.1700 C   0  0  0  0  0  3  0  0  0  0  0  0
  182.3770  178.4620  144.4030 O   0  0  0  0  0  0  0  0  0  0  0  0
  190.2380  177.5000  141.4860 N   0  0  0  0  0  0  0  0  0  0  0  0
  188.9220  177.8450  141.4190 C   0  0  0  0  0  0  0  0  0  0  0  0
  184.9280  178.9150  141.1900 N   0  0  0  0  0  0  0  0  0  0  0  0
  187.0340  178.6320  140.1730 N   0  0  0  0  0  0  0  0  0  0  0  0
  180.4450  179.3190  143.1070 C   0  0  0  0  0  0  0  0  0  0  0  0
  179.5530  178.4020  143.3190 N   0  0  0  0  0  2  0  0  0  0  0  0
  180.0580  180.6220  142.7790 O   0  0  0  0  0  0  0  0  0  0  0  0
  179.3060  180.9210  141.6110 C   0  0  0  0  0  1  0  0  0  0  0  0
  189.1620  178.3670  138.9610 C   0  0  0  0  0  2  0  0  0  0  0  0
  186.3620  176.4950  135.5570 C   0  0  0  0  0  1  0  0  0  0  0  0
  187.6830  176.7380  137.6320 C   0  0  2  0  0  3  0  0  0  0  0  0
  189.9180  176.1250  138.0020 C   0  0  0  0  0  0  0  0  0  0  0  0
  189.4050  175.0970  137.3600 C   0  0  0  0  0  3  0  0  0  0  0  0
  187.9500  175.3430  137.0640 C   0  0  2  0  0  3  0  0  0  0  0  0
  187.7640  176.5290  136.1290 C   0  0  1  0  0  3  0  0  0  0  0  0
  191.3400  176.2090  138.4340 C   0  0  0  0  0  1  0  0  0  0  0  0
  188.9710  177.1670  138.1580 N   0  0  0  0  0  0  0  0  0  0  0  0
  1  7  1  1  0  0  0
  4  3  2  0  0  0  0
  5 14  1  6  0  0  0
  5 13  1  0  0  0  0
  8  3  1  0  0  0  0
  9  2  1  1  0  0  0
  9 10  1  0  0  0  0
  9  6  1  0  0  0  0
 10  8  2  0  0  0  0
 11 17  1  0  0  0  0
 12 15  1  0  0  0  0
 13  6  2  0  0  0  0
 13  1  1  0  0  0  0
 14 12  2  0  0  0  0
 15  1  1  0  0  0  0
 16  4  1  0  0  0  0
 17 16  2  0  0  0  0
 17 10  1  0  0  0  0
 18  2  2  0  0  0  0
 18  5  1  0  0  0  0
 19 11  2  0  0  0  0
 19  2  1  0  0  0  0
 20 12  1  0  0  0  0
 20 21  2  0  0  0  0
 22 20  1  0  0  0  0
 23 22  1  0  0  0  0
 24 11  1  0  0  0  0
 26 32  1  1  0  0  0
 27 32  1  0  0  0  0
 27 31  1  0  0  0  0
 28 27  2  0  0  0  0
 29 28  1  1  0  0  0
 29 26  1  0  0  0  0
 30 25  1  6  0  0  0
 30 29  1  0  0  0  0
 30 26  1  0  0  0  0
 32 24  1  0  0  0  0
M  END
>  <MODEL>
2

>  <REMARK>
 VINA RESULT:      -8.6      4.045      8.963
  Name = 
  4 active torsions:
  status: ('A' for Active; 'I' for Inactive)
    1  A    between atoms: C_1  and  O_10
    2  A    between atoms: C_1  and  C_19
    3  A    between atoms: C_16  and  C_27
    4  A    between atoms: C_27  and  N_32
                            x       y       z     vdW  Elec       q    Type
                         _______ _______ _______ _____ _____    ______ ____

>  <TORSDO>
F 4

$$$$
=
 OpenBabel11052416563D

 32 37  0  0  1  0  0  0  0  0999 V2000
  190.4390  177.1090  142.4450 C   0  0  2  0  0  3  0  0  0  0  0  0
  186.7980  178.3810  140.6550 C   0  0  0  0  0  0  0  0  0  0  0  0
  184.6410  178.5970  144.9860 C   0  0  0  0  0  3  0  0  0  0  0  0
  183.4690  178.9850  144.3360 C   0  0  0  0  0  3  0  0  0  0  0  0
  189.0690  177.7590  140.4380 C   0  0  2  0  0  3  0  0  0  0  0  0
  188.0740  177.8420  142.6040 N   0  0  0  0  0  0  0  0  0  0  0  0
  190.2880  175.7750  142.7770 F   0  0  0  0  0  0  0  0  0  0  0  0
  185.7890  178.3420  144.2340 C   0  0  0  0  0  3  0  0  0  0  0  0
  186.8910  178.2300  142.0530 C   0  0  2  0  0  3  0  0  0  0  0  0
  185.7580  178.4790  142.8410 C   0  0  0  0  0  0  0  0  0  0  0  0
  184.5110  179.0140  140.8230 C   0  0  0  0  0  0  0  0  0  0  0  0
  191.4350  177.2930  140.1580 C   0  0  0  0  0  0  0  0  0  0  0  0
  189.1660  177.6120  141.8290 C   0  0  0  0  0  0  0  0  0  0  0  0
  190.2460  177.5350  139.5950 C   0  0  0  0  0  3  0  0  0  0  0  0
  191.5550  177.2520  141.5570 O   0  0  0  0  0  0  0  0  0  0  0  0
  183.4470  179.1140  142.9820 N   0  0  0  0  0  0  0  0  0  0  0  0
  184.5520  178.8750  142.2210 C   0  0  0  0  0  0  0  0  0  0  0  0
  187.8890  178.1420  139.8820 N   0  0  0  0  0  0  0  0  0  0  0  0
  185.6260  178.7650  140.0840 N   0  0  0  0  0  0  0  0  0  0  0  0
  192.6380  177.1010  139.3320 C   0  0  0  0  0  0  0  0  0  0  0  0
  193.8190  177.2810  139.8350 N   0  0  0  0  0  2  0  0  0  0  0  0
  192.4870  176.7230  137.9950 O   0  0  0  0  0  0  0  0  0  0  0  0
  193.4970  176.0210  137.2840 C   0  0  0  0  0  1  0  0  0  0  0  0
  183.2620  179.4550  140.1300 C   0  0  0  0  0  2  0  0  0  0  0  0
  183.4520  175.0940  138.1610 C   0  0  0  0  0  1  0  0  0  0  0  0
  182.7130  177.3910  138.7020 C   0  0  2  0  0  3  0  0  0  0  0  0
  181.1310  178.0600  140.3010 C   0  0  0  0  0  0  0  0  0  0  0  0
  180.5650  177.0350  139.6990 C   0  0  0  0  0  3  0  0  0  0  0  0
  181.4700  176.5020  138.6210 C   0  0  2  0  0  3  0  0  0  0  0  0
  182.7670  175.9560  139.2010 C   0  0  1  0  0  3  0  0  0  0  0  0
  180.5060  178.8120  141.4230 C   0  0  0  0  0  1  0  0  0  0  0  0
  182.4340  178.3030  139.8000 N   0  0  0  0  0  0  0  0  0  0  0  0
  1  7  1  6  0  0  0
  4  3  1  0  0  0  0
  5 14  1  1  0  0  0
  5 13  1  0  0  0  0
  8  3  2  0  0  0  0
  9  2  1  6  0  0  0
  9  6  1  0  0  0  0
  9 10  1  0  0  0  0
 10  8  1  0  0  0  0
 11 17  1  0  0  0  0
 12 15  1  0  0  0  0
 13  1  1  0  0  0  0
 13  6  2  0  0  0  0
 14 12  2  0  0  0  0
 15  1  1  0  0  0  0
 16  4  2  0  0  0  0
 17 10  2  0  0  0  0
 17 16  1  0  0  0  0
 18  5  1  0  0  0  0
 18  2  2  0  0  0  0
 19  2  1  0  0  0  0
 19 11  2  0  0  0  0
 20 21  2  0  0  0  0
 20 12  1  0  0  0  0
 22 20  1  0  0  0  0
 23 22  1  0  0  0  0
 24 11  1  0  0  0  0
 26 30  1  0  0  0  0
 26 32  1  1  0  0  0
 27 31  1  0  0  0  0
 28 27  2  0  0  0  0
 29 26  1  0  0  0  0
 29 30  1  0  0  0  0
 29 28  1  1  0  0  0
 30 25  1  6  0  0  0
 32 24  1  0  0  0  0
 32 27  1  0  0  0  0
M  END
>  <MODEL>
3

>  <REMARK>
 VINA RESULT:      -8.6      2.886      5.968
  Name = 
  4 active torsions:
  status: ('A' for Active; 'I' for Inactive)
    1  A    between atoms: C_1  and  O_10
    2  A    between atoms: C_1  and  C_19
    3  A    between atoms: C_16  and  C_27
    4  A    between atoms: C_27  and  N_32
                            x       y       z     vdW  Elec       q    Type
                         _______ _______ _______ _____ _____    ______ ____

>  <TORSDO>
F 4

$$$$
=
 OpenBabel11052416563D

 32 37  0  0  1  0  0  0  0  0999 V2000
  187.4950  177.7490  146.2110 C   0  0  2  0  0  3  0  0  0  0  0  0
  185.9980  178.3040  142.2700 C   0  0  0  0  0  0  0  0  0  0  0  0
  181.5090  178.9430  143.9690 C   0  0  0  0  0  3  0  0  0  0  0  0
  181.0760  179.0890  142.6500 C   0  0  0  0  0  3  0  0  0  0  0  0
  187.8240  177.9190  143.7230 C   0  0  2  0  0  3  0  0  0  0  0  0
  185.6400  178.2230  144.6330 N   0  0  0  0  0  0  0  0  0  0  0  0
  187.1350  176.4750  146.6100 F   0  0  0  0  0  0  0  0  0  0  0  0
  182.8600  178.7080  144.2240 C   0  0  0  0  0  3  0  0  0  0  0  0
  185.1330  178.3840  143.3790 C   0  0  2  0  0  3  0  0  0  0  0  0
  183.7690  178.6210  143.1620 C   0  0  0  0  0  0  0  0  0  0  0  0
  184.1950  178.6910  140.7690 C   0  0  0  0  0  0  0  0  0  0  0  0
  189.7650  177.6870  145.1630 C   0  0  0  0  0  0  0  0  0  0  0  0
  186.9660  178.0010  144.8290 C   0  0  0  0  0  0  0  0  0  0  0  0
  189.2590  177.7010  143.9250 C   0  0  0  0  0  3  0  0  0  0  0  0
  188.9210  177.8790  146.2700 O   0  0  0  0  0  0  0  0  0  0  0  0
  181.9650  179.0030  141.6250 N   0  0  0  0  0  0  0  0  0  0  0  0
  183.2910  178.7760  141.8410 C   0  0  0  0  0  0  0  0  0  0  0  0
  187.3220  178.0730  142.4690 N   0  0  0  0  0  0  0  0  0  0  0  0
  185.5130  178.4580  141.0100 N   0  0  0  0  0  0  0  0  0  0  0  0
  191.2080  177.5080  145.3880 C   0  0  0  0  0  0  0  0  0  0  0  0
  192.0550  177.7000  144.4250 N   0  0  0  0  0  2  0  0  0  0  0  0
  191.6530  177.1260  146.6580 O   0  0  0  0  0  0  0  0  0  0  0  0
  192.0560  175.7970  146.9550 C   0  0  0  0  0  1  0  0  0  0  0  0
  183.7340  178.8730  139.3580 C   0  0  0  0  0  2  0  0  0  0  0  0
  187.9220  177.9590  137.2250 C   0  0  0  0  0  1  0  0  0  0  0  0
  185.4960  178.2540  137.5920 C   0  0  2  0  0  3  0  0  0  0  0  0
  183.9130  176.6210  138.1700 C   0  0  0  0  0  0  0  0  0  0  0  0
  184.6320  176.0520  137.2260 C   0  0  0  0  0  3  0  0  0  0  0  0
  185.6940  177.0000  136.7390 C   0  0  2  0  0  3  0  0  0  0  0  0
  186.6850  177.3420  137.8420 C   0  0  1  0  0  3  0  0  0  0  0  0
  182.7860  175.9500  138.8730 C   0  0  0  0  0  1  0  0  0  0  0  0
  184.3960  177.9160  138.4820 N   0  0  0  0  0  0  0  0  0  0  0  0
  1 15  1  0  0  0  0
  1  7  1  6  0  0  0
  2 18  2  0  0  0  0
  3  8  1  0  0  0  0
  4  3  2  0  0  0  0
  5 14  1  1  0  0  0
  5 13  1  0  0  0  0
  6 13  2  0  0  0  0
  9  2  1  6  0  0  0
  9  6  1  0  0  0  0
 10  9  1  0  0  0  0
 10  8  2  0  0  0  0
 11 19  2  0  0  0  0
 11 17  1  0  0  0  0
 12 20  1  0  0  0  0
 12 15  1  0  0  0  0
 13  1  1  0  0  0  0
 14 12  2  0  0  0  0
 16 17  2  0  0  0  0
 16  4  1  0  0  0  0
 17 10  1  0  0  0  0
 18  5  1  0  0  0  0
 19  2  1  0  0  0  0
 20 22  1  0  0  0  0
 21 20  2  0  0  0  0
 22 23  1  0  0  0  0
 24 11  1  0  0  0  0
 26 30  1  0  0  0  0
 26 32  1  1  0  0  0
 27 32  1  0  0  0  0
 27 31  1  0  0  0  0
 28 27  2  0  0  0  0
 29 28  1  1  0  0  0
 29 26  1  0  0  0  0
 29 30  1  0  0  0  0
 30 25  1  6  0  0  0
 32 24  1  0  0  0  0
M  END
>  <MODEL>
4

>  <REMARK>
 VINA RESULT:      -8.5      3.797      7.252
  Name = 
  4 active torsions:
  status: ('A' for Active; 'I' for Inactive)
    1  A    between atoms: C_1  and  O_10
    2  A    between atoms: C_1  and  C_19
    3  A    between atoms: C_16  and  C_27
    4  A    between atoms: C_27  and  N_32
                            x       y       z     vdW  Elec       q    Type
                         _______ _______ _______ _____ _____    ______ ____

>  <TORSDO>
F 4

$$$$
=
 OpenBabel11052416563D

 32 37  0  0  1  0  0  0  0  0999 V2000
  187.5210  177.7930  146.2110 C   0  0  2  0  0  3  0  0  0  0  0  0
  185.9740  178.2640  142.2790 C   0  0  0  0  0  0  0  0  0  0  0  0
  181.5180  179.0020  144.0260 C   0  0  0  0  0  3  0  0  0  0  0  0
  181.0670  179.1190  142.7100 C   0  0  0  0  0  3  0  0  0  0  0  0
  187.8160  177.8950  143.7150 C   0  0  2  0  0  3  0  0  0  0  0  0
  185.6490  178.2490  144.6480 N   0  0  0  0  0  0  0  0  0  0  0  0
  187.1530  176.5340  146.6480 F   0  0  0  0  0  0  0  0  0  0  0  0
  182.8700  178.7560  144.2670 C   0  0  0  0  0  3  0  0  0  0  0  0
  185.1260  178.3840  143.3980 C   0  0  2  0  0  3  0  0  0  0  0  0
  183.7610  178.6320  143.1950 C   0  0  0  0  0  0  0  0  0  0  0  0
  184.1530  178.6340  140.7950 C   0  0  0  0  0  0  0  0  0  0  0  0
  189.7750  177.6770  145.1320 C   0  0  0  0  0  0  0  0  0  0  0  0
  186.9750  178.0160  144.8310 C   0  0  0  0  0  0  0  0  0  0  0  0
  189.2510  177.6650  143.9020 C   0  0  0  0  0  3  0  0  0  0  0  0
  188.9500  177.9070  146.2450 O   0  0  0  0  0  0  0  0  0  0  0  0
  181.9390  178.9950  141.6740 N   0  0  0  0  0  0  0  0  0  0  0  0
  183.2660  178.7580  141.8770 C   0  0  0  0  0  0  0  0  0  0  0  0
  187.2970  178.0230  142.4650 N   0  0  0  0  0  0  0  0  0  0  0  0
  185.4720  178.3910  141.0230 N   0  0  0  0  0  0  0  0  0  0  0  0
  191.2200  177.4860  145.3410 C   0  0  0  0  0  0  0  0  0  0  0  0
  192.0550  177.6530  144.3630 N   0  0  0  0  0  2  0  0  0  0  0  0
  191.6770  177.1210  146.6110 O   0  0  0  0  0  0  0  0  0  0  0  0
  192.0550  175.7900  146.9290 C   0  0  0  0  0  1  0  0  0  0  0  0
  183.6730  178.7850  139.3860 C   0  0  0  0  0  2  0  0  0  0  0  0
  180.6030  175.2160  138.5150 C   0  0  0  0  0  1  0  0  0  0  0  0
  182.6520  176.4380  139.1620 C   0  0  2  0  0  3  0  0  0  0  0  0
  184.5120  176.9480  137.8250 C   0  0  0  0  0  0  0  0  0  0  0  0
  184.2490  175.6900  137.5420 C   0  0  0  0  0  3  0  0  0  0  0  0
  183.0710  175.2120  138.3480 C   0  0  2  0  0  3  0  0  0  0  0  0
  181.8040  175.9740  137.9890 C   0  0  1  0  0  3  0  0  0  0  0  0
  185.6100  177.7290  137.1920 C   0  0  0  0  0  1  0  0  0  0  0  0
  183.5740  177.4820  138.7430 N   0  0  0  0  0  0  0  0  0  0  0  0
  1 15  1  0  0  0  0
  1  7  1  6  0  0  0
  2 18  2  0  0  0  0
  3  8  1  0  0  0  0
  4  3  2  0  0  0  0
  5 14  1  1  0  0  0
  5 13  1  0  0  0  0
  6 13  2  0  0  0  0
  9  2  1  6  0  0  0
  9  6  1  0  0  0  0
 10  9  1  0  0  0  0
 10  8  2  0  0  0  0
 11 19  2  0  0  0  0
 11 17  1  0  0  0  0
 12 20  1  0  0  0  0
 12 15  1  0  0  0  0
 13  1  1  0  0  0  0
 14 12  2  0  0  0  0
 16 17  2  0  0  0  0
 16  4  1  0  0  0  0
 17 10  1  0  0  0  0
 18  5  1  0  0  0  0
 19  2  1  0  0  0  0
 20 22  1  0  0  0  0
 21 20  2  0  0  0  0
 22 23  1  0  0  0  0
 24 11  1  0  0  0  0
 26 32  1  6  0  0  0
 27 32  1  0  0  0  0
 28 27  2  0  0  0  0
 29 28  1  6  0  0  0
 29 26  1  0  0  0  0
 30 29  1  0  0  0  0
 30 25  1  1  0  0  0
 30 26  1  0  0  0  0
 31 27  1  0  0  0  0
 32 24  1  0  0  0  0
M  END
>  <MODEL>
5

>  <REMARK>
 VINA RESULT:      -8.4      4.094      7.560
  Name = 
  4 active torsions:
  status: ('A' for Active; 'I' for Inactive)
    1  A    between atoms: C_1  and  O_10
    2  A    between atoms: C_1  and  C_19
    3  A    between atoms: C_16  and  C_27
    4  A    between atoms: C_27  and  N_32
                            x       y       z     vdW  Elec       q    Type
                         _______ _______ _______ _____ _____    ______ ____

>  <TORSDO>
F 4

$$$$
=
 OpenBabel11052416563D

 32 37  0  0  1  0  0  0  0  0999 V2000
  191.0740  176.8020  144.1120 C   0  0  2  0  0  3  0  0  0  0  0  0
  188.6110  177.7460  140.7770 C   0  0  0  0  0  0  0  0  0  0  0  0
  192.0290  176.2150  137.7070 C   0  0  0  0  0  3  0  0  0  0  0  0
  191.1840  176.5710  136.6550 C   0  0  0  0  0  3  0  0  0  0  0  0
  188.9210  177.6420  143.1190 C   0  0  2  0  0  3  0  0  0  0  0  0
  190.6500  176.8710  141.6690 N   0  0  0  0  0  0  0  0  0  0  0  0
  192.0340  177.7930  144.2060 F   0  0  0  0  0  0  0  0  0  0  0  0
  191.6070  176.4150  139.0220 C   0  0  0  0  0  3  0  0  0  0  0  0
  189.8890  177.1840  140.5840 C   0  0  2  0  0  3  0  0  0  0  0  0
  190.3460  176.9670  139.2770 C   0  0  0  0  0  0  0  0  0  0  0  0
  188.2530  177.8680  138.4290 C   0  0  0  0  0  0  0  0  0  0  0  0
  189.1040  177.4100  145.5290 C   0  0  0  0  0  0  0  0  0  0  0  0
  190.1910  177.0800  142.9300 C   0  0  0  0  0  0  0  0  0  0  0  0
  188.4080  177.8510  144.4760 C   0  0  0  0  0  3  0  0  0  0  0  0
  190.3280  176.7490  145.3350 O   0  0  0  0  0  0  0  0  0  0  0  0
  189.9610  177.1080  136.9110 N   0  0  0  0  0  0  0  0  0  0  0  0
  189.5200  177.3130  138.1840 C   0  0  0  0  0  0  0  0  0  0  0  0
  188.1590  177.9610  142.0400 N   0  0  0  0  0  0  0  0  0  0  0  0
  187.8360  178.0690  139.7090 N   0  0  0  0  0  0  0  0  0  0  0  0
  188.5900  177.5760  146.8980 C   0  0  0  0  0  0  0  0  0  0  0  0
  189.4000  177.8180  147.8820 N   0  0  0  0  0  2  0  0  0  0  0  0
  187.2150  177.4670  147.1230 O   0  0  0  0  0  0  0  0  0  0  0  0
  186.3770  178.6040  147.2780 C   0  0  0  0  0  1  0  0  0  0  0  0
  187.3370  178.2260  137.3010 C   0  0  0  0  0  2  0  0  0  0  0  0
  186.8400  173.5850  136.2330 C   0  0  0  0  0  1  0  0  0  0  0  0
  186.5070  176.0340  136.2480 C   0  0  2  0  0  3  0  0  0  0  0  0
  184.9790  177.2760  137.5250 C   0  0  0  0  0  0  0  0  0  0  0  0
  184.2720  176.2600  137.0770 C   0  0  0  0  0  3  0  0  0  0  0  0
  185.1280  175.3710  136.2160 C   0  0  2  0  0  3  0  0  0  0  0  0
  186.2620  174.7450  137.0150 C   0  0  1  0  0  3  0  0  0  0  0  0
  184.4350  178.3380  138.4150 C   0  0  0  0  0  1  0  0  0  0  0  0
  186.3330  177.1870  137.1170 N   0  0  0  0  0  0  0  0  0  0  0  0
  1  7  1  1  0  0  0
  1 15  1  0  0  0  0
  2 18  2  0  0  0  0
  3  8  1  0  0  0  0
  4 16  1  0  0  0  0
  4  3  2  0  0  0  0
  5 14  1  1  0  0  0
  6 13  2  0  0  0  0
  8 10  2  0  0  0  0
  9 10  1  6  0  0  0
  9  2  1  0  0  0  0
  9  6  1  0  0  0  0
 11 19  2  0  0  0  0
 12 20  1  0  0  0  0
 13  5  1  0  0  0  0
 13  1  1  0  0  0  0
 14 12  2  0  0  0  0
 15 12  1  0  0  0  0
 16 17  2  0  0  0  0
 17 11  1  0  0  0  0
 17 10  1  0  0  0  0
 18  5  1  0  0  0  0
 19  2  1  0  0  0  0
 20 22  1  0  0  0  0
 20 21  2  0  0  0  0
 22 23  1  0  0  0  0
 24 11  1  0  0  0  0
 26 30  1  0  0  0  0
 26 32  1  1  0  0  0
 27 31  1  0  0  0  0
 28 27  2  0  0  0  0
 29 26  1  0  0  0  0
 29 30  1  0  0  0  0
 29 28  1  1  0  0  0
 30 25  1  6  0  0  0
 32 24  1  0  0  0  0
 32 27  1  0  0  0  0
M  END
>  <MODEL>
6

>  <REMARK>
 VINA RESULT:      -8.4      3.598      8.463
  Name = 
  4 active torsions:
  status: ('A' for Active; 'I' for Inactive)
    1  A    between atoms: C_1  and  O_10
    2  A    between atoms: C_1  and  C_19
    3  A    between atoms: C_16  and  C_27
    4  A    between atoms: C_27  and  N_32
                            x       y       z     vdW  Elec       q    Type
                         _______ _______ _______ _____ _____    ______ ____

>  <TORSDO>
F 4

$$$$
=
 OpenBabel11052416563D

 32 37  0  0  1  0  0  0  0  0999 V2000
  191.4030  176.6310  143.3370 C   0  0  2  0  0  3  0  0  0  0  0  0
  188.4530  177.8500  140.5280 C   0  0  0  0  0  0  0  0  0  0  0  0
  191.1920  176.3020  136.8460 C   0  0  0  0  0  3  0  0  0  0  0  0
  190.1980  176.7490  135.9740 C   0  0  0  0  0  3  0  0  0  0  0  0
  189.1600  177.6210  142.7730 C   0  0  2  0  0  3  0  0  0  0  0  0
  190.5640  176.8360  141.0110 N   0  0  0  0  0  0  0  0  0  0  0  0
  192.4180  177.5680  143.2970 F   0  0  0  0  0  0  0  0  0  0  0  0
  191.0170  176.4600  138.2210 C   0  0  0  0  0  3  0  0  0  0  0  0
  189.6440  177.2360  140.0900 C   0  0  2  0  0  3  0  0  0  0  0  0
  189.8530  177.0600  138.7160 C   0  0  0  0  0  0  0  0  0  0  0  0
  187.6980  178.1010  138.2860 C   0  0  0  0  0  0  0  0  0  0  0  0
  189.7470  177.2660  145.1010 C   0  0  0  0  0  0  0  0  0  0  0  0
  190.3440  177.0070  142.3410 C   0  0  0  0  0  0  0  0  0  0  0  0
  188.9040  177.7900  144.2060 C   0  0  0  0  0  3  0  0  0  0  0  0
  190.8800  176.5550  144.6690 O   0  0  0  0  0  0  0  0  0  0  0  0
  189.0700  177.3310  136.4630 N   0  0  0  0  0  0  0  0  0  0  0  0
  188.8700  177.4970  137.8000 C   0  0  0  0  0  0  0  0  0  0  0  0
  188.2410  178.0270  141.8580 N   0  0  0  0  0  0  0  0  0  0  0  0
  187.5230  178.2610  139.6260 N   0  0  0  0  0  0  0  0  0  0  0  0
  189.4910  177.3910  146.5450 C   0  0  0  0  0  0  0  0  0  0  0  0
  190.3970  177.0520  147.4080 N   0  0  0  0  0  2  0  0  0  0  0  0
  188.2530  177.8820  146.9720 O   0  0  0  0  0  0  0  0  0  0  0  0
  187.8660  177.8840  148.3390 C   0  0  0  0  0  1  0  0  0  0  0  0
  186.6210  178.5560  137.3530 C   0  0  0  0  0  2  0  0  0  0  0  0
  182.1760  179.2440  138.9940 C   0  0  0  0  0  1  0  0  0  0  0  0
  184.4230  178.2720  138.6530 C   0  0  2  0  0  3  0  0  0  0  0  0
  185.0460  176.5560  137.1770 C   0  0  0  0  0  0  0  0  0  0  0  0
  183.9340  176.1170  137.7300 C   0  0  0  0  0  3  0  0  0  0  0  0
  183.4180  177.1210  138.7250 C   0  0  2  0  0  3  0  0  0  0  0  0
  183.0370  178.4310  138.0510 C   0  0  1  0  0  3  0  0  0  0  0  0
  185.8090  175.8080  136.1410 C   0  0  0  0  0  1  0  0  0  0  0  0
  185.3770  177.8540  137.6360 N   0  0  0  0  0  0  0  0  0  0  0  0
  1  7  1  1  0  0  0
  1 15  1  0  0  0  0
  2 18  2  0  0  0  0
  3  8  1  0  0  0  0
  4 16  1  0  0  0  0
  4  3  2  0  0  0  0
  5 14  1  1  0  0  0
  6 13  2  0  0  0  0
  8 10  2  0  0  0  0
  9 10  1  6  0  0  0
  9  2  1  0  0  0  0
  9  6  1  0  0  0  0
 11 19  2  0  0  0  0
 12 20  1  0  0  0  0
 13  5  1  0  0  0  0
 13  1  1  0  0  0  0
 14 12  2  0  0  0  0
 15 12  1  0  0  0  0
 16 17  2  0  0  0  0
 17 11  1  0  0  0  0
 17 10  1  0  0  0  0
 18  5  1  0  0  0  0
 19  2  1  0  0  0  0
 20 22  1  0  0  0  0
 20 21  2  0  0  0  0
 22 23  1  0  0  0  0
 24 32  1  0  0  0  0
 24 11  1  0  0  0  0
 26 32  1  6  0  0  0
 26 29  1  0  0  0  0
 27 32  1  0  0  0  0
 27 28  2  0  0  0  0
 29 28  1  6  0  0  0
 30 26  1  0  0  0  0
 30 29  1  0  0  0  0
 30 25  1  1  0  0  0
 31 27  1  0  0  0  0
M  END
>  <MODEL>
7

>  <REMARK>
 VINA RESULT:      -8.3      3.484      8.299
  Name = 
  4 active torsions:
  status: ('A' for Active; 'I' for Inactive)
    1  A    between atoms: C_1  and  O_10
    2  A    between atoms: C_1  and  C_19
    3  A    between atoms: C_16  and  C_27
    4  A    between atoms: C_27  and  N_32
                            x       y       z     vdW  Elec       q    Type
                         _______ _______ _______ _____ _____    ______ ____

>  <TORSDO>
F 4

$$$$
=
 OpenBabel11052416563D

 32 37  0  0  1  0  0  0  0  0999 V2000
  190.3640  176.6190  142.3110 C   0  0  2  0  0  3  0  0  0  0  0  0
  186.4700  178.3250  142.2470 C   0  0  0  0  0  0  0  0  0  0  0  0
  186.1490  177.9960  147.0680 C   0  0  0  0  0  3  0  0  0  0  0  0
  184.8650  178.5350  146.9770 C   0  0  0  0  0  3  0  0  0  0  0  0
  188.4110  177.6310  141.0890 C   0  0  2  0  0  3  0  0  0  0  0  0
  188.3250  177.4370  143.4650 N   0  0  0  0  0  0  0  0  0  0  0  0
  190.2120  175.2600  142.5140 F   0  0  0  0  0  0  0  0  0  0  0  0
  186.8940  177.8010  145.9040 C   0  0  0  0  0  3  0  0  0  0  0  0
  187.0690  177.9620  143.4690 C   0  0  2  0  0  3  0  0  0  0  0  0
  186.3520  178.1460  144.6600 C   0  0  0  0  0  0  0  0  0  0  0  0
  184.4960  179.0390  143.3670 C   0  0  0  0  0  0  0  0  0  0  0  0
  190.4330  177.0940  139.8560 C   0  0  0  0  0  0  0  0  0  0  0  0
  189.0120  177.2710  142.3050 C   0  0  0  0  0  0  0  0  0  0  0  0
  189.1520  177.4760  139.8340 C   0  0  0  0  0  3  0  0  0  0  0  0
  191.0690  176.8380  141.0820 O   0  0  0  0  0  0  0  0  0  0  0  0
  184.3460  178.8670  145.7650 N   0  0  0  0  0  0  0  0  0  0  0  0
  185.0490  178.6900  144.6110 C   0  0  0  0  0  0  0  0  0  0  0  0
  187.1550  178.1500  141.0870 N   0  0  0  0  0  0  0  0  0  0  0  0
  185.2160  178.8480  142.2270 N   0  0  0  0  0  0  0  0  0  0  0  0
  191.2060  176.9690  138.6100 C   0  0  0  0  0  0  0  0  0  0  0  0
  190.6140  177.0220  137.4580 N   0  0  0  0  0  2  0  0  0  0  0  0
  192.5910  176.7910  138.6890 O   0  0  0  0  0  0  0  0  0  0  0  0
  193.3030  175.9550  137.7880 C   0  0  0  0  0  1  0  0  0  0  0  0
  183.1300  179.6410  143.2730 C   0  0  0  0  0  2  0  0  0  0  0  0
  183.4040  177.2580  139.1290 C   0  0  0  0  0  1  0  0  0  0  0  0
  182.6330  178.8080  140.8930 C   0  0  2  0  0  3  0  0  0  0  0  0
  181.0080  178.4250  142.5430 C   0  0  0  0  0  0  0  0  0  0  0  0
  180.4650  177.9520  141.4410 C   0  0  0  0  0  3  0  0  0  0  0  0
  181.4000  178.1440  140.2770 C   0  0  2  0  0  3  0  0  0  0  0  0
  182.6870  177.3530  140.4590 C   0  0  1  0  0  3  0  0  0  0  0  0
  180.3500  178.3820  143.8770 C   0  0  0  0  0  1  0  0  0  0  0  0
  182.3200  178.9070  142.3110 N   0  0  0  0  0  0  0  0  0  0  0  0
  1  7  1  6  0  0  0
  4  3  1  0  0  0  0
  5 14  1  1  0  0  0
  5 13  1  0  0  0  0
  6  9  1  0  0  0  0
  8  3  2  0  0  0  0
  9  2  1  6  0  0  0
  9 10  1  0  0  0  0
 10  8  1  0  0  0  0
 11 17  1  0  0  0  0
 12 15  1  0  0  0  0
 13  1  1  0  0  0  0
 13  6  2  0  0  0  0
 14 12  2  0  0  0  0
 15  1  1  0  0  0  0
 16  4  2  0  0  0  0
 17 10  2  0  0  0  0
 17 16  1  0  0  0  0
 18  5  1  0  0  0  0
 18  2  2  0  0  0  0
 19  2  1  0  0  0  0
 19 11  2  0  0  0  0
 20 22  1  0  0  0  0
 20 12  1  0  0  0  0
 21 20  2  0  0  0  0
 23 22  1  0  0  0  0
 24 11  1  0  0  0  0
 26 32  1  1  0  0  0
 27 31  1  0  0  0  0
 28 27  2  0  0  0  0
 29 30  1  0  0  0  0
 29 26  1  0  0  0  0
 29 28  1  1  0  0  0
 30 25  1  6  0  0  0
 30 26  1  0  0  0  0
 32 27  1  0  0  0  0
 32 24  1  0  0  0  0
M  END
>  <MODEL>
8

>  <REMARK>
 VINA RESULT:      -8.2      2.349      5.494
  Name = 
  4 active torsions:
  status: ('A' for Active; 'I' for Inactive)
    1  A    between atoms: C_1  and  O_10
    2  A    between atoms: C_1  and  C_19
    3  A    between atoms: C_16  and  C_27
    4  A    between atoms: C_27  and  N_32
                            x       y       z     vdW  Elec       q    Type
                         _______ _______ _______ _____ _____    ______ ____

>  <TORSDO>
F 4

$$$$
=
 OpenBabel11052416563D

 32 37  0  0  1  0  0  0  0  0999 V2000
  188.1550  177.5600  143.4370 C   0  0  2  0  0  3  0  0  0  0  0  0
  190.7590  176.8470  140.1520 C   0  0  0  0  0  0  0  0  0  0  0  0
  187.2670  178.0300  137.0130 C   0  0  0  0  0  3  0  0  0  0  0  0
  188.1610  177.7530  135.9780 C   0  0  0  0  0  3  0  0  0  0  0  0
  190.3980  176.9290  142.4880 C   0  0  2  0  0  3  0  0  0  0  0  0
  188.6290  177.5240  141.0020 N   0  0  0  0  0  0  0  0  0  0  0  0
  187.2940  176.4820  143.5180 F   0  0  0  0  0  0  0  0  0  0  0  0
  187.6820  177.8760  138.3360 C   0  0  0  0  0  3  0  0  0  0  0  0
  189.4370  177.2830  139.9320 C   0  0  2  0  0  3  0  0  0  0  0  0
  188.9850  177.4500  138.6160 C   0  0  0  0  0  0  0  0  0  0  0  0
  191.1710  176.7520  137.8120 C   0  0  0  0  0  0  0  0  0  0  0  0
  190.1480  177.1510  144.8920 C   0  0  0  0  0  0  0  0  0  0  0  0
  189.0820  177.3650  142.2730 C   0  0  0  0  0  0  0  0  0  0  0  0
  190.9030  176.7750  143.8540 C   0  0  0  0  0  3  0  0  0  0  0  0
  188.8690  177.6910  144.6730 O   0  0  0  0  0  0  0  0  0  0  0  0
  189.4260  177.3380  136.2590 N   0  0  0  0  0  0  0  0  0  0  0  0
  189.8610  177.1810  137.5400 C   0  0  0  0  0  0  0  0  0  0  0  0
  191.2070  176.6810  141.4240 N   0  0  0  0  0  0  0  0  0  0  0  0
  191.5820  176.5970  139.1000 N   0  0  0  0  0  0  0  0  0  0  0  0
  190.6500  177.0400  146.2720 C   0  0  0  0  0  0  0  0  0  0  0  0
  189.8590  177.2440  147.2790 N   0  0  0  0  0  2  0  0  0  0  0  0
  191.9930  176.7130  146.4790 O   0  0  0  0  0  0  0  0  0  0  0  0
  192.3930  175.6270  147.3020 C   0  0  0  0  0  1  0  0  0  0  0  0
  192.1370  176.4810  136.7030 C   0  0  0  0  0  2  0  0  0  0  0  0
  195.8310  174.2520  138.7790 C   0  0  0  0  0  1  0  0  0  0  0  0
  194.1650  174.9510  137.0930 C   0  0  2  0  0  3  0  0  0  0  0  0
  192.1140  173.9310  136.5800 C   0  0  0  0  0  0  0  0  0  0  0  0
  192.9590  172.9260  136.6680 C   0  0  0  0  0  3  0  0  0  0  0  0
  194.3400  173.4350  136.9820 C   0  0  2  0  0  3  0  0  0  0  0  0
  194.3880  174.1150  138.3420 C   0  0  1  0  0  3  0  0  0  0  0  0
  190.6620  173.7730  136.2920 C   0  0  0  0  0  1  0  0  0  0  0  0
  192.7430  175.1670  136.8700 N   0  0  0  0  0  0  0  0  0  0  0  0
  1  7  1  1  0  0  0
  1 15  1  0  0  0  0
  2 18  2  0  0  0  0
  3  8  1  0  0  0  0
  4 16  1  0  0  0  0
  4  3  2  0  0  0  0
  5 14  1  1  0  0  0
  6 13  2  0  0  0  0
  8 10  2  0  0  0  0
  9 10  1  6  0  0  0
  9  2  1  0  0  0  0
  9  6  1  0  0  0  0
 11 19  2  0  0  0  0
 12 20  1  0  0  0  0
 13  5  1  0  0  0  0
 13  1  1  0  0  0  0
 14 12  2  0  0  0  0
 15 12  1  0  0  0  0
 16 17  2  0  0  0  0
 17 11  1  0  0  0  0
 17 10  1  0  0  0  0
 18  5  1  0  0  0  0
 19  2  1  0  0  0  0
 20 22  1  0  0  0  0
 20 21  2  0  0  0  0
 22 23  1  0  0  0  0
 24 32  1  0  0  0  0
 24 11  1  0  0  0  0
 26 32  1  1  0  0  0
 26 30  1  0  0  0  0
 27 28  2  0  0  0  0
 27 32  1  0  0  0  0
 29 28  1  1  0  0  0
 29 26  1  0  0  0  0
 29 30  1  0  0  0  0
 30 25  1  6  0  0  0
 31 27  1  0  0  0  0
M  END
>  <MODEL>
9

>  <REMARK>
 VINA RESULT:      -8.2      3.340      8.317
  Name = 
  4 active torsions:
  status: ('A' for Active; 'I' for Inactive)
    1  A    between atoms: C_1  and  O_10
    2  A    between atoms: C_1  and  C_19
    3  A    between atoms: C_16  and  C_27
    4  A    between atoms: C_27  and  N_32
                            x       y       z     vdW  Elec       q    Type
                         _______ _______ _______ _____ _____    ______ ____

>  <TORSDO>
F 4

$$$$
