=
 OpenBabel11052416073D

 43 48  0  0  1  0  0  0  0  0999 V2000
  188.3140  177.4240  148.2900 N   0  0  0  0  0  0  0  0  0  0  0  0
  186.4860  178.3010  143.6210 C   0  0  0  0  0  0  0  0  0  0  0  0
  188.6020  177.9090  141.8970 C   0  0  0  0  0  0  0  0  0  0  0  0
  186.8730  177.8650  146.3630 C   0  0  0  0  0  0  0  0  0  0  0  0
  189.1200  176.5800  147.3990 C   0  0  0  0  0  2  0  0  0  0  0  0
  188.9310  178.6250  148.4050 O   0  0  0  0  0  1  0  0  0  0  0  0
  187.9290  177.6350  145.4700 C   0  0  0  0  0  0  0  0  0  0  0  0
  187.0620  177.6450  147.7340 O   0  0  0  0  0  0  0  0  0  0  0  0
  189.2630  177.2070  146.0090 C   0  0  0  0  0  2  0  0  0  0  0  0
  188.7640  177.6820  143.2250 N   0  0  0  0  0  0  0  0  0  0  0  0
  187.7420  177.8650  144.0980 C   0  0  0  0  0  0  0  0  0  0  0  0
  185.4340  178.5070  144.5230 C   0  0  0  0  0  3  0  0  0  0  0  0
  186.3370  178.5280  142.2450 C   0  0  0  0  0  0  0  0  0  0  0  0
  187.4030  178.3310  141.4160 N   0  0  0  0  0  0  0  0  0  0  0  0
  185.6270  178.2870  145.8900 C   0  0  0  0  0  3  0  0  0  0  0  0
  185.0810  178.9680  141.7140 N   0  0  0  0  0  2  0  0  0  0  0  0
  183.3130  178.7860  138.3770 C   0  0  0  0  0  2  0  0  0  0  0  0
  182.1620  177.8860  138.8440 C   0  0  1  0  0  3  0  0  0  0  0  0
  183.2360  177.5620  140.9890 C   0  0  0  0  0  2  0  0  0  0  0  0
  184.0320  179.4270  139.5590 C   0  0  0  0  0  2  0  0  0  0  0  0
  184.4620  178.3520  140.5500 C   0  0  1  0  0  3  0  0  0  0  0  0
  182.6170  176.9020  139.8350 N   0  0  0  0  0  2  0  0  0  0  0  0
  180.0810  179.3060  139.7410 C   0  0  0  0  0  3  0  0  0  0  0  0
  181.0170  178.6670  139.3350 C   0  0  0  0  0  0  0  0  0  0  0  0
  189.7880  177.7840  140.9900 C   0  0  0  0  0  2  0  0  0  0  0  0
  189.8860  176.5100  140.3910 O   0  0  0  0  0  0  0  0  0  0  0  0
  190.9710  176.5220  139.5000 C   0  0  0  0  0  2  0  0  0  0  0  0
  190.5700  176.0470  138.1070 C   0  0  1  0  0  3  0  0  0  0  0  0
  190.9290  174.7000  137.9490 O   0  0  0  0  0  1  0  0  0  0  0  0
  189.0630  176.2040  137.9810 C   0  0  0  0  0  2  0  0  0  0  0  0
  188.7200  177.2550  137.0160 N   0  0  0  0  0  0  0  0  0  0  0  0
  186.9290  178.4240  137.3830 C   0  0  0  0  0  2  0  0  0  0  0  0
  189.0120  179.5620  137.2230 O   0  0  0  0  0  1  0  0  0  0  0  0
  187.3120  177.2010  136.5790 C   0  0  1  0  0  0  0  0  0  0  0  0
  187.2130  177.4740  135.0860 C   0  0  0  0  0  1  0  0  0  0  0  0
  188.3890  178.4510  137.7910 C   0  0  2  0  0  3  0  0  0  0  0  0
  186.5170  175.9450  136.9890 C   0  0  0  0  0  2  0  0  0  0  0  0
  185.6580  175.4820  135.9080 N   0  0  0  0  0  0  0  0  0  0  0  0
  184.7120  172.6740  137.5080 C   0  0  0  0  0  1  0  0  0  0  0  0
  183.6020  174.5420  136.6780 C   0  0  0  0  0  3  0  0  0  0  0  0
  184.4650  173.4390  136.3010 N   0  0  0  0  0  0  0  0  0  0  0  0
  184.2970  175.8150  136.2800 C   0  0  0  0  0  3  0  0  0  0  0  0
  185.7440  174.0260  135.9040 C   0  0  0  0  0  2  0  0  0  0  0  0
  1  6  1  0  0  0  0
  2 11  2  0  0  0  0
  2 12  1  0  0  0  0
  3 10  2  0  0  0  0
  4  8  1  0  0  0  0
  5  1  1  0  0  0  0
  7  9  1  0  0  0  0
  7  4  2  0  0  0  0
  8  1  1  0  0  0  0
  9  5  1  0  0  0  0
 10 11  1  0  0  0  0
 11  7  1  0  0  0  0
 12 15  2  0  0  0  0
 13  2  1  0  0  0  0
 14  3  1  0  0  0  0
 14 13  2  0  0  0  0
 15  4  1  0  0  0  0
 16 13  1  0  0  0  0
 17 18  1  0  0  0  0
 17 20  1  0  0  0  0
 18 24  1  1  0  0  0
 18 22  1  0  0  0  0
 20 21  1  0  0  0  0
 21 19  1  0  0  0  0
 21 16  1  1  0  0  0
 22 19  1  0  0  0  0
 24 23  3  0  0  0  0
 25  3  1  0  0  0  0
 26 25  1  0  0  0  0
 27 26  1  0  0  0  0
 28 29  1  1  0  0  0
 28 27  1  0  0  0  0
 30 28  1  0  0  0  0
 31 36  1  0  0  0  0
 31 30  1  0  0  0  0
 32 36  1  0  0  0  0
 34 35  1  6  0  0  0
 34 37  1  0  0  0  0
 34 31  1  0  0  0  0
 34 32  1  0  0  0  0
 36 33  1  6  0  0  0
 38 42  1  0  0  0  0
 38 37  1  0  0  0  0
 41 40  1  0  0  0  0
 41 39  1  0  0  0  0
 42 40  2  0  0  0  0
 43 38  1  0  0  0  0
 43 41  1  0  0  0  0
M  END
>  <MODEL>
1

>  <REMARK>
 VINA RESULT:      -8.3      0.000      0.000
  Name = 
  11 active torsions:
  status: ('A' for Active; 'I' for Inactive)
    1  A    between atoms: N_1  and  C_34
    2  A    between atoms: N_1  and  C_35
    3  A    between atoms: C_2  and  O_7
    4  A    between atoms: C_2  and  C_13
    5  A    between atoms: C_3  and  N_4
    6  A    between atoms: C_3  and  C_12
    7  A    between atoms: C_6  and  O_7
    8  A    between atoms: C_6  and  C_12
    9  A    between atoms: N_11  and  C_14
   10  A    between atoms: C_14  and  C_22
   11  A    between atoms: C_19  and  C_37
                            x       y       z     vdW  Elec       q    Type
                         _______ _______ _______ _____ _____    ______ ____

>  <TORSDO>
F 11

$$$$
=
 OpenBabel11052416073D

 43 48  0  0  1  0  0  0  0  0999 V2000
  188.3220  177.4870  148.4280 N   0  0  0  0  0  0  0  0  0  0  0  0
  186.2730  178.4180  143.8630 C   0  0  0  0  0  0  0  0  0  0  0  0
  188.2260  177.7940  142.0190 C   0  0  0  0  0  0  0  0  0  0  0  0
  186.8010  178.0130  146.5860 C   0  0  0  0  0  0  0  0  0  0  0  0
  188.9870  176.5520  147.5130 C   0  0  0  0  0  2  0  0  0  0  0  0
  189.0500  178.6280  148.4680 O   0  0  0  0  0  1  0  0  0  0  0  0
  187.7700  177.6660  145.6340 C   0  0  0  0  0  0  0  0  0  0  0  0
  187.0600  177.8090  147.9480 O   0  0  0  0  0  0  0  0  0  0  0  0
  189.0930  177.1310  146.0990 C   0  0  0  0  0  2  0  0  0  0  0  0
  188.4550  177.5840  143.3400 N   0  0  0  0  0  0  0  0  0  0  0  0
  187.5140  177.8800  144.2710 C   0  0  0  0  0  0  0  0  0  0  0  0
  185.3060  178.7410  144.8240 C   0  0  0  0  0  3  0  0  0  0  0  0
  186.0550  178.6260  142.4930 C   0  0  0  0  0  0  0  0  0  0  0  0
  187.0410  178.3130  141.6040 N   0  0  0  0  0  0  0  0  0  0  0  0
  185.5700  178.5360  146.1810 C   0  0  0  0  0  3  0  0  0  0  0  0
  184.8100  179.1670  142.0310 N   0  0  0  0  0  2  0  0  0  0  0  0
  183.3620  178.6400  138.5780 C   0  0  0  0  0  2  0  0  0  0  0  0
  181.8920  178.6100  139.0130 C   0  0  1  0  0  3  0  0  0  0  0  0
  182.5440  178.6190  141.3450 C   0  0  0  0  0  2  0  0  0  0  0  0
  184.2490  179.2520  139.6570 C   0  0  0  0  0  2  0  0  0  0  0  0
  184.0210  178.5360  140.9830 C   0  0  1  0  0  3  0  0  0  0  0  0
  181.7320  177.9570  140.3190 N   0  0  0  0  0  2  0  0  0  0  0  0
  180.7870  181.0450  138.9750 C   0  0  0  0  0  3  0  0  0  0  0  0
  181.2840  179.9490  138.9940 C   0  0  0  0  0  0  0  0  0  0  0  0
  189.3330  177.5380  141.0420 C   0  0  0  0  0  2  0  0  0  0  0  0
  188.8620  177.1270  139.7780 O   0  0  0  0  0  0  0  0  0  0  0  0
  189.6710  177.7150  138.7910 C   0  0  0  0  0  2  0  0  0  0  0  0
  188.8430  178.3430  137.6750 C   0  0  1  0  0  3  0  0  0  0  0  0
  189.0550  179.7300  137.6560 O   0  0  0  0  0  1  0  0  0  0  0  0
  189.2950  177.7280  136.3610 C   0  0  0  0  0  2  0  0  0  0  0  0
  189.9980  176.4600  136.5850 N   0  0  0  0  0  0  0  0  0  0  0  0
  190.2760  175.1380  134.8860 C   0  0  0  0  0  2  0  0  0  0  0  0
  192.2030  175.9120  136.0470 O   0  0  0  0  0  1  0  0  0  0  0  0
  189.2870  175.2960  136.0210 C   0  0  1  0  0  0  0  0  0  0  0  0
  189.3610  174.1180  136.9800 C   0  0  0  0  0  1  0  0  0  0  0  0
  190.9830  176.3250  135.5120 C   0  0  2  0  0  3  0  0  0  0  0  0
  187.8490  175.5490  135.5280 C   0  0  0  0  0  2  0  0  0  0  0  0
  186.8660  174.9670  136.4310 N   0  0  0  0  0  0  0  0  0  0  0  0
  184.3630  176.9890  135.4370 C   0  0  0  0  0  1  0  0  0  0  0  0
  184.7160  174.6890  135.4300 C   0  0  0  0  0  3  0  0  0  0  0  0
  184.6410  175.8520  136.2940 N   0  0  0  0  0  0  0  0  0  0  0  0
  186.0610  174.0520  135.6460 C   0  0  0  0  0  3  0  0  0  0  0  0
  185.9830  176.0530  136.8400 C   0  0  0  0  0  2  0  0  0  0  0  0
  1  6  1  0  0  0  0
  2 11  2  0  0  0  0
  2 12  1  0  0  0  0
  3 10  2  0  0  0  0
  4  8  1  0  0  0  0
  5  1  1  0  0  0  0
  7  9  1  0  0  0  0
  7  4  2  0  0  0  0
  8  1  1  0  0  0  0
  9  5  1  0  0  0  0
 10 11  1  0  0  0  0
 11  7  1  0  0  0  0
 12 15  2  0  0  0  0
 13  2  1  0  0  0  0
 14  3  1  0  0  0  0
 14 13  2  0  0  0  0
 15  4  1  0  0  0  0
 16 13  1  0  0  0  0
 17 18  1  0  0  0  0
 17 20  1  0  0  0  0
 18 24  1  1  0  0  0
 18 22  1  0  0  0  0
 20 21  1  0  0  0  0
 21 19  1  0  0  0  0
 21 16  1  1  0  0  0
 22 19  1  0  0  0  0
 23 24  3  0  0  0  0
 25  3  1  0  0  0  0
 26 25  1  0  0  0  0
 27 26  1  0  0  0  0
 28 29  1  6  0  0  0
 28 27  1  0  0  0  0
 30 31  1  0  0  0  0
 30 28  1  0  0  0  0
 32 36  1  0  0  0  0
 32 34  1  0  0  0  0
 34 31  1  0  0  0  0
 34 35  1  1  0  0  0
 36 33  1  1  0  0  0
 36 31  1  0  0  0  0
 37 34  1  0  0  0  0
 37 38  1  0  0  0  0
 38 43  1  0  0  0  0
 39 41  1  0  0  0  0
 40 42  2  0  0  0  0
 40 41  1  0  0  0  0
 41 43  1  0  0  0  0
 42 38  1  0  0  0  0
M  END
>  <MODEL>
2

>  <REMARK>
 VINA RESULT:      -8.1      1.285      2.207
  Name = 
  11 active torsions:
  status: ('A' for Active; 'I' for Inactive)
    1  A    between atoms: N_1  and  C_34
    2  A    between atoms: N_1  and  C_35
    3  A    between atoms: C_2  and  O_7
    4  A    between atoms: C_2  and  C_13
    5  A    between atoms: C_3  and  N_4
    6  A    between atoms: C_3  and  C_12
    7  A    between atoms: C_6  and  O_7
    8  A    between atoms: C_6  and  C_12
    9  A    between atoms: N_11  and  C_14
   10  A    between atoms: C_14  and  C_22
   11  A    between atoms: C_19  and  C_37
                            x       y       z     vdW  Elec       q    Type
                         _______ _______ _______ _____ _____    ______ ____

>  <TORSDO>
F 11

$$$$
=
 OpenBabel11052416073D

 43 48  0  0  1  0  0  0  0  0999 V2000
  191.3330  176.7540  147.4500 N   0  0  0  0  0  0  0  0  0  0  0  0
  189.4810  177.6780  142.8000 C   0  0  0  0  0  0  0  0  0  0  0  0
  186.7570  177.9630  143.1160 C   0  0  0  0  0  0  0  0  0  0  0  0
  191.0710  177.2390  145.0670 C   0  0  0  0  0  0  0  0  0  0  0  0
  190.1340  177.5710  147.6710 C   0  0  0  0  0  2  0  0  0  0  0  0
  190.9660  175.4500  147.4690 O   0  0  0  0  0  1  0  0  0  0  0  0
  189.6880  177.4220  145.2150 C   0  0  0  0  0  0  0  0  0  0  0  0
  191.8690  177.0220  146.1980 O   0  0  0  0  0  0  0  0  0  0  0  0
  189.0810  177.3290  146.5850 C   0  0  0  0  0  2  0  0  0  0  0  0
  187.5450  177.7720  144.2040 N   0  0  0  0  0  0  0  0  0  0  0  0
  188.8890  177.6290  144.0810 C   0  0  0  0  0  0  0  0  0  0  0  0
  190.8670  177.5130  142.6690 C   0  0  0  0  0  3  0  0  0  0  0  0
  188.6500  177.8780  141.6880 C   0  0  0  0  0  0  0  0  0  0  0  0
  187.3050  178.0110  141.8740 N   0  0  0  0  0  0  0  0  0  0  0  0
  191.6580  177.2970  143.8000 C   0  0  0  0  0  3  0  0  0  0  0  0
  189.2070  177.9380  140.3680 N   0  0  0  0  0  2  0  0  0  0  0  0
  187.2040  177.1590  137.2560 C   0  0  0  0  0  2  0  0  0  0  0  0
  187.9810  178.0880  136.3180 C   0  0  1  0  0  3  0  0  0  0  0  0
  189.2100  179.0120  138.1880 C   0  0  0  0  0  2  0  0  0  0  0  0
  187.9840  176.8830  138.5370 C   0  0  0  0  0  2  0  0  0  0  0  0
  188.3970  178.1990  139.1860 C   0  0  1  0  0  3  0  0  0  0  0  0
  188.4010  179.3170  137.0030 N   0  0  0  0  0  2  0  0  0  0  0  0
  190.0430  176.8430  135.1560 C   0  0  0  0  0  3  0  0  0  0  0  0
  189.1160  177.4050  135.6800 C   0  0  0  0  0  0  0  0  0  0  0  0
  185.2710  178.0190  143.2990 C   0  0  0  0  0  2  0  0  0  0  0  0
  184.6590  179.0030  142.4950 O   0  0  0  0  0  0  0  0  0  0  0  0
  183.7720  178.3650  141.6120 C   0  0  0  0  0  2  0  0  0  0  0  0
  183.7640  179.0240  140.2370 C   0  0  1  0  0  3  0  0  0  0  0  0
  184.9880  179.6750  140.0200 O   0  0  0  0  0  1  0  0  0  0  0  0
  183.5640  177.9300  139.2000 C   0  0  0  0  0  2  0  0  0  0  0  0
  182.5740  178.3290  138.1940 N   0  0  0  0  0  0  0  0  0  0  0  0
  180.6430  177.3400  138.2220 C   0  0  0  0  0  2  0  0  0  0  0  0
  180.7080  179.7060  138.4650 O   0  0  0  0  0  1  0  0  0  0  0  0
  181.9620  177.1810  137.4980 C   0  0  1  0  0  0  0  0  0  0  0  0
  181.8130  177.4830  136.0150 C   0  0  0  0  0  1  0  0  0  0  0  0
  181.3070  178.5240  138.8990 C   0  0  2  0  0  3  0  0  0  0  0  0
  182.6160  175.8070  137.7430 C   0  0  0  0  0  2  0  0  0  0  0  0
  182.8320  175.0900  136.4950 N   0  0  0  0  0  0  0  0  0  0  0  0
  185.0810  172.9530  137.8060 C   0  0  0  0  0  1  0  0  0  0  0  0
  183.0030  172.7250  136.7850 C   0  0  0  0  0  3  0  0  0  0  0  0
  184.3470  173.2320  136.5860 N   0  0  0  0  0  0  0  0  0  0  0  0
  182.0520  173.8700  136.5680 C   0  0  0  0  0  3  0  0  0  0  0  0
  184.2350  174.6870  136.4850 C   0  0  0  0  0  2  0  0  0  0  0  0
  1  6  1  0  0  0  0
  1  5  1  0  0  0  0
  2 11  1  0  0  0  0
  3 25  1  0  0  0  0
  3 10  2  0  0  0  0
  4  7  1  0  0  0  0
  4  8  1  0  0  0  0
  7  9  1  0  0  0  0
  8  1  1  0  0  0  0
  9  5  1  0  0  0  0
 11 10  1  0  0  0  0
 11  7  2  0  0  0  0
 12  2  2  0  0  0  0
 12 15  1  0  0  0  0
 13 14  2  0  0  0  0
 13  2  1  0  0  0  0
 14  3  1  0  0  0  0
 15  4  2  0  0  0  0
 16 13  1  0  0  0  0
 17 20  1  0  0  0  0
 18 24  1  1  0  0  0
 18 22  1  0  0  0  0
 18 17  1  0  0  0  0
 19 21  1  0  0  0  0
 20 21  1  0  0  0  0
 21 16  1  1  0  0  0
 22 19  1  0  0  0  0
 23 24  3  0  0  0  0
 26 25  1  0  0  0  0
 27 26  1  0  0  0  0
 28 29  1  6  0  0  0
 28 27  1  0  0  0  0
 30 28  1  0  0  0  0
 31 36  1  0  0  0  0
 31 30  1  0  0  0  0
 32 36  1  0  0  0  0
 34 35  1  6  0  0  0
 34 37  1  0  0  0  0
 34 31  1  0  0  0  0
 34 32  1  0  0  0  0
 36 33  1  6  0  0  0
 38 42  1  0  0  0  0
 38 37  1  0  0  0  0
 41 40  1  0  0  0  0
 41 39  1  0  0  0  0
 42 40  2  0  0  0  0
 43 38  1  0  0  0  0
 43 41  1  0  0  0  0
M  END
>  <MODEL>
3

>  <REMARK>
 VINA RESULT:      -7.9      2.495      5.244
  Name = 
  11 active torsions:
  status: ('A' for Active; 'I' for Inactive)
    1  A    between atoms: N_1  and  C_34
    2  A    between atoms: N_1  and  C_35
    3  A    between atoms: C_2  and  O_7
    4  A    between atoms: C_2  and  C_13
    5  A    between atoms: C_3  and  N_4
    6  A    between atoms: C_3  and  C_12
    7  A    between atoms: C_6  and  O_7
    8  A    between atoms: C_6  and  C_12
    9  A    between atoms: N_11  and  C_14
   10  A    between atoms: C_14  and  C_22
   11  A    between atoms: C_19  and  C_37
                            x       y       z     vdW  Elec       q    Type
                         _______ _______ _______ _____ _____    ______ ____

>  <TORSDO>
F 11

$$$$
=
 OpenBabel11052416073D

 43 48  0  0  1  0  0  0  0  0999 V2000
  185.2060  178.5070  147.1320 N   0  0  0  0  0  0  0  0  0  0  0  0
  184.6220  178.8470  142.0870 C   0  0  0  0  0  0  0  0  0  0  0  0
  187.1280  178.4480  141.0100 C   0  0  0  0  0  0  0  0  0  0  0  0
  184.2990  178.6800  144.8670 C   0  0  0  0  0  0  0  0  0  0  0  0
  186.2510  177.6440  146.5670 C   0  0  0  0  0  2  0  0  0  0  0  0
  185.7210  179.7520  147.2780 O   0  0  0  0  0  1  0  0  0  0  0  0
  185.5600  178.4440  144.3010 C   0  0  0  0  0  0  0  0  0  0  0  0
  184.1330  178.5950  146.2560 O   0  0  0  0  0  0  0  0  0  0  0  0
  186.7250  178.1560  145.2030 C   0  0  0  0  0  2  0  0  0  0  0  0
  186.9490  178.3500  142.3510 N   0  0  0  0  0  0  0  0  0  0  0  0
  185.7280  178.5400  142.9110 C   0  0  0  0  0  0  0  0  0  0  0  0
  183.3630  179.0600  142.6650 C   0  0  0  0  0  3  0  0  0  0  0  0
  184.8280  178.9420  140.7030 C   0  0  0  0  0  0  0  0  0  0  0  0
  186.0800  178.7460  140.1980 N   0  0  0  0  0  0  0  0  0  0  0  0
  183.2030  178.9750  144.0510 C   0  0  0  0  0  3  0  0  0  0  0  0
  183.7350  179.2490  139.8270 N   0  0  0  0  0  2  0  0  0  0  0  0
  181.5520  177.9260  137.0370 C   0  0  0  0  0  2  0  0  0  0  0  0
  181.3260  176.5370  137.6440 C   0  0  1  0  0  3  0  0  0  0  0  0
  182.9370  176.9950  139.3920 C   0  0  0  0  0  2  0  0  0  0  0  0
  182.0610  178.9130  138.0820 C   0  0  0  0  0  2  0  0  0  0  0  0
  183.2920  178.3430  138.7780 C   0  0  1  0  0  3  0  0  0  0  0  0
  182.5230  176.0540  138.3460 N   0  0  0  0  0  2  0  0  0  0  0  0
  179.1590  176.4660  139.2100 C   0  0  0  0  0  3  0  0  0  0  0  0
  180.1350  176.4990  138.5070 C   0  0  0  0  0  0  0  0  0  0  0  0
  188.5140  178.3240  140.4530 C   0  0  0  0  0  2  0  0  0  0  0  0
  189.4610  177.9400  141.4250 O   0  0  0  0  0  0  0  0  0  0  0  0
  190.1790  176.8370  140.9330 C   0  0  0  0  0  2  0  0  0  0  0  0
  190.7910  177.1210  139.5640 C   0  0  1  0  0  3  0  0  0  0  0  0
  192.1770  177.2870  139.6950 O   0  0  0  0  0  1  0  0  0  0  0  0
  190.4890  175.9310  138.6680 C   0  0  0  0  0  2  0  0  0  0  0  0
  189.8130  176.3540  137.4370 N   0  0  0  0  0  0  0  0  0  0  0  0
  189.1540  174.8110  136.0590 C   0  0  0  0  0  2  0  0  0  0  0  0
  187.5300  176.3050  136.9490 O   0  0  0  0  0  1  0  0  0  0  0  0
  190.3600  175.7110  136.2260 C   0  0  1  0  0  0  0  0  0  0  0  0
  190.4530  176.7190  135.0910 C   0  0  0  0  0  1  0  0  0  0  0  0
  188.6240  175.5120  137.2950 C   0  0  2  0  0  3  0  0  0  0  0  0
  191.6720  174.9220  136.4060 C   0  0  0  0  0  2  0  0  0  0  0  0
  192.7900  175.5940  135.7600 N   0  0  0  0  0  0  0  0  0  0  0  0
  195.0500  174.6140  138.0570 C   0  0  0  0  0  1  0  0  0  0  0  0
  194.7970  174.3000  135.7660 C   0  0  0  0  0  3  0  0  0  0  0  0
  194.9370  175.3150  136.7920 N   0  0  0  0  0  0  0  0  0  0  0  0
  193.5210  174.5830  135.0220 C   0  0  0  0  0  3  0  0  0  0  0  0
  193.6730  176.0510  136.8280 C   0  0  0  0  0  2  0  0  0  0  0  0
  1  6  1  0  0  0  0
  2 12  2  0  0  0  0
  2 11  1  0  0  0  0
  3 10  2  0  0  0  0
  4  8  1  0  0  0  0
  5  1  1  0  0  0  0
  7  4  1  0  0  0  0
  7  9  1  0  0  0  0
  8  1  1  0  0  0  0
  9  5  1  0  0  0  0
 10 11  1  0  0  0  0
 11  7  2  0  0  0  0
 12 15  1  0  0  0  0
 13  2  1  0  0  0  0
 14 13  2  0  0  0  0
 14  3  1  0  0  0  0
 15  4  2  0  0  0  0
 16 13  1  0  0  0  0
 17 18  1  0  0  0  0
 17 20  1  0  0  0  0
 18 22  1  0  0  0  0
 18 24  1  1  0  0  0
 20 21  1  0  0  0  0
 21 19  1  0  0  0  0
 21 16  1  1  0  0  0
 22 19  1  0  0  0  0
 24 23  3  0  0  0  0
 25  3  1  0  0  0  0
 25 26  1  0  0  0  0
 27 26  1  0  0  0  0
 28 29  1  1  0  0  0
 28 27  1  0  0  0  0
 30 28  1  0  0  0  0
 31 30  1  0  0  0  0
 32 34  1  0  0  0  0
 32 36  1  0  0  0  0
 34 35  1  6  0  0  0
 34 37  1  0  0  0  0
 34 31  1  0  0  0  0
 36 33  1  6  0  0  0
 36 31  1  0  0  0  0
 38 37  1  0  0  0  0
 38 43  1  0  0  0  0
 40 41  1  0  0  0  0
 41 43  1  0  0  0  0
 41 39  1  0  0  0  0
 42 38  1  0  0  0  0
 42 40  2  0  0  0  0
M  END
>  <MODEL>
4

>  <REMARK>
 VINA RESULT:      -7.8      2.581      4.426
  Name = 
  11 active torsions:
  status: ('A' for Active; 'I' for Inactive)
    1  A    between atoms: N_1  and  C_34
    2  A    between atoms: N_1  and  C_35
    3  A    between atoms: C_2  and  O_7
    4  A    between atoms: C_2  and  C_13
    5  A    between atoms: C_3  and  N_4
    6  A    between atoms: C_3  and  C_12
    7  A    between atoms: C_6  and  O_7
    8  A    between atoms: C_6  and  C_12
    9  A    between atoms: N_11  and  C_14
   10  A    between atoms: C_14  and  C_22
   11  A    between atoms: C_19  and  C_37
                            x       y       z     vdW  Elec       q    Type
                         _______ _______ _______ _____ _____    ______ ____

>  <TORSDO>
F 11

$$$$
=
 OpenBabel11052416073D

 43 48  0  0  1  0  0  0  0  0999 V2000
  188.9020  177.5640  148.4650 N   0  0  0  0  0  0  0  0  0  0  0  0
  185.5450  178.6150  144.7870 C   0  0  0  0  0  0  0  0  0  0  0  0
  186.8840  178.2200  142.4090 C   0  0  0  0  0  0  0  0  0  0  0  0
  186.8790  178.0940  147.1970 C   0  0  0  0  0  0  0  0  0  0  0  0
  189.3050  176.7250  147.3290 C   0  0  0  0  0  2  0  0  0  0  0  0
  189.5580  178.7450  148.3710 O   0  0  0  0  0  1  0  0  0  0  0  0
  187.5350  177.8630  145.9780 C   0  0  0  0  0  0  0  0  0  0  0  0
  187.5410  177.8310  148.4030 O   0  0  0  0  0  0  0  0  0  0  0  0
  188.9580  177.3880  145.9920 C   0  0  0  0  0  2  0  0  0  0  0  0
  187.5070  177.9520  143.5850 N   0  0  0  0  0  0  0  0  0  0  0  0
  186.8740  178.1360  144.7710 C   0  0  0  0  0  0  0  0  0  0  0  0
  184.8960  178.8220  146.0110 C   0  0  0  0  0  3  0  0  0  0  0  0
  184.9190  178.8840  143.5610 C   0  0  0  0  0  0  0  0  0  0  0  0
  185.6080  178.6850  142.4000 N   0  0  0  0  0  0  0  0  0  0  0  0
  185.5610  178.5590  147.2110 C   0  0  0  0  0  3  0  0  0  0  0  0
  183.5710  179.3700  143.5270 N   0  0  0  0  0  2  0  0  0  0  0  0
  181.2150  178.1470  140.8340 C   0  0  0  0  0  2  0  0  0  0  0  0
  179.9180  178.4830  141.5780 C   0  0  1  0  0  3  0  0  0  0  0  0
  181.1640  179.0350  143.5790 C   0  0  0  0  0  2  0  0  0  0  0  0
  182.4080  178.8800  141.4370 C   0  0  0  0  0  2  0  0  0  0  0  0
  182.4780  178.6110  142.9360 C   0  0  1  0  0  3  0  0  0  0  0  0
  180.0520  178.2560  143.0230 N   0  0  0  0  0  2  0  0  0  0  0  0
  179.0670  180.9590  141.0350 C   0  0  0  0  0  3  0  0  0  0  0  0
  179.4480  179.8440  141.2810 C   0  0  0  0  0  0  0  0  0  0  0  0
  187.6600  178.0910  141.1330 C   0  0  0  0  0  2  0  0  0  0  0  0
  189.0030  177.7190  141.3450 O   0  0  0  0  0  0  0  0  0  0  0  0
  189.7350  178.0190  140.1840 C   0  0  0  0  0  2  0  0  0  0  0  0
  188.8340  178.1400  138.9590 C   0  0  1  0  0  3  0  0  0  0  0  0
  189.0530  179.3770  138.3340 O   0  0  0  0  0  1  0  0  0  0  0  0
  189.1890  177.0060  138.0100 C   0  0  0  0  0  2  0  0  0  0  0  0
  188.3020  176.9980  136.8410 N   0  0  0  0  0  0  0  0  0  0  0  0
  186.9800  175.2970  136.5820 C   0  0  0  0  0  2  0  0  0  0  0  0
  186.0170  177.4660  136.7530 O   0  0  0  0  0  1  0  0  0  0  0  0
  188.3460  175.7280  136.0920 C   0  0  1  0  0  0  0  0  0  0  0  0
  188.3310  175.9980  134.5950 C   0  0  0  0  0  1  0  0  0  0  0  0
  186.9720  176.6220  137.3200 C   0  0  2  0  0  3  0  0  0  0  0  0
  189.4610  174.7390  136.4870 C   0  0  0  0  0  2  0  0  0  0  0  0
  190.4450  174.5940  135.4240 N   0  0  0  0  0  0  0  0  0  0  0  0
  193.0740  174.4220  137.5230 C   0  0  0  0  0  1  0  0  0  0  0  0
  192.1490  172.9990  135.9320 C   0  0  0  0  0  3  0  0  0  0  0  0
  192.7240  174.3170  136.1190 N   0  0  0  0  0  0  0  0  0  0  0  0
  190.7760  173.1850  135.3460 C   0  0  0  0  0  3  0  0  0  0  0  0
  191.6500  175.2800  135.8780 C   0  0  0  0  0  2  0  0  0  0  0  0
  2 12  1  0  0  0  0
  3 10  2  0  0  0  0
  4 15  1  0  0  0  0
  4  8  1  0  0  0  0
  5  1  1  0  0  0  0
  6  1  1  0  0  0  0
  7  9  1  0  0  0  0
  7  4  2  0  0  0  0
  8  1  1  0  0  0  0
  9  5  1  0  0  0  0
 10 11  1  0  0  0  0
 11  2  2  0  0  0  0
 11  7  1  0  0  0  0
 12 15  2  0  0  0  0
 13  2  1  0  0  0  0
 14  3  1  0  0  0  0
 14 13  2  0  0  0  0
 16 13  1  0  0  0  0
 17 20  1  0  0  0  0
 17 18  1  0  0  0  0
 18 24  1  1  0  0  0
 18 22  1  0  0  0  0
 20 21  1  0  0  0  0
 21 16  1  1  0  0  0
 21 19  1  0  0  0  0
 22 19  1  0  0  0  0
 23 24  3  0  0  0  0
 25 26  1  0  0  0  0
 25  3  1  0  0  0  0
 27 26  1  0  0  0  0
 28 29  1  6  0  0  0
 28 27  1  0  0  0  0
 30 28  1  0  0  0  0
 31 36  1  0  0  0  0
 31 30  1  0  0  0  0
 32 36  1  0  0  0  0
 34 35  1  6  0  0  0
 34 37  1  0  0  0  0
 34 32  1  0  0  0  0
 34 31  1  0  0  0  0
 36 33  1  6  0  0  0
 38 43  1  0  0  0  0
 38 37  1  0  0  0  0
 40 41  1  0  0  0  0
 41 39  1  0  0  0  0
 42 38  1  0  0  0  0
 42 40  2  0  0  0  0
 43 41  1  0  0  0  0
M  END
>  <MODEL>
5

>  <REMARK>
 VINA RESULT:      -7.6      2.127      3.532
  Name = 
  11 active torsions:
  status: ('A' for Active; 'I' for Inactive)
    1  A    between atoms: N_1  and  C_34
    2  A    between atoms: N_1  and  C_35
    3  A    between atoms: C_2  and  O_7
    4  A    between atoms: C_2  and  C_13
    5  A    between atoms: C_3  and  N_4
    6  A    between atoms: C_3  and  C_12
    7  A    between atoms: C_6  and  O_7
    8  A    between atoms: C_6  and  C_12
    9  A    between atoms: N_11  and  C_14
   10  A    between atoms: C_14  and  C_22
   11  A    between atoms: C_19  and  C_37
                            x       y       z     vdW  Elec       q    Type
                         _______ _______ _______ _____ _____    ______ ____

>  <TORSDO>
F 11

$$$$
=
 OpenBabel11052416073D

 43 48  0  0  1  0  0  0  0  0999 V2000
  191.4010  176.7490  147.4190 N   0  0  0  0  0  0  0  0  0  0  0  0
  189.4950  177.7820  142.8140 C   0  0  0  0  0  0  0  0  0  0  0  0
  186.7600  177.9120  143.1420 C   0  0  0  0  0  0  0  0  0  0  0  0
  191.1100  177.3250  145.0590 C   0  0  0  0  0  0  0  0  0  0  0  0
  190.1610  177.4930  147.6760 C   0  0  0  0  0  2  0  0  0  0  0  0
  191.1010  175.4290  147.3800 O   0  0  0  0  0  1  0  0  0  0  0  0
  189.7200  177.4310  145.2160 C   0  0  0  0  0  0  0  0  0  0  0  0
  191.9200  177.1000  146.1800 O   0  0  0  0  0  0  0  0  0  0  0  0
  189.1210  177.2450  146.5800 C   0  0  0  0  0  2  0  0  0  0  0  0
  187.5590  177.7140  144.2210 N   0  0  0  0  0  0  0  0  0  0  0  0
  188.9080  177.6460  144.0920 C   0  0  0  0  0  0  0  0  0  0  0  0
  190.8870  177.6950  142.6760 C   0  0  0  0  0  3  0  0  0  0  0  0
  188.6530  177.9890  141.7120 C   0  0  0  0  0  0  0  0  0  0  0  0
  187.3020  178.0430  141.9030 N   0  0  0  0  0  0  0  0  0  0  0  0
  191.6900  177.4700  143.7970 C   0  0  0  0  0  3  0  0  0  0  0  0
  189.2020  178.1350  140.3960 N   0  0  0  0  0  2  0  0  0  0  0  0
  187.3800  176.7890  137.3680 C   0  0  0  0  0  2  0  0  0  0  0  0
  188.0120  177.7460  136.3510 C   0  0  1  0  0  3  0  0  0  0  0  0
  189.0610  179.0070  138.1320 C   0  0  0  0  0  2  0  0  0  0  0  0
  188.1800  176.7490  138.6660 C   0  0  0  0  0  2  0  0  0  0  0  0
  188.3750  178.1640  139.1990 C   0  0  1  0  0  3  0  0  0  0  0  0
  188.2260  179.0800  136.9280 N   0  0  0  0  0  2  0  0  0  0  0  0
  190.2600  176.7500  135.3000 C   0  0  0  0  0  3  0  0  0  0  0  0
  189.2470  177.1980  135.7710 C   0  0  0  0  0  0  0  0  0  0  0  0
  185.2730  177.8840  143.3260 C   0  0  0  0  0  2  0  0  0  0  0  0
  184.6480  179.0750  142.9030 O   0  0  0  0  0  0  0  0  0  0  0  0
  183.6780  178.7480  141.9410 C   0  0  0  0  0  2  0  0  0  0  0  0
  182.2940  178.5830  142.5600 C   0  0  1  0  0  3  0  0  0  0  0  0
  181.9970  179.7020  143.3530 O   0  0  0  0  0  1  0  0  0  0  0  0
  181.2900  178.4680  141.4240 C   0  0  0  0  0  2  0  0  0  0  0  0
  181.1390  179.7460  140.7200 N   0  0  0  0  0  0  0  0  0  0  0  0
  179.6550  179.8660  139.1410 C   0  0  0  0  0  2  0  0  0  0  0  0
  179.4710  181.3580  140.9860 O   0  0  0  0  0  1  0  0  0  0  0  0
  181.1410  179.6010  139.2520 C   0  0  1  0  0  0  0  0  0  0  0  0
  181.9460  180.7220  138.6120 C   0  0  0  0  0  1  0  0  0  0  0  0
  179.7040  180.0240  140.6490 C   0  0  2  0  0  3  0  0  0  0  0  0
  181.5420  178.2180  138.7030 C   0  0  0  0  0  2  0  0  0  0  0  0
  182.6800  178.3130  137.8000 N   0  0  0  0  0  0  0  0  0  0  0  0
  183.4320  175.0340  137.9780 C   0  0  0  0  0  1  0  0  0  0  0  0
  182.8210  176.4870  136.2670 C   0  0  0  0  0  3  0  0  0  0  0  0
  183.8130  176.2580  137.3000 N   0  0  0  0  0  0  0  0  0  0  0  0
  182.2290  177.8500  136.5020 C   0  0  0  0  0  3  0  0  0  0  0  0
  183.6640  177.3430  138.2700 C   0  0  0  0  0  2  0  0  0  0  0  0
  1  5  1  0  0  0  0
  2 11  1  0  0  0  0
  3 25  1  0  0  0  0
  3 10  2  0  0  0  0
  4  7  1  0  0  0  0
  4  8  1  0  0  0  0
  6  1  1  0  0  0  0
  7  9  1  0  0  0  0
  8  1  1  0  0  0  0
  9  5  1  0  0  0  0
 11 10  1  0  0  0  0
 11  7  2  0  0  0  0
 12  2  2  0  0  0  0
 12 15  1  0  0  0  0
 13 14  2  0  0  0  0
 13  2  1  0  0  0  0
 14  3  1  0  0  0  0
 15  4  2  0  0  0  0
 16 13  1  0  0  0  0
 17 20  1  0  0  0  0
 18 24  1  1  0  0  0
 18 22  1  0  0  0  0
 18 17  1  0  0  0  0
 19 21  1  0  0  0  0
 20 21  1  0  0  0  0
 21 16  1  1  0  0  0
 22 19  1  0  0  0  0
 23 24  3  0  0  0  0
 26 25  1  0  0  0  0
 27 28  1  0  0  0  0
 27 26  1  0  0  0  0
 28 29  1  1  0  0  0
 30 28  1  0  0  0  0
 31 30  1  0  0  0  0
 32 34  1  0  0  0  0
 32 36  1  0  0  0  0
 34 35  1  6  0  0  0
 34 31  1  0  0  0  0
 36 31  1  0  0  0  0
 36 33  1  6  0  0  0
 37 34  1  0  0  0  0
 38 43  1  0  0  0  0
 38 37  1  0  0  0  0
 40 42  2  0  0  0  0
 40 41  1  0  0  0  0
 41 39  1  0  0  0  0
 41 43  1  0  0  0  0
 42 38  1  0  0  0  0
M  END
>  <MODEL>
6

>  <REMARK>
 VINA RESULT:      -7.6      2.833      6.055
  Name = 
  11 active torsions:
  status: ('A' for Active; 'I' for Inactive)
    1  A    between atoms: N_1  and  C_34
    2  A    between atoms: N_1  and  C_35
    3  A    between atoms: C_2  and  O_7
    4  A    between atoms: C_2  and  C_13
    5  A    between atoms: C_3  and  N_4
    6  A    between atoms: C_3  and  C_12
    7  A    between atoms: C_6  and  O_7
    8  A    between atoms: C_6  and  C_12
    9  A    between atoms: N_11  and  C_14
   10  A    between atoms: C_14  and  C_22
   11  A    between atoms: C_19  and  C_37
                            x       y       z     vdW  Elec       q    Type
                         _______ _______ _______ _____ _____    ______ ____

>  <TORSDO>
F 11

$$$$
=
 OpenBabel11052416073D

 43 48  0  0  1  0  0  0  0  0999 V2000
  179.7230  178.4770  143.8180 N   0  0  0  0  0  0  0  0  0  0  0  0
  184.5170  178.8150  142.1420 C   0  0  0  0  0  0  0  0  0  0  0  0
  184.3940  178.4050  139.4180 C   0  0  0  0  0  0  0  0  0  0  0  0
  182.1350  178.8350  143.6190 C   0  0  0  0  0  0  0  0  0  0  0  0
  179.6120  178.9670  142.4390 C   0  0  0  0  0  2  0  0  0  0  0  0
  179.6810  177.1230  143.7900 O   0  0  0  0  0  1  0  0  0  0  0  0
  182.0850  178.6650  142.2280 C   0  0  0  0  0  0  0  0  0  0  0  0
  180.9460  178.8490  144.3600 O   0  0  0  0  0  0  0  0  0  0  0  0
  180.7570  178.4460  141.5640 C   0  0  0  0  0  2  0  0  0  0  0  0
  183.2490  178.4400  140.1460 N   0  0  0  0  0  0  0  0  0  0  0  0
  183.2770  178.6400  141.4880 C   0  0  0  0  0  0  0  0  0  0  0  0
  184.5490  179.0040  143.5300 C   0  0  0  0  0  3  0  0  0  0  0  0
  185.6880  178.7770  141.3720 C   0  0  0  0  0  0  0  0  0  0  0  0
  185.5970  178.5670  140.0260 N   0  0  0  0  0  0  0  0  0  0  0  0
  183.3610  179.0170  144.2650 C   0  0  0  0  0  3  0  0  0  0  0  0
  186.9690  178.9510  141.9910 N   0  0  0  0  0  2  0  0  0  0  0  0
  188.9510  176.7510  144.3440 C   0  0  0  0  0  2  0  0  0  0  0  0
  190.2510  176.7620  143.5310 C   0  0  1  0  0  3  0  0  0  0  0  0
  189.1450  177.9050  141.7060 C   0  0  0  0  0  2  0  0  0  0  0  0
  188.0190  177.8810  143.9170 C   0  0  0  0  0  2  0  0  0  0  0  0
  187.7970  177.8290  142.4100 C   0  0  1  0  0  3  0  0  0  0  0  0
  189.9820  176.7630  142.0870 N   0  0  0  0  0  2  0  0  0  0  0  0
  191.8630  178.7730  144.2460 C   0  0  0  0  0  3  0  0  0  0  0  0
  191.1370  177.8680  143.9220 C   0  0  0  0  0  0  0  0  0  0  0  0
  184.3130  178.0860  137.9560 C   0  0  0  0  0  2  0  0  0  0  0  0
  185.5470  178.2480  137.2920 O   0  0  0  0  0  0  0  0  0  0  0  0
  185.8460  177.0530  136.6160 C   0  0  0  0  0  2  0  0  0  0  0  0
  187.3440  176.7660  136.6030 C   0  0  1  0  0  3  0  0  0  0  0  0
  188.0170  177.7440  137.3500 O   0  0  0  0  0  1  0  0  0  0  0  0
  187.5570  175.3950  137.2240 C   0  0  0  0  0  2  0  0  0  0  0  0
  187.4940  174.3380  136.2080 N   0  0  0  0  0  0  0  0  0  0  0  0
  187.8830  172.2990  136.8400 C   0  0  0  0  0  2  0  0  0  0  0  0
  185.7860  172.7920  135.8310 O   0  0  0  0  0  1  0  0  0  0  0  0
  188.6670  173.4420  136.2330 C   0  0  1  0  0  0  0  0  0  0  0  0
  189.1070  173.1130  134.8150 C   0  0  0  0  0  1  0  0  0  0  0  0
  186.7020  173.2480  136.7790 C   0  0  2  0  0  3  0  0  0  0  0  0
  189.8490  173.8900  137.1150 C   0  0  0  0  0  2  0  0  0  0  0  0
  190.9450  174.4120  136.3110 N   0  0  0  0  0  0  0  0  0  0  0  0
  191.8310  176.7530  138.5650 C   0  0  0  0  0  1  0  0  0  0  0  0
  192.8930  174.9240  137.5950 C   0  0  0  0  0  3  0  0  0  0  0  0
  192.2340  176.1800  137.2950 N   0  0  0  0  0  0  0  0  0  0  0  0
  192.1670  173.8420  136.8430 C   0  0  0  0  0  3  0  0  0  0  0  0
  191.0050  175.8460  136.5740 C   0  0  0  0  0  2  0  0  0  0  0  0
  1  8  1  0  0  0  0
  2 12  1  0  0  0  0
  3 14  1  0  0  0  0
  3 10  2  0  0  0  0
  4 15  1  0  0  0  0
  4  8  1  0  0  0  0
  5  1  1  0  0  0  0
  6  1  1  0  0  0  0
  7  4  2  0  0  0  0
  9  7  1  0  0  0  0
  9  5  1  0  0  0  0
 10 11  1  0  0  0  0
 11  2  2  0  0  0  0
 11  7  1  0  0  0  0
 12 15  2  0  0  0  0
 13 16  1  0  0  0  0
 13  2  1  0  0  0  0
 14 13  2  0  0  0  0
 18 24  1  1  0  0  0
 18 17  1  0  0  0  0
 19 22  1  0  0  0  0
 19 21  1  0  0  0  0
 20 17  1  0  0  0  0
 21 16  1  6  0  0  0
 21 20  1  0  0  0  0
 22 18  1  0  0  0  0
 24 23  3  0  0  0  0
 25  3  1  0  0  0  0
 26 25  1  0  0  0  0
 27 26  1  0  0  0  0
 28 27  1  0  0  0  0
 28 30  1  0  0  0  0
 28 29  1  1  0  0  0
 31 34  1  0  0  0  0
 31 36  1  0  0  0  0
 31 30  1  0  0  0  0
 34 35  1  6  0  0  0
 34 32  1  0  0  0  0
 34 37  1  0  0  0  0
 36 33  1  6  0  0  0
 36 32  1  0  0  0  0
 38 43  1  0  0  0  0
 38 42  1  0  0  0  0
 38 37  1  0  0  0  0
 41 40  1  0  0  0  0
 41 39  1  0  0  0  0
 42 40  2  0  0  0  0
 43 41  1  0  0  0  0
M  END
>  <MODEL>
7

>  <REMARK>
 VINA RESULT:      -7.4      2.963      6.715
  Name = 
  11 active torsions:
  status: ('A' for Active; 'I' for Inactive)
    1  A    between atoms: N_1  and  C_34
    2  A    between atoms: N_1  and  C_35
    3  A    between atoms: C_2  and  O_7
    4  A    between atoms: C_2  and  C_13
    5  A    between atoms: C_3  and  N_4
    6  A    between atoms: C_3  and  C_12
    7  A    between atoms: C_6  and  O_7
    8  A    between atoms: C_6  and  C_12
    9  A    between atoms: N_11  and  C_14
   10  A    between atoms: C_14  and  C_22
   11  A    between atoms: C_19  and  C_37
                            x       y       z     vdW  Elec       q    Type
                         _______ _______ _______ _____ _____    ______ ____

>  <TORSDO>
F 11

$$$$
=
 OpenBabel11052416073D

 43 48  0  0  1  0  0  0  0  0999 V2000
  189.2070  177.0200  147.7280 N   0  0  0  0  0  0  0  0  0  0  0  0
  186.4410  178.2070  143.6240 C   0  0  0  0  0  0  0  0  0  0  0  0
  188.1980  178.1860  141.4990 C   0  0  0  0  0  0  0  0  0  0  0  0
  187.3880  177.5270  146.1730 C   0  0  0  0  0  0  0  0  0  0  0  0
  189.8770  176.3470  146.6080 C   0  0  0  0  0  2  0  0  0  0  0  0
  189.7520  178.2520  147.8670 O   0  0  0  0  0  1  0  0  0  0  0  0
  188.2610  177.4850  145.0760 C   0  0  0  0  0  0  0  0  0  0  0  0
  187.8580  177.1840  147.4480 O   0  0  0  0  0  0  0  0  0  0  0  0
  189.7010  177.1250  145.3000 C   0  0  0  0  0  2  0  0  0  0  0  0
  188.6330  177.8380  142.7360 N   0  0  0  0  0  0  0  0  0  0  0  0
  187.7930  177.8380  143.8010 C   0  0  0  0  0  0  0  0  0  0  0  0
  185.5760  178.2240  144.7260 C   0  0  0  0  0  3  0  0  0  0  0  0
  186.0100  178.5600  142.3370 C   0  0  0  0  0  0  0  0  0  0  0  0
  186.9020  178.5470  141.3050 N   0  0  0  0  0  0  0  0  0  0  0  0
  186.0490  177.8820  145.9950 C   0  0  0  0  0  3  0  0  0  0  0  0
  184.6460  178.9400  142.1080 N   0  0  0  0  0  2  0  0  0  0  0  0
  183.2810  177.7240  138.7980 C   0  0  0  0  0  2  0  0  0  0  0  0
  181.8330  178.1670  139.0390 C   0  0  1  0  0  3  0  0  0  0  0  0
  182.3510  178.7430  141.3320 C   0  0  0  0  0  2  0  0  0  0  0  0
  184.2420  178.4170  139.7580 C   0  0  0  0  0  2  0  0  0  0  0  0
  183.7730  178.2160  141.1950 C   0  0  1  0  0  3  0  0  0  0  0  0
  181.4470  178.0020  140.4460 N   0  0  0  0  0  2  0  0  0  0  0  0
  181.3880  180.6560  138.1700 C   0  0  0  0  0  3  0  0  0  0  0  0
  181.5890  179.5370  138.5630 C   0  0  0  0  0  0  0  0  0  0  0  0
  189.1880  178.2610  140.3760 C   0  0  0  0  0  2  0  0  0  0  0  0
  188.7310  179.0440  139.2960 O   0  0  0  0  0  0  0  0  0  0  0  0
  189.0090  178.3570  138.1030 C   0  0  0  0  0  2  0  0  0  0  0  0
  187.7360  177.8920  137.4030 C   0  0  1  0  0  3  0  0  0  0  0  0
  186.9000  178.9940  137.1680 O   0  0  0  0  0  1  0  0  0  0  0  0
  188.1400  177.2530  136.0840 C   0  0  0  0  0  2  0  0  0  0  0  0
  187.3240  176.0680  135.7990 N   0  0  0  0  0  0  0  0  0  0  0  0
  187.5160  174.3600  137.1240 C   0  0  0  0  0  2  0  0  0  0  0  0
  185.3730  175.3620  136.8690 O   0  0  0  0  0  1  0  0  0  0  0  0
  188.1030  174.8150  135.8050 C   0  0  1  0  0  0  0  0  0  0  0  0
  187.6560  173.9110  134.6660 C   0  0  0  0  0  1  0  0  0  0  0  0
  186.7230  175.6520  137.0660 C   0  0  2  0  0  3  0  0  0  0  0  0
  189.6360  174.9640  135.8540 C   0  0  0  0  0  2  0  0  0  0  0  0
  190.1900  174.3770  137.0660 N   0  0  0  0  0  0  0  0  0  0  0  0
  193.3790  174.5150  135.9920 C   0  0  0  0  0  1  0  0  0  0  0  0
  192.2100  175.4300  137.7830 C   0  0  0  0  0  3  0  0  0  0  0  0
  192.5790  174.1770  137.1540 N   0  0  0  0  0  0  0  0  0  0  0  0
  190.7090  175.4710  137.8640 C   0  0  0  0  0  3  0  0  0  0  0  0
  191.3400  173.5800  136.6530 C   0  0  0  0  0  2  0  0  0  0  0  0
  1  6  1  0  0  0  0
  2 11  2  0  0  0  0
  2 12  1  0  0  0  0
  3 10  2  0  0  0  0
  4  8  1  0  0  0  0
  5  1  1  0  0  0  0
  7  9  1  0  0  0  0
  7  4  2  0  0  0  0
  8  1  1  0  0  0  0
  9  5  1  0  0  0  0
 10 11  1  0  0  0  0
 11  7  1  0  0  0  0
 12 15  2  0  0  0  0
 13  2  1  0  0  0  0
 14  3  1  0  0  0  0
 14 13  2  0  0  0  0
 15  4  1  0  0  0  0
 16 13  1  0  0  0  0
 17 18  1  0  0  0  0
 17 20  1  0  0  0  0
 18 24  1  1  0  0  0
 18 22  1  0  0  0  0
 20 21  1  0  0  0  0
 21 19  1  0  0  0  0
 21 16  1  1  0  0  0
 22 19  1  0  0  0  0
 23 24  3  0  0  0  0
 25  3  1  0  0  0  0
 26 25  1  0  0  0  0
 27 26  1  0  0  0  0
 28 29  1  6  0  0  0
 28 27  1  0  0  0  0
 30 28  1  0  0  0  0
 31 34  1  0  0  0  0
 31 30  1  0  0  0  0
 31 36  1  0  0  0  0
 34 35  1  6  0  0  0
 34 37  1  0  0  0  0
 34 32  1  0  0  0  0
 36 33  1  6  0  0  0
 36 32  1  0  0  0  0
 37 38  1  0  0  0  0
 38 42  1  0  0  0  0
 39 41  1  0  0  0  0
 40 42  2  0  0  0  0
 41 40  1  0  0  0  0
 43 38  1  0  0  0  0
 43 41  1  0  0  0  0
M  END
>  <MODEL>
8

>  <REMARK>
 VINA RESULT:      -7.4      1.884      3.461
  Name = 
  11 active torsions:
  status: ('A' for Active; 'I' for Inactive)
    1  A    between atoms: N_1  and  C_34
    2  A    between atoms: N_1  and  C_35
    3  A    between atoms: C_2  and  O_7
    4  A    between atoms: C_2  and  C_13
    5  A    between atoms: C_3  and  N_4
    6  A    between atoms: C_3  and  C_12
    7  A    between atoms: C_6  and  O_7
    8  A    between atoms: C_6  and  C_12
    9  A    between atoms: N_11  and  C_14
   10  A    between atoms: C_14  and  C_22
   11  A    between atoms: C_19  and  C_37
                            x       y       z     vdW  Elec       q    Type
                         _______ _______ _______ _____ _____    ______ ____

>  <TORSDO>
F 11

$$$$
=
 OpenBabel11052416073D

 43 48  0  0  1  0  0  0  0  0999 V2000
  192.4510  175.1390  136.1410 N   0  0  0  0  0  0  0  0  0  0  0  0
  188.3140  177.6270  137.7550 C   0  0  0  0  0  0  0  0  0  0  0  0
  188.7450  178.1510  140.4270 C   0  0  0  0  0  0  0  0  0  0  0  0
  190.3230  176.3370  136.2850 C   0  0  0  0  0  0  0  0  0  0  0  0
  192.9240  176.0000  137.2320 C   0  0  0  0  0  2  0  0  0  0  0  0
  192.0890  173.9460  136.6710 O   0  0  0  0  0  1  0  0  0  0  0  0
  190.5420  176.6430  137.6370 C   0  0  0  0  0  0  0  0  0  0  0  0
  191.3260  175.6950  135.5470 O   0  0  0  0  0  0  0  0  0  0  0  0
  191.8320  176.2270  138.2810 C   0  0  0  0  0  2  0  0  0  0  0  0
  189.7150  177.5470  139.6950 N   0  0  0  0  0  0  0  0  0  0  0  0
  189.5330  177.2770  138.3780 C   0  0  0  0  0  0  0  0  0  0  0  0
  188.1180  177.3330  136.3990 C   0  0  0  0  0  3  0  0  0  0  0  0
  187.3260  178.2520  138.5290 C   0  0  0  0  0  0  0  0  0  0  0  0
  187.5640  178.4940  139.8500 N   0  0  0  0  0  0  0  0  0  0  0  0
  189.1210  176.6920  135.6670 C   0  0  0  0  0  3  0  0  0  0  0  0
  186.0740  178.6280  137.9400 N   0  0  0  0  0  2  0  0  0  0  0  0
  182.5400  177.2880  137.8000 C   0  0  0  0  0  2  0  0  0  0  0  0
  181.9130  178.3720  138.6820 C   0  0  1  0  0  3  0  0  0  0  0  0
  184.1010  179.2630  139.2100 C   0  0  0  0  0  2  0  0  0  0  0  0
  183.9080  177.7170  137.2780 C   0  0  0  0  0  2  0  0  0  0  0  0
  184.7950  178.1460  138.4410 C   0  0  1  0  0  3  0  0  0  0  0  0
  182.8260  178.7880  139.7560 N   0  0  0  0  0  2  0  0  0  0  0  0
  181.0560  180.4620  137.2500 C   0  0  0  0  0  3  0  0  0  0  0  0
  181.4400  179.5200  137.8940 C   0  0  0  0  0  0  0  0  0  0  0  0
  188.9610  178.3410  141.8980 C   0  0  0  0  0  2  0  0  0  0  0  0
  188.7890  177.1500  142.6340 O   0  0  0  0  0  0  0  0  0  0  0  0
  190.0560  176.6800  143.0180 C   0  0  0  0  0  2  0  0  0  0  0  0
  190.4810  177.2320  144.3740 C   0  0  1  0  0  3  0  0  0  0  0  0
  191.5100  178.1700  144.1980 O   0  0  0  0  0  1  0  0  0  0  0  0
  189.2690  177.9000  145.0030 C   0  0  0  0  0  2  0  0  0  0  0  0
  189.4210  178.0090  146.4580 N   0  0  0  0  0  0  0  0  0  0  0  0
  188.7420  176.3460  147.6770 C   0  0  0  0  0  2  0  0  0  0  0  0
  191.0240  177.0040  147.8260 O   0  0  0  0  0  1  0  0  0  0  0  0
  188.1880  177.6690  147.1950 C   0  0  1  0  0  0  0  0  0  0  0  0
  187.9850  178.6330  148.3540 C   0  0  0  0  0  1  0  0  0  0  0  0
  189.9950  176.7450  146.9210 C   0  0  2  0  0  3  0  0  0  0  0  0
  186.9090  177.5080  146.3490 C   0  0  0  0  0  2  0  0  0  0  0  0
  186.0810  178.7040  146.4030 N   0  0  0  0  0  0  0  0  0  0  0  0
  184.8640  178.3220  143.2850 C   0  0  0  0  0  1  0  0  0  0  0  0
  183.9280  178.4030  145.4140 C   0  0  0  0  0  3  0  0  0  0  0  0
  184.7350  179.1510  144.4690 N   0  0  0  0  0  0  0  0  0  0  0  0
  184.7270  178.2670  146.6810 C   0  0  0  0  0  3  0  0  0  0  0  0
  186.0700  179.2630  145.0550 C   0  0  0  0  0  2  0  0  0  0  0  0
  1  6  1  0  0  0  0
  1  5  1  0  0  0  0
  2 11  1  0  0  0  0
  2 13  1  0  0  0  0
  3 25  1  0  0  0  0
  4  7  1  0  0  0  0
  5  9  1  0  0  0  0
  7  9  1  0  0  0  0
  7 11  2  0  0  0  0
  8  1  1  0  0  0  0
  8  4  1  0  0  0  0
 10  3  2  0  0  0  0
 11 10  1  0  0  0  0
 12  2  2  0  0  0  0
 13 14  2  0  0  0  0
 14  3  1  0  0  0  0
 15  4  2  0  0  0  0
 15 12  1  0  0  0  0
 16 13  1  0  0  0  0
 17 18  1  0  0  0  0
 18 24  1  6  0  0  0
 18 22  1  0  0  0  0
 19 22  1  0  0  0  0
 20 17  1  0  0  0  0
 20 21  1  0  0  0  0
 21 16  1  6  0  0  0
 21 19  1  0  0  0  0
 23 24  3  0  0  0  0
 25 26  1  0  0  0  0
 26 27  1  0  0  0  0
 27 28  1  0  0  0  0
 28 29  1  6  0  0  0
 28 30  1  0  0  0  0
 30 31  1  0  0  0  0
 31 36  1  0  0  0  0
 31 34  1  0  0  0  0
 34 32  1  0  0  0  0
 34 35  1  1  0  0  0
 36 32  1  0  0  0  0
 36 33  1  1  0  0  0
 37 38  1  0  0  0  0
 37 34  1  0  0  0  0
 38 42  1  0  0  0  0
 39 41  1  0  0  0  0
 40 42  2  0  0  0  0
 41 43  1  0  0  0  0
 41 40  1  0  0  0  0
 43 38  1  0  0  0  0
M  END
>  <MODEL>
9

>  <REMARK>
 VINA RESULT:      -7.3      2.407      8.071
  Name = 
  11 active torsions:
  status: ('A' for Active; 'I' for Inactive)
    1  A    between atoms: N_1  and  C_34
    2  A    between atoms: N_1  and  C_35
    3  A    between atoms: C_2  and  O_7
    4  A    between atoms: C_2  and  C_13
    5  A    between atoms: C_3  and  N_4
    6  A    between atoms: C_3  and  C_12
    7  A    between atoms: C_6  and  O_7
    8  A    between atoms: C_6  and  C_12
    9  A    between atoms: N_11  and  C_14
   10  A    between atoms: C_14  and  C_22
   11  A    between atoms: C_19  and  C_37
                            x       y       z     vdW  Elec       q    Type
                         _______ _______ _______ _____ _____    ______ ____

>  <TORSDO>
F 11

$$$$
