=
 OpenBabel11052415433D

 34 37  0  0  1  0  0  0  0  0999 V2000
  187.9800  177.7580  143.9310 C   0  0  0  0  0  0  0  0  0  0  0  0
  184.8750  178.9300  145.4440 C   0  0  0  0  0  3  0  0  0  0  0  0
  186.5050  177.3660  146.3690 C   0  0  0  0  0  3  0  0  0  0  0  0
  190.0820  177.4760  145.2010 C   0  0  0  0  0  3  0  0  0  0  0  0
  189.9200  177.6020  147.6710 C   0  0  0  0  0  2  0  0  0  0  0  0
  190.6950  177.4680  146.3880 C   0  0  0  0  0  3  0  0  0  0  0  0
  187.8360  177.3030  146.3500 C   0  0  0  0  0  0  0  0  0  0  0  0
  188.6080  177.5220  145.1010 C   0  0  1  0  0  3  0  0  0  0  0  0
  188.5680  176.8910  147.5910 C   0  0  0  0  0  2  0  0  0  0  0  0
  183.9060  179.3560  144.6350 C   0  0  0  0  0  3  0  0  0  0  0  0
  183.5360  178.7510  143.3300 C   0  0  0  0  0  0  0  0  0  0  0  0
  184.4480  178.2200  142.4940 C   0  0  0  0  0  3  0  0  0  0  0  0
  185.6870  177.7150  145.1590 C   0  0  0  0  0  0  0  0  0  0  0  0
  185.8980  178.0520  142.7190 C   0  0  0  0  0  3  0  0  0  0  0  0
  186.5030  177.8850  143.9000 C   0  0  0  0  0  0  0  0  0  0  0  0
  182.1660  178.8550  142.8900 N   0  0  0  0  0  0  0  0  0  0  0  0
  181.8200  178.9470  141.4780 C   0  0  0  0  0  1  0  0  0  0  0  0
  181.0660  178.8310  143.8430 C   0  0  0  0  0  1  0  0  0  0  0  0
  188.6750  177.8970  142.7200 O   0  0  0  0  0  0  0  0  0  0  0  0
  189.1970  176.7920  141.9930 C   0  0  0  0  0  2  0  0  0  0  0  0
  190.4770  177.2010  141.2770 C   0  0  0  0  0  2  0  0  0  0  0  0
  190.8930  176.7400  137.5920 C   0  0  0  0  0  2  0  0  0  0  0  0
  188.9240  176.8990  139.5130 C   0  0  0  0  0  2  0  0  0  0  0  0
  189.7140  177.6390  137.2150 C   0  0  0  0  0  2  0  0  0  0  0  0
  188.5000  177.3980  138.1260 C   0  0  2  0  0  3  0  0  0  0  0  0
  190.2040  177.5040  139.8780 N   0  0  0  0  0  0  0  0  0  0  0  0
  191.2690  176.8850  139.0790 C   0  0  0  0  0  2  0  0  0  0  0  0
  187.7920  178.5930  138.2620 O   0  0  0  0  0  0  0  0  0  0  0  0
  186.6900  178.4660  137.4100 C   0  0  0  0  0  2  0  0  0  0  0  0
  185.4960  177.8630  138.1520 C   0  0  2  0  0  3  0  0  0  0  0  0
  184.8390  176.7700  137.3250 C   0  0  0  0  0  1  0  0  0  0  0  0
  184.4800  178.8760  138.6230 C   0  0  0  0  0  0  0  0  0  0  0  0
  184.8340  179.7670  139.3780 O   0  0  0  0  0  0  0  0  0  0  0  0
  183.0560  178.8480  138.1690 C   0  0  0  0  0  1  0  0  0  0  0  0
  1  8  1  0  0  0  0
  4  6  2  0  0  0  0
  6  5  1  0  0  0  0
  7  3  2  0  0  0  0
  7  9  1  0  0  0  0
  8  4  1  1  0  0  0
  8  7  1  0  0  0  0
  9  5  1  0  0  0  0
 10  2  1  0  0  0  0
 11 10  2  0  0  0  0
 12 14  2  0  0  0  0
 12 11  1  0  0  0  0
 13  2  2  0  0  0  0
 13  3  1  0  0  0  0
 14 15  1  0  0  0  0
 15  1  2  0  0  0  0
 15 13  1  0  0  0  0
 16 11  1  0  0  0  0
 16 18  1  0  0  0  0
 17 16  1  0  0  0  0
 19  1  1  0  0  0  0
 20 19  1  0  0  0  0
 21 20  1  0  0  0  0
 22 27  1  0  0  0  0
 23 26  1  0  0  0  0
 24 22  1  0  0  0  0
 24 25  1  0  0  0  0
 25 28  1  1  0  0  0
 25 23  1  0  0  0  0
 26 21  1  0  0  0  0
 27 26  1  0  0  0  0
 29 30  1  0  0  0  0
 29 28  1  0  0  0  0
 30 31  1  6  0  0  0
 30 32  1  0  0  0  0
 32 33  2  0  0  0  0
 34 32  1  0  0  0  0
M  END
>  <MODEL>
1

>  <REMARK>
 VINA RESULT:      -9.2      0.000      0.000
  Name = 
  9 active torsions:
  status: ('A' for Active; 'I' for Inactive)
    1  A    between atoms: C_1  and  O_9
    2  A    between atoms: N_3  and  C_25
    3  A    between atoms: C_7  and  C_11
    4  A    between atoms: C_7  and  C_29
    5  A    between atoms: C_8  and  O_9
    6  A    between atoms: C_8  and  C_18
    7  A    between atoms: C_18  and  N_30
    8  A    between atoms: O_26  and  C_28
    9  A    between atoms: O_26  and  C_29
                            x       y       z     vdW  Elec       q    Type
                         _______ _______ _______ _____ _____    ______ ____

>  <TORSDO>
F 9

$$$$
=
 OpenBabel11052415433D

 34 37  0  0  1  0  0  0  0  0999 V2000
  187.9720  177.4520  144.6350 C   0  0  0  0  0  0  0  0  0  0  0  0
  184.9250  179.3890  145.1600 C   0  0  0  0  0  3  0  0  0  0  0  0
  186.1100  177.9780  146.7620 C   0  0  0  0  0  3  0  0  0  0  0  0
  189.7840  177.3010  146.3090 C   0  0  0  0  0  3  0  0  0  0  0  0
  189.2850  178.1670  148.5780 C   0  0  0  0  0  2  0  0  0  0  0  0
  190.2050  177.5680  147.5490 C   0  0  0  0  0  3  0  0  0  0  0  0
  187.3980  177.7500  147.0140 C   0  0  0  0  0  0  0  0  0  0  0  0
  188.3710  177.4960  145.9230 C   0  0  1  0  0  3  0  0  0  0  0  0
  187.8580  177.6350  148.4360 C   0  0  0  0  0  2  0  0  0  0  0  0
  184.1740  179.6730  144.0970 C   0  0  0  0  0  3  0  0  0  0  0  0
  183.9010  178.7610  142.9570 C   0  0  0  0  0  0  0  0  0  0  0  0
  184.8220  177.9000  142.4840 C   0  0  0  0  0  3  0  0  0  0  0  0
  185.5500  178.0540  145.3710 C   0  0  0  0  0  0  0  0  0  0  0  0
  186.1730  177.6300  143.0160 C   0  0  0  0  0  3  0  0  0  0  0  0
  186.5590  177.7450  144.2910 C   0  0  0  0  0  0  0  0  0  0  0  0
  182.6500  178.8980  142.2530 N   0  0  0  0  0  0  0  0  0  0  0  0
  181.4170  179.2550  142.9430 C   0  0  0  0  0  1  0  0  0  0  0  0
  182.5770  178.7230  140.8100 C   0  0  0  0  0  1  0  0  0  0  0  0
  188.8510  177.1430  143.5860 O   0  0  0  0  0  0  0  0  0  0  0  0
  189.6120  178.1260  142.8950 C   0  0  0  0  0  2  0  0  0  0  0  0
  190.6820  177.4520  142.0480 C   0  0  0  0  0  2  0  0  0  0  0  0
  188.6760  177.9180  138.9300 C   0  0  0  0  0  2  0  0  0  0  0  0
  191.1780  177.1110  139.7560 C   0  0  0  0  0  2  0  0  0  0  0  0
  189.1810  176.6390  138.2590 C   0  0  0  0  0  2  0  0  0  0  0  0
  190.6930  176.4490  138.4600 C   0  0  2  0  0  3  0  0  0  0  0  0
  190.1280  177.0260  140.7690 N   0  0  0  0  0  0  0  0  0  0  0  0
  189.0540  177.9660  140.4230 C   0  0  0  0  0  2  0  0  0  0  0  0
  190.9750  175.0830  138.5070 O   0  0  0  0  0  0  0  0  0  0  0  0
  191.4310  174.7580  137.2250 C   0  0  0  0  0  2  0  0  0  0  0  0
  192.7560  175.4620  136.9250 C   0  0  2  0  0  3  0  0  0  0  0  0
  193.0340  175.4800  135.4310 C   0  0  0  0  0  1  0  0  0  0  0  0
  193.9370  174.9190  137.6930 C   0  0  0  0  0  0  0  0  0  0  0  0
  194.5290  175.6510  138.4700 O   0  0  0  0  0  0  0  0  0  0  0  0
  194.3890  173.4990  137.5640 C   0  0  0  0  0  1  0  0  0  0  0  0
  1  8  1  0  0  0  0
  2 13  2  0  0  0  0
  3  7  2  0  0  0  0
  4  6  2  0  0  0  0
  6  5  1  0  0  0  0
  7  9  1  0  0  0  0
  8  4  1  6  0  0  0
  8  7  1  0  0  0  0
  9  5  1  0  0  0  0
 10  2  1  0  0  0  0
 11 10  2  0  0  0  0
 12 11  1  0  0  0  0
 12 14  2  0  0  0  0
 13  3  1  0  0  0  0
 14 15  1  0  0  0  0
 15  1  2  0  0  0  0
 15 13  1  0  0  0  0
 16 17  1  0  0  0  0
 16 11  1  0  0  0  0
 18 16  1  0  0  0  0
 19  1  1  0  0  0  0
 20 19  1  0  0  0  0
 21 20  1  0  0  0  0
 22 27  1  0  0  0  0
 23 26  1  0  0  0  0
 24 25  1  0  0  0  0
 24 22  1  0  0  0  0
 25 28  1  1  0  0  0
 25 23  1  0  0  0  0
 26 21  1  0  0  0  0
 27 26  1  0  0  0  0
 29 28  1  0  0  0  0
 30 31  1  6  0  0  0
 30 29  1  0  0  0  0
 30 32  1  0  0  0  0
 32 33  2  0  0  0  0
 34 32  1  0  0  0  0
M  END
>  <MODEL>
2

>  <REMARK>
 VINA RESULT:      -9.1      2.139      4.295
  Name = 
  9 active torsions:
  status: ('A' for Active; 'I' for Inactive)
    1  A    between atoms: C_1  and  O_9
    2  A    between atoms: N_3  and  C_25
    3  A    between atoms: C_7  and  C_11
    4  A    between atoms: C_7  and  C_29
    5  A    between atoms: C_8  and  O_9
    6  A    between atoms: C_8  and  C_18
    7  A    between atoms: C_18  and  N_30
    8  A    between atoms: O_26  and  C_28
    9  A    between atoms: O_26  and  C_29
                            x       y       z     vdW  Elec       q    Type
                         _______ _______ _______ _____ _____    ______ ____

>  <TORSDO>
F 9

$$$$
=
 OpenBabel11052415433D

 34 37  0  0  1  0  0  0  0  0999 V2000
  187.9850  177.7390  143.9480 C   0  0  0  0  0  0  0  0  0  0  0  0
  184.8050  179.0600  145.1510 C   0  0  0  0  0  3  0  0  0  0  0  0
  186.3130  177.5040  146.2760 C   0  0  0  0  0  3  0  0  0  0  0  0
  189.9720  177.4690  145.3950 C   0  0  0  0  0  3  0  0  0  0  0  0
  189.6200  177.7210  147.8350 C   0  0  0  0  0  2  0  0  0  0  0  0
  190.4890  177.5050  146.6250 C   0  0  0  0  0  3  0  0  0  0  0  0
  187.6380  177.4080  146.3670 C   0  0  0  0  0  0  0  0  0  0  0  0
  188.5120  177.5450  145.1750 C   0  0  1  0  0  3  0  0  0  0  0  0
  188.2590  177.0400  147.6810 C   0  0  0  0  0  2  0  0  0  0  0  0
  183.9150  179.4680  144.2480 C   0  0  0  0  0  3  0  0  0  0  0  0
  183.6320  178.8080  142.9480 C   0  0  0  0  0  0  0  0  0  0  0  0
  184.5920  178.2140  142.2140 C   0  0  0  0  0  3  0  0  0  0  0  0
  185.6020  177.8130  144.9900 C   0  0  0  0  0  0  0  0  0  0  0  0
  186.0140  178.0230  142.5620 C   0  0  0  0  0  3  0  0  0  0  0  0
  186.5190  177.9000  143.7940 C   0  0  0  0  0  0  0  0  0  0  0  0
  182.3040  178.9230  142.3950 N   0  0  0  0  0  0  0  0  0  0  0  0
  182.0300  178.6380  140.9930 C   0  0  0  0  0  1  0  0  0  0  0  0
  181.1720  179.2920  143.2310 C   0  0  0  0  0  1  0  0  0  0  0  0
  188.7770  177.8010  142.7910 O   0  0  0  0  0  0  0  0  0  0  0  0
  189.2660  176.6450  142.1230 C   0  0  0  0  0  2  0  0  0  0  0  0
  190.3260  177.0450  141.1060 C   0  0  0  0  0  2  0  0  0  0  0  0
  189.3440  178.1860  137.6860 C   0  0  0  0  0  2  0  0  0  0  0  0
  190.9130  176.2970  138.9350 C   0  0  0  0  0  2  0  0  0  0  0  0
  189.2110  176.7740  137.1120 C   0  0  0  0  0  2  0  0  0  0  0  0
  190.3570  175.8610  137.5740 C   0  0  2  0  0  3  0  0  0  0  0  0
  189.8310  176.8490  139.7490 N   0  0  0  0  0  0  0  0  0  0  0  0
  189.4640  178.1680  139.2210 C   0  0  0  0  0  2  0  0  0  0  0  0
  189.8820  174.5520  137.6680 O   0  0  0  0  0  0  0  0  0  0  0  0
  188.8990  174.4460  136.6780 C   0  0  0  0  0  2  0  0  0  0  0  0
  187.8990  173.3410  137.0220 C   0  0  2  0  0  3  0  0  0  0  0  0
  187.9700  172.2110  136.0080 C   0  0  0  0  0  1  0  0  0  0  0  0
  186.4790  173.8220  137.2030 C   0  0  0  0  0  0  0  0  0  0  0  0
  186.1990  174.9740  136.9120 O   0  0  0  0  0  0  0  0  0  0  0  0
  185.3890  172.9250  137.6960 C   0  0  0  0  0  1  0  0  0  0  0  0
  1  8  1  0  0  0  0
  3  7  2  0  0  0  0
  4  6  2  0  0  0  0
  6  5  1  0  0  0  0
  7  9  1  0  0  0  0
  8  4  1  1  0  0  0
  8  7  1  0  0  0  0
  9  5  1  0  0  0  0
 10  2  1  0  0  0  0
 11 10  2  0  0  0  0
 12 14  2  0  0  0  0
 12 11  1  0  0  0  0
 13  2  2  0  0  0  0
 13  3  1  0  0  0  0
 14 15  1  0  0  0  0
 15  1  2  0  0  0  0
 15 13  1  0  0  0  0
 16 11  1  0  0  0  0
 16 18  1  0  0  0  0
 17 16  1  0  0  0  0
 19  1  1  0  0  0  0
 20 19  1  0  0  0  0
 21 20  1  0  0  0  0
 22 27  1  0  0  0  0
 23 26  1  0  0  0  0
 24 25  1  0  0  0  0
 24 22  1  0  0  0  0
 25 28  1  1  0  0  0
 25 23  1  0  0  0  0
 26 21  1  0  0  0  0
 27 26  1  0  0  0  0
 29 30  1  0  0  0  0
 29 28  1  0  0  0  0
 30 31  1  6  0  0  0
 30 32  1  0  0  0  0
 32 34  1  0  0  0  0
 33 32  2  0  0  0  0
M  END
>  <MODEL>
3

>  <REMARK>
 VINA RESULT:      -8.8      1.979      2.601
  Name = 
  9 active torsions:
  status: ('A' for Active; 'I' for Inactive)
    1  A    between atoms: C_1  and  O_9
    2  A    between atoms: N_3  and  C_25
    3  A    between atoms: C_7  and  C_11
    4  A    between atoms: C_7  and  C_29
    5  A    between atoms: C_8  and  O_9
    6  A    between atoms: C_8  and  C_18
    7  A    between atoms: C_18  and  N_30
    8  A    between atoms: O_26  and  C_28
    9  A    between atoms: O_26  and  C_29
                            x       y       z     vdW  Elec       q    Type
                         _______ _______ _______ _____ _____    ______ ____

>  <TORSDO>
F 9

$$$$
=
 OpenBabel11052415433D

 34 37  0  0  1  0  0  0  0  0999 V2000
  188.0200  177.5400  144.4850 C   0  0  0  0  0  0  0  0  0  0  0  0
  184.8990  179.2890  145.1950 C   0  0  0  0  0  3  0  0  0  0  0  0
  186.1780  177.8280  146.6740 C   0  0  0  0  0  3  0  0  0  0  0  0
  189.8700  177.3590  146.1150 C   0  0  0  0  0  3  0  0  0  0  0  0
  189.3760  178.0390  148.4460 C   0  0  0  0  0  2  0  0  0  0  0  0
  190.3030  177.5570  147.3620 C   0  0  0  0  0  3  0  0  0  0  0  0
  187.4800  177.6440  146.8880 C   0  0  0  0  0  0  0  0  0  0  0  0
  188.4420  177.5120  145.7660 C   0  0  1  0  0  3  0  0  0  0  0  0
  187.9730  177.4510  148.2910 C   0  0  0  0  0  2  0  0  0  0  0  0
  184.1140  179.6110  144.1680 C   0  0  0  0  0  3  0  0  0  0  0  0
  183.8620  178.7680  142.9710 C   0  0  0  0  0  0  0  0  0  0  0  0
  184.8120  177.9880  142.4230 C   0  0  0  0  0  3  0  0  0  0  0  0
  185.5880  177.9740  145.3020 C   0  0  0  0  0  0  0  0  0  0  0  0
  186.1830  177.7450  142.9130 C   0  0  0  0  0  3  0  0  0  0  0  0
  186.5890  177.7890  144.1860 C   0  0  0  0  0  0  0  0  0  0  0  0
  182.5910  178.8950  142.2990 N   0  0  0  0  0  0  0  0  0  0  0  0
  181.3770  179.2600  143.0170 C   0  0  0  0  0  1  0  0  0  0  0  0
  182.4800  178.7020  140.8610 C   0  0  0  0  0  1  0  0  0  0  0  0
  188.8920  177.3470  143.4020 O   0  0  0  0  0  0  0  0  0  0  0  0
  189.7470  178.3670  142.9030 C   0  0  0  0  0  2  0  0  0  0  0  0
  191.0710  177.7600  142.4570 C   0  0  0  0  0  2  0  0  0  0  0  0
  192.6820  176.9100  139.1950 C   0  0  0  0  0  2  0  0  0  0  0  0
  190.4280  176.3400  140.6730 C   0  0  0  0  0  2  0  0  0  0  0  0
  191.3780  176.9390  138.3950 C   0  0  0  0  0  2  0  0  0  0  0  0
  190.2290  176.2570  139.1550 C   0  0  2  0  0  3  0  0  0  0  0  0
  191.0950  177.5960  141.0090 N   0  0  0  0  0  0  0  0  0  0  0  0
  192.5030  177.5130  140.6000 C   0  0  0  0  0  2  0  0  0  0  0  0
  189.0280  176.8810  138.8120 O   0  0  0  0  0  0  0  0  0  0  0  0
  188.9430  176.7740  137.4200 C   0  0  0  0  0  2  0  0  0  0  0  0
  188.1380  177.9350  136.8340 C   0  0  2  0  0  3  0  0  0  0  0  0
  188.8480  179.2580  137.0660 C   0  0  0  0  0  1  0  0  0  0  0  0
  186.7030  177.9960  137.3010 C   0  0  0  0  0  0  0  0  0  0  0  0
  186.3920  178.8020  138.1630 O   0  0  0  0  0  0  0  0  0  0  0  0
  185.6360  177.1270  136.7180 C   0  0  0  0  0  1  0  0  0  0  0  0
  1  8  1  0  0  0  0
  2 13  2  0  0  0  0
  3  7  2  0  0  0  0
  4  6  2  0  0  0  0
  6  5  1  0  0  0  0
  7  9  1  0  0  0  0
  8  4  1  6  0  0  0
  8  7  1  0  0  0  0
  9  5  1  0  0  0  0
 10  2  1  0  0  0  0
 11 10  2  0  0  0  0
 12 14  2  0  0  0  0
 12 11  1  0  0  0  0
 13  3  1  0  0  0  0
 14 15  1  0  0  0  0
 15  1  2  0  0  0  0
 15 13  1  0  0  0  0
 16 11  1  0  0  0  0
 16 17  1  0  0  0  0
 18 16  1  0  0  0  0
 19  1  1  0  0  0  0
 20 19  1  0  0  0  0
 21 20  1  0  0  0  0
 22 27  1  0  0  0  0
 23 26  1  0  0  0  0
 24 25  1  0  0  0  0
 24 22  1  0  0  0  0
 25 28  1  1  0  0  0
 25 23  1  0  0  0  0
 26 21  1  0  0  0  0
 27 26  1  0  0  0  0
 29 28  1  0  0  0  0
 30 31  1  1  0  0  0
 30 32  1  0  0  0  0
 30 29  1  0  0  0  0
 32 33  2  0  0  0  0
 34 32  1  0  0  0  0
M  END
>  <MODEL>
4

>  <REMARK>
 VINA RESULT:      -8.7      1.183      1.892
  Name = 
  9 active torsions:
  status: ('A' for Active; 'I' for Inactive)
    1  A    between atoms: C_1  and  O_9
    2  A    between atoms: N_3  and  C_25
    3  A    between atoms: C_7  and  C_11
    4  A    between atoms: C_7  and  C_29
    5  A    between atoms: C_8  and  O_9
    6  A    between atoms: C_8  and  C_18
    7  A    between atoms: C_18  and  N_30
    8  A    between atoms: O_26  and  C_28
    9  A    between atoms: O_26  and  C_29
                            x       y       z     vdW  Elec       q    Type
                         _______ _______ _______ _____ _____    ______ ____

>  <TORSDO>
F 9

$$$$
=
 OpenBabel11052415433D

 34 37  0  0  1  0  0  0  0  0999 V2000
  187.2060  177.8980  143.5600 C   0  0  0  0  0  0  0  0  0  0  0  0
  187.7630  177.0070  147.0530 C   0  0  0  0  0  3  0  0  0  0  0  0
  186.2050  178.6540  146.1470 C   0  0  0  0  0  3  0  0  0  0  0  0
  184.9610  178.3150  142.6110 C   0  0  0  0  0  3  0  0  0  0  0  0
  183.0910  178.5380  144.2230 C   0  0  0  0  0  2  0  0  0  0  0  0
  183.6530  178.4770  142.8280 C   0  0  0  0  0  3  0  0  0  0  0  0
  185.4240  178.6880  145.0690 C   0  0  0  0  0  0  0  0  0  0  0  0
  185.9250  178.2840  143.7320 C   0  0  0  0  0  0  0  0  0  0  0  0
  184.0410  179.2560  145.1820 C   0  0  0  0  0  2  0  0  0  0  0  0
  188.9450  176.4910  147.3860 C   0  0  0  0  0  2  0  0  0  0  0  0
  190.2610  176.9150  146.8450 C   0  0  0  0  0  0  0  0  0  0  0  0
  190.4260  177.3070  145.5670 C   0  0  0  0  0  3  0  0  0  0  0  0
  187.6200  178.1550  146.1150 C   0  0  0  0  0  0  0  0  0  0  0  0
  189.3910  177.4770  144.5280 C   0  0  0  0  0  3  0  0  0  0  0  0
  188.1080  177.7960  144.7320 C   0  0  0  0  0  0  0  0  0  0  0  0
  191.4250  176.7760  147.6860 N   0  0  0  0  0  0  0  0  0  0  0  0
  191.6740  177.6740  148.8060 C   0  0  0  0  0  1  0  0  0  0  0  0
  192.3820  175.7000  147.4720 C   0  0  0  0  0  1  0  0  0  0  0  0
  187.7310  177.5780  142.2980 O   0  0  0  0  0  0  0  0  0  0  0  0
  188.3050  178.5460  141.4280 C   0  0  0  0  0  2  0  0  0  0  0  0
  188.9550  177.8520  140.2390 C   0  0  0  0  0  2  0  0  0  0  0  0
  188.8950  178.3320  136.5340 C   0  0  0  0  0  2  0  0  0  0  0  0
  187.2900  177.4670  138.5990 C   0  0  0  0  0  2  0  0  0  0  0  0
  187.4680  178.8830  136.4980 C   0  0  0  0  0  2  0  0  0  0  0  0
  186.5290  178.0920  137.4220 C   0  0  2  0  0  3  0  0  0  0  0  0
  188.3910  178.3450  138.9890 N   0  0  0  0  0  0  0  0  0  0  0  0
  189.4460  178.2680  137.9710 C   0  0  0  0  0  2  0  0  0  0  0  0
  185.5480  178.9540  137.9140 O   0  0  0  0  0  0  0  0  0  0  0  0
  184.8200  178.1940  138.8360 C   0  0  0  0  0  2  0  0  0  0  0  0
  183.3200  178.4530  138.6900 C   0  0  2  0  0  3  0  0  0  0  0  0
  182.9950  179.9170  138.9380 C   0  0  0  0  0  1  0  0  0  0  0  0
  182.4480  177.5510  139.5310 C   0  0  0  0  0  0  0  0  0  0  0  0
  182.8430  176.4290  139.8060 O   0  0  0  0  0  0  0  0  0  0  0  0
  181.1270  177.9950  140.0720 C   0  0  0  0  0  1  0  0  0  0  0  0
  1  8  2  0  0  0  0
  1 15  1  0  0  0  0
  2 10  1  0  0  0  0
  4  6  2  0  0  0  0
  4  8  1  0  0  0  0
  5  9  1  0  0  0  0
  6  5  1  0  0  0  0
  7  9  1  0  0  0  0
  7  3  2  0  0  0  0
  8  7  1  0  0  0  0
 11 10  1  0  0  0  0
 11 16  1  0  0  0  0
 12 11  2  0  0  0  0
 13  3  1  0  0  0  0
 13  2  2  0  0  0  0
 14 15  2  0  0  0  0
 14 12  1  0  0  0  0
 15 13  1  0  0  0  0
 16 17  1  0  0  0  0
 18 16  1  0  0  0  0
 19  1  1  0  0  0  0
 20 19  1  0  0  0  0
 21 20  1  0  0  0  0
 22 27  1  0  0  0  0
 23 26  1  0  0  0  0
 24 22  1  0  0  0  0
 24 25  1  0  0  0  0
 25 28  1  1  0  0  0
 25 23  1  0  0  0  0
 26 21  1  0  0  0  0
 27 26  1  0  0  0  0
 28 29  1  0  0  0  0
 30 29  1  0  0  0  0
 30 31  1  1  0  0  0
 30 32  1  0  0  0  0
 32 33  2  0  0  0  0
 32 34  1  0  0  0  0
M  END
>  <MODEL>
5

>  <REMARK>
 VINA RESULT:      -8.5      1.959      5.199
  Name = 
  9 active torsions:
  status: ('A' for Active; 'I' for Inactive)
    1  A    between atoms: C_1  and  O_9
    2  A    between atoms: N_3  and  C_25
    3  A    between atoms: C_7  and  C_11
    4  A    between atoms: C_7  and  C_29
    5  A    between atoms: C_8  and  O_9
    6  A    between atoms: C_8  and  C_18
    7  A    between atoms: C_18  and  N_30
    8  A    between atoms: O_26  and  C_28
    9  A    between atoms: O_26  and  C_29
                            x       y       z     vdW  Elec       q    Type
                         _______ _______ _______ _____ _____    ______ ____

>  <TORSDO>
F 9

$$$$
=
 OpenBabel11052415433D

 34 37  0  0  1  0  0  0  0  0999 V2000
  187.5430  177.4880  143.8360 C   0  0  0  0  0  0  0  0  0  0  0  0
  184.6230  179.3830  144.9260 C   0  0  0  0  0  3  0  0  0  0  0  0
  185.9990  177.8490  146.2350 C   0  0  0  0  0  3  0  0  0  0  0  0
  189.5670  177.2020  145.2260 C   0  0  0  0  0  3  0  0  0  0  0  0
  189.3970  177.8880  147.6020 C   0  0  0  0  0  2  0  0  0  0  0  0
  190.1590  177.3700  146.4120 C   0  0  0  0  0  3  0  0  0  0  0  0
  187.3070  177.5990  146.2870 C   0  0  0  0  0  0  0  0  0  0  0  0
  188.1160  177.4290  145.0550 C   0  0  1  0  0  3  0  0  0  0  0  0
  187.9570  177.3720  147.6180 C   0  0  0  0  0  2  0  0  0  0  0  0
  183.7360  179.7510  144.0040 C   0  0  0  0  0  3  0  0  0  0  0  0
  183.2970  178.9320  142.8450 C   0  0  0  0  0  0  0  0  0  0  0  0
  184.1330  178.1090  142.1830 C   0  0  0  0  0  3  0  0  0  0  0  0
  185.2540  178.0340  144.9450 C   0  0  0  0  0  0  0  0  0  0  0  0
  185.5400  177.7950  142.5010 C   0  0  0  0  0  3  0  0  0  0  0  0
  186.1000  177.8090  143.7150 C   0  0  0  0  0  0  0  0  0  0  0  0
  181.9620  179.1260  142.3340 N   0  0  0  0  0  0  0  0  0  0  0  0
  181.6640  179.0310  140.9110 C   0  0  0  0  0  1  0  0  0  0  0  0
  180.8450  179.3850  143.2300 C   0  0  0  0  0  1  0  0  0  0  0  0
  188.2650  177.2600  142.6540 O   0  0  0  0  0  0  0  0  0  0  0  0
  189.1630  178.2110  142.0980 C   0  0  0  0  0  2  0  0  0  0  0  0
  188.4950  178.9370  140.9370 C   0  0  0  0  0  2  0  0  0  0  0  0
  186.8200  177.7190  137.8270 C   0  0  0  0  0  2  0  0  0  0  0  0
  189.3140  178.4000  138.7800 C   0  0  0  0  0  2  0  0  0  0  0  0
  187.9280  176.7270  137.4640 C   0  0  0  0  0  2  0  0  0  0  0  0
  189.3240  177.3300  137.6810 C   0  0  2  0  0  3  0  0  0  0  0  0
  188.3320  178.0400  139.8010 N   0  0  0  0  0  0  0  0  0  0  0  0
  186.9840  178.2550  139.2620 C   0  0  0  0  0  2  0  0  0  0  0  0
  190.2060  176.3090  138.0390 O   0  0  0  0  0  0  0  0  0  0  0  0
  191.4450  176.6930  137.5150 C   0  0  0  0  0  2  0  0  0  0  0  0
  192.5900  176.1520  138.3730 C   0  0  2  0  0  3  0  0  0  0  0  0
  192.9360  177.1230  139.4900 C   0  0  0  0  0  1  0  0  0  0  0  0
  193.8210  175.7590  137.5920 C   0  0  0  0  0  0  0  0  0  0  0  0
  194.3120  176.5600  136.8120 O   0  0  0  0  0  0  0  0  0  0  0  0
  194.4870  174.4320  137.7660 C   0  0  0  0  0  1  0  0  0  0  0  0
  1  8  1  0  0  0  0
  2 13  2  0  0  0  0
  3  7  2  0  0  0  0
  4  6  2  0  0  0  0
  5  9  1  0  0  0  0
  6  5  1  0  0  0  0
  7  9  1  0  0  0  0
  8  4  1  6  0  0  0
  8  7  1  0  0  0  0
 10  2  1  0  0  0  0
 11 10  2  0  0  0  0
 12 14  2  0  0  0  0
 12 11  1  0  0  0  0
 13  3  1  0  0  0  0
 14 15  1  0  0  0  0
 15  1  2  0  0  0  0
 15 13  1  0  0  0  0
 16 11  1  0  0  0  0
 16 18  1  0  0  0  0
 17 16  1  0  0  0  0
 19  1  1  0  0  0  0
 20 19  1  0  0  0  0
 21 20  1  0  0  0  0
 22 27  1  0  0  0  0
 23 26  1  0  0  0  0
 24 25  1  0  0  0  0
 24 22  1  0  0  0  0
 25 28  1  1  0  0  0
 25 23  1  0  0  0  0
 26 21  1  0  0  0  0
 27 26  1  0  0  0  0
 29 28  1  0  0  0  0
 29 30  1  0  0  0  0
 30 31  1  1  0  0  0
 32 34  1  0  0  0  0
 32 30  1  0  0  0  0
 33 32  2  0  0  0  0
M  END
>  <MODEL>
6

>  <REMARK>
 VINA RESULT:      -8.3      1.888      4.137
  Name = 
  9 active torsions:
  status: ('A' for Active; 'I' for Inactive)
    1  A    between atoms: C_1  and  O_9
    2  A    between atoms: N_3  and  C_25
    3  A    between atoms: C_7  and  C_11
    4  A    between atoms: C_7  and  C_29
    5  A    between atoms: C_8  and  O_9
    6  A    between atoms: C_8  and  C_18
    7  A    between atoms: C_18  and  N_30
    8  A    between atoms: O_26  and  C_28
    9  A    between atoms: O_26  and  C_29
                            x       y       z     vdW  Elec       q    Type
                         _______ _______ _______ _____ _____    ______ ____

>  <TORSDO>
F 9

$$$$
=
 OpenBabel11052415433D

 34 37  0  0  1  0  0  0  0  0999 V2000
  187.1590  177.7920  143.6280 C   0  0  0  0  0  0  0  0  0  0  0  0
  187.7580  177.0570  147.1500 C   0  0  0  0  0  3  0  0  0  0  0  0
  186.2500  178.7210  146.1930 C   0  0  0  0  0  3  0  0  0  0  0  0
  184.9130  178.2560  142.7060 C   0  0  0  0  0  3  0  0  0  0  0  0
  183.0910  178.6410  144.3420 C   0  0  0  0  0  2  0  0  0  0  0  0
  183.6180  178.4850  142.9410 C   0  0  0  0  0  3  0  0  0  0  0  0
  185.4470  178.7340  145.1310 C   0  0  0  0  0  0  0  0  0  0  0  0
  185.9000  178.2410  143.8060 C   0  0  0  0  0  0  0  0  0  0  0  0
  184.0920  179.3660  145.2440 C   0  0  0  0  0  2  0  0  0  0  0  0
  188.9250  176.5080  147.4850 C   0  0  0  0  0  2  0  0  0  0  0  0
  190.2450  176.8470  146.8960 C   0  0  0  0  0  0  0  0  0  0  0  0
  190.3970  177.1660  145.5960 C   0  0  0  0  0  3  0  0  0  0  0  0
  187.6420  178.1610  146.1580 C   0  0  0  0  0  0  0  0  0  0  0  0
  189.3460  177.3270  144.5720 C   0  0  0  0  0  3  0  0  0  0  0  0
  188.0830  177.7110  144.7850 C   0  0  0  0  0  0  0  0  0  0  0  0
  191.4210  176.7010  147.7180 N   0  0  0  0  0  0  0  0  0  0  0  0
  191.6860  177.5900  148.8420 C   0  0  0  0  0  1  0  0  0  0  0  0
  192.3750  175.6280  147.4810 C   0  0  0  0  0  1  0  0  0  0  0  0
  187.6420  177.3860  142.3740 O   0  0  0  0  0  0  0  0  0  0  0  0
  188.4010  178.2360  141.5230 C   0  0  0  0  0  2  0  0  0  0  0  0
  189.5620  177.4570  140.9170 C   0  0  0  0  0  2  0  0  0  0  0  0
  189.0560  178.8180  137.4740 C   0  0  0  0  0  2  0  0  0  0  0  0
  190.7180  177.1270  138.8760 C   0  0  0  0  0  2  0  0  0  0  0  0
  189.3520  177.4940  136.7670 C   0  0  0  0  0  2  0  0  0  0  0  0
  190.5550  176.7710  137.3930 C   0  0  2  0  0  3  0  0  0  0  0  0
  189.4020  177.3460  139.4730 N   0  0  0  0  0  0  0  0  0  0  0  0
  188.8680  178.6250  138.9910 C   0  0  0  0  0  2  0  0  0  0  0  0
  190.3690  175.3930  137.2680 O   0  0  0  0  0  0  0  0  0  0  0  0
  191.6200  174.8280  137.5340 C   0  0  0  0  0  2  0  0  0  0  0  0
  192.5710  175.0300  136.3520 C   0  0  2  0  0  3  0  0  0  0  0  0
  192.6690  173.7670  135.5120 C   0  0  0  0  0  1  0  0  0  0  0  0
  193.9400  175.5380  136.7350 C   0  0  0  0  0  0  0  0  0  0  0  0
  194.1180  176.7400  136.8520 O   0  0  0  0  0  0  0  0  0  0  0  0
  195.0850  174.6170  137.0120 C   0  0  0  0  0  1  0  0  0  0  0  0
  1  8  2  0  0  0  0
  1 15  1  0  0  0  0
  2 10  1  0  0  0  0
  4  6  2  0  0  0  0
  4  8  1  0  0  0  0
  5  9  1  0  0  0  0
  6  5  1  0  0  0  0
  7  9  1  0  0  0  0
  7  3  2  0  0  0  0
  8  7  1  0  0  0  0
 11 10  1  0  0  0  0
 11 16  1  0  0  0  0
 12 11  2  0  0  0  0
 13  3  1  0  0  0  0
 13  2  2  0  0  0  0
 14 15  2  0  0  0  0
 14 12  1  0  0  0  0
 15 13  1  0  0  0  0
 16 17  1  0  0  0  0
 18 16  1  0  0  0  0
 19  1  1  0  0  0  0
 20 19  1  0  0  0  0
 21 20  1  0  0  0  0
 22 27  1  0  0  0  0
 23 26  1  0  0  0  0
 24 25  1  0  0  0  0
 24 22  1  0  0  0  0
 25 28  1  1  0  0  0
 25 23  1  0  0  0  0
 26 21  1  0  0  0  0
 27 26  1  0  0  0  0
 28 29  1  0  0  0  0
 30 31  1  1  0  0  0
 30 32  1  0  0  0  0
 30 29  1  0  0  0  0
 32 33  2  0  0  0  0
 32 34  1  0  0  0  0
M  END
>  <MODEL>
7

>  <REMARK>
 VINA RESULT:      -8.2      2.553      6.433
  Name = 
  9 active torsions:
  status: ('A' for Active; 'I' for Inactive)
    1  A    between atoms: C_1  and  O_9
    2  A    between atoms: N_3  and  C_25
    3  A    between atoms: C_7  and  C_11
    4  A    between atoms: C_7  and  C_29
    5  A    between atoms: C_8  and  O_9
    6  A    between atoms: C_8  and  C_18
    7  A    between atoms: C_18  and  N_30
    8  A    between atoms: O_26  and  C_28
    9  A    between atoms: O_26  and  C_29
                            x       y       z     vdW  Elec       q    Type
                         _______ _______ _______ _____ _____    ______ ____

>  <TORSDO>
F 9

$$$$
=
 OpenBabel11052415433D

 34 37  0  0  1  0  0  0  0  0999 V2000
  187.6240  178.2680  142.7210 C   0  0  0  0  0  0  0  0  0  0  0  0
  184.7820  178.9610  144.8990 C   0  0  0  0  0  3  0  0  0  0  0  0
  186.6560  177.4490  145.3020 C   0  0  0  0  0  3  0  0  0  0  0  0
  189.9390  178.0240  143.5540 C   0  0  0  0  0  3  0  0  0  0  0  0
  190.2290  177.8310  146.0080 C   0  0  0  0  0  2  0  0  0  0  0  0
  190.7600  177.9260  144.6020 C   0  0  0  0  0  3  0  0  0  0  0  0
  187.9610  177.5100  145.0420 C   0  0  0  0  0  0  0  0  0  0  0  0
  188.4720  177.9480  143.7200 C   0  0  1  0  0  3  0  0  0  0  0  0
  188.9370  177.0160  146.0680 C   0  0  0  0  0  2  0  0  0  0  0  0
  183.6540  179.3930  144.3380 C   0  0  0  0  0  3  0  0  0  0  0  0
  183.0900  178.9210  143.0480 C   0  0  0  0  0  0  0  0  0  0  0  0
  183.8650  178.5810  142.0000 C   0  0  0  0  0  3  0  0  0  0  0  0
  185.6060  177.8680  144.3140 C   0  0  0  0  0  0  0  0  0  0  0  0
  185.3390  178.5190  141.9440 C   0  0  0  0  0  3  0  0  0  0  0  0
  186.1620  178.2640  142.9660 C   0  0  0  0  0  0  0  0  0  0  0  0
  181.6580  178.9540  142.8720 N   0  0  0  0  0  0  0  0  0  0  0  0
  181.0510  179.2510  141.5810 C   0  0  0  0  0  1  0  0  0  0  0  0
  180.7590  178.6500  143.9740 C   0  0  0  0  0  1  0  0  0  0  0  0
  188.0730  178.6160  141.4370 O   0  0  0  0  0  0  0  0  0  0  0  0
  188.4230  177.6550  140.4500 C   0  0  0  0  0  2  0  0  0  0  0  0
  188.9840  178.3570  139.2200 C   0  0  0  0  0  2  0  0  0  0  0  0
  188.5570  177.8820  135.5390 C   0  0  0  0  0  2  0  0  0  0  0  0
  188.3120  176.5010  137.9100 C   0  0  0  0  0  2  0  0  0  0  0  0
  187.2710  177.0620  135.6620 C   0  0  0  0  0  2  0  0  0  0  0  0
  187.3580  176.0360  136.8030 C   0  0  2  0  0  3  0  0  0  0  0  0
  188.2520  177.9570  138.0260 N   0  0  0  0  0  0  0  0  0  0  0  0
  188.9350  178.5550  136.8720 C   0  0  0  0  0  2  0  0  0  0  0  0
  186.0830  175.8490  137.3410 O   0  0  0  0  0  0  0  0  0  0  0  0
  185.2300  176.6130  136.5380 C   0  0  0  0  0  2  0  0  0  0  0  0
  183.9360  176.9450  137.2810 C   0  0  2  0  0  3  0  0  0  0  0  0
  184.1600  178.0590  138.2910 C   0  0  0  0  0  1  0  0  0  0  0  0
  183.2640  175.7550  137.9230 C   0  0  0  0  0  0  0  0  0  0  0  0
  183.0480  175.7700  139.1250 O   0  0  0  0  0  0  0  0  0  0  0  0
  182.8180  174.5670  137.1330 C   0  0  0  0  0  1  0  0  0  0  0  0
  1 15  2  0  0  0  0
  1  8  1  0  0  0  0
  4  6  2  0  0  0  0
  5  9  1  0  0  0  0
  6  5  1  0  0  0  0
  7  3  2  0  0  0  0
  7  9  1  0  0  0  0
  8  4  1  1  0  0  0
  8  7  1  0  0  0  0
 10  2  1  0  0  0  0
 11 10  2  0  0  0  0
 12 11  1  0  0  0  0
 13  2  2  0  0  0  0
 13  3  1  0  0  0  0
 14 12  2  0  0  0  0
 14 15  1  0  0  0  0
 15 13  1  0  0  0  0
 16 11  1  0  0  0  0
 16 18  1  0  0  0  0
 17 16  1  0  0  0  0
 19  1  1  0  0  0  0
 20 19  1  0  0  0  0
 21 20  1  0  0  0  0
 22 24  1  0  0  0  0
 22 27  1  0  0  0  0
 23 26  1  0  0  0  0
 24 25  1  0  0  0  0
 25 28  1  1  0  0  0
 25 23  1  0  0  0  0
 26 21  1  0  0  0  0
 27 26  1  0  0  0  0
 29 30  1  0  0  0  0
 29 28  1  0  0  0  0
 30 32  1  0  0  0  0
 30 31  1  1  0  0  0
 32 33  2  0  0  0  0
 34 32  1  0  0  0  0
M  END
>  <MODEL>
8

>  <REMARK>
 VINA RESULT:      -8.2      1.635      2.181
  Name = 
  9 active torsions:
  status: ('A' for Active; 'I' for Inactive)
    1  A    between atoms: C_1  and  O_9
    2  A    between atoms: N_3  and  C_25
    3  A    between atoms: C_7  and  C_11
    4  A    between atoms: C_7  and  C_29
    5  A    between atoms: C_8  and  O_9
    6  A    between atoms: C_8  and  C_18
    7  A    between atoms: C_18  and  N_30
    8  A    between atoms: O_26  and  C_28
    9  A    between atoms: O_26  and  C_29
                            x       y       z     vdW  Elec       q    Type
                         _______ _______ _______ _____ _____    ______ ____

>  <TORSDO>
F 9

$$$$
=
 OpenBabel11052415433D

 34 37  0  0  1  0  0  0  0  0999 V2000
  186.9490  177.8770  143.7960 C   0  0  0  0  0  0  0  0  0  0  0  0
  189.9200  176.9020  141.9180 C   0  0  0  0  0  3  0  0  0  0  0  0
  189.8060  177.9810  144.1040 C   0  0  0  0  0  3  0  0  0  0  0  0
  186.7340  177.5750  146.2400 C   0  0  0  0  0  3  0  0  0  0  0  0
  188.7960  176.9740  147.4770 C   0  0  0  0  0  2  0  0  0  0  0  0
  187.3180  177.2480  147.3960 C   0  0  0  0  0  3  0  0  0  0  0  0
  189.0030  177.8460  145.1580 C   0  0  0  0  0  0  0  0  0  0  0  0
  187.5280  177.7730  145.0090 C   0  0  1  0  0  3  0  0  0  0  0  0
  189.5900  177.8820  146.5370 C   0  0  0  0  0  2  0  0  0  0  0  0
  189.8180  176.8010  140.5930 C   0  0  0  0  0  3  0  0  0  0  0  0
  189.0410  177.7080  139.7110 C   0  0  0  0  0  0  0  0  0  0  0  0
  187.8690  178.2540  140.0870 C   0  0  0  0  0  3  0  0  0  0  0  0
  189.3010  178.0130  142.6910 C   0  0  0  0  0  0  0  0  0  0  0  0
  187.1980  178.1530  141.3980 C   0  0  0  0  0  3  0  0  0  0  0  0
  187.7950  177.9830  142.5820 C   0  0  0  0  0  0  0  0  0  0  0  0
  189.4970  177.9030  138.3560 N   0  0  0  0  0  0  0  0  0  0  0  0
  189.0560  179.0370  137.5540 C   0  0  0  0  0  1  0  0  0  0  0  0
  190.4540  176.9910  137.7470 C   0  0  0  0  0  1  0  0  0  0  0  0
  185.5560  177.8850  143.6260 O   0  0  0  0  0  0  0  0  0  0  0  0
  184.7810  179.0770  143.6230 C   0  0  0  0  0  2  0  0  0  0  0  0
  183.5390  178.8890  144.4840 C   0  0  0  0  0  2  0  0  0  0  0  0
  179.9630  178.9800  143.4040 C   0  0  0  0  0  2  0  0  0  0  0  0
  182.5090  179.1480  142.3660 C   0  0  0  0  0  2  0  0  0  0  0  0
  180.1870  178.1430  142.1430 C   0  0  0  0  0  2  0  0  0  0  0  0
  181.4690  178.5590  141.4050 C   0  0  2  0  0  3  0  0  0  0  0  0
  182.4060  178.4820  143.6630 N   0  0  0  0  0  0  0  0  0  0  0  0
  181.1870  178.9430  144.3390 C   0  0  0  0  0  2  0  0  0  0  0  0
  182.0090  177.4380  140.7710 O   0  0  0  0  0  0  0  0  0  0  0  0
  183.2420  177.8620  140.2630 C   0  0  0  0  0  2  0  0  0  0  0  0
  183.0810  178.4350  138.8540 C   0  0  2  0  0  3  0  0  0  0  0  0
  184.0690  177.7940  137.8930 C   0  0  0  0  0  1  0  0  0  0  0  0
  183.1500  179.9410  138.7830 C   0  0  0  0  0  0  0  0  0  0  0  0
  184.1890  180.5050  139.0900 O   0  0  0  0  0  0  0  0  0  0  0  0
  182.0000  180.7720  138.3130 C   0  0  0  0  0  1  0  0  0  0  0  0
  1  8  1  0  0  0  0
  2 13  2  0  0  0  0
  3  7  2  0  0  0  0
  4  6  2  0  0  0  0
  6  5  1  0  0  0  0
  7  9  1  0  0  0  0
  8  7  1  0  0  0  0
  8  4  1  6  0  0  0
  9  5  1  0  0  0  0
 10  2  1  0  0  0  0
 11 12  1  0  0  0  0
 11 10  2  0  0  0  0
 12 14  2  0  0  0  0
 13  3  1  0  0  0  0
 14 15  1  0  0  0  0
 15 13  1  0  0  0  0
 15  1  2  0  0  0  0
 16 11  1  0  0  0  0
 17 16  1  0  0  0  0
 18 16  1  0  0  0  0
 19  1  1  0  0  0  0
 20 19  1  0  0  0  0
 20 21  1  0  0  0  0
 22 27  1  0  0  0  0
 23 26  1  0  0  0  0
 24 22  1  0  0  0  0
 25 28  1  1  0  0  0
 25 24  1  0  0  0  0
 25 23  1  0  0  0  0
 26 27  1  0  0  0  0
 26 21  1  0  0  0  0
 29 28  1  0  0  0  0
 30 31  1  6  0  0  0
 30 29  1  0  0  0  0
 32 30  1  0  0  0  0
 32 33  2  0  0  0  0
 34 32  1  0  0  0  0
M  END
>  <MODEL>
9

>  <REMARK>
 VINA RESULT:      -8.0      1.489      6.155
  Name = 
  9 active torsions:
  status: ('A' for Active; 'I' for Inactive)
    1  A    between atoms: C_1  and  O_9
    2  A    between atoms: N_3  and  C_25
    3  A    between atoms: C_7  and  C_11
    4  A    between atoms: C_7  and  C_29
    5  A    between atoms: C_8  and  O_9
    6  A    between atoms: C_8  and  C_18
    7  A    between atoms: C_18  and  N_30
    8  A    between atoms: O_26  and  C_28
    9  A    between atoms: O_26  and  C_29
                            x       y       z     vdW  Elec       q    Type
                         _______ _______ _______ _____ _____    ______ ____

>  <TORSDO>
F 9

$$$$
