=
 OpenBabel11052416373D

 43 48  0  0  1  0  0  0  0  0999 V2000
  191.3790  176.5190  146.8130 C   0  0  0  0  0  0  0  0  0  0  0  0
  187.0700  177.9050  144.4100 C   0  0  0  0  0  0  0  0  0  0  0  0
  187.8310  178.1440  141.6450 C   0  0  0  0  0  0  0  0  0  0  0  0
  189.0000  177.1690  146.2860 C   0  0  0  0  0  0  0  0  0  0  0  0
  191.6830  176.6240  145.3800 C   0  0  0  0  0  3  0  0  0  0  0  0
  192.2950  176.1950  147.6140 O   0  0  0  0  0  0  0  0  0  0  0  0
  189.3570  177.2470  144.9240 C   0  0  0  0  0  0  0  0  0  0  0  0
  190.0020  176.7970  147.3470 C   0  0  0  0  0  2  0  0  0  0  0  0
  190.7430  176.9610  144.5020 C   0  0  0  0  0  3  0  0  0  0  0  0
  188.6890  177.6380  142.5400 C   0  0  0  0  0  3  0  0  0  0  0  0
  188.3760  177.6030  143.9810 C   0  0  0  0  0  0  0  0  0  0  0  0
  186.7600  177.7700  145.7670 C   0  0  0  0  0  3  0  0  0  0  0  0
  185.9940  178.2090  143.3850 C   0  0  2  0  0  3  0  0  0  0  0  0
  186.5670  178.8190  142.0960 C   0  0  0  0  0  2  0  0  0  0  0  0
  187.7190  177.4210  146.6640 N   0  0  0  0  0  0  0  0  0  0  0  0
  188.1880  178.1990  140.1880 C   0  0  2  0  0  3  0  0  0  0  0  0
  186.9340  178.1110  139.3400 C   0  0  0  0  0  1  0  0  0  0  0  0
  189.0890  177.1100  139.8310 N   0  0  0  0  0  2  0  0  0  0  0  0
  190.0030  177.1820  138.7350 C   0  0  0  0  0  0  0  0  0  0  0  0
  189.9120  178.1030  137.8810 O   0  0  0  0  0  0  0  0  0  0  0  0
  191.1240  176.2080  138.6590 C   0  0  0  0  0  2  0  0  0  0  0  0
  191.0480  175.4670  137.3350 C   0  0  2  0  0  3  0  0  0  0  0  0
  191.5310  173.2560  136.5990 O   0  0  0  0  0  0  0  0  0  0  0  0
  189.7610  174.7300  137.2150 C   0  0  0  0  0  2  0  0  0  0  0  0
  192.0740  174.3660  137.2730 C   0  0  1  0  0  3  0  0  0  0  0  0
  190.1530  173.4970  136.4400 C   0  0  0  0  0  2  0  0  0  0  0  0
  194.6150  174.4560  137.0460 N   0  0  0  0  0  0  0  0  0  0  0  0
  193.3140  174.8520  136.5820 C   0  0  0  0  0  0  0  0  0  0  0  0
  197.0550  173.0170  137.1520 C   0  0  0  0  0  2  0  0  0  0  0  0
  195.8130  172.4640  137.8660 C   0  0  0  0  0  2  0  0  0  0  0  0
  197.0850  174.5420  137.1090 C   0  0  0  0  0  2  0  0  0  0  0  0
  194.7490  173.5230  138.1670 C   0  0  0  0  0  2  0  0  0  0  0  0
  195.8110  175.0640  136.4510 C   0  0  0  0  0  2  0  0  0  0  0  0
  193.2080  175.6460  135.6080 O   0  0  0  0  0  0  0  0  0  0  0  0
  184.8330  179.0590  143.9260 C   0  0  0  0  0  2  0  0  0  0  0  0
  181.1230  178.7830  143.1680 C   0  0  0  0  0  3  0  0  0  0  0  0
  181.1330  178.4730  141.8030 C   0  0  0  0  0  0  0  0  0  0  0  0
  183.5590  178.5490  141.8170 C   0  0  0  0  0  3  0  0  0  0  0  0
  182.3250  178.9760  143.8550 C   0  0  0  0  0  3  0  0  0  0  0  0
  183.5450  178.8580  143.1830 C   0  0  0  0  0  0  0  0  0  0  0  0
  182.3570  178.3580  141.1300 C   0  0  0  0  0  3  0  0  0  0  0  0
  179.5410  177.0510  140.4350 C   0  0  0  0  0  1  0  0  0  0  0  0
  179.8900  178.2840  141.1220 N   0  0  0  0  0  2  0  0  0  0  0  0
  1  8  1  0  0  0  0
  1  6  2  0  0  0  0
  2 12  1  0  0  0  0
  3 14  1  0  0  0  0
  3 10  2  0  0  0  0
  4 15  1  0  0  0  0
  4  8  1  0  0  0  0
  5  1  1  0  0  0  0
  7  4  2  0  0  0  0
  9  7  1  0  0  0  0
  9  5  2  0  0  0  0
 10 11  1  0  0  0  0
 11  2  2  0  0  0  0
 11  7  1  0  0  0  0
 12 15  2  0  0  0  0
 13 35  1  1  0  0  0
 13  2  1  0  0  0  0
 14 13  1  0  0  0  0
 16 17  1  6  0  0  0
 16  3  1  0  0  0  0
 18 16  1  0  0  0  0
 19 18  1  0  0  0  0
 20 19  2  0  0  0  0
 21 19  1  0  0  0  0
 22 21  1  1  0  0  0
 23 25  1  0  0  0  0
 24 22  1  0  0  0  0
 25 28  1  6  0  0  0
 25 22  1  0  0  0  0
 26 23  1  0  0  0  0
 26 24  1  0  0  0  0
 27 32  1  0  0  0  0
 28 27  1  0  0  0  0
 29 30  1  0  0  0  0
 30 32  1  0  0  0  0
 31 29  1  0  0  0  0
 33 27  1  0  0  0  0
 33 31  1  0  0  0  0
 34 28  2  0  0  0  0
 36 39  1  0  0  0  0
 37 36  2  0  0  0  0
 38 40  1  0  0  0  0
 40 39  2  0  0  0  0
 40 35  1  0  0  0  0
 41 37  1  0  0  0  0
 41 38  2  0  0  0  0
 42 43  1  0  0  0  0
 43 37  1  0  0  0  0
M  END
>  <MODEL>
1

>  <REMARK>
 VINA RESULT:     -10.7      0.000      0.000
  Name = 
  8 active torsions:
  status: ('A' for Active; 'I' for Inactive)
    1  A    between atoms: C_1  and  C_34
    2  A    between atoms: C_1  and  C_35
    3  A    between atoms: C_2  and  N_6
    4  A    between atoms: C_2  and  C_13
    5  A    between atoms: C_3  and  C_4
    6  A    between atoms: C_3  and  C_12
    7  A    between atoms: C_14  and  C_22
    8  A    between atoms: C_19  and  N_37
                            x       y       z     vdW  Elec       q    Type
                         _______ _______ _______ _____ _____    ______ ____

>  <TORSDO>
F 8

$$$$
=
 OpenBabel11052416373D

 43 48  0  0  1  0  0  0  0  0999 V2000
  191.3500  176.6130  146.7340 C   0  0  0  0  0  0  0  0  0  0  0  0
  186.9480  177.9410  144.4700 C   0  0  0  0  0  0  0  0  0  0  0  0
  187.6170  178.1920  141.6830 C   0  0  0  0  0  0  0  0  0  0  0  0
  188.9470  177.2300  146.2830 C   0  0  0  0  0  0  0  0  0  0  0  0
  191.6060  176.7220  145.2920 C   0  0  0  0  0  3  0  0  0  0  0  0
  192.2940  176.3010  147.5050 O   0  0  0  0  0  0  0  0  0  0  0  0
  189.2590  177.3140  144.9110 C   0  0  0  0  0  0  0  0  0  0  0  0
  189.9860  176.8720  147.3120 C   0  0  0  0  0  2  0  0  0  0  0  0
  190.6340  177.0470  144.4450 C   0  0  0  0  0  3  0  0  0  0  0  0
  188.5100  177.6970  142.5500 C   0  0  0  0  0  3  0  0  0  0  0  0
  188.2440  177.6570  144.0000 C   0  0  0  0  0  0  0  0  0  0  0  0
  186.6830  177.8010  145.8370 C   0  0  0  0  0  3  0  0  0  0  0  0
  185.8360  178.2300  143.4800 C   0  0  2  0  0  3  0  0  0  0  0  0
  186.3590  178.8490  142.1740 C   0  0  0  0  0  2  0  0  0  0  0  0
  187.6750  177.4640  146.7020 N   0  0  0  0  0  0  0  0  0  0  0  0
  187.9270  178.2530  140.2150 C   0  0  2  0  0  3  0  0  0  0  0  0
  186.6420  178.3130  139.4130 C   0  0  0  0  0  1  0  0  0  0  0  0
  188.7020  177.0900  139.7980 N   0  0  0  0  0  2  0  0  0  0  0  0
  189.7250  177.1530  138.8030 C   0  0  0  0  0  0  0  0  0  0  0  0
  189.8510  178.1700  138.0710 O   0  0  0  0  0  0  0  0  0  0  0  0
  190.7040  176.0380  138.6970 C   0  0  0  0  0  2  0  0  0  0  0  0
  190.6560  175.4680  137.2900 C   0  0  2  0  0  3  0  0  0  0  0  0
  189.3490  175.8680  135.3410 O   0  0  0  0  0  0  0  0  0  0  0  0
  191.4650  176.2980  136.3550 C   0  0  0  0  0  2  0  0  0  0  0  0
  189.2680  175.5680  136.7150 C   0  0  1  0  0  3  0  0  0  0  0  0
  190.6900  176.1980  135.0650 C   0  0  0  0  0  2  0  0  0  0  0  0
  187.0940  174.2820  137.0800 N   0  0  0  0  0  0  0  0  0  0  0  0
  188.5230  174.2840  136.9330 C   0  0  0  0  0  0  0  0  0  0  0  0
  184.3670  173.9870  136.3660 C   0  0  0  0  0  2  0  0  0  0  0  0
  185.0830  175.3210  136.1040 C   0  0  0  0  0  2  0  0  0  0  0  0
  184.9040  173.2550  137.5930 C   0  0  0  0  0  2  0  0  0  0  0  0
  186.3360  175.5280  136.9610 C   0  0  0  0  0  2  0  0  0  0  0  0
  186.4070  173.0380  137.4460 C   0  0  0  0  0  2  0  0  0  0  0  0
  189.1670  173.2030  137.0250 O   0  0  0  0  0  0  0  0  0  0  0  0
  184.6810  179.0650  144.0590 C   0  0  0  0  0  2  0  0  0  0  0  0
  182.1990  178.4750  141.2470 C   0  0  0  0  0  3  0  0  0  0  0  0
  180.9760  178.5840  141.9170 C   0  0  0  0  0  0  0  0  0  0  0  0
  182.1660  179.0030  143.9910 C   0  0  0  0  0  3  0  0  0  0  0  0
  183.4020  178.6280  141.9430 C   0  0  0  0  0  3  0  0  0  0  0  0
  183.3880  178.8950  143.3170 C   0  0  0  0  0  0  0  0  0  0  0  0
  180.9650  178.8480  143.2950 C   0  0  0  0  0  3  0  0  0  0  0  0
  179.3540  177.1520  140.5950 C   0  0  0  0  0  1  0  0  0  0  0  0
  179.7610  178.4190  141.1830 N   0  0  0  0  0  2  0  0  0  0  0  0
  1  8  1  0  0  0  0
  1  6  2  0  0  0  0
  2 12  1  0  0  0  0
  3 14  1  0  0  0  0
  3 10  2  0  0  0  0
  4 15  1  0  0  0  0
  4  8  1  0  0  0  0
  5  1  1  0  0  0  0
  7  4  2  0  0  0  0
  9  7  1  0  0  0  0
  9  5  2  0  0  0  0
 10 11  1  0  0  0  0
 11  2  2  0  0  0  0
 11  7  1  0  0  0  0
 12 15  2  0  0  0  0
 13 35  1  1  0  0  0
 13  2  1  0  0  0  0
 14 13  1  0  0  0  0
 16 17  1  6  0  0  0
 16  3  1  0  0  0  0
 18 16  1  0  0  0  0
 19 18  1  0  0  0  0
 20 19  2  0  0  0  0
 21 19  1  0  0  0  0
 22 21  1  1  0  0  0
 23 25  1  0  0  0  0
 24 22  1  0  0  0  0
 25 28  1  6  0  0  0
 25 22  1  0  0  0  0
 26 23  1  0  0  0  0
 26 24  1  0  0  0  0
 27 33  1  0  0  0  0
 28 34  2  0  0  0  0
 28 27  1  0  0  0  0
 29 31  1  0  0  0  0
 30 29  1  0  0  0  0
 30 32  1  0  0  0  0
 32 27  1  0  0  0  0
 33 31  1  0  0  0  0
 36 37  2  0  0  0  0
 36 39  1  0  0  0  0
 37 41  1  0  0  0  0
 39 40  2  0  0  0  0
 40 38  1  0  0  0  0
 40 35  1  0  0  0  0
 41 38  2  0  0  0  0
 42 43  1  0  0  0  0
 43 37  1  0  0  0  0
M  END
>  <MODEL>
2

>  <REMARK>
 VINA RESULT:     -10.5      2.367      4.250
  Name = 
  8 active torsions:
  status: ('A' for Active; 'I' for Inactive)
    1  A    between atoms: C_1  and  C_34
    2  A    between atoms: C_1  and  C_35
    3  A    between atoms: C_2  and  N_6
    4  A    between atoms: C_2  and  C_13
    5  A    between atoms: C_3  and  C_4
    6  A    between atoms: C_3  and  C_12
    7  A    between atoms: C_14  and  C_22
    8  A    between atoms: C_19  and  N_37
                            x       y       z     vdW  Elec       q    Type
                         _______ _______ _______ _____ _____    ______ ____

>  <TORSDO>
F 8

$$$$
=
 OpenBabel11052416373D

 43 48  0  0  1  0  0  0  0  0999 V2000
  190.7320  176.8040  146.5190 C   0  0  0  0  0  0  0  0  0  0  0  0
  189.6790  177.7160  141.5870 C   0  0  0  0  0  0  0  0  0  0  0  0
  186.9250  178.5490  141.5790 C   0  0  0  0  0  0  0  0  0  0  0  0
  190.8860  177.0540  144.0140 C   0  0  0  0  0  0  0  0  0  0  0  0
  189.3430  177.2750  146.4390 C   0  0  0  0  0  3  0  0  0  0  0  0
  191.2180  176.5090  147.6410 O   0  0  0  0  0  0  0  0  0  0  0  0
  189.5490  177.5030  144.0080 C   0  0  0  0  0  0  0  0  0  0  0  0
  191.5850  176.6620  145.2890 C   0  0  0  0  0  2  0  0  0  0  0  0
  188.7940  177.6000  145.2730 C   0  0  0  0  0  3  0  0  0  0  0  0
  187.5770  178.3810  142.7360 C   0  0  0  0  0  3  0  0  0  0  0  0
  188.9520  177.8500  142.7840 C   0  0  0  0  0  0  0  0  0  0  0  0
  191.0160  177.3070  141.6540 C   0  0  0  0  0  3  0  0  0  0  0  0
  189.0620  178.1680  140.2770 C   0  0  2  0  0  3  0  0  0  0  0  0
  187.5280  178.0730  140.2870 C   0  0  0  0  0  2  0  0  0  0  0  0
  191.5780  176.9790  142.8470 N   0  0  0  0  0  0  0  0  0  0  0  0
  185.5130  179.0590  141.5610 C   0  0  2  0  0  3  0  0  0  0  0  0
  184.8720  178.8680  142.9220 C   0  0  0  0  0  1  0  0  0  0  0  0
  184.7210  178.3660  140.5520 N   0  0  0  0  0  2  0  0  0  0  0  0
  184.2930  178.9840  139.3370 C   0  0  0  0  0  0  0  0  0  0  0  0
  184.3840  180.2300  139.1820 O   0  0  0  0  0  0  0  0  0  0  0  0
  183.8210  178.1300  138.2150 C   0  0  0  0  0  2  0  0  0  0  0  0
  182.3890  177.7010  138.4880 C   0  0  2  0  0  3  0  0  0  0  0  0
  181.3400  176.0600  139.8560 O   0  0  0  0  0  0  0  0  0  0  0  0
  181.8540  178.3840  139.6970 C   0  0  0  0  0  2  0  0  0  0  0  0
  182.3240  176.2450  138.8660 C   0  0  1  0  0  3  0  0  0  0  0  0
  180.9460  177.3380  140.2970 C   0  0  0  0  0  2  0  0  0  0  0  0
  183.0300  174.5600  137.0830 N   0  0  0  0  0  0  0  0  0  0  0  0
  182.0230  175.4080  137.6570 C   0  0  0  0  0  0  0  0  0  0  0  0
  184.4660  172.1870  136.5030 C   0  0  0  0  0  2  0  0  0  0  0  0
  184.8080  172.9950  137.7630 C   0  0  0  0  0  2  0  0  0  0  0  0
  183.9660  173.0590  135.3550 C   0  0  0  0  0  2  0  0  0  0  0  0
  184.3520  174.4550  137.7040 C   0  0  0  0  0  2  0  0  0  0  0  0
  182.7590  173.8720  135.8150 C   0  0  0  0  0  2  0  0  0  0  0  0
  180.8830  175.4830  137.1220 O   0  0  0  0  0  0  0  0  0  0  0  0
  189.6470  177.4760  139.0340 C   0  0  0  0  0  2  0  0  0  0  0  0
  187.5060  178.5670  136.0950 C   0  0  0  0  0  3  0  0  0  0  0  0
  186.9200  177.3580  135.7030 C   0  0  0  0  0  0  0  0  0  0  0  0
  188.1160  176.2190  137.4830 C   0  0  0  0  0  3  0  0  0  0  0  0
  188.3940  178.6040  137.1740 C   0  0  0  0  0  3  0  0  0  0  0  0
  188.6990  177.4310  137.8720 C   0  0  0  0  0  0  0  0  0  0  0  0
  187.2300  176.1820  136.4020 C   0  0  0  0  0  3  0  0  0  0  0  0
  184.6380  176.9020  134.6970 C   0  0  0  0  0  1  0  0  0  0  0  0
  186.0200  177.3460  134.5940 N   0  0  0  0  0  2  0  0  0  0  0  0
  1  6  2  0  0  0  0
  2 12  2  0  0  0  0
  2 11  1  0  0  0  0
  3 10  2  0  0  0  0
  4  8  1  0  0  0  0
  5  1  1  0  0  0  0
  7  4  1  0  0  0  0
  7  9  1  0  0  0  0
  8  1  1  0  0  0  0
  9  5  2  0  0  0  0
 10 11  1  0  0  0  0
 11  7  2  0  0  0  0
 12 15  1  0  0  0  0
 13 35  1  6  0  0  0
 13 14  1  0  0  0  0
 13  2  1  0  0  0  0
 14  3  1  0  0  0  0
 15  4  2  0  0  0  0
 16  3  1  0  0  0  0
 16 17  1  1  0  0  0
 18 16  1  0  0  0  0
 19 18  1  0  0  0  0
 20 19  2  0  0  0  0
 21 19  1  0  0  0  0
 22 21  1  1  0  0  0
 22 25  1  0  0  0  0
 22 24  1  0  0  0  0
 23 26  1  0  0  0  0
 24 26  1  0  0  0  0
 25 28  1  6  0  0  0
 25 23  1  0  0  0  0
 27 28  1  0  0  0  0
 27 32  1  0  0  0  0
 29 30  1  0  0  0  0
 31 33  1  0  0  0  0
 31 29  1  0  0  0  0
 32 30  1  0  0  0  0
 33 27  1  0  0  0  0
 34 28  2  0  0  0  0
 36 39  1  0  0  0  0
 37 36  2  0  0  0  0
 37 41  1  0  0  0  0
 38 40  1  0  0  0  0
 39 40  2  0  0  0  0
 40 35  1  0  0  0  0
 41 38  2  0  0  0  0
 43 42  1  0  0  0  0
 43 37  1  0  0  0  0
M  END
>  <MODEL>
3

>  <REMARK>
 VINA RESULT:     -10.0      4.288      7.719
  Name = 
  8 active torsions:
  status: ('A' for Active; 'I' for Inactive)
    1  A    between atoms: C_1  and  C_34
    2  A    between atoms: C_1  and  C_35
    3  A    between atoms: C_2  and  N_6
    4  A    between atoms: C_2  and  C_13
    5  A    between atoms: C_3  and  C_4
    6  A    between atoms: C_3  and  C_12
    7  A    between atoms: C_14  and  C_22
    8  A    between atoms: C_19  and  N_37
                            x       y       z     vdW  Elec       q    Type
                         _______ _______ _______ _____ _____    ______ ____

>  <TORSDO>
F 8

$$$$
=
 OpenBabel11052416373D

 43 48  0  0  1  0  0  0  0  0999 V2000
  190.8450  176.7410  146.5910 C   0  0  0  0  0  0  0  0  0  0  0  0
  189.6580  177.7040  141.7000 C   0  0  0  0  0  0  0  0  0  0  0  0
  186.9270  178.6070  141.7840 C   0  0  0  0  0  0  0  0  0  0  0  0
  190.9240  176.9990  144.0840 C   0  0  0  0  0  0  0  0  0  0  0  0
  189.4660  177.2480  146.5590 C   0  0  0  0  0  3  0  0  0  0  0  0
  191.3590  176.4280  147.6960 O   0  0  0  0  0  0  0  0  0  0  0  0
  189.6000  177.4820  144.1230 C   0  0  0  0  0  0  0  0  0  0  0  0
  191.6540  176.5830  145.3340 C   0  0  0  0  0  2  0  0  0  0  0  0
  188.8880  177.5920  145.4120 C   0  0  0  0  0  3  0  0  0  0  0  0
  187.6110  178.4170  142.9190 C   0  0  0  0  0  3  0  0  0  0  0  0
  188.9730  177.8500  142.9200 C   0  0  0  0  0  0  0  0  0  0  0  0
  190.9850  177.2600  141.7220 C   0  0  0  0  0  3  0  0  0  0  0  0
  189.0100  178.1780  140.4130 C   0  0  2  0  0  3  0  0  0  0  0  0
  187.4760  178.1220  140.4720 C   0  0  0  0  0  2  0  0  0  0  0  0
  191.5770  176.9130  142.8950 N   0  0  0  0  0  0  0  0  0  0  0  0
  185.5290  179.1530  141.8140 C   0  0  2  0  0  3  0  0  0  0  0  0
  184.9580  179.0500  143.2150 C   0  0  0  0  0  1  0  0  0  0  0  0
  184.6670  178.4300  140.8870 N   0  0  0  0  0  2  0  0  0  0  0  0
  184.3300  178.9230  139.5890 C   0  0  0  0  0  0  0  0  0  0  0  0
  184.5760  180.1170  139.2710 O   0  0  0  0  0  0  0  0  0  0  0  0
  183.7670  177.9870  138.5800 C   0  0  0  0  0  2  0  0  0  0  0  0
  182.5800  177.2590  139.1880 C   0  0  2  0  0  3  0  0  0  0  0  0
  180.5100  176.4140  138.3740 O   0  0  0  0  0  0  0  0  0  0  0  0
  182.7190  175.7860  139.0160 C   0  0  0  0  0  2  0  0  0  0  0  0
  181.3130  177.5680  138.4360 C   0  0  1  0  0  3  0  0  0  0  0  0
  181.2920  175.3360  138.8320 C   0  0  0  0  0  2  0  0  0  0  0  0
  180.5140  179.9920  138.4930 N   0  0  0  0  0  0  0  0  0  0  0  0
  180.5760  178.6920  139.1020 C   0  0  0  0  0  0  0  0  0  0  0  0
  179.4520  182.1720  137.0250 C   0  0  0  0  0  2  0  0  0  0  0  0
  180.1850  181.0410  136.2870 C   0  0  0  0  0  2  0  0  0  0  0  0
  179.9900  182.4070  138.4340 C   0  0  0  0  0  2  0  0  0  0  0  0
  181.1220  180.2240  137.1820 C   0  0  0  0  0  2  0  0  0  0  0  0
  179.9210  181.1100  139.2350 C   0  0  0  0  0  2  0  0  0  0  0  0
  180.0380  178.4980  140.2260 O   0  0  0  0  0  0  0  0  0  0  0  0
  189.5370  177.4770  139.1490 C   0  0  0  0  0  2  0  0  0  0  0  0
  186.9040  176.3040  136.6770 C   0  0  0  0  0  3  0  0  0  0  0  0
  186.7230  177.4460  135.8890 C   0  0  0  0  0  0  0  0  0  0  0  0
  188.3760  178.6160  137.2290 C   0  0  0  0  0  3  0  0  0  0  0  0
  187.8150  176.3160  137.7370 C   0  0  0  0  0  3  0  0  0  0  0  0
  188.5550  177.4710  138.0140 C   0  0  0  0  0  0  0  0  0  0  0  0
  187.4630  178.6040  136.1700 C   0  0  0  0  0  3  0  0  0  0  0  0
  184.4350  176.8810  134.9560 C   0  0  0  0  0  1  0  0  0  0  0  0
  185.7820  177.4090  134.8140 N   0  0  0  0  0  2  0  0  0  0  0  0
  1  6  2  0  0  0  0
  2 12  2  0  0  0  0
  2 11  1  0  0  0  0
  3 16  1  0  0  0  0
  3 10  2  0  0  0  0
  4  7  1  0  0  0  0
  4  8  1  0  0  0  0
  5  1  1  0  0  0  0
  7  9  1  0  0  0  0
  8  1  1  0  0  0  0
  9  5  2  0  0  0  0
 10 11  1  0  0  0  0
 11  7  2  0  0  0  0
 12 15  1  0  0  0  0
 13 35  1  6  0  0  0
 13 14  1  0  0  0  0
 13  2  1  0  0  0  0
 14  3  1  0  0  0  0
 15  4  2  0  0  0  0
 16 17  1  1  0  0  0
 18 16  1  0  0  0  0
 19 18  1  0  0  0  0
 20 19  2  0  0  0  0
 21 19  1  0  0  0  0
 22 21  1  6  0  0  0
 23 25  1  0  0  0  0
 23 26  1  0  0  0  0
 24 22  1  0  0  0  0
 25 28  1  1  0  0  0
 25 22  1  0  0  0  0
 26 24  1  0  0  0  0
 27 28  1  0  0  0  0
 27 33  1  0  0  0  0
 28 34  2  0  0  0  0
 29 31  1  0  0  0  0
 30 29  1  0  0  0  0
 30 32  1  0  0  0  0
 31 33  1  0  0  0  0
 32 27  1  0  0  0  0
 36 39  1  0  0  0  0
 37 41  1  0  0  0  0
 37 36  2  0  0  0  0
 38 40  1  0  0  0  0
 39 40  2  0  0  0  0
 40 35  1  0  0  0  0
 41 38  2  0  0  0  0
 43 42  1  0  0  0  0
 43 37  1  0  0  0  0
M  END
>  <MODEL>
4

>  <REMARK>
 VINA RESULT:      -9.9      4.298      9.100
  Name = 
  8 active torsions:
  status: ('A' for Active; 'I' for Inactive)
    1  A    between atoms: C_1  and  C_34
    2  A    between atoms: C_1  and  C_35
    3  A    between atoms: C_2  and  N_6
    4  A    between atoms: C_2  and  C_13
    5  A    between atoms: C_3  and  C_4
    6  A    between atoms: C_3  and  C_12
    7  A    between atoms: C_14  and  C_22
    8  A    between atoms: C_19  and  N_37
                            x       y       z     vdW  Elec       q    Type
                         _______ _______ _______ _____ _____    ______ ____

>  <TORSDO>
F 8

$$$$
=
 OpenBabel11052416373D

 43 48  0  0  1  0  0  0  0  0999 V2000
  187.8630  177.7780  147.9380 C   0  0  0  0  0  0  0  0  0  0  0  0
  186.1350  178.3790  143.1510 C   0  0  0  0  0  0  0  0  0  0  0  0
  188.3260  177.5430  141.4820 C   0  0  0  0  0  0  0  0  0  0  0  0
  186.4380  178.2980  145.9240 C   0  0  0  0  0  0  0  0  0  0  0  0
  188.9220  177.3300  147.0230 C   0  0  0  0  0  3  0  0  0  0  0  0
  188.0620  177.7290  149.1800 O   0  0  0  0  0  0  0  0  0  0  0  0
  187.4920  177.8500  145.1010 C   0  0  0  0  0  0  0  0  0  0  0  0
  186.5490  178.2990  147.4250 C   0  0  0  0  0  2  0  0  0  0  0  0
  188.7490  177.3630  145.7050 C   0  0  0  0  0  3  0  0  0  0  0  0
  188.3800  177.3640  142.8090 C   0  0  0  0  0  3  0  0  0  0  0  0
  187.3280  177.8790  143.7050 C   0  0  0  0  0  0  0  0  0  0  0  0
  185.1050  178.7710  144.0130 C   0  0  0  0  0  3  0  0  0  0  0  0
  185.9270  178.3330  141.6490 C   0  0  2  0  0  3  0  0  0  0  0  0
  187.2510  178.3960  140.8710 C   0  0  0  0  0  2  0  0  0  0  0  0
  185.2800  178.7320  145.3600 N   0  0  0  0  0  0  0  0  0  0  0  0
  189.4270  177.0390  140.5960 C   0  0  2  0  0  3  0  0  0  0  0  0
  190.7620  177.1500  141.3070 C   0  0  0  0  0  1  0  0  0  0  0  0
  189.4810  177.7950  139.3500 N   0  0  0  0  0  2  0  0  0  0  0  0
  189.7540  177.1910  138.0840 C   0  0  0  0  0  0  0  0  0  0  0  0
  190.1900  176.0120  138.0140 O   0  0  0  0  0  0  0  0  0  0  0  0
  189.4320  177.9380  136.8390 C   0  0  0  0  0  2  0  0  0  0  0  0
  187.9680  177.7190  136.4950 C   0  0  2  0  0  3  0  0  0  0  0  0
  186.1880  176.4240  137.3990 O   0  0  0  0  0  0  0  0  0  0  0  0
  187.0960  178.6260  137.2900 C   0  0  0  0  0  2  0  0  0  0  0  0
  187.5120  176.3500  136.9240 C   0  0  1  0  0  3  0  0  0  0  0  0
  185.8620  177.7890  137.5170 C   0  0  0  0  0  2  0  0  0  0  0  0
  187.2370  174.0100  135.9430 N   0  0  0  0  0  0  0  0  0  0  0  0
  187.6110  175.3870  135.7780 C   0  0  0  0  0  0  0  0  0  0  0  0
  185.6380  171.6740  135.8000 C   0  0  0  0  0  2  0  0  0  0  0  0
  185.4820  172.6320  136.9900 C   0  0  0  0  0  2  0  0  0  0  0  0
  187.0580  171.6450  135.2420 C   0  0  0  0  0  2  0  0  0  0  0  0
  186.6960  173.5380  137.2180 C   0  0  0  0  0  2  0  0  0  0  0  0
  187.4880  173.0580  134.8550 C   0  0  0  0  0  2  0  0  0  0  0  0
  188.0650  175.7880  134.6710 O   0  0  0  0  0  0  0  0  0  0  0  0
  184.9300  179.3780  141.1200 C   0  0  0  0  0  2  0  0  0  0  0  0
  182.3580  176.9450  139.7490 C   0  0  0  0  0  3  0  0  0  0  0  0
  181.8050  177.6780  138.6940 C   0  0  0  0  0  0  0  0  0  0  0  0
  183.2870  179.5270  139.2210 C   0  0  0  0  0  3  0  0  0  0  0  0
  183.3700  177.4980  140.5390 C   0  0  0  0  0  3  0  0  0  0  0  0
  183.8390  178.7900  140.2750 C   0  0  0  0  0  0  0  0  0  0  0  0
  182.2730  178.9740  138.4330 C   0  0  0  0  0  3  0  0  0  0  0  0
  180.7680  175.6910  137.5090 C   0  0  0  0  0  1  0  0  0  0  0  0
  180.7680  177.0910  137.9040 N   0  0  0  0  0  2  0  0  0  0  0  0
  1  6  2  0  0  0  0
  2 11  2  0  0  0  0
  2 12  1  0  0  0  0
  3 10  2  0  0  0  0
  4  8  1  0  0  0  0
  5  1  1  0  0  0  0
  7  9  1  0  0  0  0
  7  4  2  0  0  0  0
  8  1  1  0  0  0  0
  9  5  2  0  0  0  0
 10 11  1  0  0  0  0
 11  7  1  0  0  0  0
 12 15  2  0  0  0  0
 13 35  1  6  0  0  0
 13  2  1  0  0  0  0
 14  3  1  0  0  0  0
 14 13  1  0  0  0  0
 15  4  1  0  0  0  0
 16 17  1  1  0  0  0
 16  3  1  0  0  0  0
 18 16  1  0  0  0  0
 19 18  1  0  0  0  0
 20 19  2  0  0  0  0
 21 19  1  0  0  0  0
 22 21  1  1  0  0  0
 22 25  1  0  0  0  0
 22 24  1  0  0  0  0
 23 26  1  0  0  0  0
 24 26  1  0  0  0  0
 25 28  1  6  0  0  0
 25 23  1  0  0  0  0
 27 32  1  0  0  0  0
 28 27  1  0  0  0  0
 29 30  1  0  0  0  0
 30 32  1  0  0  0  0
 31 29  1  0  0  0  0
 33 31  1  0  0  0  0
 33 27  1  0  0  0  0
 34 28  2  0  0  0  0
 36 39  1  0  0  0  0
 37 36  2  0  0  0  0
 38 40  1  0  0  0  0
 40 39  2  0  0  0  0
 40 35  1  0  0  0  0
 41 37  1  0  0  0  0
 41 38  2  0  0  0  0
 42 43  1  0  0  0  0
 43 37  1  0  0  0  0
M  END
>  <MODEL>
5

>  <REMARK>
 VINA RESULT:      -9.6      3.516      4.808
  Name = 
  8 active torsions:
  status: ('A' for Active; 'I' for Inactive)
    1  A    between atoms: C_1  and  C_34
    2  A    between atoms: C_1  and  C_35
    3  A    between atoms: C_2  and  N_6
    4  A    between atoms: C_2  and  C_13
    5  A    between atoms: C_3  and  C_4
    6  A    between atoms: C_3  and  C_12
    7  A    between atoms: C_14  and  C_22
    8  A    between atoms: C_19  and  N_37
                            x       y       z     vdW  Elec       q    Type
                         _______ _______ _______ _____ _____    ______ ____

>  <TORSDO>
F 8

$$$$
=
 OpenBabel11052416373D

 43 48  0  0  1  0  0  0  0  0999 V2000
  191.7530  177.1540  139.5460 C   0  0  0  0  0  0  0  0  0  0  0  0
  187.4130  177.2140  136.8200 C   0  0  0  0  0  0  0  0  0  0  0  0
  185.4300  178.2250  138.6440 C   0  0  0  0  0  0  0  0  0  0  0  0
  190.0440  176.9260  137.7060 C   0  0  0  0  0  0  0  0  0  0  0  0
  190.6940  177.7000  140.4060 C   0  0  0  0  0  3  0  0  0  0  0  0
  192.9190  177.0360  140.0050 O   0  0  0  0  0  0  0  0  0  0  0  0
  189.0760  177.4610  138.5810 C   0  0  0  0  0  0  0  0  0  0  0  0
  191.4740  176.7270  138.1320 C   0  0  0  0  0  2  0  0  0  0  0  0
  189.4510  177.8430  139.9570 C   0  0  0  0  0  3  0  0  0  0  0  0
  186.7250  178.2280  138.9850 C   0  0  0  0  0  3  0  0  0  0  0  0
  187.7560  177.6180  138.1240 C   0  0  0  0  0  0  0  0  0  0  0  0
  188.4220  176.7300  135.9790 C   0  0  0  0  0  3  0  0  0  0  0  0
  186.0090  177.4600  136.3020 C   0  0  2  0  0  3  0  0  0  0  0  0
  184.9630  177.4780  137.4270 C   0  0  0  0  0  2  0  0  0  0  0  0
  189.6930  176.5890  136.4370 N   0  0  0  0  0  0  0  0  0  0  0  0
  184.3970  178.8230  139.5540 C   0  0  2  0  0  3  0  0  0  0  0  0
  183.5930  179.8740  138.8120 C   0  0  0  0  0  1  0  0  0  0  0  0
  185.0210  179.4300  140.7230 N   0  0  0  0  0  2  0  0  0  0  0  0
  184.7360  179.0170  142.0610 C   0  0  0  0  0  0  0  0  0  0  0  0
  183.7580  178.2630  142.3070 O   0  0  0  0  0  0  0  0  0  0  0  0
  185.6620  179.4120  143.1560 C   0  0  0  0  0  2  0  0  0  0  0  0
  185.6490  178.3360  144.2280 C   0  0  2  0  0  3  0  0  0  0  0  0
  186.8560  177.9310  146.2390 O   0  0  0  0  0  0  0  0  0  0  0  0
  184.7870  178.7400  145.3720 C   0  0  0  0  0  2  0  0  0  0  0  0
  187.0070  178.1910  144.8630 C   0  0  1  0  0  3  0  0  0  0  0  0
  185.4990  178.1370  146.5570 C   0  0  0  0  0  2  0  0  0  0  0  0
  189.2090  177.0320  144.2950 N   0  0  0  0  0  0  0  0  0  0  0  0
  187.7770  177.0900  144.1970 C   0  0  0  0  0  0  0  0  0  0  0  0
  191.7610  176.2130  145.2140 C   0  0  0  0  0  2  0  0  0  0  0  0
  191.0120  177.3360  145.9470 C   0  0  0  0  0  2  0  0  0  0  0  0
  191.4530  176.1690  143.7200 C   0  0  0  0  0  2  0  0  0  0  0  0
  189.9350  178.0180  145.0970 C   0  0  0  0  0  2  0  0  0  0  0  0
  189.9480  176.0380  143.5090 C   0  0  0  0  0  2  0  0  0  0  0  0
  187.1580  176.2290  143.5130 O   0  0  0  0  0  0  0  0  0  0  0  0
  185.5820  176.5110  135.1700 C   0  0  0  0  0  2  0  0  0  0  0  0
  185.2440  173.0650  136.7280 C   0  0  0  0  0  3  0  0  0  0  0  0
  183.8760  172.8140  136.5710 C   0  0  0  0  0  0  0  0  0  0  0  0
  183.6160  174.9770  135.5020 C   0  0  0  0  0  3  0  0  0  0  0  0
  185.7960  174.2670  136.2760 C   0  0  0  0  0  3  0  0  0  0  0  0
  184.9840  175.2250  135.6590 C   0  0  0  0  0  0  0  0  0  0  0  0
  183.0630  173.7760  135.9560 C   0  0  0  0  0  3  0  0  0  0  0  0
  183.4420  170.3300  136.3080 C   0  0  0  0  0  1  0  0  0  0  0  0
  183.3350  171.5790  137.0460 N   0  0  0  0  0  2  0  0  0  0  0  0
  1  6  2  0  0  0  0
  1  5  1  0  0  0  0
  2 11  1  0  0  0  0
  3 10  2  0  0  0  0
  3 16  1  0  0  0  0
  4  8  1  0  0  0  0
  4  7  1  0  0  0  0
  7  9  1  0  0  0  0
  8  1  1  0  0  0  0
  9  5  2  0  0  0  0
 11  7  2  0  0  0  0
 11 10  1  0  0  0  0
 12 15  1  0  0  0  0
 12  2  2  0  0  0  0
 13 35  1  6  0  0  0
 13  2  1  0  0  0  0
 13 14  1  0  0  0  0
 14  3  1  0  0  0  0
 15  4  2  0  0  0  0
 16 17  1  6  0  0  0
 16 18  1  0  0  0  0
 18 19  1  0  0  0  0
 19 20  2  0  0  0  0
 19 21  1  0  0  0  0
 22 21  1  6  0  0  0
 22 25  1  0  0  0  0
 22 24  1  0  0  0  0
 23 26  1  0  0  0  0
 24 26  1  0  0  0  0
 25 28  1  6  0  0  0
 25 23  1  0  0  0  0
 27 32  1  0  0  0  0
 28 27  1  0  0  0  0
 29 30  1  0  0  0  0
 31 29  1  0  0  0  0
 32 30  1  0  0  0  0
 33 31  1  0  0  0  0
 33 27  1  0  0  0  0
 34 28  2  0  0  0  0
 35 40  1  0  0  0  0
 37 36  1  0  0  0  0
 37 43  1  0  0  0  0
 38 40  2  0  0  0  0
 38 41  1  0  0  0  0
 39 36  2  0  0  0  0
 40 39  1  0  0  0  0
 41 37  2  0  0  0  0
 42 43  1  0  0  0  0
M  END
>  <MODEL>
6

>  <REMARK>
 VINA RESULT:      -9.5      3.747      8.308
  Name = 
  8 active torsions:
  status: ('A' for Active; 'I' for Inactive)
    1  A    between atoms: C_1  and  C_34
    2  A    between atoms: C_1  and  C_35
    3  A    between atoms: C_2  and  N_6
    4  A    between atoms: C_2  and  C_13
    5  A    between atoms: C_3  and  C_4
    6  A    between atoms: C_3  and  C_12
    7  A    between atoms: C_14  and  C_22
    8  A    between atoms: C_19  and  N_37
                            x       y       z     vdW  Elec       q    Type
                         _______ _______ _______ _____ _____    ______ ____

>  <TORSDO>
F 8

$$$$
=
 OpenBabel11052416373D

 43 48  0  0  1  0  0  0  0  0999 V2000
  193.5330  175.2850  136.3300 C   0  0  0  0  0  0  0  0  0  0  0  0
  189.8750  177.1740  139.3820 C   0  0  0  0  0  0  0  0  0  0  0  0
  187.4530  176.9200  137.8490 C   0  0  0  0  0  0  0  0  0  0  0  0
  192.2820  176.3130  138.2630 C   0  0  0  0  0  0  0  0  0  0  0  0
  192.2510  175.1520  135.6240 C   0  0  0  0  0  3  0  0  0  0  0  0
  194.5870  174.8900  135.7690 O   0  0  0  0  0  0  0  0  0  0  0  0
  191.0860  176.1530  137.5340 C   0  0  0  0  0  0  0  0  0  0  0  0
  193.6140  175.8880  137.7050 C   0  0  0  0  0  2  0  0  0  0  0  0
  191.1140  175.5540  136.1840 C   0  0  0  0  0  3  0  0  0  0  0  0
  188.5920  176.3710  137.4080 C   0  0  0  0  0  3  0  0  0  0  0  0
  189.8740  176.5740  138.1090 C   0  0  0  0  0  0  0  0  0  0  0  0
  191.0840  177.2700  140.0800 C   0  0  0  0  0  3  0  0  0  0  0  0
  188.5600  177.5520  140.0360 C   0  0  2  0  0  3  0  0  0  0  0  0
  187.4650  177.8770  139.0070 C   0  0  0  0  0  2  0  0  0  0  0  0
  192.2450  176.8530  139.5100 N   0  0  0  0  0  0  0  0  0  0  0  0
  186.1680  176.7260  137.0980 C   0  0  2  0  0  3  0  0  0  0  0  0
  186.1180  177.6550  135.9010 C   0  0  0  0  0  1  0  0  0  0  0  0
  185.0180  176.9830  137.9570 N   0  0  0  0  0  2  0  0  0  0  0  0
  183.8530  176.1560  137.9670 C   0  0  0  0  0  0  0  0  0  0  0  0
  183.6670  175.2960  137.0660 O   0  0  0  0  0  0  0  0  0  0  0  0
  182.9010  176.2570  139.1040 C   0  0  0  0  0  2  0  0  0  0  0  0
  181.9440  177.4090  138.8490 C   0  0  2  0  0  3  0  0  0  0  0  0
  182.1680  179.7480  138.4680 O   0  0  0  0  0  0  0  0  0  0  0  0
  181.7900  177.6550  137.3890 C   0  0  0  0  0  2  0  0  0  0  0  0
  182.5170  178.7080  139.3510 C   0  0  1  0  0  3  0  0  0  0  0  0
  181.6140  179.1510  137.3190 C   0  0  0  0  0  2  0  0  0  0  0  0
  182.8800  178.8650  141.8730 N   0  0  0  0  0  0  0  0  0  0  0  0
  182.0130  178.9960  140.7350 C   0  0  0  0  0  0  0  0  0  0  0  0
  184.6170  179.6450  143.9720 C   0  0  0  0  0  2  0  0  0  0  0  0
  185.1870  179.3780  142.5710 C   0  0  0  0  0  2  0  0  0  0  0  0
  183.3950  178.7870  144.2900 C   0  0  0  0  0  2  0  0  0  0  0  0
  184.2870  178.5030  141.6930 C   0  0  0  0  0  2  0  0  0  0  0  0
  182.3240  179.0030  143.2240 C   0  0  0  0  0  2  0  0  0  0  0  0
  180.8050  179.3210  140.8970 O   0  0  0  0  0  0  0  0  0  0  0  0
  188.6780  178.6720  141.0840 C   0  0  0  0  0  2  0  0  0  0  0  0
  189.8940  178.1490  144.6420 C   0  0  0  0  0  3  0  0  0  0  0  0
  188.9680  177.2180  145.1260 C   0  0  0  0  0  0  0  0  0  0  0  0
  187.8460  177.2350  142.9740 C   0  0  0  0  0  3  0  0  0  0  0  0
  189.7970  178.6230  143.3310 C   0  0  0  0  0  3  0  0  0  0  0  0
  188.7740  178.1660  142.4930 C   0  0  0  0  0  0  0  0  0  0  0  0
  187.9420  176.7630  144.2860 C   0  0  0  0  0  3  0  0  0  0  0  0
  189.1380  177.6450  147.6200 C   0  0  0  0  0  1  0  0  0  0  0  0
  189.0870  176.7520  146.4730 N   0  0  0  0  0  2  0  0  0  0  0  0
  1  8  1  0  0  0  0
  2 13  1  0  0  0  0
  2 12  1  0  0  0  0
  3 14  1  0  0  0  0
  4 15  1  0  0  0  0
  5  9  2  0  0  0  0
  5  1  1  0  0  0  0
  6  1  2  0  0  0  0
  7 11  1  0  0  0  0
  7  4  2  0  0  0  0
  8  4  1  0  0  0  0
  9  7  1  0  0  0  0
 10  3  2  0  0  0  0
 10 11  1  0  0  0  0
 11  2  2  0  0  0  0
 13 35  1  1  0  0  0
 14 13  1  0  0  0  0
 15 12  2  0  0  0  0
 16 17  1  6  0  0  0
 16  3  1  0  0  0  0
 16 18  1  0  0  0  0
 18 19  1  0  0  0  0
 19 21  1  0  0  0  0
 20 19  2  0  0  0  0
 22 21  1  6  0  0  0
 22 25  1  0  0  0  0
 23 25  1  0  0  0  0
 24 22  1  0  0  0  0
 25 28  1  1  0  0  0
 26 24  1  0  0  0  0
 26 23  1  0  0  0  0
 27 33  1  0  0  0  0
 28 34  2  0  0  0  0
 28 27  1  0  0  0  0
 29 31  1  0  0  0  0
 30 29  1  0  0  0  0
 32 27  1  0  0  0  0
 32 30  1  0  0  0  0
 33 31  1  0  0  0  0
 35 40  1  0  0  0  0
 36 37  1  0  0  0  0
 37 43  1  0  0  0  0
 38 41  1  0  0  0  0
 39 36  2  0  0  0  0
 40 38  2  0  0  0  0
 40 39  1  0  0  0  0
 41 37  2  0  0  0  0
 43 42  1  0  0  0  0
M  END
>  <MODEL>
7

>  <REMARK>
 VINA RESULT:      -9.3      2.931      9.473
  Name = 
  8 active torsions:
  status: ('A' for Active; 'I' for Inactive)
    1  A    between atoms: C_1  and  C_34
    2  A    between atoms: C_1  and  C_35
    3  A    between atoms: C_2  and  N_6
    4  A    between atoms: C_2  and  C_13
    5  A    between atoms: C_3  and  C_4
    6  A    between atoms: C_3  and  C_12
    7  A    between atoms: C_14  and  C_22
    8  A    between atoms: C_19  and  N_37
                            x       y       z     vdW  Elec       q    Type
                         _______ _______ _______ _____ _____    ______ ____

>  <TORSDO>
F 8

$$$$
=
 OpenBabel11052416373D

 43 48  0  0  1  0  0  0  0  0999 V2000
  191.2080  176.5340  146.8990 C   0  0  0  0  0  0  0  0  0  0  0  0
  187.3730  177.8620  143.7700 C   0  0  0  0  0  0  0  0  0  0  0  0
  188.5310  177.7870  141.1370 C   0  0  0  0  0  0  0  0  0  0  0  0
  188.9710  177.2330  145.9700 C   0  0  0  0  0  0  0  0  0  0  0  0
  191.7170  176.4790  145.5230 C   0  0  0  0  0  3  0  0  0  0  0  0
  191.9800  176.2510  147.8520 O   0  0  0  0  0  0  0  0  0  0  0  0
  189.5210  177.1570  144.6740 C   0  0  0  0  0  0  0  0  0  0  0  0
  189.7880  176.9260  147.1970 C   0  0  0  0  0  2  0  0  0  0  0  0
  190.9330  176.7680  144.4890 C   0  0  0  0  0  3  0  0  0  0  0  0
  189.2210  177.3360  142.1920 C   0  0  0  0  0  3  0  0  0  0  0  0
  188.7060  177.4600  143.5680 C   0  0  0  0  0  0  0  0  0  0  0  0
  186.8660  177.8800  145.0740 C   0  0  0  0  0  3  0  0  0  0  0  0
  186.4730  178.1100  142.5750 C   0  0  2  0  0  3  0  0  0  0  0  0
  187.2570  178.5600  141.3320 C   0  0  0  0  0  2  0  0  0  0  0  0
  187.6660  177.5800  146.1310 N   0  0  0  0  0  0  0  0  0  0  0  0
  189.0930  177.6780  139.7500 C   0  0  2  0  0  3  0  0  0  0  0  0
  189.0560  179.0310  139.0650 C   0  0  0  0  0  1  0  0  0  0  0  0
  188.3400  176.7140  138.9560 N   0  0  0  0  0  2  0  0  0  0  0  0
  188.8760  176.0710  137.7980 C   0  0  0  0  0  0  0  0  0  0  0  0
  189.9450  176.4780  137.2720 O   0  0  0  0  0  0  0  0  0  0  0  0
  188.2060  174.8540  137.2690 C   0  0  0  0  0  2  0  0  0  0  0  0
  187.1390  175.2690  136.2710 C   0  0  2  0  0  3  0  0  0  0  0  0
  184.7620  175.3970  136.2820 O   0  0  0  0  0  0  0  0  0  0  0  0
  186.7550  176.6940  136.4700 C   0  0  0  0  0  2  0  0  0  0  0  0
  185.8490  174.5340  136.5220 C   0  0  1  0  0  3  0  0  0  0  0  0
  185.2860  176.6950  136.1260 C   0  0  0  0  0  2  0  0  0  0  0  0
  184.9290  172.2090  136.0080 N   0  0  0  0  0  0  0  0  0  0  0  0
  185.7650  173.3200  135.6450 C   0  0  0  0  0  0  0  0  0  0  0  0
  182.6690  170.5000  136.0200 C   0  0  0  0  0  2  0  0  0  0  0  0
  182.6920  171.7380  136.9290 C   0  0  0  0  0  2  0  0  0  0  0  0
  184.0550  169.9070  135.7870 C   0  0  0  0  0  2  0  0  0  0  0  0
  184.1000  172.2700  137.2120 C   0  0  0  0  0  2  0  0  0  0  0  0
  184.9820  170.9750  135.2150 C   0  0  0  0  0  2  0  0  0  0  0  0
  186.4660  173.2640  134.5980 O   0  0  0  0  0  0  0  0  0  0  0  0
  185.2990  179.0620  142.8580 C   0  0  0  0  0  2  0  0  0  0  0  0
  182.8720  177.5500  140.3600 C   0  0  0  0  0  3  0  0  0  0  0  0
  181.6360  177.8930  140.9200 C   0  0  0  0  0  0  0  0  0  0  0  0
  182.7860  178.9970  142.7500 C   0  0  0  0  0  3  0  0  0  0  0  0
  184.0610  177.9270  140.9920 C   0  0  0  0  0  3  0  0  0  0  0  0
  184.0210  178.6530  142.1870 C   0  0  0  0  0  0  0  0  0  0  0  0
  181.5980  178.6180  142.1190 C   0  0  0  0  0  3  0  0  0  0  0  0
  180.2000  176.1330  139.7930 C   0  0  0  0  0  1  0  0  0  0  0  0
  180.4350  177.4910  140.2560 N   0  0  0  0  0  2  0  0  0  0  0  0
  1  8  1  0  0  0  0
  1  6  2  0  0  0  0
  2 12  1  0  0  0  0
  3 14  1  0  0  0  0
  3 10  2  0  0  0  0
  4 15  1  0  0  0  0
  4  8  1  0  0  0  0
  5  1  1  0  0  0  0
  7  4  2  0  0  0  0
  9  7  1  0  0  0  0
  9  5  2  0  0  0  0
 10 11  1  0  0  0  0
 11  2  2  0  0  0  0
 11  7  1  0  0  0  0
 12 15  2  0  0  0  0
 13 35  1  1  0  0  0
 13  2  1  0  0  0  0
 14 13  1  0  0  0  0
 16 17  1  6  0  0  0
 16  3  1  0  0  0  0
 18 16  1  0  0  0  0
 19 18  1  0  0  0  0
 20 19  2  0  0  0  0
 21 19  1  0  0  0  0
 22 24  1  0  0  0  0
 22 25  1  0  0  0  0
 22 21  1  1  0  0  0
 23 25  1  0  0  0  0
 25 28  1  6  0  0  0
 26 23  1  0  0  0  0
 26 24  1  0  0  0  0
 27 32  1  0  0  0  0
 28 27  1  0  0  0  0
 29 30  1  0  0  0  0
 30 32  1  0  0  0  0
 31 29  1  0  0  0  0
 33 31  1  0  0  0  0
 33 27  1  0  0  0  0
 34 28  2  0  0  0  0
 36 37  2  0  0  0  0
 36 39  1  0  0  0  0
 37 41  1  0  0  0  0
 39 40  2  0  0  0  0
 40 38  1  0  0  0  0
 40 35  1  0  0  0  0
 41 38  2  0  0  0  0
 42 43  1  0  0  0  0
 43 37  1  0  0  0  0
M  END
>  <MODEL>
8

>  <REMARK>
 VINA RESULT:      -9.1      3.265      5.427
  Name = 
  8 active torsions:
  status: ('A' for Active; 'I' for Inactive)
    1  A    between atoms: C_1  and  C_34
    2  A    between atoms: C_1  and  C_35
    3  A    between atoms: C_2  and  N_6
    4  A    between atoms: C_2  and  C_13
    5  A    between atoms: C_3  and  C_4
    6  A    between atoms: C_3  and  C_12
    7  A    between atoms: C_14  and  C_22
    8  A    between atoms: C_19  and  N_37
                            x       y       z     vdW  Elec       q    Type
                         _______ _______ _______ _____ _____    ______ ____

>  <TORSDO>
F 8

$$$$
=
 OpenBabel11052416373D

 43 48  0  0  1  0  0  0  0  0999 V2000
  190.7500  176.7400  146.1500 C   0  0  0  0  0  0  0  0  0  0  0  0
  189.4500  177.8230  141.3130 C   0  0  0  0  0  0  0  0  0  0  0  0
  186.7010  178.6570  141.4740 C   0  0  0  0  0  0  0  0  0  0  0  0
  190.7770  177.0760  143.6520 C   0  0  0  0  0  0  0  0  0  0  0  0
  189.3600  177.2140  146.1580 C   0  0  0  0  0  3  0  0  0  0  0  0
  191.2920  176.4050  147.2360 O   0  0  0  0  0  0  0  0  0  0  0  0
  189.4430  177.5260  143.7290 C   0  0  0  0  0  0  0  0  0  0  0  0
  191.5390  176.6400  144.8750 C   0  0  0  0  0  2  0  0  0  0  0  0
  188.7530  177.5800  145.0330 C   0  0  0  0  0  3  0  0  0  0  0  0
  187.4100  178.4490  142.5910 C   0  0  0  0  0  3  0  0  0  0  0  0
  188.7850  177.9160  142.5490 C   0  0  0  0  0  0  0  0  0  0  0  0
  190.7870  177.4110  141.2980 C   0  0  0  0  0  3  0  0  0  0  0  0
  188.7680  178.3210  140.0530 C   0  0  2  0  0  3  0  0  0  0  0  0
  187.2360  178.2270  140.1380 C   0  0  0  0  0  2  0  0  0  0  0  0
  191.4090  177.0420  142.4490 N   0  0  0  0  0  0  0  0  0  0  0  0
  185.2920  179.1690  141.5460 C   0  0  2  0  0  3  0  0  0  0  0  0
  184.7540  179.0220  142.9560 C   0  0  0  0  0  1  0  0  0  0  0  0
  184.4270  178.4450  140.6220 N   0  0  0  0  0  2  0  0  0  0  0  0
  184.0330  178.9680  139.3520 C   0  0  0  0  0  0  0  0  0  0  0  0
  184.2270  180.1780  139.0660 O   0  0  0  0  0  0  0  0  0  0  0  0
  183.4710  178.0450  138.3300 C   0  0  0  0  0  2  0  0  0  0  0  0
  181.9870  178.3260  138.1700 C   0  0  2  0  0  3  0  0  0  0  0  0
  180.4840  180.0000  138.9490 O   0  0  0  0  0  0  0  0  0  0  0  0
  181.7470  179.2840  137.0560 C   0  0  0  0  0  2  0  0  0  0  0  0
  181.4450  179.0600  139.3690 C   0  0  1  0  0  3  0  0  0  0  0  0
  180.5570  180.0730  137.5440 C   0  0  0  0  0  2  0  0  0  0  0  0
  180.5550  178.4890  141.6920 N   0  0  0  0  0  0  0  0  0  0  0  0
  180.8460  178.0890  140.3440 C   0  0  0  0  0  0  0  0  0  0  0  0
  179.0280  179.3470  143.9200 C   0  0  0  0  0  2  0  0  0  0  0  0
  179.6040  180.3860  142.9470 C   0  0  0  0  0  2  0  0  0  0  0  0
  179.9000  178.1010  144.0450 C   0  0  0  0  0  2  0  0  0  0  0  0
  180.7860  179.8700  142.1200 C   0  0  0  0  0  2  0  0  0  0  0  0
  180.1150  177.4840  142.6660 C   0  0  0  0  0  2  0  0  0  0  0  0
  180.6320  176.9000  139.9800 O   0  0  0  0  0  0  0  0  0  0  0  0
  189.2870  177.6720  138.7590 C   0  0  0  0  0  2  0  0  0  0  0  0
  186.5970  177.9440  136.0940 C   0  0  0  0  0  3  0  0  0  0  0  0
  186.1540  176.6200  135.9990 C   0  0  0  0  0  0  0  0  0  0  0  0
  187.7590  175.9760  137.7020 C   0  0  0  0  0  3  0  0  0  0  0  0
  187.6160  178.2840  136.9880 C   0  0  0  0  0  3  0  0  0  0  0  0
  188.1980  177.3020  137.7960 C   0  0  0  0  0  0  0  0  0  0  0  0
  186.7410  175.6360  136.8070 C   0  0  0  0  0  3  0  0  0  0  0  0
  184.0220  177.2060  134.7590 C   0  0  0  0  0  1  0  0  0  0  0  0
  185.1130  176.2980  135.0730 N   0  0  0  0  0  2  0  0  0  0  0  0
  1  5  1  0  0  0  0
  1  6  2  0  0  0  0
  2 11  1  0  0  0  0
  3 16  1  0  0  0  0
  3 10  2  0  0  0  0
  4  7  1  0  0  0  0
  4  8  1  0  0  0  0
  7  9  1  0  0  0  0
  8  1  1  0  0  0  0
  9  5  2  0  0  0  0
 11 10  1  0  0  0  0
 11  7  2  0  0  0  0
 12  2  2  0  0  0  0
 12 15  1  0  0  0  0
 13 35  1  6  0  0  0
 13 14  1  0  0  0  0
 13  2  1  0  0  0  0
 14  3  1  0  0  0  0
 15  4  2  0  0  0  0
 16 17  1  1  0  0  0
 18 16  1  0  0  0  0
 19 18  1  0  0  0  0
 20 19  2  0  0  0  0
 21 19  1  0  0  0  0
 22 21  1  1  0  0  0
 22 25  1  0  0  0  0
 23 25  1  0  0  0  0
 24 26  1  0  0  0  0
 24 22  1  0  0  0  0
 25 28  1  1  0  0  0
 26 23  1  0  0  0  0
 27 32  1  0  0  0  0
 27 33  1  0  0  0  0
 28 27  1  0  0  0  0
 29 31  1  0  0  0  0
 30 29  1  0  0  0  0
 32 30  1  0  0  0  0
 33 31  1  0  0  0  0
 34 28  2  0  0  0  0
 36 39  1  0  0  0  0
 37 36  2  0  0  0  0
 37 41  1  0  0  0  0
 38 40  1  0  0  0  0
 39 40  2  0  0  0  0
 40 35  1  0  0  0  0
 41 38  2  0  0  0  0
 42 43  1  0  0  0  0
 43 37  1  0  0  0  0
M  END
>  <MODEL>
9

>  <REMARK>
 VINA RESULT:      -9.1      4.243      9.333
  Name = 
  8 active torsions:
  status: ('A' for Active; 'I' for Inactive)
    1  A    between atoms: C_1  and  C_34
    2  A    between atoms: C_1  and  C_35
    3  A    between atoms: C_2  and  N_6
    4  A    between atoms: C_2  and  C_13
    5  A    between atoms: C_3  and  C_4
    6  A    between atoms: C_3  and  C_12
    7  A    between atoms: C_14  and  C_22
    8  A    between atoms: C_19  and  N_37
                            x       y       z     vdW  Elec       q    Type
                         _______ _______ _______ _____ _____    ______ ____

>  <TORSDO>
F 8

$$$$
