=
 OpenBabel11052413533D

 27 30  0  0  1  0  0  0  0  0999 V2000
  189.6790  176.9730  144.0300 C   0  0  0  0  0  2  0  0  0  0  0  0
  187.5210  177.7550  141.6680 C   0  0  1  0  0  3  0  0  0  0  0  0
  186.7450  176.7230  143.6920 O   0  0  0  0  0  0  0  0  0  0  0  0
  187.0680  178.4340  139.2750 C   0  0  1  0  0  3  0  0  0  0  0  0
  187.1400  178.8930  140.7330 C   0  0  0  0  0  2  0  0  0  0  0  0
  191.8420  177.4940  141.9110 C   0  0  0  0  0  2  0  0  0  0  0  0
  188.9850  177.6640  141.7780 N   0  0  0  0  0  0  0  0  0  0  0  0
  187.0230  177.7400  147.3120 N   0  0  0  0  0  0  0  0  0  0  0  0
  189.7400  177.1780  140.6430 C   0  0  0  0  0  0  0  0  0  0  0  0
  188.3150  177.8600  147.4120 C   0  0  0  0  0  0  0  0  0  0  0  0
  189.6760  178.0980  143.0060 C   0  0  2  0  0  3  0  0  0  0  0  0
  188.4160  178.0280  138.6700 C   0  0  2  0  0  3  0  0  0  0  0  0
  188.7100  177.2610  145.1270 C   0  0  0  0  0  0  0  0  0  0  0  0
  186.8340  177.9490  143.0130 C   0  0  0  0  0  2  0  0  0  0  0  0
  186.3310  177.5670  146.0340 C   0  0  2  0  0  3  0  0  0  0  0  0
  186.1300  177.4100  139.1230 O   0  0  0  0  0  1  0  0  0  0  0  0
  188.9010  178.0970  148.6860 N   0  0  0  0  0  1  0  0  0  0  0  0
  191.0750  177.1410  140.6750 C   0  0  0  0  0  3  0  0  0  0  0  0
  189.1630  177.6860  146.2670 N   0  0  0  0  0  0  0  0  0  0  0  0
  189.0590  176.8170  139.3560 C   0  0  0  0  0  2  0  0  0  0  0  0
  187.2540  176.8720  145.0040 C   0  0  1  0  0  3  0  0  0  0  0  0
  191.1020  178.5620  142.7080 C   0  0  0  0  0  2  0  0  0  0  0  0
  188.9380  179.7780  137.5370 O   0  0  0  0  0  1  0  0  0  0  0  0
  189.2910  179.1170  138.6200 O   0  0  0  0  0  0  0  0  0  0  0  0
  185.8140  178.9230  145.5750 C   0  0  0  0  0  2  0  0  0  0  0  0
  184.0410  179.7610  143.8530 C   0  0  0  0  0  1  0  0  0  0  0  0
  184.0050  178.8710  145.4330 S   0  0  0  0  0  0  0  0  0  0  0  0
  1 13  1  0  0  0  0
  2  5  1  6  0  0  0
  2  7  1  0  0  0  0
  2 14  1  0  0  0  0
  4 16  1  1  0  0  0
  4  5  1  0  0  0  0
  6 22  1  0  0  0  0
  7 11  1  0  0  0  0
  8 10  2  0  0  0  0
  9 18  2  0  0  0  0
  9  7  1  0  0  0  0
 10 17  1  0  0  0  0
 11 22  1  6  0  0  0
 11  1  1  0  0  0  0
 12 24  1  1  0  0  0
 12  4  1  0  0  0  0
 12 20  1  0  0  0  0
 13 19  2  0  0  0  0
 14  3  1  0  0  0  0
 15 25  1  6  0  0  0
 15  8  1  0  0  0  0
 18  6  1  0  0  0  0
 19 10  1  0  0  0  0
 20  9  1  0  0  0  0
 21  3  1  6  0  0  0
 21 13  1  0  0  0  0
 21 15  1  0  0  0  0
 23 24  1  0  0  0  0
 26 27  1  0  0  0  0
 27 25  1  0  0  0  0
M  END
>  <MODEL>
1

>  <REMARK>
 VINA RESULT:      -7.0      0.000      0.000
  Name = 
  3 active torsions:
  status: ('A' for Active; 'I' for Inactive)
    1  A    between atoms: S_12  and  C_14
    2  A    between atoms: C_14  and  C_20
    3  A    between atoms: O_16  and  C_17
                            x       y       z     vdW  Elec       q    Type
                         _______ _______ _______ _____ _____    ______ ____

>  <TORSDO>
F 3

$$$$
=
 OpenBabel11052413533D

 27 30  0  0  1  0  0  0  0  0999 V2000
  188.3470  178.5560  141.3820 C   0  0  0  0  0  2  0  0  0  0  0  0
  186.8430  178.1910  144.2890 C   0  0  1  0  0  3  0  0  0  0  0  0
  185.7950  179.4910  142.5640 O   0  0  0  0  0  0  0  0  0  0  0  0
  186.9510  177.5110  146.7220 C   0  0  1  0  0  3  0  0  0  0  0  0
  186.4800  177.1290  145.3170 C   0  0  0  0  0  2  0  0  0  0  0  0
  190.8320  177.4100  142.7780 C   0  0  0  0  0  2  0  0  0  0  0  0
  188.1870  177.9310  143.7510 N   0  0  0  0  0  0  0  0  0  0  0  0
  184.7490  178.6400  139.0430 N   0  0  0  0  0  0  0  0  0  0  0  0
  189.3350  178.1550  144.6030 C   0  0  0  0  0  0  0  0  0  0  0  0
  185.8850  178.2160  138.5690 C   0  0  0  0  0  0  0  0  0  0  0  0
  188.3620  177.4110  142.3820 C   0  0  2  0  0  3  0  0  0  0  0  0
  188.4730  177.5430  146.8940 C   0  0  2  0  0  3  0  0  0  0  0  0
  187.0610  178.5730  140.6250 C   0  0  0  0  0  0  0  0  0  0  0  0
  185.7700  178.2440  143.2100 C   0  0  0  0  0  2  0  0  0  0  0  0
  184.5230  178.9040  140.4660 C   0  0  2  0  0  3  0  0  0  0  0  0
  186.3820  178.7210  147.1240 O   0  0  0  0  0  1  0  0  0  0  0  0
  185.9970  177.9140  137.1840 N   0  0  0  0  0  1  0  0  0  0  0  0
  190.5690  177.8690  144.1780 C   0  0  0  0  0  3  0  0  0  0  0  0
  187.0430  178.1160  139.4100 N   0  0  0  0  0  0  0  0  0  0  0  0
  189.1690  178.5990  146.0260 C   0  0  0  0  0  2  0  0  0  0  0  0
  185.8480  179.2960  141.1630 C   0  0  1  0  0  3  0  0  0  0  0  0
  189.6510  176.5990  142.2560 C   0  0  0  0  0  2  0  0  0  0  0  0
  190.1620  176.3020  147.3710 O   0  0  0  0  0  1  0  0  0  0  0  0
  189.0260  176.2740  146.7050 O   0  0  0  0  0  0  0  0  0  0  0  0
  183.8420  177.6910  141.0820 C   0  0  0  0  0  2  0  0  0  0  0  0
  181.2910  177.9600  140.6030 C   0  0  0  0  0  1  0  0  0  0  0  0
  182.6540  176.9920  139.9000 S   0  0  0  0  0  0  0  0  0  0  0  0
  2 14  1  6  0  0  0
  2  5  1  0  0  0  0
  3 14  1  0  0  0  0
  4 12  1  0  0  0  0
  4 16  1  6  0  0  0
  5  4  1  0  0  0  0
  6 18  1  0  0  0  0
  7  2  1  0  0  0  0
  7  9  1  0  0  0  0
  8 15  1  0  0  0  0
  9 20  1  0  0  0  0
 10  8  2  0  0  0  0
 10 19  1  0  0  0  0
 11  1  1  6  0  0  0
 11  7  1  0  0  0  0
 12 24  1  6  0  0  0
 13  1  1  0  0  0  0
 15 25  1  1  0  0  0
 15 21  1  0  0  0  0
 17 10  1  0  0  0  0
 18  9  2  0  0  0  0
 19 13  2  0  0  0  0
 20 12  1  0  0  0  0
 21 13  1  1  0  0  0
 21  3  1  0  0  0  0
 22 11  1  0  0  0  0
 22  6  1  0  0  0  0
 24 23  1  0  0  0  0
 27 26  1  0  0  0  0
 27 25  1  0  0  0  0
M  END
>  <MODEL>
2

>  <REMARK>
 VINA RESULT:      -6.8      2.946      6.201
  Name = 
  3 active torsions:
  status: ('A' for Active; 'I' for Inactive)
    1  A    between atoms: S_12  and  C_14
    2  A    between atoms: C_14  and  C_20
    3  A    between atoms: O_16  and  C_17
                            x       y       z     vdW  Elec       q    Type
                         _______ _______ _______ _____ _____    ______ ____

>  <TORSDO>
F 3

$$$$
=
 OpenBabel11052413533D

 27 30  0  0  1  0  0  0  0  0999 V2000
  188.2670  178.2430  145.8960 C   0  0  0  0  0  2  0  0  0  0  0  0
  186.7740  178.4290  142.9660 C   0  0  1  0  0  3  0  0  0  0  0  0
  189.1510  178.7340  143.1100 O   0  0  0  0  0  0  0  0  0  0  0  0
  184.6430  178.6410  141.6220 C   0  0  1  0  0  3  0  0  0  0  0  0
  185.7530  177.7040  142.1020 C   0  0  0  0  0  2  0  0  0  0  0  0
  185.4410  178.3840  147.0920 C   0  0  0  0  0  2  0  0  0  0  0  0
  186.3480  178.4070  144.3740 N   0  0  0  0  0  0  0  0  0  0  0  0
  191.9080  176.5180  144.4160 N   0  0  0  0  0  0  0  0  0  0  0  0
  185.2170  179.2180  144.7730 C   0  0  0  0  0  0  0  0  0  0  0  0
  191.4730  176.3090  145.6250 C   0  0  0  0  0  0  0  0  0  0  0  0
  187.0310  177.5430  145.3530 C   0  0  2  0  0  3  0  0  0  0  0  0
  183.7300  179.1660  142.7350 C   0  0  2  0  0  3  0  0  0  0  0  0
  189.5050  177.6400  145.3200 C   0  0  0  0  0  0  0  0  0  0  0  0
  188.1510  177.8150  142.7520 C   0  0  0  0  0  2  0  0  0  0  0  0
  191.1010  177.1550  143.3730 C   0  0  2  0  0  3  0  0  0  0  0  0
  185.1740  179.6980  140.8780 O   0  0  0  0  0  1  0  0  0  0  0  0
  192.2960  175.6180  146.5570 N   0  0  0  0  0  1  0  0  0  0  0  0
  184.7550  179.1780  146.0250 C   0  0  0  0  0  3  0  0  0  0  0  0
  190.2040  176.8270  146.0520 N   0  0  0  0  0  0  0  0  0  0  0  0
  184.4560  180.0340  143.7700 C   0  0  0  0  0  2  0  0  0  0  0  0
  190.0630  178.1170  143.9990 C   0  0  1  0  0  3  0  0  0  0  0  0
  186.0930  177.1430  146.4930 C   0  0  0  0  0  2  0  0  0  0  0  0
  181.9130  178.6750  143.7720 O   0  0  0  0  0  1  0  0  0  0  0  0
  183.0270  178.1210  143.3400 O   0  0  0  0  0  0  0  0  0  0  0  0
  190.4820  176.0670  142.5070 C   0  0  0  0  0  2  0  0  0  0  0  0
  192.0650  177.4900  140.9970 C   0  0  0  0  0  1  0  0  0  0  0  0
  190.5120  176.5810  140.7660 S   0  0  0  0  0  0  0  0  0  0  0  0
  2  5  1  6  0  0  0
  2  7  1  0  0  0  0
  4 16  1  1  0  0  0
  4  5  1  0  0  0  0
  4 12  1  0  0  0  0
  7  9  1  0  0  0  0
  7 11  1  0  0  0  0
  8 10  2  0  0  0  0
  9 18  2  0  0  0  0
 10 19  1  0  0  0  0
 10 17  1  0  0  0  0
 11  1  1  1  0  0  0
 11 22  1  0  0  0  0
 12 24  1  1  0  0  0
 12 20  1  0  0  0  0
 13  1  1  0  0  0  0
 13 19  2  0  0  0  0
 14  2  1  0  0  0  0
 14  3  1  0  0  0  0
 15 25  1  1  0  0  0
 15 21  1  0  0  0  0
 15  8  1  0  0  0  0
 18  6  1  0  0  0  0
 20  9  1  0  0  0  0
 21  3  1  6  0  0  0
 21 13  1  0  0  0  0
 22  6  1  0  0  0  0
 24 23  1  0  0  0  0
 27 26  1  0  0  0  0
 27 25  1  0  0  0  0
M  END
>  <MODEL>
3

>  <REMARK>
 VINA RESULT:      -6.6      2.948      5.588
  Name = 
  3 active torsions:
  status: ('A' for Active; 'I' for Inactive)
    1  A    between atoms: S_12  and  C_14
    2  A    between atoms: C_14  and  C_20
    3  A    between atoms: O_16  and  C_17
                            x       y       z     vdW  Elec       q    Type
                         _______ _______ _______ _____ _____    ______ ____

>  <TORSDO>
F 3

$$$$
=
 OpenBabel11052413533D

 27 30  0  0  1  0  0  0  0  0999 V2000
  189.4440  177.1850  138.8420 C   0  0  0  0  0  2  0  0  0  0  0  0
  187.0410  178.1220  140.8890 C   0  0  1  0  0  3  0  0  0  0  0  0
  188.7620  176.6440  141.6750 O   0  0  0  0  0  0  0  0  0  0  0  0
  184.7680  179.1740  141.2370 C   0  0  1  0  0  3  0  0  0  0  0  0
  186.2830  179.3590  141.3480 C   0  0  0  0  0  2  0  0  0  0  0  0
  187.6870  178.3520  136.6080 C   0  0  0  0  0  2  0  0  0  0  0  0
  187.2870  178.1920  139.4410 N   0  0  0  0  0  0  0  0  0  0  0  0
  192.5130  176.9950  141.8360 N   0  0  0  0  0  0  0  0  0  0  0  0
  186.1700  178.0220  138.5350 C   0  0  0  0  0  0  0  0  0  0  0  0
  192.7670  177.2520  140.5860 C   0  0  0  0  0  0  0  0  0  0  0  0
  188.6370  178.4710  138.9190 C   0  0  2  0  0  3  0  0  0  0  0  0
  184.2470  179.0560  139.8010 C   0  0  2  0  0  3  0  0  0  0  0  0
  190.4670  177.1430  139.9280 C   0  0  0  0  0  0  0  0  0  0  0  0
  188.3200  177.9770  141.7030 C   0  0  0  0  0  2  0  0  0  0  0  0
  191.1580  176.9800  142.3910 C   0  0  2  0  0  3  0  0  0  0  0  0
  184.3430  178.0890  142.0070 O   0  0  0  0  0  1  0  0  0  0  0  0
  194.1180  177.3180  140.1440 N   0  0  0  0  0  1  0  0  0  0  0  0
  186.3350  178.1440  137.2160 C   0  0  0  0  0  3  0  0  0  0  0  0
  191.7050  177.3990  139.6320 N   0  0  0  0  0  0  0  0  0  0  0  0
  184.7760  177.8260  139.0530 C   0  0  0  0  0  2  0  0  0  0  0  0
  190.1270  176.6070  141.3000 C   0  0  1  0  0  3  0  0  0  0  0  0
  188.5750  179.1540  137.5520 C   0  0  0  0  0  2  0  0  0  0  0  0
  183.2800  180.7300  138.8620 O   0  0  0  0  0  1  0  0  0  0  0  0
  184.4790  180.2340  139.0860 O   0  0  0  0  0  0  0  0  0  0  0  0
  190.8910  178.3240  143.0530 C   0  0  0  0  0  2  0  0  0  0  0  0
  191.4500  176.7570  145.0650 C   0  0  0  0  0  1  0  0  0  0  0  0
  190.2340  178.0610  144.7260 S   0  0  0  0  0  0  0  0  0  0  0  0
  1 11  1  0  0  0  0
  1 13  1  0  0  0  0
  2  5  1  1  0  0  0
  2 14  1  0  0  0  0
  3 14  1  0  0  0  0
  4  5  1  0  0  0  0
  4 16  1  1  0  0  0
  6 18  1  0  0  0  0
  6 22  1  0  0  0  0
  7  2  1  0  0  0  0
  8 15  1  0  0  0  0
  9 20  1  0  0  0  0
  9  7  1  0  0  0  0
 10  8  2  0  0  0  0
 11 22  1  6  0  0  0
 11  7  1  0  0  0  0
 12 24  1  6  0  0  0
 12  4  1  0  0  0  0
 15 25  1  6  0  0  0
 17 10  1  0  0  0  0
 18  9  2  0  0  0  0
 19 13  2  0  0  0  0
 19 10  1  0  0  0  0
 20 12  1  0  0  0  0
 21 13  1  6  0  0  0
 21  3  1  0  0  0  0
 21 15  1  0  0  0  0
 23 24  1  0  0  0  0
 25 27  1  0  0  0  0
 27 26  1  0  0  0  0
M  END
>  <MODEL>
4

>  <REMARK>
 VINA RESULT:      -6.6      3.660      5.533
  Name = 
  3 active torsions:
  status: ('A' for Active; 'I' for Inactive)
    1  A    between atoms: S_12  and  C_14
    2  A    between atoms: C_14  and  C_20
    3  A    between atoms: O_16  and  C_17
                            x       y       z     vdW  Elec       q    Type
                         _______ _______ _______ _____ _____    ______ ____

>  <TORSDO>
F 3

$$$$
=
 OpenBabel11052413533D

 27 30  0  0  1  0  0  0  0  0999 V2000
  183.3550  178.3310  143.7050 C   0  0  0  0  0  2  0  0  0  0  0  0
  185.9500  178.1900  141.6810 C   0  0  1  0  0  3  0  0  0  0  0  0
  183.7590  177.6820  140.8410 O   0  0  0  0  0  0  0  0  0  0  0  0
  188.4580  178.1260  141.3620 C   0  0  1  0  0  3  0  0  0  0  0  0
  187.1880  178.9760  141.2760 C   0  0  0  0  0  2  0  0  0  0  0  0
  185.4200  178.4750  145.9750 C   0  0  0  0  0  2  0  0  0  0  0  0
  185.7430  178.2910  143.1340 N   0  0  0  0  0  0  0  0  0  0  0  0
  180.5670  179.6850  140.7370 N   0  0  0  0  0  0  0  0  0  0  0  0
  186.6530  177.5950  144.0180 C   0  0  0  0  0  0  0  0  0  0  0  0
  180.4380  179.9670  142.0010 C   0  0  0  0  0  0  0  0  0  0  0  0
  184.6550  179.1210  143.6830 C   0  0  2  0  0  3  0  0  0  0  0  0
  188.8510  177.7170  142.7860 C   0  0  2  0  0  3  0  0  0  0  0  0
  182.4360  178.8060  142.6290 C   0  0  0  0  0  0  0  0  0  0  0  0
  184.7520  178.6740  140.8750 C   0  0  0  0  0  2  0  0  0  0  0  0
  181.7780  179.0910  140.1670 C   0  0  2  0  0  3  0  0  0  0  0  0
  188.3610  177.0050  140.5350 O   0  0  0  0  0  1  0  0  0  0  0  0
  179.2550  180.6110  142.4590 N   0  0  0  0  0  1  0  0  0  0  0  0
  186.5430  177.7120  145.3440 C   0  0  0  0  0  3  0  0  0  0  0  0
  181.4410  179.5750  142.9500 N   0  0  0  0  0  0  0  0  0  0  0  0
  187.8180  176.8200  143.4770 C   0  0  0  0  0  2  0  0  0  0  0  0
  182.5180  178.2420  141.2280 C   0  0  1  0  0  3  0  0  0  0  0  0
  184.9980  179.6360  145.0810 C   0  0  0  0  0  2  0  0  0  0  0  0
  190.0700  178.4100  144.4150 O   0  0  0  0  0  1  0  0  0  0  0  0
  189.1630  178.8370  143.5610 O   0  0  0  0  0  0  0  0  0  0  0  0
  182.6280  180.2030  139.5700 C   0  0  0  0  0  2  0  0  0  0  0  0
  181.4310  179.6560  137.3160 C   0  0  0  0  0  1  0  0  0  0  0  0
  181.6530  181.1300  138.3510 S   0  0  0  0  0  0  0  0  0  0  0  0
  2 14  1  6  0  0  0
  2  7  1  0  0  0  0
  3 14  1  0  0  0  0
  4 16  1  6  0  0  0
  4 12  1  0  0  0  0
  5  4  1  0  0  0  0
  5  2  1  0  0  0  0
  7 11  1  0  0  0  0
  7  9  1  0  0  0  0
  8 10  2  0  0  0  0
  9 18  2  0  0  0  0
 10 17  1  0  0  0  0
 10 19  1  0  0  0  0
 11  1  1  1  0  0  0
 11 22  1  0  0  0  0
 12 20  1  0  0  0  0
 12 24  1  1  0  0  0
 13 19  2  0  0  0  0
 13  1  1  0  0  0  0
 15 25  1  1  0  0  0
 15  8  1  0  0  0  0
 15 21  1  0  0  0  0
 18  6  1  0  0  0  0
 20  9  1  0  0  0  0
 21  3  1  6  0  0  0
 21 13  1  0  0  0  0
 22  6  1  0  0  0  0
 24 23  1  0  0  0  0
 26 27  1  0  0  0  0
 27 25  1  0  0  0  0
M  END
>  <MODEL>
5

>  <REMARK>
 VINA RESULT:      -6.5      4.153      6.387
  Name = 
  3 active torsions:
  status: ('A' for Active; 'I' for Inactive)
    1  A    between atoms: S_12  and  C_14
    2  A    between atoms: C_14  and  C_20
    3  A    between atoms: O_16  and  C_17
                            x       y       z     vdW  Elec       q    Type
                         _______ _______ _______ _____ _____    ______ ____

>  <TORSDO>
F 3

$$$$
=
 OpenBabel11052413533D

 27 30  0  0  1  0  0  0  0  0999 V2000
  191.2680  176.2630  142.4750 C   0  0  0  0  0  2  0  0  0  0  0  0
  188.6500  177.2650  140.7460 C   0  0  1  0  0  3  0  0  0  0  0  0
  188.3290  176.1400  142.8430 O   0  0  0  0  0  0  0  0  0  0  0  0
  187.6730  178.1050  138.5700 C   0  0  1  0  0  3  0  0  0  0  0  0
  188.1130  178.4720  139.9900 C   0  0  0  0  0  2  0  0  0  0  0  0
  192.8850  176.8340  139.9260 C   0  0  0  0  0  2  0  0  0  0  0  0
  190.0910  177.1150  140.4950 N   0  0  0  0  0  0  0  0  0  0  0  0
  189.5130  176.9230  146.3360 N   0  0  0  0  0  0  0  0  0  0  0  0
  190.5290  176.6720  139.1890 C   0  0  0  0  0  0  0  0  0  0  0  0
  190.7960  176.9900  146.1270 C   0  0  0  0  0  0  0  0  0  0  0  0
  191.0760  177.4480  141.5410 C   0  0  2  0  0  3  0  0  0  0  0  0
  188.8160  177.6890  137.6390 C   0  0  2  0  0  3  0  0  0  0  0  0
  190.6040  176.5190  143.7870 C   0  0  0  0  0  0  0  0  0  0  0  0
  188.3150  177.4020  142.2250 C   0  0  0  0  0  2  0  0  0  0  0  0
  188.5280  176.8530  145.2550 C   0  0  2  0  0  3  0  0  0  0  0  0
  186.6760  177.1270  138.5970 O   0  0  0  0  0  1  0  0  0  0  0  0
  191.6810  177.1280  147.2330 N   0  0  0  0  0  1  0  0  0  0  0  0
  191.8290  176.5850  138.8960 C   0  0  0  0  0  3  0  0  0  0  0  0
  191.3370  176.8560  144.8040 N   0  0  0  0  0  0  0  0  0  0  0  0
  189.5430  176.4160  138.0870 C   0  0  0  0  0  2  0  0  0  0  0  0
  189.1440  176.1900  143.9990 C   0  0  1  0  0  3  0  0  0  0  0  0
  192.4110  177.8780  140.9310 C   0  0  0  0  0  2  0  0  0  0  0  0
  188.9370  179.7930  137.2190 O   0  0  0  0  0  1  0  0  0  0  0  0
  189.7060  178.7470  137.4350 O   0  0  0  0  0  0  0  0  0  0  0  0
  187.9850  178.2530  145.0040 C   0  0  0  0  0  2  0  0  0  0  0  0
  186.3050  178.5970  146.9710 C   0  0  0  0  0  1  0  0  0  0  0  0
  186.1790  178.2500  145.1950 S   0  0  0  0  0  0  0  0  0  0  0  0
  1 13  1  0  0  0  0
  2  5  1  6  0  0  0
  2 14  1  0  0  0  0
  4 16  1  1  0  0  0
  4  5  1  0  0  0  0
  6 22  1  0  0  0  0
  7  2  1  0  0  0  0
  7 11  1  0  0  0  0
  9  7  1  0  0  0  0
 10  8  2  0  0  0  0
 10 17  1  0  0  0  0
 11 22  1  6  0  0  0
 11  1  1  0  0  0  0
 12 24  1  1  0  0  0
 12 20  1  0  0  0  0
 12  4  1  0  0  0  0
 13 21  1  0  0  0  0
 13 19  2  0  0  0  0
 14  3  1  0  0  0  0
 15 25  1  6  0  0  0
 15  8  1  0  0  0  0
 18  9  2  0  0  0  0
 18  6  1  0  0  0  0
 19 10  1  0  0  0  0
 20  9  1  0  0  0  0
 21  3  1  6  0  0  0
 21 15  1  0  0  0  0
 23 24  1  0  0  0  0
 25 27  1  0  0  0  0
 27 26  1  0  0  0  0
M  END
>  <MODEL>
6

>  <REMARK>
 VINA RESULT:      -6.4      1.677      2.169
  Name = 
  3 active torsions:
  status: ('A' for Active; 'I' for Inactive)
    1  A    between atoms: S_12  and  C_14
    2  A    between atoms: C_14  and  C_20
    3  A    between atoms: O_16  and  C_17
                            x       y       z     vdW  Elec       q    Type
                         _______ _______ _______ _____ _____    ______ ____

>  <TORSDO>
F 3

$$$$
=
 OpenBabel11052413533D

 27 30  0  0  1  0  0  0  0  0999 V2000
  190.8000  177.4580  141.5710 C   0  0  0  0  0  2  0  0  0  0  0  0
  187.8810  178.0050  142.9930 C   0  0  1  0  0  3  0  0  0  0  0  0
  188.3630  178.9860  140.8560 O   0  0  0  0  0  0  0  0  0  0  0  0
  186.4140  177.9160  145.0510 C   0  0  1  0  0  3  0  0  0  0  0  0
  186.7460  177.2780  143.7000 C   0  0  0  0  0  2  0  0  0  0  0  0
  191.6690  176.3510  144.3020 C   0  0  0  0  0  2  0  0  0  0  0  0
  189.1750  177.4430  143.4110 N   0  0  0  0  0  0  0  0  0  0  0  0
  189.3250  177.4700  137.5400 N   0  0  0  0  0  0  0  0  0  0  0  0
  189.6490  177.7060  144.7530 C   0  0  0  0  0  0  0  0  0  0  0  0
  190.3780  176.7950  137.9010 C   0  0  0  0  0  0  0  0  0  0  0  0
  189.9560  176.5930  142.4950 C   0  0  2  0  0  3  0  0  0  0  0  0
  187.5190  177.7810  146.1050 C   0  0  2  0  0  3  0  0  0  0  0  0
  190.2250  177.4680  140.1940 C   0  0  0  0  0  0  0  0  0  0  0  0
  187.6640  177.9440  141.4870 C   0  0  0  0  0  2  0  0  0  0  0  0
  188.4080  178.0940  138.4960 C   0  0  2  0  0  3  0  0  0  0  0  0
  186.0450  179.2530  144.8910 O   0  0  0  0  0  1  0  0  0  0  0  0
  191.1760  176.1590  136.9100 N   0  0  0  0  0  1  0  0  0  0  0  0
  190.7850  177.1620  145.1960 C   0  0  0  0  0  3  0  0  0  0  0  0
  190.7850  176.7410  139.2760 N   0  0  0  0  0  0  0  0  0  0  0  0
  188.8220  178.4940  145.7250 C   0  0  0  0  0  2  0  0  0  0  0  0
  189.1500  178.4570  139.8050 C   0  0  1  0  0  3  0  0  0  0  0  0
  190.8360  175.6070  143.2640 C   0  0  0  0  0  2  0  0  0  0  0  0
  188.2680  176.4720  147.6360 O   0  0  0  0  0  1  0  0  0  0  0  0
  187.7400  176.4400  146.4300 O   0  0  0  0  0  0  0  0  0  0  0  0
  187.2190  177.1660  138.7030 C   0  0  0  0  0  2  0  0  0  0  0  0
  185.0250  178.5710  138.8590 C   0  0  0  0  0  1  0  0  0  0  0  0
  185.8800  177.6270  137.5670 S   0  0  0  0  0  0  0  0  0  0  0  0
  2 14  1  6  0  0  0
  2  7  1  0  0  0  0
  2  5  1  0  0  0  0
  3 14  1  0  0  0  0
  4 16  1  6  0  0  0
  4 12  1  0  0  0  0
  5  4  1  0  0  0  0
  6 18  1  0  0  0  0
  7  9  1  0  0  0  0
  8 10  2  0  0  0  0
  8 15  1  0  0  0  0
  9 18  2  0  0  0  0
  9 20  1  0  0  0  0
 10 19  1  0  0  0  0
 11  1  1  1  0  0  0
 11 22  1  0  0  0  0
 11  7  1  0  0  0  0
 12 24  1  6  0  0  0
 13  1  1  0  0  0  0
 15 25  1  1  0  0  0
 15 21  1  0  0  0  0
 17 10  1  0  0  0  0
 19 13  2  0  0  0  0
 20 12  1  0  0  0  0
 21 13  1  1  0  0  0
 21  3  1  0  0  0  0
 22  6  1  0  0  0  0
 24 23  1  0  0  0  0
 27 25  1  0  0  0  0
 27 26  1  0  0  0  0
M  END
>  <MODEL>
7

>  <REMARK>
 VINA RESULT:      -6.4      2.751      6.434
  Name = 
  3 active torsions:
  status: ('A' for Active; 'I' for Inactive)
    1  A    between atoms: S_12  and  C_14
    2  A    between atoms: C_14  and  C_20
    3  A    between atoms: O_16  and  C_17
                            x       y       z     vdW  Elec       q    Type
                         _______ _______ _______ _____ _____    ______ ____

>  <TORSDO>
F 3

$$$$
=
 OpenBabel11052413533D

 27 30  0  0  1  0  0  0  0  0999 V2000
  186.2220  177.5440  146.0030 C   0  0  0  0  0  2  0  0  0  0  0  0
  189.2380  177.0330  144.7810 C   0  0  1  0  0  3  0  0  0  0  0  0
  187.3130  176.6000  143.4130 O   0  0  0  0  0  0  0  0  0  0  0  0
  191.7230  176.7670  145.1660 C   0  0  1  0  0  3  0  0  0  0  0  0
  190.6060  177.6910  144.6740 C   0  0  0  0  0  2  0  0  0  0  0  0
  187.6120  177.7610  148.7340 C   0  0  0  0  0  2  0  0  0  0  0  0
  188.6620  177.2860  146.1110 N   0  0  0  0  0  0  0  0  0  0  0  0
  184.4620  178.7990  142.2950 N   0  0  0  0  0  0  0  0  0  0  0  0
  189.2350  176.6160  147.2580 C   0  0  0  0  0  0  0  0  0  0  0  0
  184.0280  179.2080  143.4520 C   0  0  0  0  0  0  0  0  0  0  0  0
  187.5480  178.2370  146.2790 C   0  0  2  0  0  3  0  0  0  0  0  0
  191.6840  176.4690  146.6680 C   0  0  2  0  0  3  0  0  0  0  0  0
  185.6710  177.9770  144.6850 C   0  0  0  0  0  0  0  0  0  0  0  0
  188.3490  177.5200  143.6450 C   0  0  0  0  0  2  0  0  0  0  0  0
  185.7210  178.0710  142.1230 C   0  0  2  0  0  3  0  0  0  0  0  0
  191.7480  175.5820  144.4270 O   0  0  0  0  0  1  0  0  0  0  0  0
  182.8300  179.9720  143.5220 N   0  0  0  0  0  1  0  0  0  0  0  0
  188.7870  176.8660  148.4910 C   0  0  0  0  0  3  0  0  0  0  0  0
  184.7020  178.8400  144.6650 N   0  0  0  0  0  0  0  0  0  0  0  0
  190.4260  175.7150  147.1140 C   0  0  0  0  0  2  0  0  0  0  0  0
  186.0710  177.2790  143.4050 C   0  0  1  0  0  3  0  0  0  0  0  0
  187.5520  178.8570  147.6770 C   0  0  0  0  0  2  0  0  0  0  0  0
  192.3800  177.2160  148.5600 O   0  0  0  0  0  1  0  0  0  0  0  0
  191.8800  177.6340  147.4150 O   0  0  0  0  0  0  0  0  0  0  0  0
  186.7990  179.0610  141.7020 C   0  0  0  0  0  2  0  0  0  0  0  0
  186.2400  178.3630  139.2500 C   0  0  0  0  0  1  0  0  0  0  0  0
  187.7250  178.3910  140.2910 S   0  0  0  0  0  0  0  0  0  0  0  0
  2 14  1  6  0  0  0
  2  7  1  0  0  0  0
  3 14  1  0  0  0  0
  4 16  1  6  0  0  0
  4 12  1  0  0  0  0
  5  2  1  0  0  0  0
  5  4  1  0  0  0  0
  7 11  1  0  0  0  0
  7  9  1  0  0  0  0
  8 10  2  0  0  0  0
  9 18  2  0  0  0  0
 10 17  1  0  0  0  0
 10 19  1  0  0  0  0
 11  1  1  1  0  0  0
 11 22  1  0  0  0  0
 12 20  1  0  0  0  0
 12 24  1  1  0  0  0
 13  1  1  0  0  0  0
 15 25  1  1  0  0  0
 15  8  1  0  0  0  0
 15 21  1  0  0  0  0
 18  6  1  0  0  0  0
 19 13  2  0  0  0  0
 20  9  1  0  0  0  0
 21  3  1  1  0  0  0
 21 13  1  0  0  0  0
 22  6  1  0  0  0  0
 24 23  1  0  0  0  0
 26 27  1  0  0  0  0
 27 25  1  0  0  0  0
M  END
>  <MODEL>
8

>  <REMARK>
 VINA RESULT:      -6.3      3.253      6.299
  Name = 
  3 active torsions:
  status: ('A' for Active; 'I' for Inactive)
    1  A    between atoms: S_12  and  C_14
    2  A    between atoms: C_14  and  C_20
    3  A    between atoms: O_16  and  C_17
                            x       y       z     vdW  Elec       q    Type
                         _______ _______ _______ _____ _____    ______ ____

>  <TORSDO>
F 3

$$$$
=
 OpenBabel11052413533D

 27 30  0  0  1  0  0  0  0  0999 V2000
  182.6580  179.7070  144.0060 C   0  0  0  0  0  2  0  0  0  0  0  0
  183.1130  178.4360  141.0020 C   0  0  1  0  0  3  0  0  0  0  0  0
  184.9740  179.3850  142.1850 O   0  0  0  0  0  0  0  0  0  0  0  0
  182.1360  177.5860  138.8300 C   0  0  1  0  0  3  0  0  0  0  0  0
  182.7810  177.2080  140.1650 C   0  0  0  0  0  2  0  0  0  0  0  0
  179.6550  179.5170  143.3830 C   0  0  0  0  0  2  0  0  0  0  0  0
  181.9570  178.8060  141.8320 N   0  0  0  0  0  0  0  0  0  0  0  0
  186.5080  178.5890  145.5350 N   0  0  0  0  0  0  0  0  0  0  0  0
  180.7920  179.3780  141.1900 C   0  0  0  0  0  0  0  0  0  0  0  0
  185.4610  178.7190  146.2970 C   0  0  0  0  0  0  0  0  0  0  0  0
  181.9640  178.5600  143.2850 C   0  0  2  0  0  3  0  0  0  0  0  0
  180.7440  178.2130  138.9520 C   0  0  2  0  0  3  0  0  0  0  0  0
  184.0090  179.2860  144.4800 C   0  0  0  0  0  0  0  0  0  0  0  0
  184.3710  178.1710  141.8180 C   0  0  0  0  0  2  0  0  0  0  0  0
  186.4390  178.5760  144.0730 C   0  0  2  0  0  3  0  0  0  0  0  0
  182.9850  178.4070  138.0840 O   0  0  0  0  0  1  0  0  0  0  0  0
  185.6090  178.6490  147.7100 N   0  0  0  0  0  1  0  0  0  0  0  0
  179.6960  179.6680  141.8950 C   0  0  0  0  0  3  0  0  0  0  0  0
  184.1710  179.0030  145.7360 N   0  0  0  0  0  0  0  0  0  0  0  0
  180.7350  179.5510  139.7010 C   0  0  0  0  0  2  0  0  0  0  0  0
  185.2180  179.3890  143.5790 C   0  0  1  0  0  3  0  0  0  0  0  0
  180.5470  178.3620  143.8240 C   0  0  0  0  0  2  0  0  0  0  0  0
  179.7520  176.3360  138.6170 O   0  0  0  0  0  1  0  0  0  0  0  0
  179.8330  177.3080  139.5030 O   0  0  0  0  0  0  0  0  0  0  0  0
  186.4410  177.1290  143.6010 C   0  0  0  0  0  2  0  0  0  0  0  0
  188.3010  177.8840  141.9330 C   0  0  0  0  0  1  0  0  0  0  0  0
  188.1400  176.6140  143.2180 S   0  0  0  0  0  0  0  0  0  0  0  0
  1 13  1  0  0  0  0
  2  5  1  1  0  0  0
  2 14  1  0  0  0  0
  2  7  1  0  0  0  0
  4 16  1  1  0  0  0
  4 12  1  0  0  0  0
  4  5  1  0  0  0  0
  6 22  1  0  0  0  0
  7 11  1  0  0  0  0
  8 10  2  0  0  0  0
  9  7  1  0  0  0  0
  9 18  2  0  0  0  0
 10 17  1  0  0  0  0
 11 22  1  1  0  0  0
 11  1  1  0  0  0  0
 12 24  1  1  0  0  0
 12 20  1  0  0  0  0
 13 19  2  0  0  0  0
 14  3  1  0  0  0  0
 15 25  1  1  0  0  0
 15  8  1  0  0  0  0
 18  6  1  0  0  0  0
 19 10  1  0  0  0  0
 20  9  1  0  0  0  0
 21  3  1  6  0  0  0
 21 15  1  0  0  0  0
 21 13  1  0  0  0  0
 23 24  1  0  0  0  0
 26 27  1  0  0  0  0
 27 25  1  0  0  0  0
M  END
>  <MODEL>
9

>  <REMARK>
 VINA RESULT:      -6.2      3.949      6.780
  Name = 
  3 active torsions:
  status: ('A' for Active; 'I' for Inactive)
    1  A    between atoms: S_12  and  C_14
    2  A    between atoms: C_14  and  C_20
    3  A    between atoms: O_16  and  C_17
                            x       y       z     vdW  Elec       q    Type
                         _______ _______ _______ _____ _____    ______ ____

>  <TORSDO>
F 3

$$$$
