=
 OpenBabel11052414313D

 32 38  0  0  1  0  0  0  0  0999 V2000
  191.1900  178.1040  141.8920 C   0  0  1  0  0  3  0  0  0  0  0  0
  189.4150  177.3630  140.4880 C   0  0  1  0  0  0  0  0  0  0  0  0
  189.0260  177.2540  146.0900 C   0  0  1  0  0  3  0  0  0  0  0  0
  191.9290  177.4860  142.9810 N   0  0  0  0  0  2  0  0  0  0  0  0
  190.8320  177.0430  140.8640 C   0  0  1  0  0  3  0  0  0  0  0  0
  188.8620  176.8770  139.2020 C   0  0  2  0  0  3  0  0  0  0  0  0
  187.9200  176.4790  146.7870 C   0  0  0  0  0  1  0  0  0  0  0  0
  188.6940  177.9650  141.6760 C   0  0  1  0  0  3  0  0  0  0  0  0
  189.8900  176.0860  138.3550 C   0  0  1  0  0  3  0  0  0  0  0  0
  190.4130  176.6060  146.3560 C   0  0  1  0  0  3  0  0  0  0  0  0
  191.1320  177.4930  144.1470 C   0  0  0  0  0  0  0  0  0  0  0  0
  189.3210  178.2040  139.3590 O   0  0  0  0  0  0  0  0  0  0  0  0
  191.7240  177.0160  139.7100 N   0  0  0  0  0  0  0  0  0  0  0  0
  191.3950  176.7400  145.2140 C   0  0  0  0  0  3  0  0  0  0  0  0
  188.7020  177.4560  144.6020 C   0  0  2  0  0  3  0  0  0  0  0  0
  188.5410  176.2150  143.9690 O   0  0  0  0  0  1  0  0  0  0  0  0
  189.8380  178.5970  142.4890 C   0  0  1  0  0  3  0  0  0  0  0  0
  189.4540  176.2140  136.9040 C   0  0  0  0  0  1  0  0  0  0  0  0
  189.8680  178.2400  143.9870 C   0  0  2  0  0  3  0  0  0  0  0  0
  191.3510  176.5210  138.5640 C   0  0  0  0  0  0  0  0  0  0  0  0
  185.3020  178.8890  140.4220 C   0  0  0  0  0  2  0  0  0  0  0  0
  185.1780  179.2720  141.8930 C   0  0  2  0  0  3  0  0  0  0  0  0
  186.5650  179.2170  142.5090 C   0  0  2  0  0  3  0  0  0  0  0  0
  187.5290  178.9220  141.3540 C   0  0  2  0  0  3  0  0  0  0  0  0
  185.5620  178.1040  142.7790 C   0  0  0  0  0  2  0  0  0  0  0  0
  186.7310  178.4600  140.1540 C   0  0  0  0  0  2  0  0  0  0  0  0
  192.3290  176.3830  137.5710 O   0  0  0  0  0  0  0  0  0  0  0  0
  193.4850  175.5700  137.7140 C   0  0  0  0  0  2  0  0  0  0  0  0
  193.1280  174.1280  137.4220 C   0  0  0  0  0  1  0  0  0  0  0  0
  191.0390  177.1840  147.6150 C   0  0  0  0  0  2  0  0  0  0  0  0
  192.9590  177.0410  149.0100 O   0  0  0  0  0  1  0  0  0  0  0  0
  192.2100  176.3350  148.0720 C   0  0  0  0  0  2  0  0  0  0  0  0
  1 17  1  0  0  0  0
  1  4  1  1  0  0  0
  2 12  1  6  0  0  0
  2  5  1  0  0  0  0
  2  8  1  0  0  0  0
  3 10  1  0  0  0  0
  3  7  1  6  0  0  0
  4 11  1  0  0  0  0
  5 13  1  6  0  0  0
  5  1  1  0  0  0  0
  6 12  1  6  0  0  0
  6  2  1  0  0  0  0
  8 24  1  6  0  0  0
  8 17  1  0  0  0  0
  9 18  1  6  0  0  0
  9 20  1  0  0  0  0
  9  6  1  0  0  0  0
 10 30  1  1  0  0  0
 11 14  2  0  0  0  0
 14 10  1  0  0  0  0
 15 16  1  6  0  0  0
 15  3  1  0  0  0  0
 17 19  1  0  0  0  0
 19 11  1  0  0  0  0
 19 15  1  0  0  0  0
 20 13  2  0  0  0  0
 21 22  1  0  0  0  0
 22 23  1  0  0  0  0
 22 25  1  0  0  0  0
 23 25  1  0  0  0  0
 24 23  1  0  0  0  0
 26 21  1  0  0  0  0
 26 24  1  0  0  0  0
 27 28  1  0  0  0  0
 27 20  1  0  0  0  0
 29 28  1  0  0  0  0
 30 32  1  0  0  0  0
 32 31  1  0  0  0  0
M  END
>  <MODEL>
1

>  <REMARK>
 VINA RESULT:      -7.5      0.000      0.000
  Name = 
  5 active torsions:
  status: ('A' for Active; 'I' for Inactive)
    1  A    between atoms: C_10  and  C_28
    2  A    between atoms: O_14  and  C_21
    3  A    between atoms: O_14  and  C_29
    4  A    between atoms: C_15  and  C_19
    5  A    between atoms: C_19  and  C_26
                            x       y       z     vdW  Elec       q    Type
                         _______ _______ _______ _____ _____    ______ ____

>  <TORSDO>
F 5

$$$$
=
 OpenBabel11052414313D

 32 38  0  0  1  0  0  0  0  0999 V2000
  190.8620  178.1700  141.8810 C   0  0  1  0  0  3  0  0  0  0  0  0
  189.3660  177.3030  140.2440 C   0  0  1  0  0  0  0  0  0  0  0  0
  188.0880  177.3600  145.7120 C   0  0  1  0  0  3  0  0  0  0  0  0
  191.4410  177.6230  143.0970 N   0  0  0  0  0  2  0  0  0  0  0  0
  190.7170  177.0600  140.8520 C   0  0  1  0  0  3  0  0  0  0  0  0
  189.0470  176.7500  138.9070 C   0  0  2  0  0  3  0  0  0  0  0  0
  186.9160  176.5590  146.2540 C   0  0  0  0  0  1  0  0  0  0  0  0
  188.4410  177.9100  141.2760 C   0  0  1  0  0  3  0  0  0  0  0  0
  190.2280  175.9800  138.2650 C   0  0  1  0  0  3  0  0  0  0  0  0
  189.4390  176.7850  146.2210 C   0  0  1  0  0  3  0  0  0  0  0  0
  190.4670  177.6320  144.1210 C   0  0  0  0  0  0  0  0  0  0  0  0
  189.4210  178.1010  139.0810 O   0  0  0  0  0  0  0  0  0  0  0  0
  191.7820  177.0370  139.8570 N   0  0  0  0  0  0  0  0  0  0  0  0
  190.5860  176.9260  145.2450 C   0  0  0  0  0  3  0  0  0  0  0  0
  187.9990  177.4980  144.1840 C   0  0  2  0  0  3  0  0  0  0  0  0
  187.9920  176.2310  143.5840 O   0  0  0  0  0  1  0  0  0  0  0  0
  189.4130  178.6200  142.2360 C   0  0  1  0  0  3  0  0  0  0  0  0
  190.0260  176.0400  136.7600 C   0  0  0  0  0  1  0  0  0  0  0  0
  189.2160  178.3140  143.7320 C   0  0  2  0  0  3  0  0  0  0  0  0
  191.6180  176.4880  138.6860 C   0  0  0  0  0  0  0  0  0  0  0  0
  185.1510  178.6160  139.6610 C   0  0  0  0  0  2  0  0  0  0  0  0
  184.9220  179.2080  141.0470 C   0  0  2  0  0  3  0  0  0  0  0  0
  186.2610  179.2540  141.7630 C   0  0  2  0  0  3  0  0  0  0  0  0
  187.3050  178.8010  140.7360 C   0  0  2  0  0  3  0  0  0  0  0  0
  185.2380  178.1840  142.1190 C   0  0  0  0  0  2  0  0  0  0  0  0
  186.5950  178.1640  139.5620 C   0  0  0  0  0  2  0  0  0  0  0  0
  192.7480  176.3620  137.8680 O   0  0  0  0  0  0  0  0  0  0  0  0
  193.7260  175.3450  138.0290 C   0  0  0  0  0  2  0  0  0  0  0  0
  193.2930  174.1040  137.2790 C   0  0  0  0  0  1  0  0  0  0  0  0
  189.8320  177.4330  147.5400 C   0  0  0  0  0  2  0  0  0  0  0  0
  188.2000  178.0220  149.1630 O   0  0  0  0  0  1  0  0  0  0  0  0
  188.7870  178.4440  147.9740 C   0  0  0  0  0  2  0  0  0  0  0  0
  1 17  1  0  0  0  0
  1  4  1  1  0  0  0
  2 12  1  6  0  0  0
  2  5  1  0  0  0  0
  2  8  1  0  0  0  0
  3 10  1  0  0  0  0
  3  7  1  6  0  0  0
  4 11  1  0  0  0  0
  5 13  1  6  0  0  0
  5  1  1  0  0  0  0
  6 12  1  6  0  0  0
  6  2  1  0  0  0  0
  8 24  1  6  0  0  0
  8 17  1  0  0  0  0
  9 18  1  6  0  0  0
  9 20  1  0  0  0  0
  9  6  1  0  0  0  0
 10 30  1  1  0  0  0
 11 14  2  0  0  0  0
 14 10  1  0  0  0  0
 15 16  1  6  0  0  0
 15  3  1  0  0  0  0
 17 19  1  0  0  0  0
 19 11  1  0  0  0  0
 19 15  1  0  0  0  0
 20 13  2  0  0  0  0
 21 22  1  0  0  0  0
 22 23  1  0  0  0  0
 22 25  1  0  0  0  0
 23 25  1  0  0  0  0
 24 23  1  0  0  0  0
 26 21  1  0  0  0  0
 26 24  1  0  0  0  0
 27 28  1  0  0  0  0
 27 20  1  0  0  0  0
 29 28  1  0  0  0  0
 30 32  1  0  0  0  0
 32 31  1  0  0  0  0
M  END
>  <MODEL>
2

>  <REMARK>
 VINA RESULT:      -7.4      1.167      1.291
  Name = 
  5 active torsions:
  status: ('A' for Active; 'I' for Inactive)
    1  A    between atoms: C_10  and  C_28
    2  A    between atoms: O_14  and  C_21
    3  A    between atoms: O_14  and  C_29
    4  A    between atoms: C_15  and  C_19
    5  A    between atoms: C_19  and  C_26
                            x       y       z     vdW  Elec       q    Type
                         _______ _______ _______ _____ _____    ______ ____

>  <TORSDO>
F 5

$$$$
=
 OpenBabel11052414313D

 32 38  0  0  1  0  0  0  0  0999 V2000
  192.2670  177.5530  139.8280 C   0  0  1  0  0  3  0  0  0  0  0  0
  191.3680  175.9710  138.2920 C   0  0  1  0  0  0  0  0  0  0  0  0
  188.7380  177.3060  143.0710 C   0  0  1  0  0  3  0  0  0  0  0  0
  192.5820  177.5030  141.2460 N   0  0  0  0  0  2  0  0  0  0  0  0
  192.5380  176.1930  139.2060 C   0  0  1  0  0  3  0  0  0  0  0  0
  191.4780  175.0100  137.1700 C   0  0  2  0  0  3  0  0  0  0  0  0
  187.5830  176.4680  143.5940 C   0  0  0  0  0  1  0  0  0  0  0  0
  190.1370  176.6420  138.8640 C   0  0  1  0  0  3  0  0  0  0  0  0
  192.8760  174.3490  137.0650 C   0  0  1  0  0  3  0  0  0  0  0  0
  189.9770  177.1890  144.0000 C   0  0  1  0  0  3  0  0  0  0  0  0
  191.3870  177.6000  141.9930 C   0  0  0  0  0  0  0  0  0  0  0  0
  191.6120  176.4020  136.9710 O   0  0  0  0  0  0  0  0  0  0  0  0
  193.8160  176.1090  138.5090 N   0  0  0  0  0  0  0  0  0  0  0  0
  191.3070  177.2810  143.2850 C   0  0  0  0  0  3  0  0  0  0  0  0
  189.0250  176.9860  141.5960 C   0  0  2  0  0  3  0  0  0  0  0  0
  189.3400  175.6280  141.4490 O   0  0  0  0  0  1  0  0  0  0  0  0
  190.7290  177.7780  139.7180 C   0  0  1  0  0  3  0  0  0  0  0  0
  193.0600  173.9390  135.6130 C   0  0  0  0  0  1  0  0  0  0  0  0
  190.1980  177.8730  141.1600 C   0  0  2  0  0  3  0  0  0  0  0  0
  194.0310  175.2300  137.5710 C   0  0  0  0  0  0  0  0  0  0  0  0
  186.7410  176.7320  137.3180 C   0  0  0  0  0  2  0  0  0  0  0  0
  186.8930  178.1830  137.7610 C   0  0  2  0  0  3  0  0  0  0  0  0
  188.3390  178.3970  138.1730 C   0  0  2  0  0  3  0  0  0  0  0  0
  189.0690  177.0900  137.8470 C   0  0  2  0  0  3  0  0  0  0  0  0
  187.2540  178.2530  139.2320 C   0  0  0  0  0  2  0  0  0  0  0  0
  188.0460  176.0070  137.5850 C   0  0  0  0  0  2  0  0  0  0  0  0
  195.3400  175.1130  137.0840 O   0  0  0  0  0  0  0  0  0  0  0  0
  196.3960  174.5010  137.8080 C   0  0  0  0  0  2  0  0  0  0  0  0
  195.9320  173.1630  138.3440 C   0  0  0  0  0  1  0  0  0  0  0  0
  189.9300  178.2490  145.0900 C   0  0  0  0  0  2  0  0  0  0  0  0
  188.3220  177.8910  146.8030 O   0  0  0  0  0  1  0  0  0  0  0  0
  189.6390  177.6200  146.4390 C   0  0  0  0  0  2  0  0  0  0  0  0
  1  4  1  1  0  0  0
  2 12  1  6  0  0  0
  2  8  1  0  0  0  0
  2  5  1  0  0  0  0
  3  7  1  1  0  0  0
  3 10  1  0  0  0  0
  4 11  1  0  0  0  0
  5 13  1  6  0  0  0
  5  1  1  0  0  0  0
  6 12  1  6  0  0  0
  6  2  1  0  0  0  0
  8 24  1  6  0  0  0
  8 17  1  0  0  0  0
  9 18  1  6  0  0  0
  9  6  1  0  0  0  0
  9 20  1  0  0  0  0
 10 30  1  1  0  0  0
 11 14  2  0  0  0  0
 14 10  1  0  0  0  0
 15 16  1  1  0  0  0
 15  3  1  0  0  0  0
 17  1  1  0  0  0  0
 17 19  1  0  0  0  0
 19 15  1  0  0  0  0
 19 11  1  0  0  0  0
 20 13  2  0  0  0  0
 21 26  1  0  0  0  0
 21 22  1  0  0  0  0
 22 23  1  0  0  0  0
 22 25  1  0  0  0  0
 23 25  1  0  0  0  0
 24 23  1  0  0  0  0
 26 24  1  0  0  0  0
 27 20  1  0  0  0  0
 27 28  1  0  0  0  0
 28 29  1  0  0  0  0
 30 32  1  0  0  0  0
 32 31  1  0  0  0  0
M  END
>  <MODEL>
3

>  <REMARK>
 VINA RESULT:      -7.1      2.045      3.399
  Name = 
  5 active torsions:
  status: ('A' for Active; 'I' for Inactive)
    1  A    between atoms: C_10  and  C_28
    2  A    between atoms: O_14  and  C_21
    3  A    between atoms: O_14  and  C_29
    4  A    between atoms: C_15  and  C_19
    5  A    between atoms: C_19  and  C_26
                            x       y       z     vdW  Elec       q    Type
                         _______ _______ _______ _____ _____    ______ ____

>  <TORSDO>
F 5

$$$$
=
 OpenBabel11052414313D

 32 38  0  0  1  0  0  0  0  0999 V2000
  186.2620  178.9780  139.9020 C   0  0  1  0  0  3  0  0  0  0  0  0
  184.4250  178.0680  141.1120 C   0  0  1  0  0  0  0  0  0  0  0  0
  189.7380  177.3460  142.7810 C   0  0  1  0  0  3  0  0  0  0  0  0
  187.4700  178.4010  139.3330 N   0  0  0  0  0  2  0  0  0  0  0  0
  185.1270  177.9750  139.7890 C   0  0  1  0  0  3  0  0  0  0  0  0
  183.0190  177.6170  141.2370 C   0  0  2  0  0  3  0  0  0  0  0  0
  190.0970  176.3200  143.8430 C   0  0  0  0  0  1  0  0  0  0  0  0
  185.4220  178.4120  142.1980 C   0  0  1  0  0  3  0  0  0  0  0  0
  182.4170  177.1120  139.9020 C   0  0  1  0  0  3  0  0  0  0  0  0
  190.3110  176.9370  141.3960 C   0  0  1  0  0  3  0  0  0  0  0  0
  188.3990  178.1510  140.3670 C   0  0  0  0  0  0  0  0  0  0  0  0
  183.3510  178.9840  141.1030 O   0  0  0  0  0  0  0  0  0  0  0  0
  184.2330  178.2220  138.6630 N   0  0  0  0  0  0  0  0  0  0  0  0
  189.4590  177.3570  140.2180 C   0  0  0  0  0  3  0  0  0  0  0  0
  188.2280  177.6300  142.7780 C   0  0  2  0  0  3  0  0  0  0  0  0
  187.5140  176.4480  142.5340 O   0  0  0  0  0  1  0  0  0  0  0  0
  186.5270  179.1580  141.4270 C   0  0  1  0  0  3  0  0  0  0  0  0
  180.9120  177.2990  140.0000 C   0  0  0  0  0  1  0  0  0  0  0  0
  187.9650  178.6680  141.6810 C   0  0  2  0  0  3  0  0  0  0  0  0
  183.0060  177.7820  138.6490 C   0  0  0  0  0  0  0  0  0  0  0  0
  183.5490  178.7760  145.4050 C   0  0  0  0  0  2  0  0  0  0  0  0
  184.9610  179.1340  145.8560 C   0  0  2  0  0  3  0  0  0  0  0  0
  185.8190  179.3040  144.6140 C   0  0  2  0  0  3  0  0  0  0  0  0
  184.8680  179.1680  143.4210 C   0  0  2  0  0  3  0  0  0  0  0  0
  185.9360  178.0430  145.4600 C   0  0  0  0  0  2  0  0  0  0  0  0
  183.5570  178.5840  143.9010 C   0  0  0  0  0  2  0  0  0  0  0  0
  182.2840  177.9190  137.4560 O   0  0  0  0  0  0  0  0  0  0  0  0
  182.6930  177.3540  136.2200 C   0  0  0  0  0  2  0  0  0  0  0  0
  182.5410  175.8480  136.2790 C   0  0  0  0  0  1  0  0  0  0  0  0
  191.7140  177.4950  141.2120 C   0  0  0  0  0  2  0  0  0  0  0  0
  193.6120  177.2810  139.7980 O   0  0  0  0  0  1  0  0  0  0  0  0
  192.2210  177.2210  139.8080 C   0  0  0  0  0  2  0  0  0  0  0  0
  1  4  1  6  0  0  0
  1 17  1  0  0  0  0
  2 12  1  6  0  0  0
  2  6  1  0  0  0  0
  2  8  1  0  0  0  0
  3  7  1  1  0  0  0
  4 11  1  0  0  0  0
  5 13  1  6  0  0  0
  5  1  1  0  0  0  0
  5  2  1  0  0  0  0
  6 12  1  6  0  0  0
  8 24  1  1  0  0  0
  9 18  1  1  0  0  0
  9  6  1  0  0  0  0
 10 30  1  6  0  0  0
 10  3  1  0  0  0  0
 11 19  1  0  0  0  0
 14 11  2  0  0  0  0
 14 10  1  0  0  0  0
 15 16  1  6  0  0  0
 15  3  1  0  0  0  0
 17 19  1  0  0  0  0
 17  8  1  0  0  0  0
 19 15  1  0  0  0  0
 20 13  2  0  0  0  0
 20  9  1  0  0  0  0
 21 22  1  0  0  0  0
 23 25  1  0  0  0  0
 23 22  1  0  0  0  0
 24 26  1  0  0  0  0
 24 23  1  0  0  0  0
 25 22  1  0  0  0  0
 26 21  1  0  0  0  0
 27 20  1  0  0  0  0
 28 29  1  0  0  0  0
 28 27  1  0  0  0  0
 31 32  1  0  0  0  0
 32 30  1  0  0  0  0
M  END
>  <MODEL>
4

>  <REMARK>
 VINA RESULT:      -7.1      3.322      6.235
  Name = 
  5 active torsions:
  status: ('A' for Active; 'I' for Inactive)
    1  A    between atoms: C_10  and  C_28
    2  A    between atoms: O_14  and  C_21
    3  A    between atoms: O_14  and  C_29
    4  A    between atoms: C_15  and  C_19
    5  A    between atoms: C_19  and  C_26
                            x       y       z     vdW  Elec       q    Type
                         _______ _______ _______ _____ _____    ______ ____

>  <TORSDO>
F 5

$$$$
=
 OpenBabel11052414313D

 32 38  0  0  1  0  0  0  0  0999 V2000
  188.0070  178.6280  139.3500 C   0  0  1  0  0  3  0  0  0  0  0  0
  189.6190  176.9900  139.9730 C   0  0  1  0  0  0  0  0  0  0  0  0
  186.0460  176.1840  135.7150 C   0  0  1  0  0  3  0  0  0  0  0  0
  186.5630  178.5990  139.1860 N   0  0  0  0  0  2  0  0  0  0  0  0
  188.4010  177.7000  140.4870 C   0  0  1  0  0  3  0  0  0  0  0  0
  190.5680  176.3650  140.9230 C   0  0  2  0  0  3  0  0  0  0  0  0
  185.8520  174.8080  135.1010 C   0  0  0  0  0  1  0  0  0  0  0  0
  189.5230  176.8330  138.4700 C   0  0  1  0  0  3  0  0  0  0  0  0
  190.1710  176.5680  142.4070 C   0  0  1  0  0  3  0  0  0  0  0  0
  184.7640  176.6450  136.4630 C   0  0  1  0  0  3  0  0  0  0  0  0
  186.2450  177.9620  137.9670 C   0  0  0  0  0  0  0  0  0  0  0  0
  190.8240  177.6260  140.3400 O   0  0  0  0  0  0  0  0  0  0  0  0
  188.6470  178.3880  141.7500 N   0  0  0  0  0  0  0  0  0  0  0  0
  185.0250  177.5100  137.6760 C   0  0  0  0  0  3  0  0  0  0  0  0
  187.3230  176.2290  136.5690 C   0  0  2  0  0  3  0  0  0  0  0  0
  187.2540  175.2750  137.5930 O   0  0  0  0  0  1  0  0  0  0  0  0
  188.6180  178.0080  138.0570 C   0  0  1  0  0  3  0  0  0  0  0  0
  191.4520  176.4810  143.2200 C   0  0  0  0  0  1  0  0  0  0  0  0
  187.4310  177.6470  137.1450 C   0  0  2  0  0  3  0  0  0  0  0  0
  189.3950  177.8680  142.6820 C   0  0  0  0  0  0  0  0  0  0  0  0
  192.3170  175.1210  136.6830 C   0  0  0  0  0  2  0  0  0  0  0  0
  191.7620  176.0020  135.5690 C   0  0  2  0  0  3  0  0  0  0  0  0
  190.7820  176.9800  136.1920 C   0  0  2  0  0  3  0  0  0  0  0  0
  190.8590  176.7510  137.7050 C   0  0  2  0  0  3  0  0  0  0  0  0
  190.2720  175.7780  135.4090 C   0  0  0  0  0  2  0  0  0  0  0  0
  191.5840  175.4500  137.9680 C   0  0  0  0  0  2  0  0  0  0  0  0
  189.4300  178.5210  143.9210 O   0  0  0  0  0  0  0  0  0  0  0  0
  189.0460  177.9090  145.1430 C   0  0  0  0  0  2  0  0  0  0  0  0
  187.5900  177.5000  145.0680 C   0  0  0  0  0  1  0  0  0  0  0  0
  183.8340  177.3900  135.5190 C   0  0  0  0  0  2  0  0  0  0  0  0
  182.4730  175.5340  136.1110 O   0  0  0  0  0  1  0  0  0  0  0  0
  182.4280  176.8260  135.5940 C   0  0  0  0  0  2  0  0  0  0  0  0
  1  4  1  6  0  0  0
  1  5  1  0  0  0  0
  2 12  1  6  0  0  0
  2  5  1  0  0  0  0
  2  6  1  0  0  0  0
  3  7  1  1  0  0  0
  3 10  1  0  0  0  0
  3 15  1  0  0  0  0
  5 13  1  1  0  0  0
  6 12  1  1  0  0  0
  6  9  1  0  0  0  0
  8 24  1  6  0  0  0
  8  2  1  0  0  0  0
  9 20  1  0  0  0  0
  9 18  1  1  0  0  0
 10 30  1  6  0  0  0
 10 14  1  0  0  0  0
 11  4  1  0  0  0  0
 13 20  2  0  0  0  0
 14 11  2  0  0  0  0
 15 19  1  0  0  0  0
 15 16  1  1  0  0  0
 17  8  1  0  0  0  0
 17  1  1  0  0  0  0
 19 11  1  0  0  0  0
 19 17  1  0  0  0  0
 20 27  1  0  0  0  0
 21 26  1  0  0  0  0
 22 23  1  0  0  0  0
 22 21  1  0  0  0  0
 23 24  1  0  0  0  0
 24 26  1  0  0  0  0
 25 22  1  0  0  0  0
 25 23  1  0  0  0  0
 27 28  1  0  0  0  0
 29 28  1  0  0  0  0
 30 32  1  0  0  0  0
 32 31  1  0  0  0  0
M  END
>  <MODEL>
5

>  <REMARK>
 VINA RESULT:      -7.0      3.103      8.425
  Name = 
  5 active torsions:
  status: ('A' for Active; 'I' for Inactive)
    1  A    between atoms: C_10  and  C_28
    2  A    between atoms: O_14  and  C_21
    3  A    between atoms: O_14  and  C_29
    4  A    between atoms: C_15  and  C_19
    5  A    between atoms: C_19  and  C_26
                            x       y       z     vdW  Elec       q    Type
                         _______ _______ _______ _____ _____    ______ ____

>  <TORSDO>
F 5

$$$$
=
 OpenBabel11052414313D

 32 38  0  0  1  0  0  0  0  0999 V2000
  184.5540  179.1420  138.8290 C   0  0  1  0  0  3  0  0  0  0  0  0
  185.0640  177.1940  137.5570 C   0  0  1  0  0  0  0  0  0  0  0  0
  180.3110  177.6610  140.5130 C   0  0  1  0  0  3  0  0  0  0  0  0
  184.2050  179.3640  140.2230 N   0  0  0  0  0  2  0  0  0  0  0  0
  185.5410  177.9900  138.7370 C   0  0  1  0  0  3  0  0  0  0  0  0
  185.9950  176.2820  136.8530 C   0  0  2  0  0  3  0  0  0  0  0  0
  179.4330  176.4510  140.7880 C   0  0  0  0  0  1  0  0  0  0  0  0
  183.5580  177.3030  137.4420 C   0  0  1  0  0  3  0  0  0  0  0  0
  187.4280  176.2980  137.4420 C   0  0  1  0  0  3  0  0  0  0  0  0
  180.9620  178.1860  141.8230 C   0  0  1  0  0  3  0  0  0  0  0  0
  182.8580  178.9920  140.4310 C   0  0  0  0  0  0  0  0  0  0  0  0
  185.6920  177.5670  136.3500 O   0  0  0  0  0  0  0  0  0  0  0  0
  186.9300  178.4140  138.5990 N   0  0  0  0  0  0  0  0  0  0  0  0
  182.3370  178.7890  141.6400 C   0  0  0  0  0  3  0  0  0  0  0  0
  181.3140  177.3680  139.3870 C   0  0  2  0  0  3  0  0  0  0  0  0
  182.1270  176.2800  139.7340 O   0  0  0  0  0  1  0  0  0  0  0  0
  183.2580  178.6560  138.1140 C   0  0  1  0  0  3  0  0  0  0  0  0
  188.3680  175.8810  136.3230 C   0  0  0  0  0  1  0  0  0  0  0  0
  182.1500  178.6370  139.1840 C   0  0  2  0  0  3  0  0  0  0  0  0
  187.8370  177.6390  138.0760 C   0  0  0  0  0  0  0  0  0  0  0  0
  181.2190  175.9460  134.8700 C   0  0  0  0  0  2  0  0  0  0  0  0
  180.8710  177.4300  134.8190 C   0  0  2  0  0  3  0  0  0  0  0  0
  181.9230  178.1840  135.6130 C   0  0  2  0  0  3  0  0  0  0  0  0
  182.9680  177.1420  136.0280 C   0  0  2  0  0  3  0  0  0  0  0  0
  180.5410  177.9440  136.2060 C   0  0  0  0  0  2  0  0  0  0  0  0
  182.3970  175.7590  135.8050 C   0  0  0  0  0  2  0  0  0  0  0  0
  189.1700  178.0660  138.1460 O   0  0  0  0  0  0  0  0  0  0  0  0
  189.9980  177.8750  139.2820 C   0  0  0  0  0  2  0  0  0  0  0  0
  190.9630  176.7380  139.0180 C   0  0  0  0  0  1  0  0  0  0  0  0
  180.0600  179.2100  142.4940 C   0  0  0  0  0  2  0  0  0  0  0  0
  179.6810  177.5400  144.1410 O   0  0  0  0  0  1  0  0  0  0  0  0
  179.9050  178.9030  143.9710 C   0  0  0  0  0  2  0  0  0  0  0  0
  1  4  1  1  0  0  0
  2 12  1  6  0  0  0
  2  5  1  0  0  0  0
  3  7  1  1  0  0  0
  3 10  1  0  0  0  0
  4 11  1  0  0  0  0
  5 13  1  6  0  0  0
  5  1  1  0  0  0  0
  6 12  1  6  0  0  0
  6  9  1  0  0  0  0
  6  2  1  0  0  0  0
  8 24  1  6  0  0  0
  8  2  1  0  0  0  0
  8 17  1  0  0  0  0
  9 18  1  6  0  0  0
  9 20  1  0  0  0  0
 10 30  1  6  0  0  0
 11 14  2  0  0  0  0
 14 10  1  0  0  0  0
 15 16  1  1  0  0  0
 15  3  1  0  0  0  0
 17  1  1  0  0  0  0
 17 19  1  0  0  0  0
 19 15  1  0  0  0  0
 19 11  1  0  0  0  0
 20 27  1  0  0  0  0
 20 13  2  0  0  0  0
 21 26  1  0  0  0  0
 22 21  1  0  0  0  0
 22 23  1  0  0  0  0
 22 25  1  0  0  0  0
 23 24  1  0  0  0  0
 23 25  1  0  0  0  0
 26 24  1  0  0  0  0
 27 28  1  0  0  0  0
 29 28  1  0  0  0  0
 30 32  1  0  0  0  0
 32 31  1  0  0  0  0
M  END
>  <MODEL>
6

>  <REMARK>
 VINA RESULT:      -6.8      5.020      8.005
  Name = 
  5 active torsions:
  status: ('A' for Active; 'I' for Inactive)
    1  A    between atoms: C_10  and  C_28
    2  A    between atoms: O_14  and  C_21
    3  A    between atoms: O_14  and  C_29
    4  A    between atoms: C_15  and  C_19
    5  A    between atoms: C_19  and  C_26
                            x       y       z     vdW  Elec       q    Type
                         _______ _______ _______ _____ _____    ______ ____

>  <TORSDO>
F 5

$$$$
=
 OpenBabel11052414313D

 32 38  0  0  1  0  0  0  0  0999 V2000
  184.9760  178.7360  138.6990 C   0  0  1  0  0  3  0  0  0  0  0  0
  183.4140  177.3370  137.5720 C   0  0  1  0  0  0  0  0  0  0  0  0
  182.6060  179.0450  142.8610 C   0  0  1  0  0  3  0  0  0  0  0  0
  185.6950  178.6230  139.9580 N   0  0  0  0  0  2  0  0  0  0  0  0
  184.8250  177.3560  138.0820 C   0  0  1  0  0  3  0  0  0  0  0  0
  183.0230  176.3800  136.5100 C   0  0  2  0  0  3  0  0  0  0  0  0
  181.5470  178.4030  143.7420 C   0  0  0  0  0  1  0  0  0  0  0  0
  182.5370  178.1950  138.4590 C   0  0  1  0  0  3  0  0  0  0  0  0
  184.1990  175.5000  136.0170 C   0  0  1  0  0  3  0  0  0  0  0  0
  184.0340  178.7170  143.3780 C   0  0  1  0  0  3  0  0  0  0  0  0
  184.8140  178.9090  141.0240 C   0  0  0  0  0  0  0  0  0  0  0  0
  183.3100  177.7330  136.2220 O   0  0  0  0  0  0  0  0  0  0  0  0
  185.8010  177.0690  137.0360 N   0  0  0  0  0  0  0  0  0  0  0  0
  185.0800  178.5960  142.2930 C   0  0  0  0  0  3  0  0  0  0  0  0
  182.3770  178.6940  141.3820 C   0  0  2  0  0  3  0  0  0  0  0  0
  182.4130  177.3040  141.2040 O   0  0  0  0  0  1  0  0  0  0  0  0
  183.5330  179.2110  139.0480 C   0  0  1  0  0  3  0  0  0  0  0  0
  183.8660  175.0780  134.5950 C   0  0  0  0  0  1  0  0  0  0  0  0
  183.4880  179.3800  140.5770 C   0  0  2  0  0  3  0  0  0  0  0  0
  185.5790  176.1750  136.1150 C   0  0  0  0  0  0  0  0  0  0  0  0
  179.1360  179.7290  138.3730 C   0  0  0  0  0  2  0  0  0  0  0  0
  179.9800  180.8720  137.8180 C   0  0  2  0  0  3  0  0  0  0  0  0
  181.3680  180.3290  137.5250 C   0  0  2  0  0  3  0  0  0  0  0  0
  181.2970  178.8220  137.7930 C   0  0  2  0  0  3  0  0  0  0  0  0
  181.1260  181.1890  138.7580 C   0  0  0  0  0  2  0  0  0  0  0  0
  180.0280  178.5180  138.5580 C   0  0  0  0  0  2  0  0  0  0  0  0
  186.6410  175.8490  135.2620 O   0  0  0  0  0  0  0  0  0  0  0  0
  188.0010  175.8350  135.6690 C   0  0  0  0  0  2  0  0  0  0  0  0
  188.2940  174.5460  136.4090 C   0  0  0  0  0  1  0  0  0  0  0  0
  184.4890  179.7610  144.3860 C   0  0  0  0  0  2  0  0  0  0  0  0
  184.2710  178.6060  146.4510 O   0  0  0  0  0  1  0  0  0  0  0  0
  185.2070  179.1060  145.5510 C   0  0  0  0  0  2  0  0  0  0  0  0
  1 17  1  0  0  0  0
  1  4  1  1  0  0  0
  2 12  1  6  0  0  0
  2  5  1  0  0  0  0
  2  8  1  0  0  0  0
  3 10  1  0  0  0  0
  3  7  1  1  0  0  0
  4 11  1  0  0  0  0
  5 13  1  6  0  0  0
  5  1  1  0  0  0  0
  6 12  1  6  0  0  0
  6  2  1  0  0  0  0
  8 24  1  6  0  0  0
  8 17  1  0  0  0  0
  9 18  1  6  0  0  0
  9 20  1  0  0  0  0
  9  6  1  0  0  0  0
 10 30  1  1  0  0  0
 11 14  2  0  0  0  0
 14 10  1  0  0  0  0
 15 16  1  1  0  0  0
 15  3  1  0  0  0  0
 17 19  1  0  0  0  0
 19 11  1  0  0  0  0
 19 15  1  0  0  0  0
 20 13  2  0  0  0  0
 21 26  1  0  0  0  0
 22 21  1  0  0  0  0
 22 25  1  0  0  0  0
 23 24  1  0  0  0  0
 23 22  1  0  0  0  0
 23 25  1  0  0  0  0
 24 26  1  0  0  0  0
 27 28  1  0  0  0  0
 27 20  1  0  0  0  0
 28 29  1  0  0  0  0
 30 32  1  0  0  0  0
 32 31  1  0  0  0  0
M  END
>  <MODEL>
7

>  <REMARK>
 VINA RESULT:      -6.7      5.040      6.941
  Name = 
  5 active torsions:
  status: ('A' for Active; 'I' for Inactive)
    1  A    between atoms: C_10  and  C_28
    2  A    between atoms: O_14  and  C_21
    3  A    between atoms: O_14  and  C_29
    4  A    between atoms: C_15  and  C_19
    5  A    between atoms: C_19  and  C_26
                            x       y       z     vdW  Elec       q    Type
                         _______ _______ _______ _____ _____    ______ ____

>  <TORSDO>
F 5

$$$$
=
 OpenBabel11052414313D

 32 38  0  0  1  0  0  0  0  0999 V2000
  185.9070  179.1990  140.3670 C   0  0  1  0  0  3  0  0  0  0  0  0
  184.2860  178.2560  141.8350 C   0  0  1  0  0  0  0  0  0  0  0  0
  189.7680  177.1450  142.3440 C   0  0  1  0  0  3  0  0  0  0  0  0
  186.9420  178.6280  139.5220 N   0  0  0  0  0  2  0  0  0  0  0  0
  184.7110  178.2620  140.3960 C   0  0  1  0  0  3  0  0  0  0  0  0
  182.9060  177.8570  142.1980 C   0  0  2  0  0  3  0  0  0  0  0  0
  190.2610  176.0050  143.2200 C   0  0  0  0  0  1  0  0  0  0  0  0
  185.4950  178.4490  142.7260 C   0  0  1  0  0  3  0  0  0  0  0  0
  182.0260  177.5100  140.9710 C   0  0  1  0  0  3  0  0  0  0  0  0
  190.0330  176.8480  140.8420 C   0  0  1  0  0  3  0  0  0  0  0  0
  188.0370  178.2380  140.3240 C   0  0  0  0  0  0  0  0  0  0  0  0
  183.2900  179.2140  142.1190 O   0  0  0  0  0  0  0  0  0  0  0  0
  183.6320  178.6560  139.4960 N   0  0  0  0  0  0  0  0  0  0  0  0
  188.9970  177.4170  139.8990 C   0  0  0  0  0  3  0  0  0  0  0  0
  188.3060  177.4920  142.6670 C   0  0  2  0  0  3  0  0  0  0  0  0
  187.4870  176.3730  142.4680 O   0  0  0  0  0  1  0  0  0  0  0  0
  186.4730  179.2180  141.8190 C   0  0  1  0  0  3  0  0  0  0  0  0
  180.5830  177.7530  141.3820 C   0  0  0  0  0  1  0  0  0  0  0  0
  187.8990  178.6430  141.7380 C   0  0  2  0  0  3  0  0  0  0  0  0
  182.4010  178.2730  139.6880 C   0  0  0  0  0  0  0  0  0  0  0  0
  184.1830  178.6280  146.2160 C   0  0  0  0  0  2  0  0  0  0  0  0
  185.6820  178.7540  146.4660 C   0  0  2  0  0  3  0  0  0  0  0  0
  186.3630  178.9750  145.1270 C   0  0  2  0  0  3  0  0  0  0  0  0
  185.2360  179.1050  144.0960 C   0  0  2  0  0  3  0  0  0  0  0  0
  186.4280  177.6130  145.8040 C   0  0  0  0  0  2  0  0  0  0  0  0
  183.9430  178.6270  144.7190 C   0  0  0  0  0  2  0  0  0  0  0  0
  181.4720  178.5580  138.6800 O   0  0  0  0  0  0  0  0  0  0  0  0
  181.1680  179.8720  138.2390 C   0  0  0  0  0  2  0  0  0  0  0  0
  181.1790  179.9120  136.7250 C   0  0  0  0  0  1  0  0  0  0  0  0
  191.4060  177.3590  140.4320 C   0  0  0  0  0  2  0  0  0  0  0  0
  193.2060  176.8930  138.9520 O   0  0  0  0  0  1  0  0  0  0  0  0
  191.8290  176.7550  139.1060 C   0  0  0  0  0  2  0  0  0  0  0  0
  1  4  1  6  0  0  0
  1  5  1  0  0  0  0
  1 17  1  0  0  0  0
  2 12  1  6  0  0  0
  2  6  1  0  0  0  0
  2  8  1  0  0  0  0
  3 15  1  0  0  0  0
  3  7  1  1  0  0  0
  4 11  1  0  0  0  0
  5 13  1  6  0  0  0
  5  2  1  0  0  0  0
  6 12  1  6  0  0  0
  8 24  1  1  0  0  0
  9 18  1  1  0  0  0
  9  6  1  0  0  0  0
 10 30  1  6  0  0  0
 10  3  1  0  0  0  0
 11 19  1  0  0  0  0
 13 20  2  0  0  0  0
 14 11  2  0  0  0  0
 14 10  1  0  0  0  0
 15 16  1  6  0  0  0
 17  8  1  0  0  0  0
 19 17  1  0  0  0  0
 19 15  1  0  0  0  0
 20  9  1  0  0  0  0
 21 22  1  0  0  0  0
 23 25  1  0  0  0  0
 23 22  1  0  0  0  0
 24 26  1  0  0  0  0
 24 23  1  0  0  0  0
 25 22  1  0  0  0  0
 26 21  1  0  0  0  0
 27 20  1  0  0  0  0
 28 27  1  0  0  0  0
 29 28  1  0  0  0  0
 31 32  1  0  0  0  0
 32 30  1  0  0  0  0
M  END
>  <MODEL>
8

>  <REMARK>
 VINA RESULT:      -6.6      3.403      6.926
  Name = 
  5 active torsions:
  status: ('A' for Active; 'I' for Inactive)
    1  A    between atoms: C_10  and  C_28
    2  A    between atoms: O_14  and  C_21
    3  A    between atoms: O_14  and  C_29
    4  A    between atoms: C_15  and  C_19
    5  A    between atoms: C_19  and  C_26
                            x       y       z     vdW  Elec       q    Type
                         _______ _______ _______ _____ _____    ______ ____

>  <TORSDO>
F 5

$$$$
=
 OpenBabel11052414313D

 32 38  0  0  1  0  0  0  0  0999 V2000
  186.6450  176.9250  143.3230 C   0  0  1  0  0  3  0  0  0  0  0  0
  186.6080  178.2970  141.3770 C   0  0  1  0  0  0  0  0  0  0  0  0
  191.1170  177.9770  144.7110 C   0  0  1  0  0  3  0  0  0  0  0  0
  186.9310  177.1830  144.7240 N   0  0  0  0  0  2  0  0  0  0  0  0
  185.9570  178.1380  142.7200 C   0  0  1  0  0  3  0  0  0  0  0  0
  185.9170  179.0490  140.3030 C   0  0  2  0  0  3  0  0  0  0  0  0
  192.2540  178.9780  144.5930 C   0  0  0  0  0  1  0  0  0  0  0  0
  188.0460  177.8280  141.4470 C   0  0  1  0  0  3  0  0  0  0  0  0
  184.5200  179.5710  140.7240 C   0  0  1  0  0  3  0  0  0  0  0  0
  190.3600  178.1490  146.0570 C   0  0  1  0  0  3  0  0  0  0  0  0
  188.3280  177.3040  144.9000 C   0  0  0  0  0  0  0  0  0  0  0  0
  185.9100  177.6360  140.3440 O   0  0  0  0  0  0  0  0  0  0  0  0
  184.5070  178.0060  142.6250 N   0  0  0  0  0  0  0  0  0  0  0  0
  188.8820  177.8360  145.9880 C   0  0  0  0  0  3  0  0  0  0  0  0
  190.2110  178.0270  143.4700 C   0  0  2  0  0  3  0  0  0  0  0  0
  189.6760  179.3130  143.3130 O   0  0  0  0  0  1  0  0  0  0  0  0
  188.0190  176.8060  142.5980 C   0  0  1  0  0  3  0  0  0  0  0  0
  183.7050  179.7210  139.4500 C   0  0  0  0  0  1  0  0  0  0  0  0
  189.1000  176.9910  143.6800 C   0  0  2  0  0  3  0  0  0  0  0  0
  183.8070  178.6990  141.7720 C   0  0  0  0  0  0  0  0  0  0  0  0
  190.1000  178.0240  138.3370 C   0  0  0  0  0  2  0  0  0  0  0  0
  190.8250  176.9140  139.0900 C   0  0  2  0  0  3  0  0  0  0  0  0
  189.9610  176.5080  140.2710 C   0  0  2  0  0  3  0  0  0  0  0  0
  188.6580  177.3030  140.1340 C   0  0  2  0  0  3  0  0  0  0  0  0
  191.1950  177.3740  140.4860 C   0  0  0  0  0  2  0  0  0  0  0  0
  188.8600  178.4080  139.1210 C   0  0  0  0  0  2  0  0  0  0  0  0
  182.4120  178.6310  141.8750 O   0  0  0  0  0  0  0  0  0  0  0  0
  181.6900  179.0180  143.0340 C   0  0  0  0  0  2  0  0  0  0  0  0
  180.2620  178.5250  142.9270 C   0  0  0  0  0  1  0  0  0  0  0  0
  190.9960  177.2900  147.1390 C   0  0  0  0  0  2  0  0  0  0  0  0
  192.8120  175.7800  147.4000 O   0  0  0  0  0  1  0  0  0  0  0  0
  191.7970  176.1580  146.5250 C   0  0  0  0  0  2  0  0  0  0  0  0
  1  4  1  1  0  0  0
  2 12  1  6  0  0  0
  2  8  1  0  0  0  0
  2  5  1  0  0  0  0
  3  7  1  6  0  0  0
  3 10  1  0  0  0  0
  4 11  1  0  0  0  0
  5 13  1  6  0  0  0
  5  1  1  0  0  0  0
  6 12  1  6  0  0  0
  6  9  1  0  0  0  0
  6  2  1  0  0  0  0
  8 24  1  6  0  0  0
  8 17  1  0  0  0  0
  9 18  1  6  0  0  0
  9 20  1  0  0  0  0
 10 30  1  1  0  0  0
 11 14  2  0  0  0  0
 14 10  1  0  0  0  0
 15 16  1  1  0  0  0
 15 19  1  0  0  0  0
 15  3  1  0  0  0  0
 17  1  1  0  0  0  0
 17 19  1  0  0  0  0
 19 11  1  0  0  0  0
 20 27  1  0  0  0  0
 20 13  2  0  0  0  0
 21 22  1  0  0  0  0
 21 26  1  0  0  0  0
 22 23  1  0  0  0  0
 22 25  1  0  0  0  0
 23 25  1  0  0  0  0
 24 23  1  0  0  0  0
 26 24  1  0  0  0  0
 27 28  1  0  0  0  0
 29 28  1  0  0  0  0
 32 30  1  0  0  0  0
 32 31  1  0  0  0  0
M  END
>  <MODEL>
9

>  <REMARK>
 VINA RESULT:      -6.3      2.708      5.860
  Name = 
  5 active torsions:
  status: ('A' for Active; 'I' for Inactive)
    1  A    between atoms: C_10  and  C_28
    2  A    between atoms: O_14  and  C_21
    3  A    between atoms: O_14  and  C_29
    4  A    between atoms: C_15  and  C_19
    5  A    between atoms: C_19  and  C_26
                            x       y       z     vdW  Elec       q    Type
                         _______ _______ _______ _____ _____    ______ ____

>  <TORSDO>
F 5

$$$$
