=
 OpenBabel11052414003D

 34 38  0  0  1  0  0  0  0  0999 V2000
  183.9170  178.9910  141.7970 C   0  0  0  0  0  0  0  0  0  0  0  0
  183.4150  178.7840  144.2010 C   0  0  0  0  0  0  0  0  0  0  0  0
  185.6930  178.3600  143.3770 C   0  0  0  0  0  0  0  0  0  0  0  0
  188.0260  176.5100  144.6470 C   0  0  0  0  0  2  0  0  0  0  0  0
  182.0780  179.1120  144.0100 O   0  0  0  0  0  1  0  0  0  0  0  0
  185.1590  178.1940  145.7540 C   0  0  0  0  0  3  0  0  0  0  0  0
  184.3310  178.7190  143.1210 C   0  0  0  0  0  0  0  0  0  0  0  0
  187.5590  177.8910  145.0940 C   0  0  1  0  0  3  0  0  0  0  0  0
  186.5710  178.2070  142.2600 C   0  0  0  0  0  0  0  0  0  0  0  0
  184.8410  178.8670  140.7600 C   0  0  0  0  0  3  0  0  0  0  0  0
  183.8350  178.5050  145.4950 C   0  0  0  0  0  3  0  0  0  0  0  0
  188.0230  176.3500  143.1240 C   0  0  0  0  0  2  0  0  0  0  0  0
  187.9940  177.6970  142.4000 C   0  0  1  0  0  3  0  0  0  0  0  0
  186.1090  178.1470  144.7270 C   0  0  0  0  0  0  0  0  0  0  0  0
  186.1110  178.4780  141.0080 N   0  0  0  0  0  0  0  0  0  0  0  0
  189.2520  178.4830  138.8860 C   0  0  0  0  0  0  0  0  0  0  0  0
  190.2730  177.5350  138.7510 C   0  0  0  0  0  3  0  0  0  0  0  0
  188.7710  177.6470  141.1150 C   0  0  0  0  0  0  0  0  0  0  0  0
  190.5450  176.6480  139.7960 C   0  0  0  0  0  3  0  0  0  0  0  0
  188.5030  178.5420  140.0650 C   0  0  0  0  0  3  0  0  0  0  0  0
  189.7970  176.7060  140.9760 C   0  0  0  0  0  3  0  0  0  0  0  0
  188.9910  179.3440  137.8740 F   0  0  0  0  0  0  0  0  0  0  0  0
  181.7890  178.7300  140.5450 C   0  0  0  0  0  1  0  0  0  0  0  0
  182.6010  179.3790  141.5170 O   0  0  0  0  0  0  0  0  0  0  0  0
  187.9050  178.1240  146.5610 C   0  0  0  0  0  2  0  0  0  0  0  0
  189.3230  178.4110  146.6870 N   0  0  0  0  0  2  0  0  0  0  0  0
  189.9800  177.1550  147.0010 C   0  0  0  0  0  2  0  0  0  0  0  0
  192.4300  175.5220  147.8690 O   0  0  0  0  0  0  0  0  0  0  0  0
  191.3930  177.1480  146.4390 C   0  0  1  0  0  3  0  0  0  0  0  0
  192.0560  175.8170  146.7040 C   0  0  0  0  0  0  0  0  0  0  0  0
  192.0260  175.1860  144.4000 C   0  0  0  0  0  3  0  0  0  0  0  0
  191.5930  176.5420  144.0280 C   0  0  0  0  0  3  0  0  0  0  0  0
  191.3260  177.4540  144.9670 C   0  0  0  0  0  3  0  0  0  0  0  0
  192.2440  174.8730  145.6420 N   0  0  0  0  0  0  0  0  0  0  0  0
  1  7  1  0  0  0  0
  2 11  1  0  0  0  0
  3 14  2  0  0  0  0
  4  8  1  0  0  0  0
  5  2  1  0  0  0  0
  7  3  1  0  0  0  0
  7  2  2  0  0  0  0
  8 25  1  1  0  0  0
  9 13  1  0  0  0  0
  9  3  1  0  0  0  0
 10 15  1  0  0  0  0
 10  1  2  0  0  0  0
 11  6  2  0  0  0  0
 12  4  1  0  0  0  0
 13 18  1  6  0  0  0
 13 12  1  0  0  0  0
 14  8  1  0  0  0  0
 14  6  1  0  0  0  0
 15  9  2  0  0  0  0
 16 20  1  0  0  0  0
 17 16  2  0  0  0  0
 17 19  1  0  0  0  0
 19 21  2  0  0  0  0
 20 18  2  0  0  0  0
 21 18  1  0  0  0  0
 22 16  1  0  0  0  0
 23 24  1  0  0  0  0
 24  1  1  0  0  0  0
 25 26  1  0  0  0  0
 26 27  1  0  0  0  0
 29 30  1  0  0  0  0
 29 27  1  6  0  0  0
 30 28  2  0  0  0  0
 31 34  2  0  0  0  0
 32 31  1  0  0  0  0
 32 33  2  0  0  0  0
 33 29  1  0  0  0  0
 34 30  1  0  0  0  0
M  END
>  <MODEL>
1

>  <REMARK>
 VINA RESULT:      -9.6      0.000      0.000
  Name = 
  6 active torsions:
  status: ('A' for Active; 'I' for Inactive)
    1  A    between atoms: C_1  and  O_19
    2  A    between atoms: C_3  and  C_13
    3  A    between atoms: C_3  and  N_17
    4  A    between atoms: C_12  and  C_28
    5  A    between atoms: N_17  and  C_29
    6  A    between atoms: C_18  and  C_29
                            x       y       z     vdW  Elec       q    Type
                         _______ _______ _______ _____ _____    ______ ____

>  <TORSDO>
F 6

$$$$
=
 OpenBabel11052414003D

 34 38  0  0  1  0  0  0  0  0999 V2000
  189.7640  176.9700  145.6360 C   0  0  0  0  0  0  0  0  0  0  0  0
  187.5740  177.7100  146.4900 C   0  0  0  0  0  0  0  0  0  0  0  0
  187.9600  177.5450  144.0670 C   0  0  0  0  0  0  0  0  0  0  0  0
  186.5180  179.1360  141.6440 C   0  0  0  0  0  2  0  0  0  0  0  0
  187.9880  177.6040  147.8130 O   0  0  0  0  0  1  0  0  0  0  0  0
  185.7960  178.2460  144.9560 C   0  0  0  0  0  3  0  0  0  0  0  0
  188.4370  177.4020  145.4100 C   0  0  0  0  0  0  0  0  0  0  0  0
  185.9800  177.9720  142.4710 C   0  0  1  0  0  3  0  0  0  0  0  0
  188.8800  177.3230  142.9970 C   0  0  0  0  0  0  0  0  0  0  0  0
  190.5930  176.7260  144.5410 C   0  0  0  0  0  3  0  0  0  0  0  0
  186.2760  178.1420  146.2520 C   0  0  0  0  0  3  0  0  0  0  0  0
  188.0140  179.0080  141.3480 C   0  0  0  0  0  2  0  0  0  0  0  0
  188.5220  177.5780  141.5430 C   0  0  1  0  0  3  0  0  0  0  0  0
  186.5990  177.9250  143.8550 C   0  0  0  0  0  0  0  0  0  0  0  0
  190.1460  176.9130  143.2800 N   0  0  0  0  0  0  0  0  0  0  0  0
  191.9580  177.1340  139.9450 C   0  0  0  0  0  0  0  0  0  0  0  0
  191.6060  176.5690  138.7140 C   0  0  0  0  0  3  0  0  0  0  0  0
  189.6120  177.2440  140.5630 C   0  0  0  0  0  0  0  0  0  0  0  0
  190.2620  176.3380  138.4090 C   0  0  0  0  0  3  0  0  0  0  0  0
  190.9640  177.4690  140.8690 C   0  0  0  0  0  3  0  0  0  0  0  0
  189.2670  176.6730  139.3330 C   0  0  0  0  0  3  0  0  0  0  0  0
  193.2610  177.3550  140.2410 F   0  0  0  0  0  0  0  0  0  0  0  0
  191.5750  176.3440  147.2150 C   0  0  0  0  0  1  0  0  0  0  0  0
  190.2520  176.7870  146.9360 O   0  0  0  0  0  0  0  0  0  0  0  0
  184.4550  177.9560  142.4430 C   0  0  0  0  0  2  0  0  0  0  0  0
  183.9800  178.6830  141.2800 N   0  0  0  0  0  2  0  0  0  0  0  0
  183.2360  177.7370  140.4680 C   0  0  0  0  0  2  0  0  0  0  0  0
  184.2580  180.3250  139.1720 O   0  0  0  0  0  0  0  0  0  0  0  0
  183.3400  178.1140  138.9980 C   0  0  1  0  0  3  0  0  0  0  0  0
  184.4320  179.1370  138.7940 C   0  0  0  0  0  0  0  0  0  0  0  0
  185.8520  177.5980  137.6460 C   0  0  0  0  0  3  0  0  0  0  0  0
  184.7590  176.6150  137.5960 C   0  0  0  0  0  3  0  0  0  0  0  0
  183.5920  176.8640  138.1970 C   0  0  0  0  0  3  0  0  0  0  0  0
  185.6790  178.7630  138.1950 N   0  0  0  0  0  0  0  0  0  0  0  0
  1 24  1  0  0  0  0
  2  5  1  0  0  0  0
  3  7  1  0  0  0  0
  4  8  1  0  0  0  0
  6 11  2  0  0  0  0
  7  1  1  0  0  0  0
  7  2  2  0  0  0  0
  8 25  1  1  0  0  0
  8 14  1  0  0  0  0
  9 15  2  0  0  0  0
  9  3  1  0  0  0  0
 10  1  2  0  0  0  0
 11  2  1  0  0  0  0
 12 13  1  0  0  0  0
 12  4  1  0  0  0  0
 13 18  1  6  0  0  0
 13  9  1  0  0  0  0
 14  3  2  0  0  0  0
 14  6  1  0  0  0  0
 15 10  1  0  0  0  0
 16 22  1  0  0  0  0
 16 20  1  0  0  0  0
 17 16  2  0  0  0  0
 18 20  2  0  0  0  0
 19 17  1  0  0  0  0
 19 21  2  0  0  0  0
 21 18  1  0  0  0  0
 24 23  1  0  0  0  0
 26 25  1  0  0  0  0
 27 26  1  0  0  0  0
 29 27  1  1  0  0  0
 30 29  1  0  0  0  0
 30 28  2  0  0  0  0
 31 34  2  0  0  0  0
 32 31  1  0  0  0  0
 32 33  2  0  0  0  0
 33 29  1  0  0  0  0
 34 30  1  0  0  0  0
M  END
>  <MODEL>
2

>  <REMARK>
 VINA RESULT:      -9.4      2.258      6.806
  Name = 
  6 active torsions:
  status: ('A' for Active; 'I' for Inactive)
    1  A    between atoms: C_1  and  O_19
    2  A    between atoms: C_3  and  C_13
    3  A    between atoms: C_3  and  N_17
    4  A    between atoms: C_12  and  C_28
    5  A    between atoms: N_17  and  C_29
    6  A    between atoms: C_18  and  C_29
                            x       y       z     vdW  Elec       q    Type
                         _______ _______ _______ _____ _____    ______ ____

>  <TORSDO>
F 6

$$$$
=
 OpenBabel11052414003D

 34 38  0  0  1  0  0  0  0  0999 V2000
  190.9040  176.9330  145.6480 C   0  0  0  0  0  0  0  0  0  0  0  0
  188.7940  177.6090  146.7280 C   0  0  0  0  0  0  0  0  0  0  0  0
  188.9180  177.4150  144.2800 C   0  0  0  0  0  0  0  0  0  0  0  0
  187.1610  178.9100  142.0090 C   0  0  0  0  0  2  0  0  0  0  0  0
  189.3540  177.5420  147.9990 O   0  0  0  0  0  1  0  0  0  0  0  0
  186.8400  178.0530  145.3920 C   0  0  0  0  0  3  0  0  0  0  0  0
  189.5450  177.3130  145.5640 C   0  0  0  0  0  0  0  0  0  0  0  0
  186.7610  177.7430  142.9050 C   0  0  1  0  0  3  0  0  0  0  0  0
  189.7240  177.2070  143.1180 C   0  0  0  0  0  0  0  0  0  0  0  0
  191.6170  176.7000  144.4730 C   0  0  0  0  0  3  0  0  0  0  0  0
  187.4620  177.9890  146.6280 C   0  0  0  0  0  3  0  0  0  0  0  0
  188.6190  178.8300  141.5520 C   0  0  0  0  0  2  0  0  0  0  0  0
  189.2000  177.4240  141.7090 C   0  0  1  0  0  3  0  0  0  0  0  0
  187.5290  177.7420  144.2140 C   0  0  0  0  0  0  0  0  0  0  0  0
  191.0280  176.8490  143.2660 N   0  0  0  0  0  0  0  0  0  0  0  0
  192.4410  177.1470  139.7170 C   0  0  0  0  0  0  0  0  0  0  0  0
  191.9940  176.4740  138.5750 C   0  0  0  0  0  3  0  0  0  0  0  0
  190.1870  177.1120  140.6200 C   0  0  0  0  0  0  0  0  0  0  0  0
  190.6480  176.1170  138.4560 C   0  0  0  0  0  3  0  0  0  0  0  0
  191.5420  177.4640  140.7390 C   0  0  0  0  0  3  0  0  0  0  0  0
  189.7470  176.4330  139.4780 C   0  0  0  0  0  3  0  0  0  0  0  0
  193.7470  177.4910  139.8330 F   0  0  0  0  0  0  0  0  0  0  0  0
  192.2870  175.6370  147.2520 C   0  0  0  0  0  1  0  0  0  0  0  0
  191.5380  176.7910  146.8900 O   0  0  0  0  0  0  0  0  0  0  0  0
  185.2440  177.6700  143.0460 C   0  0  0  0  0  2  0  0  0  0  0  0
  184.6420  178.8480  142.4460 N   0  0  0  0  0  2  0  0  0  0  0  0
  183.2550  178.5180  142.1740 C   0  0  0  0  0  2  0  0  0  0  0  0
  180.7310  177.6690  140.6470 O   0  0  0  0  0  0  0  0  0  0  0  0
  183.0890  178.1120  140.7170 C   0  0  1  0  0  3  0  0  0  0  0  0
  181.6810  178.3950  140.2510 C   0  0  0  0  0  0  0  0  0  0  0  0
  182.3640  180.1760  138.8150 C   0  0  0  0  0  3  0  0  0  0  0  0
  183.7750  179.8220  139.0350 C   0  0  0  0  0  3  0  0  0  0  0  0
  184.1080  178.8530  139.8930 C   0  0  0  0  0  3  0  0  0  0  0  0
  181.4100  179.4980  139.3780 N   0  0  0  0  0  0  0  0  0  0  0  0
  1 24  1  0  0  0  0
  2  5  1  0  0  0  0
  3  7  1  0  0  0  0
  4  8  1  0  0  0  0
  6 11  2  0  0  0  0
  7  1  1  0  0  0  0
  7  2  2  0  0  0  0
  8 25  1  1  0  0  0
  8 14  1  0  0  0  0
  9 15  2  0  0  0  0
  9  3  1  0  0  0  0
 10  1  2  0  0  0  0
 11  2  1  0  0  0  0
 12 13  1  0  0  0  0
 12  4  1  0  0  0  0
 13 18  1  6  0  0  0
 13  9  1  0  0  0  0
 14  3  2  0  0  0  0
 14  6  1  0  0  0  0
 15 10  1  0  0  0  0
 16 22  1  0  0  0  0
 16 20  1  0  0  0  0
 17 16  2  0  0  0  0
 18 20  2  0  0  0  0
 19 17  1  0  0  0  0
 19 21  2  0  0  0  0
 21 18  1  0  0  0  0
 24 23  1  0  0  0  0
 26 25  1  0  0  0  0
 27 26  1  0  0  0  0
 29 27  1  1  0  0  0
 30 28  2  0  0  0  0
 30 29  1  0  0  0  0
 31 32  1  0  0  0  0
 31 34  2  0  0  0  0
 32 33  2  0  0  0  0
 33 29  1  0  0  0  0
 34 30  1  0  0  0  0
M  END
>  <MODEL>
3

>  <REMARK>
 VINA RESULT:      -9.2      2.028      7.301
  Name = 
  6 active torsions:
  status: ('A' for Active; 'I' for Inactive)
    1  A    between atoms: C_1  and  O_19
    2  A    between atoms: C_3  and  C_13
    3  A    between atoms: C_3  and  N_17
    4  A    between atoms: C_12  and  C_28
    5  A    between atoms: N_17  and  C_29
    6  A    between atoms: C_18  and  C_29
                            x       y       z     vdW  Elec       q    Type
                         _______ _______ _______ _____ _____    ______ ____

>  <TORSDO>
F 6

$$$$
=
 OpenBabel11052414003D

 34 38  0  0  1  0  0  0  0  0999 V2000
  185.0440  178.7980  139.4620 C   0  0  0  0  0  0  0  0  0  0  0  0
  187.3140  178.4210  140.3420 C   0  0  0  0  0  0  0  0  0  0  0  0
  185.3880  178.4440  141.8700 C   0  0  0  0  0  0  0  0  0  0  0  0
  185.2790  179.1510  145.0280 C   0  0  0  0  0  2  0  0  0  0  0  0
  187.8860  178.5300  139.0800 O   0  0  0  0  0  1  0  0  0  0  0  0
  187.6510  178.0440  142.6970 C   0  0  0  0  0  3  0  0  0  0  0  0
  185.9190  178.5510  140.5450 C   0  0  0  0  0  0  0  0  0  0  0  0
  185.7780  177.8760  144.3560 C   0  0  1  0  0  3  0  0  0  0  0  0
  183.9910  178.6770  142.0590 C   0  0  0  0  0  0  0  0  0  0  0  0
  183.6830  178.9690  139.7150 C   0  0  0  0  0  3  0  0  0  0  0  0
  188.1620  178.1860  141.4170 C   0  0  0  0  0  3  0  0  0  0  0  0
  184.0520  179.7440  144.3320 C   0  0  0  0  0  2  0  0  0  0  0  0
  183.3470  178.7250  143.4330 C   0  0  1  0  0  3  0  0  0  0  0  0
  186.2770  178.1350  142.9460 C   0  0  0  0  0  0  0  0  0  0  0  0
  183.2030  178.9160  140.9770 N   0  0  0  0  0  0  0  0  0  0  0  0
  179.8660  179.9640  142.4850 C   0  0  0  0  0  0  0  0  0  0  0  0
  179.0780  179.2770  143.4160 C   0  0  0  0  0  3  0  0  0  0  0  0
  181.8600  178.9400  143.4200 C   0  0  0  0  0  0  0  0  0  0  0  0
  179.6770  178.4210  144.3430 C   0  0  0  0  0  3  0  0  0  0  0  0
  181.2530  179.7950  142.4850 C   0  0  0  0  0  3  0  0  0  0  0  0
  181.0660  178.2520  144.3440 C   0  0  0  0  0  3  0  0  0  0  0  0
  179.2840  180.7910  141.5840 F   0  0  0  0  0  0  0  0  0  0  0  0
  185.2660  177.8790  137.1660 C   0  0  0  0  0  1  0  0  0  0  0  0
  185.5250  178.8750  138.1480 O   0  0  0  0  0  0  0  0  0  0  0  0
  186.7590  177.1410  145.2640 C   0  0  0  0  0  2  0  0  0  0  0  0
  187.7220  178.0830  145.8050 N   0  0  0  0  0  2  0  0  0  0  0  0
  188.7050  177.3050  146.5370 C   0  0  0  0  0  2  0  0  0  0  0  0
  191.4010  176.4600  147.7370 O   0  0  0  0  0  0  0  0  0  0  0  0
  190.1050  177.8200  146.2430 C   0  0  1  0  0  3  0  0  0  0  0  0
  191.1310  176.7530  146.5430 C   0  0  0  0  0  0  0  0  0  0  0  0
  191.6650  176.4210  144.2390 C   0  0  0  0  0  3  0  0  0  0  0  0
  190.8620  177.5990  143.8760 C   0  0  0  0  0  3  0  0  0  0  0  0
  190.1640  178.2590  144.8040 C   0  0  0  0  0  3  0  0  0  0  0  0
  191.7860  176.0510  145.4780 N   0  0  0  0  0  0  0  0  0  0  0  0
  1 10  2  0  0  0  0
  1  7  1  0  0  0  0
  2  7  2  0  0  0  0
  2 11  1  0  0  0  0
  3  9  1  0  0  0  0
  3 14  2  0  0  0  0
  5  2  1  0  0  0  0
  6 14  1  0  0  0  0
  7  3  1  0  0  0  0
  8  4  1  0  0  0  0
  8 25  1  1  0  0  0
  9 13  1  0  0  0  0
 10 15  1  0  0  0  0
 11  6  2  0  0  0  0
 12  4  1  0  0  0  0
 13 18  1  6  0  0  0
 13 12  1  0  0  0  0
 14  8  1  0  0  0  0
 15  9  2  0  0  0  0
 16 17  1  0  0  0  0
 17 19  2  0  0  0  0
 18 21  2  0  0  0  0
 19 21  1  0  0  0  0
 20 16  2  0  0  0  0
 20 18  1  0  0  0  0
 22 16  1  0  0  0  0
 23 24  1  0  0  0  0
 24  1  1  0  0  0  0
 25 26  1  0  0  0  0
 26 27  1  0  0  0  0
 29 27  1  6  0  0  0
 29 30  1  0  0  0  0
 30 28  2  0  0  0  0
 31 34  2  0  0  0  0
 32 31  1  0  0  0  0
 32 33  2  0  0  0  0
 33 29  1  0  0  0  0
 34 30  1  0  0  0  0
M  END
>  <MODEL>
4

>  <REMARK>
 VINA RESULT:      -9.0      2.813      5.495
  Name = 
  6 active torsions:
  status: ('A' for Active; 'I' for Inactive)
    1  A    between atoms: C_1  and  O_19
    2  A    between atoms: C_3  and  C_13
    3  A    between atoms: C_3  and  N_17
    4  A    between atoms: C_12  and  C_28
    5  A    between atoms: N_17  and  C_29
    6  A    between atoms: C_18  and  C_29
                            x       y       z     vdW  Elec       q    Type
                         _______ _______ _______ _____ _____    ______ ____

>  <TORSDO>
F 6

$$$$
=
 OpenBabel11052414003D

 34 38  0  0  1  0  0  0  0  0999 V2000
  191.2350  177.3530  140.7200 C   0  0  0  0  0  0  0  0  0  0  0  0
  189.3590  177.7830  139.1810 C   0  0  0  0  0  0  0  0  0  0  0  0
  188.9990  177.8500  141.6130 C   0  0  0  0  0  0  0  0  0  0  0  0
  186.2870  177.3310  143.3030 C   0  0  0  0  0  2  0  0  0  0  0  0
  190.1590  177.5980  138.0590 O   0  0  0  0  0  1  0  0  0  0  0  0
  187.1740  178.2980  140.0530 C   0  0  0  0  0  3  0  0  0  0  0  0
  189.8750  177.6640  140.4950 C   0  0  0  0  0  0  0  0  0  0  0  0
  186.6840  178.5640  142.4980 C   0  0  1  0  0  3  0  0  0  0  0  0
  189.5220  177.6280  142.9240 C   0  0  0  0  0  0  0  0  0  0  0  0
  191.6880  177.1970  142.0300 C   0  0  0  0  0  3  0  0  0  0  0  0
  188.0180  178.0800  138.9770 C   0  0  0  0  0  3  0  0  0  0  0  0
  187.4720  176.6990  144.0370 C   0  0  0  0  0  2  0  0  0  0  0  0
  188.6530  177.6620  144.1680 C   0  0  1  0  0  3  0  0  0  0  0  0
  187.6410  178.2230  141.3710 C   0  0  0  0  0  0  0  0  0  0  0  0
  190.8400  177.3260  143.0740 N   0  0  0  0  0  0  0  0  0  0  0  0
  191.3310  176.6490  146.6890 C   0  0  0  0  0  0  0  0  0  0  0  0
  190.7570  177.1020  147.8820 C   0  0  0  0  0  3  0  0  0  0  0  0
  189.3970  177.4470  145.4570 C   0  0  0  0  0  0  0  0  0  0  0  0
  189.5090  177.7300  147.8630 C   0  0  0  0  0  3  0  0  0  0  0  0
  190.6540  176.8210  145.4780 C   0  0  0  0  0  3  0  0  0  0  0  0
  188.8310  177.9040  146.6520 C   0  0  0  0  0  3  0  0  0  0  0  0
  192.5420  176.0420  146.7080 F   0  0  0  0  0  0  0  0  0  0  0  0
  193.5400  177.2030  139.8100 C   0  0  0  0  0  1  0  0  0  0  0  0
  192.1270  177.1990  139.6500 O   0  0  0  0  0  0  0  0  0  0  0  0
  185.4470  179.3520  142.0790 C   0  0  0  0  0  2  0  0  0  0  0  0
  184.2530  178.5900  142.3990 N   0  0  0  0  0  2  0  0  0  0  0  0
  183.7470  178.0580  141.1460 C   0  0  0  0  0  2  0  0  0  0  0  0
  184.1530  180.2460  139.0310 O   0  0  0  0  0  0  0  0  0  0  0  0
  182.7400  179.0220  140.5370 C   0  0  1  0  0  3  0  0  0  0  0  0
  183.1880  179.4480  139.1590 C   0  0  0  0  0  0  0  0  0  0  0  0
  181.4440  178.2380  138.0650 C   0  0  0  0  0  3  0  0  0  0  0  0
  180.8080  177.9670  139.3630 C   0  0  0  0  0  3  0  0  0  0  0  0
  181.3920  178.3510  140.5010 C   0  0  0  0  0  3  0  0  0  0  0  0
  182.5390  178.9330  137.9900 N   0  0  0  0  0  0  0  0  0  0  0  0
  1 10  1  0  0  0  0
  2  7  1  0  0  0  0
  3  9  2  0  0  0  0
  4 12  1  0  0  0  0
  5  2  1  0  0  0  0
  6 14  2  0  0  0  0
  7  1  2  0  0  0  0
  7  3  1  0  0  0  0
  8 25  1  6  0  0  0
  8  4  1  0  0  0  0
  9 15  1  0  0  0  0
  9 13  1  0  0  0  0
 10 15  2  0  0  0  0
 11  2  2  0  0  0  0
 11  6  1  0  0  0  0
 12 13  1  0  0  0  0
 13 18  1  1  0  0  0
 14  3  1  0  0  0  0
 14  8  1  0  0  0  0
 16 22  1  0  0  0  0
 16 17  1  0  0  0  0
 18 20  1  0  0  0  0
 18 21  2  0  0  0  0
 19 17  2  0  0  0  0
 20 16  2  0  0  0  0
 21 19  1  0  0  0  0
 24 23  1  0  0  0  0
 24  1  1  0  0  0  0
 25 26  1  0  0  0  0
 27 26  1  0  0  0  0
 28 30  2  0  0  0  0
 29 27  1  6  0  0  0
 30 29  1  0  0  0  0
 31 32  1  0  0  0  0
 32 33  2  0  0  0  0
 33 29  1  0  0  0  0
 34 31  2  0  0  0  0
 34 30  1  0  0  0  0
M  END
>  <MODEL>
5

>  <REMARK>
 VINA RESULT:      -8.9      3.216      8.245
  Name = 
  6 active torsions:
  status: ('A' for Active; 'I' for Inactive)
    1  A    between atoms: C_1  and  O_19
    2  A    between atoms: C_3  and  C_13
    3  A    between atoms: C_3  and  N_17
    4  A    between atoms: C_12  and  C_28
    5  A    between atoms: N_17  and  C_29
    6  A    between atoms: C_18  and  C_29
                            x       y       z     vdW  Elec       q    Type
                         _______ _______ _______ _____ _____    ______ ____

>  <TORSDO>
F 6

$$$$
=
 OpenBabel11052414003D

 34 38  0  0  1  0  0  0  0  0999 V2000
  189.3820  177.6720  140.7600 C   0  0  0  0  0  0  0  0  0  0  0  0
  187.1450  178.2710  139.9180 C   0  0  0  0  0  0  0  0  0  0  0  0
  187.5670  178.1800  142.3390 C   0  0  0  0  0  0  0  0  0  0  0  0
  185.4950  177.6350  144.7660 C   0  0  0  0  0  2  0  0  0  0  0  0
  187.5430  178.1390  138.5930 O   0  0  0  0  0  1  0  0  0  0  0  0
  185.3730  178.7980  141.4620 C   0  0  0  0  0  3  0  0  0  0  0  0
  188.0380  178.0430  140.9940 C   0  0  0  0  0  0  0  0  0  0  0  0
  185.6870  178.9070  143.9480 C   0  0  1  0  0  3  0  0  0  0  0  0
  188.4610  177.8490  143.4030 C   0  0  0  0  0  0  0  0  0  0  0  0
  190.2120  177.4090  141.8490 C   0  0  0  0  0  3  0  0  0  0  0  0
  185.8250  178.6280  140.1640 C   0  0  0  0  0  3  0  0  0  0  0  0
  186.8140  176.9120  145.0520 C   0  0  0  0  0  2  0  0  0  0  0  0
  188.0270  177.8240  144.8580 C   0  0  1  0  0  3  0  0  0  0  0  0
  186.2230  178.6140  142.5590 C   0  0  0  0  0  0  0  0  0  0  0  0
  189.7410  177.4920  143.1130 N   0  0  0  0  0  0  0  0  0  0  0  0
  191.3030  176.5520  146.3430 C   0  0  0  0  0  0  0  0  0  0  0  0
  191.1540  176.9340  147.6810 C   0  0  0  0  0  3  0  0  0  0  0  0
  189.1240  177.4940  145.8320 C   0  0  0  0  0  0  0  0  0  0  0  0
  189.9950  177.5970  148.0940 C   0  0  0  0  0  3  0  0  0  0  0  0
  190.2930  176.8320  145.4190 C   0  0  0  0  0  3  0  0  0  0  0  0
  188.9830  177.8780  147.1700 C   0  0  0  0  0  3  0  0  0  0  0  0
  192.4280  175.9110  145.9440 F   0  0  0  0  0  0  0  0  0  0  0  0
  191.1370  176.9600  139.1540 C   0  0  0  0  0  1  0  0  0  0  0  0
  189.8850  177.5630  139.4560 O   0  0  0  0  0  0  0  0  0  0  0  0
  184.4260  179.7640  143.9860 C   0  0  0  0  0  2  0  0  0  0  0  0
  183.3090  178.9660  144.4580 N   0  0  0  0  0  2  0  0  0  0  0  0
  182.1230  179.4600  143.7800 C   0  0  0  0  0  2  0  0  0  0  0  0
  179.6810  177.6870  144.3430 O   0  0  0  0  0  0  0  0  0  0  0  0
  181.5060  178.3560  142.9340 C   0  0  1  0  0  3  0  0  0  0  0  0
  180.0370  178.2090  143.2540 C   0  0  0  0  0  0  0  0  0  0  0  0
  179.3470  179.0790  141.1390 C   0  0  0  0  0  3  0  0  0  0  0  0
  180.7380  179.0400  140.6610 C   0  0  0  0  0  3  0  0  0  0  0  0
  181.7300  178.6820  141.4810 C   0  0  0  0  0  3  0  0  0  0  0  0
  179.0410  178.6810  142.3380 N   0  0  0  0  0  0  0  0  0  0  0  0
  1  7  2  0  0  0  0
  1 10  1  0  0  0  0
  2 11  2  0  0  0  0
  2  7  1  0  0  0  0
  3 14  1  0  0  0  0
  3  9  2  0  0  0  0
  4 12  1  0  0  0  0
  5  2  1  0  0  0  0
  6 14  2  0  0  0  0
  7  3  1  0  0  0  0
  8 25  1  6  0  0  0
  8  4  1  0  0  0  0
  9 13  1  0  0  0  0
 10 15  2  0  0  0  0
 11  6  1  0  0  0  0
 13 12  1  0  0  0  0
 13 18  1  1  0  0  0
 14  8  1  0  0  0  0
 15  9  1  0  0  0  0
 16 17  1  0  0  0  0
 17 19  2  0  0  0  0
 18 21  2  0  0  0  0
 20 18  1  0  0  0  0
 20 16  2  0  0  0  0
 21 19  1  0  0  0  0
 22 16  1  0  0  0  0
 23 24  1  0  0  0  0
 24  1  1  0  0  0  0
 25 26  1  0  0  0  0
 27 26  1  0  0  0  0
 29 30  1  0  0  0  0
 29 27  1  1  0  0  0
 30 28  2  0  0  0  0
 31 34  2  0  0  0  0
 32 31  1  0  0  0  0
 32 33  2  0  0  0  0
 33 29  1  0  0  0  0
 34 30  1  0  0  0  0
M  END
>  <MODEL>
6

>  <REMARK>
 VINA RESULT:      -8.8      3.104      7.785
  Name = 
  6 active torsions:
  status: ('A' for Active; 'I' for Inactive)
    1  A    between atoms: C_1  and  O_19
    2  A    between atoms: C_3  and  C_13
    3  A    between atoms: C_3  and  N_17
    4  A    between atoms: C_12  and  C_28
    5  A    between atoms: N_17  and  C_29
    6  A    between atoms: C_18  and  C_29
                            x       y       z     vdW  Elec       q    Type
                         _______ _______ _______ _____ _____    ______ ____

>  <TORSDO>
F 6

$$$$
=
 OpenBabel11052414003D

 34 38  0  0  1  0  0  0  0  0999 V2000
  189.0930  177.1280  145.8980 C   0  0  0  0  0  0  0  0  0  0  0  0
  187.0310  177.8730  147.0230 C   0  0  0  0  0  0  0  0  0  0  0  0
  187.1370  177.8000  144.5680 C   0  0  0  0  0  0  0  0  0  0  0  0
  185.4680  179.5160  142.3870 C   0  0  0  0  0  2  0  0  0  0  0  0
  187.5890  177.7060  148.2860 O   0  0  0  0  0  1  0  0  0  0  0  0
  185.1040  178.5050  145.7230 C   0  0  0  0  0  3  0  0  0  0  0  0
  187.7590  177.5940  145.8410 C   0  0  0  0  0  0  0  0  0  0  0  0
  185.0000  178.3300  143.2240 C   0  0  1  0  0  3  0  0  0  0  0  0
  187.9250  177.6050  143.3920 C   0  0  0  0  0  0  0  0  0  0  0  0
  189.7870  176.9130  144.7080 C   0  0  0  0  0  3  0  0  0  0  0  0
  185.7240  178.3390  146.9500 C   0  0  0  0  0  3  0  0  0  0  0  0
  186.9180  179.3720  141.9190 C   0  0  0  0  0  2  0  0  0  0  0  0
  187.4120  177.9260  141.9990 C   0  0  1  0  0  3  0  0  0  0  0  0
  185.7700  178.2140  144.5260 C   0  0  0  0  0  0  0  0  0  0  0  0
  189.2050  177.1600  143.5130 N   0  0  0  0  0  0  0  0  0  0  0  0
  188.9790  177.5890  138.5380 C   0  0  0  0  0  0  0  0  0  0  0  0
  190.2240  177.0390  138.8620 C   0  0  0  0  0  3  0  0  0  0  0  0
  188.3760  177.6120  140.8900 C   0  0  0  0  0  0  0  0  0  0  0  0
  190.5460  176.7780  140.1970 C   0  0  0  0  0  3  0  0  0  0  0  0
  188.0570  177.8770  139.5480 C   0  0  0  0  0  3  0  0  0  0  0  0
  189.6250  177.0660  141.2090 C   0  0  0  0  0  3  0  0  0  0  0  0
  188.6680  177.8440  137.2440 F   0  0  0  0  0  0  0  0  0  0  0  0
  191.1290  176.7500  147.2670 C   0  0  0  0  0  1  0  0  0  0  0  0
  189.7200  176.8830  147.1260 O   0  0  0  0  0  0  0  0  0  0  0  0
  183.4820  178.3430  143.3690 C   0  0  0  0  0  2  0  0  0  0  0  0
  182.8940  179.0860  142.2690 N   0  0  0  0  0  2  0  0  0  0  0  0
  181.8020  178.2780  141.7540 C   0  0  0  0  0  2  0  0  0  0  0  0
  180.9440  180.3000  139.6090 O   0  0  0  0  0  0  0  0  0  0  0  0
  181.8900  178.1850  140.2380 C   0  0  1  0  0  3  0  0  0  0  0  0
  181.9660  179.5660  139.6310 C   0  0  0  0  0  0  0  0  0  0  0  0
  184.2390  179.2930  138.9510 C   0  0  0  0  0  3  0  0  0  0  0  0
  184.1820  177.8660  139.3070 C   0  0  0  0  0  3  0  0  0  0  0  0
  183.0890  177.3500  139.8770 C   0  0  0  0  0  3  0  0  0  0  0  0
  183.2020  180.0600  139.0990 N   0  0  0  0  0  0  0  0  0  0  0  0
  1 24  1  0  0  0  0
  2  5  1  0  0  0  0
  3  7  1  0  0  0  0
  4  8  1  0  0  0  0
  6 11  2  0  0  0  0
  7  1  1  0  0  0  0
  7  2  2  0  0  0  0
  8 25  1  1  0  0  0
  8 14  1  0  0  0  0
  9 15  2  0  0  0  0
  9  3  1  0  0  0  0
 10  1  2  0  0  0  0
 11  2  1  0  0  0  0
 12 13  1  0  0  0  0
 12  4  1  0  0  0  0
 13 18  1  6  0  0  0
 13  9  1  0  0  0  0
 14  3  2  0  0  0  0
 14  6  1  0  0  0  0
 15 10  1  0  0  0  0
 16 17  2  0  0  0  0
 16 20  1  0  0  0  0
 17 19  1  0  0  0  0
 18 21  1  0  0  0  0
 19 21  2  0  0  0  0
 20 18  2  0  0  0  0
 22 16  1  0  0  0  0
 24 23  1  0  0  0  0
 26 25  1  0  0  0  0
 27 26  1  0  0  0  0
 28 30  2  0  0  0  0
 29 27  1  1  0  0  0
 30 29  1  0  0  0  0
 31 34  2  0  0  0  0
 31 32  1  0  0  0  0
 32 33  2  0  0  0  0
 33 29  1  0  0  0  0
 34 30  1  0  0  0  0
M  END
>  <MODEL>
7

>  <REMARK>
 VINA RESULT:      -8.8      1.912      6.914
  Name = 
  6 active torsions:
  status: ('A' for Active; 'I' for Inactive)
    1  A    between atoms: C_1  and  O_19
    2  A    between atoms: C_3  and  C_13
    3  A    between atoms: C_3  and  N_17
    4  A    between atoms: C_12  and  C_28
    5  A    between atoms: N_17  and  C_29
    6  A    between atoms: C_18  and  C_29
                            x       y       z     vdW  Elec       q    Type
                         _______ _______ _______ _____ _____    ______ ____

>  <TORSDO>
F 6

$$$$
=
 OpenBabel11052414003D

 34 38  0  0  1  0  0  0  0  0999 V2000
  187.2880  177.9790  146.0360 C   0  0  0  0  0  0  0  0  0  0  0  0
  184.8770  178.4890  146.0550 C   0  0  0  0  0  0  0  0  0  0  0  0
  186.0350  178.0860  143.9240 C   0  0  0  0  0  0  0  0  0  0  0  0
  185.2950  179.1400  140.9530 C   0  0  0  0  0  2  0  0  0  0  0  0
  184.8530  178.6080  147.4400 O   0  0  0  0  0  1  0  0  0  0  0  0
  183.6410  178.5660  143.9890 C   0  0  0  0  0  3  0  0  0  0  0  0
  186.0680  178.1810  145.3520 C   0  0  0  0  0  0  0  0  0  0  0  0
  184.6400  178.0200  141.7550 C   0  0  1  0  0  3  0  0  0  0  0  0
  187.2680  177.8730  143.2330 C   0  0  0  0  0  0  0  0  0  0  0  0
  188.4450  177.7280  145.2990 C   0  0  0  0  0  3  0  0  0  0  0  0
  183.6880  178.6920  145.3680 C   0  0  0  0  0  3  0  0  0  0  0  0
  186.8120  179.1970  141.1490 C   0  0  0  0  0  2  0  0  0  0  0  0
  187.3720  177.8930  141.7180 C   0  0  1  0  0  3  0  0  0  0  0  0
  184.7830  178.2340  143.2500 C   0  0  0  0  0  0  0  0  0  0  0  0
  188.4100  177.6910  143.9490 N   0  0  0  0  0  0  0  0  0  0  0  0
  191.1310  177.2770  141.5050 C   0  0  0  0  0  0  0  0  0  0  0  0
  191.2810  177.0270  140.1370 C   0  0  0  0  0  3  0  0  0  0  0  0
  188.7460  177.6050  141.1820 C   0  0  0  0  0  0  0  0  0  0  0  0
  190.1680  177.0620  139.2930 C   0  0  0  0  0  3  0  0  0  0  0  0
  189.8670  177.5630  142.0290 C   0  0  0  0  0  3  0  0  0  0  0  0
  188.9030  177.3480  139.8160 C   0  0  0  0  0  3  0  0  0  0  0  0
  192.2100  177.2410  142.3230 F   0  0  0  0  0  0  0  0  0  0  0  0
  188.5570  178.2450  148.1530 C   0  0  0  0  0  1  0  0  0  0  0  0
  187.3490  178.0310  147.4350 O   0  0  0  0  0  0  0  0  0  0  0  0
  183.2150  177.7770  141.2700 C   0  0  0  0  0  2  0  0  0  0  0  0
  182.6860  178.9930  140.6800 N   0  0  0  0  0  2  0  0  0  0  0  0
  181.6380  178.5910  139.7590 C   0  0  0  0  0  2  0  0  0  0  0  0
  179.1780  176.8080  140.1990 O   0  0  0  0  0  0  0  0  0  0  0  0
  180.2740  178.9400  140.3350 C   0  0  1  0  0  3  0  0  0  0  0  0
  179.6330  177.7150  140.9440 C   0  0  0  0  0  0  0  0  0  0  0  0
  179.8630  178.5340  143.1750 C   0  0  0  0  0  3  0  0  0  0  0  0
  180.2820  179.8460  142.6580 C   0  0  0  0  0  3  0  0  0  0  0  0
  180.4460  180.0410  141.3470 C   0  0  0  0  0  3  0  0  0  0  0  0
  179.5580  177.5640  142.3670 N   0  0  0  0  0  0  0  0  0  0  0  0
  1 24  1  0  0  0  0
  2  5  1  0  0  0  0
  3  7  1  0  0  0  0
  4 12  1  0  0  0  0
  4  8  1  0  0  0  0
  6 11  2  0  0  0  0
  7  1  1  0  0  0  0
  7  2  2  0  0  0  0
  8 25  1  1  0  0  0
  8 14  1  0  0  0  0
  9  3  1  0  0  0  0
  9 15  2  0  0  0  0
 10  1  2  0  0  0  0
 11  2  1  0  0  0  0
 12 13  1  0  0  0  0
 13 18  1  1  0  0  0
 13  9  1  0  0  0  0
 14  3  2  0  0  0  0
 14  6  1  0  0  0  0
 15 10  1  0  0  0  0
 16 20  1  0  0  0  0
 16 22  1  0  0  0  0
 17 16  2  0  0  0  0
 18 20  2  0  0  0  0
 19 21  2  0  0  0  0
 19 17  1  0  0  0  0
 21 18  1  0  0  0  0
 24 23  1  0  0  0  0
 26 25  1  0  0  0  0
 27 26  1  0  0  0  0
 28 30  2  0  0  0  0
 29 27  1  1  0  0  0
 29 30  1  0  0  0  0
 29 33  1  0  0  0  0
 30 34  1  0  0  0  0
 32 31  1  0  0  0  0
 33 32  2  0  0  0  0
 34 31  2  0  0  0  0
M  END
>  <MODEL>
8

>  <REMARK>
 VINA RESULT:      -8.8      2.631      7.425
  Name = 
  6 active torsions:
  status: ('A' for Active; 'I' for Inactive)
    1  A    between atoms: C_1  and  O_19
    2  A    between atoms: C_3  and  C_13
    3  A    between atoms: C_3  and  N_17
    4  A    between atoms: C_12  and  C_28
    5  A    between atoms: N_17  and  C_29
    6  A    between atoms: C_18  and  C_29
                            x       y       z     vdW  Elec       q    Type
                         _______ _______ _______ _____ _____    ______ ____

>  <TORSDO>
F 6

$$$$
=
 OpenBabel11052414003D

 34 38  0  0  1  0  0  0  0  0999 V2000
  191.1870  177.3440  140.6740 C   0  0  0  0  0  0  0  0  0  0  0  0
  189.3160  177.7700  139.1280 C   0  0  0  0  0  0  0  0  0  0  0  0
  188.9480  177.8430  141.5580 C   0  0  0  0  0  0  0  0  0  0  0  0
  186.2300  177.3280  143.2400 C   0  0  0  0  0  2  0  0  0  0  0  0
  190.1200  177.5830  138.0090 O   0  0  0  0  0  1  0  0  0  0  0  0
  187.1280  178.2870  139.9910 C   0  0  0  0  0  3  0  0  0  0  0  0
  189.8270  177.6540  140.4440 C   0  0  0  0  0  0  0  0  0  0  0  0
  186.6290  178.5580  142.4340 C   0  0  1  0  0  3  0  0  0  0  0  0
  189.4660  177.6240  142.8720 C   0  0  0  0  0  0  0  0  0  0  0  0
  191.6350  177.1910  141.9860 C   0  0  0  0  0  3  0  0  0  0  0  0
  187.9760  178.0670  138.9180 C   0  0  0  0  0  3  0  0  0  0  0  0
  187.4120  176.6960  143.9800 C   0  0  0  0  0  2  0  0  0  0  0  0
  188.5930  177.6600  144.1130 C   0  0  1  0  0  3  0  0  0  0  0  0
  187.5900  178.2140  141.3110 C   0  0  0  0  0  0  0  0  0  0  0  0
  190.7830  177.3210  143.0270 N   0  0  0  0  0  0  0  0  0  0  0  0
  191.2780  176.6860  146.6420 C   0  0  0  0  0  0  0  0  0  0  0  0
  190.6830  177.1080  147.8360 C   0  0  0  0  0  3  0  0  0  0  0  0
  189.3320  177.4480  145.4050 C   0  0  0  0  0  0  0  0  0  0  0  0
  189.4180  177.7010  147.8160 C   0  0  0  0  0  3  0  0  0  0  0  0
  190.6060  176.8570  145.4280 C   0  0  0  0  0  3  0  0  0  0  0  0
  188.7450  177.8720  146.6020 C   0  0  0  0  0  3  0  0  0  0  0  0
  192.5050  176.1140  146.6620 F   0  0  0  0  0  0  0  0  0  0  0  0
  193.4950  177.1880  139.7730 C   0  0  0  0  0  1  0  0  0  0  0  0
  192.0820  177.1870  139.6080 O   0  0  0  0  0  0  0  0  0  0  0  0
  185.3940  179.3450  142.0090 C   0  0  0  0  0  2  0  0  0  0  0  0
  184.2120  178.5170  142.1620 N   0  0  0  0  0  2  0  0  0  0  0  0
  183.2270  179.0120  141.2170 C   0  0  0  0  0  2  0  0  0  0  0  0
  181.8750  178.8470  143.9680 O   0  0  0  0  0  0  0  0  0  0  0  0
  181.8420  178.5070  141.5920 C   0  0  1  0  0  3  0  0  0  0  0  0
  181.3670  179.1710  142.8630 C   0  0  0  0  0  0  0  0  0  0  0  0
  179.6910  180.4450  141.7360 C   0  0  0  0  0  3  0  0  0  0  0  0
  179.9310  179.6820  140.5010 C   0  0  0  0  0  3  0  0  0  0  0  0
  180.9060  178.7710  140.4430 C   0  0  0  0  0  3  0  0  0  0  0  0
  180.3580  180.1870  142.8210 N   0  0  0  0  0  0  0  0  0  0  0  0
  1 10  1  0  0  0  0
  2  7  1  0  0  0  0
  3  9  2  0  0  0  0
  4 12  1  0  0  0  0
  5  2  1  0  0  0  0
  6 14  2  0  0  0  0
  7  1  2  0  0  0  0
  7  3  1  0  0  0  0
  8 25  1  6  0  0  0
  8  4  1  0  0  0  0
  9 15  1  0  0  0  0
  9 13  1  0  0  0  0
 10 15  2  0  0  0  0
 11  2  2  0  0  0  0
 11  6  1  0  0  0  0
 12 13  1  0  0  0  0
 13 18  1  1  0  0  0
 14  3  1  0  0  0  0
 14  8  1  0  0  0  0
 16 22  1  0  0  0  0
 16 17  1  0  0  0  0
 18 20  1  0  0  0  0
 18 21  2  0  0  0  0
 19 17  2  0  0  0  0
 20 16  2  0  0  0  0
 21 19  1  0  0  0  0
 24 23  1  0  0  0  0
 24  1  1  0  0  0  0
 25 26  1  0  0  0  0
 27 26  1  0  0  0  0
 29 27  1  6  0  0  0
 29 30  1  0  0  0  0
 30 28  2  0  0  0  0
 31 34  2  0  0  0  0
 32 31  1  0  0  0  0
 33 32  2  0  0  0  0
 33 29  1  0  0  0  0
 34 30  1  0  0  0  0
M  END
>  <MODEL>
9

>  <REMARK>
 VINA RESULT:      -8.7      3.269      8.298
  Name = 
  6 active torsions:
  status: ('A' for Active; 'I' for Inactive)
    1  A    between atoms: C_1  and  O_19
    2  A    between atoms: C_3  and  C_13
    3  A    between atoms: C_3  and  N_17
    4  A    between atoms: C_12  and  C_28
    5  A    between atoms: N_17  and  C_29
    6  A    between atoms: C_18  and  C_29
                            x       y       z     vdW  Elec       q    Type
                         _______ _______ _______ _____ _____    ______ ____

>  <TORSDO>
F 6

$$$$
