=
 OpenBabel11052413263D

 28 31  0  0  1  0  0  0  0  0999 V2000
  184.7680  179.2640  142.4750 C   0  0  1  0  0  3  0  0  0  0  0  0
  187.3570  177.1200  146.0400 C   0  0  0  0  0  1  0  0  0  0  0  0
  188.1370  177.6440  141.7050 C   0  0  2  0  0  3  0  0  0  0  0  0
  187.4360  177.7150  144.6470 C   0  0  1  0  0  3  0  0  0  0  0  0
  187.1230  178.7680  141.8970 C   0  0  0  0  0  2  0  0  0  0  0  0
  185.2840  179.0290  144.8150 C   0  0  0  0  0  2  0  0  0  0  0  0
  188.2610  176.7850  143.7680 C   0  0  0  0  0  2  0  0  0  0  0  0
  186.0190  177.9200  144.0860 C   0  0  1  0  0  3  0  0  0  0  0  0
  188.9700  177.5400  142.8270 O   0  0  0  0  0  0  0  0  0  0  0  0
  184.1920  179.4650  143.8650 C   0  0  0  0  0  2  0  0  0  0  0  0
  185.8740  178.2270  142.5830 C   0  0  1  0  0  3  0  0  0  0  0  0
  188.3660  178.4310  139.3880 C   0  0  0  0  0  3  0  0  0  0  0  0
  190.6450  176.3120  139.4560 C   0  0  0  0  0  2  0  0  0  0  0  0
  189.5790  177.4250  137.4910 C   0  0  0  0  0  0  0  0  0  0  0  0
  188.9560  177.8690  140.4610 C   0  0  0  0  0  0  0  0  0  0  0  0
  190.9710  177.0950  141.7900 C   0  0  0  0  0  1  0  0  0  0  0  0
  190.8360  176.8160  138.0280 C   0  0  0  0  0  2  0  0  0  0  0  0
  190.4210  177.4710  140.4220 C   0  0  1  0  0  3  0  0  0  0  0  0
  188.8050  176.7240  136.7490 N   0  0  0  0  0  2  0  0  0  0  0  0
  189.0740  178.7000  138.0910 C   0  0  0  0  0  2  0  0  0  0  0  0
  183.7180  178.8710  141.4770 C   0  0  0  0  0  0  0  0  0  0  0  0
  182.5360  178.3000  141.9590 C   0  0  0  0  0  3  0  0  0  0  0  0
  182.8540  178.6880  139.2090 C   0  0  0  0  0  0  0  0  0  0  0  0
  181.5200  177.9230  141.0780 C   0  0  0  0  0  3  0  0  0  0  0  0
  185.0390  179.6380  139.5780 O   0  0  0  0  0  1  0  0  0  0  0  0
  183.8760  179.0680  140.0880 C   0  0  0  0  0  0  0  0  0  0  0  0
  182.9960  178.8730  137.8730 F   0  0  0  0  0  0  0  0  0  0  0  0
  181.6790  178.1170  139.7050 C   0  0  0  0  0  3  0  0  0  0  0  0
  1 21  1  6  0  0  0
  1 11  1  0  0  0  0
  1 10  1  0  0  0  0
  3 15  1  6  0  0  0
  3  5  1  0  0  0  0
  3  9  1  0  0  0  0
  4  2  1  1  0  0  0
  7  4  1  0  0  0  0
  8  4  1  0  0  0  0
  8  6  1  1  0  0  0
  9  7  1  0  0  0  0
 10  6  1  0  0  0  0
 11  5  1  1  0  0  0
 11  8  1  0  0  0  0
 12 15  2  0  0  0  0
 13 18  1  0  0  0  0
 14 17  1  0  0  0  0
 14 20  1  0  0  0  0
 17 13  1  0  0  0  0
 18 15  1  0  0  0  0
 18 16  1  1  0  0  0
 19 14  2  0  0  0  0
 20 12  1  0  0  0  0
 21 22  1  0  0  0  0
 23 28  2  0  0  0  0
 23 26  1  0  0  0  0
 24 22  2  0  0  0  0
 25 26  1  0  0  0  0
 26 21  2  0  0  0  0
 27 23  1  0  0  0  0
 28 24  1  0  0  0  0
M  END
>  <MODEL>
1

>  <REMARK>
 VINA RESULT:      -9.4      0.000      0.000
  Name = 
  2 active torsions:
  status: ('A' for Active; 'I' for Inactive)
    1  A    between atoms: C_1  and  C_2
    2  A    between atoms: C_10  and  C_13
                            x       y       z     vdW  Elec       q    Type
                         _______ _______ _______ _____ _____    ______ ____

>  <TORSDO>
F 2

$$$$
=
 OpenBabel11052413263D

 28 31  0  0  1  0  0  0  0  0999 V2000
  184.7020  179.2600  142.6650 C   0  0  1  0  0  3  0  0  0  0  0  0
  186.6420  177.3700  146.7480 C   0  0  0  0  0  1  0  0  0  0  0  0
  188.1660  177.6570  142.5920 C   0  0  2  0  0  3  0  0  0  0  0  0
  186.9590  177.8850  145.3580 C   0  0  1  0  0  3  0  0  0  0  0  0
  187.1270  178.7720  142.5370 C   0  0  0  0  0  2  0  0  0  0  0  0
  184.8030  179.1690  145.0680 C   0  0  0  0  0  2  0  0  0  0  0  0
  187.9330  176.9200  144.6930 C   0  0  0  0  0  2  0  0  0  0  0  0
  185.6620  178.0330  144.5470 C   0  0  1  0  0  3  0  0  0  0  0  0
  188.7900  177.6320  143.8470 O   0  0  0  0  0  0  0  0  0  0  0  0
  183.8910  179.5310  143.9180 C   0  0  0  0  0  2  0  0  0  0  0  0
  185.7800  178.2500  143.0260 C   0  0  1  0  0  3  0  0  0  0  0  0
  188.8190  177.6020  140.2240 C   0  0  0  0  0  3  0  0  0  0  0  0
  191.5900  177.1040  141.5480 C   0  0  0  0  0  2  0  0  0  0  0  0
  190.8890  176.7710  139.1750 C   0  0  0  0  0  0  0  0  0  0  0  0
  189.1890  177.8250  141.5000 C   0  0  0  0  0  0  0  0  0  0  0  0
  190.7750  178.6880  143.2780 C   0  0  0  0  0  1  0  0  0  0  0  0
  192.0270  177.1110  140.0860 C   0  0  0  0  0  2  0  0  0  0  0  0
  190.6120  178.2380  141.8340 C   0  0  1  0  0  3  0  0  0  0  0  0
  190.7590  175.5700  138.7490 N   0  0  0  0  0  2  0  0  0  0  0  0
  189.7460  177.7300  139.0500 C   0  0  0  0  0  2  0  0  0  0  0  0
  183.8470  178.7920  141.5240 C   0  0  0  0  0  0  0  0  0  0  0  0
  182.5890  178.2590  141.8230 C   0  0  0  0  0  3  0  0  0  0  0  0
  183.4080  178.4370  139.1560 C   0  0  0  0  0  0  0  0  0  0  0  0
  181.7450  177.8160  140.8020 C   0  0  0  0  0  3  0  0  0  0  0  0
  185.5020  179.4120  139.8460 O   0  0  0  0  0  1  0  0  0  0  0  0
  184.2580  178.8830  140.1760 C   0  0  0  0  0  0  0  0  0  0  0  0
  183.7940  178.5200  137.8590 F   0  0  0  0  0  0  0  0  0  0  0  0
  182.1550  177.9050  139.4710 C   0  0  0  0  0  3  0  0  0  0  0  0
  1 21  1  6  0  0  0
  1 11  1  0  0  0  0
  1 10  1  0  0  0  0
  3 15  1  6  0  0  0
  3  9  1  0  0  0  0
  4  2  1  1  0  0  0
  5  3  1  0  0  0  0
  7  4  1  0  0  0  0
  8  6  1  1  0  0  0
  8  4  1  0  0  0  0
  9  7  1  0  0  0  0
 10  6  1  0  0  0  0
 11  5  1  1  0  0  0
 11  8  1  0  0  0  0
 12 15  2  0  0  0  0
 13 18  1  0  0  0  0
 14 17  1  0  0  0  0
 15 18  1  0  0  0  0
 17 13  1  0  0  0  0
 18 16  1  1  0  0  0
 19 14  2  0  0  0  0
 20 14  1  0  0  0  0
 20 12  1  0  0  0  0
 21 22  1  0  0  0  0
 23 28  2  0  0  0  0
 23 26  1  0  0  0  0
 24 22  2  0  0  0  0
 25 26  1  0  0  0  0
 26 21  2  0  0  0  0
 27 23  1  0  0  0  0
 28 24  1  0  0  0  0
M  END
>  <MODEL>
2

>  <REMARK>
 VINA RESULT:      -9.0      1.048      1.288
  Name = 
  2 active torsions:
  status: ('A' for Active; 'I' for Inactive)
    1  A    between atoms: C_1  and  C_2
    2  A    between atoms: C_10  and  C_13
                            x       y       z     vdW  Elec       q    Type
                         _______ _______ _______ _____ _____    ______ ____

>  <TORSDO>
F 2

$$$$
=
 OpenBabel11052413263D

 28 31  0  0  1  0  0  0  0  0999 V2000
  187.4800  176.9740  142.8460 C   0  0  1  0  0  3  0  0  0  0  0  0
  185.6430  179.2430  146.7810 C   0  0  0  0  0  1  0  0  0  0  0  0
  184.1290  178.7880  142.6360 C   0  0  2  0  0  3  0  0  0  0  0  0
  185.3010  178.6610  145.4220 C   0  0  1  0  0  3  0  0  0  0  0  0
  185.0940  177.6070  142.6620 C   0  0  0  0  0  2  0  0  0  0  0  0
  187.3710  177.2250  145.2370 C   0  0  0  0  0  2  0  0  0  0  0  0
  184.3960  179.6420  144.6880 C   0  0  0  0  0  2  0  0  0  0  0  0
  186.5910  178.3780  144.6360 C   0  0  1  0  0  3  0  0  0  0  0  0
  183.5000  178.9340  143.8790 O   0  0  0  0  0  0  0  0  0  0  0  0
  188.2650  176.7320  144.1220 C   0  0  0  0  0  2  0  0  0  0  0  0
  186.4690  178.0720  143.1310 C   0  0  1  0  0  3  0  0  0  0  0  0
  181.8280  178.3540  141.8900 C   0  0  0  0  0  3  0  0  0  0  0  0
  183.3890  177.3960  139.3740 C   0  0  0  0  0  2  0  0  0  0  0  0
  181.0080  176.9880  140.0080 C   0  0  0  0  0  0  0  0  0  0  0  0
  183.1040  178.6170  141.5460 C   0  0  0  0  0  0  0  0  0  0  0  0
  184.9110  179.2860  139.9010 C   0  0  0  0  0  1  0  0  0  0  0  0
  181.9680  177.1600  138.8720 C   0  0  0  0  0  2  0  0  0  0  0  0
  183.5030  178.7400  140.0860 C   0  0  1  0  0  3  0  0  0  0  0  0
  180.6790  175.8090  140.3830 N   0  0  0  0  0  2  0  0  0  0  0  0
  180.7180  178.1560  140.8980 C   0  0  0  0  0  2  0  0  0  0  0  0
  188.3710  177.3110  141.6860 C   0  0  0  0  0  0  0  0  0  0  0  0
  187.9270  178.2790  140.7790 C   0  0  0  0  0  3  0  0  0  0  0  0
  190.4170  177.0690  140.3900 C   0  0  0  0  0  0  0  0  0  0  0  0
  188.7170  178.6410  139.6850 C   0  0  0  0  0  3  0  0  0  0  0  0
  190.1000  175.7390  142.3750 O   0  0  0  0  0  1  0  0  0  0  0  0
  189.6300  176.7020  141.4890 C   0  0  0  0  0  0  0  0  0  0  0  0
  191.6260  176.4890  140.1920 F   0  0  0  0  0  0  0  0  0  0  0  0
  189.9600  178.0360  139.4910 C   0  0  0  0  0  3  0  0  0  0  0  0
  1 21  1  6  0  0  0
  1 11  1  0  0  0  0
  1 10  1  0  0  0  0
  3 15  1  6  0  0  0
  3  5  1  0  0  0  0
  3  9  1  0  0  0  0
  4  2  1  1  0  0  0
  7  4  1  0  0  0  0
  8  6  1  1  0  0  0
  8  4  1  0  0  0  0
  9  7  1  0  0  0  0
 10  6  1  0  0  0  0
 11  5  1  1  0  0  0
 11  8  1  0  0  0  0
 13 18  1  0  0  0  0
 14 19  2  0  0  0  0
 14 20  1  0  0  0  0
 15 12  2  0  0  0  0
 17 13  1  0  0  0  0
 17 14  1  0  0  0  0
 18 16  1  1  0  0  0
 18 15  1  0  0  0  0
 20 12  1  0  0  0  0
 22 21  2  0  0  0  0
 23 26  2  0  0  0  0
 24 22  1  0  0  0  0
 26 21  1  0  0  0  0
 26 25  1  0  0  0  0
 27 23  1  0  0  0  0
 28 24  2  0  0  0  0
 28 23  1  0  0  0  0
M  END
>  <MODEL>
3

>  <REMARK>
 VINA RESULT:      -9.0      2.806      6.285
  Name = 
  2 active torsions:
  status: ('A' for Active; 'I' for Inactive)
    1  A    between atoms: C_1  and  C_2
    2  A    between atoms: C_10  and  C_13
                            x       y       z     vdW  Elec       q    Type
                         _______ _______ _______ _____ _____    ______ ____

>  <TORSDO>
F 2

$$$$
=
 OpenBabel11052413263D

 28 31  0  0  1  0  0  0  0  0999 V2000
  182.9890  178.3960  139.4880 C   0  0  1  0  0  3  0  0  0  0  0  0
  180.0290  179.4570  143.2460 C   0  0  0  0  0  1  0  0  0  0  0  0
  184.3140  178.3200  143.0670 C   0  0  2  0  0  3  0  0  0  0  0  0
  181.4780  179.3460  142.8120 C   0  0  1  0  0  3  0  0  0  0  0  0
  184.1450  178.8210  141.6360 C   0  0  0  0  0  2  0  0  0  0  0  0
  181.0080  179.4700  140.3330 C   0  0  0  0  0  2  0  0  0  0  0  0
  182.2550  178.6100  143.8970 C   0  0  0  0  0  2  0  0  0  0  0  0
  181.5640  178.6200  141.4590 C   0  0  1  0  0  3  0  0  0  0  0  0
  183.5620  179.1060  143.9510 O   0  0  0  0  0  0  0  0  0  0  0  0
  181.6190  178.9000  139.0730 C   0  0  0  0  0  2  0  0  0  0  0  0
  182.9480  178.1360  140.9850 C   0  0  1  0  0  3  0  0  0  0  0  0
  186.7040  178.2280  142.5050 C   0  0  0  0  0  3  0  0  0  0  0  0
  186.8020  177.1340  145.4170 C   0  0  0  0  0  2  0  0  0  0  0  0
  188.5470  177.0400  143.6330 C   0  0  0  0  0  0  0  0  0  0  0  0
  185.7650  178.3220  143.4670 C   0  0  0  0  0  0  0  0  0  0  0  0
  184.9920  178.7810  145.8370 C   0  0  0  0  0  1  0  0  0  0  0  0
  188.2960  177.1100  145.1070 C   0  0  0  0  0  2  0  0  0  0  0  0
  186.1610  178.4290  144.9290 C   0  0  1  0  0  3  0  0  0  0  0  0
  188.7890  175.9070  143.0860 N   0  0  0  0  0  2  0  0  0  0  0  0
  188.1810  178.2120  142.7770 C   0  0  0  0  0  2  0  0  0  0  0  0
  183.4060  177.1800  138.7130 C   0  0  0  0  0  0  0  0  0  0  0  0
  182.5940  176.0440  138.7890 C   0  0  0  0  0  3  0  0  0  0  0  0
  184.8950  175.9840  137.2050 C   0  0  0  0  0  0  0  0  0  0  0  0
  182.9260  174.8860  138.0830 C   0  0  0  0  0  3  0  0  0  0  0  0
  185.3930  178.2640  137.8120 O   0  0  0  0  0  1  0  0  0  0  0  0
  184.5670  177.1480  137.9100 C   0  0  0  0  0  0  0  0  0  0  0  0
  186.0090  175.9440  136.4320 F   0  0  0  0  0  0  0  0  0  0  0  0
  184.0760  174.8560  137.2920 C   0  0  0  0  0  3  0  0  0  0  0  0
  1 21  1  6  0  0  0
  1 11  1  0  0  0  0
  3 15  1  1  0  0  0
  3  9  1  0  0  0  0
  4  2  1  1  0  0  0
  4  7  1  0  0  0  0
  5  3  1  0  0  0  0
  7  9  1  0  0  0  0
  8  6  1  6  0  0  0
  8  4  1  0  0  0  0
 10  1  1  0  0  0  0
 10  6  1  0  0  0  0
 11  8  1  0  0  0  0
 11  5  1  1  0  0  0
 12 20  1  0  0  0  0
 12 15  2  0  0  0  0
 14 17  1  0  0  0  0
 15 18  1  0  0  0  0
 17 13  1  0  0  0  0
 18 13  1  0  0  0  0
 18 16  1  1  0  0  0
 19 14  2  0  0  0  0
 20 14  1  0  0  0  0
 21 22  1  0  0  0  0
 23 28  2  0  0  0  0
 23 26  1  0  0  0  0
 24 22  2  0  0  0  0
 25 26  1  0  0  0  0
 26 21  2  0  0  0  0
 27 23  1  0  0  0  0
 28 24  1  0  0  0  0
M  END
>  <MODEL>
4

>  <REMARK>
 VINA RESULT:      -8.6      2.993      5.280
  Name = 
  2 active torsions:
  status: ('A' for Active; 'I' for Inactive)
    1  A    between atoms: C_1  and  C_2
    2  A    between atoms: C_10  and  C_13
                            x       y       z     vdW  Elec       q    Type
                         _______ _______ _______ _____ _____    ______ ____

>  <TORSDO>
F 2

$$$$
=
 OpenBabel11052413263D

 28 31  0  0  1  0  0  0  0  0999 V2000
  182.5170  178.2230  140.5210 C   0  0  1  0  0  3  0  0  0  0  0  0
  186.9710  178.6270  138.5200 C   0  0  0  0  0  1  0  0  0  0  0  0
  185.6140  178.4640  142.7400 C   0  0  2  0  0  3  0  0  0  0  0  0
  186.2170  178.2560  139.7820 C   0  0  1  0  0  3  0  0  0  0  0  0
  184.3990  177.8200  142.0790 C   0  0  0  0  0  2  0  0  0  0  0  0
  183.9900  177.8950  138.6450 C   0  0  0  0  0  2  0  0  0  0  0  0
  186.9180  178.8980  140.9730 C   0  0  0  0  0  2  0  0  0  0  0  0
  184.7530  178.7130  139.6690 C   0  0  1  0  0  3  0  0  0  0  0  0
  186.7910  178.0670  142.0920 O   0  0  0  0  0  0  0  0  0  0  0  0
  182.5330  178.0700  139.0110 C   0  0  0  0  0  2  0  0  0  0  0  0
  183.8930  178.7090  140.9470 C   0  0  1  0  0  3  0  0  0  0  0  0
  184.7490  178.6280  145.0340 C   0  0  0  0  0  3  0  0  0  0  0  0
  187.7260  177.9510  145.6380 C   0  0  0  0  0  2  0  0  0  0  0  0
  185.9650  178.8380  147.1690 C   0  0  0  0  0  0  0  0  0  0  0  0
  185.6760  178.1130  144.2030 C   0  0  0  0  0  0  0  0  0  0  0  0
  187.5540  176.5140  143.6200 C   0  0  0  0  0  1  0  0  0  0  0  0
  187.2030  178.0030  147.0700 C   0  0  0  0  0  2  0  0  0  0  0  0
  186.7640  177.1930  144.7290 C   0  0  1  0  0  3  0  0  0  0  0  0
  186.0560  180.0590  147.5470 N   0  0  0  0  0  2  0  0  0  0  0  0
  184.7090  178.3590  146.5110 C   0  0  0  0  0  2  0  0  0  0  0  0
  181.4240  179.1390  140.9880 C   0  0  0  0  0  0  0  0  0  0  0  0
  180.8350  179.9890  140.0460 C   0  0  0  0  0  3  0  0  0  0  0  0
  179.9350  180.0340  142.6920 C   0  0  0  0  0  0  0  0  0  0  0  0
  179.8060  180.8570  140.4200 C   0  0  0  0  0  3  0  0  0  0  0  0
  181.5290  178.3250  143.2810 O   0  0  0  0  0  1  0  0  0  0  0  0
  180.9660  179.1620  142.3230 C   0  0  0  0  0  0  0  0  0  0  0  0
  179.4890  180.0630  143.9720 F   0  0  0  0  0  0  0  0  0  0  0  0
  179.3570  180.8800  141.7420 C   0  0  0  0  0  3  0  0  0  0  0  0
  1 11  1  0  0  0  0
  1 21  1  6  0  0  0
  3 15  1  1  0  0  0
  4  2  1  6  0  0  0
  4  7  1  0  0  0  0
  5  3  1  0  0  0  0
  6 10  1  0  0  0  0
  7  9  1  0  0  0  0
  8  6  1  6  0  0  0
  8  4  1  0  0  0  0
  8 11  1  0  0  0  0
  9  3  1  0  0  0  0
 10  1  1  0  0  0  0
 11  5  1  1  0  0  0
 12 20  1  0  0  0  0
 13 17  1  0  0  0  0
 14 19  2  0  0  0  0
 15 18  1  0  0  0  0
 15 12  2  0  0  0  0
 17 14  1  0  0  0  0
 18 16  1  6  0  0  0
 18 13  1  0  0  0  0
 20 14  1  0  0  0  0
 21 26  1  0  0  0  0
 22 24  1  0  0  0  0
 22 21  2  0  0  0  0
 23 27  1  0  0  0  0
 24 28  2  0  0  0  0
 26 23  2  0  0  0  0
 26 25  1  0  0  0  0
 28 23  1  0  0  0  0
M  END
>  <MODEL>
5

>  <REMARK>
 VINA RESULT:      -8.6      3.337      5.929
  Name = 
  2 active torsions:
  status: ('A' for Active; 'I' for Inactive)
    1  A    between atoms: C_1  and  C_2
    2  A    between atoms: C_10  and  C_13
                            x       y       z     vdW  Elec       q    Type
                         _______ _______ _______ _____ _____    ______ ____

>  <TORSDO>
F 2

$$$$
=
 OpenBabel11052413263D

 28 31  0  0  1  0  0  0  0  0999 V2000
  188.0930  178.5420  139.2880 C   0  0  1  0  0  3  0  0  0  0  0  0
  188.2330  177.0170  134.6340 C   0  0  0  0  0  1  0  0  0  0  0  0
  184.9340  177.2330  137.5910 C   0  0  2  0  0  3  0  0  0  0  0  0
  187.3200  177.4900  135.7480 C   0  0  1  0  0  3  0  0  0  0  0  0
  185.8780  178.2530  138.2200 C   0  0  0  0  0  2  0  0  0  0  0  0
  189.1420  178.5750  137.1220 C   0  0  0  0  0  2  0  0  0  0  0  0
  186.1000  176.5790  135.7950 C   0  0  0  0  0  2  0  0  0  0  0  0
  188.0820  177.4900  137.0830 C   0  0  1  0  0  3  0  0  0  0  0  0
  184.9810  177.3190  136.1940 O   0  0  0  0  0  0  0  0  0  0  0  0
  189.4150  178.8040  138.5910 C   0  0  0  0  0  2  0  0  0  0  0  0
  187.2670  177.6440  138.3820 C   0  0  1  0  0  3  0  0  0  0  0  0
  183.0920  178.6870  138.3210 C   0  0  0  0  0  3  0  0  0  0  0  0
  182.3050  176.0580  139.7890 C   0  0  0  0  0  2  0  0  0  0  0  0
  181.4720  178.3830  140.1530 C   0  0  0  0  0  0  0  0  0  0  0  0
  183.5250  177.4330  138.0830 C   0  0  0  0  0  0  0  0  0  0  0  0
  183.1790  174.9450  137.7490 C   0  0  0  0  0  1  0  0  0  0  0  0
  181.1270  176.9280  140.2180 C   0  0  0  0  0  2  0  0  0  0  0  0
  182.6100  176.2410  138.3060 C   0  0  1  0  0  3  0  0  0  0  0  0
  181.8370  178.9930  141.2190 N   0  0  0  0  0  2  0  0  0  0  0  0
  181.7140  179.0140  138.8180 C   0  0  0  0  0  2  0  0  0  0  0  0
  188.2780  177.9520  140.6550 C   0  0  0  0  0  0  0  0  0  0  0  0
  189.3890  177.1290  140.8690 C   0  0  0  0  0  3  0  0  0  0  0  0
  187.6230  177.6290  142.9770 C   0  0  0  0  0  0  0  0  0  0  0  0
  189.6190  176.5580  142.1220 C   0  0  0  0  0  3  0  0  0  0  0  0
  186.2760  179.0210  141.5410 O   0  0  0  0  0  1  0  0  0  0  0  0
  187.3880  178.2040  141.7220 C   0  0  0  0  0  0  0  0  0  0  0  0
  186.7740  177.8650  144.0070 F   0  0  0  0  0  0  0  0  0  0  0  0
  188.7360  176.8080  143.1750 C   0  0  0  0  0  3  0  0  0  0  0  0
  1 21  1  1  0  0  0
  3 15  1  1  0  0  0
  3  5  1  0  0  0  0
  4  2  1  6  0  0  0
  4  7  1  0  0  0  0
  4  8  1  0  0  0  0
  6 10  1  0  0  0  0
  7  9  1  0  0  0  0
  8  6  1  6  0  0  0
  8 11  1  0  0  0  0
  9  3  1  0  0  0  0
 10  1  1  0  0  0  0
 11  5  1  6  0  0  0
 11  1  1  0  0  0  0
 12 20  1  0  0  0  0
 13 17  1  0  0  0  0
 14 17  1  0  0  0  0
 14 19  2  0  0  0  0
 15 18  1  0  0  0  0
 15 12  2  0  0  0  0
 18 16  1  1  0  0  0
 18 13  1  0  0  0  0
 20 14  1  0  0  0  0
 21 22  2  0  0  0  0
 21 26  1  0  0  0  0
 22 24  1  0  0  0  0
 23 28  1  0  0  0  0
 23 27  1  0  0  0  0
 24 28  2  0  0  0  0
 25 26  1  0  0  0  0
 26 23  2  0  0  0  0
M  END
>  <MODEL>
6

>  <REMARK>
 VINA RESULT:      -8.5      2.975      7.335
  Name = 
  2 active torsions:
  status: ('A' for Active; 'I' for Inactive)
    1  A    between atoms: C_1  and  C_2
    2  A    between atoms: C_10  and  C_13
                            x       y       z     vdW  Elec       q    Type
                         _______ _______ _______ _____ _____    ______ ____

>  <TORSDO>
F 2

$$$$
=
 OpenBabel11052413263D

 28 31  0  0  1  0  0  0  0  0999 V2000
  188.0460  177.1350  143.9710 C   0  0  1  0  0  3  0  0  0  0  0  0
  183.6610  179.0100  145.0950 C   0  0  0  0  0  1  0  0  0  0  0  0
  185.8130  178.5890  141.2390 C   0  0  2  0  0  3  0  0  0  0  0  0
  184.5130  178.4580  143.9680 C   0  0  1  0  0  3  0  0  0  0  0  0
  186.5510  177.5170  142.0350 C   0  0  0  0  0  2  0  0  0  0  0  0
  186.1610  177.2620  145.4630 C   0  0  0  0  0  2  0  0  0  0  0  0
  184.3650  179.3710  142.7570 C   0  0  0  0  0  2  0  0  0  0  0  0
  185.9770  178.3520  144.4240 C   0  0  1  0  0  3  0  0  0  0  0  0
  184.4550  178.6090  141.5860 O   0  0  0  0  0  0  0  0  0  0  0  0
  187.6330  176.9190  145.4160 C   0  0  0  0  0  2  0  0  0  0  0  0
  187.0540  178.1040  143.3500 C   0  0  1  0  0  3  0  0  0  0  0  0
  184.8680  178.2520  138.9950 C   0  0  0  0  0  3  0  0  0  0  0  0
  187.6170  176.8410  138.6280 C   0  0  0  0  0  2  0  0  0  0  0  0
  185.5750  176.7210  137.1970 C   0  0  0  0  0  0  0  0  0  0  0  0
  185.9730  178.3600  139.7590 C   0  0  0  0  0  0  0  0  0  0  0  0
  188.4670  178.6510  140.1010 C   0  0  0  0  0  1  0  0  0  0  0  0
  187.0700  176.6600  137.2160 C   0  0  0  0  0  2  0  0  0  0  0  0
  187.3560  178.2540  139.1410 C   0  0  1  0  0  3  0  0  0  0  0  0
  184.8980  175.6330  137.2040 N   0  0  0  0  0  2  0  0  0  0  0  0
  184.8960  178.0170  137.5130 C   0  0  0  0  0  2  0  0  0  0  0  0
  189.4620  177.6180  143.8510 C   0  0  0  0  0  0  0  0  0  0  0  0
  189.8890  178.6190  144.7300 C   0  0  0  0  0  3  0  0  0  0  0  0
  191.6800  177.5840  142.8500 C   0  0  0  0  0  0  0  0  0  0  0  0
  191.1980  179.1030  144.6720 C   0  0  0  0  0  3  0  0  0  0  0  0
  189.9740  176.0970  142.0190 O   0  0  0  0  0  1  0  0  0  0  0  0
  190.3680  177.0950  142.9040 C   0  0  0  0  0  0  0  0  0  0  0  0
  192.5570  177.0890  141.9430 F   0  0  0  0  0  0  0  0  0  0  0  0
  192.0920  178.5860  143.7320 C   0  0  0  0  0  3  0  0  0  0  0  0
  1 21  1  1  0  0  0
  1 10  1  0  0  0  0
  3 15  1  6  0  0  0
  3  9  1  0  0  0  0
  3  5  1  0  0  0  0
  4  8  1  0  0  0  0
  4  2  1  1  0  0  0
  7  4  1  0  0  0  0
  8  6  1  1  0  0  0
  9  7  1  0  0  0  0
 10  6  1  0  0  0  0
 11  5  1  6  0  0  0
 11  1  1  0  0  0  0
 11  8  1  0  0  0  0
 12 15  2  0  0  0  0
 13 18  1  0  0  0  0
 14 19  2  0  0  0  0
 14 17  1  0  0  0  0
 14 20  1  0  0  0  0
 17 13  1  0  0  0  0
 18 15  1  0  0  0  0
 18 16  1  1  0  0  0
 20 12  1  0  0  0  0
 21 22  1  0  0  0  0
 23 26  1  0  0  0  0
 23 28  2  0  0  0  0
 24 22  2  0  0  0  0
 25 26  1  0  0  0  0
 26 21  2  0  0  0  0
 27 23  1  0  0  0  0
 28 24  1  0  0  0  0
M  END
>  <MODEL>
7

>  <REMARK>
 VINA RESULT:      -8.4      2.833      5.619
  Name = 
  2 active torsions:
  status: ('A' for Active; 'I' for Inactive)
    1  A    between atoms: C_1  and  C_2
    2  A    between atoms: C_10  and  C_13
                            x       y       z     vdW  Elec       q    Type
                         _______ _______ _______ _____ _____    ______ ____

>  <TORSDO>
F 2

$$$$
=
 OpenBabel11052413263D

 28 31  0  0  1  0  0  0  0  0999 V2000
  190.5130  177.2960  139.6930 C   0  0  1  0  0  3  0  0  0  0  0  0
  193.1920  174.4480  136.7400 C   0  0  0  0  0  1  0  0  0  0  0  0
  188.8390  175.2850  136.9140 C   0  0  2  0  0  3  0  0  0  0  0  0
  191.8630  175.1620  136.8900 C   0  0  1  0  0  3  0  0  0  0  0  0
  189.3440  176.5210  137.6530 C   0  0  0  0  0  2  0  0  0  0  0  0
  192.6350  176.7540  138.6930 C   0  0  0  0  0  2  0  0  0  0  0  0
  190.7510  174.2140  136.4580 C   0  0  0  0  0  2  0  0  0  0  0  0
  191.6810  175.6280  138.3440 C   0  0  1  0  0  3  0  0  0  0  0  0
  189.7140  174.9470  135.8720 O   0  0  0  0  0  0  0  0  0  0  0  0
  192.0120  177.4390  139.8880 C   0  0  0  0  0  2  0  0  0  0  0  0
  190.2810  176.1020  138.7810 C   0  0  1  0  0  3  0  0  0  0  0  0
  187.0840  176.7610  136.0300 C   0  0  0  0  0  3  0  0  0  0  0  0
  185.3180  174.4910  137.2190 C   0  0  0  0  0  2  0  0  0  0  0  0
  184.6630  176.7880  136.4920 C   0  0  0  0  0  0  0  0  0  0  0  0
  187.4500  175.5120  136.3800 C   0  0  0  0  0  0  0  0  0  0  0  0
  187.1420  172.9970  136.4400 C   0  0  0  0  0  1  0  0  0  0  0  0
  184.2130  175.3680  136.6380 C   0  0  0  0  0  2  0  0  0  0  0  0
  186.4800  174.3520  136.2400 C   0  0  1  0  0  3  0  0  0  0  0  0
  184.3600  177.6420  137.3980 N   0  0  0  0  0  2  0  0  0  0  0  0
  185.7280  177.1150  135.4920 C   0  0  0  0  0  2  0  0  0  0  0  0
  189.7800  177.1640  140.9960 C   0  0  0  0  0  0  0  0  0  0  0  0
  190.3600  176.3780  141.9980 C   0  0  0  0  0  3  0  0  0  0  0  0
  187.9210  177.6520  142.4890 C   0  0  0  0  0  0  0  0  0  0  0  0
  189.7290  176.2250  143.2340 C   0  0  0  0  0  3  0  0  0  0  0  0
  187.9500  178.6000  140.2730 O   0  0  0  0  0  1  0  0  0  0  0  0
  188.5500  177.8090  141.2470 C   0  0  0  0  0  0  0  0  0  0  0  0
  186.7390  178.2670  142.7390 F   0  0  0  0  0  0  0  0  0  0  0  0
  188.5110  176.8620  143.4790 C   0  0  0  0  0  3  0  0  0  0  0  0
  1 10  1  0  0  0  0
  1 21  1  1  0  0  0
  3 15  1  6  0  0  0
  3  5  1  0  0  0  0
  4  2  1  1  0  0  0
  4  8  1  0  0  0  0
  6 10  1  0  0  0  0
  7  4  1  0  0  0  0
  8  6  1  6  0  0  0
  8 11  1  0  0  0  0
  9  7  1  0  0  0  0
  9  3  1  0  0  0  0
 11  5  1  6  0  0  0
 11  1  1  0  0  0  0
 12 15  2  0  0  0  0
 14 17  1  0  0  0  0
 14 19  2  0  0  0  0
 17 13  1  0  0  0  0
 18 15  1  0  0  0  0
 18 16  1  1  0  0  0
 18 13  1  0  0  0  0
 20 12  1  0  0  0  0
 20 14  1  0  0  0  0
 21 26  2  0  0  0  0
 21 22  1  0  0  0  0
 22 24  2  0  0  0  0
 23 27  1  0  0  0  0
 23 28  2  0  0  0  0
 24 28  1  0  0  0  0
 25 26  1  0  0  0  0
 26 23  1  0  0  0  0
M  END
>  <MODEL>
8

>  <REMARK>
 VINA RESULT:      -8.3      3.368      6.998
  Name = 
  2 active torsions:
  status: ('A' for Active; 'I' for Inactive)
    1  A    between atoms: C_1  and  C_2
    2  A    between atoms: C_10  and  C_13
                            x       y       z     vdW  Elec       q    Type
                         _______ _______ _______ _____ _____    ______ ____

>  <TORSDO>
F 2

$$$$
=
 OpenBabel11052413263D

 28 31  0  0  1  0  0  0  0  0999 V2000
  188.6160  177.5640  137.7290 C   0  0  1  0  0  3  0  0  0  0  0  0
  184.0850  179.1440  138.7200 C   0  0  0  0  0  1  0  0  0  0  0  0
  187.5090  178.1050  141.3420 C   0  0  2  0  0  3  0  0  0  0  0  0
  185.4890  179.0020  139.2750 C   0  0  1  0  0  3  0  0  0  0  0  0
  188.2750  178.3620  140.0480 C   0  0  0  0  0  2  0  0  0  0  0  0
  186.6160  178.7090  137.0330 C   0  0  0  0  0  2  0  0  0  0  0  0
  185.3960  178.4730  140.7010 C   0  0  0  0  0  2  0  0  0  0  0  0
  186.3140  178.0690  138.3750 C   0  0  1  0  0  3  0  0  0  0  0  0
  186.4410  179.0040  141.4650 O   0  0  0  0  0  0  0  0  0  0  0  0
  187.8160  177.9590  136.5020 C   0  0  0  0  0  2  0  0  0  0  0  0
  187.6620  177.5500  138.9130 C   0  0  1  0  0  3  0  0  0  0  0  0
  189.7180  178.5230  142.3350 C   0  0  0  0  0  3  0  0  0  0  0  0
  188.4870  176.6950  144.5320 C   0  0  0  0  0  2  0  0  0  0  0  0
  190.8680  177.3550  144.1760 C   0  0  0  0  0  0  0  0  0  0  0  0
  188.4220  178.2100  142.5350 C   0  0  0  0  0  0  0  0  0  0  0  0
  186.3720  177.8780  143.9880 C   0  0  0  0  0  1  0  0  0  0  0  0
  189.8340  176.9770  145.1900 C   0  0  0  0  0  2  0  0  0  0  0  0
  187.8900  177.9660  143.9360 C   0  0  1  0  0  3  0  0  0  0  0  0
  191.6800  176.4640  143.7410 N   0  0  0  0  0  2  0  0  0  0  0  0
  190.7260  178.6500  143.4400 C   0  0  0  0  0  2  0  0  0  0  0  0
  189.3180  176.2500  137.5520 C   0  0  0  0  0  0  0  0  0  0  0  0
  188.5810  175.1770  137.0400 C   0  0  0  0  0  3  0  0  0  0  0  0
  191.2810  174.8150  137.6700 C   0  0  0  0  0  0  0  0  0  0  0  0
  189.1840  173.9320  136.8440 C   0  0  0  0  0  3  0  0  0  0  0  0
  191.4420  177.1150  138.3750 O   0  0  0  0  0  1  0  0  0  0  0  0
  190.6820  176.0660  137.8680 C   0  0  0  0  0  0  0  0  0  0  0  0
  192.5890  174.6280  137.9700 F   0  0  0  0  0  0  0  0  0  0  0  0
  190.5320  173.7520  137.1590 C   0  0  0  0  0  3  0  0  0  0  0  0
  1 21  1  6  0  0  0
  1 11  1  0  0  0  0
  3  9  1  0  0  0  0
  3 15  1  1  0  0  0
  4  2  1  6  0  0  0
  4  7  1  0  0  0  0
  5  3  1  0  0  0  0
  7  9  1  0  0  0  0
  8  6  1  6  0  0  0
  8 11  1  0  0  0  0
  8  4  1  0  0  0  0
 10  6  1  0  0  0  0
 10  1  1  0  0  0  0
 11  5  1  1  0  0  0
 12 15  2  0  0  0  0
 12 20  1  0  0  0  0
 13 17  1  0  0  0  0
 14 17  1  0  0  0  0
 15 18  1  0  0  0  0
 18 16  1  6  0  0  0
 18 13  1  0  0  0  0
 19 14  2  0  0  0  0
 20 14  1  0  0  0  0
 21 26  1  0  0  0  0
 22 21  2  0  0  0  0
 23 26  2  0  0  0  0
 23 27  1  0  0  0  0
 24 22  1  0  0  0  0
 24 28  2  0  0  0  0
 26 25  1  0  0  0  0
 28 23  1  0  0  0  0
M  END
>  <MODEL>
9

>  <REMARK>
 VINA RESULT:      -8.2      3.192      6.730
  Name = 
  2 active torsions:
  status: ('A' for Active; 'I' for Inactive)
    1  A    between atoms: C_1  and  C_2
    2  A    between atoms: C_10  and  C_13
                            x       y       z     vdW  Elec       q    Type
                         _______ _______ _______ _____ _____    ______ ____

>  <TORSDO>
F 2

$$$$
