=
 OpenBabel11052414343D

 32 37  0  0  1  0  0  0  0  0999 V2000
  190.3130  177.6160  142.6830 C   0  0  2  0  0  3  0  0  0  0  0  0
  187.9560  178.1230  143.3520 C   0  0  0  0  0  0  0  0  0  0  0  0
  191.2710  176.5660  143.0290 N   0  0  0  0  0  2  0  0  0  0  0  0
  189.2260  177.6930  143.7210 C   0  0  0  0  0  0  0  0  0  0  0  0
  186.9010  178.0760  144.2760 C   0  0  0  0  0  0  0  0  0  0  0  0
  184.5650  179.0570  139.7360 C   0  0  0  0  0  2  0  0  0  0  0  0
  187.7510  178.4490  141.9010 C   0  0  1  0  0  3  0  0  0  0  0  0
  183.8530  178.5030  142.0760 C   0  0  0  0  0  2  0  0  0  0  0  0
  185.2640  178.0250  142.3970 C   0  0  2  0  0  3  0  0  0  0  0  0
  189.4800  177.2710  145.0320 C   0  0  0  0  0  0  0  0  0  0  0  0
  185.5590  178.2410  143.8090 N   0  0  0  0  0  2  0  0  0  0  0  0
  188.4590  177.3280  145.9860 C   0  0  0  0  0  3  0  0  0  0  0  0
  190.7320  176.6400  145.3440 N   0  0  0  0  0  0  0  0  0  0  0  0
  188.3600  177.3820  141.1060 N   0  0  0  0  0  2  0  0  0  0  0  0
  189.7620  177.4280  141.3210 N   0  0  0  0  0  0  0  0  0  0  0  0
  186.2870  178.7690  141.5280 C   0  0  2  0  0  3  0  0  0  0  0  0
  187.1700  177.7450  145.6180 C   0  0  0  0  0  0  0  0  0  0  0  0
  191.5640  176.2860  144.4060 C   0  0  0  0  0  3  0  0  0  0  0  0
  183.5560  178.2930  140.5920 C   0  0  0  0  0  2  0  0  0  0  0  0
  185.9870  178.5910  140.0390 C   0  0  0  0  0  2  0  0  0  0  0  0
  190.5350  176.7670  137.7390 C   0  0  0  0  0  0  0  0  0  0  0  0
  194.0010  176.5660  137.3570 O   0  0  0  0  0  1  0  0  0  0  0  0
  189.8930  176.9040  136.3990 C   0  0  0  0  0  1  0  0  0  0  0  0
  193.0350  177.1780  139.4070 C   0  0  0  0  0  3  0  0  0  0  0  0
  190.6270  177.3580  140.1710 C   0  0  0  0  0  0  0  0  0  0  0  0
  191.6840  175.8240  137.8570 C   0  0  0  0  0  2  0  0  0  0  0  0
  191.9510  177.2850  140.4030 C   0  0  0  0  0  3  0  0  0  0  0  0
  190.0440  177.4390  138.7940 C   0  0  0  0  0  0  0  0  0  0  0  0
  188.9330  178.1950  138.6030 F   0  0  0  0  0  0  0  0  0  0  0  0
  192.9250  176.5590  138.2340 C   0  0  0  0  0  0  0  0  0  0  0  0
  186.0870  177.7510  146.6450 C   0  0  0  0  0  2  0  0  0  0  0  0
  185.8810  179.1570  147.1760 C   0  0  0  0  0  1  0  0  0  0  0  0
  1  3  1  1  0  0  0
  1  4  1  0  0  0  0
  2  4  2  0  0  0  0
  2  5  1  0  0  0  0
  3 18  1  0  0  0  0
  4 10  1  0  0  0  0
  5 17  2  0  0  0  0
  6 20  1  0  0  0  0
  6 19  1  0  0  0  0
  7 14  1  6  0  0  0
  7  2  1  0  0  0  0
  9  8  1  6  0  0  0
  9 11  1  0  0  0  0
 10 13  1  0  0  0  0
 10 12  2  0  0  0  0
 11  5  1  0  0  0  0
 14 15  1  0  0  0  0
 15  1  1  0  0  0  0
 16 20  1  6  0  0  0
 16  7  1  0  0  0  0
 16  9  1  0  0  0  0
 17 12  1  0  0  0  0
 17 31  1  0  0  0  0
 18 13  2  0  0  0  0
 19  8  1  0  0  0  0
 21 26  1  0  0  0  0
 21 28  2  0  0  0  0
 22 30  1  0  0  0  0
 23 21  1  0  0  0  0
 24 27  1  0  0  0  0
 25 27  2  0  0  0  0
 25 15  1  0  0  0  0
 26 30  1  0  0  0  0
 28 25  1  0  0  0  0
 29 28  1  0  0  0  0
 30 24  2  0  0  0  0
 31 32  1  0  0  0  0
M  END
>  <MODEL>
1

>  <REMARK>
 VINA RESULT:     -10.7      0.000      0.000
  Name = 
  2 active torsions:
  status: ('A' for Active; 'I' for Inactive)
    1  A    between atoms: C_13  and  C_29
    2  A    between atoms: C_16  and  N_27
                            x       y       z     vdW  Elec       q    Type
                         _______ _______ _______ _____ _____    ______ ____

>  <TORSDO>
F 2

$$$$
=
 OpenBabel11052414343D

 32 37  0  0  1  0  0  0  0  0999 V2000
  185.0470  177.9880  143.7850 C   0  0  2  0  0  3  0  0  0  0  0  0
  187.4380  177.3760  144.1960 C   0  0  0  0  0  0  0  0  0  0  0  0
  184.1380  178.9900  144.3410 N   0  0  0  0  0  2  0  0  0  0  0  0
  186.2070  177.7620  144.7160 C   0  0  0  0  0  0  0  0  0  0  0  0
  188.5600  177.2870  145.0340 C   0  0  0  0  0  0  0  0  0  0  0  0
  190.5280  176.9070  140.2360 C   0  0  0  0  0  2  0  0  0  0  0  0
  187.5270  177.2450  142.7030 C   0  0  1  0  0  3  0  0  0  0  0  0
  191.4250  177.1340  142.5680 C   0  0  0  0  0  2  0  0  0  0  0  0
  190.0510  177.5770  143.0570 C   0  0  2  0  0  3  0  0  0  0  0  0
  186.0610  178.0070  146.0870 C   0  0  0  0  0  0  0  0  0  0  0  0
  189.8590  177.1750  144.4460 N   0  0  0  0  0  2  0  0  0  0  0  0
  187.1500  177.8120  146.9430 C   0  0  0  0  0  3  0  0  0  0  0  0
  184.8490  178.6010  146.5770 N   0  0  0  0  0  0  0  0  0  0  0  0
  186.8790  178.4150  142.1070 N   0  0  0  0  0  2  0  0  0  0  0  0
  185.4970  178.3530  142.4210 N   0  0  0  0  0  0  0  0  0  0  0  0
  188.9510  176.9660  142.1780 C   0  0  2  0  0  3  0  0  0  0  0  0
  188.3990  177.4380  146.4250 C   0  0  0  0  0  0  0  0  0  0  0  0
  183.9550  179.0850  145.7620 C   0  0  0  0  0  3  0  0  0  0  0  0
  191.6130  177.5390  141.1060 C   0  0  0  0  0  2  0  0  0  0  0  0
  189.1420  177.3400  140.7080 C   0  0  0  0  0  2  0  0  0  0  0  0
  182.2300  177.9210  140.6870 C   0  0  0  0  0  0  0  0  0  0  0  0
  182.5440  179.0650  137.4020 O   0  0  0  0  0  1  0  0  0  0  0  0
  180.7860  177.7520  141.0200 C   0  0  0  0  0  1  0  0  0  0  0  0
  184.2860  179.3250  138.9530 C   0  0  0  0  0  3  0  0  0  0  0  0
  184.5500  178.5840  141.3610 C   0  0  0  0  0  0  0  0  0  0  0  0
  182.6750  177.5010  139.3270 C   0  0  0  0  0  2  0  0  0  0  0  0
  185.0370  179.0380  140.1910 C   0  0  0  0  0  3  0  0  0  0  0  0
  183.0870  178.3860  141.6120 C   0  0  0  0  0  0  0  0  0  0  0  0
  182.6000  178.6460  142.8530 F   0  0  0  0  0  0  0  0  0  0  0  0
  183.1940  178.6720  138.5640 C   0  0  0  0  0  0  0  0  0  0  0  0
  189.5570  177.2840  147.3550 C   0  0  0  0  0  2  0  0  0  0  0  0
  189.3830  178.1910  148.5570 C   0  0  0  0  0  1  0  0  0  0  0  0
  1  3  1  1  0  0  0
  1  4  1  0  0  0  0
  2  4  2  0  0  0  0
  2  5  1  0  0  0  0
  3 18  1  0  0  0  0
  4 10  1  0  0  0  0
  5 17  2  0  0  0  0
  6 20  1  0  0  0  0
  6 19  1  0  0  0  0
  7 14  1  6  0  0  0
  7  2  1  0  0  0  0
  9  8  1  6  0  0  0
  9 11  1  0  0  0  0
 10 13  1  0  0  0  0
 10 12  2  0  0  0  0
 11  5  1  0  0  0  0
 14 15  1  0  0  0  0
 15  1  1  0  0  0  0
 16 20  1  6  0  0  0
 16  7  1  0  0  0  0
 16  9  1  0  0  0  0
 17 12  1  0  0  0  0
 17 31  1  0  0  0  0
 18 13  2  0  0  0  0
 19  8  1  0  0  0  0
 21 23  1  0  0  0  0
 21 28  2  0  0  0  0
 22 30  1  0  0  0  0
 24 27  1  0  0  0  0
 25 28  1  0  0  0  0
 25 15  1  0  0  0  0
 26 21  1  0  0  0  0
 27 25  2  0  0  0  0
 28 29  1  0  0  0  0
 30 24  2  0  0  0  0
 30 26  1  0  0  0  0
 31 32  1  0  0  0  0
M  END
>  <MODEL>
2

>  <REMARK>
 VINA RESULT:     -10.5      3.010      6.399
  Name = 
  2 active torsions:
  status: ('A' for Active; 'I' for Inactive)
    1  A    between atoms: C_13  and  C_29
    2  A    between atoms: C_16  and  N_27
                            x       y       z     vdW  Elec       q    Type
                         _______ _______ _______ _____ _____    ______ ____

>  <TORSDO>
F 2

$$$$
=
 OpenBabel11052414343D

 32 37  0  0  1  0  0  0  0  0999 V2000
  190.2320  177.2840  143.0350 C   0  0  2  0  0  3  0  0  0  0  0  0
  188.4740  177.8650  144.7180 C   0  0  0  0  0  0  0  0  0  0  0  0
  191.1320  176.1470  142.8470 N   0  0  0  0  0  2  0  0  0  0  0  0
  189.7270  177.3220  144.4510 C   0  0  0  0  0  0  0  0  0  0  0  0
  187.9360  177.7900  146.0130 C   0  0  0  0  0  0  0  0  0  0  0  0
  183.9510  179.3730  143.0710 C   0  0  0  0  0  2  0  0  0  0  0  0
  187.6860  178.3500  143.5380 C   0  0  1  0  0  3  0  0  0  0  0  0
  184.2910  178.6280  145.4420 C   0  0  0  0  0  2  0  0  0  0  0  0
  185.6430  178.0330  145.0650 C   0  0  2  0  0  3  0  0  0  0  0  0
  190.4880  176.7530  145.4800 C   0  0  0  0  0  0  0  0  0  0  0  0
  186.5500  178.0850  146.2060 N   0  0  0  0  0  2  0  0  0  0  0  0
  190.0030  176.7760  146.7920 C   0  0  0  0  0  3  0  0  0  0  0  0
  191.6780  176.0170  145.1580 N   0  0  0  0  0  0  0  0  0  0  0  0
  187.7710  177.3340  142.4870 N   0  0  0  0  0  2  0  0  0  0  0  0
  189.1210  177.2710  142.0540 N   0  0  0  0  0  0  0  0  0  0  0  0
  186.2480  178.7970  143.8800 C   0  0  2  0  0  3  0  0  0  0  0  0
  188.7340  177.3070  147.0670 C   0  0  0  0  0  0  0  0  0  0  0  0
  191.9720  175.7100  143.9270 C   0  0  0  0  0  3  0  0  0  0  0  0
  183.3510  178.5900  144.2380 C   0  0  0  0  0  2  0  0  0  0  0  0
  185.3060  178.7910  142.6750 C   0  0  0  0  0  2  0  0  0  0  0  0
  188.1400  177.4020  138.4650 C   0  0  0  0  0  0  0  0  0  0  0  0
  190.8350  176.3180  136.5240 O   0  0  0  0  0  1  0  0  0  0  0  0
  187.1340  178.0720  137.5900 C   0  0  0  0  0  1  0  0  0  0  0  0
  191.0440  176.6090  138.8440 C   0  0  0  0  0  3  0  0  0  0  0  0
  189.3790  177.2660  140.6370 C   0  0  0  0  0  0  0  0  0  0  0  0
  188.7970  176.1710  137.9370 C   0  0  0  0  0  2  0  0  0  0  0  0
  190.5560  176.7530  140.2300 C   0  0  0  0  0  3  0  0  0  0  0  0
  188.3880  177.8770  139.6960 C   0  0  0  0  0  0  0  0  0  0  0  0
  187.6640  178.9450  140.1210 F   0  0  0  0  0  0  0  0  0  0  0  0
  190.2640  176.3870  137.7880 C   0  0  0  0  0  0  0  0  0  0  0  0
  188.2200  177.2760  148.4690 C   0  0  0  0  0  2  0  0  0  0  0  0
  188.6770  178.5120  149.2180 C   0  0  0  0  0  1  0  0  0  0  0  0
  1  3  1  1  0  0  0
  1  4  1  0  0  0  0
  2  5  1  0  0  0  0
  3 18  1  0  0  0  0
  4  2  2  0  0  0  0
  4 10  1  0  0  0  0
  5 11  1  0  0  0  0
  5 17  2  0  0  0  0
  6 19  1  0  0  0  0
  7 14  1  6  0  0  0
  7 16  1  0  0  0  0
  7  2  1  0  0  0  0
  9  8  1  1  0  0  0
  9 11  1  0  0  0  0
 10 12  2  0  0  0  0
 12 17  1  0  0  0  0
 13 10  1  0  0  0  0
 15 14  1  0  0  0  0
 15  1  1  0  0  0  0
 16 20  1  6  0  0  0
 16  9  1  0  0  0  0
 17 31  1  0  0  0  0
 18 13  2  0  0  0  0
 19  8  1  0  0  0  0
 20  6  1  0  0  0  0
 21 28  2  0  0  0  0
 22 30  1  0  0  0  0
 23 21  1  0  0  0  0
 24 27  1  0  0  0  0
 25 15  1  0  0  0  0
 26 21  1  0  0  0  0
 27 25  2  0  0  0  0
 28 29  1  0  0  0  0
 28 25  1  0  0  0  0
 30 26  1  0  0  0  0
 30 24  2  0  0  0  0
 31 32  1  0  0  0  0
M  END
>  <MODEL>
3

>  <REMARK>
 VINA RESULT:     -10.3      1.704      2.304
  Name = 
  2 active torsions:
  status: ('A' for Active; 'I' for Inactive)
    1  A    between atoms: C_13  and  C_29
    2  A    between atoms: C_16  and  N_27
                            x       y       z     vdW  Elec       q    Type
                         _______ _______ _______ _____ _____    ______ ____

>  <TORSDO>
F 2

$$$$
=
 OpenBabel11052414343D

 32 37  0  0  1  0  0  0  0  0999 V2000
  187.4560  177.6100  141.4130 C   0  0  2  0  0  3  0  0  0  0  0  0
  187.5980  177.3190  143.8940 C   0  0  0  0  0  0  0  0  0  0  0  0
  186.9250  178.6530  140.5350 N   0  0  0  0  0  2  0  0  0  0  0  0
  186.8620  177.7360  142.7900 C   0  0  0  0  0  0  0  0  0  0  0  0
  187.1140  177.5490  145.1910 C   0  0  0  0  0  0  0  0  0  0  0  0
  192.0320  176.0320  145.9260 C   0  0  0  0  0  2  0  0  0  0  0  0
  188.9780  176.7960  143.6240 C   0  0  1  0  0  3  0  0  0  0  0  0
  190.1730  176.9530  147.3350 C   0  0  0  0  0  2  0  0  0  0  0  0
  189.4390  177.4050  146.0780 C   0  0  2  0  0  3  0  0  0  0  0  0
  185.6060  178.3320  142.9580 C   0  0  0  0  0  0  0  0  0  0  0  0
  187.9980  177.3820  146.3030 N   0  0  0  0  0  2  0  0  0  0  0  0
  185.0700  178.4620  144.2440 C   0  0  0  0  0  3  0  0  0  0  0  0
  184.9530  178.9410  141.8330 N   0  0  0  0  0  0  0  0  0  0  0  0
  189.6320  177.7060  142.6820 N   0  0  0  0  0  2  0  0  0  0  0  0
  188.9370  177.6250  141.4470 N   0  0  0  0  0  0  0  0  0  0  0  0
  189.7990  176.4950  144.8960 C   0  0  2  0  0  3  0  0  0  0  0  0
  185.8120  178.0590  145.3640 C   0  0  0  0  0  0  0  0  0  0  0  0
  185.5760  179.1160  140.7020 C   0  0  0  0  0  3  0  0  0  0  0  0
  191.6810  176.9590  147.0890 C   0  0  0  0  0  2  0  0  0  0  0  0
  191.3090  176.4690  144.6550 C   0  0  0  0  0  2  0  0  0  0  0  0
  189.4690  177.7790  137.7660 C   0  0  0  0  0  0  0  0  0  0  0  0
  192.3800  176.0170  136.9770 O   0  0  0  0  0  1  0  0  0  0  0  0
  189.0580  178.6100  136.5970 C   0  0  0  0  0  1  0  0  0  0  0  0
  191.7410  176.3780  139.2070 C   0  0  0  0  0  3  0  0  0  0  0  0
  189.7110  177.4860  140.2410 C   0  0  0  0  0  0  0  0  0  0  0  0
  189.9800  176.4060  137.4870 C   0  0  0  0  0  2  0  0  0  0  0  0
  190.8040  176.7020  140.3010 C   0  0  0  0  0  3  0  0  0  0  0  0
  189.3250  178.2530  139.0140 C   0  0  0  0  0  0  0  0  0  0  0  0
  188.7570  179.4770  139.1670 F   0  0  0  0  0  0  0  0  0  0  0  0
  191.3990  176.2800  137.9240 C   0  0  0  0  0  0  0  0  0  0  0  0
  185.2360  178.2520  146.7270 C   0  0  0  0  0  2  0  0  0  0  0  0
  185.8720  179.4560  147.3950 C   0  0  0  0  0  1  0  0  0  0  0  0
  1  3  1  6  0  0  0
  1 15  1  0  0  0  0
  1  4  1  0  0  0  0
  2  5  1  0  0  0  0
  3 18  1  0  0  0  0
  4 10  1  0  0  0  0
  4  2  2  0  0  0  0
  5 17  2  0  0  0  0
  5 11  1  0  0  0  0
  6 19  1  0  0  0  0
  7 14  1  6  0  0  0
  7  2  1  0  0  0  0
  7 16  1  0  0  0  0
  9 11  1  0  0  0  0
  9  8  1  1  0  0  0
 10 12  2  0  0  0  0
 12 17  1  0  0  0  0
 13 10  1  0  0  0  0
 15 14  1  0  0  0  0
 16 20  1  6  0  0  0
 16  9  1  0  0  0  0
 17 31  1  0  0  0  0
 18 13  2  0  0  0  0
 19  8  1  0  0  0  0
 20  6  1  0  0  0  0
 21 28  2  0  0  0  0
 22 30  1  0  0  0  0
 23 21  1  0  0  0  0
 24 27  1  0  0  0  0
 25 27  2  0  0  0  0
 25 15  1  0  0  0  0
 26 21  1  0  0  0  0
 26 30  1  0  0  0  0
 28 29  1  0  0  0  0
 28 25  1  0  0  0  0
 30 24  2  0  0  0  0
 31 32  1  0  0  0  0
M  END
>  <MODEL>
4

>  <REMARK>
 VINA RESULT:     -10.3      1.432      4.477
  Name = 
  2 active torsions:
  status: ('A' for Active; 'I' for Inactive)
    1  A    between atoms: C_13  and  C_29
    2  A    between atoms: C_16  and  N_27
                            x       y       z     vdW  Elec       q    Type
                         _______ _______ _______ _____ _____    ______ ____

>  <TORSDO>
F 2

$$$$
=
 OpenBabel11052414343D

 32 37  0  0  1  0  0  0  0  0999 V2000
  186.3800  178.6840  144.9300 C   0  0  2  0  0  3  0  0  0  0  0  0
  184.9870  178.9440  142.8680 C   0  0  0  0  0  0  0  0  0  0  0  0
  186.2230  177.9500  146.1850 N   0  0  0  0  0  2  0  0  0  0  0  0
  185.0470  178.8560  144.2550 C   0  0  0  0  0  0  0  0  0  0  0  0
  183.7430  178.9740  142.2170 C   0  0  0  0  0  0  0  0  0  0  0  0
  187.1680  178.2530  138.3720 C   0  0  0  0  0  2  0  0  0  0  0  0
  186.2870  178.8190  142.1290 C   0  0  1  0  0  3  0  0  0  0  0  0
  184.6720  178.2510  138.6220 C   0  0  0  0  0  2  0  0  0  0  0  0
  184.8200  178.1280  140.1340 C   0  0  2  0  0  3  0  0  0  0  0  0
  183.8720  178.8600  145.0180 C   0  0  0  0  0  0  0  0  0  0  0  0
  183.6940  178.7710  140.8020 N   0  0  0  0  0  2  0  0  0  0  0  0
  182.6350  179.0030  144.3810 C   0  0  0  0  0  3  0  0  0  0  0  0
  183.9370  178.5640  146.4210 N   0  0  0  0  0  0  0  0  0  0  0  0
  187.0280  177.6950  142.7030 N   0  0  0  0  0  2  0  0  0  0  0  0
  187.3700  178.0370  144.0370 N   0  0  0  0  0  0  0  0  0  0  0  0
  186.1370  178.7680  140.5930 C   0  0  2  0  0  3  0  0  0  0  0  0
  182.5650  179.0750  142.9810 C   0  0  0  0  0  0  0  0  0  0  0  0
  185.0310  178.1130  146.9690 C   0  0  0  0  0  3  0  0  0  0  0  0
  185.8640  177.5930  137.9270 C   0  0  0  0  0  2  0  0  0  0  0  0
  187.3370  178.1390  139.8850 C   0  0  0  0  0  2  0  0  0  0  0  0
  190.9710  177.2430  143.5180 C   0  0  0  0  0  0  0  0  0  0  0  0
  192.3840  176.3780  146.5940 O   0  0  0  0  0  1  0  0  0  0  0  0
  192.0560  177.5030  142.5270 C   0  0  0  0  0  1  0  0  0  0  0  0
  190.1760  177.1620  146.4450 C   0  0  0  0  0  3  0  0  0  0  0  0
  188.7230  177.8030  144.4710 C   0  0  0  0  0  0  0  0  0  0  0  0
  191.1540  176.0960  144.4540 C   0  0  0  0  0  2  0  0  0  0  0  0
  188.9040  177.4750  145.7650 C   0  0  0  0  0  3  0  0  0  0  0  0
  189.8580  177.9960  143.5140 C   0  0  0  0  0  0  0  0  0  0  0  0
  189.7440  178.9530  142.5570 F   0  0  0  0  0  0  0  0  0  0  0  0
  191.2200  176.5780  145.8620 C   0  0  0  0  0  0  0  0  0  0  0  0
  181.2280  179.1780  142.3240 C   0  0  0  0  0  2  0  0  0  0  0  0
  180.1410  178.7300  143.2820 C   0  0  0  0  0  1  0  0  0  0  0  0
  1  4  1  6  0  0  0
  1  3  1  0  0  0  0
  2  4  1  0  0  0  0
  3 18  1  0  0  0  0
  4 10  2  0  0  0  0
  5  2  2  0  0  0  0
  5 17  1  0  0  0  0
  6 20  1  0  0  0  0
  7 14  1  1  0  0  0
  7  2  1  0  0  0  0
  9  8  1  6  0  0  0
  9 16  1  0  0  0  0
  9 11  1  0  0  0  0
 10 13  1  0  0  0  0
 11  5  1  0  0  0  0
 12 10  1  0  0  0  0
 13 18  2  0  0  0  0
 14 15  1  0  0  0  0
 15 25  1  0  0  0  0
 15  1  1  0  0  0  0
 16 20  1  6  0  0  0
 16  7  1  0  0  0  0
 17 12  2  0  0  0  0
 19  6  1  0  0  0  0
 19  8  1  0  0  0  0
 21 26  1  0  0  0  0
 23 21  1  0  0  0  0
 25 27  2  0  0  0  0
 26 30  1  0  0  0  0
 27 24  1  0  0  0  0
 28 21  2  0  0  0  0
 28 25  1  0  0  0  0
 29 28  1  0  0  0  0
 30 24  2  0  0  0  0
 30 22  1  0  0  0  0
 31 17  1  0  0  0  0
 31 32  1  0  0  0  0
M  END
>  <MODEL>
5

>  <REMARK>
 VINA RESULT:     -10.2      2.947      5.319
  Name = 
  2 active torsions:
  status: ('A' for Active; 'I' for Inactive)
    1  A    between atoms: C_13  and  C_29
    2  A    between atoms: C_16  and  N_27
                            x       y       z     vdW  Elec       q    Type
                         _______ _______ _______ _____ _____    ______ ____

>  <TORSDO>
F 2

$$$$
=
 OpenBabel11052414343D

 32 37  0  0  1  0  0  0  0  0999 V2000
  190.4170  176.7580  142.5710 C   0  0  2  0  0  3  0  0  0  0  0  0
  188.3720  177.4920  141.3300 C   0  0  0  0  0  0  0  0  0  0  0  0
  191.8160  177.1850  142.5810 N   0  0  0  0  0  2  0  0  0  0  0  0
  189.7370  177.2260  141.3130 C   0  0  0  0  0  0  0  0  0  0  0  0
  187.7490  178.0520  140.2030 C   0  0  0  0  0  0  0  0  0  0  0  0
  184.1570  178.4110  143.9450 C   0  0  0  0  0  2  0  0  0  0  0  0
  187.6700  177.3250  142.6460 C   0  0  1  0  0  3  0  0  0  0  0  0
  184.4310  179.2260  141.5890 C   0  0  0  0  0  2  0  0  0  0  0  0
  185.9250  178.9310  141.6560 C   0  0  2  0  0  3  0  0  0  0  0  0
  190.4910  177.4530  140.1550 C   0  0  0  0  0  0  0  0  0  0  0  0
  186.4280  178.5840  140.3320 N   0  0  0  0  0  2  0  0  0  0  0  0
  189.8530  177.9050  138.9940 C   0  0  0  0  0  3  0  0  0  0  0  0
  191.9230  177.3700  140.2120 N   0  0  0  0  0  0  0  0  0  0  0  0
  188.4940  177.9510  143.6820 N   0  0  0  0  0  2  0  0  0  0  0  0
  189.6980  177.2080  143.7860 N   0  0  0  0  0  0  0  0  0  0  0  0
  186.1960  177.7830  142.6380 C   0  0  2  0  0  3  0  0  0  0  0  0
  188.4800  178.1930  139.0080 C   0  0  0  0  0  0  0  0  0  0  0  0
  192.5500  177.2690  141.3500 C   0  0  0  0  0  3  0  0  0  0  0  0
  183.9040  179.5690  142.9810 C   0  0  0  0  0  2  0  0  0  0  0  0
  185.6490  178.1000  144.0300 C   0  0  0  0  0  2  0  0  0  0  0  0
  189.7290  177.4070  147.5040 C   0  0  0  0  0  0  0  0  0  0  0  0
  192.6430  175.8850  148.6860 O   0  0  0  0  0  1  0  0  0  0  0  0
  188.7760  177.6030  148.6350 C   0  0  0  0  0  1  0  0  0  0  0  0
  192.0740  175.8240  146.4090 C   0  0  0  0  0  3  0  0  0  0  0  0
  190.1600  176.8460  145.1020 C   0  0  0  0  0  0  0  0  0  0  0  0
  191.1730  177.6670  147.7700 C   0  0  0  0  0  2  0  0  0  0  0  0
  191.3700  176.2620  145.1870 C   0  0  0  0  0  3  0  0  0  0  0  0
  189.2730  177.0620  146.2890 C   0  0  0  0  0  0  0  0  0  0  0  0
  187.9300  176.9460  146.1250 F   0  0  0  0  0  0  0  0  0  0  0  0
  191.9680  176.4180  147.5950 C   0  0  0  0  0  0  0  0  0  0  0  0
  187.8340  178.7200  137.7690 C   0  0  0  0  0  2  0  0  0  0  0  0
  188.8750  178.9190  136.6840 C   0  0  0  0  0  1  0  0  0  0  0  0
  1  4  1  6  0  0  0
  1  3  1  0  0  0  0
  1 15  1  0  0  0  0
  4  2  1  0  0  0  0
  5 11  1  0  0  0  0
  5  2  2  0  0  0  0
  6 20  1  0  0  0  0
  7  2  1  6  0  0  0
  7 14  1  0  0  0  0
  8 19  1  0  0  0  0
  9  8  1  6  0  0  0
  9 16  1  0  0  0  0
 10 13  1  0  0  0  0
 10  4  2  0  0  0  0
 11  9  1  0  0  0  0
 12 17  2  0  0  0  0
 12 10  1  0  0  0  0
 13 18  2  0  0  0  0
 14 15  1  0  0  0  0
 15 25  1  0  0  0  0
 16  7  1  0  0  0  0
 16 20  1  1  0  0  0
 17  5  1  0  0  0  0
 18  3  1  0  0  0  0
 19  6  1  0  0  0  0
 21 26  1  0  0  0  0
 21 23  1  0  0  0  0
 24 30  2  0  0  0  0
 25 27  2  0  0  0  0
 25 28  1  0  0  0  0
 27 24  1  0  0  0  0
 28 21  2  0  0  0  0
 29 28  1  0  0  0  0
 30 26  1  0  0  0  0
 30 22  1  0  0  0  0
 31 17  1  0  0  0  0
 32 31  1  0  0  0  0
M  END
>  <MODEL>
6

>  <REMARK>
 VINA RESULT:     -10.0      3.028      6.260
  Name = 
  2 active torsions:
  status: ('A' for Active; 'I' for Inactive)
    1  A    between atoms: C_13  and  C_29
    2  A    between atoms: C_16  and  N_27
                            x       y       z     vdW  Elec       q    Type
                         _______ _______ _______ _____ _____    ______ ____

>  <TORSDO>
F 2

$$$$
=
 OpenBabel11052414343D

 32 37  0  0  1  0  0  0  0  0999 V2000
  189.4840  177.7470  142.1990 C   0  0  2  0  0  3  0  0  0  0  0  0
  187.9930  178.0980  144.1780 C   0  0  0  0  0  0  0  0  0  0  0  0
  190.3800  176.6730  141.7730 N   0  0  0  0  0  2  0  0  0  0  0  0
  189.2050  177.6390  143.6740 C   0  0  0  0  0  0  0  0  0  0  0  0
  187.6650  177.8870  145.5270 C   0  0  0  0  0  0  0  0  0  0  0  0
  183.2220  179.5340  143.3850 C   0  0  0  0  0  2  0  0  0  0  0  0
  187.0140  178.6470  143.1810 C   0  0  1  0  0  3  0  0  0  0  0  0
  183.9510  178.6030  145.5980 C   0  0  0  0  0  2  0  0  0  0  0  0
  185.2460  178.1060  144.9660 C   0  0  2  0  0  3  0  0  0  0  0  0
  190.1350  177.0180  144.5170 C   0  0  0  0  0  0  0  0  0  0  0  0
  186.3170  178.1010  145.9560 N   0  0  0  0  0  2  0  0  0  0  0  0
  189.8600  176.9050  145.8850 C   0  0  0  0  0  3  0  0  0  0  0  0
  191.2830  176.3680  143.9510 N   0  0  0  0  0  0  0  0  0  0  0  0
  186.9680  177.7310  142.0410 N   0  0  0  0  0  2  0  0  0  0  0  0
  188.2350  177.7670  141.4020 N   0  0  0  0  0  0  0  0  0  0  0  0
  185.6340  178.9970  143.7780 C   0  0  2  0  0  3  0  0  0  0  0  0
  188.6320  177.3520  146.3980 C   0  0  0  0  0  0  0  0  0  0  0  0
  191.3910  176.1820  142.6670 C   0  0  0  0  0  3  0  0  0  0  0  0
  182.8370  178.6260  144.5520 C   0  0  0  0  0  2  0  0  0  0  0  0
  184.5170  179.0520  142.7360 C   0  0  0  0  0  2  0  0  0  0  0  0
  186.7990  177.5170  137.9760 C   0  0  0  0  0  0  0  0  0  0  0  0
  189.3970  177.7380  135.6520 O   0  0  0  0  0  1  0  0  0  0  0  0
  185.4920  177.7000  137.2810 C   0  0  0  0  0  1  0  0  0  0  0  0
  189.7850  178.0540  137.9450 C   0  0  0  0  0  3  0  0  0  0  0  0
  188.2680  177.8970  139.9690 C   0  0  0  0  0  0  0  0  0  0  0  0
  187.8370  176.7010  137.2840 C   0  0  0  0  0  2  0  0  0  0  0  0
  189.4810  177.9510  139.3860 C   0  0  0  0  0  3  0  0  0  0  0  0
  186.9900  178.0340  139.2020 C   0  0  0  0  0  0  0  0  0  0  0  0
  185.9470  178.6760  139.7880 F   0  0  0  0  0  0  0  0  0  0  0  0
  189.0350  177.5330  136.9770 C   0  0  0  0  0  0  0  0  0  0  0  0
  188.3450  177.1760  147.8530 C   0  0  0  0  0  2  0  0  0  0  0  0
  188.8680  178.3650  148.6340 C   0  0  0  0  0  1  0  0  0  0  0  0
  1  3  1  6  0  0  0
  1  4  1  0  0  0  0
  2  5  1  0  0  0  0
  3 18  1  0  0  0  0
  4  2  2  0  0  0  0
  4 10  1  0  0  0  0
  5 11  1  0  0  0  0
  5 17  2  0  0  0  0
  6 19  1  0  0  0  0
  7 14  1  6  0  0  0
  7 16  1  0  0  0  0
  7  2  1  0  0  0  0
  9  8  1  1  0  0  0
  9 11  1  0  0  0  0
 10 12  2  0  0  0  0
 12 17  1  0  0  0  0
 13 10  1  0  0  0  0
 15 14  1  0  0  0  0
 15  1  1  0  0  0  0
 16 20  1  6  0  0  0
 16  9  1  0  0  0  0
 17 31  1  0  0  0  0
 18 13  2  0  0  0  0
 19  8  1  0  0  0  0
 20  6  1  0  0  0  0
 21 28  2  0  0  0  0
 22 30  1  0  0  0  0
 23 21  1  0  0  0  0
 24 27  1  0  0  0  0
 25 15  1  0  0  0  0
 26 21  1  0  0  0  0
 27 25  2  0  0  0  0
 28 29  1  0  0  0  0
 28 25  1  0  0  0  0
 30 26  1  0  0  0  0
 30 24  2  0  0  0  0
 31 32  1  0  0  0  0
M  END
>  <MODEL>
7

>  <REMARK>
 VINA RESULT:     -10.0      2.045      2.831
  Name = 
  2 active torsions:
  status: ('A' for Active; 'I' for Inactive)
    1  A    between atoms: C_13  and  C_29
    2  A    between atoms: C_16  and  N_27
                            x       y       z     vdW  Elec       q    Type
                         _______ _______ _______ _____ _____    ______ ____

>  <TORSDO>
F 2

$$$$
=
 OpenBabel11052414343D

 32 37  0  0  1  0  0  0  0  0999 V2000
  185.9990  178.7650  143.0020 C   0  0  2  0  0  3  0  0  0  0  0  0
  186.8360  178.4740  140.6620 C   0  0  0  0  0  0  0  0  0  0  0  0
  184.8320  178.2810  143.7380 N   0  0  0  0  0  2  0  0  0  0  0  0
  185.7590  178.6680  141.5200 C   0  0  0  0  0  0  0  0  0  0  0  0
  186.6150  178.2530  139.2930 C   0  0  0  0  0  0  0  0  0  0  0  0
  191.6470  177.1280  139.9630 C   0  0  0  0  0  2  0  0  0  0  0  0
  188.1870  178.3340  141.2990 C   0  0  1  0  0  3  0  0  0  0  0  0
  189.9590  176.9300  138.1190 C   0  0  0  0  0  2  0  0  0  0  0  0
  188.8300  177.1230  139.1250 C   0  0  2  0  0  3  0  0  0  0  0  0
  184.4500  178.7080  141.0200 C   0  0  0  0  0  0  0  0  0  0  0  0
  187.6920  177.7720  138.4840 N   0  0  0  0  0  2  0  0  0  0  0  0
  184.2340  178.5990  139.6420 C   0  0  0  0  0  3  0  0  0  0  0  0
  183.3420  178.7020  141.9330 N   0  0  0  0  0  0  0  0  0  0  0  0
  188.0580  177.4240  142.4380 N   0  0  0  0  0  2  0  0  0  0  0  0
  187.2350  178.0550  143.4070 N   0  0  0  0  0  0  0  0  0  0  0  0
  189.3160  177.9670  140.3110 C   0  0  2  0  0  3  0  0  0  0  0  0
  185.3140  178.3860  138.7710 C   0  0  0  0  0  0  0  0  0  0  0  0
  183.5130  178.4780  143.2050 C   0  0  0  0  0  3  0  0  0  0  0  0
  191.1560  176.2680  138.7990 C   0  0  0  0  0  2  0  0  0  0  0  0
  190.5310  177.3320  140.9860 C   0  0  0  0  0  2  0  0  0  0  0  0
  189.5880  177.2310  146.1720 C   0  0  0  0  0  0  0  0  0  0  0  0
  187.9310  177.6510  149.2190 O   0  0  0  0  0  1  0  0  0  0  0  0
  191.0560  177.1230  146.4150 C   0  0  0  0  0  1  0  0  0  0  0  0
  186.9180  178.2530  147.1880 C   0  0  0  0  0  3  0  0  0  0  0  0
  187.6730  178.0450  144.7790 C   0  0  0  0  0  0  0  0  0  0  0  0
  188.6800  176.5350  147.1300 C   0  0  0  0  0  2  0  0  0  0  0  0
  186.7340  178.2430  145.7230 C   0  0  0  0  0  3  0  0  0  0  0  0
  189.1280  177.8900  145.0960 C   0  0  0  0  0  0  0  0  0  0  0  0
  190.0390  178.4040  144.2310 F   0  0  0  0  0  0  0  0  0  0  0  0
  187.8180  177.5210  147.8410 C   0  0  0  0  0  0  0  0  0  0  0  0
  185.0500  178.2260  137.3110 C   0  0  0  0  0  2  0  0  0  0  0  0
  184.4430  176.8640  137.0380 C   0  0  0  0  0  1  0  0  0  0  0  0
  1  4  1  6  0  0  0
  1 15  1  0  0  0  0
  1  3  1  0  0  0  0
  2  4  1  0  0  0  0
  5  2  2  0  0  0  0
  6 20  1  0  0  0  0
  7  2  1  6  0  0  0
  7 14  1  0  0  0  0
  8 19  1  0  0  0  0
  9  8  1  6  0  0  0
  9 16  1  0  0  0  0
 10  4  2  0  0  0  0
 10 13  1  0  0  0  0
 11  9  1  0  0  0  0
 11  5  1  0  0  0  0
 12 10  1  0  0  0  0
 13 18  2  0  0  0  0
 14 15  1  0  0  0  0
 15 25  1  0  0  0  0
 16 20  1  1  0  0  0
 16  7  1  0  0  0  0
 17  5  1  0  0  0  0
 17 12  2  0  0  0  0
 18  3  1  0  0  0  0
 19  6  1  0  0  0  0
 21 23  1  0  0  0  0
 21 26  1  0  0  0  0
 24 30  2  0  0  0  0
 25 28  1  0  0  0  0
 25 27  2  0  0  0  0
 26 30  1  0  0  0  0
 27 24  1  0  0  0  0
 28 21  2  0  0  0  0
 29 28  1  0  0  0  0
 30 22  1  0  0  0  0
 31 17  1  0  0  0  0
 32 31  1  0  0  0  0
M  END
>  <MODEL>
8

>  <REMARK>
 VINA RESULT:      -9.9      2.972      7.326
  Name = 
  2 active torsions:
  status: ('A' for Active; 'I' for Inactive)
    1  A    between atoms: C_13  and  C_29
    2  A    between atoms: C_16  and  N_27
                            x       y       z     vdW  Elec       q    Type
                         _______ _______ _______ _____ _____    ______ ____

>  <TORSDO>
F 2

$$$$
=
 OpenBabel11052414343D

 32 37  0  0  1  0  0  0  0  0999 V2000
  185.0720  177.8780  143.7730 C   0  0  2  0  0  3  0  0  0  0  0  0
  187.4590  177.3650  144.3220 C   0  0  0  0  0  0  0  0  0  0  0  0
  184.1090  178.8780  144.2340 N   0  0  0  0  0  2  0  0  0  0  0  0
  186.1950  177.7380  144.7650 C   0  0  0  0  0  0  0  0  0  0  0  0
  188.5430  177.3560  145.2130 C   0  0  0  0  0  0  0  0  0  0  0  0
  190.7420  176.7920  140.5350 C   0  0  0  0  0  2  0  0  0  0  0  0
  187.6210  177.1600  142.8440 C   0  0  1  0  0  3  0  0  0  0  0  0
  191.5220  177.1680  142.8890 C   0  0  0  0  0  2  0  0  0  0  0  0
  190.1150  177.5910  143.2920 C   0  0  2  0  0  3  0  0  0  0  0  0
  185.9770  178.0480  146.1140 C   0  0  0  0  0  0  0  0  0  0  0  0
  189.8710  177.2550  144.6910 N   0  0  0  0  0  2  0  0  0  0  0  0
  187.0310  177.9330  147.0270 C   0  0  0  0  0  3  0  0  0  0  0  0
  184.7270  178.6270  146.5170 N   0  0  0  0  0  0  0  0  0  0  0  0
  186.9670  178.2770  142.1590 N   0  0  0  0  0  2  0  0  0  0  0  0
  185.5740  178.1870  142.4130 N   0  0  0  0  0  0  0  0  0  0  0  0
  189.0760  176.9000  142.3990 C   0  0  2  0  0  3  0  0  0  0  0  0
  188.3140  177.5730  146.5850 C   0  0  0  0  0  0  0  0  0  0  0  0
  183.8580  179.0400  145.6380 C   0  0  0  0  0  3  0  0  0  0  0  0
  191.7660  177.5030  141.4180 C   0  0  0  0  0  2  0  0  0  0  0  0
  189.3230  177.2040  140.9210 C   0  0  0  0  0  2  0  0  0  0  0  0
  184.6930  179.0200  138.8930 C   0  0  0  0  0  0  0  0  0  0  0  0
  181.2230  179.3520  138.6530 O   0  0  0  0  0  1  0  0  0  0  0  0
  185.2790  178.9170  137.5250 C   0  0  0  0  0  1  0  0  0  0  0  0
  182.2430  178.6240  140.6390 C   0  0  0  0  0  3  0  0  0  0  0  0
  184.6700  178.3320  141.3010 C   0  0  0  0  0  0  0  0  0  0  0  0
  183.5820  179.9950  139.0930 C   0  0  0  0  0  2  0  0  0  0  0  0
  183.3590  178.4400  141.5870 C   0  0  0  0  0  3  0  0  0  0  0  0
  185.1980  178.2900  139.9010 C   0  0  0  0  0  0  0  0  0  0  0  0
  186.2750  177.5050  139.6370 F   0  0  0  0  0  0  0  0  0  0  0  0
  182.3310  179.2870  139.4880 C   0  0  0  0  0  0  0  0  0  0  0  0
  189.4310  177.5040  147.5730 C   0  0  0  0  0  2  0  0  0  0  0  0
  189.0550  178.2530  148.8370 C   0  0  0  0  0  1  0  0  0  0  0  0
  1  3  1  1  0  0  0
  1  4  1  0  0  0  0
  2  4  2  0  0  0  0
  2  5  1  0  0  0  0
  3 18  1  0  0  0  0
  4 10  1  0  0  0  0
  5 17  2  0  0  0  0
  6 20  1  0  0  0  0
  6 19  1  0  0  0  0
  7 14  1  6  0  0  0
  7  2  1  0  0  0  0
  9  8  1  6  0  0  0
  9 11  1  0  0  0  0
 10 13  1  0  0  0  0
 10 12  2  0  0  0  0
 11  5  1  0  0  0  0
 14 15  1  0  0  0  0
 15  1  1  0  0  0  0
 16 20  1  6  0  0  0
 16  7  1  0  0  0  0
 16  9  1  0  0  0  0
 17 12  1  0  0  0  0
 17 31  1  0  0  0  0
 18 13  2  0  0  0  0
 19  8  1  0  0  0  0
 21 26  1  0  0  0  0
 21 28  2  0  0  0  0
 22 30  1  0  0  0  0
 23 21  1  0  0  0  0
 24 27  1  0  0  0  0
 25 27  2  0  0  0  0
 25 15  1  0  0  0  0
 26 30  1  0  0  0  0
 28 25  1  0  0  0  0
 29 28  1  0  0  0  0
 30 24  2  0  0  0  0
 31 32  1  0  0  0  0
M  END
>  <MODEL>
9

>  <REMARK>
 VINA RESULT:      -9.9      2.967      6.232
  Name = 
  2 active torsions:
  status: ('A' for Active; 'I' for Inactive)
    1  A    between atoms: C_13  and  C_29
    2  A    between atoms: C_16  and  N_27
                            x       y       z     vdW  Elec       q    Type
                         _______ _______ _______ _____ _____    ______ ____

>  <TORSDO>
F 2

$$$$
