=
 OpenBabel11052415083D

 55 60  0  0  1  0  0  0  0  0999 V2000
  191.5930  175.8690  143.7880 C   0  0  0  0  0  3  0  0  0  0  0  0
  189.8920  177.4890  145.3080 C   0  0  0  0  0  0  0  0  0  0  0  0
  189.6430  177.2960  143.9450 C   0  0  0  0  0  3  0  0  0  0  0  0
  191.8450  176.0620  145.1500 C   0  0  0  0  0  3  0  0  0  0  0  0
  190.4880  176.4830  143.1850 C   0  0  0  0  0  0  0  0  0  0  0  0
  190.9950  176.8720  145.9100 C   0  0  0  0  0  3  0  0  0  0  0  0
  188.9860  178.3620  146.1090 C   0  0  0  0  0  2  0  0  0  0  0  0
  187.9340  177.3700  147.2170 S   0  0  0  0  0  0  0  0  0  0  0  0
  186.4850  177.4830  146.1220 C   0  0  0  0  0  2  0  0  0  0  0  0
  185.7350  178.7820  146.3730 C   0  0  0  0  0  2  0  0  0  0  0  0
  184.4680  178.8300  145.5360 C   0  0  0  0  0  2  0  0  0  0  0  0
  182.8510  179.3530  143.2540 O   0  0  0  0  0  0  0  0  0  0  0  0
  183.9050  178.6830  143.0810 C   0  0  0  0  0  0  0  0  0  0  0  0
  184.7510  178.3670  144.1860 N   0  0  0  0  0  2  0  0  0  0  0  0
  183.7690  179.0800  140.7520 O   0  0  0  0  0  0  0  0  0  0  0  0
  184.2470  178.1770  141.7190 C   0  0  2  0  0  3  0  0  0  0  0  0
  183.0140  177.9110  140.9440 C   0  0  2  0  0  3  0  0  0  0  0  0
  183.3100  176.9480  139.8110 C   0  0  0  0  0  2  0  0  0  0  0  0
  182.6690  176.6280  137.2420 C   0  0  2  0  0  3  0  0  0  0  0  0
  182.9810  178.0750  137.5980 C   0  0  0  0  0  2  0  0  0  0  0  0
  182.3570  177.1700  138.6360 C   0  0  2  0  0  0  0  0  0  0  0  0
  180.2780  176.5880  139.6680 O   0  0  0  0  0  1  0  0  0  0  0  0
  180.9170  177.5710  138.9090 C   0  0  0  0  0  2  0  0  0  0  0  0
  183.9580  175.8060  137.1900 C   0  0  1  0  0  3  0  0  0  0  0  0
  183.6680  174.3870  136.8150 C   0  0  0  0  0  0  0  0  0  0  0  0
  184.2220  173.3340  137.5340 O   0  0  0  0  0  1  0  0  0  0  0  0
  182.8510  174.1460  135.8860 O   0  0  0  0  0  0  0  0  0  0  0  0
  184.8380  176.3620  136.2560 O   0  0  0  0  0  0  0  0  0  0  0  0
  186.1080  176.1980  136.8140 C   0  0  0  0  0  1  0  0  0  0  0  0
  190.2210  176.2910  141.7330 C   0  0  0  0  0  2  0  0  0  0  0  0
  188.5160  177.5950  140.6500 C   0  0  0  0  0  2  0  0  0  0  0  0
  187.1790  178.7380  138.9690 O   0  0  0  0  0  1  0  0  0  0  0  0
  189.3700  177.9320  138.3750 C   0  0  0  0  0  0  0  0  0  0  0  0
  189.9280  177.5710  141.1000 N   0  0  0  0  0  0  0  0  0  0  0  0
  189.2080  178.2100  137.1560 O   0  0  0  0  0  0  0  0  0  0  0  0
  188.3620  178.1900  139.3330 N   0  0  0  0  0  0  0  0  0  0  0  0
  190.6390  177.3510  138.8740 C   0  0  1  0  0  3  0  0  0  0  0  0
  190.9130  177.8690  140.1710 O   0  0  0  0  0  0  0  0  0  0  0  0
  189.5260  175.3210  138.1190 O   0  0  0  0  0  0  0  0  0  0  0  0
  189.0910  173.9670  136.2080 C   0  0  0  0  0  2  0  0  0  0  0  0
  191.8810  175.1960  138.0300 C   0  0  2  0  0  3  0  0  0  0  0  0
  191.2950  174.4740  136.9560 O   0  0  0  0  0  0  0  0  0  0  0  0
  189.9260  174.5530  137.0510 C   0  0  0  0  0  0  0  0  0  0  0  0
  190.6720  175.8100  138.8080 C   0  0  1  0  0  3  0  0  0  0  0  0
  192.8930  176.1960  137.4850 C   0  0  0  0  0  2  0  0  0  0  0  0
  194.2170  175.8860  138.0070 N   0  0  0  0  0  2  0  0  0  0  0  0
  195.1280  173.6740  138.4750 C   0  0  0  0  0  3  0  0  0  0  0  0
  196.4650  172.4920  136.8290 C   0  0  0  0  0  0  0  0  0  0  0  0
  195.5610  174.6870  136.3220 C   0  0  0  0  0  3  0  0  0  0  0  0
  196.3040  173.5670  135.9430 C   0  0  0  0  0  3  0  0  0  0  0  0
  195.8700  172.5520  138.0960 C   0  0  0  0  0  3  0  0  0  0  0  0
  194.9690  174.7450  137.5920 C   0  0  0  0  0  0  0  0  0  0  0  0
  197.2470  171.3110  136.4350 C   0  0  0  0  0  0  0  0  0  0  0  0
  196.6700  170.2820  135.9910 O   0  0  0  0  0  0  0  0  0  0  0  0
  198.6320  171.3180  136.5470 O   0  0  0  0  0  1  0  0  0  0  0  0
  1  4  1  0  0  0  0
  2  6  1  0  0  0  0
  2  7  1  0  0  0  0
  3  2  2  0  0  0  0
  4  6  2  0  0  0  0
  5  1  2  0  0  0  0
  5  3  1  0  0  0  0
  7  8  1  0  0  0  0
  9 10  1  0  0  0  0
  9  8  1  0  0  0  0
 11 10  1  0  0  0  0
 13 12  2  0  0  0  0
 13 14  1  0  0  0  0
 14 11  1  0  0  0  0
 15 17  1  0  0  0  0
 15 16  1  0  0  0  0
 16 13  1  1  0  0  0
 17 18  1  6  0  0  0
 17 16  1  0  0  0  0
 19 24  1  1  0  0  0
 19 20  1  0  0  0  0
 19 21  1  0  0  0  0
 20 21  1  0  0  0  0
 21 23  1  1  0  0  0
 21 18  1  0  0  0  0
 23 22  1  0  0  0  0
 24 28  1  6  0  0  0
 25 24  1  0  0  0  0
 25 26  1  0  0  0  0
 27 25  2  0  0  0  0
 28 29  1  0  0  0  0
 30  5  1  0  0  0  0
 31 34  1  0  0  0  0
 32 36  1  0  0  0  0
 33 36  1  0  0  0  0
 34 30  1  0  0  0  0
 35 33  2  0  0  0  0
 36 31  1  0  0  0  0
 37 33  1  1  0  0  0
 37 38  1  0  0  0  0
 38 34  1  0  0  0  0
 40 43  2  0  0  0  0
 41 45  1  6  0  0  0
 41 44  1  0  0  0  0
 42 43  1  0  0  0  0
 42 41  1  0  0  0  0
 43 39  1  0  0  0  0
 44 39  1  6  0  0  0
 44 37  1  0  0  0  0
 45 46  1  0  0  0  0
 48 51  2  0  0  0  0
 49 52  1  0  0  0  0
 50 49  2  0  0  0  0
 50 48  1  0  0  0  0
 51 47  1  0  0  0  0
 52 46  1  0  0  0  0
 52 47  2  0  0  0  0
 53 55  1  0  0  0  0
 53 48  1  0  0  0  0
 54 53  2  0  0  0  0
M  END
>  <MODEL>
1

>  <REMARK>
 VINA RESULT:      -7.0      0.000      0.000
  Name = 
  20 active torsions:
  status: ('A' for Active; 'I' for Inactive)
    1  A    between atoms: C_1  and  C_53
    2  A    between atoms: C_2  and  N_28
    3  A    between atoms: C_2  and  C_44
    4  A    between atoms: C_3  and  C_53
    5  A    between atoms: O_6  and  C_53
    6  A    between atoms: C_8  and  N_22
    7  A    between atoms: C_8  and  C_35
    8  A    between atoms: C_10  and  C_32
    9  A    between atoms: C_16  and  C_36
   10  A    between atoms: C_20  and  C_42
   11  A    between atoms: C_25  and  C_38
   12  A    between atoms: C_26  and  C_45
   13  A    between atoms: C_27  and  C_54
   14  A    between atoms: C_29  and  C_38
   15  A    between atoms: C_29  and  C_50
   16  A    between atoms: N_33  and  C_36
   17  A    between atoms: N_33  and  C_52
   18  A    between atoms: C_35  and  C_43
   19  A    between atoms: C_43  and  S_51
   20  A    between atoms: S_51  and  C_54
                            x       y       z     vdW  Elec       q    Type
                         _______ _______ _______ _____ _____    ______ ____

>  <TORSDO>
F 20

$$$$
=
 OpenBabel11052415083D

 55 60  0  0  1  0  0  0  0  0999 V2000
  184.4110  173.0430  136.5080 C   0  0  0  0  0  3  0  0  0  0  0  0
  187.2030  173.2200  136.4890 C   0  0  0  0  0  0  0  0  0  0  0  0
  186.4330  174.3320  136.8450 C   0  0  0  0  0  3  0  0  0  0  0  0
  185.1790  171.9310  136.1500 C   0  0  0  0  0  3  0  0  0  0  0  0
  185.0390  174.2450  136.8600 C   0  0  0  0  0  0  0  0  0  0  0  0
  186.5740  172.0180  136.1400 C   0  0  0  0  0  3  0  0  0  0  0  0
  188.6900  173.3250  136.4720 C   0  0  0  0  0  2  0  0  0  0  0  0
  189.2950  173.7780  134.8140 S   0  0  0  0  0  0  0  0  0  0  0  0
  190.8030  172.7710  134.9680 C   0  0  0  0  0  2  0  0  0  0  0  0
  191.6050  173.2070  136.1840 C   0  0  0  0  0  2  0  0  0  0  0  0
  192.5040  174.3790  135.8300 C   0  0  0  0  0  2  0  0  0  0  0  0
  194.4430  175.4430  137.6210 O   0  0  0  0  0  0  0  0  0  0  0  0
  193.2990  175.9730  137.6180 C   0  0  0  0  0  0  0  0  0  0  0  0
  192.2730  175.4750  136.7590 N   0  0  0  0  0  2  0  0  0  0  0  0
  193.8070  176.9810  139.6980 O   0  0  0  0  0  0  0  0  0  0  0  0
  193.0000  177.0990  138.5520 C   0  0  2  0  0  3  0  0  0  0  0  0
  192.4670  176.5800  139.8310 C   0  0  2  0  0  3  0  0  0  0  0  0
  191.7010  177.6690  140.5550 C   0  0  0  0  0  2  0  0  0  0  0  0
  189.0600  177.3510  140.3600 C   0  0  2  0  0  3  0  0  0  0  0  0
  189.4620  178.2770  141.5000 C   0  0  0  0  0  2  0  0  0  0  0  0
  190.3760  177.1390  141.1060 C   0  0  2  0  0  0  0  0  0  0  0  0
  191.3800  176.3370  143.1250 O   0  0  0  0  0  1  0  0  0  0  0  0
  190.3920  176.0610  142.1760 C   0  0  0  0  0  2  0  0  0  0  0  0
  189.2370  178.0600  139.0160 C   0  0  1  0  0  3  0  0  0  0  0  0
  189.3510  177.0670  137.9030 C   0  0  0  0  0  0  0  0  0  0  0  0
  189.5360  177.4880  136.5910 O   0  0  0  0  0  0  0  0  0  0  0  0
  189.3580  175.8350  138.1690 O   0  0  0  0  0  1  0  0  0  0  0  0
  188.1460  178.9020  138.7760 O   0  0  0  0  0  0  0  0  0  0  0  0
  187.1660  178.0750  138.2230 C   0  0  0  0  0  1  0  0  0  0  0  0
  184.2260  175.4360  137.2300 C   0  0  0  0  0  2  0  0  0  0  0  0
  181.8380  175.6000  137.0090 C   0  0  0  0  0  2  0  0  0  0  0  0
  179.5060  176.2060  137.3550 O   0  0  0  0  0  1  0  0  0  0  0  0
  181.1190  176.7250  139.0680 C   0  0  0  0  0  0  0  0  0  0  0  0
  182.9510  175.0210  137.7990 N   0  0  0  0  0  0  0  0  0  0  0  0
  180.2820  177.3870  139.7390 O   0  0  0  0  0  0  0  0  0  0  0  0
  180.7620  176.1030  137.8490 N   0  0  0  0  0  0  0  0  0  0  0  0
  182.5120  176.5360  139.5370 C   0  0  1  0  0  3  0  0  0  0  0  0
  182.9580  175.2350  139.1680 O   0  0  0  0  0  0  0  0  0  0  0  0
  182.7530  178.6450  138.3440 O   0  0  0  0  0  0  0  0  0  0  0  0
  182.3560  180.9890  138.4900 C   0  0  0  0  0  2  0  0  0  0  0  0
  184.1430  178.4700  140.2430 C   0  0  2  0  0  3  0  0  0  0  0  0
  183.6980  179.8070  140.0630 O   0  0  0  0  0  0  0  0  0  0  0  0
  182.9090  179.8750  138.9400 C   0  0  0  0  0  0  0  0  0  0  0  0
  183.4650  177.6630  139.0890 C   0  0  1  0  0  3  0  0  0  0  0  0
  183.8130  178.0060  141.6570 C   0  0  0  0  0  2  0  0  0  0  0  0
  184.3410  178.9620  142.6210 N   0  0  0  0  0  2  0  0  0  0  0  0
  185.0750  179.0730  144.9420 C   0  0  0  0  0  3  0  0  0  0  0  0
  187.0960  177.9450  145.6760 C   0  0  0  0  0  0  0  0  0  0  0  0
  186.3870  177.7990  143.3600 C   0  0  0  0  0  3  0  0  0  0  0  0
  187.2920  177.4720  144.3720 C   0  0  0  0  0  3  0  0  0  0  0  0
  185.9800  178.7470  145.9550 C   0  0  0  0  0  3  0  0  0  0  0  0
  185.2730  178.6030  143.6420 C   0  0  0  0  0  0  0  0  0  0  0  0
  188.0460  177.6050  146.7450 C   0  0  0  0  0  0  0  0  0  0  0  0
  187.6310  177.2290  147.8730 O   0  0  0  0  0  1  0  0  0  0  0  0
  189.4150  177.6920  146.5190 O   0  0  0  0  0  0  0  0  0  0  0  0
  1  5  1  0  0  0  0
  2  3  1  0  0  0  0
  3  5  2  0  0  0  0
  4  1  2  0  0  0  0
  5 30  1  0  0  0  0
  6  4  1  0  0  0  0
  6  2  2  0  0  0  0
  7  2  1  0  0  0  0
  8  9  1  0  0  0  0
  8  7  1  0  0  0  0
  9 10  1  0  0  0  0
 11 10  1  0  0  0  0
 11 14  1  0  0  0  0
 13 12  2  0  0  0  0
 14 13  1  0  0  0  0
 15 17  1  0  0  0  0
 16 13  1  6  0  0  0
 16 15  1  0  0  0  0
 16 17  1  0  0  0  0
 17 18  1  1  0  0  0
 19 24  1  6  0  0  0
 19 21  1  0  0  0  0
 19 20  1  0  0  0  0
 21 18  1  6  0  0  0
 21 20  1  0  0  0  0
 21 23  1  0  0  0  0
 23 22  1  0  0  0  0
 24 25  1  6  0  0  0
 25 27  1  0  0  0  0
 26 25  2  0  0  0  0
 28 24  1  0  0  0  0
 29 28  1  0  0  0  0
 30 34  1  0  0  0  0
 31 34  1  0  0  0  0
 31 36  1  0  0  0  0
 32 36  1  0  0  0  0
 33 35  2  0  0  0  0
 34 38  1  0  0  0  0
 36 33  1  0  0  0  0
 37 33  1  6  0  0  0
 38 37  1  0  0  0  0
 39 43  1  0  0  0  0
 40 43  2  0  0  0  0
 41 45  1  1  0  0  0
 42 41  1  0  0  0  0
 43 42  1  0  0  0  0
 44 39  1  6  0  0  0
 44 37  1  0  0  0  0
 44 41  1  0  0  0  0
 45 46  1  0  0  0  0
 46 52  1  0  0  0  0
 47 51  1  0  0  0  0
 48 51  2  0  0  0  0
 48 53  1  0  0  0  0
 49 52  1  0  0  0  0
 49 50  2  0  0  0  0
 50 48  1  0  0  0  0
 52 47  2  0  0  0  0
 53 54  1  0  0  0  0
 55 53  2  0  0  0  0
M  END
>  <MODEL>
2

>  <REMARK>
 VINA RESULT:      -7.0      3.156     10.361
  Name = 
  20 active torsions:
  status: ('A' for Active; 'I' for Inactive)
    1  A    between atoms: C_1  and  C_53
    2  A    between atoms: C_2  and  N_28
    3  A    between atoms: C_2  and  C_44
    4  A    between atoms: C_3  and  C_53
    5  A    between atoms: O_6  and  C_53
    6  A    between atoms: C_8  and  N_22
    7  A    between atoms: C_8  and  C_35
    8  A    between atoms: C_10  and  C_32
    9  A    between atoms: C_16  and  C_36
   10  A    between atoms: C_20  and  C_42
   11  A    between atoms: C_25  and  C_38
   12  A    between atoms: C_26  and  C_45
   13  A    between atoms: C_27  and  C_54
   14  A    between atoms: C_29  and  C_38
   15  A    between atoms: C_29  and  C_50
   16  A    between atoms: N_33  and  C_36
   17  A    between atoms: N_33  and  C_52
   18  A    between atoms: C_35  and  C_43
   19  A    between atoms: C_43  and  S_51
   20  A    between atoms: S_51  and  C_54
                            x       y       z     vdW  Elec       q    Type
                         _______ _______ _______ _____ _____    ______ ____

>  <TORSDO>
F 20

$$$$
=
 OpenBabel11052415083D

 55 60  0  0  1  0  0  0  0  0999 V2000
  184.6060  173.2050  136.8820 C   0  0  0  0  0  3  0  0  0  0  0  0
  187.3000  173.8790  136.5450 C   0  0  0  0  0  0  0  0  0  0  0  0
  186.3280  174.8830  136.5990 C   0  0  0  0  0  3  0  0  0  0  0  0
  185.5760  172.1990  136.8270 C   0  0  0  0  0  3  0  0  0  0  0  0
  184.9830  174.5490  136.7720 C   0  0  0  0  0  0  0  0  0  0  0  0
  186.9230  172.5350  136.6580 C   0  0  0  0  0  3  0  0  0  0  0  0
  188.7330  174.2460  136.3550 C   0  0  0  0  0  2  0  0  0  0  0  0
  189.2280  174.0680  134.6110 S   0  0  0  0  0  0  0  0  0  0  0  0
  190.3850  172.7080  134.9640 C   0  0  0  0  0  2  0  0  0  0  0  0
  191.5590  173.2160  135.7860 C   0  0  0  0  0  2  0  0  0  0  0  0
  192.2230  174.3910  135.0880 C   0  0  0  0  0  2  0  0  0  0  0  0
  193.6270  174.4350  137.5630 O   0  0  0  0  0  0  0  0  0  0  0  0
  193.0290  175.4890  137.2120 C   0  0  0  0  0  0  0  0  0  0  0  0
  192.2890  175.5280  135.9920 N   0  0  0  0  0  2  0  0  0  0  0  0
  193.9180  176.4460  139.1850 O   0  0  0  0  0  0  0  0  0  0  0  0
  193.0570  176.6880  138.1000 C   0  0  2  0  0  3  0  0  0  0  0  0
  192.5410  176.3450  139.4440 C   0  0  2  0  0  3  0  0  0  0  0  0
  192.0870  177.6010  140.1630 C   0  0  0  0  0  2  0  0  0  0  0  0
  189.9510  177.3960  141.7460 C   0  0  2  0  0  3  0  0  0  0  0  0
  190.0790  176.2330  140.7730 C   0  0  0  0  0  2  0  0  0  0  0  0
  190.5720  177.6030  140.3660 C   0  0  2  0  0  0  0  0  0  0  0  0
  189.1620  177.1980  138.4750 O   0  0  0  0  0  1  0  0  0  0  0  0
  189.6770  178.2050  139.2960 C   0  0  0  0  0  2  0  0  0  0  0  0
  190.9910  177.2690  142.8620 C   0  0  1  0  0  3  0  0  0  0  0  0
  191.1160  178.5530  143.6190 C   0  0  0  0  0  0  0  0  0  0  0  0
  190.1890  179.5740  143.4450 O   0  0  0  0  0  0  0  0  0  0  0  0
  192.0270  178.6790  144.4810 O   0  0  0  0  0  1  0  0  0  0  0  0
  190.6220  176.2460  143.7410 O   0  0  0  0  0  0  0  0  0  0  0  0
  191.7940  175.5200  143.9640 C   0  0  0  0  0  1  0  0  0  0  0  0
  183.9530  175.6240  136.8180 C   0  0  0  0  0  2  0  0  0  0  0  0
  181.5530  175.7290  136.8830 C   0  0  0  0  0  2  0  0  0  0  0  0
  179.2640  176.2580  137.5210 O   0  0  0  0  0  1  0  0  0  0  0  0
  181.0540  176.7620  139.0530 C   0  0  0  0  0  0  0  0  0  0  0  0
  182.7630  175.1540  137.5160 N   0  0  0  0  0  0  0  0  0  0  0  0
  180.2860  177.3770  139.8410 O   0  0  0  0  0  0  0  0  0  0  0  0
  180.5710  176.1730  137.8610 N   0  0  0  0  0  0  0  0  0  0  0  0
  182.4970  176.5950  139.3490 C   0  0  1  0  0  3  0  0  0  0  0  0
  182.9270  175.3210  138.8820 O   0  0  0  0  0  0  0  0  0  0  0  0
  182.5400  178.7810  138.2750 O   0  0  0  0  0  0  0  0  0  0  0  0
  182.1580  181.1040  138.6330 C   0  0  0  0  0  2  0  0  0  0  0  0
  184.2060  178.5040  139.9230 C   0  0  2  0  0  3  0  0  0  0  0  0
  183.7320  179.8440  139.9010 O   0  0  0  0  0  0  0  0  0  0  0  0
  182.7800  179.9710  138.9190 C   0  0  0  0  0  0  0  0  0  0  0  0
  183.3630  177.7630  138.8360 C   0  0  1  0  0  3  0  0  0  0  0  0
  184.1000  177.9450  141.3370 C   0  0  0  0  0  2  0  0  0  0  0  0
  184.5630  178.9420  142.2930 N   0  0  0  0  0  2  0  0  0  0  0  0
  184.9810  179.0400  144.6920 C   0  0  0  0  0  3  0  0  0  0  0  0
  186.9630  178.0300  145.6640 C   0  0  0  0  0  0  0  0  0  0  0  0
  186.5720  177.8990  143.2730 C   0  0  0  0  0  3  0  0  0  0  0  0
  187.3590  177.6060  144.3880 C   0  0  0  0  0  3  0  0  0  0  0  0
  185.7670  178.7470  145.8090 C   0  0  0  0  0  3  0  0  0  0  0  0
  185.3780  178.6190  143.4210 C   0  0  0  0  0  0  0  0  0  0  0  0
  187.7880  177.7250  146.8420 C   0  0  0  0  0  0  0  0  0  0  0  0
  188.6800  176.8360  146.7850 O   0  0  0  0  0  0  0  0  0  0  0  0
  187.5950  178.4180  148.0320 O   0  0  0  0  0  1  0  0  0  0  0  0
  2  3  2  0  0  0  0
  2  6  1  0  0  0  0
  3  5  1  0  0  0  0
  4  1  1  0  0  0  0
  5 30  1  0  0  0  0
  5  1  2  0  0  0  0
  6  4  2  0  0  0  0
  7  2  1  0  0  0  0
  8  9  1  0  0  0  0
  8  7  1  0  0  0  0
  9 10  1  0  0  0  0
 11 10  1  0  0  0  0
 11 14  1  0  0  0  0
 13 12  2  0  0  0  0
 14 13  1  0  0  0  0
 15 17  1  0  0  0  0
 16 13  1  6  0  0  0
 16 15  1  0  0  0  0
 16 17  1  0  0  0  0
 17 18  1  1  0  0  0
 18 21  1  0  0  0  0
 19 24  1  1  0  0  0
 20 19  1  0  0  0  0
 21 23  1  6  0  0  0
 21 20  1  0  0  0  0
 21 19  1  0  0  0  0
 22 23  1  0  0  0  0
 24 25  1  1  0  0  0
 24 28  1  0  0  0  0
 25 27  1  0  0  0  0
 26 25  2  0  0  0  0
 28 29  1  0  0  0  0
 30 34  1  0  0  0  0
 31 34  1  0  0  0  0
 31 36  1  0  0  0  0
 32 36  1  0  0  0  0
 33 37  1  0  0  0  0
 33 35  2  0  0  0  0
 34 38  1  0  0  0  0
 36 33  1  0  0  0  0
 37 38  1  6  0  0  0
 39 43  1  0  0  0  0
 40 43  2  0  0  0  0
 41 45  1  1  0  0  0
 42 41  1  0  0  0  0
 43 42  1  0  0  0  0
 44 39  1  1  0  0  0
 44 37  1  0  0  0  0
 44 41  1  0  0  0  0
 45 46  1  0  0  0  0
 46 52  1  0  0  0  0
 47 51  1  0  0  0  0
 48 51  2  0  0  0  0
 48 53  1  0  0  0  0
 49 52  1  0  0  0  0
 49 50  2  0  0  0  0
 50 48  1  0  0  0  0
 52 47  2  0  0  0  0
 53 55  1  0  0  0  0
 54 53  2  0  0  0  0
M  END
>  <MODEL>
3

>  <REMARK>
 VINA RESULT:      -6.4      3.264     10.749
  Name = 
  20 active torsions:
  status: ('A' for Active; 'I' for Inactive)
    1  A    between atoms: C_1  and  C_53
    2  A    between atoms: C_2  and  N_28
    3  A    between atoms: C_2  and  C_44
    4  A    between atoms: C_3  and  C_53
    5  A    between atoms: O_6  and  C_53
    6  A    between atoms: C_8  and  N_22
    7  A    between atoms: C_8  and  C_35
    8  A    between atoms: C_10  and  C_32
    9  A    between atoms: C_16  and  C_36
   10  A    between atoms: C_20  and  C_42
   11  A    between atoms: C_25  and  C_38
   12  A    between atoms: C_26  and  C_45
   13  A    between atoms: C_27  and  C_54
   14  A    between atoms: C_29  and  C_38
   15  A    between atoms: C_29  and  C_50
   16  A    between atoms: N_33  and  C_36
   17  A    between atoms: N_33  and  C_52
   18  A    between atoms: C_35  and  C_43
   19  A    between atoms: C_43  and  S_51
   20  A    between atoms: S_51  and  C_54
                            x       y       z     vdW  Elec       q    Type
                         _______ _______ _______ _____ _____    ______ ____

>  <TORSDO>
F 20

$$$$
=
 OpenBabel11052415083D

 55 60  0  0  1  0  0  0  0  0999 V2000
  185.4720  178.0530  137.6590 C   0  0  0  0  0  3  0  0  0  0  0  0
  182.7050  177.6340  137.6760 C   0  0  0  0  0  0  0  0  0  0  0  0
  183.4750  177.1870  136.5970 C   0  0  0  0  0  3  0  0  0  0  0  0
  184.7050  178.5010  138.7380 C   0  0  0  0  0  3  0  0  0  0  0  0
  184.8570  177.3910  136.5880 C   0  0  0  0  0  0  0  0  0  0  0  0
  183.3210  178.2930  138.7470 C   0  0  0  0  0  3  0  0  0  0  0  0
  181.2300  177.4160  137.6740 C   0  0  0  0  0  2  0  0  0  0  0  0
  180.3670  178.7720  138.5290 S   0  0  0  0  0  0  0  0  0  0  0  0
  179.5130  177.6510  139.6800 C   0  0  0  0  0  2  0  0  0  0  0  0
  180.4240  177.2970  140.8440 C   0  0  0  0  0  2  0  0  0  0  0  0
  180.4580  178.4330  141.8520 C   0  0  0  0  0  2  0  0  0  0  0  0
  182.0140  178.4570  144.2340 O   0  0  0  0  0  0  0  0  0  0  0  0
  182.5440  178.9180  143.1870 C   0  0  0  0  0  0  0  0  0  0  0  0
  181.8120  178.9550  141.9620 N   0  0  0  0  0  2  0  0  0  0  0  0
  184.6880  178.9270  142.1850 O   0  0  0  0  0  0  0  0  0  0  0  0
  183.9290  179.4710  143.2380 C   0  0  2  0  0  3  0  0  0  0  0  0
  184.9090  178.3840  143.4620 C   0  0  2  0  0  3  0  0  0  0  0  0
  186.2000  178.9530  144.0180 C   0  0  0  0  0  2  0  0  0  0  0  0
  187.6990  177.6970  145.8290 C   0  0  2  0  0  3  0  0  0  0  0  0
  186.3960  176.9670  145.5310 C   0  0  0  0  0  2  0  0  0  0  0  0
  186.4420  178.4760  145.4500 C   0  0  2  0  0  0  0  0  0  0  0  0
  184.4210  178.4650  146.7320 O   0  0  0  0  0  1  0  0  0  0  0  0
  185.6550  179.1040  146.5880 C   0  0  0  0  0  2  0  0  0  0  0  0
  188.6780  177.5280  144.6650 C   0  0  1  0  0  3  0  0  0  0  0  0
  190.0910  177.5220  145.1570 C   0  0  0  0  0  0  0  0  0  0  0  0
  191.1490  177.7280  144.2790 O   0  0  0  0  0  0  0  0  0  0  0  0
  190.3180  177.4080  146.3910 O   0  0  0  0  0  1  0  0  0  0  0  0
  188.4150  176.3290  143.9950 O   0  0  0  0  0  0  0  0  0  0  0  0
  188.6280  176.6160  142.6440 C   0  0  0  0  0  1  0  0  0  0  0  0
  185.6670  176.9200  135.4310 C   0  0  0  0  0  2  0  0  0  0  0  0
  185.5130  174.9320  136.7730 C   0  0  0  0  0  2  0  0  0  0  0  0
  186.0730  172.9210  138.0240 O   0  0  0  0  0  1  0  0  0  0  0  0
  187.7230  173.8890  136.5600 C   0  0  0  0  0  0  0  0  0  0  0  0
  185.7100  175.4640  135.4030 N   0  0  0  0  0  0  0  0  0  0  0  0
  188.6240  173.1020  136.9570 O   0  0  0  0  0  0  0  0  0  0  0  0
  186.4070  173.8270  137.0750 N   0  0  0  0  0  0  0  0  0  0  0  0
  187.9860  174.8990  135.5070 C   0  0  1  0  0  3  0  0  0  0  0  0
  186.8250  175.0430  134.6960 O   0  0  0  0  0  0  0  0  0  0  0  0
  188.5890  176.1850  137.4850 O   0  0  0  0  0  0  0  0  0  0  0  0
  190.2650  176.4690  139.1540 C   0  0  0  0  0  2  0  0  0  0  0  0
  189.9640  176.6230  135.6180 C   0  0  2  0  0  3  0  0  0  0  0  0
  190.7110  176.6950  136.8250 O   0  0  0  0  0  0  0  0  0  0  0  0
  189.8760  176.4540  137.8890 C   0  0  0  0  0  0  0  0  0  0  0  0
  188.5170  176.2350  136.0640 C   0  0  1  0  0  3  0  0  0  0  0  0
  190.6400  175.6560  134.6530 C   0  0  0  0  0  2  0  0  0  0  0  0
  192.0840  175.8370  134.7120 N   0  0  0  0  0  2  0  0  0  0  0  0
  193.9370  175.7380  136.2920 C   0  0  0  0  0  3  0  0  0  0  0  0
  194.6290  173.6340  137.2860 C   0  0  0  0  0  0  0  0  0  0  0  0
  192.7690  173.6970  135.7280 C   0  0  0  0  0  3  0  0  0  0  0  0
  193.6150  172.9770  136.5760 C   0  0  0  0  0  3  0  0  0  0  0  0
  194.7840  175.0190  137.1400 C   0  0  0  0  0  3  0  0  0  0  0  0
  192.9280  175.0820  135.5830 C   0  0  0  0  0  0  0  0  0  0  0  0
  195.5230  172.8820  138.1780 C   0  0  0  0  0  0  0  0  0  0  0  0
  195.9750  173.4140  139.2280 O   0  0  0  0  0  1  0  0  0  0  0  0
  195.8770  171.5720  137.8750 O   0  0  0  0  0  0  0  0  0  0  0  0
  1  4  1  0  0  0  0
  2  6  1  0  0  0  0
  3  2  2  0  0  0  0
  4  6  2  0  0  0  0
  5  3  1  0  0  0  0
  5  1  2  0  0  0  0
  7  2  1  0  0  0  0
  7  8  1  0  0  0  0
  8  9  1  0  0  0  0
  9 10  1  0  0  0  0
 10 11  1  0  0  0  0
 11 14  1  0  0  0  0
 13 12  2  0  0  0  0
 14 13  1  0  0  0  0
 15 16  1  0  0  0  0
 15 17  1  0  0  0  0
 16 13  1  6  0  0  0
 16 17  1  0  0  0  0
 17 18  1  1  0  0  0
 19 24  1  6  0  0  0
 20 19  1  0  0  0  0
 21 18  1  6  0  0  0
 21 20  1  0  0  0  0
 21 19  1  0  0  0  0
 21 23  1  0  0  0  0
 23 22  1  0  0  0  0
 24 28  1  1  0  0  0
 24 25  1  0  0  0  0
 25 27  1  0  0  0  0
 26 25  2  0  0  0  0
 29 28  1  0  0  0  0
 30  5  1  0  0  0  0
 31 36  1  0  0  0  0
 33 35  2  0  0  0  0
 33 36  1  0  0  0  0
 34 30  1  0  0  0  0
 34 31  1  0  0  0  0
 36 32  1  0  0  0  0
 37 38  1  1  0  0  0
 37 44  1  0  0  0  0
 37 33  1  0  0  0  0
 38 34  1  0  0  0  0
 39 43  1  0  0  0  0
 41 45  1  6  0  0  0
 41 44  1  0  0  0  0
 41 42  1  0  0  0  0
 42 43  1  0  0  0  0
 43 40  2  0  0  0  0
 44 39  1  1  0  0  0
 45 46  1  0  0  0  0
 46 52  1  0  0  0  0
 47 51  1  0  0  0  0
 48 53  1  0  0  0  0
 49 50  2  0  0  0  0
 50 48  1  0  0  0  0
 51 48  2  0  0  0  0
 52 49  1  0  0  0  0
 52 47  2  0  0  0  0
 53 54  1  0  0  0  0
 55 53  2  0  0  0  0
M  END
>  <MODEL>
4

>  <REMARK>
 VINA RESULT:      -6.3      2.942      6.860
  Name = 
  20 active torsions:
  status: ('A' for Active; 'I' for Inactive)
    1  A    between atoms: C_1  and  C_53
    2  A    between atoms: C_2  and  N_28
    3  A    between atoms: C_2  and  C_44
    4  A    between atoms: C_3  and  C_53
    5  A    between atoms: O_6  and  C_53
    6  A    between atoms: C_8  and  N_22
    7  A    between atoms: C_8  and  C_35
    8  A    between atoms: C_10  and  C_32
    9  A    between atoms: C_16  and  C_36
   10  A    between atoms: C_20  and  C_42
   11  A    between atoms: C_25  and  C_38
   12  A    between atoms: C_26  and  C_45
   13  A    between atoms: C_27  and  C_54
   14  A    between atoms: C_29  and  C_38
   15  A    between atoms: C_29  and  C_50
   16  A    between atoms: N_33  and  C_36
   17  A    between atoms: N_33  and  C_52
   18  A    between atoms: C_35  and  C_43
   19  A    between atoms: C_43  and  S_51
   20  A    between atoms: S_51  and  C_54
                            x       y       z     vdW  Elec       q    Type
                         _______ _______ _______ _____ _____    ______ ____

>  <TORSDO>
F 20

$$$$
=
 OpenBabel11052415083D

 55 60  0  0  1  0  0  0  0  0999 V2000
  190.9060  177.8220  142.9820 C   0  0  0  0  0  3  0  0  0  0  0  0
  188.4180  177.6600  144.2530 C   0  0  0  0  0  0  0  0  0  0  0  0
  188.4970  177.6000  142.8580 C   0  0  0  0  0  3  0  0  0  0  0  0
  190.8290  177.8830  144.3770 C   0  0  0  0  0  3  0  0  0  0  0  0
  189.7390  177.6770  142.2210 C   0  0  0  0  0  0  0  0  0  0  0  0
  189.5860  177.8030  145.0130 C   0  0  0  0  0  3  0  0  0  0  0  0
  187.0880  177.5830  144.9230 C   0  0  0  0  0  2  0  0  0  0  0  0
  187.2570  177.7220  146.7310 S   0  0  0  0  0  0  0  0  0  0  0  0
  185.8670  178.8860  146.8820 C   0  0  0  0  0  2  0  0  0  0  0  0
  184.7540  178.5040  145.9200 C   0  0  0  0  0  2  0  0  0  0  0  0
  184.9190  179.2420  144.6020 C   0  0  0  0  0  2  0  0  0  0  0  0
  184.3120  178.3990  141.9530 O   0  0  0  0  0  0  0  0  0  0  0  0
  183.3840  178.9250  142.6250 C   0  0  0  0  0  0  0  0  0  0  0  0
  183.6260  179.3890  143.9530 N   0  0  0  0  0  2  0  0  0  0  0  0
  181.0690  178.4720  142.8130 O   0  0  0  0  0  0  0  0  0  0  0  0
  182.0350  179.1060  142.0120 C   0  0  2  0  0  3  0  0  0  0  0  0
  181.4570  177.7950  141.6450 C   0  0  2  0  0  3  0  0  0  0  0  0
  180.3780  177.9770  140.5950 C   0  0  0  0  0  2  0  0  0  0  0  0
  181.6110  177.7090  138.2460 C   0  0  2  0  0  3  0  0  0  0  0  0
  180.0990  177.8240  138.1100 C   0  0  0  0  0  2  0  0  0  0  0  0
  180.6900  177.1660  139.3370 C   0  0  2  0  0  0  0  0  0  0  0  0
  179.8550  175.2750  140.5420 O   0  0  0  0  0  1  0  0  0  0  0  0
  180.4250  175.6700  139.3300 C   0  0  0  0  0  2  0  0  0  0  0  0
  182.2160  179.0710  138.5910 C   0  0  1  0  0  3  0  0  0  0  0  0
  183.7110  178.9990  138.6050 C   0  0  0  0  0  0  0  0  0  0  0  0
  184.4680  180.0550  139.0970 O   0  0  0  0  0  1  0  0  0  0  0  0
  184.2840  177.9380  138.2380 O   0  0  0  0  0  0  0  0  0  0  0  0
  181.8060  180.0240  137.6530 O   0  0  0  0  0  0  0  0  0  0  0  0
  181.3880  181.1200  138.4110 C   0  0  0  0  0  1  0  0  0  0  0  0
  189.8130  177.6230  140.7350 C   0  0  0  0  0  2  0  0  0  0  0  0
  191.9530  177.4850  139.6490 C   0  0  0  0  0  2  0  0  0  0  0  0
  193.7110  177.0800  138.0150 O   0  0  0  0  0  1  0  0  0  0  0  0
  191.5290  176.1230  137.6530 C   0  0  0  0  0  0  0  0  0  0  0  0
  190.8750  176.7170  140.3150 N   0  0  0  0  0  0  0  0  0  0  0  0
  191.8330  175.7180  136.4980 O   0  0  0  0  0  0  0  0  0  0  0  0
  192.4600  176.8180  138.4610 N   0  0  0  0  0  0  0  0  0  0  0  0
  190.1920  175.8650  138.2380 C   0  0  1  0  0  3  0  0  0  0  0  0
  190.3280  175.6390  139.6360 O   0  0  0  0  0  0  0  0  0  0  0  0
  189.5870  177.7040  136.7610 O   0  0  0  0  0  0  0  0  0  0  0  0
  188.7500  178.2310  134.5940 C   0  0  0  0  0  2  0  0  0  0  0  0
  187.7400  176.4230  137.4790 C   0  0  2  0  0  3  0  0  0  0  0  0
  187.5490  176.8850  136.1490 O   0  0  0  0  0  0  0  0  0  0  0  0
  188.6330  177.6410  135.7730 C   0  0  0  0  0  0  0  0  0  0  0  0
  189.1540  176.9500  137.8880 C   0  0  1  0  0  3  0  0  0  0  0  0
  187.5590  174.9100  137.5280 C   0  0  0  0  0  2  0  0  0  0  0  0
  186.8230  174.4680  136.3520 N   0  0  0  0  0  2  0  0  0  0  0  0
  185.1610  172.8510  137.1040 C   0  0  0  0  0  3  0  0  0  0  0  0
  182.8190  173.0910  136.5110 C   0  0  0  0  0  0  0  0  0  0  0  0
  184.4430  174.7280  135.7580 C   0  0  0  0  0  3  0  0  0  0  0  0
  183.1270  174.2650  135.8120 C   0  0  0  0  0  3  0  0  0  0  0  0
  183.8440  172.3870  137.1590 C   0  0  0  0  0  3  0  0  0  0  0  0
  185.4670  174.0210  136.4050 C   0  0  0  0  0  0  0  0  0  0  0  0
  181.4350  172.5980  136.5710 C   0  0  0  0  0  0  0  0  0  0  0  0
  180.4700  173.4070  136.6140 O   0  0  0  0  0  1  0  0  0  0  0  0
  181.1760  171.2320  136.5760 O   0  0  0  0  0  0  0  0  0  0  0  0
  1  4  1  0  0  0  0
  2  7  1  0  0  0  0
  2  6  1  0  0  0  0
  3  2  2  0  0  0  0
  4  6  2  0  0  0  0
  5  3  1  0  0  0  0
  5  1  2  0  0  0  0
  7  8  1  0  0  0  0
  8  9  1  0  0  0  0
 10  9  1  0  0  0  0
 11 10  1  0  0  0  0
 12 13  2  0  0  0  0
 13 14  1  0  0  0  0
 14 11  1  0  0  0  0
 16 13  1  1  0  0  0
 16 15  1  0  0  0  0
 17 18  1  6  0  0  0
 17 16  1  0  0  0  0
 17 15  1  0  0  0  0
 19 24  1  1  0  0  0
 19 21  1  0  0  0  0
 20 19  1  0  0  0  0
 20 21  1  0  0  0  0
 21 23  1  1  0  0  0
 21 18  1  0  0  0  0
 23 22  1  0  0  0  0
 24 28  1  6  0  0  0
 24 25  1  0  0  0  0
 25 26  1  0  0  0  0
 27 25  2  0  0  0  0
 28 29  1  0  0  0  0
 30  5  1  0  0  0  0
 31 34  1  0  0  0  0
 32 36  1  0  0  0  0
 33 36  1  0  0  0  0
 34 30  1  0  0  0  0
 35 33  2  0  0  0  0
 36 31  1  0  0  0  0
 37 33  1  1  0  0  0
 37 38  1  0  0  0  0
 38 34  1  0  0  0  0
 40 43  2  0  0  0  0
 41 45  1  6  0  0  0
 41 44  1  0  0  0  0
 42 41  1  0  0  0  0
 43 42  1  0  0  0  0
 43 39  1  0  0  0  0
 44 39  1  6  0  0  0
 44 37  1  0  0  0  0
 46 52  1  0  0  0  0
 46 45  1  0  0  0  0
 47 51  1  0  0  0  0
 48 53  1  0  0  0  0
 48 51  2  0  0  0  0
 49 50  2  0  0  0  0
 49 52  1  0  0  0  0
 50 48  1  0  0  0  0
 52 47  2  0  0  0  0
 53 55  2  0  0  0  0
 53 54  1  0  0  0  0
M  END
>  <MODEL>
5

>  <REMARK>
 VINA RESULT:      -6.0      2.922      6.354
  Name = 
  20 active torsions:
  status: ('A' for Active; 'I' for Inactive)
    1  A    between atoms: C_1  and  C_53
    2  A    between atoms: C_2  and  N_28
    3  A    between atoms: C_2  and  C_44
    4  A    between atoms: C_3  and  C_53
    5  A    between atoms: O_6  and  C_53
    6  A    between atoms: C_8  and  N_22
    7  A    between atoms: C_8  and  C_35
    8  A    between atoms: C_10  and  C_32
    9  A    between atoms: C_16  and  C_36
   10  A    between atoms: C_20  and  C_42
   11  A    between atoms: C_25  and  C_38
   12  A    between atoms: C_26  and  C_45
   13  A    between atoms: C_27  and  C_54
   14  A    between atoms: C_29  and  C_38
   15  A    between atoms: C_29  and  C_50
   16  A    between atoms: N_33  and  C_36
   17  A    between atoms: N_33  and  C_52
   18  A    between atoms: C_35  and  C_43
   19  A    between atoms: C_43  and  S_51
   20  A    between atoms: S_51  and  C_54
                            x       y       z     vdW  Elec       q    Type
                         _______ _______ _______ _____ _____    ______ ____

>  <TORSDO>
F 20

$$$$
=
 OpenBabel11052415083D

 55 60  0  0  1  0  0  0  0  0999 V2000
  185.7450  178.2490  138.1210 C   0  0  0  0  0  3  0  0  0  0  0  0
  186.9830  176.9740  135.9600 C   0  0  0  0  0  0  0  0  0  0  0  0
  185.7150  176.5630  136.3820 C   0  0  0  0  0  3  0  0  0  0  0  0
  187.0130  178.6610  137.7010 C   0  0  0  0  0  3  0  0  0  0  0  0
  185.0920  177.2020  137.4580 C   0  0  0  0  0  0  0  0  0  0  0  0
  187.6340  178.0230  136.6210 C   0  0  0  0  0  3  0  0  0  0  0  0
  187.6410  176.2830  134.8140 C   0  0  0  0  0  2  0  0  0  0  0  0
  189.4130  176.0190  135.1390 S   0  0  0  0  0  0  0  0  0  0  0  0
  189.1130  174.6070  136.2470 C   0  0  0  0  0  2  0  0  0  0  0  0
  189.9020  174.7720  137.5360 C   0  0  0  0  0  2  0  0  0  0  0  0
  190.6080  176.1170  137.5530 C   0  0  0  0  0  2  0  0  0  0  0  0
  192.6380  176.8640  139.4020 O   0  0  0  0  0  0  0  0  0  0  0  0
  191.4450  177.1430  139.7010 C   0  0  0  0  0  0  0  0  0  0  0  0
  190.3760  176.7790  138.8280 N   0  0  0  0  0  2  0  0  0  0  0  0
  191.2420  176.8840  142.0450 O   0  0  0  0  0  0  0  0  0  0  0  0
  191.1440  177.8190  140.9980 C   0  0  2  0  0  3  0  0  0  0  0  0
  189.9440  177.2190  141.6240 C   0  0  2  0  0  3  0  0  0  0  0  0
  189.3410  178.1870  142.6240 C   0  0  0  0  0  2  0  0  0  0  0  0
  187.8410  177.2630  144.6260 C   0  0  2  0  0  3  0  0  0  0  0  0
  188.1200  176.2110  143.5610 C   0  0  0  0  0  2  0  0  0  0  0  0
  188.0090  177.6650  143.1620 C   0  0  2  0  0  0  0  0  0  0  0  0
  186.9200  178.9770  141.4820 O   0  0  0  0  0  1  0  0  0  0  0  0
  186.7360  177.9130  142.3690 C   0  0  0  0  0  2  0  0  0  0  0  0
  189.0970  177.5100  145.4650 C   0  0  1  0  0  3  0  0  0  0  0  0
  188.7360  177.7690  146.8940 C   0  0  0  0  0  0  0  0  0  0  0  0
  187.4680  178.2250  147.2350 O   0  0  0  0  0  0  0  0  0  0  0  0
  189.5650  177.4950  147.8030 O   0  0  0  0  0  1  0  0  0  0  0  0
  189.9420  176.3970  145.3950 O   0  0  0  0  0  0  0  0  0  0  0  0
  191.2270  176.9280  145.2690 C   0  0  0  0  0  1  0  0  0  0  0  0
  183.7460  176.7510  137.9080 C   0  0  0  0  0  2  0  0  0  0  0  0
  182.4940  178.5810  138.8370 C   0  0  0  0  0  2  0  0  0  0  0  0
  180.6960  179.9400  139.7550 O   0  0  0  0  0  1  0  0  0  0  0  0
  180.1570  177.8470  138.6900 C   0  0  0  0  0  0  0  0  0  0  0  0
  182.7490  177.7750  137.6200 N   0  0  0  0  0  0  0  0  0  0  0  0
  178.9470  177.9130  139.0370 O   0  0  0  0  0  0  0  0  0  0  0  0
  181.0810  178.8620  139.0320 N   0  0  0  0  0  0  0  0  0  0  0  0
  180.6690  176.7180  137.8770 C   0  0  1  0  0  3  0  0  0  0  0  0
  181.6630  177.2000  136.9790 O   0  0  0  0  0  0  0  0  0  0  0  0
  180.5540  175.5740  140.0240 O   0  0  0  0  0  0  0  0  0  0  0  0
  179.1910  174.1680  141.3790 C   0  0  0  0  0  2  0  0  0  0  0  0
  180.7350  174.1100  138.1810 C   0  0  2  0  0  3  0  0  0  0  0  0
  179.9230  173.5430  139.2010 O   0  0  0  0  0  0  0  0  0  0  0  0
  179.8570  174.4130  140.2620 C   0  0  0  0  0  0  0  0  0  0  0  0
  181.1380  175.5190  138.7260 C   0  0  1  0  0  3  0  0  0  0  0  0
  179.9780  174.1040  136.8590 C   0  0  0  0  0  2  0  0  0  0  0  0
  180.3700  172.9410  136.0760 N   0  0  0  0  0  2  0  0  0  0  0  0
  182.0810  171.2130  136.2520 C   0  0  0  0  0  3  0  0  0  0  0  0
  184.3940  171.6730  135.6750 C   0  0  0  0  0  0  0  0  0  0  0  0
  182.7150  173.4130  135.4730 C   0  0  0  0  0  3  0  0  0  0  0  0
  184.0390  172.9880  135.3470 C   0  0  0  0  0  3  0  0  0  0  0  0
  183.4060  170.7870  136.1270 C   0  0  0  0  0  3  0  0  0  0  0  0
  181.7290  172.5250  135.9270 C   0  0  0  0  0  0  0  0  0  0  0  0
  185.7870  171.2210  135.5470 C   0  0  0  0  0  0  0  0  0  0  0  0
  186.0530  170.1220  134.9900 O   0  0  0  0  0  0  0  0  0  0  0  0
  186.8260  172.0040  136.0350 O   0  0  0  0  0  1  0  0  0  0  0  0
  2  3  2  0  0  0  0
  2  6  1  0  0  0  0
  3  5  1  0  0  0  0
  4  1  1  0  0  0  0
  5 30  1  0  0  0  0
  5  1  2  0  0  0  0
  6  4  2  0  0  0  0
  7  8  1  0  0  0  0
  7  2  1  0  0  0  0
  8  9  1  0  0  0  0
  9 10  1  0  0  0  0
 10 11  1  0  0  0  0
 11 14  1  0  0  0  0
 12 13  2  0  0  0  0
 14 13  1  0  0  0  0
 16 13  1  6  0  0  0
 16 17  1  0  0  0  0
 16 15  1  0  0  0  0
 17 15  1  0  0  0  0
 17 18  1  1  0  0  0
 18 21  1  0  0  0  0
 19 24  1  1  0  0  0
 20 19  1  0  0  0  0
 21 23  1  6  0  0  0
 21 20  1  0  0  0  0
 21 19  1  0  0  0  0
 22 23  1  0  0  0  0
 24 28  1  1  0  0  0
 24 25  1  0  0  0  0
 25 26  2  0  0  0  0
 25 27  1  0  0  0  0
 29 28  1  0  0  0  0
 31 36  1  0  0  0  0
 33 36  1  0  0  0  0
 33 35  2  0  0  0  0
 34 30  1  0  0  0  0
 34 31  1  0  0  0  0
 36 32  1  0  0  0  0
 37 38  1  1  0  0  0
 37 33  1  0  0  0  0
 37 44  1  0  0  0  0
 38 34  1  0  0  0  0
 39 43  1  0  0  0  0
 41 45  1  6  0  0  0
 41 44  1  0  0  0  0
 41 42  1  0  0  0  0
 42 43  1  0  0  0  0
 43 40  2  0  0  0  0
 44 39  1  1  0  0  0
 46 45  1  0  0  0  0
 48 51  2  0  0  0  0
 49 52  1  0  0  0  0
 50 49  2  0  0  0  0
 50 48  1  0  0  0  0
 51 47  1  0  0  0  0
 52 46  1  0  0  0  0
 52 47  2  0  0  0  0
 53 48  1  0  0  0  0
 53 55  1  0  0  0  0
 54 53  2  0  0  0  0
M  END
>  <MODEL>
6

>  <REMARK>
 VINA RESULT:      -6.0      3.948     10.186
  Name = 
  20 active torsions:
  status: ('A' for Active; 'I' for Inactive)
    1  A    between atoms: C_1  and  C_53
    2  A    between atoms: C_2  and  N_28
    3  A    between atoms: C_2  and  C_44
    4  A    between atoms: C_3  and  C_53
    5  A    between atoms: O_6  and  C_53
    6  A    between atoms: C_8  and  N_22
    7  A    between atoms: C_8  and  C_35
    8  A    between atoms: C_10  and  C_32
    9  A    between atoms: C_16  and  C_36
   10  A    between atoms: C_20  and  C_42
   11  A    between atoms: C_25  and  C_38
   12  A    between atoms: C_26  and  C_45
   13  A    between atoms: C_27  and  C_54
   14  A    between atoms: C_29  and  C_38
   15  A    between atoms: C_29  and  C_50
   16  A    between atoms: N_33  and  C_36
   17  A    between atoms: N_33  and  C_52
   18  A    between atoms: C_35  and  C_43
   19  A    between atoms: C_43  and  S_51
   20  A    between atoms: S_51  and  C_54
                            x       y       z     vdW  Elec       q    Type
                         _______ _______ _______ _____ _____    ______ ____

>  <TORSDO>
F 20

$$$$
=
 OpenBabel11052415083D

 55 60  0  0  1  0  0  0  0  0999 V2000
  191.5830  176.3460  142.6410 C   0  0  0  0  0  3  0  0  0  0  0  0
  189.5980  177.3940  144.3110 C   0  0  0  0  0  0  0  0  0  0  0  0
  189.4640  177.4830  142.9220 C   0  0  0  0  0  3  0  0  0  0  0  0
  191.7200  176.2570  144.0300 C   0  0  0  0  0  3  0  0  0  0  0  0
  190.4520  176.9560  142.0860 C   0  0  0  0  0  0  0  0  0  0  0  0
  190.7280  176.7810  144.8650 C   0  0  0  0  0  3  0  0  0  0  0  0
  188.5400  177.9640  145.1940 C   0  0  0  0  0  2  0  0  0  0  0  0
  188.8190  177.4970  146.9320 S   0  0  0  0  0  0  0  0  0  0  0  0
  187.1040  177.8630  147.4210 C   0  0  0  0  0  2  0  0  0  0  0  0
  186.1840  177.7800  146.2130 C   0  0  0  0  0  2  0  0  0  0  0  0
  185.1030  178.8440  146.2990 C   0  0  0  0  0  2  0  0  0  0  0  0
  184.8920  180.4490  143.9580 O   0  0  0  0  0  0  0  0  0  0  0  0
  184.0930  179.4800  144.0760 C   0  0  0  0  0  0  0  0  0  0  0  0
  184.1320  178.6470  145.2350 N   0  0  0  0  0  2  0  0  0  0  0  0
  183.1300  177.8810  142.6220 O   0  0  0  0  0  0  0  0  0  0  0  0
  183.0700  179.2290  143.0180 C   0  0  2  0  0  3  0  0  0  0  0  0
  183.7250  178.8150  141.7570 C   0  0  2  0  0  3  0  0  0  0  0  0
  182.7950  179.0560  140.5840 C   0  0  0  0  0  2  0  0  0  0  0  0
  182.2230  177.8970  138.2520 C   0  0  2  0  0  3  0  0  0  0  0  0
  182.4940  176.8910  139.3610 C   0  0  0  0  0  2  0  0  0  0  0  0
  183.2100  178.2220  139.3710 C   0  0  2  0  0  0  0  0  0  0  0  0
  185.2740  179.2850  138.7930 O   0  0  0  0  0  1  0  0  0  0  0  0
  184.6860  178.0460  139.0570 C   0  0  0  0  0  2  0  0  0  0  0  0
  180.8520  178.5460  138.4500 C   0  0  1  0  0  3  0  0  0  0  0  0
  180.5710  179.5350  137.3620 C   0  0  0  0  0  0  0  0  0  0  0  0
  180.6510  179.1620  136.0250 O   0  0  0  0  0  0  0  0  0  0  0  0
  180.1810  180.6950  137.6630 O   0  0  0  0  0  1  0  0  0  0  0  0
  179.8570  177.5630  138.4510 O   0  0  0  0  0  0  0  0  0  0  0  0
  179.0030  177.9150  139.4990 C   0  0  0  0  0  1  0  0  0  0  0  0
  190.3060  177.0650  140.6080 C   0  0  0  0  0  2  0  0  0  0  0  0
  192.2930  177.1920  139.2610 C   0  0  0  0  0  2  0  0  0  0  0  0
  193.8400  177.1060  137.3850 O   0  0  0  0  0  1  0  0  0  0  0  0
  191.6680  176.0870  137.1610 C   0  0  0  0  0  0  0  0  0  0  0  0
  191.3390  176.2830  139.9400 N   0  0  0  0  0  0  0  0  0  0  0  0
  191.8370  175.8560  135.9330 O   0  0  0  0  0  0  0  0  0  0  0  0
  192.6680  176.7180  137.9380 N   0  0  0  0  0  0  0  0  0  0  0  0
  190.4280  175.6790  137.8630 C   0  0  1  0  0  3  0  0  0  0  0  0
  190.7510  175.2770  139.1890 O   0  0  0  0  0  0  0  0  0  0  0  0
  189.5190  177.6060  136.6830 O   0  0  0  0  0  0  0  0  0  0  0  0
  188.2990  178.2740  134.7500 C   0  0  0  0  0  2  0  0  0  0  0  0
  187.8660  176.1880  137.5920 C   0  0  2  0  0  3  0  0  0  0  0  0
  187.4300  176.7500  136.3620 O   0  0  0  0  0  0  0  0  0  0  0  0
  188.4080  177.5830  135.8730 C   0  0  0  0  0  0  0  0  0  0  0  0
  189.3130  176.7430  137.7960 C   0  0  1  0  0  3  0  0  0  0  0  0
  187.7410  174.6700  137.5360 C   0  0  0  0  0  2  0  0  0  0  0  0
  186.9210  174.2900  136.3940 N   0  0  0  0  0  2  0  0  0  0  0  0
  185.3020  172.5190  135.9600 C   0  0  0  0  0  3  0  0  0  0  0  0
  183.0090  172.6960  136.7380 C   0  0  0  0  0  0  0  0  0  0  0  0
  184.5970  174.4710  137.2010 C   0  0  0  0  0  3  0  0  0  0  0  0
  183.3100  173.9400  137.3070 C   0  0  0  0  0  3  0  0  0  0  0  0
  184.0150  171.9870  136.0650 C   0  0  0  0  0  3  0  0  0  0  0  0
  185.6000  173.7610  136.5260 C   0  0  0  0  0  0  0  0  0  0  0  0
  181.6560  172.1330  136.8440 C   0  0  0  0  0  0  0  0  0  0  0  0
  181.1450  171.9060  137.9740 O   0  0  0  0  0  1  0  0  0  0  0  0
  180.9220  171.8470  135.6980 O   0  0  0  0  0  0  0  0  0  0  0  0
  1  4  1  0  0  0  0
  2  6  1  0  0  0  0
  2  7  1  0  0  0  0
  3  2  2  0  0  0  0
  4  6  2  0  0  0  0
  5  1  2  0  0  0  0
  5  3  1  0  0  0  0
  7  8  1  0  0  0  0
  8  9  1  0  0  0  0
 10 11  1  0  0  0  0
 10  9  1  0  0  0  0
 12 13  2  0  0  0  0
 13 14  1  0  0  0  0
 14 11  1  0  0  0  0
 15 16  1  0  0  0  0
 16 13  1  1  0  0  0
 17 18  1  6  0  0  0
 17 15  1  0  0  0  0
 17 16  1  0  0  0  0
 19 24  1  1  0  0  0
 19 20  1  0  0  0  0
 19 21  1  0  0  0  0
 20 21  1  0  0  0  0
 21 23  1  6  0  0  0
 21 18  1  0  0  0  0
 22 23  1  0  0  0  0
 24 25  1  6  0  0  0
 24 28  1  0  0  0  0
 25 27  1  0  0  0  0
 26 25  2  0  0  0  0
 28 29  1  0  0  0  0
 30  5  1  0  0  0  0
 31 34  1  0  0  0  0
 32 36  1  0  0  0  0
 33 36  1  0  0  0  0
 34 30  1  0  0  0  0
 35 33  2  0  0  0  0
 36 31  1  0  0  0  0
 37 33  1  1  0  0  0
 37 38  1  0  0  0  0
 38 34  1  0  0  0  0
 40 43  2  0  0  0  0
 41 45  1  6  0  0  0
 41 44  1  0  0  0  0
 42 41  1  0  0  0  0
 43 42  1  0  0  0  0
 43 39  1  0  0  0  0
 44 39  1  6  0  0  0
 44 37  1  0  0  0  0
 46 52  1  0  0  0  0
 46 45  1  0  0  0  0
 47 51  2  0  0  0  0
 47 52  1  0  0  0  0
 48 53  1  0  0  0  0
 48 50  2  0  0  0  0
 49 50  1  0  0  0  0
 51 48  1  0  0  0  0
 52 49  2  0  0  0  0
 53 54  1  0  0  0  0
 55 53  2  0  0  0  0
M  END
>  <MODEL>
7

>  <REMARK>
 VINA RESULT:      -5.9      2.816      6.419
  Name = 
  20 active torsions:
  status: ('A' for Active; 'I' for Inactive)
    1  A    between atoms: C_1  and  C_53
    2  A    between atoms: C_2  and  N_28
    3  A    between atoms: C_2  and  C_44
    4  A    between atoms: C_3  and  C_53
    5  A    between atoms: O_6  and  C_53
    6  A    between atoms: C_8  and  N_22
    7  A    between atoms: C_8  and  C_35
    8  A    between atoms: C_10  and  C_32
    9  A    between atoms: C_16  and  C_36
   10  A    between atoms: C_20  and  C_42
   11  A    between atoms: C_25  and  C_38
   12  A    between atoms: C_26  and  C_45
   13  A    between atoms: C_27  and  C_54
   14  A    between atoms: C_29  and  C_38
   15  A    between atoms: C_29  and  C_50
   16  A    between atoms: N_33  and  C_36
   17  A    between atoms: N_33  and  C_52
   18  A    between atoms: C_35  and  C_43
   19  A    between atoms: C_43  and  S_51
   20  A    between atoms: S_51  and  C_54
                            x       y       z     vdW  Elec       q    Type
                         _______ _______ _______ _____ _____    ______ ____

>  <TORSDO>
F 20

$$$$
=
 OpenBabel11052415083D

 55 60  0  0  1  0  0  0  0  0999 V2000
  185.9800  178.7470  140.9090 C   0  0  0  0  0  3  0  0  0  0  0  0
  187.8220  177.8910  142.8340 C   0  0  0  0  0  0  0  0  0  0  0  0
  186.4530  177.6830  143.0330 C   0  0  0  0  0  3  0  0  0  0  0  0
  187.3480  178.9570  140.7100 C   0  0  0  0  0  3  0  0  0  0  0  0
  185.5320  178.1050  142.0710 C   0  0  0  0  0  0  0  0  0  0  0  0
  188.2690  178.5310  141.6710 C   0  0  0  0  0  3  0  0  0  0  0  0
  188.7970  177.4410  143.8690 C   0  0  0  0  0  2  0  0  0  0  0  0
  189.6780  175.9420  143.3290 S   0  0  0  0  0  0  0  0  0  0  0  0
  190.9150  176.8780  142.3770 C   0  0  0  0  0  2  0  0  0  0  0  0
  190.9690  176.3730  140.9440 C   0  0  0  0  0  2  0  0  0  0  0  0
  191.2850  177.5150  139.9940 C   0  0  0  0  0  2  0  0  0  0  0  0
  193.9460  176.7730  139.3090 O   0  0  0  0  0  0  0  0  0  0  0  0
  193.0520  176.6130  138.4340 C   0  0  0  0  0  0  0  0  0  0  0  0
  191.7000  176.9840  138.7050 N   0  0  0  0  0  2  0  0  0  0  0  0
  192.3130  175.3940  136.5450 O   0  0  0  0  0  0  0  0  0  0  0  0
  193.4170  176.0750  137.0900 C   0  0  2  0  0  3  0  0  0  0  0  0
  193.3350  174.5970  137.0890 C   0  0  2  0  0  3  0  0  0  0  0  0
  194.1680  174.0320  135.9540 C   0  0  0  0  0  2  0  0  0  0  0  0
  196.2940  172.5940  136.6780 C   0  0  2  0  0  3  0  0  0  0  0  0
  195.7790  172.2320  135.2920 C   0  0  0  0  0  2  0  0  0  0  0  0
  194.8060  172.7000  136.3500 C   0  0  2  0  0  0  0  0  0  0  0  0
  193.1490  171.0800  135.7490 O   0  0  0  0  0  1  0  0  0  0  0  0
  193.9190  171.5560  136.8130 C   0  0  0  0  0  2  0  0  0  0  0  0
  197.0170  173.9420  136.6380 C   0  0  1  0  0  3  0  0  0  0  0  0
  197.2020  174.4850  138.0190 C   0  0  0  0  0  0  0  0  0  0  0  0
  198.0130  175.5920  138.2450 O   0  0  0  0  0  0  0  0  0  0  0  0
  196.5540  173.9820  138.9760 O   0  0  0  0  0  1  0  0  0  0  0  0
  198.2670  173.7920  136.0270 O   0  0  0  0  0  0  0  0  0  0  0  0
  198.5250  175.0260  135.4270 C   0  0  0  0  0  1  0  0  0  0  0  0
  184.0760  177.8880  142.2950 C   0  0  0  0  0  2  0  0  0  0  0  0
  182.1010  179.1840  142.7390 C   0  0  0  0  0  2  0  0  0  0  0  0
  179.8900  180.1860  142.5690 O   0  0  0  0  0  1  0  0  0  0  0  0
  180.8140  179.0540  140.6530 C   0  0  0  0  0  0  0  0  0  0  0  0
  183.3230  179.0740  141.9080 N   0  0  0  0  0  0  0  0  0  0  0  0
  179.7390  179.1490  140.0030 O   0  0  0  0  0  0  0  0  0  0  0  0
  180.9340  179.5740  141.9640 N   0  0  0  0  0  0  0  0  0  0  0  0
  182.0200  178.4210  140.0680 C   0  0  1  0  0  3  0  0  0  0  0  0
  183.1790  179.1060  140.5300 O   0  0  0  0  0  0  0  0  0  0  0  0
  180.8340  176.4230  140.7970 O   0  0  0  0  0  0  0  0  0  0  0  0
  179.1880  174.8260  140.1540 C   0  0  0  0  0  2  0  0  0  0  0  0
  182.3240  176.0380  139.0080 C   0  0  2  0  0  3  0  0  0  0  0  0
  181.1720  175.2140  138.8940 O   0  0  0  0  0  0  0  0  0  0  0  0
  180.3380  175.4510  139.9600 C   0  0  0  0  0  0  0  0  0  0  0  0
  182.0780  176.8960  140.2910 C   0  0  1  0  0  3  0  0  0  0  0  0
  182.5250  176.8210  137.7170 C   0  0  0  0  0  2  0  0  0  0  0  0
  183.5140  176.1480  136.8860 N   0  0  0  0  0  2  0  0  0  0  0  0
  185.2740  177.7300  137.4700 C   0  0  0  0  0  3  0  0  0  0  0  0
  187.5320  177.4680  136.6180 C   0  0  0  0  0  0  0  0  0  0  0  0
  185.8090  175.8650  136.0270 C   0  0  0  0  0  3  0  0  0  0  0  0
  187.1300  176.3090  135.9410 C   0  0  0  0  0  3  0  0  0  0  0  0
  186.5960  178.1750  137.3850 C   0  0  0  0  0  3  0  0  0  0  0  0
  184.8740  176.5750  136.7940 C   0  0  0  0  0  0  0  0  0  0  0  0
  188.9210  177.9410  136.5290 C   0  0  0  0  0  0  0  0  0  0  0  0
  189.7980  177.2440  135.9520 O   0  0  0  0  0  0  0  0  0  0  0  0
  189.2820  179.1650  137.0800 O   0  0  0  0  0  1  0  0  0  0  0  0
  1  5  1  0  0  0  0
  2  3  1  0  0  0  0
  2  7  1  0  0  0  0
  4  1  2  0  0  0  0
  4  6  1  0  0  0  0
  5 30  1  0  0  0  0
  5  3  2  0  0  0  0
  6  2  2  0  0  0  0
  8  7  1  0  0  0  0
  9  8  1  0  0  0  0
 10  9  1  0  0  0  0
 11 10  1  0  0  0  0
 13 14  1  0  0  0  0
 13 12  2  0  0  0  0
 14 11  1  0  0  0  0
 15 17  1  0  0  0  0
 15 16  1  0  0  0  0
 16 13  1  1  0  0  0
 17 18  1  6  0  0  0
 17 16  1  0  0  0  0
 19 24  1  6  0  0  0
 20 21  1  0  0  0  0
 20 19  1  0  0  0  0
 21 18  1  6  0  0  0
 21 19  1  0  0  0  0
 21 23  1  0  0  0  0
 22 23  1  0  0  0  0
 24 28  1  1  0  0  0
 24 25  1  0  0  0  0
 25 26  2  0  0  0  0
 25 27  1  0  0  0  0
 29 28  1  0  0  0  0
 33 36  1  0  0  0  0
 34 30  1  0  0  0  0
 34 31  1  0  0  0  0
 35 33  2  0  0  0  0
 36 32  1  0  0  0  0
 36 31  1  0  0  0  0
 37 44  1  0  0  0  0
 37 38  1  1  0  0  0
 37 33  1  0  0  0  0
 38 34  1  0  0  0  0
 41 45  1  6  0  0  0
 41 44  1  0  0  0  0
 42 41  1  0  0  0  0
 42 43  1  0  0  0  0
 43 40  2  0  0  0  0
 43 39  1  0  0  0  0
 44 39  1  6  0  0  0
 46 45  1  0  0  0  0
 48 51  2  0  0  0  0
 49 52  1  0  0  0  0
 50 49  2  0  0  0  0
 50 48  1  0  0  0  0
 51 47  1  0  0  0  0
 52 46  1  0  0  0  0
 52 47  2  0  0  0  0
 53 48  1  0  0  0  0
 53 55  1  0  0  0  0
 54 53  2  0  0  0  0
M  END
>  <MODEL>
8

>  <REMARK>
 VINA RESULT:      -5.3      2.372     10.159
  Name = 
  20 active torsions:
  status: ('A' for Active; 'I' for Inactive)
    1  A    between atoms: C_1  and  C_53
    2  A    between atoms: C_2  and  N_28
    3  A    between atoms: C_2  and  C_44
    4  A    between atoms: C_3  and  C_53
    5  A    between atoms: O_6  and  C_53
    6  A    between atoms: C_8  and  N_22
    7  A    between atoms: C_8  and  C_35
    8  A    between atoms: C_10  and  C_32
    9  A    between atoms: C_16  and  C_36
   10  A    between atoms: C_20  and  C_42
   11  A    between atoms: C_25  and  C_38
   12  A    between atoms: C_26  and  C_45
   13  A    between atoms: C_27  and  C_54
   14  A    between atoms: C_29  and  C_38
   15  A    between atoms: C_29  and  C_50
   16  A    between atoms: N_33  and  C_36
   17  A    between atoms: N_33  and  C_52
   18  A    between atoms: C_35  and  C_43
   19  A    between atoms: C_43  and  S_51
   20  A    between atoms: S_51  and  C_54
                            x       y       z     vdW  Elec       q    Type
                         _______ _______ _______ _____ _____    ______ ____

>  <TORSDO>
F 20

$$$$
=
 OpenBabel11052415083D

 55 60  0  0  1  0  0  0  0  0999 V2000
  188.3580  171.9140  135.6580 C   0  0  0  0  0  3  0  0  0  0  0  0
  185.5780  172.0630  135.3800 C   0  0  0  0  0  0  0  0  0  0  0  0
  186.2790  173.1120  135.9850 C   0  0  0  0  0  3  0  0  0  0  0  0
  187.6590  170.8650  135.0540 C   0  0  0  0  0  3  0  0  0  0  0  0
  187.6680  173.0420  136.1200 C   0  0  0  0  0  0  0  0  0  0  0  0
  186.2700  170.9380  134.9160 C   0  0  0  0  0  3  0  0  0  0  0  0
  184.0950  172.1460  135.2450 C   0  0  0  0  0  2  0  0  0  0  0  0
  183.2680  171.0530  136.4440 S   0  0  0  0  0  0  0  0  0  0  0  0
  181.9320  170.6130  135.2880 C   0  0  0  0  0  2  0  0  0  0  0  0
  180.7470  171.5470  135.4740 C   0  0  0  0  0  2  0  0  0  0  0  0
  180.0440  171.2520  136.7870 C   0  0  0  0  0  2  0  0  0  0  0  0
  180.0800  173.8800  135.6960 O   0  0  0  0  0  0  0  0  0  0  0  0
  179.9070  173.7670  136.9400 C   0  0  0  0  0  0  0  0  0  0  0  0
  179.8980  172.4780  137.5550 N   0  0  0  0  0  2  0  0  0  0  0  0
  178.9540  175.9270  137.1050 O   0  0  0  0  0  0  0  0  0  0  0  0
  179.7550  174.9900  137.7820 C   0  0  2  0  0  3  0  0  0  0  0  0
  180.3390  176.1630  137.0950 C   0  0  2  0  0  3  0  0  0  0  0  0
  180.6550  177.2520  138.1020 C   0  0  0  0  0  2  0  0  0  0  0  0
  182.8020  178.3270  139.2620 C   0  0  2  0  0  3  0  0  0  0  0  0
  182.3520  179.0930  138.0250 C   0  0  0  0  0  2  0  0  0  0  0  0
  182.1440  177.5970  138.0920 C   0  0  2  0  0  0  0  0  0  0  0  0
  184.3060  177.5270  137.0680 O   0  0  0  0  0  1  0  0  0  0  0  0
  183.0700  176.8780  137.1250 C   0  0  0  0  0  2  0  0  0  0  0  0
  181.8420  178.5900  140.4240 C   0  0  1  0  0  3  0  0  0  0  0  0
  182.5780  178.6040  141.7260 C   0  0  0  0  0  0  0  0  0  0  0  0
  183.9680  178.6190  141.7570 O   0  0  0  0  0  0  0  0  0  0  0  0
  181.9300  178.6810  142.8050 O   0  0  0  0  0  1  0  0  0  0  0  0
  181.2000  179.8190  140.2410 O   0  0  0  0  0  0  0  0  0  0  0  0
  179.8690  179.5880  140.5980 C   0  0  0  0  0  1  0  0  0  0  0  0
  188.4050  174.1580  136.7750 C   0  0  0  0  0  2  0  0  0  0  0  0
  188.9630  176.0400  135.3880 C   0  0  0  0  0  2  0  0  0  0  0  0
  189.6170  178.2590  134.6310 O   0  0  0  0  0  1  0  0  0  0  0  0
  189.0160  177.9380  136.9420 C   0  0  0  0  0  0  0  0  0  0  0  0
  187.9330  175.4400  136.2680 N   0  0  0  0  0  0  0  0  0  0  0  0
  189.3660  179.1080  137.2570 O   0  0  0  0  0  0  0  0  0  0  0  0
  189.1240  177.4680  135.6120 N   0  0  0  0  0  0  0  0  0  0  0  0
  188.4430  177.0050  137.9410 C   0  0  1  0  0  3  0  0  0  0  0  0
  187.4460  176.2050  137.3160 O   0  0  0  0  0  0  0  0  0  0  0  0
  190.7990  176.4140  138.1270 O   0  0  0  0  0  0  0  0  0  0  0  0
  192.9180  177.1890  138.8900 C   0  0  0  0  0  2  0  0  0  0  0  0
  189.6850  176.5270  140.2050 C   0  0  2  0  0  3  0  0  0  0  0  0
  191.0310  176.9680  140.3260 O   0  0  0  0  0  0  0  0  0  0  0  0
  191.6510  176.8710  139.1040 C   0  0  0  0  0  0  0  0  0  0  0  0
  189.5110  176.1830  138.6900 C   0  0  1  0  0  3  0  0  0  0  0  0
  188.7440  177.5920  140.7530 C   0  0  0  0  0  2  0  0  0  0  0  0
  189.4290  178.3700  141.7770 N   0  0  0  0  0  2  0  0  0  0  0  0
  190.3130  178.4710  144.0460 C   0  0  0  0  0  3  0  0  0  0  0  0
  189.0400  177.6180  145.9290 C   0  0  0  0  0  0  0  0  0  0  0  0
  188.1220  177.5140  143.6850 C   0  0  0  0  0  3  0  0  0  0  0  0
  188.0030  177.2660  145.0540 C   0  0  0  0  0  3  0  0  0  0  0  0
  190.1950  178.2240  145.4170 C   0  0  0  0  0  3  0  0  0  0  0  0
  189.2800  178.1180  143.1750 C   0  0  0  0  0  0  0  0  0  0  0  0
  188.9210  177.3580  147.3710 C   0  0  0  0  0  0  0  0  0  0  0  0
  188.2300  176.3920  147.7920 O   0  0  0  0  0  0  0  0  0  0  0  0
  189.5740  178.1750  148.2870 O   0  0  0  0  0  1  0  0  0  0  0  0
  1  5  1  0  0  0  0
  2  3  1  0  0  0  0
  3  5  2  0  0  0  0
  4  1  2  0  0  0  0
  5 30  1  0  0  0  0
  6  4  1  0  0  0  0
  6  2  2  0  0  0  0
  7  2  1  0  0  0  0
  7  8  1  0  0  0  0
  9 10  1  0  0  0  0
  9  8  1  0  0  0  0
 10 11  1  0  0  0  0
 11 14  1  0  0  0  0
 12 13  2  0  0  0  0
 13 14  1  0  0  0  0
 15 16  1  0  0  0  0
 16 13  1  6  0  0  0
 17 15  1  0  0  0  0
 17 16  1  0  0  0  0
 17 18  1  1  0  0  0
 19 24  1  1  0  0  0
 20 21  1  0  0  0  0
 20 19  1  0  0  0  0
 21 23  1  6  0  0  0
 21 18  1  0  0  0  0
 21 19  1  0  0  0  0
 22 23  1  0  0  0  0
 24 28  1  6  0  0  0
 24 25  1  0  0  0  0
 25 26  2  0  0  0  0
 25 27  1  0  0  0  0
 28 29  1  0  0  0  0
 31 36  1  0  0  0  0
 31 34  1  0  0  0  0
 32 36  1  0  0  0  0
 33 35  2  0  0  0  0
 34 30  1  0  0  0  0
 34 38  1  0  0  0  0
 36 33  1  0  0  0  0
 37 33  1  6  0  0  0
 37 44  1  0  0  0  0
 38 37  1  0  0  0  0
 39 43  1  0  0  0  0
 40 43  2  0  0  0  0
 41 42  1  0  0  0  0
 41 45  1  6  0  0  0
 43 42  1  0  0  0  0
 44 39  1  6  0  0  0
 44 41  1  0  0  0  0
 45 46  1  0  0  0  0
 46 52  1  0  0  0  0
 47 51  1  0  0  0  0
 48 53  1  0  0  0  0
 49 50  2  0  0  0  0
 50 48  1  0  0  0  0
 51 48  2  0  0  0  0
 52 49  1  0  0  0  0
 52 47  2  0  0  0  0
 53 54  2  0  0  0  0
 53 55  1  0  0  0  0
M  END
>  <MODEL>
9

>  <REMARK>
 VINA RESULT:      -4.7      3.774      8.659
  Name = 
  20 active torsions:
  status: ('A' for Active; 'I' for Inactive)
    1  A    between atoms: C_1  and  C_53
    2  A    between atoms: C_2  and  N_28
    3  A    between atoms: C_2  and  C_44
    4  A    between atoms: C_3  and  C_53
    5  A    between atoms: O_6  and  C_53
    6  A    between atoms: C_8  and  N_22
    7  A    between atoms: C_8  and  C_35
    8  A    between atoms: C_10  and  C_32
    9  A    between atoms: C_16  and  C_36
   10  A    between atoms: C_20  and  C_42
   11  A    between atoms: C_25  and  C_38
   12  A    between atoms: C_26  and  C_45
   13  A    between atoms: C_27  and  C_54
   14  A    between atoms: C_29  and  C_38
   15  A    between atoms: C_29  and  C_50
   16  A    between atoms: N_33  and  C_36
   17  A    between atoms: N_33  and  C_52
   18  A    between atoms: C_35  and  C_43
   19  A    between atoms: C_43  and  S_51
   20  A    between atoms: S_51  and  C_54
                            x       y       z     vdW  Elec       q    Type
                         _______ _______ _______ _____ _____    ______ ____

>  <TORSDO>
F 20

$$$$
