=
 OpenBabel11052415353D

 37 39  0  0  1  0  0  0  0  0999 V2000
  190.7570  177.8310  142.0130 O   0  0  0  0  0  0  0  0  0  0  0  0
  188.8580  179.0770  141.7800 O   0  0  0  0  0  1  0  0  0  0  0  0
  190.5270  177.8750  144.6680 C   0  0  1  0  0  3  0  0  0  0  0  0
  189.3470  177.7700  141.8540 C   0  0  2  0  0  0  0  0  0  0  0  0
  191.1500  176.6910  142.5610 O   0  0  0  0  0  0  0  0  0  0  0  0
  191.5230  176.9780  143.8920 C   0  0  2  0  0  3  0  0  0  0  0  0
  188.6610  177.0580  143.0410 C   0  0  0  0  0  2  0  0  0  0  0  0
  190.8940  179.3420  144.5220 C   0  0  0  0  0  1  0  0  0  0  0  0
  189.0230  177.6660  144.3970 C   0  0  1  0  0  3  0  0  0  0  0  0
  191.7160  175.7820  144.5840 O   0  0  0  0  0  0  0  0  0  0  0  0
  191.8990  176.1610  145.9150 C   0  0  0  0  0  1  0  0  0  0  0  0
  190.1580  176.3870  140.0490 O   0  0  0  0  0  1  0  0  0  0  0  0
  189.0170  177.0350  140.5470 C   0  0  2  0  0  3  0  0  0  0  0  0
  187.6100  179.2920  136.8340 O   0  0  0  0  0  1  0  0  0  0  0  0
  188.2140  177.2900  138.1470 C   0  0  2  0  0  3  0  0  0  0  0  0
  188.5480  178.2860  137.0660 C   0  0  0  0  0  0  0  0  0  0  0  0
  189.2730  177.8050  135.9750 O   0  0  0  0  0  1  0  0  0  0  0  0
  188.3500  177.9580  139.5040 C   0  0  2  0  0  3  0  0  0  0  0  0
  189.2890  178.3530  138.3760 C   0  0  1  0  0  3  0  0  0  0  0  0
  188.3750  176.8640  145.5160 C   0  0  0  0  0  2  0  0  0  0  0  0
  187.9040  177.7780  146.6020 C   0  0  0  0  0  0  0  0  0  0  0  0
  188.7060  178.2360  147.4020 O   0  0  0  0  0  0  0  0  0  0  0  0
  186.3280  179.5220  146.9640 O   0  0  0  0  0  1  0  0  0  0  0  0
  186.4570  178.1600  146.6770 C   0  0  1  0  0  3  0  0  0  0  0  0
  185.7690  177.8300  145.3610 C   0  0  0  0  0  2  0  0  0  0  0  0
  184.6620  178.7940  145.0670 C   0  0  0  0  0  0  0  0  0  0  0  0
  183.8120  179.0300  145.9110 O   0  0  0  0  0  0  0  0  0  0  0  0
  184.5880  179.4450  143.7230 C   0  0  0  0  0  2  0  0  0  0  0  0
  184.5070  178.3980  142.6210 C   0  0  0  0  0  2  0  0  0  0  0  0
  185.0140  178.9780  141.3100 C   0  0  0  0  0  2  0  0  0  0  0  0
  184.8200  178.9280  138.8130 C   0  0  0  0  0  1  0  0  0  0  0  0
  184.2590  178.3970  140.1230 C   0  0  2  0  0  3  0  0  0  0  0  0
  182.2260  179.8840  139.0240 Cl  0  0  0  0  0  0  0  0  0  0  0  0
  182.7480  178.6520  140.2060 C   0  0  1  0  0  3  0  0  0  0  0  0
  180.1370  177.4430  140.4650 S   0  0  0  0  0  1  0  0  0  0  0  0
  182.4240  176.3480  139.8090 O   0  0  0  0  0  0  0  0  0  0  0  0
  181.9020  177.4060  140.1280 C   0  0  0  0  0  0  0  0  0  0  0  0
  1  5  1  0  0  0  0
  3  8  1  6  0  0  0
  4  2  1  6  0  0  0
  4  1  1  0  0  0  0
  4  7  1  0  0  0  0
  5  6  1  0  0  0  0
  6 10  1  1  0  0  0
  6  3  1  0  0  0  0
  7  9  1  0  0  0  0
  9  3  1  0  0  0  0
  9 20  1  1  0  0  0
 10 11  1  0  0  0  0
 13 12  1  6  0  0  0
 13  4  1  0  0  0  0
 14 16  1  0  0  0  0
 15 16  1  6  0  0  0
 15 19  1  0  0  0  0
 15 18  1  0  0  0  0
 17 16  1  0  0  0  0
 18 13  1  1  0  0  0
 19 16  1  6  0  0  0
 19 18  1  0  0  0  0
 20 21  1  0  0  0  0
 21 24  1  0  0  0  0
 21 22  2  0  0  0  0
 24 23  1  6  0  0  0
 25 24  1  0  0  0  0
 26 25  1  0  0  0  0
 26 27  2  0  0  0  0
 28 26  1  0  0  0  0
 29 28  1  0  0  0  0
 30 29  1  0  0  0  0
 32 31  1  6  0  0  0
 32 34  1  0  0  0  0
 32 30  1  0  0  0  0
 34 33  1  6  0  0  0
 36 37  2  0  0  0  0
 37 34  1  0  0  0  0
 37 35  1  0  0  0  0
M  END
>  <MODEL>
1

>  <REMARK>
 VINA RESULT:      -7.7      0.000      0.000
  Name = 
  14 active torsions:
  status: ('A' for Active; 'I' for Inactive)
    1  A    between atoms: C_1  and  C_5
    2  A    between atoms: C_1  and  C_36
    3  A    between atoms: O_4  and  C_28
    4  A    between atoms: C_5  and  C_17
    5  A    between atoms: C_7  and  C_27
    6  A    between atoms: C_7  and  C_33
    7  A    between atoms: C_11  and  C_26
    8  A    between atoms: C_11  and  C_33
    9  A    between atoms: C_17  and  C_26
   10  A    between atoms: C_18  and  C_19
   11  A    between atoms: C_18  and  C_35
   12  A    between atoms: C_20  and  C_24
   13  A    between atoms: C_24  and  C_30
   14  A    between atoms: C_27  and  C_35
                            x       y       z     vdW  Elec       q    Type
                         _______ _______ _______ _____ _____    ______ ____

>  <TORSDO>
F 14

$$$$
=
 OpenBabel11052415353D

 37 39  0  0  1  0  0  0  0  0999 V2000
  189.2930  176.8380  144.5630 O   0  0  0  0  0  0  0  0  0  0  0  0
  188.3330  175.3110  143.1650 O   0  0  0  0  0  1  0  0  0  0  0  0
  191.6030  176.6780  143.2420 C   0  0  1  0  0  3  0  0  0  0  0  0
  188.5520  176.6770  143.3630 C   0  0  2  0  0  0  0  0  0  0  0  0
  189.9080  178.0090  144.5020 O   0  0  0  0  0  0  0  0  0  0  0  0
  191.2830  177.7460  144.3170 C   0  0  2  0  0  3  0  0  0  0  0  0
  189.3080  177.2340  142.1370 C   0  0  0  0  0  2  0  0  0  0  0  0
  191.6870  175.2940  143.8630 C   0  0  0  0  0  1  0  0  0  0  0  0
  190.7150  176.6510  141.9820 C   0  0  1  0  0  3  0  0  0  0  0  0
  191.9430  178.9360  144.0070 O   0  0  0  0  0  0  0  0  0  0  0  0
  190.9480  179.9140  144.0210 C   0  0  0  0  0  1  0  0  0  0  0  0
  187.0200  178.3130  142.4660 O   0  0  0  0  0  1  0  0  0  0  0  0
  187.1980  177.3880  143.5060 C   0  0  2  0  0  3  0  0  0  0  0  0
  185.6900  179.2350  147.4000 O   0  0  0  0  0  1  0  0  0  0  0  0
  185.6830  177.6170  145.5360 C   0  0  2  0  0  3  0  0  0  0  0  0
  185.0780  178.8170  146.2190 C   0  0  0  0  0  0  0  0  0  0  0  0
  183.6950  178.9660  146.1110 O   0  0  0  0  0  1  0  0  0  0  0  0
  187.0060  178.0140  144.9030 C   0  0  2  0  0  3  0  0  0  0  0  0
  185.8670  179.0180  144.9510 C   0  0  1  0  0  3  0  0  0  0  0  0
  191.4210  177.3050  140.8040 C   0  0  0  0  0  2  0  0  0  0  0  0
  190.8180  176.8400  139.5160 C   0  0  0  0  0  0  0  0  0  0  0  0
  190.7980  175.6480  139.2500 O   0  0  0  0  0  0  0  0  0  0  0  0
  190.2510  177.3620  137.2660 O   0  0  0  0  0  1  0  0  0  0  0  0
  190.2040  177.8370  138.5800 C   0  0  1  0  0  3  0  0  0  0  0  0
  188.7650  178.1110  138.9920 C   0  0  0  0  0  2  0  0  0  0  0  0
  187.8800  178.2880  137.7970 C   0  0  0  0  0  0  0  0  0  0  0  0
  187.9820  179.2840  137.0980 O   0  0  0  0  0  0  0  0  0  0  0  0
  186.8510  177.2500  137.4810 C   0  0  0  0  0  2  0  0  0  0  0  0
  185.4600  177.8680  137.4340 C   0  0  0  0  0  2  0  0  0  0  0  0
  185.0440  178.3240  138.8230 C   0  0  0  0  0  2  0  0  0  0  0  0
  183.0510  179.8380  138.9340 C   0  0  0  0  0  1  0  0  0  0  0  0
  183.5290  178.3940  138.9480 C   0  0  2  0  0  3  0  0  0  0  0  0
  183.8380  178.2240  141.6740 Cl  0  0  0  0  0  0  0  0  0  0  0  0
  183.0070  177.6670  140.1960 C   0  0  1  0  0  3  0  0  0  0  0  0
  180.7150  178.5860  141.6930 S   0  0  0  0  0  1  0  0  0  0  0  0
  180.8110  177.1150  139.5290 O   0  0  0  0  0  0  0  0  0  0  0  0
  181.5080  177.6950  140.3490 C   0  0  0  0  0  0  0  0  0  0  0  0
  3  8  1  1  0  0  0
  3  6  1  0  0  0  0
  4  2  1  6  0  0  0
  4 13  1  0  0  0  0
  4  1  1  0  0  0  0
  5  1  1  0  0  0  0
  6 10  1  6  0  0  0
  6  5  1  0  0  0  0
  7  4  1  0  0  0  0
  9 20  1  6  0  0  0
  9  7  1  0  0  0  0
  9  3  1  0  0  0  0
 10 11  1  0  0  0  0
 13 12  1  6  0  0  0
 15 16  1  1  0  0  0
 16 14  1  0  0  0  0
 17 16  1  0  0  0  0
 18 13  1  6  0  0  0
 18 19  1  0  0  0  0
 18 15  1  0  0  0  0
 19 15  1  0  0  0  0
 19 16  1  1  0  0  0
 21 20  1  0  0  0  0
 22 21  2  0  0  0  0
 24 23  1  6  0  0  0
 24 25  1  0  0  0  0
 24 21  1  0  0  0  0
 26 25  1  0  0  0  0
 27 26  2  0  0  0  0
 28 26  1  0  0  0  0
 29 28  1  0  0  0  0
 29 30  1  0  0  0  0
 30 32  1  0  0  0  0
 32 31  1  1  0  0  0
 32 34  1  0  0  0  0
 34 37  1  0  0  0  0
 34 33  1  1  0  0  0
 36 37  2  0  0  0  0
 37 35  1  0  0  0  0
M  END
>  <MODEL>
2

>  <REMARK>
 VINA RESULT:      -7.3      1.702      5.941
  Name = 
  14 active torsions:
  status: ('A' for Active; 'I' for Inactive)
    1  A    between atoms: C_1  and  C_5
    2  A    between atoms: C_1  and  C_36
    3  A    between atoms: O_4  and  C_28
    4  A    between atoms: C_5  and  C_17
    5  A    between atoms: C_7  and  C_27
    6  A    between atoms: C_7  and  C_33
    7  A    between atoms: C_11  and  C_26
    8  A    between atoms: C_11  and  C_33
    9  A    between atoms: C_17  and  C_26
   10  A    between atoms: C_18  and  C_19
   11  A    between atoms: C_18  and  C_35
   12  A    between atoms: C_20  and  C_24
   13  A    between atoms: C_24  and  C_30
   14  A    between atoms: C_27  and  C_35
                            x       y       z     vdW  Elec       q    Type
                         _______ _______ _______ _____ _____    ______ ____

>  <TORSDO>
F 14

$$$$
=
 OpenBabel11052415353D

 37 39  0  0  1  0  0  0  0  0999 V2000
  190.0810  175.1600  135.9210 O   0  0  0  0  0  0  0  0  0  0  0  0
  190.5570  173.7600  137.6600 O   0  0  0  0  0  1  0  0  0  0  0  0
  188.6320  176.7340  137.5110 C   0  0  1  0  0  3  0  0  0  0  0  0
  191.0020  174.8890  136.9660 C   0  0  2  0  0  0  0  0  0  0  0  0
  190.2050  176.4370  135.5960 O   0  0  0  0  0  0  0  0  0  0  0  0
  189.0490  177.0990  136.0650 C   0  0  2  0  0  3  0  0  0  0  0  0
  191.1110  176.0640  137.9620 C   0  0  0  0  0  2  0  0  0  0  0  0
  187.6530  175.5730  137.5140 C   0  0  0  0  0  1  0  0  0  0  0  0
  189.7590  176.4930  138.5360 C   0  0  1  0  0  3  0  0  0  0  0  0
  189.2350  178.4780  135.9640 O   0  0  0  0  0  0  0  0  0  0  0  0
  188.0840  179.0400  136.5180 C   0  0  0  0  0  1  0  0  0  0  0  0
  192.2470  173.8380  135.1850 O   0  0  0  0  0  1  0  0  0  0  0  0
  192.3820  174.5930  136.3600 C   0  0  2  0  0  3  0  0  0  0  0  0
  195.8720  173.3330  139.0220 O   0  0  0  0  0  1  0  0  0  0  0  0
  194.3560  174.9430  137.9240 C   0  0  2  0  0  3  0  0  0  0  0  0
  195.7090  174.2840  138.0140 C   0  0  0  0  0  0  0  0  0  0  0  0
  196.8110  175.0670  137.6700 O   0  0  0  0  0  1  0  0  0  0  0  0
  193.3470  173.9490  137.3770 C   0  0  2  0  0  3  0  0  0  0  0  0
  194.7850  173.9060  136.8850 C   0  0  1  0  0  3  0  0  0  0  0  0
  189.9380  177.7020  139.4420 C   0  0  0  0  0  2  0  0  0  0  0  0
  189.6110  177.3410  140.8570 C   0  0  0  0  0  0  0  0  0  0  0  0
  188.4490  177.1550  141.1830 O   0  0  0  0  0  0  0  0  0  0  0  0
  191.9490  177.4730  141.2700 O   0  0  0  0  0  1  0  0  0  0  0  0
  190.7170  177.1690  141.8550 C   0  0  1  0  0  3  0  0  0  0  0  0
  190.4660  178.0640  143.0590 C   0  0  0  0  0  2  0  0  0  0  0  0
  190.3420  177.2620  144.3180 C   0  0  0  0  0  0  0  0  0  0  0  0
  191.2670  176.5600  144.6930 O   0  0  0  0  0  0  0  0  0  0  0  0
  189.0670  177.3060  145.0980 C   0  0  0  0  0  2  0  0  0  0  0  0
  187.8870  177.6090  144.1850 C   0  0  0  0  0  2  0  0  0  0  0  0
  186.5800  177.3640  144.9200 C   0  0  0  0  0  2  0  0  0  0  0  0
  185.0480  178.9480  146.1120 C   0  0  0  0  0  1  0  0  0  0  0  0
  185.6320  178.5440  144.7670 C   0  0  2  0  0  3  0  0  0  0  0  0
  182.9180  178.7600  144.3910 Cl  0  0  0  0  0  0  0  0  0  0  0  0
  184.5120  178.2710  143.7530 C   0  0  1  0  0  3  0  0  0  0  0  0
  183.7980  178.3260  140.9550 S   0  0  0  0  0  1  0  0  0  0  0  0
  185.6370  179.6830  142.2330 O   0  0  0  0  0  0  0  0  0  0  0  0
  184.7660  178.8390  142.3790 C   0  0  0  0  0  0  0  0  0  0  0  0
  1  4  1  0  0  0  0
  3  8  1  6  0  0  0
  3  9  1  0  0  0  0
  4  2  1  1  0  0  0
  4  7  1  0  0  0  0
  5  1  1  0  0  0  0
  5  6  1  0  0  0  0
  6 10  1  1  0  0  0
  6  3  1  0  0  0  0
  7  9  1  0  0  0  0
  9 20  1  6  0  0  0
 10 11  1  0  0  0  0
 13 12  1  6  0  0  0
 13  4  1  0  0  0  0
 15 16  1  1  0  0  0
 16 14  1  0  0  0  0
 17 16  1  0  0  0  0
 18 13  1  6  0  0  0
 18 15  1  0  0  0  0
 19 18  1  0  0  0  0
 19 15  1  0  0  0  0
 19 16  1  1  0  0  0
 20 21  1  0  0  0  0
 21 22  2  0  0  0  0
 21 24  1  0  0  0  0
 24 23  1  6  0  0  0
 24 25  1  0  0  0  0
 25 26  1  0  0  0  0
 26 27  2  0  0  0  0
 26 28  1  0  0  0  0
 29 30  1  0  0  0  0
 29 28  1  0  0  0  0
 32 30  1  0  0  0  0
 32 31  1  1  0  0  0
 34 33  1  1  0  0  0
 34 32  1  0  0  0  0
 35 37  1  0  0  0  0
 36 37  2  0  0  0  0
 37 34  1  0  0  0  0
M  END
>  <MODEL>
3

>  <REMARK>
 VINA RESULT:      -7.2      3.560      6.756
  Name = 
  14 active torsions:
  status: ('A' for Active; 'I' for Inactive)
    1  A    between atoms: C_1  and  C_5
    2  A    between atoms: C_1  and  C_36
    3  A    between atoms: O_4  and  C_28
    4  A    between atoms: C_5  and  C_17
    5  A    between atoms: C_7  and  C_27
    6  A    between atoms: C_7  and  C_33
    7  A    between atoms: C_11  and  C_26
    8  A    between atoms: C_11  and  C_33
    9  A    between atoms: C_17  and  C_26
   10  A    between atoms: C_18  and  C_19
   11  A    between atoms: C_18  and  C_35
   12  A    between atoms: C_20  and  C_24
   13  A    between atoms: C_24  and  C_30
   14  A    between atoms: C_27  and  C_35
                            x       y       z     vdW  Elec       q    Type
                         _______ _______ _______ _____ _____    ______ ____

>  <TORSDO>
F 14

$$$$
=
 OpenBabel11052415353D

 37 39  0  0  1  0  0  0  0  0999 V2000
  189.3130  176.8040  144.5740 O   0  0  0  0  0  0  0  0  0  0  0  0
  188.3870  175.3210  143.1070 O   0  0  0  0  0  1  0  0  0  0  0  0
  191.6510  176.6900  143.2990 C   0  0  1  0  0  3  0  0  0  0  0  0
  188.5990  176.6800  143.3540 C   0  0  2  0  0  0  0  0  0  0  0  0
  189.9270  177.9770  144.5640 O   0  0  0  0  0  0  0  0  0  0  0  0
  191.3060  177.7220  144.4010 C   0  0  2  0  0  3  0  0  0  0  0  0
  189.3790  177.2780  142.1630 C   0  0  0  0  0  2  0  0  0  0  0  0
  191.7250  175.2880  143.8770 C   0  0  0  0  0  1  0  0  0  0  0  0
  190.7910  176.7030  142.0200 C   0  0  1  0  0  3  0  0  0  0  0  0
  191.9690  178.9230  144.1440 O   0  0  0  0  0  0  0  0  0  0  0  0
  190.9580  179.8800  144.0460 C   0  0  0  0  0  1  0  0  0  0  0  0
  187.0370  178.2640  142.4170 O   0  0  0  0  0  1  0  0  0  0  0  0
  187.2410  177.3840  143.4900 C   0  0  2  0  0  3  0  0  0  0  0  0
  185.7740  179.3420  147.3460 O   0  0  0  0  0  1  0  0  0  0  0  0
  185.7790  177.6420  145.5560 C   0  0  2  0  0  3  0  0  0  0  0  0
  185.1440  178.8460  146.2050 C   0  0  0  0  0  0  0  0  0  0  0  0
  183.7540  178.9320  146.1360 O   0  0  0  0  0  1  0  0  0  0  0  0
  187.0640  178.0640  144.8640 C   0  0  2  0  0  3  0  0  0  0  0  0
  185.8850  179.0220  144.9040 C   0  0  1  0  0  3  0  0  0  0  0  0
  191.5210  177.3960  140.8790 C   0  0  0  0  0  2  0  0  0  0  0  0
  191.2810  176.6690  139.5940 C   0  0  0  0  0  0  0  0  0  0  0  0
  190.2320  176.0660  139.4240 O   0  0  0  0  0  0  0  0  0  0  0  0
  193.5930  176.8110  139.0580 O   0  0  0  0  0  1  0  0  0  0  0  0
  192.3120  176.7190  138.5070 C   0  0  1  0  0  3  0  0  0  0  0  0
  192.1990  175.4790  137.6340 C   0  0  0  0  0  2  0  0  0  0  0  0
  192.1640  175.8370  136.1800 C   0  0  0  0  0  0  0  0  0  0  0  0
  193.1990  176.0780  135.5800 O   0  0  0  0  0  0  0  0  0  0  0  0
  190.8480  175.9240  135.4740 C   0  0  0  0  0  2  0  0  0  0  0  0
  189.8080  175.0530  136.1640 C   0  0  0  0  0  2  0  0  0  0  0  0
  188.4090  175.4960  135.7660 C   0  0  0  0  0  2  0  0  0  0  0  0
  186.4710  174.5720  137.0580 C   0  0  0  0  0  1  0  0  0  0  0  0
  187.5200  175.6720  136.9890 C   0  0  2  0  0  3  0  0  0  0  0  0
  185.1270  176.9360  137.4710 Cl  0  0  0  0  0  0  0  0  0  0  0  0
  186.8550  177.0550  137.0380 C   0  0  1  0  0  3  0  0  0  0  0  0
  189.0670  178.8910  137.3170 S   0  0  0  0  0  1  0  0  0  0  0  0
  187.1360  178.3390  138.9970 O   0  0  0  0  0  0  0  0  0  0  0  0
  187.5800  178.0630  137.8930 C   0  0  0  0  0  0  0  0  0  0  0  0
  3  8  1  1  0  0  0
  3  6  1  0  0  0  0
  4  2  1  6  0  0  0
  4 13  1  0  0  0  0
  4  1  1  0  0  0  0
  5  1  1  0  0  0  0
  6 10  1  6  0  0  0
  6  5  1  0  0  0  0
  7  4  1  0  0  0  0
  9 20  1  6  0  0  0
  9  7  1  0  0  0  0
  9  3  1  0  0  0  0
 11 10  1  0  0  0  0
 13 12  1  6  0  0  0
 15 16  1  1  0  0  0
 16 14  1  0  0  0  0
 17 16  1  0  0  0  0
 18 13  1  6  0  0  0
 18 19  1  0  0  0  0
 18 15  1  0  0  0  0
 19 15  1  0  0  0  0
 19 16  1  1  0  0  0
 21 20  1  0  0  0  0
 22 21  2  0  0  0  0
 24 23  1  1  0  0  0
 24 21  1  0  0  0  0
 25 24  1  0  0  0  0
 26 25  1  0  0  0  0
 27 26  2  0  0  0  0
 28 29  1  0  0  0  0
 28 26  1  0  0  0  0
 30 29  1  0  0  0  0
 30 32  1  0  0  0  0
 32 34  1  0  0  0  0
 32 31  1  6  0  0  0
 34 33  1  1  0  0  0
 34 37  1  0  0  0  0
 35 37  1  0  0  0  0
 37 36  2  0  0  0  0
M  END
>  <MODEL>
4

>  <REMARK>
 VINA RESULT:      -7.2      3.023      7.310
  Name = 
  14 active torsions:
  status: ('A' for Active; 'I' for Inactive)
    1  A    between atoms: C_1  and  C_5
    2  A    between atoms: C_1  and  C_36
    3  A    between atoms: O_4  and  C_28
    4  A    between atoms: C_5  and  C_17
    5  A    between atoms: C_7  and  C_27
    6  A    between atoms: C_7  and  C_33
    7  A    between atoms: C_11  and  C_26
    8  A    between atoms: C_11  and  C_33
    9  A    between atoms: C_17  and  C_26
   10  A    between atoms: C_18  and  C_19
   11  A    between atoms: C_18  and  C_35
   12  A    between atoms: C_20  and  C_24
   13  A    between atoms: C_24  and  C_30
   14  A    between atoms: C_27  and  C_35
                            x       y       z     vdW  Elec       q    Type
                         _______ _______ _______ _____ _____    ______ ____

>  <TORSDO>
F 14

$$$$
=
 OpenBabel11052415353D

 37 39  0  0  1  0  0  0  0  0999 V2000
  183.2230  178.5030  139.9360 O   0  0  0  0  0  0  0  0  0  0  0  0
  184.4920  180.2470  139.1880 O   0  0  0  0  0  1  0  0  0  0  0  0
  183.4220  177.2740  137.5790 C   0  0  1  0  0  3  0  0  0  0  0  0
  184.5470  179.0060  139.8280 C   0  0  2  0  0  0  0  0  0  0  0  0
  183.3020  177.1880  140.0710 O   0  0  0  0  0  0  0  0  0  0  0  0
  182.8490  176.6190  138.8610 C   0  0  2  0  0  3  0  0  0  0  0  0
  185.4560  178.0700  139.0030 C   0  0  0  0  0  2  0  0  0  0  0  0
  182.5160  178.3910  137.0920 C   0  0  0  0  0  1  0  0  0  0  0  0
  184.8890  177.7470  137.6190 C   0  0  1  0  0  3  0  0  0  0  0  0
  183.1350  175.2530  138.8580 O   0  0  0  0  0  0  0  0  0  0  0  0
  182.5970  174.7740  137.6640 C   0  0  0  0  0  1  0  0  0  0  0  0
  186.2720  178.3900  141.4000 O   0  0  0  0  0  1  0  0  0  0  0  0
  185.1330  179.1920  141.2350 C   0  0  2  0  0  3  0  0  0  0  0  0
  182.7670  178.7300  145.1140 O   0  0  0  0  0  1  0  0  0  0  0  0
  184.3600  179.8210  143.5760 C   0  0  2  0  0  3  0  0  0  0  0  0
  184.1020  179.0000  144.8130 C   0  0  0  0  0  0  0  0  0  0  0  0
  184.9890  179.1760  145.8760 O   0  0  0  0  0  1  0  0  0  0  0  0
  184.0820  178.9750  142.3450 C   0  0  2  0  0  3  0  0  0  0  0  0
  184.6600  178.3220  143.5890 C   0  0  1  0  0  3  0  0  0  0  0  0
  185.7990  176.7600  136.9020 C   0  0  0  0  0  2  0  0  0  0  0  0
  187.0920  177.4190  136.5380 C   0  0  0  0  0  0  0  0  0  0  0  0
  187.0830  178.4970  135.9630 O   0  0  0  0  0  0  0  0  0  0  0  0
  188.8500  175.9600  135.8780 O   0  0  0  0  0  1  0  0  0  0  0  0
  188.3890  176.7720  136.9180 C   0  0  1  0  0  3  0  0  0  0  0  0
  189.4190  177.8410  137.2500 C   0  0  0  0  0  2  0  0  0  0  0  0
  189.3630  178.2220  138.6970 C   0  0  0  0  0  0  0  0  0  0  0  0
  188.7020  179.1840  139.0550 O   0  0  0  0  0  0  0  0  0  0  0  0
  190.1440  177.4320  139.6990 C   0  0  0  0  0  2  0  0  0  0  0  0
  189.2690  177.0520  140.8850 C   0  0  0  0  0  2  0  0  0  0  0  0
  189.7230  177.7980  142.1290 C   0  0  0  0  0  2  0  0  0  0  0  0
  190.5500  175.6260  143.0670 C   0  0  0  0  0  1  0  0  0  0  0  0
  190.8870  177.0860  142.8040 C   0  0  2  0  0  3  0  0  0  0  0  0
  191.1400  179.5510  143.9920 Cl  0  0  0  0  0  0  0  0  0  0  0  0
  191.3280  177.7800  144.1000 C   0  0  1  0  0  3  0  0  0  0  0  0
  191.6640  176.3850  146.6070 S   0  0  0  0  0  1  0  0  0  0  0  0
  189.4910  177.3620  145.5220 O   0  0  0  0  0  0  0  0  0  0  0  0
  190.6930  177.2230  145.3490 C   0  0  0  0  0  0  0  0  0  0  0  0
  1  5  1  0  0  0  0
  3  8  1  1  0  0  0
  3  9  1  0  0  0  0
  3  6  1  0  0  0  0
  4  2  1  6  0  0  0
  4  1  1  0  0  0  0
  4 13  1  0  0  0  0
  6 10  1  1  0  0  0
  6  5  1  0  0  0  0
  7  4  1  0  0  0  0
  9 20  1  1  0  0  0
  9  7  1  0  0  0  0
 11 10  1  0  0  0  0
 13 12  1  1  0  0  0
 15 19  1  0  0  0  0
 15 16  1  1  0  0  0
 16 14  1  0  0  0  0
 16 17  1  0  0  0  0
 18 13  1  6  0  0  0
 18 15  1  0  0  0  0
 18 19  1  0  0  0  0
 19 16  1  1  0  0  0
 21 20  1  0  0  0  0
 21 24  1  0  0  0  0
 22 21  2  0  0  0  0
 24 23  1  6  0  0  0
 24 25  1  0  0  0  0
 25 26  1  0  0  0  0
 26 27  2  0  0  0  0
 26 28  1  0  0  0  0
 28 29  1  0  0  0  0
 29 30  1  0  0  0  0
 30 32  1  0  0  0  0
 32 31  1  1  0  0  0
 32 34  1  0  0  0  0
 34 33  1  6  0  0  0
 34 37  1  0  0  0  0
 37 36  2  0  0  0  0
 37 35  1  0  0  0  0
M  END
>  <MODEL>
5

>  <REMARK>
 VINA RESULT:      -7.2      3.299      8.807
  Name = 
  14 active torsions:
  status: ('A' for Active; 'I' for Inactive)
    1  A    between atoms: C_1  and  C_5
    2  A    between atoms: C_1  and  C_36
    3  A    between atoms: O_4  and  C_28
    4  A    between atoms: C_5  and  C_17
    5  A    between atoms: C_7  and  C_27
    6  A    between atoms: C_7  and  C_33
    7  A    between atoms: C_11  and  C_26
    8  A    between atoms: C_11  and  C_33
    9  A    between atoms: C_17  and  C_26
   10  A    between atoms: C_18  and  C_19
   11  A    between atoms: C_18  and  C_35
   12  A    between atoms: C_20  and  C_24
   13  A    between atoms: C_24  and  C_30
   14  A    between atoms: C_27  and  C_35
                            x       y       z     vdW  Elec       q    Type
                         _______ _______ _______ _____ _____    ______ ____

>  <TORSDO>
F 14

$$$$
=
 OpenBabel11052415353D

 37 39  0  0  1  0  0  0  0  0999 V2000
  189.1850  176.9330  144.6810 O   0  0  0  0  0  0  0  0  0  0  0  0
  187.8930  175.7010  143.2600 O   0  0  0  0  0  1  0  0  0  0  0  0
  191.3190  176.5980  143.1200 C   0  0  1  0  0  3  0  0  0  0  0  0
  188.3240  176.9970  143.5540 C   0  0  2  0  0  0  0  0  0  0  0  0
  189.9550  178.0100  144.6610 O   0  0  0  0  0  0  0  0  0  0  0  0
  191.2560  177.5840  144.3130 C   0  0  2  0  0  3  0  0  0  0  0  0
  189.0390  177.5690  142.3100 C   0  0  0  0  0  2  0  0  0  0  0  0
  191.2580  175.1600  143.6040 C   0  0  0  0  0  1  0  0  0  0  0  0
  190.3280  176.8200  141.9610 C   0  0  1  0  0  3  0  0  0  0  0  0
  192.0490  178.6990  144.0430 O   0  0  0  0  0  0  0  0  0  0  0  0
  191.1570  179.7690  143.9730 C   0  0  0  0  0  1  0  0  0  0  0  0
  186.3530  177.2700  144.9210 O   0  0  0  0  0  1  0  0  0  0  0  0
  187.1060  177.8660  143.8980 C   0  0  2  0  0  3  0  0  0  0  0  0
  183.9010  179.0590  140.8710 O   0  0  0  0  0  1  0  0  0  0  0  0
  185.2270  179.2890  142.9400 C   0  0  2  0  0  3  0  0  0  0  0  0
  183.9300  178.9320  142.2590 C   0  0  0  0  0  0  0  0  0  0  0  0
  182.7580  179.2030  142.9650 O   0  0  0  0  0  1  0  0  0  0  0  0
  186.2580  178.2110  142.6540 C   0  0  2  0  0  3  0  0  0  0  0  0
  184.7960  177.8270  142.8090 C   0  0  1  0  0  3  0  0  0  0  0  0
  191.0130  177.4900  140.7790 C   0  0  0  0  0  2  0  0  0  0  0  0
  190.5970  176.8330  139.5000 C   0  0  0  0  0  0  0  0  0  0  0  0
  190.9540  175.6910  139.2600 O   0  0  0  0  0  0  0  0  0  0  0  0
  190.2320  177.5020  137.2480 O   0  0  0  0  0  1  0  0  0  0  0  0
  189.7090  177.5690  138.5420 C   0  0  1  0  0  3  0  0  0  0  0  0
  188.3090  176.9740  138.5780 C   0  0  0  0  0  2  0  0  0  0  0  0
  187.2680  178.0130  138.2930 C   0  0  0  0  0  0  0  0  0  0  0  0
  186.7450  178.6270  139.2090 O   0  0  0  0  0  0  0  0  0  0  0  0
  186.8540  178.2730  136.8800 C   0  0  0  0  0  2  0  0  0  0  0  0
  185.6870  177.3780  136.4880 C   0  0  0  0  0  2  0  0  0  0  0  0
  186.1730  176.2410  135.6040 C   0  0  0  0  0  2  0  0  0  0  0  0
  184.0980  175.1400  136.4740 C   0  0  0  0  0  1  0  0  0  0  0  0
  185.5270  174.9210  136.0000 C   0  0  2  0  0  3  0  0  0  0  0  0
  185.3180  173.0130  137.9660 Cl  0  0  0  0  0  0  0  0  0  0  0  0
  186.3380  174.1650  137.0610 C   0  0  1  0  0  3  0  0  0  0  0  0
  187.5270  172.0610  135.4790 S   0  0  0  0  0  1  0  0  0  0  0  0
  188.6790  173.9940  136.8180 O   0  0  0  0  0  0  0  0  0  0  0  0
  187.5920  173.5130  136.5360 C   0  0  0  0  0  0  0  0  0  0  0  0
  3  8  1  1  0  0  0
  3  6  1  0  0  0  0
  4  2  1  6  0  0  0
  4 13  1  0  0  0  0
  4  1  1  0  0  0  0
  5  1  1  0  0  0  0
  6 10  1  6  0  0  0
  6  5  1  0  0  0  0
  7  4  1  0  0  0  0
  9 20  1  6  0  0  0
  9  7  1  0  0  0  0
  9  3  1  0  0  0  0
 11 10  1  0  0  0  0
 13 12  1  1  0  0  0
 14 16  1  0  0  0  0
 15 16  1  6  0  0  0
 16 17  1  0  0  0  0
 18 19  1  0  0  0  0
 18 15  1  0  0  0  0
 18 13  1  1  0  0  0
 19 16  1  6  0  0  0
 19 15  1  0  0  0  0
 21 20  1  0  0  0  0
 22 21  2  0  0  0  0
 24 23  1  6  0  0  0
 24 25  1  0  0  0  0
 24 21  1  0  0  0  0
 26 25  1  0  0  0  0
 26 27  2  0  0  0  0
 28 26  1  0  0  0  0
 29 28  1  0  0  0  0
 30 32  1  0  0  0  0
 30 29  1  0  0  0  0
 32 31  1  1  0  0  0
 32 34  1  0  0  0  0
 34 33  1  6  0  0  0
 35 37  1  0  0  0  0
 37 36  2  0  0  0  0
 37 34  1  0  0  0  0
M  END
>  <MODEL>
6

>  <REMARK>
 VINA RESULT:      -6.9      3.191      6.238
  Name = 
  14 active torsions:
  status: ('A' for Active; 'I' for Inactive)
    1  A    between atoms: C_1  and  C_5
    2  A    between atoms: C_1  and  C_36
    3  A    between atoms: O_4  and  C_28
    4  A    between atoms: C_5  and  C_17
    5  A    between atoms: C_7  and  C_27
    6  A    between atoms: C_7  and  C_33
    7  A    between atoms: C_11  and  C_26
    8  A    between atoms: C_11  and  C_33
    9  A    between atoms: C_17  and  C_26
   10  A    between atoms: C_18  and  C_19
   11  A    between atoms: C_18  and  C_35
   12  A    between atoms: C_20  and  C_24
   13  A    between atoms: C_24  and  C_30
   14  A    between atoms: C_27  and  C_35
                            x       y       z     vdW  Elec       q    Type
                         _______ _______ _______ _____ _____    ______ ____

>  <TORSDO>
F 14

$$$$
=
 OpenBabel11052415353D

 37 39  0  0  1  0  0  0  0  0999 V2000
  190.8450  177.1900  137.7570 O   0  0  0  0  0  0  0  0  0  0  0  0
  190.3270  176.7420  135.5800 O   0  0  0  0  0  1  0  0  0  0  0  0
  188.4590  178.3110  138.1510 C   0  0  1  0  0  3  0  0  0  0  0  0
  190.2870  176.2250  136.8770 C   0  0  2  0  0  0  0  0  0  0  0  0
  190.3790  176.9430  138.9720 O   0  0  0  0  0  0  0  0  0  0  0  0
  189.4630  177.9730  139.2810 C   0  0  2  0  0  3  0  0  0  0  0  0
  188.8190  175.8990  137.2300 C   0  0  0  0  0  2  0  0  0  0  0  0
  189.0010  179.4160  137.2610 C   0  0  0  0  0  1  0  0  0  0  0  0
  187.9280  177.1410  137.2980 C   0  0  1  0  0  3  0  0  0  0  0  0
  188.7660  177.6360  140.4430 O   0  0  0  0  0  0  0  0  0  0  0  0
  189.7090  177.0120  141.2600 C   0  0  0  0  0  1  0  0  0  0  0  0
  190.4270  173.9220  137.5900 O   0  0  0  0  0  1  0  0  0  0  0  0
  191.1310  174.9430  136.9340 C   0  0  2  0  0  3  0  0  0  0  0  0
  195.5830  175.1910  137.9240 O   0  0  0  0  0  1  0  0  0  0  0  0
  193.5970  175.3580  136.4660 C   0  0  2  0  0  3  0  0  0  0  0  0
  194.8460  174.6240  136.8840 C   0  0  0  0  0  0  0  0  0  0  0  0
  195.5430  173.9550  135.8780 O   0  0  0  0  0  1  0  0  0  0  0  0
  192.5320  175.1860  137.5350 C   0  0  2  0  0  3  0  0  0  0  0  0
  193.5020  174.0500  137.2540 C   0  0  1  0  0  3  0  0  0  0  0  0
  186.5220  176.7490  137.7280 C   0  0  0  0  0  2  0  0  0  0  0  0
  185.5120  177.3580  136.8070 C   0  0  0  0  0  0  0  0  0  0  0  0
  185.7410  177.4190  135.6090 O   0  0  0  0  0  0  0  0  0  0  0  0
  183.1470  177.1070  136.8310 O   0  0  0  0  0  1  0  0  0  0  0  0
  184.2070  177.8510  137.3560 C   0  0  1  0  0  3  0  0  0  0  0  0
  184.2200  177.7560  138.8740 C   0  0  0  0  0  2  0  0  0  0  0  0
  184.7020  179.0300  139.4970 C   0  0  0  0  0  0  0  0  0  0  0  0
  184.4390  180.1040  138.9810 O   0  0  0  0  0  0  0  0  0  0  0  0
  185.5310  178.9760  140.7400 C   0  0  0  0  0  2  0  0  0  0  0  0
  184.6520  178.7710  141.9650 C   0  0  0  0  0  2  0  0  0  0  0  0
  185.3800  179.2380  143.2150 C   0  0  0  0  0  2  0  0  0  0  0  0
  183.5800  178.6430  144.8550 C   0  0  0  0  0  1  0  0  0  0  0  0
  185.0140  178.3800  144.4180 C   0  0  2  0  0  3  0  0  0  0  0  0
  185.1260  178.5100  147.1610 Cl  0  0  0  0  0  0  0  0  0  0  0  0
  185.9800  178.5750  145.5950 C   0  0  1  0  0  3  0  0  0  0  0  0
  188.3040  177.5470  146.9680 S   0  0  0  0  0  1  0  0  0  0  0  0
  187.3820  176.9670  144.5860 O   0  0  0  0  0  0  0  0  0  0  0  0
  187.1800  177.6620  145.5710 C   0  0  0  0  0  0  0  0  0  0  0  0
  1  5  1  0  0  0  0
  3  8  1  6  0  0  0
  3  6  1  0  0  0  0
  4  2  1  6  0  0  0
  4 13  1  0  0  0  0
  4  7  1  0  0  0  0
  4  1  1  0  0  0  0
  5  6  1  0  0  0  0
  6 10  1  1  0  0  0
  7  9  1  0  0  0  0
  9 20  1  1  0  0  0
  9  3  1  0  0  0  0
 10 11  1  0  0  0  0
 13 12  1  1  0  0  0
 15 16  1  1  0  0  0
 15 19  1  0  0  0  0
 15 18  1  0  0  0  0
 16 14  1  0  0  0  0
 17 16  1  0  0  0  0
 18 13  1  6  0  0  0
 19 16  1  1  0  0  0
 19 18  1  0  0  0  0
 21 24  1  0  0  0  0
 21 20  1  0  0  0  0
 22 21  2  0  0  0  0
 24 23  1  6  0  0  0
 24 25  1  0  0  0  0
 25 26  1  0  0  0  0
 26 28  1  0  0  0  0
 27 26  2  0  0  0  0
 28 29  1  0  0  0  0
 29 30  1  0  0  0  0
 30 32  1  0  0  0  0
 32 31  1  1  0  0  0
 32 34  1  0  0  0  0
 34 33  1  1  0  0  0
 36 37  2  0  0  0  0
 37 34  1  0  0  0  0
 37 35  1  0  0  0  0
M  END
>  <MODEL>
7

>  <REMARK>
 VINA RESULT:      -6.7      3.800      6.890
  Name = 
  14 active torsions:
  status: ('A' for Active; 'I' for Inactive)
    1  A    between atoms: C_1  and  C_5
    2  A    between atoms: C_1  and  C_36
    3  A    between atoms: O_4  and  C_28
    4  A    between atoms: C_5  and  C_17
    5  A    between atoms: C_7  and  C_27
    6  A    between atoms: C_7  and  C_33
    7  A    between atoms: C_11  and  C_26
    8  A    between atoms: C_11  and  C_33
    9  A    between atoms: C_17  and  C_26
   10  A    between atoms: C_18  and  C_19
   11  A    between atoms: C_18  and  C_35
   12  A    between atoms: C_20  and  C_24
   13  A    between atoms: C_24  and  C_30
   14  A    between atoms: C_27  and  C_35
                            x       y       z     vdW  Elec       q    Type
                         _______ _______ _______ _____ _____    ______ ____

>  <TORSDO>
F 14

$$$$
=
 OpenBabel11052415353D

 37 39  0  0  1  0  0  0  0  0999 V2000
  189.1870  176.9620  144.6840 O   0  0  0  0  0  0  0  0  0  0  0  0
  188.0460  175.7520  143.1210 O   0  0  0  0  0  1  0  0  0  0  0  0
  191.4630  176.6740  143.3270 C   0  0  1  0  0  3  0  0  0  0  0  0
  188.4370  177.0440  143.4820 C   0  0  2  0  0  0  0  0  0  0  0  0
  189.9470  178.0440  144.7590 O   0  0  0  0  0  0  0  0  0  0  0  0
  191.2780  177.6340  144.5280 C   0  0  2  0  0  3  0  0  0  0  0  0
  189.2620  177.6470  142.3240 C   0  0  0  0  0  2  0  0  0  0  0  0
  191.3680  175.2250  143.7740 C   0  0  0  0  0  1  0  0  0  0  0  0
  190.5840  176.9140  142.0830 C   0  0  1  0  0  3  0  0  0  0  0  0
  192.0840  178.7600  144.3590 O   0  0  0  0  0  0  0  0  0  0  0  0
  191.1950  179.8320  144.2810 C   0  0  0  0  0  1  0  0  0  0  0  0
  186.1800  177.1310  144.3350 O   0  0  0  0  0  1  0  0  0  0  0  0
  187.1840  177.8980  143.7260 C   0  0  2  0  0  3  0  0  0  0  0  0
  184.8690  179.7240  140.2380 O   0  0  0  0  0  1  0  0  0  0  0  0
  185.3160  179.2190  142.6130 C   0  0  2  0  0  3  0  0  0  0  0  0
  184.5110  178.9790  141.3620 C   0  0  0  0  0  0  0  0  0  0  0  0
  183.1620  178.6670  141.5370 O   0  0  0  0  0  1  0  0  0  0  0  0
  186.6980  178.6110  142.4450 C   0  0  2  0  0  3  0  0  0  0  0  0
  185.4970  177.9310  141.8090 C   0  0  1  0  0  3  0  0  0  0  0  0
  191.3730  177.6130  140.9860 C   0  0  0  0  0  2  0  0  0  0  0  0
  191.4440  176.7470  139.7680 C   0  0  0  0  0  0  0  0  0  0  0  0
  190.5620  175.9300  139.5520 O   0  0  0  0  0  0  0  0  0  0  0  0
  193.7650  177.1770  139.4840 O   0  0  0  0  0  1  0  0  0  0  0  0
  192.5750  176.9160  138.7990 C   0  0  1  0  0  3  0  0  0  0  0  0
  192.7170  175.6620  137.9500 C   0  0  0  0  0  2  0  0  0  0  0  0
  193.1690  175.9920  136.5620 C   0  0  0  0  0  0  0  0  0  0  0  0
  194.3380  176.2730  136.3460 O   0  0  0  0  0  0  0  0  0  0  0  0
  192.1750  176.0020  135.4440 C   0  0  0  0  0  2  0  0  0  0  0  0
  191.3410  174.7290  135.4540 C   0  0  0  0  0  2  0  0  0  0  0  0
  189.8700  175.0660  135.2750 C   0  0  0  0  0  2  0  0  0  0  0  0
  188.1140  174.6210  137.0060 C   0  0  0  0  0  1  0  0  0  0  0  0
  189.2510  175.5380  136.5830 C   0  0  2  0  0  3  0  0  0  0  0  0
  188.4140  177.4870  134.8350 Cl  0  0  0  0  0  0  0  0  0  0  0  0
  188.7710  176.9950  136.5130 C   0  0  1  0  0  3  0  0  0  0  0  0
  185.9290  177.3590  136.8790 S   0  0  0  0  0  1  0  0  0  0  0  0
  187.8710  177.5390  138.6260 O   0  0  0  0  0  0  0  0  0  0  0  0
  187.6330  177.3190  137.4480 C   0  0  0  0  0  0  0  0  0  0  0  0
  1  5  1  0  0  0  0
  3  8  1  1  0  0  0
  3  6  1  0  0  0  0
  4  2  1  6  0  0  0
  4 13  1  0  0  0  0
  4  1  1  0  0  0  0
  6 10  1  6  0  0  0
  6  5  1  0  0  0  0
  7  4  1  0  0  0  0
  9 20  1  6  0  0  0
  9  7  1  0  0  0  0
  9  3  1  0  0  0  0
 11 10  1  0  0  0  0
 13 12  1  6  0  0  0
 14 16  1  0  0  0  0
 15 16  1  6  0  0  0
 16 17  1  0  0  0  0
 18 15  1  0  0  0  0
 18 13  1  1  0  0  0
 19 16  1  6  0  0  0
 19 18  1  0  0  0  0
 19 15  1  0  0  0  0
 21 20  1  0  0  0  0
 22 21  2  0  0  0  0
 24 23  1  1  0  0  0
 24 21  1  0  0  0  0
 25 24  1  0  0  0  0
 26 25  1  0  0  0  0
 27 26  2  0  0  0  0
 28 29  1  0  0  0  0
 28 26  1  0  0  0  0
 30 29  1  0  0  0  0
 30 32  1  0  0  0  0
 32 31  1  6  0  0  0
 34 33  1  6  0  0  0
 34 32  1  0  0  0  0
 34 37  1  0  0  0  0
 35 37  1  0  0  0  0
 37 36  2  0  0  0  0
M  END
>  <MODEL>
8

>  <REMARK>
 VINA RESULT:      -6.5      3.259      7.017
  Name = 
  14 active torsions:
  status: ('A' for Active; 'I' for Inactive)
    1  A    between atoms: C_1  and  C_5
    2  A    between atoms: C_1  and  C_36
    3  A    between atoms: O_4  and  C_28
    4  A    between atoms: C_5  and  C_17
    5  A    between atoms: C_7  and  C_27
    6  A    between atoms: C_7  and  C_33
    7  A    between atoms: C_11  and  C_26
    8  A    between atoms: C_11  and  C_33
    9  A    between atoms: C_17  and  C_26
   10  A    between atoms: C_18  and  C_19
   11  A    between atoms: C_18  and  C_35
   12  A    between atoms: C_20  and  C_24
   13  A    between atoms: C_24  and  C_30
   14  A    between atoms: C_27  and  C_35
                            x       y       z     vdW  Elec       q    Type
                         _______ _______ _______ _____ _____    ______ ____

>  <TORSDO>
F 14

$$$$
=
 OpenBabel11052415353D

 37 39  0  0  1  0  0  0  0  0999 V2000
  181.8980  177.7460  138.3230 O   0  0  0  0  0  0  0  0  0  0  0  0
  183.2220  176.0870  139.1640 O   0  0  0  0  0  1  0  0  0  0  0  0
  181.4050  178.6700  140.7740 C   0  0  1  0  0  3  0  0  0  0  0  0
  183.2270  177.3990  138.6810 C   0  0  2  0  0  0  0  0  0  0  0  0
  181.8080  179.0670  138.3430 O   0  0  0  0  0  0  0  0  0  0  0  0
  181.0280  179.4130  139.4680 C   0  0  2  0  0  3  0  0  0  0  0  0
  183.7910  178.3230  139.7830 C   0  0  0  0  0  2  0  0  0  0  0  0
  180.5920  177.3970  140.9250 C   0  0  0  0  0  1  0  0  0  0  0  0
  182.9000  178.3900  141.0250 C   0  0  1  0  0  3  0  0  0  0  0  0
  181.1010  180.7910  139.6730 O   0  0  0  0  0  0  0  0  0  0  0  0
  181.0320  181.3500  138.3960 C   0  0  0  0  0  1  0  0  0  0  0  0
  184.3290  176.1880  136.9060 O   0  0  0  0  0  1  0  0  0  0  0  0
  184.1220  177.4710  137.4350 C   0  0  2  0  0  3  0  0  0  0  0  0
  188.4330  178.9240  137.8350 O   0  0  0  0  0  1  0  0  0  0  0  0
  186.5110  177.8990  136.6730 C   0  0  2  0  0  3  0  0  0  0  0  0
  187.8390  177.7500  137.3690 C   0  0  0  0  0  0  0  0  0  0  0  0
  188.6750  176.7330  136.9100 O   0  0  0  0  0  1  0  0  0  0  0  0
  185.4400  178.2300  137.6990 C   0  0  2  0  0  3  0  0  0  0  0  0
  186.5870  177.3090  138.0820 C   0  0  1  0  0  3  0  0  0  0  0  0
  183.4790  179.3780  142.0270 C   0  0  0  0  0  2  0  0  0  0  0  0
  183.5500  178.7540  143.3860 C   0  0  0  0  0  0  0  0  0  0  0  0
  182.5420  178.6780  144.0720 O   0  0  0  0  0  0  0  0  0  0  0  0
  185.7270  177.9910  142.8100 O   0  0  0  0  0  1  0  0  0  0  0  0
  184.8480  178.1910  143.8780 C   0  0  1  0  0  3  0  0  0  0  0  0
  185.4640  179.1360  144.8990 C   0  0  0  0  0  2  0  0  0  0  0  0
  185.5260  178.5060  146.2570 C   0  0  0  0  0  0  0  0  0  0  0  0
  184.5880  178.6170  147.0300 O   0  0  0  0  0  0  0  0  0  0  0  0
  186.7570  177.7640  146.6700 C   0  0  0  0  0  2  0  0  0  0  0  0
  187.9680  178.2520  145.8880 C   0  0  0  0  0  2  0  0  0  0  0  0
  188.8050  177.0690  145.4300 C   0  0  0  0  0  2  0  0  0  0  0  0
  190.2200  178.9110  144.4900 C   0  0  0  0  0  1  0  0  0  0  0  0
  189.7630  177.4710  144.3170 C   0  0  2  0  0  3  0  0  0  0  0  0
  188.7350  178.8120  142.1500 Cl  0  0  0  0  0  0  0  0  0  0  0  0
  189.1640  177.2600  142.9200 C   0  0  1  0  0  3  0  0  0  0  0  0
  190.2660  176.8220  140.2860 S   0  0  0  0  0  1  0  0  0  0  0  0
  190.5220  175.3850  142.4610 O   0  0  0  0  0  0  0  0  0  0  0  0
  189.9980  176.3930  142.0110 C   0  0  0  0  0  0  0  0  0  0  0  0
  1  5  1  0  0  0  0
  1  4  1  0  0  0  0
  3  8  1  6  0  0  0
  3  9  1  0  0  0  0
  4  2  1  1  0  0  0
  4  7  1  0  0  0  0
  5  6  1  0  0  0  0
  6 10  1  1  0  0  0
  6  3  1  0  0  0  0
  7  9  1  0  0  0  0
  9 20  1  1  0  0  0
 11 10  1  0  0  0  0
 13 12  1  1  0  0  0
 13  4  1  0  0  0  0
 15 16  1  1  0  0  0
 15 18  1  0  0  0  0
 15 19  1  0  0  0  0
 16 14  1  0  0  0  0
 17 16  1  0  0  0  0
 18 13  1  6  0  0  0
 18 19  1  0  0  0  0
 19 16  1  1  0  0  0
 20 21  1  0  0  0  0
 21 24  1  0  0  0  0
 21 22  2  0  0  0  0
 24 23  1  6  0  0  0
 24 25  1  0  0  0  0
 25 26  1  0  0  0  0
 26 28  1  0  0  0  0
 26 27  2  0  0  0  0
 29 28  1  0  0  0  0
 30 29  1  0  0  0  0
 32 31  1  1  0  0  0
 32 30  1  0  0  0  0
 34 33  1  6  0  0  0
 34 32  1  0  0  0  0
 35 37  1  0  0  0  0
 37 36  2  0  0  0  0
 37 34  1  0  0  0  0
M  END
>  <MODEL>
9

>  <REMARK>
 VINA RESULT:      -6.5      2.776      7.177
  Name = 
  14 active torsions:
  status: ('A' for Active; 'I' for Inactive)
    1  A    between atoms: C_1  and  C_5
    2  A    between atoms: C_1  and  C_36
    3  A    between atoms: O_4  and  C_28
    4  A    between atoms: C_5  and  C_17
    5  A    between atoms: C_7  and  C_27
    6  A    between atoms: C_7  and  C_33
    7  A    between atoms: C_11  and  C_26
    8  A    between atoms: C_11  and  C_33
    9  A    between atoms: C_17  and  C_26
   10  A    between atoms: C_18  and  C_19
   11  A    between atoms: C_18  and  C_35
   12  A    between atoms: C_20  and  C_24
   13  A    between atoms: C_24  and  C_30
   14  A    between atoms: C_27  and  C_35
                            x       y       z     vdW  Elec       q    Type
                         _______ _______ _______ _____ _____    ______ ____

>  <TORSDO>
F 14

$$$$
