=
 OpenBabel11052412253D

 30 35  0  0  1  0  0  0  0  0999 V2000
  184.4890  178.1480  139.1400 C   0  0  2  0  0  3  0  0  0  0  0  0
  180.8210  181.1680  138.6830 S   0  0  0  0  0  1  0  0  0  0  0  0
  183.2080  179.0630  139.1440 C   0  0  1  0  0  0  0  0  0  0  0  0
  185.4550  178.3800  140.3320 C   0  0  0  0  0  2  0  0  0  0  0  0
  182.9790  178.8970  143.0700 C   0  0  0  0  0  2  0  0  0  0  0  0
  180.2900  178.1900  139.3930 C   0  0  1  0  0  3  0  0  0  0  0  0
  183.3740  178.5110  141.6560 C   0  0  2  0  0  3  0  0  0  0  0  0
  185.3430  179.0400  142.7270 O   0  0  0  0  0  0  0  0  0  0  0  0
  180.9010  178.3960  138.0220 C   0  0  2  0  0  0  0  0  0  0  0  0
  181.2310  179.8020  137.5350 C   0  0  1  0  0  0  0  0  0  0  0  0
  184.7410  179.1200  141.4530 C   0  0  1  0  0  3  0  0  0  0  0  0
  182.4260  178.8390  140.4950 C   0  0  2  0  0  3  0  0  0  0  0  0
  180.3410  177.4100  137.0730 C   0  0  0  0  0  3  0  0  0  0  0  0
  179.2380  177.1040  139.1430 C   0  0  0  0  0  2  0  0  0  0  0  0
  184.5670  179.0500  144.9830 C   0  0  0  0  0  2  0  0  0  0  0  0
  184.3350  179.0010  143.6800 C   0  0  0  0  0  0  0  0  0  0  0  0
  183.6410  180.3920  139.1230 O   0  0  0  0  0  1  0  0  0  0  0  0
  181.0550  180.0760  136.0520 C   0  0  0  0  0  1  0  0  0  0  0  0
  182.3690  178.8020  137.8540 C   0  0  1  0  0  3  0  0  0  0  0  0
  179.4160  176.6970  137.7060 C   0  0  0  0  0  3  0  0  0  0  0  0
  181.9250  176.3730  140.1260 C   0  0  0  0  0  1  0  0  0  0  0  0
  181.3410  177.7590  140.4120 C   0  0  2  0  0  3  0  0  0  0  0  0
  184.6740  177.0510  136.7370 C   0  0  1  0  0  3  0  0  0  0  0  0
  185.3560  177.2510  135.5110 O   0  0  0  0  0  0  0  0  0  0  0  0
  184.5960  175.5670  137.0970 C   0  0  0  0  0  1  0  0  0  0  0  0
  187.5860  179.1670  136.1150 C   0  0  0  0  0  1  0  0  0  0  0  0
  186.7110  176.8580  135.6490 C   0  0  0  0  0  2  0  0  0  0  0  0
  185.2780  177.9440  137.8340 C   0  0  2  0  0  3  0  0  0  0  0  0
  187.4690  177.7480  136.6430 C   0  0  2  0  0  3  0  0  0  0  0  0
  186.7780  177.7280  138.0060 C   0  0  0  0  0  2  0  0  0  0  0  0
  1  3  1  0  0  0  0
  1  4  1  1  0  0  0
  3 17  1  6  0  0  0
  3 12  1  0  0  0  0
  5 16  1  0  0  0  0
  6 14  1  6  0  0  0
  6 22  1  0  0  0  0
  7  5  1  1  0  0  0
  8 16  1  0  0  0  0
  9 13  1  6  0  0  0
  9  6  1  0  0  0  0
 10 18  1  6  0  0  0
 10 19  1  0  0  0  0
 10  9  1  0  0  0  0
 10  2  1  0  0  0  0
 11  4  1  6  0  0  0
 11  7  1  0  0  0  0
 11  8  1  0  0  0  0
 12  7  1  0  0  0  0
 13 20  2  0  0  0  0
 16 15  2  0  0  0  0
 19  9  1  0  0  0  0
 19  3  1  0  0  0  0
 20 14  1  0  0  0  0
 21 22  1  0  0  0  0
 22 12  1  0  0  0  0
 23 25  1  0  0  0  0
 23 28  1  0  0  0  0
 24 27  1  0  0  0  0
 24 23  1  0  0  0  0
 26 29  1  0  0  0  0
 27 29  1  0  0  0  0
 28 30  1  0  0  0  0
 28  1  1  0  0  0  0
 29 30  1  0  0  0  0
M  END
>  <MODEL>
1

>  <REMARK>
 VINA RESULT:      -6.6      0.000      0.000
  Name = 
  1 active torsions:
  status: ('A' for Active; 'I' for Inactive)
    1  A    between atoms: C_1  and  C_22
                            x       y       z     vdW  Elec       q    Type
                         _______ _______ _______ _____ _____    ______ ____

>  <TORSDO>
F 1

$$$$
=
 OpenBabel11052412253D

 30 35  0  0  1  0  0  0  0  0999 V2000
  190.7590  176.5910  138.6920 C   0  0  2  0  0  3  0  0  0  0  0  0
  188.5950  173.2960  135.9990 S   0  0  0  0  0  1  0  0  0  0  0  0
  190.1090  175.6010  137.6540 C   0  0  1  0  0  0  0  0  0  0  0  0
  192.3100  176.5860  138.7080 C   0  0  0  0  0  2  0  0  0  0  0  0
  192.9870  176.2770  135.0550 C   0  0  0  0  0  2  0  0  0  0  0  0
  188.3810  176.3010  135.2330 C   0  0  1  0  0  3  0  0  0  0  0  0
  192.0770  176.4950  136.2510 C   0  0  2  0  0  3  0  0  0  0  0  0
  194.1950  176.2480  137.1210 O   0  0  0  0  0  0  0  0  0  0  0  0
  187.7240  175.9540  136.5530 C   0  0  2  0  0  0  0  0  0  0  0  0
  187.7560  174.5210  137.0710 C   0  0  1  0  0  0  0  0  0  0  0  0
  192.8500  175.9580  137.4320 C   0  0  1  0  0  3  0  0  0  0  0  0
  190.6430  175.9500  136.2120 C   0  0  2  0  0  3  0  0  0  0  0  0
  186.4990  176.7640  136.7290 C   0  0  0  0  0  3  0  0  0  0  0  0
  187.3810  177.2690  134.5940 C   0  0  0  0  0  2  0  0  0  0  0  0
  195.4680  176.4890  135.1180 C   0  0  0  0  0  2  0  0  0  0  0  0
  194.3080  176.3470  135.7420 C   0  0  0  0  0  0  0  0  0  0  0  0
  190.5540  174.3130  137.9680 O   0  0  0  0  0  1  0  0  0  0  0  0
  186.5380  174.0390  137.8400 C   0  0  0  0  0  1  0  0  0  0  0  0
  188.5550  175.6290  137.7990 C   0  0  1  0  0  3  0  0  0  0  0  0
  186.3170  177.4910  135.6330 C   0  0  0  0  0  3  0  0  0  0  0  0
  189.6860  178.3060  136.1210 C   0  0  0  0  0  1  0  0  0  0  0  0
  189.7530  176.9340  135.4430 C   0  0  2  0  0  3  0  0  0  0  0  0
  188.7550  177.1540  140.3290 C   0  0  1  0  0  3  0  0  0  0  0  0
  188.3160  176.8430  141.6390 O   0  0  0  0  0  0  0  0  0  0  0  0
  188.5250  178.6280  139.9970 C   0  0  0  0  0  1  0  0  0  0  0  0
  190.6800  175.6260  143.0320 C   0  0  0  0  0  1  0  0  0  0  0  0
  189.1100  177.5370  142.5870 C   0  0  0  0  0  2  0  0  0  0  0  0
  190.2010  176.6710  140.1240 C   0  0  2  0  0  3  0  0  0  0  0  0
  190.5700  177.0680  142.5660 C   0  0  2  0  0  3  0  0  0  0  0  0
  191.1610  177.2340  141.1660 C   0  0  0  0  0  2  0  0  0  0  0  0
  1  4  1  1  0  0  0
  1 28  1  0  0  0  0
  2 10  1  0  0  0  0
  3 19  1  0  0  0  0
  3 17  1  1  0  0  0
  3  1  1  0  0  0  0
  5 16  1  0  0  0  0
  6 14  1  1  0  0  0
  6 22  1  0  0  0  0
  6  9  1  0  0  0  0
  7  5  1  6  0  0  0
  7 11  1  0  0  0  0
  8 11  1  0  0  0  0
  9 13  1  1  0  0  0
  9 10  1  0  0  0  0
  9 19  1  0  0  0  0
 10 19  1  0  0  0  0
 10 18  1  1  0  0  0
 11  4  1  1  0  0  0
 12  7  1  0  0  0  0
 12  3  1  0  0  0  0
 14 20  1  0  0  0  0
 15 16  2  0  0  0  0
 16  8  1  0  0  0  0
 20 13  2  0  0  0  0
 22 21  1  0  0  0  0
 22 12  1  0  0  0  0
 23 24  1  0  0  0  0
 24 27  1  0  0  0  0
 25 23  1  0  0  0  0
 28 23  1  0  0  0  0
 28 30  1  0  0  0  0
 29 27  1  0  0  0  0
 29 26  1  0  0  0  0
 30 29  1  0  0  0  0
M  END
>  <MODEL>
2

>  <REMARK>
 VINA RESULT:      -5.3      5.366      8.891
  Name = 
  1 active torsions:
  status: ('A' for Active; 'I' for Inactive)
    1  A    between atoms: C_1  and  C_22
                            x       y       z     vdW  Elec       q    Type
                         _______ _______ _______ _____ _____    ______ ____

>  <TORSDO>
F 1

$$$$
=
 OpenBabel11052412253D

 30 35  0  0  1  0  0  0  0  0999 V2000
  182.1980  178.4070  139.2180 C   0  0  2  0  0  3  0  0  0  0  0  0
  181.7290  173.8430  137.9000 S   0  0  0  0  0  1  0  0  0  0  0  0
  182.1370  176.9500  138.6260 C   0  0  1  0  0  0  0  0  0  0  0  0
  183.6210  178.8920  139.6010 C   0  0  0  0  0  2  0  0  0  0  0  0
  185.5720  177.4510  136.7700 C   0  0  0  0  0  2  0  0  0  0  0  0
  181.2660  176.1070  135.8210 C   0  0  1  0  0  3  0  0  0  0  0  0
  184.2790  177.8110  137.4800 C   0  0  2  0  0  3  0  0  0  0  0  0
  185.9690  178.5830  138.8410 O   0  0  0  0  0  0  0  0  0  0  0  0
  180.2630  176.0990  136.9560 C   0  0  2  0  0  0  0  0  0  0  0  0
  180.3660  175.0560  138.0620 C   0  0  1  0  0  0  0  0  0  0  0  0
  184.6740  178.0290  138.9210 C   0  0  1  0  0  3  0  0  0  0  0  0
  183.0690  176.8750  137.3560 C   0  0  2  0  0  3  0  0  0  0  0  0
  178.9310  176.4910  136.4470 C   0  0  0  0  0  3  0  0  0  0  0  0
  180.3970  176.3990  134.5940 C   0  0  0  0  0  2  0  0  0  0  0  0
  187.7960  178.4320  137.3140 C   0  0  0  0  0  2  0  0  0  0  0  0
  186.5360  178.1830  137.6400 C   0  0  0  0  0  0  0  0  0  0  0  0
  182.6660  176.0830  139.5880 O   0  0  0  0  0  1  0  0  0  0  0  0
  179.0630  174.5470  138.6530 C   0  0  0  0  0  1  0  0  0  0  0  0
  180.6510  176.5460  138.3700 C   0  0  1  0  0  3  0  0  0  0  0  0
  179.0160  176.6540  135.1320 C   0  0  0  0  0  3  0  0  0  0  0  0
  181.8020  178.5960  135.9760 C   0  0  0  0  0  1  0  0  0  0  0  0
  182.3430  177.1650  136.0370 C   0  0  2  0  0  3  0  0  0  0  0  0
  180.0330  179.7910  139.8590 C   0  0  1  0  0  3  0  0  0  0  0  0
  179.0210  179.8090  140.8490 O   0  0  0  0  0  0  0  0  0  0  0  0
  180.4850  181.2050  139.4950 C   0  0  0  0  0  1  0  0  0  0  0  0
  180.0310  178.0830  143.0880 C   0  0  0  0  0  1  0  0  0  0  0  0
  179.5480  180.3240  142.0610 C   0  0  0  0  0  2  0  0  0  0  0  0
  181.1720  178.8450  140.2780 C   0  0  2  0  0  3  0  0  0  0  0  0
  180.6280  179.4100  142.6530 C   0  0  2  0  0  3  0  0  0  0  0  0
  181.7550  179.1970  141.6420 C   0  0  0  0  0  2  0  0  0  0  0  0
  1  4  1  1  0  0  0
  1 28  1  0  0  0  0
  2 10  1  0  0  0  0
  3  1  1  0  0  0  0
  3 17  1  1  0  0  0
  5 16  1  0  0  0  0
  6 14  1  6  0  0  0
  6 22  1  0  0  0  0
  6  9  1  0  0  0  0
  7  5  1  6  0  0  0
  7 11  1  0  0  0  0
  8 11  1  0  0  0  0
  9 13  1  6  0  0  0
  9 10  1  0  0  0  0
  9 19  1  0  0  0  0
 10 19  1  0  0  0  0
 10 18  1  1  0  0  0
 11  4  1  6  0  0  0
 12  7  1  0  0  0  0
 12  3  1  0  0  0  0
 14 20  1  0  0  0  0
 15 16  2  0  0  0  0
 16  8  1  0  0  0  0
 19  3  1  0  0  0  0
 20 13  2  0  0  0  0
 21 22  1  0  0  0  0
 22 12  1  0  0  0  0
 23 28  1  0  0  0  0
 23 24  1  0  0  0  0
 24 27  1  0  0  0  0
 25 23  1  0  0  0  0
 27 29  1  0  0  0  0
 28 30  1  0  0  0  0
 29 26  1  0  0  0  0
 30 29  1  0  0  0  0
M  END
>  <MODEL>
3

>  <REMARK>
 VINA RESULT:      -5.1      2.576      5.801
  Name = 
  1 active torsions:
  status: ('A' for Active; 'I' for Inactive)
    1  A    between atoms: C_1  and  C_22
                            x       y       z     vdW  Elec       q    Type
                         _______ _______ _______ _____ _____    ______ ____

>  <TORSDO>
F 1

$$$$
=
 OpenBabel11052412253D

 30 35  0  0  1  0  0  0  0  0999 V2000
  184.9640  175.9930  136.9660 C   0  0  2  0  0  3  0  0  0  0  0  0
  180.9310  176.9350  139.3390 S   0  0  0  0  0  1  0  0  0  0  0  0
  183.5470  176.1950  137.6200 C   0  0  1  0  0  0  0  0  0  0  0  0
  185.5190  174.5470  137.0560 C   0  0  0  0  0  2  0  0  0  0  0  0
  182.3860  172.6200  136.4530 C   0  0  0  0  0  2  0  0  0  0  0  0
  180.9450  176.9930  136.2320 C   0  0  1  0  0  3  0  0  0  0  0  0
  183.2010  173.9000  136.5010 C   0  0  2  0  0  3  0  0  0  0  0  0
  184.6600  172.2130  137.0750 O   0  0  0  0  0  0  0  0  0  0  0  0
  181.8140  178.0560  136.8710 C   0  0  2  0  0  0  0  0  0  0  0  0
  181.9210  178.1470  138.3880 C   0  0  1  0  0  0  0  0  0  0  0  0
  184.3960  173.5690  137.3640 C   0  0  1  0  0  3  0  0  0  0  0  0
  182.5250  175.2050  136.9410 C   0  0  2  0  0  3  0  0  0  0  0  0
  181.7550  179.2980  136.0700 C   0  0  0  0  0  3  0  0  0  0  0  0
  180.2700  177.7450  135.0800 C   0  0  0  0  0  2  0  0  0  0  0  0
  183.3630  170.3300  136.3950 C   0  0  0  0  0  2  0  0  0  0  0  0
  183.4830  171.6280  136.6320 C   0  0  0  0  0  0  0  0  0  0  0  0
  183.6510  175.8350  138.9680 O   0  0  0  0  0  1  0  0  0  0  0  0
  182.0630  179.5360  138.9870 C   0  0  0  0  0  1  0  0  0  0  0  0
  183.1420  177.7010  137.5480 C   0  0  1  0  0  3  0  0  0  0  0  0
  180.8920  179.1140  135.0760 C   0  0  0  0  0  3  0  0  0  0  0  0
  182.7180  176.1680  134.5940 C   0  0  0  0  0  1  0  0  0  0  0  0
  181.7760  175.8100  135.7480 C   0  0  2  0  0  3  0  0  0  0  0  0
  186.3010  178.1490  136.2060 C   0  0  1  0  0  3  0  0  0  0  0  0
  187.1130  179.1650  136.7660 O   0  0  0  0  0  0  0  0  0  0  0  0
  186.8390  177.6850  134.8530 C   0  0  0  0  0  1  0  0  0  0  0  0
  187.9040  178.1780  139.4880 C   0  0  0  0  0  1  0  0  0  0  0  0
  188.3950  178.6390  137.0670 C   0  0  0  0  0  2  0  0  0  0  0  0
  186.0810  177.0200  137.2270 C   0  0  2  0  0  3  0  0  0  0  0  0
  188.3340  177.5690  138.1640 C   0  0  2  0  0  3  0  0  0  0  0  0
  187.3900  176.4400  137.7520 C   0  0  0  0  0  2  0  0  0  0  0  0
  1  4  1  1  0  0  0
  1 28  1  0  0  0  0
  1  3  1  0  0  0  0
  3 17  1  1  0  0  0
  5 16  1  0  0  0  0
  6 14  1  6  0  0  0
  6  9  1  0  0  0  0
  7  5  1  1  0  0  0
  7 12  1  0  0  0  0
  7 11  1  0  0  0  0
  8 11  1  0  0  0  0
  9 13  1  6  0  0  0
  9 19  1  0  0  0  0
  9 10  1  0  0  0  0
 10 18  1  1  0  0  0
 10  2  1  0  0  0  0
 11  4  1  6  0  0  0
 12  3  1  0  0  0  0
 15 16  2  0  0  0  0
 16  8  1  0  0  0  0
 19  3  1  0  0  0  0
 19 10  1  0  0  0  0
 20 14  1  0  0  0  0
 20 13  2  0  0  0  0
 21 22  1  0  0  0  0
 22  6  1  0  0  0  0
 22 12  1  0  0  0  0
 23 24  1  0  0  0  0
 23 28  1  0  0  0  0
 24 27  1  0  0  0  0
 25 23  1  0  0  0  0
 27 29  1  0  0  0  0
 28 30  1  0  0  0  0
 29 26  1  0  0  0  0
 30 29  1  0  0  0  0
M  END
>  <MODEL>
4

>  <REMARK>
 VINA RESULT:      -5.0      2.855      5.182
  Name = 
  1 active torsions:
  status: ('A' for Active; 'I' for Inactive)
    1  A    between atoms: C_1  and  C_22
                            x       y       z     vdW  Elec       q    Type
                         _______ _______ _______ _____ _____    ______ ____

>  <TORSDO>
F 1

$$$$
=
 OpenBabel11052412253D

 30 35  0  0  1  0  0  0  0  0999 V2000
  183.4970  178.7490  140.0780 C   0  0  2  0  0  3  0  0  0  0  0  0
  179.0330  177.0630  140.1630 S   0  0  0  0  0  1  0  0  0  0  0  0
  182.0090  178.2570  139.9290 C   0  0  1  0  0  0  0  0  0  0  0  0
  184.5180  178.0080  139.1750 C   0  0  0  0  0  2  0  0  0  0  0  0
  182.4880  177.6590  136.0680 C   0  0  0  0  0  2  0  0  0  0  0  0
  179.6060  179.8530  138.9190 C   0  0  1  0  0  3  0  0  0  0  0  0
  182.7500  178.2020  137.4610 C   0  0  2  0  0  3  0  0  0  0  0  0
  184.5930  176.9230  136.9380 O   0  0  0  0  0  0  0  0  0  0  0  0
  179.8870  179.7720  140.4060 C   0  0  2  0  0  0  0  0  0  0  0  0
  179.6660  178.4640  141.1560 C   0  0  1  0  0  0  0  0  0  0  0  0
  183.7980  177.2860  138.0460 C   0  0  1  0  0  3  0  0  0  0  0  0
  181.5710  178.4070  138.4210 C   0  0  2  0  0  3  0  0  0  0  0  0
  179.5260  181.0520  141.0520 C   0  0  0  0  0  3  0  0  0  0  0  0
  178.9320  181.2200  138.7690 C   0  0  0  0  0  2  0  0  0  0  0  0
  184.2330  176.6640  134.5940 C   0  0  0  0  0  2  0  0  0  0  0  0
  183.8200  177.0480  135.7930 C   0  0  0  0  0  0  0  0  0  0  0  0
  181.9840  176.8940  140.2420 O   0  0  0  0  0  1  0  0  0  0  0  0
  179.1710  178.5670  142.5890 C   0  0  0  0  0  1  0  0  0  0  0  0
  181.1000  179.0090  140.9500 C   0  0  1  0  0  3  0  0  0  0  0  0
  178.9940  181.8500  140.1330 C   0  0  0  0  0  3  0  0  0  0  0  0
  181.8330  180.9350  138.3020 C   0  0  0  0  0  1  0  0  0  0  0  0
  180.8910  179.7440  138.1030 C   0  0  2  0  0  3  0  0  0  0  0  0
  185.5080  179.5640  141.5960 C   0  0  1  0  0  3  0  0  0  0  0  0
  185.7430  180.0260  142.9140 O   0  0  0  0  0  0  0  0  0  0  0  0
  186.6150  178.6210  141.1280 C   0  0  0  0  0  1  0  0  0  0  0  0
  183.2810  179.3260  144.4820 C   0  0  0  0  0  1  0  0  0  0  0  0
  185.6740  178.9380  143.8210 C   0  0  0  0  0  2  0  0  0  0  0  0
  184.0860  178.9880  141.4800 C   0  0  2  0  0  3  0  0  0  0  0  0
  184.2660  178.3340  143.8870 C   0  0  2  0  0  3  0  0  0  0  0  0
  183.8150  177.8860  142.4970 C   0  0  0  0  0  2  0  0  0  0  0  0
  1  4  1  1  0  0  0
  1 28  1  0  0  0  0
  2 10  1  0  0  0  0
  3  1  1  0  0  0  0
  3 17  1  1  0  0  0
  3 19  1  0  0  0  0
  6 14  1  1  0  0  0
  6  9  1  0  0  0  0
  7  5  1  6  0  0  0
  7 11  1  0  0  0  0
  7 12  1  0  0  0  0
  8 11  1  0  0  0  0
  9 19  1  0  0  0  0
  9 13  1  1  0  0  0
  9 10  1  0  0  0  0
 10 18  1  1  0  0  0
 11  4  1  1  0  0  0
 12  3  1  0  0  0  0
 14 20  1  0  0  0  0
 15 16  2  0  0  0  0
 16  5  1  0  0  0  0
 16  8  1  0  0  0  0
 19 10  1  0  0  0  0
 20 13  2  0  0  0  0
 22 21  1  0  0  0  0
 22 12  1  0  0  0  0
 22  6  1  0  0  0  0
 23 24  1  0  0  0  0
 24 27  1  0  0  0  0
 25 23  1  0  0  0  0
 27 29  1  0  0  0  0
 28 23  1  0  0  0  0
 28 30  1  0  0  0  0
 29 26  1  0  0  0  0
 30 29  1  0  0  0  0
M  END
>  <MODEL>
5

>  <REMARK>
 VINA RESULT:      -4.9      2.154      5.622
  Name = 
  1 active torsions:
  status: ('A' for Active; 'I' for Inactive)
    1  A    between atoms: C_1  and  C_22
                            x       y       z     vdW  Elec       q    Type
                         _______ _______ _______ _____ _____    ______ ____

>  <TORSDO>
F 1

$$$$
=
 OpenBabel11052412253D

 30 35  0  0  1  0  0  0  0  0999 V2000
  182.0720  179.1970  138.3380 C   0  0  2  0  0  3  0  0  0  0  0  0
  183.4160  174.6670  137.6630 S   0  0  0  0  0  1  0  0  0  0  0  0
  182.6620  177.7420  138.2290 C   0  0  1  0  0  0  0  0  0  0  0  0
  181.5430  179.5770  139.7460 C   0  0  0  0  0  2  0  0  0  0  0  0
  184.1480  177.9610  141.8670 C   0  0  0  0  0  2  0  0  0  0  0  0
  185.5400  176.9350  137.5940 C   0  0  1  0  0  3  0  0  0  0  0  0
  183.5790  178.4250  140.5380 C   0  0  2  0  0  3  0  0  0  0  0  0
  182.0500  179.0840  142.1300 O   0  0  0  0  0  0  0  0  0  0  0  0
  184.5170  177.0160  136.4800 C   0  0  2  0  0  0  0  0  0  0  0  0
  183.4030  175.9810  136.3870 C   0  0  1  0  0  0  0  0  0  0  0  0
  182.1050  178.6300  140.7950 C   0  0  1  0  0  3  0  0  0  0  0  0
  183.8270  177.5820  139.2800 C   0  0  2  0  0  3  0  0  0  0  0  0
  185.1640  177.5010  135.2420 C   0  0  0  0  0  3  0  0  0  0  0  0
  186.8530  177.2780  136.8830 C   0  0  0  0  0  2  0  0  0  0  0  0
  183.3760  178.7780  144.0900 C   0  0  0  0  0  2  0  0  0  0  0  0
  183.1840  178.6280  142.7880 C   0  0  0  0  0  0  0  0  0  0  0  0
  181.6460  176.8490  138.5870 O   0  0  0  0  0  1  0  0  0  0  0  0
  182.9500  175.5780  134.9940 C   0  0  0  0  0  1  0  0  0  0  0  0
  183.0720  177.4480  136.7520 C   0  0  1  0  0  3  0  0  0  0  0  0
  186.4640  177.6430  135.4770 C   0  0  0  0  0  3  0  0  0  0  0  0
  185.3380  179.3790  138.3000 C   0  0  0  0  0  1  0  0  0  0  0  0
  185.2150  177.9110  138.7210 C   0  0  2  0  0  3  0  0  0  0  0  0
  181.1800  181.2160  136.8750 C   0  0  1  0  0  3  0  0  0  0  0  0
  180.5090  181.4430  135.6490 O   0  0  0  0  0  0  0  0  0  0  0  0
  180.6790  182.1580  137.9690 C   0  0  0  0  0  1  0  0  0  0  0  0
  179.3530  178.7920  134.8420 C   0  0  0  0  0  1  0  0  0  0  0  0
  179.1370  181.1110  135.7870 C   0  0  0  0  0  2  0  0  0  0  0  0
  181.1270  179.7230  137.2430 C   0  0  2  0  0  3  0  0  0  0  0  0
  178.9320  179.6130  136.0490 C   0  0  2  0  0  3  0  0  0  0  0  0
  179.7020  179.1830  137.2970 C   0  0  0  0  0  2  0  0  0  0  0  0
  1  4  1  1  0  0  0
  3  1  1  0  0  0  0
  3 17  1  1  0  0  0
  3 12  1  0  0  0  0
  5 16  1  0  0  0  0
  6 14  1  6  0  0  0
  6 22  1  0  0  0  0
  7 11  1  0  0  0  0
  7  5  1  1  0  0  0
  8 16  1  0  0  0  0
  9 13  1  6  0  0  0
  9 19  1  0  0  0  0
  9  6  1  0  0  0  0
 10 18  1  6  0  0  0
 10  9  1  0  0  0  0
 10 19  1  0  0  0  0
 10  2  1  0  0  0  0
 11  4  1  6  0  0  0
 11  8  1  0  0  0  0
 12  7  1  0  0  0  0
 13 20  2  0  0  0  0
 16 15  2  0  0  0  0
 19  3  1  0  0  0  0
 20 14  1  0  0  0  0
 21 22  1  0  0  0  0
 22 12  1  0  0  0  0
 23 28  1  0  0  0  0
 23 25  1  0  0  0  0
 24 27  1  0  0  0  0
 24 23  1  0  0  0  0
 26 29  1  0  0  0  0
 27 29  1  0  0  0  0
 28 30  1  0  0  0  0
 28  1  1  0  0  0  0
 29 30  1  0  0  0  0
M  END
>  <MODEL>
6

>  <REMARK>
 VINA RESULT:      -4.7      2.280      5.289
  Name = 
  1 active torsions:
  status: ('A' for Active; 'I' for Inactive)
    1  A    between atoms: C_1  and  C_22
                            x       y       z     vdW  Elec       q    Type
                         _______ _______ _______ _____ _____    ______ ____

>  <TORSDO>
F 1

$$$$
=
 OpenBabel11052412253D

 30 35  0  0  1  0  0  0  0  0999 V2000
  183.3840  175.4140  137.0160 C   0  0  2  0  0  3  0  0  0  0  0  0
  181.0660  179.4920  136.1300 S   0  0  0  0  0  1  0  0  0  0  0  0
  182.7220  176.8340  136.8630 C   0  0  1  0  0  0  0  0  0  0  0  0
  184.8860  175.3540  136.6320 C   0  0  0  0  0  2  0  0  0  0  0  0
  186.0340  178.6130  138.0310 C   0  0  0  0  0  2  0  0  0  0  0  0
  181.5420  178.5920  139.0670 C   0  0  1  0  0  3  0  0  0  0  0  0
  185.0120  177.5070  137.8360 C   0  0  2  0  0  3  0  0  0  0  0  0
  186.8900  176.8260  136.6890 O   0  0  0  0  0  0  0  0  0  0  0  0
  180.6400  177.6660  138.2780 C   0  0  2  0  0  0  0  0  0  0  0  0
  180.3230  177.9660  136.8180 C   0  0  1  0  0  0  0  0  0  0  0  0
  185.4820  176.7530  136.6140 C   0  0  1  0  0  3  0  0  0  0  0  0
  183.5230  177.8680  137.7450 C   0  0  2  0  0  3  0  0  0  0  0  0
  179.5790  177.1330  139.1590 C   0  0  0  0  0  3  0  0  0  0  0  0
  180.8520  178.6660  140.4320 C   0  0  0  0  0  2  0  0  0  0  0  0
  188.4720  178.3720  137.5820 C   0  0  0  0  0  2  0  0  0  0  0  0
  187.2260  177.9490  137.4310 C   0  0  0  0  0  0  0  0  0  0  0  0
  182.8630  177.2220  135.5270 O   0  0  0  0  0  1  0  0  0  0  0  0
  178.9340  177.5990  136.3250 C   0  0  0  0  0  1  0  0  0  0  0  0
  181.1980  176.7440  137.1870 C   0  0  1  0  0  3  0  0  0  0  0  0
  179.7040  177.6970  140.3550 C   0  0  0  0  0  3  0  0  0  0  0  0
  183.0540  176.7520  139.9830 C   0  0  0  0  0  1  0  0  0  0  0  0
  182.9620  178.0410  139.1610 C   0  0  2  0  0  3  0  0  0  0  0  0
  182.7900  172.8470  137.2790 C   0  0  1  0  0  3  0  0  0  0  0  0
  181.7940  171.9250  136.8720 O   0  0  0  0  0  0  0  0  0  0  0  0
  184.1850  172.2260  137.2180 C   0  0  0  0  0  1  0  0  0  0  0  0
  180.2890  173.2690  134.6500 C   0  0  0  0  0  1  0  0  0  0  0  0
  181.9700  171.6070  135.5020 C   0  0  0  0  0  2  0  0  0  0  0  0
  182.6420  174.1660  136.5020 C   0  0  2  0  0  3  0  0  0  0  0  0
  181.7400  172.8230  134.5960 C   0  0  2  0  0  3  0  0  0  0  0  0
  182.6760  173.9650  134.9910 C   0  0  0  0  0  2  0  0  0  0  0  0
  1  4  1  6  0  0  0
  2 10  1  0  0  0  0
  3 17  1  6  0  0  0
  3  1  1  0  0  0  0
  3 19  1  0  0  0  0
  3 12  1  0  0  0  0
  6 22  1  0  0  0  0
  6 14  1  1  0  0  0
  7  5  1  6  0  0  0
  8 16  1  0  0  0  0
  9  6  1  0  0  0  0
  9 13  1  1  0  0  0
 10 18  1  6  0  0  0
 10 19  1  0  0  0  0
 10  9  1  0  0  0  0
 11  4  1  1  0  0  0
 11  8  1  0  0  0  0
 11  7  1  0  0  0  0
 12  7  1  0  0  0  0
 12 22  1  0  0  0  0
 13 20  2  0  0  0  0
 16 15  2  0  0  0  0
 16  5  1  0  0  0  0
 19  9  1  0  0  0  0
 20 14  1  0  0  0  0
 22 21  1  0  0  0  0
 24 23  1  0  0  0  0
 25 23  1  0  0  0  0
 27 24  1  0  0  0  0
 28  1  1  0  0  0  0
 28 23  1  0  0  0  0
 29 26  1  0  0  0  0
 29 30  1  0  0  0  0
 29 27  1  0  0  0  0
 30 28  1  0  0  0  0
M  END
>  <MODEL>
7

>  <REMARK>
 VINA RESULT:      -4.4      2.582      4.915
  Name = 
  1 active torsions:
  status: ('A' for Active; 'I' for Inactive)
    1  A    between atoms: C_1  and  C_22
                            x       y       z     vdW  Elec       q    Type
                         _______ _______ _______ _____ _____    ______ ____

>  <TORSDO>
F 1

$$$$
=
 OpenBabel11052412253D

 30 35  0  0  1  0  0  0  0  0999 V2000
  183.0090  177.8230  138.3870 C   0  0  2  0  0  3  0  0  0  0  0  0
  185.7530  176.4000  134.7500 S   0  0  0  0  0  1  0  0  0  0  0  0
  183.7540  177.2900  137.1080 C   0  0  1  0  0  0  0  0  0  0  0  0
  182.0530  179.0180  138.1290 C   0  0  0  0  0  2  0  0  0  0  0  0
  180.6010  177.9830  134.8560 C   0  0  0  0  0  2  0  0  0  0  0  0
  183.5060  174.5330  135.8120 C   0  0  1  0  0  3  0  0  0  0  0  0
  181.4210  177.7430  136.1110 C   0  0  2  0  0  3  0  0  0  0  0  0
  180.5780  179.8760  136.3200 O   0  0  0  0  0  0  0  0  0  0  0  0
  184.6110  174.7980  136.8140 C   0  0  2  0  0  0  0  0  0  0  0  0
  185.7780  175.7060  136.4450 C   0  0  1  0  0  0  0  0  0  0  0  0
  181.7250  179.1220  136.6480 C   0  0  1  0  0  3  0  0  0  0  0  0
  182.6830  176.8730  136.0280 C   0  0  2  0  0  3  0  0  0  0  0  0
  184.8600  173.5800  137.6150 C   0  0  0  0  0  3  0  0  0  0  0  0
  183.2250  173.0390  135.9940 C   0  0  0  0  0  2  0  0  0  0  0  0
  178.9320  179.8130  134.5950 C   0  0  0  0  0  2  0  0  0  0  0  0
  179.9660  179.2790  135.2270 C   0  0  0  0  0  0  0  0  0  0  0  0
  184.4940  178.3530  136.5790 O   0  0  0  0  0  1  0  0  0  0  0  0
  187.1370  175.3470  137.0190 C   0  0  0  0  0  1  0  0  0  0  0  0
  184.7500  176.1570  137.5100 C   0  0  1  0  0  3  0  0  0  0  0  0
  184.0850  172.6070  137.1500 C   0  0  0  0  0  3  0  0  0  0  0  0
  181.5860  175.0430  137.4130 C   0  0  0  0  0  1  0  0  0  0  0  0
  182.2790  175.3960  136.0940 C   0  0  2  0  0  3  0  0  0  0  0  0
  183.1420  177.5760  141.0200 C   0  0  1  0  0  3  0  0  0  0  0  0
  184.1140  177.5230  142.0490 O   0  0  0  0  0  0  0  0  0  0  0  0
  181.9250  178.3980  141.4430 C   0  0  0  0  0  1  0  0  0  0  0  0
  186.6640  178.5230  140.8200 C   0  0  0  0  0  1  0  0  0  0  0  0
  184.6390  178.8210  142.2770 C   0  0  0  0  0  2  0  0  0  0  0  0
  183.7890  178.0240  139.6980 C   0  0  2  0  0  3  0  0  0  0  0  0
  185.4130  179.3490  141.0630 C   0  0  2  0  0  3  0  0  0  0  0  0
  184.5170  179.3580  139.8250 C   0  0  0  0  0  2  0  0  0  0  0  0
  1  4  1  6  0  0  0
  1 28  1  0  0  0  0
  2 10  1  0  0  0  0
  3 17  1  6  0  0  0
  3 19  1  0  0  0  0
  3  1  1  0  0  0  0
  5 16  1  0  0  0  0
  6 14  1  1  0  0  0
  6 22  1  0  0  0  0
  6  9  1  0  0  0  0
  7  5  1  6  0  0  0
  7 11  1  0  0  0  0
  8 11  1  0  0  0  0
  9 19  1  0  0  0  0
  9 13  1  1  0  0  0
 10  9  1  0  0  0  0
 10 18  1  1  0  0  0
 10 19  1  0  0  0  0
 11  4  1  1  0  0  0
 12 22  1  0  0  0  0
 12  7  1  0  0  0  0
 12  3  1  0  0  0  0
 14 20  1  0  0  0  0
 15 16  2  0  0  0  0
 16  8  1  0  0  0  0
 20 13  2  0  0  0  0
 22 21  1  0  0  0  0
 23 25  1  0  0  0  0
 23 24  1  0  0  0  0
 24 27  1  0  0  0  0
 26 29  1  0  0  0  0
 28 30  1  0  0  0  0
 28 23  1  0  0  0  0
 29 27  1  0  0  0  0
 30 29  1  0  0  0  0
M  END
>  <MODEL>
8

>  <REMARK>
 VINA RESULT:      -4.2      2.420      6.074
  Name = 
  1 active torsions:
  status: ('A' for Active; 'I' for Inactive)
    1  A    between atoms: C_1  and  C_22
                            x       y       z     vdW  Elec       q    Type
                         _______ _______ _______ _____ _____    ______ ____

>  <TORSDO>
F 1

$$$$
=
 OpenBabel11052412253D

 30 35  0  0  1  0  0  0  0  0999 V2000
  182.4650  176.3400  137.4850 C   0  0  2  0  0  3  0  0  0  0  0  0
  181.4070  180.9710  137.9590 S   0  0  0  0  0  1  0  0  0  0  0  0
  182.2730  177.8800  137.7470 C   0  0  1  0  0  0  0  0  0  0  0  0
  183.6970  175.9790  136.6140 C   0  0  0  0  0  2  0  0  0  0  0  0
  186.1650  178.4340  137.9480 C   0  0  0  0  0  2  0  0  0  0  0  0
  182.3850  179.3490  140.4240 C   0  0  1  0  0  3  0  0  0  0  0  0
  184.8340  177.7030  137.9690 C   0  0  2  0  0  3  0  0  0  0  0  0
  185.9930  176.8310  136.1800 O   0  0  0  0  0  0  0  0  0  0  0  0
  181.0520  178.8880  139.8730 C   0  0  2  0  0  0  0  0  0  0  0  0
  180.4460  179.5770  138.6560 C   0  0  1  0  0  0  0  0  0  0  0  0
  184.6750  177.1440  136.5750 C   0  0  1  0  0  3  0  0  0  0  0  0
  183.5750  178.4480  138.4310 C   0  0  2  0  0  3  0  0  0  0  0  0
  180.1720  178.4670  140.9840 C   0  0  0  0  0  3  0  0  0  0  0  0
  182.1700  179.2950  141.9400 C   0  0  0  0  0  2  0  0  0  0  0  0
  188.1680  177.6750  136.6770 C   0  0  0  0  0  2  0  0  0  0  0  0
  186.8630  177.6340  136.9020 C   0  0  0  0  0  0  0  0  0  0  0  0
  182.1440  178.5050  136.5020 O   0  0  0  0  0  1  0  0  0  0  0  0
  178.9330  179.7010  138.6170 C   0  0  0  0  0  1  0  0  0  0  0  0
  180.9560  178.1190  138.5500 C   0  0  1  0  0  3  0  0  0  0  0  0
  180.8030  178.6990  142.1300 C   0  0  0  0  0  3  0  0  0  0  0  0
  183.4310  177.0250  140.5350 C   0  0  0  0  0  1  0  0  0  0  0  0
  183.5220  178.4430  139.9630 C   0  0  2  0  0  3  0  0  0  0  0  0
  180.0750  175.3660  138.0800 C   0  0  1  0  0  3  0  0  0  0  0  0
  178.9400  174.8260  137.4280 O   0  0  0  0  0  0  0  0  0  0  0  0
  180.3920  174.6100  139.3700 C   0  0  0  0  0  1  0  0  0  0  0  0
  179.8350  174.1530  134.6430 C   0  0  0  0  0  1  0  0  0  0  0  0
  179.2230  173.5060  136.9930 C   0  0  0  0  0  2  0  0  0  0  0  0
  181.2530  175.4740  137.0970 C   0  0  2  0  0  3  0  0  0  0  0  0
  180.3150  173.4780  135.9160 C   0  0  2  0  0  3  0  0  0  0  0  0
  181.5900  174.1410  136.4370 C   0  0  0  0  0  2  0  0  0  0  0  0
  1  4  1  6  0  0  0
  1  3  1  0  0  0  0
  2 10  1  0  0  0  0
  3 17  1  6  0  0  0
  3 12  1  0  0  0  0
  3 19  1  0  0  0  0
  6 14  1  1  0  0  0
  7  5  1  6  0  0  0
  7 12  1  0  0  0  0
  8 11  1  0  0  0  0
  8 16  1  0  0  0  0
  9  6  1  0  0  0  0
  9 13  1  1  0  0  0
 10 18  1  1  0  0  0
 10  9  1  0  0  0  0
 11  4  1  1  0  0  0
 11  7  1  0  0  0  0
 12 22  1  0  0  0  0
 13 20  2  0  0  0  0
 14 20  1  0  0  0  0
 15 16  2  0  0  0  0
 16  5  1  0  0  0  0
 19 10  1  0  0  0  0
 19  9  1  0  0  0  0
 22  6  1  0  0  0  0
 22 21  1  0  0  0  0
 23 25  1  0  0  0  0
 24 23  1  0  0  0  0
 26 29  1  0  0  0  0
 27 24  1  0  0  0  0
 28  1  1  0  0  0  0
 28 23  1  0  0  0  0
 29 30  1  0  0  0  0
 29 27  1  0  0  0  0
 30 28  1  0  0  0  0
M  END
>  <MODEL>
9

>  <REMARK>
 VINA RESULT:      -4.0      2.327      5.206
  Name = 
  1 active torsions:
  status: ('A' for Active; 'I' for Inactive)
    1  A    between atoms: C_1  and  C_22
                            x       y       z     vdW  Elec       q    Type
                         _______ _______ _______ _____ _____    ______ ____

>  <TORSDO>
F 1

$$$$
