=
 OpenBabel11052415273D

 37 40  0  0  1  0  0  0  0  0999 V2000
  182.6130  177.7460  137.2410 C   0  0  0  0  0  3  0  0  0  0  0  0
  182.7520  173.3570  136.8870 C   0  0  0  0  0  3  0  0  0  0  0  0
  183.7650  177.5290  137.8590 C   0  0  0  0  0  0  0  0  0  0  0  0
  183.0360  174.7280  136.9010 C   0  0  0  0  0  0  0  0  0  0  0  0
  182.0540  175.4940  136.4100 C   0  0  0  0  0  3  0  0  0  0  0  0
  184.3590  175.1720  137.2160 C   0  0  0  0  0  0  0  0  0  0  0  0
  185.0560  172.8210  137.3140 C   0  0  0  0  0  3  0  0  0  0  0  0
  182.1100  176.9070  136.2130 N   0  0  0  0  0  0  0  0  0  0  0  0
  185.3530  174.1800  137.3610 C   0  0  0  0  0  3  0  0  0  0  0  0
  184.7290  176.4660  137.4220 C   0  0  0  0  0  0  0  0  0  0  0  0
  183.7410  172.4020  137.1100 C   0  0  0  0  0  0  0  0  0  0  0  0
  183.3930  171.0490  137.0940 O   0  0  0  0  0  0  0  0  0  0  0  0
  182.9530  170.3820  135.9190 C   0  0  0  0  0  1  0  0  0  0  0  0
  179.7890  177.6090  135.8890 C   0  0  0  0  0  1  0  0  0  0  0  0
  181.1710  177.4900  135.2670 C   0  0  0  0  0  2  0  0  0  0  0  0
  184.0000  178.3970  139.0660 C   0  0  1  0  0  3  0  0  0  0  0  0
  184.1020  180.7790  138.8570 O   0  0  0  0  0  1  0  0  0  0  0  0
  183.2240  179.7080  139.0150 C   0  0  0  0  0  2  0  0  0  0  0  0
  183.7940  177.6570  140.3760 C   0  0  0  0  0  2  0  0  0  0  0  0
  184.7790  178.0470  141.3210 O   0  0  0  0  0  0  0  0  0  0  0  0
  183.1790  178.6820  142.9130 C   0  0  0  0  0  3  0  0  0  0  0  0
  184.4530  178.3900  142.6350 C   0  0  0  0  0  0  0  0  0  0  0  0
  185.5200  178.4240  143.7070 C   0  0  0  0  0  2  0  0  0  0  0  0
  185.7790  178.8710  146.0380 O   0  0  0  0  0  0  0  0  0  0  0  0
  183.6020  179.1020  145.2490 N   0  0  0  0  0  0  0  0  0  0  0  0
  184.9910  178.8080  145.0600 C   0  0  0  0  0  0  0  0  0  0  0  0
  182.7520  179.0500  144.2700 C   0  0  0  0  0  3  0  0  0  0  0  0
  186.1970  176.8240  137.2210 C   0  0  1  0  0  3  0  0  0  0  0  0
  186.6320  176.8120  135.7580 C   0  0  0  0  0  0  0  0  0  0  0  0
  187.5070  175.7120  135.1890 C   0  0  0  0  0  1  0  0  0  0  0  0
  185.6220  177.3790  134.7880 C   0  0  0  0  0  2  0  0  0  0  0  0
  186.8670  178.1760  135.1510 C   0  0  0  0  0  2  0  0  0  0  0  0
  186.7190  178.0200  138.0030 C   0  0  0  0  0  2  0  0  0  0  0  0
  187.9780  177.6480  138.7600 C   0  0  0  0  0  2  0  0  0  0  0  0
  189.1600  178.3750  138.1560 C   0  0  0  0  0  2  0  0  0  0  0  0
  189.9370  176.0310  138.0740 C   0  0  0  0  0  1  0  0  0  0  0  0
  190.0290  177.3870  137.4080 C   0  0  0  0  0  2  0  0  0  0  0  0
  1  3  2  0  0  0  0
  2  4  1  0  0  0  0
  2 11  2  0  0  0  0
  3 16  1  0  0  0  0
  4  6  1  0  0  0  0
  5  4  2  0  0  0  0
  6  9  1  0  0  0  0
  6 10  2  0  0  0  0
  7  9  2  0  0  0  0
  8  5  1  0  0  0  0
  8  1  1  0  0  0  0
 10  3  1  0  0  0  0
 11  7  1  0  0  0  0
 12 11  1  0  0  0  0
 13 12  1  0  0  0  0
 15 14  1  0  0  0  0
 15  8  1  0  0  0  0
 16 18  1  6  0  0  0
 16 19  1  0  0  0  0
 17 18  1  0  0  0  0
 19 20  1  0  0  0  0
 20 22  1  0  0  0  0
 21 27  1  0  0  0  0
 22 21  2  0  0  0  0
 22 23  1  0  0  0  0
 23 26  1  0  0  0  0
 26 25  1  0  0  0  0
 26 24  2  0  0  0  0
 27 25  2  0  0  0  0
 28 10  1  0  0  0  0
 28 33  1  6  0  0  0
 29 28  1  0  0  0  0
 30 29  1  0  0  0  0
 31 32  1  0  0  0  0
 31 29  1  0  0  0  0
 32 29  1  0  0  0  0
 33 34  1  0  0  0  0
 35 34  1  0  0  0  0
 37 36  1  0  0  0  0
 37 35  1  0  0  0  0
M  END
>  <MODEL>
1

>  <REMARK>
 VINA RESULT:      -5.8      0.000      0.000
  Name = 
  13 active torsions:
  status: ('A' for Active; 'I' for Inactive)
    1  A    between atoms: C_1  and  C_36
    2  A    between atoms: O_3  and  C_32
    3  A    between atoms: C_6  and  O_31
    4  A    between atoms: C_10  and  C_14
    5  A    between atoms: C_14  and  C_27
    6  A    between atoms: C_14  and  C_37
    7  A    between atoms: C_17  and  C_26
    8  A    between atoms: C_17  and  C_33
    9  A    between atoms: N_24  and  C_28
   10  A    between atoms: C_26  and  C_34
   11  A    between atoms: C_29  and  C_36
   12  A    between atoms: O_31  and  C_37
   13  A    between atoms: C_33  and  C_36
                            x       y       z     vdW  Elec       q    Type
                         _______ _______ _______ _____ _____    ______ ____

>  <TORSDO>
F 13

$$$$
=
 OpenBabel11052415273D

 37 40  0  0  1  0  0  0  0  0999 V2000
  181.3410  178.8460  142.3110 C   0  0  0  0  0  3  0  0  0  0  0  0
  179.9460  175.2290  140.2200 C   0  0  0  0  0  3  0  0  0  0  0  0
  182.3500  178.6990  141.4640 C   0  0  0  0  0  0  0  0  0  0  0  0
  180.4570  176.4860  140.5660 C   0  0  0  0  0  0  0  0  0  0  0  0
  179.7810  177.0990  141.5450 C   0  0  0  0  0  3  0  0  0  0  0  0
  181.4680  177.0850  139.7510 C   0  0  0  0  0  0  0  0  0  0  0  0
  181.2590  175.1890  138.2070 C   0  0  0  0  0  3  0  0  0  0  0  0
  180.0170  178.4220  142.0260 N   0  0  0  0  0  0  0  0  0  0  0  0
  181.8000  176.4250  138.5470 C   0  0  0  0  0  3  0  0  0  0  0  0
  182.1610  178.2170  140.0570 C   0  0  0  0  0  0  0  0  0  0  0  0
  180.3500  174.5650  139.0640 C   0  0  0  0  0  0  0  0  0  0  0  0
  179.8130  173.3080  138.7790 O   0  0  0  0  0  0  0  0  0  0  0  0
  180.3920  172.4220  137.8300 C   0  0  0  0  0  1  0  0  0  0  0  0
  179.1840  179.0650  144.2350 C   0  0  0  0  0  1  0  0  0  0  0  0
  178.9310  179.0810  142.7360 C   0  0  0  0  0  2  0  0  0  0  0  0
  183.7040  179.0030  142.0470 C   0  0  1  0  0  3  0  0  0  0  0  0
  183.5720  178.6230  144.4070 O   0  0  0  0  0  1  0  0  0  0  0  0
  183.6270  179.6240  143.4370 C   0  0  0  0  0  2  0  0  0  0  0  0
  184.6480  177.8140  141.9990 C   0  0  0  0  0  2  0  0  0  0  0  0
  185.9960  178.2580  141.9700 O   0  0  0  0  0  0  0  0  0  0  0  0
  186.7970  177.8890  144.1420 C   0  0  0  0  0  3  0  0  0  0  0  0
  186.9690  177.7370  142.8260 C   0  0  0  0  0  0  0  0  0  0  0  0
  188.1800  177.0210  142.2670 C   0  0  0  0  0  2  0  0  0  0  0  0
  190.1630  175.9090  142.9950 O   0  0  0  0  0  0  0  0  0  0  0  0
  188.8370  176.7410  144.7170 N   0  0  0  0  0  0  0  0  0  0  0  0
  189.1180  176.5240  143.3300 C   0  0  0  0  0  0  0  0  0  0  0  0
  187.7720  177.3690  145.1100 C   0  0  0  0  0  3  0  0  0  0  0  0
  182.7850  178.9980  138.9070 C   0  0  1  0  0  3  0  0  0  0  0  0
  181.9820  180.2310  138.5000 C   0  0  0  0  0  0  0  0  0  0  0  0
  182.5040  181.6380  138.7200 C   0  0  0  0  0  1  0  0  0  0  0  0
  181.1360  180.0600  137.2610 C   0  0  0  0  0  2  0  0  0  0  0  0
  180.4840  180.0900  138.6370 C   0  0  0  0  0  2  0  0  0  0  0  0
  184.2850  179.2460  138.9880 C   0  0  0  0  0  2  0  0  0  0  0  0
  185.0390  178.1740  138.2270 C   0  0  0  0  0  2  0  0  0  0  0  0
  186.5130  178.2680  138.5570 C   0  0  0  0  0  2  0  0  0  0  0  0
  188.4360  178.7860  137.0930 C   0  0  0  0  0  1  0  0  0  0  0  0
  187.3250  177.7960  137.3690 C   0  0  0  0  0  2  0  0  0  0  0  0
  2  4  1  0  0  0  0
  3 16  1  0  0  0  0
  3  1  2  0  0  0  0
  4  5  2  0  0  0  0
  5  8  1  0  0  0  0
  6 10  2  0  0  0  0
  6  4  1  0  0  0  0
  7  9  2  0  0  0  0
  7 11  1  0  0  0  0
  8  1  1  0  0  0  0
  8 15  1  0  0  0  0
  9  6  1  0  0  0  0
 10  3  1  0  0  0  0
 11  2  2  0  0  0  0
 12 11  1  0  0  0  0
 13 12  1  0  0  0  0
 15 14  1  0  0  0  0
 16 19  1  1  0  0  0
 16 18  1  0  0  0  0
 18 17  1  0  0  0  0
 20 19  1  0  0  0  0
 20 22  1  0  0  0  0
 21 27  1  0  0  0  0
 22 21  2  0  0  0  0
 23 22  1  0  0  0  0
 23 26  1  0  0  0  0
 24 26  2  0  0  0  0
 25 27  2  0  0  0  0
 26 25  1  0  0  0  0
 28 33  1  1  0  0  0
 28 10  1  0  0  0  0
 29 32  1  0  0  0  0
 29 30  1  0  0  0  0
 29 28  1  0  0  0  0
 31 29  1  0  0  0  0
 31 32  1  0  0  0  0
 34 35  1  0  0  0  0
 34 33  1  0  0  0  0
 36 37  1  0  0  0  0
 37 35  1  0  0  0  0
M  END
>  <MODEL>
2

>  <REMARK>
 VINA RESULT:      -5.5      2.921      4.998
  Name = 
  13 active torsions:
  status: ('A' for Active; 'I' for Inactive)
    1  A    between atoms: C_1  and  C_36
    2  A    between atoms: O_3  and  C_32
    3  A    between atoms: C_6  and  O_31
    4  A    between atoms: C_10  and  C_14
    5  A    between atoms: C_14  and  C_27
    6  A    between atoms: C_14  and  C_37
    7  A    between atoms: C_17  and  C_26
    8  A    between atoms: C_17  and  C_33
    9  A    between atoms: N_24  and  C_28
   10  A    between atoms: C_26  and  C_34
   11  A    between atoms: C_29  and  C_36
   12  A    between atoms: O_31  and  C_37
   13  A    between atoms: C_33  and  C_36
                            x       y       z     vdW  Elec       q    Type
                         _______ _______ _______ _____ _____    ______ ____

>  <TORSDO>
F 13

$$$$
=
 OpenBabel11052415273D

 37 40  0  0  1  0  0  0  0  0999 V2000
  183.6640  179.4250  138.7510 C   0  0  0  0  0  3  0  0  0  0  0  0
  180.3960  177.0870  140.5560 C   0  0  0  0  0  3  0  0  0  0  0  0
  184.1450  178.2080  138.5400 C   0  0  0  0  0  0  0  0  0  0  0  0
  181.4060  177.5980  139.7310 C   0  0  0  0  0  0  0  0  0  0  0  0
  181.4240  178.9340  139.6550 C   0  0  0  0  0  3  0  0  0  0  0  0
  182.1620  176.7060  138.9070 C   0  0  0  0  0  0  0  0  0  0  0  0
  180.7210  174.8750  139.6740 C   0  0  0  0  0  3  0  0  0  0  0  0
  182.2760  179.7150  138.8160 N   0  0  0  0  0  0  0  0  0  0  0  0
  181.7470  175.3570  138.8670 C   0  0  0  0  0  3  0  0  0  0  0  0
  183.2680  177.0430  138.1880 C   0  0  0  0  0  0  0  0  0  0  0  0
  180.0590  175.7350  140.5520 C   0  0  0  0  0  0  0  0  0  0  0  0
  179.0500  175.2840  141.4050 O   0  0  0  0  0  0  0  0  0  0  0  0
  178.9310  173.9240  141.8030 C   0  0  0  0  0  1  0  0  0  0  0  0
  180.3420  181.1880  138.5440 C   0  0  0  0  0  1  0  0  0  0  0  0
  181.8570  181.0750  138.5150 C   0  0  0  0  0  2  0  0  0  0  0  0
  185.6310  178.0810  138.7360 C   0  0  1  0  0  3  0  0  0  0  0  0
  187.2630  177.7900  137.0100 O   0  0  0  0  0  1  0  0  0  0  0  0
  186.4370  178.7330  137.6190 C   0  0  0  0  0  2  0  0  0  0  0  0
  186.0860  178.5330  140.1130 C   0  0  0  0  0  2  0  0  0  0  0  0
  187.5040  178.5340  140.1870 O   0  0  0  0  0  0  0  0  0  0  0  0
  189.3960  177.3600  140.9170 C   0  0  0  0  0  3  0  0  0  0  0  0
  188.1960  177.8710  141.2020 C   0  0  0  0  0  0  0  0  0  0  0  0
  187.5930  177.7430  142.5850 C   0  0  0  0  0  2  0  0  0  0  0  0
  188.0910  176.8330  144.7360 O   0  0  0  0  0  0  0  0  0  0  0  0
  189.7500  176.4960  143.1400 N   0  0  0  0  0  0  0  0  0  0  0  0
  188.4760  177.0050  143.5510 C   0  0  0  0  0  0  0  0  0  0  0  0
  190.1910  176.6500  141.9290 C   0  0  0  0  0  3  0  0  0  0  0  0
  183.6290  176.1700  136.9920 C   0  0  1  0  0  3  0  0  0  0  0  0
  183.4200  176.8610  135.6470 C   0  0  0  0  0  0  0  0  0  0  0  0
  184.5810  177.2290  134.7440 C   0  0  0  0  0  1  0  0  0  0  0  0
  182.1550  176.4700  134.9190 C   0  0  0  0  0  2  0  0  0  0  0  0
  182.2590  177.8270  135.6000 C   0  0  0  0  0  2  0  0  0  0  0  0
  184.9360  175.3970  137.0830 C   0  0  0  0  0  2  0  0  0  0  0  0
  184.7940  174.0380  136.4260 C   0  0  0  0  0  2  0  0  0  0  0  0
  184.3160  173.0320  137.4500 C   0  0  0  0  0  2  0  0  0  0  0  0
  184.2120  171.1320  135.8740 C   0  0  0  0  0  1  0  0  0  0  0  0
  183.3990  172.0310  136.7810 C   0  0  0  0  0  2  0  0  0  0  0  0
  1  8  1  0  0  0  0
  3 16  1  0  0  0  0
  3  1  2  0  0  0  0
  4  2  1  0  0  0  0
  5  4  2  0  0  0  0
  6  4  1  0  0  0  0
  7 11  1  0  0  0  0
  8  5  1  0  0  0  0
  9  6  1  0  0  0  0
  9  7  2  0  0  0  0
 10  3  1  0  0  0  0
 10  6  2  0  0  0  0
 11  2  2  0  0  0  0
 11 12  1  0  0  0  0
 12 13  1  0  0  0  0
 15 14  1  0  0  0  0
 15  8  1  0  0  0  0
 16 18  1  6  0  0  0
 16 19  1  0  0  0  0
 17 18  1  0  0  0  0
 19 20  1  0  0  0  0
 20 22  1  0  0  0  0
 21 22  2  0  0  0  0
 21 27  1  0  0  0  0
 22 23  1  0  0  0  0
 23 26  1  0  0  0  0
 25 26  1  0  0  0  0
 26 24  2  0  0  0  0
 27 25  2  0  0  0  0
 28 33  1  1  0  0  0
 28 10  1  0  0  0  0
 29 28  1  0  0  0  0
 30 29  1  0  0  0  0
 31 32  1  0  0  0  0
 31 29  1  0  0  0  0
 32 29  1  0  0  0  0
 34 33  1  0  0  0  0
 34 35  1  0  0  0  0
 36 37  1  0  0  0  0
 37 35  1  0  0  0  0
M  END
>  <MODEL>
3

>  <REMARK>
 VINA RESULT:      -5.1      2.995      4.955
  Name = 
  13 active torsions:
  status: ('A' for Active; 'I' for Inactive)
    1  A    between atoms: C_1  and  C_36
    2  A    between atoms: O_3  and  C_32
    3  A    between atoms: C_6  and  O_31
    4  A    between atoms: C_10  and  C_14
    5  A    between atoms: C_14  and  C_27
    6  A    between atoms: C_14  and  C_37
    7  A    between atoms: C_17  and  C_26
    8  A    between atoms: C_17  and  C_33
    9  A    between atoms: N_24  and  C_28
   10  A    between atoms: C_26  and  C_34
   11  A    between atoms: C_29  and  C_36
   12  A    between atoms: O_31  and  C_37
   13  A    between atoms: C_33  and  C_36
                            x       y       z     vdW  Elec       q    Type
                         _______ _______ _______ _____ _____    ______ ____

>  <TORSDO>
F 13

$$$$
=
 OpenBabel11052415273D

 37 40  0  0  1  0  0  0  0  0999 V2000
  183.9880  177.6290  138.4130 C   0  0  0  0  0  3  0  0  0  0  0  0
  185.2760  178.3120  142.5700 C   0  0  0  0  0  3  0  0  0  0  0  0
  182.8000  177.6050  139.0000 C   0  0  0  0  0  0  0  0  0  0  0  0
  184.6300  178.3300  141.3280 C   0  0  0  0  0  0  0  0  0  0  0  0
  185.4610  178.2790  140.2800 C   0  0  0  0  0  3  0  0  0  0  0  0
  183.2280  178.6060  141.2670 C   0  0  0  0  0  0  0  0  0  0  0  0
  183.2610  178.9910  143.6900 C   0  0  0  0  0  3  0  0  0  0  0  0
  185.0860  178.3820  138.9060 N   0  0  0  0  0  0  0  0  0  0  0  0
  182.5930  178.9880  142.4680 C   0  0  0  0  0  3  0  0  0  0  0  0
  182.4500  178.4970  140.1540 C   0  0  0  0  0  0  0  0  0  0  0  0
  184.6050  178.6180  143.7510 C   0  0  0  0  0  0  0  0  0  0  0  0
  185.3010  178.5710  144.9610 O   0  0  0  0  0  0  0  0  0  0  0  0
  186.4460  177.7520  145.1580 C   0  0  0  0  0  1  0  0  0  0  0  0
  186.9500  177.5640  137.5490 C   0  0  0  0  0  1  0  0  0  0  0  0
  186.1180  178.7690  137.9560 C   0  0  0  0  0  2  0  0  0  0  0  0
  181.8530  176.5710  138.4520 C   0  0  1  0  0  3  0  0  0  0  0  0
  180.1390  177.0510  136.8510 O   0  0  0  0  0  1  0  0  0  0  0  0
  181.5050  176.8030  136.9860 C   0  0  0  0  0  2  0  0  0  0  0  0
  182.3140  175.1490  138.7160 C   0  0  0  0  0  2  0  0  0  0  0  0
  182.3470  174.4100  137.5040 O   0  0  0  0  0  0  0  0  0  0  0  0
  183.3440  172.4140  136.7860 C   0  0  0  0  0  3  0  0  0  0  0  0
  183.4810  173.7070  137.0930 C   0  0  0  0  0  0  0  0  0  0  0  0
  184.8230  174.4000  137.0000 C   0  0  0  0  0  2  0  0  0  0  0  0
  187.0940  173.9510  136.4170 O   0  0  0  0  0  0  0  0  0  0  0  0
  185.6720  172.1180  136.2340 N   0  0  0  0  0  0  0  0  0  0  0  0
  185.9290  173.4940  136.5380 C   0  0  0  0  0  0  0  0  0  0  0  0
  184.4870  171.6030  136.3430 C   0  0  0  0  0  3  0  0  0  0  0  0
  181.1580  179.3050  140.1100 C   0  0  1  0  0  3  0  0  0  0  0  0
  181.2030  180.4740  139.1290 C   0  0  0  0  0  0  0  0  0  0  0  0
  182.5060  181.1350  138.7270 C   0  0  0  0  0  1  0  0  0  0  0  0
  180.1550  180.4330  138.0420 C   0  0  0  0  0  2  0  0  0  0  0  0
  180.0200  181.4110  139.2000 C   0  0  0  0  0  2  0  0  0  0  0  0
  179.8610  178.5110  140.0550 C   0  0  0  0  0  2  0  0  0  0  0  0
  179.2300  178.4340  141.4310 C   0  0  0  0  0  2  0  0  0  0  0  0
  179.5660  179.6890  142.2080 C   0  0  0  0  0  2  0  0  0  0  0  0
  179.6480  178.5730  144.4110 C   0  0  0  0  0  1  0  0  0  0  0  0
  178.9310  179.6150  143.5800 C   0  0  0  0  0  2  0  0  0  0  0  0
  1  8  1  0  0  0  0
  1  3  2  0  0  0  0
  2 11  2  0  0  0  0
  3 10  1  0  0  0  0
  4  2  1  0  0  0  0
  5  4  2  0  0  0  0
  6  4  1  0  0  0  0
  6  9  1  0  0  0  0
  7 11  1  0  0  0  0
  8  5  1  0  0  0  0
  9  7  2  0  0  0  0
 10  6  2  0  0  0  0
 11 12  1  0  0  0  0
 12 13  1  0  0  0  0
 14 15  1  0  0  0  0
 15  8  1  0  0  0  0
 16 18  1  6  0  0  0
 16 19  1  0  0  0  0
 16  3  1  0  0  0  0
 17 18  1  0  0  0  0
 20 19  1  0  0  0  0
 21 22  2  0  0  0  0
 22 20  1  0  0  0  0
 23 22  1  0  0  0  0
 24 26  2  0  0  0  0
 25 27  2  0  0  0  0
 25 26  1  0  0  0  0
 26 23  1  0  0  0  0
 27 21  1  0  0  0  0
 28 33  1  6  0  0  0
 28 10  1  0  0  0  0
 29 32  1  0  0  0  0
 29 28  1  0  0  0  0
 30 29  1  0  0  0  0
 31 29  1  0  0  0  0
 31 32  1  0  0  0  0
 33 34  1  0  0  0  0
 34 35  1  0  0  0  0
 35 37  1  0  0  0  0
 37 36  1  0  0  0  0
M  END
>  <MODEL>
4

>  <REMARK>
 VINA RESULT:      -5.0      2.683      8.064
  Name = 
  13 active torsions:
  status: ('A' for Active; 'I' for Inactive)
    1  A    between atoms: C_1  and  C_36
    2  A    between atoms: O_3  and  C_32
    3  A    between atoms: C_6  and  O_31
    4  A    between atoms: C_10  and  C_14
    5  A    between atoms: C_14  and  C_27
    6  A    between atoms: C_14  and  C_37
    7  A    between atoms: C_17  and  C_26
    8  A    between atoms: C_17  and  C_33
    9  A    between atoms: N_24  and  C_28
   10  A    between atoms: C_26  and  C_34
   11  A    between atoms: C_29  and  C_36
   12  A    between atoms: O_31  and  C_37
   13  A    between atoms: C_33  and  C_36
                            x       y       z     vdW  Elec       q    Type
                         _______ _______ _______ _____ _____    ______ ____

>  <TORSDO>
F 13

$$$$
=
 OpenBabel11052415273D

 37 40  0  0  1  0  0  0  0  0999 V2000
  189.4500  177.3410  138.0710 C   0  0  0  0  0  3  0  0  0  0  0  0
  186.5880  174.1210  137.1560 C   0  0  0  0  0  3  0  0  0  0  0  0
  190.2710  176.3050  138.1740 C   0  0  0  0  0  0  0  0  0  0  0  0
  187.6980  174.9710  137.2290 C   0  0  0  0  0  0  0  0  0  0  0  0
  187.3880  176.2720  137.2450 C   0  0  0  0  0  3  0  0  0  0  0  0
  189.0130  174.4290  137.0700 C   0  0  0  0  0  0  0  0  0  0  0  0
  187.9900  172.2470  136.6070 C   0  0  0  0  0  3  0  0  0  0  0  0
  188.3170  177.3560  137.2160 N   0  0  0  0  0  0  0  0  0  0  0  0
  189.1090  173.0690  136.7030 C   0  0  0  0  0  3  0  0  0  0  0  0
  190.1760  175.1070  137.2770 C   0  0  0  0  0  0  0  0  0  0  0  0
  186.7200  172.7640  136.8680 C   0  0  0  0  0  0  0  0  0  0  0  0
  185.5760  171.9650  136.8200 O   0  0  0  0  0  0  0  0  0  0  0  0
  184.2610  172.5020  136.8720 C   0  0  0  0  0  1  0  0  0  0  0  0
  187.1890  178.5450  135.4000 C   0  0  0  0  0  1  0  0  0  0  0  0
  187.8230  178.6520  136.7770 C   0  0  0  0  0  2  0  0  0  0  0  0
  191.2670  176.4060  139.2980 C   0  0  1  0  0  3  0  0  0  0  0  0
  193.4100  177.2230  139.9820 O   0  0  0  0  0  1  0  0  0  0  0  0
  192.5660  177.0860  138.8800 C   0  0  0  0  0  2  0  0  0  0  0  0
  190.6770  177.0160  140.5570 C   0  0  0  0  0  2  0  0  0  0  0  0
  190.6090  176.0440  141.5890 O   0  0  0  0  0  0  0  0  0  0  0  0
  189.1730  176.7470  143.3030 C   0  0  0  0  0  3  0  0  0  0  0  0
  190.4040  176.3910  142.9260 C   0  0  0  0  0  0  0  0  0  0  0  0
  191.5520  176.3610  143.9120 C   0  0  0  0  0  2  0  0  0  0  0  0
  192.0140  176.7740  146.2170 O   0  0  0  0  0  0  0  0  0  0  0  0
  189.7980  177.1250  145.6000 N   0  0  0  0  0  0  0  0  0  0  0  0
  191.1500  176.7600  145.3030 C   0  0  0  0  0  0  0  0  0  0  0  0
  188.8730  177.1260  144.6910 C   0  0  0  0  0  3  0  0  0  0  0  0
  191.4290  174.5930  136.5790 C   0  0  1  0  0  3  0  0  0  0  0  0
  191.8670  175.4560  135.3980 C   0  0  0  0  0  0  0  0  0  0  0  0
  190.8790  176.2790  134.5950 C   0  0  0  0  0  1  0  0  0  0  0  0
  193.2380  176.0760  135.5350 C   0  0  0  0  0  2  0  0  0  0  0  0
  193.0190  174.9000  134.5940 C   0  0  0  0  0  2  0  0  0  0  0  0
  192.5790  174.1600  137.4770 C   0  0  0  0  0  2  0  0  0  0  0  0
  193.2280  172.9020  136.9340 C   0  0  0  0  0  2  0  0  0  0  0  0
  194.5920  172.7290  137.5660 C   0  0  0  0  0  2  0  0  0  0  0  0
  196.8180  172.7120  136.4930 C   0  0  0  0  0  1  0  0  0  0  0  0
  195.6060  173.5610  136.8110 C   0  0  0  0  0  2  0  0  0  0  0  0
  1  3  2  0  0  0  0
  2  4  1  0  0  0  0
  3 16  1  0  0  0  0
  4  5  2  0  0  0  0
  6  4  1  0  0  0  0
  6 10  2  0  0  0  0
  7  9  2  0  0  0  0
  7 11  1  0  0  0  0
  8  5  1  0  0  0  0
  8  1  1  0  0  0  0
  9  6  1  0  0  0  0
 10  3  1  0  0  0  0
 11  2  2  0  0  0  0
 12 11  1  0  0  0  0
 12 13  1  0  0  0  0
 14 15  1  0  0  0  0
 15  8  1  0  0  0  0
 16 18  1  6  0  0  0
 16 19  1  0  0  0  0
 18 17  1  0  0  0  0
 19 20  1  0  0  0  0
 20 22  1  0  0  0  0
 21 27  1  0  0  0  0
 22 21  2  0  0  0  0
 22 23  1  0  0  0  0
 23 26  1  0  0  0  0
 26 25  1  0  0  0  0
 26 24  2  0  0  0  0
 27 25  2  0  0  0  0
 28 10  1  0  0  0  0
 28 33  1  1  0  0  0
 29 31  1  0  0  0  0
 29 28  1  0  0  0  0
 30 29  1  0  0  0  0
 32 29  1  0  0  0  0
 32 31  1  0  0  0  0
 34 33  1  0  0  0  0
 34 35  1  0  0  0  0
 36 37  1  0  0  0  0
 37 35  1  0  0  0  0
M  END
>  <MODEL>
5

>  <REMARK>
 VINA RESULT:      -5.0      4.251      6.334
  Name = 
  13 active torsions:
  status: ('A' for Active; 'I' for Inactive)
    1  A    between atoms: C_1  and  C_36
    2  A    between atoms: O_3  and  C_32
    3  A    between atoms: C_6  and  O_31
    4  A    between atoms: C_10  and  C_14
    5  A    between atoms: C_14  and  C_27
    6  A    between atoms: C_14  and  C_37
    7  A    between atoms: C_17  and  C_26
    8  A    between atoms: C_17  and  C_33
    9  A    between atoms: N_24  and  C_28
   10  A    between atoms: C_26  and  C_34
   11  A    between atoms: C_29  and  C_36
   12  A    between atoms: O_31  and  C_37
   13  A    between atoms: C_33  and  C_36
                            x       y       z     vdW  Elec       q    Type
                         _______ _______ _______ _____ _____    ______ ____

>  <TORSDO>
F 13

$$$$
=
 OpenBabel11052415273D

 37 40  0  0  1  0  0  0  0  0999 V2000
  181.5270  179.2090  141.6970 C   0  0  0  0  0  3  0  0  0  0  0  0
  185.4680  178.6370  139.8140 C   0  0  0  0  0  3  0  0  0  0  0  0
  181.1360  179.1060  140.4340 C   0  0  0  0  0  0  0  0  0  0  0  0
  184.1260  178.5600  140.2060 C   0  0  0  0  0  0  0  0  0  0  0  0
  183.9330  178.7040  141.5220 C   0  0  0  0  0  3  0  0  0  0  0  0
  183.1380  178.1390  139.2610 C   0  0  0  0  0  0  0  0  0  0  0  0
  184.9420  177.7440  137.6450 C   0  0  0  0  0  3  0  0  0  0  0  0
  182.6880  178.5710  142.2070 N   0  0  0  0  0  0  0  0  0  0  0  0
  183.5990  177.6860  138.0060 C   0  0  0  0  0  3  0  0  0  0  0  0
  181.7910  178.1740  139.4590 C   0  0  0  0  0  0  0  0  0  0  0  0
  185.8830  178.2550  138.5400 C   0  0  0  0  0  0  0  0  0  0  0  0
  187.2350  178.3660  138.2040 O   0  0  0  0  0  0  0  0  0  0  0  0
  188.2790  177.9290  139.0640 C   0  0  0  0  0  1  0  0  0  0  0  0
  183.5540  179.3570  144.3560 C   0  0  0  0  0  1  0  0  0  0  0  0
  182.7330  178.3000  143.6360 C   0  0  0  0  0  2  0  0  0  0  0  0
  180.0190  180.0390  140.0480 C   0  0  1  0  0  3  0  0  0  0  0  0
  178.9810  181.5420  141.5940 O   0  0  0  0  0  1  0  0  0  0  0  0
  178.9860  180.2190  141.1550 C   0  0  0  0  0  2  0  0  0  0  0  0
  180.5200  181.3660  139.5060 C   0  0  0  0  0  2  0  0  0  0  0  0
  180.7540  181.2680  138.1090 O   0  0  0  0  0  0  0  0  0  0  0  0
  180.7690  182.1580  135.9400 C   0  0  0  0  0  3  0  0  0  0  0  0
  180.5590  182.3490  137.2460 C   0  0  0  0  0  0  0  0  0  0  0  0
  180.1200  183.6930  137.7850 C   0  0  0  0  0  2  0  0  0  0  0  0
  179.5920  185.8970  137.0350 O   0  0  0  0  0  0  0  0  0  0  0  0
  180.2080  184.4250  135.3410 N   0  0  0  0  0  0  0  0  0  0  0  0
  179.9560  184.7360  136.7160 C   0  0  0  0  0  0  0  0  0  0  0  0
  180.5850  183.2420  134.9650 C   0  0  0  0  0  3  0  0  0  0  0  0
  180.9270  177.2370  138.6230 C   0  0  1  0  0  3  0  0  0  0  0  0
  180.4170  176.0250  139.3980 C   0  0  0  0  0  0  0  0  0  0  0  0
  179.4360  176.1610  140.5460 C   0  0  0  0  0  1  0  0  0  0  0  0
  180.2570  174.7660  138.5780 C   0  0  0  0  0  2  0  0  0  0  0  0
  181.4160  174.9020  139.5560 C   0  0  0  0  0  2  0  0  0  0  0  0
  179.8700  177.8880  137.7440 C   0  0  0  0  0  2  0  0  0  0  0  0
  180.4300  178.1710  136.3640 C   0  0  0  0  0  2  0  0  0  0  0  0
  180.3590  176.9130  135.5270 C   0  0  0  0  0  2  0  0  0  0  0  0
  182.1790  175.2410  135.5180 C   0  0  0  0  0  1  0  0  0  0  0  0
  181.7370  176.5880  134.9890 C   0  0  0  0  0  2  0  0  0  0  0  0
  1  8  1  0  0  0  0
  2  4  1  0  0  0  0
  3  1  2  0  0  0  0
  4  5  2  0  0  0  0
  5  8  1  0  0  0  0
  6 10  2  0  0  0  0
  6  4  1  0  0  0  0
  7  9  2  0  0  0  0
  7 11  1  0  0  0  0
  8 15  1  0  0  0  0
  9  6  1  0  0  0  0
 10  3  1  0  0  0  0
 11  2  2  0  0  0  0
 12 11  1  0  0  0  0
 12 13  1  0  0  0  0
 15 14  1  0  0  0  0
 16 19  1  1  0  0  0
 16  3  1  0  0  0  0
 16 18  1  0  0  0  0
 18 17  1  0  0  0  0
 20 19  1  0  0  0  0
 21 22  2  0  0  0  0
 22 23  1  0  0  0  0
 22 20  1  0  0  0  0
 25 26  1  0  0  0  0
 26 24  2  0  0  0  0
 26 23  1  0  0  0  0
 27 25  2  0  0  0  0
 27 21  1  0  0  0  0
 28 33  1  1  0  0  0
 28 29  1  0  0  0  0
 28 10  1  0  0  0  0
 29 32  1  0  0  0  0
 29 30  1  0  0  0  0
 31 29  1  0  0  0  0
 31 32  1  0  0  0  0
 34 33  1  0  0  0  0
 35 34  1  0  0  0  0
 37 36  1  0  0  0  0
 37 35  1  0  0  0  0
M  END
>  <MODEL>
6

>  <REMARK>
 VINA RESULT:      -4.9      3.519      7.632
  Name = 
  13 active torsions:
  status: ('A' for Active; 'I' for Inactive)
    1  A    between atoms: C_1  and  C_36
    2  A    between atoms: O_3  and  C_32
    3  A    between atoms: C_6  and  O_31
    4  A    between atoms: C_10  and  C_14
    5  A    between atoms: C_14  and  C_27
    6  A    between atoms: C_14  and  C_37
    7  A    between atoms: C_17  and  C_26
    8  A    between atoms: C_17  and  C_33
    9  A    between atoms: N_24  and  C_28
   10  A    between atoms: C_26  and  C_34
   11  A    between atoms: C_29  and  C_36
   12  A    between atoms: O_31  and  C_37
   13  A    between atoms: C_33  and  C_36
                            x       y       z     vdW  Elec       q    Type
                         _______ _______ _______ _____ _____    ______ ____

>  <TORSDO>
F 13

$$$$
=
 OpenBabel11052415273D

 37 40  0  0  1  0  0  0  0  0999 V2000
  184.1480  177.4860  138.2600 C   0  0  0  0  0  3  0  0  0  0  0  0
  185.2550  178.5360  142.3920 C   0  0  0  0  0  3  0  0  0  0  0  0
  182.9620  177.3300  138.8330 C   0  0  0  0  0  0  0  0  0  0  0  0
  184.6350  178.4070  141.1430 C   0  0  0  0  0  0  0  0  0  0  0  0
  185.4850  178.4170  140.1090 C   0  0  0  0  0  3  0  0  0  0  0  0
  183.2100  178.4890  141.0510 C   0  0  0  0  0  0  0  0  0  0  0  0
  183.1460  178.9920  143.4510 C   0  0  0  0  0  3  0  0  0  0  0  0
  185.1250  178.4020  138.7270 N   0  0  0  0  0  0  0  0  0  0  0  0
  182.5080  178.8400  142.2240 C   0  0  0  0  0  3  0  0  0  0  0  0
  182.4750  178.2230  139.9360 C   0  0  0  0  0  0  0  0  0  0  0  0
  184.5260  178.8060  143.5480 C   0  0  0  0  0  0  0  0  0  0  0  0
  185.2000  178.9120  144.7670 O   0  0  0  0  0  0  0  0  0  0  0  0
  186.0670  177.8980  145.2570 C   0  0  0  0  0  1  0  0  0  0  0  0
  186.4610  177.7860  136.7730 C   0  0  0  0  0  1  0  0  0  0  0  0
  186.1140  178.8780  137.7720 C   0  0  0  0  0  2  0  0  0  0  0  0
  182.1730  176.1540  138.3260 C   0  0  1  0  0  3  0  0  0  0  0  0
  180.2640  175.9880  136.8920 O   0  0  0  0  0  1  0  0  0  0  0  0
  181.6020  176.3780  136.9310 C   0  0  0  0  0  2  0  0  0  0  0  0
  182.9320  174.8430  138.4340 C   0  0  0  0  0  2  0  0  0  0  0  0
  182.9980  174.2080  137.1650 O   0  0  0  0  0  0  0  0  0  0  0  0
  184.3320  173.6120  135.3330 C   0  0  0  0  0  3  0  0  0  0  0  0
  184.1880  173.6820  136.6590 C   0  0  0  0  0  0  0  0  0  0  0  0
  185.2780  173.2080  137.5960 C   0  0  0  0  0  2  0  0  0  0  0  0
  187.4660  172.2530  137.5470 O   0  0  0  0  0  0  0  0  0  0  0  0
  186.5390  172.6460  135.4490 N   0  0  0  0  0  0  0  0  0  0  0  0
  186.4870  172.6760  136.8800 C   0  0  0  0  0  0  0  0  0  0  0  0
  185.5540  173.0720  134.7190 C   0  0  0  0  0  3  0  0  0  0  0  0
  181.0880  178.8460  139.8360 C   0  0  1  0  0  3  0  0  0  0  0  0
  181.0180  180.0270  138.8700 C   0  0  0  0  0  0  0  0  0  0  0  0
  182.1630  181.0100  138.7210 C   0  0  0  0  0  1  0  0  0  0  0  0
  180.2400  179.7680  137.6020 C   0  0  0  0  0  2  0  0  0  0  0  0
  179.6450  180.6340  138.7030 C   0  0  0  0  0  2  0  0  0  0  0  0
  179.9170  177.8840  139.7070 C   0  0  0  0  0  2  0  0  0  0  0  0
  179.8220  176.9990  140.9340 C   0  0  0  0  0  2  0  0  0  0  0  0
  178.9320  175.8130  140.6300 C   0  0  0  0  0  2  0  0  0  0  0  0
  179.3050  173.6950  141.8470 C   0  0  0  0  0  1  0  0  0  0  0  0
  179.7540  174.5430  140.6760 C   0  0  0  0  0  2  0  0  0  0  0  0
  1  8  1  0  0  0  0
  1  3  2  0  0  0  0
  2 11  2  0  0  0  0
  3 10  1  0  0  0  0
  4  2  1  0  0  0  0
  5  4  2  0  0  0  0
  6  4  1  0  0  0  0
  6  9  1  0  0  0  0
  7 11  1  0  0  0  0
  8  5  1  0  0  0  0
  9  7  2  0  0  0  0
 10  6  2  0  0  0  0
 11 12  1  0  0  0  0
 12 13  1  0  0  0  0
 14 15  1  0  0  0  0
 15  8  1  0  0  0  0
 16 18  1  6  0  0  0
 16 19  1  0  0  0  0
 16  3  1  0  0  0  0
 17 18  1  0  0  0  0
 20 19  1  0  0  0  0
 21 22  2  0  0  0  0
 22 20  1  0  0  0  0
 22 23  1  0  0  0  0
 25 26  1  0  0  0  0
 26 24  2  0  0  0  0
 26 23  1  0  0  0  0
 27 21  1  0  0  0  0
 27 25  2  0  0  0  0
 28 33  1  6  0  0  0
 28 10  1  0  0  0  0
 29 28  1  0  0  0  0
 30 29  1  0  0  0  0
 31 32  1  0  0  0  0
 31 29  1  0  0  0  0
 32 29  1  0  0  0  0
 33 34  1  0  0  0  0
 35 37  1  0  0  0  0
 35 34  1  0  0  0  0
 37 36  1  0  0  0  0
M  END
>  <MODEL>
7

>  <REMARK>
 VINA RESULT:      -4.9      2.921      7.992
  Name = 
  13 active torsions:
  status: ('A' for Active; 'I' for Inactive)
    1  A    between atoms: C_1  and  C_36
    2  A    between atoms: O_3  and  C_32
    3  A    between atoms: C_6  and  O_31
    4  A    between atoms: C_10  and  C_14
    5  A    between atoms: C_14  and  C_27
    6  A    between atoms: C_14  and  C_37
    7  A    between atoms: C_17  and  C_26
    8  A    between atoms: C_17  and  C_33
    9  A    between atoms: N_24  and  C_28
   10  A    between atoms: C_26  and  C_34
   11  A    between atoms: C_29  and  C_36
   12  A    between atoms: O_31  and  C_37
   13  A    between atoms: C_33  and  C_36
                            x       y       z     vdW  Elec       q    Type
                         _______ _______ _______ _____ _____    ______ ____

>  <TORSDO>
F 13

$$$$
=
 OpenBabel11052415273D

 37 40  0  0  1  0  0  0  0  0999 V2000
  189.6650  174.8230  136.6190 C   0  0  0  0  0  3  0  0  0  0  0  0
  190.6280  176.6570  140.5070 C   0  0  0  0  0  3  0  0  0  0  0  0
  188.4670  175.3090  136.9170 C   0  0  0  0  0  0  0  0  0  0  0  0
  190.1610  176.3720  139.2180 C   0  0  0  0  0  0  0  0  0  0  0  0
  191.0470  175.7360  138.4440 C   0  0  0  0  0  3  0  0  0  0  0  0
  188.9240  176.9400  138.7750 C   0  0  0  0  0  0  0  0  0  0  0  0
  188.8030  178.1730  140.8930 C   0  0  0  0  0  3  0  0  0  0  0  0
  190.8770  175.4130  137.0640 N   0  0  0  0  0  0  0  0  0  0  0  0
  188.3060  177.8820  139.6260 C   0  0  0  0  0  3  0  0  0  0  0  0
  188.2790  176.6210  137.6190 C   0  0  0  0  0  0  0  0  0  0  0  0
  189.9540  177.5330  141.3550 C   0  0  0  0  0  0  0  0  0  0  0  0
  190.4640  177.7680  142.6340 O   0  0  0  0  0  0  0  0  0  0  0  0
  189.6400  178.1190  143.7380 C   0  0  0  0  0  1  0  0  0  0  0  0
  193.2730  175.8710  136.8860 C   0  0  0  0  0  1  0  0  0  0  0  0
  192.0770  175.1560  136.2820 C   0  0  0  0  0  2  0  0  0  0  0  0
  187.3190  174.4110  136.5430 C   0  0  1  0  0  3  0  0  0  0  0  0
  185.9350  174.5540  134.5950 O   0  0  0  0  0  1  0  0  0  0  0  0
  187.2050  174.1860  135.0400 C   0  0  0  0  0  2  0  0  0  0  0  0
  187.3100  173.1080  137.3220 C   0  0  0  0  0  2  0  0  0  0  0  0
  186.0970  172.9780  138.0490 O   0  0  0  0  0  0  0  0  0  0  0  0
  184.6610  171.8690  136.5660 C   0  0  0  0  0  3  0  0  0  0  0  0
  184.8570  172.8810  137.4140 C   0  0  0  0  0  0  0  0  0  0  0  0
  183.7720  173.9010  137.6880 C   0  0  0  0  0  2  0  0  0  0  0  0
  181.5260  174.4160  137.0650 O   0  0  0  0  0  0  0  0  0  0  0  0
  182.4010  172.5210  136.0360 N   0  0  0  0  0  0  0  0  0  0  0  0
  182.5070  173.6400  136.9230 C   0  0  0  0  0  0  0  0  0  0  0  0
  183.3850  171.6940  135.8580 C   0  0  0  0  0  3  0  0  0  0  0  0
  187.3070  177.6440  137.0440 C   0  0  1  0  0  3  0  0  0  0  0  0
  187.6210  178.0420  135.6040 C   0  0  0  0  0  0  0  0  0  0  0  0
  189.0140  177.9110  135.0200 C   0  0  0  0  0  1  0  0  0  0  0  0
  186.5000  177.8040  134.6180 C   0  0  0  0  0  2  0  0  0  0  0  0
  186.8290  179.2170  135.0790 C   0  0  0  0  0  2  0  0  0  0  0  0
  185.8280  177.3960  137.2990 C   0  0  0  0  0  2  0  0  0  0  0  0
  185.2900  178.3970  138.3030 C   0  0  0  0  0  2  0  0  0  0  0  0
  183.7820  178.2850  138.3650 C   0  0  0  0  0  2  0  0  0  0  0  0
  184.4380  179.1410  140.5880 C   0  0  0  0  0  1  0  0  0  0  0  0
  183.2800  178.9420  139.6320 C   0  0  0  0  0  2  0  0  0  0  0  0
  1  3  2  0  0  0  0
  1  8  1  0  0  0  0
  2 11  2  0  0  0  0
  3 10  1  0  0  0  0
  4  2  1  0  0  0  0
  5  4  2  0  0  0  0
  6  4  1  0  0  0  0
  6  9  1  0  0  0  0
  7 11  1  0  0  0  0
  8  5  1  0  0  0  0
  9  7  2  0  0  0  0
 10  6  2  0  0  0  0
 11 12  1  0  0  0  0
 12 13  1  0  0  0  0
 15 14  1  0  0  0  0
 15  8  1  0  0  0  0
 16 18  1  6  0  0  0
 16  3  1  0  0  0  0
 16 19  1  0  0  0  0
 17 18  1  0  0  0  0
 19 20  1  0  0  0  0
 21 22  2  0  0  0  0
 22 23  1  0  0  0  0
 22 20  1  0  0  0  0
 25 26  1  0  0  0  0
 26 24  2  0  0  0  0
 26 23  1  0  0  0  0
 27 25  2  0  0  0  0
 27 21  1  0  0  0  0
 28 33  1  6  0  0  0
 28 10  1  0  0  0  0
 29 28  1  0  0  0  0
 30 29  1  0  0  0  0
 31 32  1  0  0  0  0
 31 29  1  0  0  0  0
 32 29  1  0  0  0  0
 33 34  1  0  0  0  0
 34 35  1  0  0  0  0
 35 37  1  0  0  0  0
 37 36  1  0  0  0  0
M  END
>  <MODEL>
8

>  <REMARK>
 VINA RESULT:      -4.6      3.365      7.834
  Name = 
  13 active torsions:
  status: ('A' for Active; 'I' for Inactive)
    1  A    between atoms: C_1  and  C_36
    2  A    between atoms: O_3  and  C_32
    3  A    between atoms: C_6  and  O_31
    4  A    between atoms: C_10  and  C_14
    5  A    between atoms: C_14  and  C_27
    6  A    between atoms: C_14  and  C_37
    7  A    between atoms: C_17  and  C_26
    8  A    between atoms: C_17  and  C_33
    9  A    between atoms: N_24  and  C_28
   10  A    between atoms: C_26  and  C_34
   11  A    between atoms: C_29  and  C_36
   12  A    between atoms: O_31  and  C_37
   13  A    between atoms: C_33  and  C_36
                            x       y       z     vdW  Elec       q    Type
                         _______ _______ _______ _____ _____    ______ ____

>  <TORSDO>
F 13

$$$$
=
 OpenBabel11052415273D

 37 40  0  0  1  0  0  0  0  0999 V2000
  184.0340  177.2920  137.8390 C   0  0  0  0  0  3  0  0  0  0  0  0
  183.8990  178.4730  142.0800 C   0  0  0  0  0  3  0  0  0  0  0  0
  182.7290  177.1780  138.0400 C   0  0  0  0  0  0  0  0  0  0  0  0
  183.6730  178.3090  140.7080 C   0  0  0  0  0  0  0  0  0  0  0  0
  184.7900  178.2680  139.9720 C   0  0  0  0  0  3  0  0  0  0  0  0
  182.3410  178.4120  140.1960 C   0  0  0  0  0  0  0  0  0  0  0  0
  181.5850  179.0030  142.4540 C   0  0  0  0  0  3  0  0  0  0  0  0
  184.8540  178.2090  138.5470 N   0  0  0  0  0  0  0  0  0  0  0  0
  181.3340  178.8170  141.0970 C   0  0  0  0  0  3  0  0  0  0  0  0
  181.9620  178.1170  138.9220 C   0  0  0  0  0  0  0  0  0  0  0  0
  182.8690  178.7970  142.9600 C   0  0  0  0  0  0  0  0  0  0  0  0
  183.1550  178.9360  144.3200 O   0  0  0  0  0  0  0  0  0  0  0  0
  184.4810  178.9080  144.8340 C   0  0  0  0  0  1  0  0  0  0  0  0
  187.2820  177.9100  138.5240 C   0  0  0  0  0  1  0  0  0  0  0  0
  186.0940  178.6330  137.9130 C   0  0  0  0  0  2  0  0  0  0  0  0
  182.0930  175.9970  137.3570 C   0  0  1  0  0  3  0  0  0  0  0  0
  181.0710  175.6700  135.2170 O   0  0  0  0  0  1  0  0  0  0  0  0
  182.2670  176.0220  135.8430 C   0  0  0  0  0  2  0  0  0  0  0  0
  182.5110  174.6690  137.9620 C   0  0  0  0  0  2  0  0  0  0  0  0
  183.3770  173.9750  137.0760 O   0  0  0  0  0  0  0  0  0  0  0  0
  184.0720  171.8090  136.5140 C   0  0  0  0  0  3  0  0  0  0  0  0
  183.0800  172.7000  136.5930 C   0  0  0  0  0  0  0  0  0  0  0  0
  181.6690  172.3470  136.1740 C   0  0  0  0  0  2  0  0  0  0  0  0
  180.4060  170.5150  135.3080 O   0  0  0  0  0  0  0  0  0  0  0  0
  182.6630  170.0580  135.6400 N   0  0  0  0  0  0  0  0  0  0  0  0
  181.5310  170.9340  135.6840 C   0  0  0  0  0  0  0  0  0  0  0  0
  183.8430  170.4440  136.0180 C   0  0  0  0  0  3  0  0  0  0  0  0
  180.6830  178.7600  138.3970 C   0  0  1  0  0  3  0  0  0  0  0  0
  180.9270  180.0340  137.5920 C   0  0  0  0  0  0  0  0  0  0  0  0
  181.5880  181.2550  138.2020 C   0  0  0  0  0  1  0  0  0  0  0  0
  181.2360  179.8150  136.1300 C   0  0  0  0  0  2  0  0  0  0  0  0
  179.8730  180.3450  136.5540 C   0  0  0  0  0  2  0  0  0  0  0  0
  179.6620  177.8260  137.7650 C   0  0  0  0  0  2  0  0  0  0  0  0
  178.9370  177.0340  138.8350 C   0  0  0  0  0  2  0  0  0  0  0  0
  178.9310  175.5680  138.4560 C   0  0  0  0  0  2  0  0  0  0  0  0
  179.5180  175.6440  140.8550 C   0  0  0  0  0  1  0  0  0  0  0  0
  179.3160  174.7360  139.6610 C   0  0  0  0  0  2  0  0  0  0  0  0
  1  3  2  0  0  0  0
  1  8  1  0  0  0  0
  2 11  2  0  0  0  0
  3 10  1  0  0  0  0
  4  2  1  0  0  0  0
  5  4  2  0  0  0  0
  6  4  1  0  0  0  0
  6  9  1  0  0  0  0
  7 11  1  0  0  0  0
  8  5  1  0  0  0  0
  9  7  2  0  0  0  0
 10  6  2  0  0  0  0
 11 12  1  0  0  0  0
 12 13  1  0  0  0  0
 15 14  1  0  0  0  0
 15  8  1  0  0  0  0
 16 18  1  6  0  0  0
 16 19  1  0  0  0  0
 16  3  1  0  0  0  0
 17 18  1  0  0  0  0
 20 19  1  0  0  0  0
 21 22  2  0  0  0  0
 22 20  1  0  0  0  0
 23 22  1  0  0  0  0
 24 26  2  0  0  0  0
 25 26  1  0  0  0  0
 25 27  2  0  0  0  0
 26 23  1  0  0  0  0
 27 21  1  0  0  0  0
 28 33  1  6  0  0  0
 28 10  1  0  0  0  0
 29 30  1  0  0  0  0
 29 28  1  0  0  0  0
 31 32  1  0  0  0  0
 31 29  1  0  0  0  0
 32 29  1  0  0  0  0
 33 34  1  0  0  0  0
 35 34  1  0  0  0  0
 35 37  1  0  0  0  0
 37 36  1  0  0  0  0
M  END
>  <MODEL>
9

>  <REMARK>
 VINA RESULT:      -4.5      2.622      8.320
  Name = 
  13 active torsions:
  status: ('A' for Active; 'I' for Inactive)
    1  A    between atoms: C_1  and  C_36
    2  A    between atoms: O_3  and  C_32
    3  A    between atoms: C_6  and  O_31
    4  A    between atoms: C_10  and  C_14
    5  A    between atoms: C_14  and  C_27
    6  A    between atoms: C_14  and  C_37
    7  A    between atoms: C_17  and  C_26
    8  A    between atoms: C_17  and  C_33
    9  A    between atoms: N_24  and  C_28
   10  A    between atoms: C_26  and  C_34
   11  A    between atoms: C_29  and  C_36
   12  A    between atoms: O_31  and  C_37
   13  A    between atoms: C_33  and  C_36
                            x       y       z     vdW  Elec       q    Type
                         _______ _______ _______ _____ _____    ______ ____

>  <TORSDO>
F 13

$$$$
