=
 OpenBabel11052414263D

 32 37  0  0  1  0  0  0  0  0999 V2000
  187.1300  177.9430  144.5180 N   0  0  2  0  0  0  0  0  0  0  0  0
  186.7620  178.0410  142.1060 C   0  0  0  0  0  0  0  0  0  0  0  0
  186.4280  177.7010  145.7810 C   0  0  0  0  0  2  0  0  0  0  0  0
  186.1200  177.8790  143.4490 C   0  0  2  0  0  3  0  0  0  0  0  0
  186.0620  178.6120  141.0410 C   0  0  0  0  0  0  0  0  0  0  0  0
  190.6860  177.6490  139.1660 C   0  0  0  0  0  2  0  0  0  0  0  0
  188.0550  177.5620  141.9140 C   0  0  0  0  0  0  0  0  0  0  0  0
  188.5180  178.4370  138.2310 C   0  0  0  0  0  2  0  0  0  0  0  0
  187.9080  178.2340  139.5910 C   0  0  0  0  0  0  0  0  0  0  0  0
  185.0600  178.9330  143.6640 C   0  0  0  0  0  0  0  0  0  0  0  0
  186.6470  178.6970  139.8170 N   0  0  0  0  0  0  0  0  0  0  0  0
  184.4190  179.4600  142.6590 N   0  0  0  0  0  0  0  0  0  0  0  0
  184.7270  179.3050  145.0030 N   0  0  0  0  0  2  0  0  0  0  0  0
  188.7400  177.0110  143.0040 O   0  0  0  0  0  0  0  0  0  0  0  0
  188.1240  176.8750  144.2920 C   0  0  1  0  0  3  0  0  0  0  0  0
  188.6550  177.6700  140.6530 C   0  0  0  0  0  0  0  0  0  0  0  0
  184.6520  179.0890  141.2550 C   0  0  2  0  0  3  0  0  0  0  0  0
  185.5810  178.9270  146.1280 C   0  0  0  0  0  2  0  0  0  0  0  0
  189.7230  177.5320  137.9940 C   0  0  0  0  0  2  0  0  0  0  0  0
  190.0280  177.0940  140.4270 C   0  0  0  0  0  2  0  0  0  0  0  0
  191.4420  176.3900  146.1520 C   0  0  0  0  0  0  0  0  0  0  0  0
  192.6940  175.9120  145.9350 F   0  0  0  0  0  0  0  0  0  0  0  0
  189.8150  177.4090  147.6320 C   0  0  0  0  0  3  0  0  0  0  0  0
  189.1930  176.8690  145.3510 C   0  0  0  0  0  0  0  0  0  0  0  0
  191.0990  176.9060  147.4110 C   0  0  0  0  0  0  0  0  0  0  0  0
  188.8680  177.3860  146.6080 C   0  0  0  0  0  3  0  0  0  0  0  0
  190.4930  176.3640  145.1190 C   0  0  0  0  0  0  0  0  0  0  0  0
  190.9570  175.7000  143.5550 Cl  0  0  0  0  0  0  0  0  0  0  0  0
  192.7710  175.7390  148.6020 O   0  0  0  0  0  1  0  0  0  0  0  0
  192.1030  176.9610  148.5110 C   0  0  0  0  0  2  0  0  0  0  0  0
  183.6750  178.0020  140.8340 C   0  0  0  0  0  2  0  0  0  0  0  0
  182.3880  178.3290  141.2630 O   0  0  0  0  0  1  0  0  0  0  0  0
  1  3  1  1  0  0  0
  3 18  1  0  0  0  0
  4  2  1  6  0  0  0
  4 10  1  0  0  0  0
  4  1  1  0  0  0  0
  5 17  1  0  0  0  0
  5  2  2  0  0  0  0
  6 20  1  0  0  0  0
  7  2  1  0  0  0  0
  7 14  1  0  0  0  0
  8  9  1  0  0  0  0
  9 11  2  0  0  0  0
  9 16  1  0  0  0  0
 10 13  1  0  0  0  0
 11  5  1  0  0  0  0
 12 10  2  0  0  0  0
 13 18  1  0  0  0  0
 14 15  1  0  0  0  0
 15  1  1  0  0  0  0
 15 24  1  1  0  0  0
 16  7  2  0  0  0  0
 17 31  1  1  0  0  0
 17 12  1  0  0  0  0
 19  8  1  0  0  0  0
 19  6  1  0  0  0  0
 20 16  1  0  0  0  0
 21 25  1  0  0  0  0
 22 21  1  0  0  0  0
 24 26  2  0  0  0  0
 25 23  2  0  0  0  0
 25 30  1  0  0  0  0
 26 23  1  0  0  0  0
 27 24  1  0  0  0  0
 27 21  2  0  0  0  0
 28 27  1  0  0  0  0
 30 29  1  0  0  0  0
 31 32  1  0  0  0  0
M  END
>  <MODEL>
1

>  <REMARK>
 VINA RESULT:      -9.6      0.000      0.000
  Name = 
  3 active torsions:
  status: ('A' for Active; 'I' for Inactive)
    1  A    between atoms: C_13  and  CA_29
    2  A    between atoms: C_16  and  C_27
    3  A    between atoms: C_19  and  C_26
                            x       y       z     vdW  Elec       q    Type
                         _______ _______ _______ _____ _____    ______ ____

>  <TORSDO>
F 3

$$$$
=
 OpenBabel11052414263D

 32 37  0  0  1  0  0  0  0  0999 V2000
  187.1490  178.0110  141.7340 N   0  0  2  0  0  0  0  0  0  0  0  0
  187.6110  178.0030  144.1320 C   0  0  0  0  0  0  0  0  0  0  0  0
  186.3110  178.6640  140.7240 C   0  0  0  0  0  2  0  0  0  0  0  0
  186.7500  178.5610  143.0400 C   0  0  2  0  0  3  0  0  0  0  0  0
  187.1150  177.8530  145.4280 C   0  0  0  0  0  0  0  0  0  0  0  0
  191.8540  176.0310  145.6480 C   0  0  0  0  0  2  0  0  0  0  0  0
  188.9370  177.6860  143.8500 C   0  0  0  0  0  0  0  0  0  0  0  0
  190.0550  176.5080  147.3010 C   0  0  0  0  0  2  0  0  0  0  0  0
  189.2360  177.0820  146.1780 C   0  0  0  0  0  0  0  0  0  0  0  0
  185.2930  178.2710  143.3090 C   0  0  0  0  0  0  0  0  0  0  0  0
  187.9320  177.3970  146.4150 N   0  0  0  0  0  0  0  0  0  0  0  0
  184.8460  178.1270  144.5250 N   0  0  0  0  0  0  0  0  0  0  0  0
  184.3910  178.2120  142.2010 N   0  0  0  0  0  2  0  0  0  0  0  0
  189.4020  177.8300  142.5370 O   0  0  0  0  0  0  0  0  0  0  0  0
  188.5670  178.3480  141.4930 C   0  0  1  0  0  3  0  0  0  0  0  0
  189.7650  177.2020  144.8700 C   0  0  0  0  0  0  0  0  0  0  0  0
  185.6910  178.2360  145.7250 C   0  0  2  0  0  3  0  0  0  0  0  0
  184.8850  178.1210  140.8280 C   0  0  0  0  0  2  0  0  0  0  0  0
  191.5530  176.5940  147.0290 C   0  0  0  0  0  2  0  0  0  0  0  0
  191.2170  176.9210  144.5840 C   0  0  0  0  0  2  0  0  0  0  0  0
  190.7840  176.9860  138.6770 C   0  0  0  0  0  0  0  0  0  0  0  0
  192.0760  176.6370  138.4500 F   0  0  0  0  0  0  0  0  0  0  0  0
  188.5050  177.2150  137.8860 C   0  0  0  0  0  3  0  0  0  0  0  0
  189.0520  177.8250  140.1690 C   0  0  0  0  0  0  0  0  0  0  0  0
  189.8370  176.8670  137.6490 C   0  0  0  0  0  0  0  0  0  0  0  0
  188.1170  177.6950  139.1380 C   0  0  0  0  0  3  0  0  0  0  0  0
  190.4000  177.4690  139.9370 C   0  0  0  0  0  0  0  0  0  0  0  0
  191.6200  177.6140  141.2000 Cl  0  0  0  0  0  0  0  0  0  0  0  0
  189.7180  177.1630  135.3110 O   0  0  0  0  0  1  0  0  0  0  0  0
  190.2250  176.3350  136.3130 C   0  0  0  0  0  2  0  0  0  0  0  0
  185.6460  179.6560  146.2660 C   0  0  0  0  0  2  0  0  0  0  0  0
  185.7110  179.6350  147.6600 O   0  0  0  0  0  1  0  0  0  0  0  0
  1  3  1  6  0  0  0
  1  4  1  0  0  0  0
  2  5  1  0  0  0  0
  3 18  1  0  0  0  0
  4 10  1  1  0  0  0
  4  2  1  0  0  0  0
  5 17  1  0  0  0  0
  5 11  2  0  0  0  0
  6 19  1  0  0  0  0
  7  2  2  0  0  0  0
  7 16  1  0  0  0  0
  9 11  1  0  0  0  0
  9  8  1  0  0  0  0
 10 12  2  0  0  0  0
 12 17  1  0  0  0  0
 13 10  1  0  0  0  0
 14  7  1  0  0  0  0
 15 24  1  6  0  0  0
 15  1  1  0  0  0  0
 15 14  1  0  0  0  0
 16  9  2  0  0  0  0
 17 31  1  6  0  0  0
 18 13  1  0  0  0  0
 19  8  1  0  0  0  0
 20 16  1  0  0  0  0
 20  6  1  0  0  0  0
 21 27  1  0  0  0  0
 22 21  1  0  0  0  0
 23 26  2  0  0  0  0
 25 23  1  0  0  0  0
 25 21  2  0  0  0  0
 26 24  1  0  0  0  0
 27 24  2  0  0  0  0
 27 28  1  0  0  0  0
 29 30  1  0  0  0  0
 30 25  1  0  0  0  0
 31 32  1  0  0  0  0
M  END
>  <MODEL>
2

>  <REMARK>
 VINA RESULT:      -9.5      2.525      6.506
  Name = 
  3 active torsions:
  status: ('A' for Active; 'I' for Inactive)
    1  A    between atoms: C_13  and  CA_29
    2  A    between atoms: C_16  and  C_27
    3  A    between atoms: C_19  and  C_26
                            x       y       z     vdW  Elec       q    Type
                         _______ _______ _______ _____ _____    ______ ____

>  <TORSDO>
F 3

$$$$
=
 OpenBabel11052414263D

 32 37  0  0  1  0  0  0  0  0999 V2000
  186.6010  178.0730  144.1840 N   0  0  2  0  0  0  0  0  0  0  0  0
  188.6810  177.7760  142.9400 C   0  0  0  0  0  0  0  0  0  0  0  0
  186.0820  178.5850  145.4560 C   0  0  0  0  0  2  0  0  0  0  0  0
  188.0660  178.2060  144.2360 C   0  0  2  0  0  3  0  0  0  0  0  0
  189.9660  177.2310  142.9030 C   0  0  0  0  0  0  0  0  0  0  0  0
  188.3710  177.0860  138.0800 C   0  0  0  0  0  2  0  0  0  0  0  0
  187.9730  177.9770  141.7580 C   0  0  0  0  0  0  0  0  0  0  0  0
  190.5140  176.6210  139.2570 C   0  0  0  0  0  2  0  0  0  0  0  0
  189.8640  177.0870  140.5310 C   0  0  0  0  0  0  0  0  0  0  0  0
  188.6260  177.4030  145.3840 C   0  0  0  0  0  0  0  0  0  0  0  0
  190.5240  176.8990  141.7080 N   0  0  0  0  0  0  0  0  0  0  0  0
  189.8260  176.8960  145.3330 N   0  0  0  0  0  0  0  0  0  0  0  0
  187.8350  177.2530  146.5660 N   0  0  0  0  0  2  0  0  0  0  0  0
  186.6800  178.5080  141.8270 O   0  0  0  0  0  0  0  0  0  0  0  0
  186.0910  178.9020  143.0740 C   0  0  1  0  0  3  0  0  0  0  0  0
  188.5510  177.6170  140.5340 C   0  0  0  0  0  0  0  0  0  0  0  0
  190.7320  177.0560  144.1850 C   0  0  2  0  0  3  0  0  0  0  0  0
  186.4110  177.5870  146.5700 C   0  0  0  0  0  2  0  0  0  0  0  0
  189.8820  177.2500  138.0200 C   0  0  0  0  0  2  0  0  0  0  0  0
  187.8140  177.8930  139.2490 C   0  0  0  0  0  2  0  0  0  0  0  0
  182.5230  178.7520  141.6770 C   0  0  0  0  0  0  0  0  0  0  0  0
  181.8750  178.7470  140.4840 F   0  0  0  0  0  0  0  0  0  0  0  0
  182.4570  178.6790  144.0980 C   0  0  0  0  0  3  0  0  0  0  0  0
  184.5930  178.8250  142.9570 C   0  0  0  0  0  0  0  0  0  0  0  0
  181.7900  178.6860  142.8710 C   0  0  0  0  0  0  0  0  0  0  0  0
  183.8500  178.7520  144.1390 C   0  0  0  0  0  3  0  0  0  0  0  0
  183.9240  178.8270  141.7120 C   0  0  0  0  0  0  0  0  0  0  0  0
  184.8090  178.9180  140.1920 Cl  0  0  0  0  0  0  0  0  0  0  0  0
  179.8600  177.9110  143.9880 O   0  0  0  0  0  1  0  0  0  0  0  0
  180.3040  178.5830  142.8490 C   0  0  0  0  0  2  0  0  0  0  0  0
  191.6440  178.2530  144.4030 C   0  0  0  0  0  2  0  0  0  0  0  0
  191.0640  179.3970  143.8530 O   0  0  0  0  0  1  0  0  0  0  0  0
  1  4  1  0  0  0  0
  1  3  1  1  0  0  0
  3 18  1  0  0  0  0
  4  2  1  6  0  0  0
  4 10  1  0  0  0  0
  5  2  1  0  0  0  0
  5 17  1  0  0  0  0
  6 20  1  0  0  0  0
  7 14  1  0  0  0  0
  7  2  2  0  0  0  0
  8  9  1  0  0  0  0
  9 16  2  0  0  0  0
  9 11  1  0  0  0  0
 10 13  1  0  0  0  0
 11  5  2  0  0  0  0
 12 10  2  0  0  0  0
 13 18  1  0  0  0  0
 14 15  1  0  0  0  0
 15 24  1  6  0  0  0
 15  1  1  0  0  0  0
 16  7  1  0  0  0  0
 17 31  1  1  0  0  0
 17 12  1  0  0  0  0
 19  6  1  0  0  0  0
 19  8  1  0  0  0  0
 20 16  1  0  0  0  0
 21 27  2  0  0  0  0
 21 25  1  0  0  0  0
 22 21  1  0  0  0  0
 23 26  1  0  0  0  0
 24 26  2  0  0  0  0
 25 23  2  0  0  0  0
 27 24  1  0  0  0  0
 28 27  1  0  0  0  0
 30 25  1  0  0  0  0
 30 29  1  0  0  0  0
 32 31  1  0  0  0  0
M  END
>  <MODEL>
3

>  <REMARK>
 VINA RESULT:      -9.4      3.402      6.561
  Name = 
  3 active torsions:
  status: ('A' for Active; 'I' for Inactive)
    1  A    between atoms: C_13  and  CA_29
    2  A    between atoms: C_16  and  C_27
    3  A    between atoms: C_19  and  C_26
                            x       y       z     vdW  Elec       q    Type
                         _______ _______ _______ _____ _____    ______ ____

>  <TORSDO>
F 3

$$$$
=
 OpenBabel11052414263D

 32 37  0  0  1  0  0  0  0  0999 V2000
  189.5930  177.5990  142.6280 N   0  0  2  0  0  0  0  0  0  0  0  0
  187.9010  177.7480  144.3830 C   0  0  0  0  0  0  0  0  0  0  0  0
  190.9130  177.0280  142.3460 C   0  0  0  0  0  2  0  0  0  0  0  0
  189.2740  177.2670  144.0260 C   0  0  2  0  0  3  0  0  0  0  0  0
  187.5900  178.1170  145.6920 C   0  0  0  0  0  0  0  0  0  0  0  0
  183.3280  178.9890  143.0640 C   0  0  0  0  0  2  0  0  0  0  0  0
  186.9180  177.7710  143.3980 C   0  0  0  0  0  0  0  0  0  0  0  0
  183.9750  179.0350  145.4680 C   0  0  0  0  0  2  0  0  0  0  0  0
  185.3320  178.5260  145.0670 C   0  0  0  0  0  0  0  0  0  0  0  0
  190.3050  177.8610  144.9550 C   0  0  0  0  0  0  0  0  0  0  0  0
  186.3210  178.4980  146.0030 N   0  0  0  0  0  0  0  0  0  0  0  0
  189.9980  178.2060  146.1740 N   0  0  0  0  0  0  0  0  0  0  0  0
  191.6520  177.9870  144.4920 N   0  0  0  0  0  2  0  0  0  0  0  0
  187.2640  177.4120  142.0890 O   0  0  0  0  0  0  0  0  0  0  0  0
  188.5850  176.9690  141.7520 C   0  0  1  0  0  3  0  0  0  0  0  0
  185.6190  178.1790  143.7250 C   0  0  0  0  0  0  0  0  0  0  0  0
  188.6540  178.0500  146.7530 C   0  0  2  0  0  3  0  0  0  0  0  0
  191.9810  177.8480  143.0740 C   0  0  0  0  0  2  0  0  0  0  0  0
  182.8880  178.6320  144.4760 C   0  0  0  0  0  2  0  0  0  0  0  0
  184.5370  178.1420  142.6760 C   0  0  0  0  0  2  0  0  0  0  0  0
  188.2620  178.2430  138.1500 C   0  0  0  0  0  0  0  0  0  0  0  0
  187.4150  178.9720  137.3780 F   0  0  0  0  0  0  0  0  0  0  0  0
  190.3160  176.9800  138.3900 C   0  0  0  0  0  3  0  0  0  0  0  0
  188.8450  177.2570  140.2980 C   0  0  0  0  0  0  0  0  0  0  0  0
  189.4390  177.7200  137.5940 C   0  0  0  0  0  0  0  0  0  0  0  0
  190.0180  176.7480  139.7330 C   0  0  0  0  0  3  0  0  0  0  0  0
  187.9560  178.0110  139.4990 C   0  0  0  0  0  0  0  0  0  0  0  0
  186.4640  178.6760  140.1590 Cl  0  0  0  0  0  0  0  0  0  0  0  0
  189.2970  176.9430  135.3690 O   0  0  0  0  0  1  0  0  0  0  0  0
  189.7880  177.9760  136.1680 C   0  0  0  0  0  2  0  0  0  0  0  0
  188.5560  176.7260  147.4930 C   0  0  0  0  0  2  0  0  0  0  0  0
  187.9530  176.9200  148.7370 O   0  0  0  0  0  1  0  0  0  0  0  0
  1  3  1  6  0  0  0
  1  4  1  0  0  0  0
  2  5  1  0  0  0  0
  3 18  1  0  0  0  0
  4  2  1  1  0  0  0
  4 10  1  0  0  0  0
  5 11  2  0  0  0  0
  5 17  1  0  0  0  0
  6 19  1  0  0  0  0
  7 16  1  0  0  0  0
  7  2  2  0  0  0  0
  9  8  1  0  0  0  0
  9 11  1  0  0  0  0
 10 12  2  0  0  0  0
 12 17  1  0  0  0  0
 13 10  1  0  0  0  0
 14  7  1  0  0  0  0
 15 24  1  6  0  0  0
 15 14  1  0  0  0  0
 15  1  1  0  0  0  0
 16  9  2  0  0  0  0
 17 31  1  6  0  0  0
 18 13  1  0  0  0  0
 19  8  1  0  0  0  0
 20  6  1  0  0  0  0
 20 16  1  0  0  0  0
 21 27  1  0  0  0  0
 22 21  1  0  0  0  0
 23 26  2  0  0  0  0
 25 21  2  0  0  0  0
 25 23  1  0  0  0  0
 26 24  1  0  0  0  0
 27 28  1  0  0  0  0
 27 24  2  0  0  0  0
 29 30  1  0  0  0  0
 30 25  1  0  0  0  0
 31 32  1  0  0  0  0
M  END
>  <MODEL>
4

>  <REMARK>
 VINA RESULT:      -9.3      3.189      7.335
  Name = 
  3 active torsions:
  status: ('A' for Active; 'I' for Inactive)
    1  A    between atoms: C_13  and  CA_29
    2  A    between atoms: C_16  and  C_27
    3  A    between atoms: C_19  and  C_26
                            x       y       z     vdW  Elec       q    Type
                         _______ _______ _______ _____ _____    ______ ____

>  <TORSDO>
F 3

$$$$
=
 OpenBabel11052414263D

 32 37  0  0  1  0  0  0  0  0999 V2000
  187.2030  177.7980  142.2780 N   0  0  2  0  0  0  0  0  0  0  0  0
  188.6600  177.6060  140.3270 C   0  0  0  0  0  0  0  0  0  0  0  0
  187.2320  178.0950  143.7130 C   0  0  0  0  0  2  0  0  0  0  0  0
  188.5970  177.8260  141.8070 C   0  0  2  0  0  3  0  0  0  0  0  0
  189.7700  176.9980  139.7390 C   0  0  0  0  0  0  0  0  0  0  0  0
  186.5820  177.8580  135.8760 C   0  0  0  0  0  2  0  0  0  0  0  0
  187.6140  178.0690  139.5320 C   0  0  0  0  0  0  0  0  0  0  0  0
  188.9250  177.0450  136.1000 C   0  0  0  0  0  2  0  0  0  0  0  0
  188.8260  177.3060  137.5780 C   0  0  0  0  0  0  0  0  0  0  0  0
  189.4180  176.7880  142.5350 C   0  0  0  0  0  0  0  0  0  0  0  0
  189.8270  176.8600  138.3870 N   0  0  0  0  0  0  0  0  0  0  0  0
  190.4490  176.2240  141.9710 N   0  0  0  0  0  0  0  0  0  0  0  0
  189.0780  176.4710  143.8870 N   0  0  0  0  0  2  0  0  0  0  0  0
  186.5060  178.6590  140.1510 O   0  0  0  0  0  0  0  0  0  0  0  0
  186.4460  178.8500  141.5710 C   0  0  1  0  0  3  0  0  0  0  0  0
  187.6760  177.9080  138.1430 C   0  0  0  0  0  0  0  0  0  0  0  0
  190.9080  176.5370  140.6080 C   0  0  2  0  0  3  0  0  0  0  0  0
  187.8000  176.8880  144.4640 C   0  0  0  0  0  2  0  0  0  0  0  0
  187.9840  177.9330  135.2910 C   0  0  0  0  0  2  0  0  0  0  0  0
  186.5780  178.4660  137.2760 C   0  0  0  0  0  2  0  0  0  0  0  0
  182.6240  178.5520  141.6270 C   0  0  0  0  0  0  0  0  0  0  0  0
  181.6010  178.1590  140.8250 F   0  0  0  0  0  0  0  0  0  0  0  0
  183.4080  179.4180  143.7500 C   0  0  0  0  0  3  0  0  0  0  0  0
  185.0050  178.8920  142.0020 C   0  0  0  0  0  0  0  0  0  0  0  0
  182.3550  179.0240  142.9200 C   0  0  0  0  0  0  0  0  0  0  0  0
  184.7240  179.3550  143.2910 C   0  0  0  0  0  3  0  0  0  0  0  0
  183.9450  178.4880  141.1600 C   0  0  0  0  0  0  0  0  0  0  0  0
  184.2410  177.8980  139.5260 Cl  0  0  0  0  0  0  0  0  0  0  0  0
  180.3380  180.2470  143.0010 O   0  0  0  0  0  1  0  0  0  0  0  0
  180.9600  179.0770  143.4390 C   0  0  0  0  0  2  0  0  0  0  0  0
  191.9820  177.6120  140.6550 C   0  0  0  0  0  2  0  0  0  0  0  0
  193.0920  177.2080  139.9120 O   0  0  0  0  0  1  0  0  0  0  0  0
  1  3  1  1  0  0  0
  3 18  1  0  0  0  0
  4  2  1  6  0  0  0
  4  1  1  0  0  0  0
  4 10  1  0  0  0  0
  5  2  1  0  0  0  0
  5 17  1  0  0  0  0
  6 20  1  0  0  0  0
  7 14  1  0  0  0  0
  7  2  2  0  0  0  0
  8  9  1  0  0  0  0
  9 16  2  0  0  0  0
  9 11  1  0  0  0  0
 10 13  1  0  0  0  0
 11  5  2  0  0  0  0
 12 10  2  0  0  0  0
 13 18  1  0  0  0  0
 14 15  1  0  0  0  0
 15 24  1  1  0  0  0
 15  1  1  0  0  0  0
 16  7  1  0  0  0  0
 17 31  1  1  0  0  0
 17 12  1  0  0  0  0
 19  6  1  0  0  0  0
 19  8  1  0  0  0  0
 20 16  1  0  0  0  0
 21 25  1  0  0  0  0
 22 21  1  0  0  0  0
 24 26  2  0  0  0  0
 25 30  1  0  0  0  0
 25 23  2  0  0  0  0
 26 23  1  0  0  0  0
 27 21  2  0  0  0  0
 27 24  1  0  0  0  0
 28 27  1  0  0  0  0
 29 30  1  0  0  0  0
 32 31  1  0  0  0  0
M  END
>  <MODEL>
5

>  <REMARK>
 VINA RESULT:      -9.1      3.905      6.836
  Name = 
  3 active torsions:
  status: ('A' for Active; 'I' for Inactive)
    1  A    between atoms: C_13  and  CA_29
    2  A    between atoms: C_16  and  C_27
    3  A    between atoms: C_19  and  C_26
                            x       y       z     vdW  Elec       q    Type
                         _______ _______ _______ _____ _____    ______ ____

>  <TORSDO>
F 3

$$$$
=
 OpenBabel11052414263D

 32 37  0  0  1  0  0  0  0  0999 V2000
  189.2700  177.5330  140.5420 N   0  0  2  0  0  0  0  0  0  0  0  0
  187.1910  178.0700  139.3790 C   0  0  0  0  0  0  0  0  0  0  0  0
  190.7250  177.5420  140.3640 C   0  0  0  0  0  2  0  0  0  0  0  0
  188.6820  177.9750  139.2670 C   0  0  2  0  0  3  0  0  0  0  0  0
  186.3750  177.8620  138.2650 C   0  0  0  0  0  0  0  0  0  0  0  0
  183.1370  178.6980  142.0920 C   0  0  0  0  0  2  0  0  0  0  0  0
  186.6280  178.4240  140.6010 C   0  0  0  0  0  0  0  0  0  0  0  0
  182.9410  178.4230  139.6260 C   0  0  0  0  0  2  0  0  0  0  0  0
  184.4420  178.3600  139.5580 C   0  0  0  0  0  0  0  0  0  0  0  0
  189.0740  177.0340  138.1540 C   0  0  0  0  0  0  0  0  0  0  0  0
  185.0280  178.0080  138.3790 N   0  0  0  0  0  0  0  0  0  0  0  0
  188.2990  176.8460  137.1230 N   0  0  0  0  0  0  0  0  0  0  0  0
  190.3480  176.3890  138.2190 N   0  0  0  0  0  2  0  0  0  0  0  0
  187.4700  178.6080  141.7050 O   0  0  0  0  0  0  0  0  0  0  0  0
  188.8950  178.4990  141.5940 C   0  0  1  0  0  3  0  0  0  0  0  0
  185.2380  178.5560  140.7120 C   0  0  0  0  0  0  0  0  0  0  0  0
  187.0020  177.5180  136.9420 C   0  0  2  0  0  3  0  0  0  0  0  0
  191.1280  176.3780  139.4570 C   0  0  0  0  0  2  0  0  0  0  0  0
  182.4480  179.2100  140.8370 C   0  0  0  0  0  2  0  0  0  0  0  0
  184.6310  179.0030  142.0160 C   0  0  0  0  0  2  0  0  0  0  0  0
  189.3240  177.0770  145.1290 C   0  0  0  0  0  0  0  0  0  0  0  0
  188.6240  176.3780  146.0590 F   0  0  0  0  0  0  0  0  0  0  0  0
  191.3650  178.1890  144.4410 C   0  0  0  0  0  3  0  0  0  0  0  0
  189.4660  178.1200  142.9340 C   0  0  0  0  0  0  0  0  0  0  0  0
  190.6400  177.4800  145.4020 C   0  0  0  0  0  0  0  0  0  0  0  0
  190.7780  178.5100  143.2160 C   0  0  0  0  0  3  0  0  0  0  0  0
  188.7290  177.3980  143.9000 C   0  0  0  0  0  0  0  0  0  0  0  0
  187.0720  176.8830  143.5970 Cl  0  0  0  0  0  0  0  0  0  0  0  0
  192.0550  175.9700  146.5370 O   0  0  0  0  0  1  0  0  0  0  0  0
  191.2930  177.1280  146.6940 C   0  0  0  0  0  2  0  0  0  0  0  0
  187.1800  178.7820  136.1170 C   0  0  0  0  0  2  0  0  0  0  0  0
  186.8460  178.5310  134.7850 O   0  0  0  0  0  1  0  0  0  0  0  0
  1  3  1  6  0  0  0
  1 15  1  0  0  0  0
  2  7  1  0  0  0  0
  4 10  1  6  0  0  0
  4  2  1  0  0  0  0
  4  1  1  0  0  0  0
  5 11  1  0  0  0  0
  5  2  2  0  0  0  0
  7 16  2  0  0  0  0
  7 14  1  0  0  0  0
  8 19  1  0  0  0  0
  9  8  1  0  0  0  0
  9 16  1  0  0  0  0
 10 13  1  0  0  0  0
 11  9  2  0  0  0  0
 12 10  2  0  0  0  0
 13 18  1  0  0  0  0
 15 14  1  0  0  0  0
 15 24  1  1  0  0  0
 16 20  1  0  0  0  0
 17 31  1  6  0  0  0
 17 12  1  0  0  0  0
 17  5  1  0  0  0  0
 18  3  1  0  0  0  0
 19  6  1  0  0  0  0
 20  6  1  0  0  0  0
 21 25  1  0  0  0  0
 21 22  1  0  0  0  0
 23 25  2  0  0  0  0
 24 26  2  0  0  0  0
 24 27  1  0  0  0  0
 25 30  1  0  0  0  0
 26 23  1  0  0  0  0
 27 21  2  0  0  0  0
 28 27  1  0  0  0  0
 29 30  1  0  0  0  0
 32 31  1  0  0  0  0
M  END
>  <MODEL>
6

>  <REMARK>
 VINA RESULT:      -8.9      2.634      5.146
  Name = 
  3 active torsions:
  status: ('A' for Active; 'I' for Inactive)
    1  A    between atoms: C_13  and  CA_29
    2  A    between atoms: C_16  and  C_27
    3  A    between atoms: C_19  and  C_26
                            x       y       z     vdW  Elec       q    Type
                         _______ _______ _______ _____ _____    ______ ____

>  <TORSDO>
F 3

$$$$
=
 OpenBabel11052414263D

 32 37  0  0  1  0  0  0  0  0999 V2000
  185.9120  178.6000  139.1520 N   0  0  2  0  0  0  0  0  0  0  0  0
  186.7410  178.0900  141.3920 C   0  0  0  0  0  0  0  0  0  0  0  0
  186.1370  178.2800  137.7400 C   0  0  0  0  0  2  0  0  0  0  0  0
  186.9400  177.8810  139.9220 C   0  0  2  0  0  3  0  0  0  0  0  0
  187.8240  178.0670  142.2720 C   0  0  0  0  0  0  0  0  0  0  0  0
  183.8060  179.0880  145.2100 C   0  0  0  0  0  2  0  0  0  0  0  0
  185.4470  178.2530  141.8810 C   0  0  0  0  0  0  0  0  0  0  0  0
  186.2120  178.5840  145.6030 C   0  0  0  0  0  2  0  0  0  0  0  0
  186.3600  178.3590  144.1230 C   0  0  0  0  0  0  0  0  0  0  0  0
  188.3190  178.3290  139.5030 C   0  0  0  0  0  0  0  0  0  0  0  0
  187.6110  178.2030  143.6080 N   0  0  0  0  0  0  0  0  0  0  0  0
  189.3200  178.3070  140.3370 N   0  0  0  0  0  0  0  0  0  0  0  0
  188.5260  178.7280  138.1450 N   0  0  0  0  0  2  0  0  0  0  0  0
  184.3820  178.2900  140.9730 O   0  0  0  0  0  0  0  0  0  0  0  0
  184.5830  178.1070  139.5650 C   0  0  1  0  0  3  0  0  0  0  0  0
  185.2410  178.4080  143.2570 C   0  0  0  0  0  0  0  0  0  0  0  0
  189.2120  177.8510  141.7320 C   0  0  2  0  0  3  0  0  0  0  0  0
  187.3970  179.0010  137.2560 C   0  0  0  0  0  2  0  0  0  0  0  0
  184.7880  178.3280  146.0880 C   0  0  0  0  0  2  0  0  0  0  0  0
  183.8380  178.5190  143.7950 C   0  0  0  0  0  2  0  0  0  0  0  0
  181.6560  178.8240  137.1940 C   0  0  0  0  0  0  0  0  0  0  0  0
  180.8850  178.1880  136.2740 F   0  0  0  0  0  0  0  0  0  0  0  0
  182.2160  180.8300  138.4320 C   0  0  0  0  0  3  0  0  0  0  0  0
  183.4710  178.7910  138.8160 C   0  0  0  0  0  0  0  0  0  0  0  0
  181.4310  180.1790  137.4770 C   0  0  0  0  0  0  0  0  0  0  0  0
  183.2320  180.1400  139.0930 C   0  0  0  0  0  3  0  0  0  0  0  0
  182.6770  178.1250  137.8550 C   0  0  0  0  0  0  0  0  0  0  0  0
  182.9350  176.4260  137.4650 Cl  0  0  0  0  0  0  0  0  0  0  0  0
  180.8060  182.1740  136.3820 O   0  0  0  0  0  1  0  0  0  0  0  0
  180.3360  180.9280  136.8000 C   0  0  0  0  0  2  0  0  0  0  0  0
  189.5740  176.3780  141.8280 C   0  0  0  0  0  2  0  0  0  0  0  0
  190.3530  176.1530  142.9640 O   0  0  0  0  0  1  0  0  0  0  0  0
  1  3  1  6  0  0  0
  1 15  1  0  0  0  0
  1  4  1  0  0  0  0
  2  7  2  0  0  0  0
  2  5  1  0  0  0  0
  4 10  1  6  0  0  0
  4  2  1  0  0  0  0
  5 11  2  0  0  0  0
  6 19  1  0  0  0  0
  7 16  1  0  0  0  0
  8 19  1  0  0  0  0
  9  8  1  0  0  0  0
 10 12  2  0  0  0  0
 11  9  1  0  0  0  0
 12 17  1  0  0  0  0
 13 10  1  0  0  0  0
 14  7  1  0  0  0  0
 15 24  1  6  0  0  0
 15 14  1  0  0  0  0
 16 20  1  0  0  0  0
 16  9  2  0  0  0  0
 17 31  1  6  0  0  0
 17  5  1  0  0  0  0
 18  3  1  0  0  0  0
 18 13  1  0  0  0  0
 20  6  1  0  0  0  0
 21 25  2  0  0  0  0
 21 27  1  0  0  0  0
 22 21  1  0  0  0  0
 23 26  2  0  0  0  0
 24 26  1  0  0  0  0
 25 23  1  0  0  0  0
 27 24  2  0  0  0  0
 28 27  1  0  0  0  0
 29 30  1  0  0  0  0
 30 25  1  0  0  0  0
 31 32  1  0  0  0  0
M  END
>  <MODEL>
7

>  <REMARK>
 VINA RESULT:      -8.9      4.301      9.116
  Name = 
  3 active torsions:
  status: ('A' for Active; 'I' for Inactive)
    1  A    between atoms: C_13  and  CA_29
    2  A    between atoms: C_16  and  C_27
    3  A    between atoms: C_19  and  C_26
                            x       y       z     vdW  Elec       q    Type
                         _______ _______ _______ _____ _____    ______ ____

>  <TORSDO>
F 3

$$$$
=
 OpenBabel11052414263D

 32 37  0  0  1  0  0  0  0  0999 V2000
  188.8230  177.5440  141.5000 N   0  0  2  0  0  0  0  0  0  0  0  0
  187.2420  178.1670  139.7460 C   0  0  0  0  0  0  0  0  0  0  0  0
  190.2560  177.5230  141.8040 C   0  0  0  0  0  2  0  0  0  0  0  0
  188.6860  178.0390  140.1200 C   0  0  2  0  0  3  0  0  0  0  0  0
  186.8290  178.0140  138.4210 C   0  0  0  0  0  0  0  0  0  0  0  0
  182.5350  178.8120  141.0190 C   0  0  0  0  0  2  0  0  0  0  0  0
  186.3160  178.4980  140.7320 C   0  0  0  0  0  0  0  0  0  0  0  0
  183.1470  178.6180  138.6140 C   0  0  0  0  0  2  0  0  0  0  0  0
  184.5870  178.5190  139.0340 C   0  0  0  0  0  0  0  0  0  0  0  0
  189.4060  177.1230  139.1600 C   0  0  0  0  0  0  0  0  0  0  0  0
  185.5200  178.1900  138.0970 N   0  0  0  0  0  0  0  0  0  0  0  0
  189.0060  176.9860  137.9280 N   0  0  0  0  0  0  0  0  0  0  0  0
  190.5810  176.4450  139.6120 N   0  0  0  0  0  2  0  0  0  0  0  0
  186.7560  178.6280  142.0550 O   0  0  0  0  0  0  0  0  0  0  0  0
  188.1390  178.4860  142.4080 C   0  0  1  0  0  3  0  0  0  0  0  0
  184.9680  178.6610  140.3910 C   0  0  0  0  0  0  0  0  0  0  0  0
  187.8470  177.6950  137.3610 C   0  0  2  0  0  3  0  0  0  0  0  0
  190.9160  176.3770  141.0340 C   0  0  0  0  0  2  0  0  0  0  0  0
  182.2980  179.3790  139.6280 C   0  0  0  0  0  2  0  0  0  0  0  0
  183.9760  179.0820  141.4430 C   0  0  0  0  0  2  0  0  0  0  0  0
  189.4260  177.8220  145.9580 C   0  0  0  0  0  0  0  0  0  0  0  0
  190.5400  178.0130  146.7120 F   0  0  0  0  0  0  0  0  0  0  0  0
  187.1540  177.0070  145.7460 C   0  0  0  0  0  3  0  0  0  0  0  0
  188.2380  178.0530  143.8460 C   0  0  0  0  0  0  0  0  0  0  0  0
  188.3040  177.1930  146.5170 C   0  0  0  0  0  0  0  0  0  0  0  0
  187.1240  177.4310  144.4180 C   0  0  0  0  0  3  0  0  0  0  0  0
  189.4030  178.2500  144.6220 C   0  0  0  0  0  0  0  0  0  0  0  0
  190.8350  179.0270  143.9530 Cl  0  0  0  0  0  0  0  0  0  0  0  0
  188.1180  177.8550  148.7750 O   0  0  0  0  0  1  0  0  0  0  0  0
  188.3060  176.7530  147.9410 C   0  0  0  0  0  2  0  0  0  0  0  0
  188.3010  178.9790  136.6850 C   0  0  0  0  0  2  0  0  0  0  0  0
  189.0520  179.7450  137.5780 O   0  0  0  0  0  1  0  0  0  0  0  0
  1  3  1  1  0  0  0
  1 15  1  0  0  0  0
  2  4  1  0  0  0  0
  2  7  1  0  0  0  0
  4 10  1  6  0  0  0
  4  1  1  0  0  0  0
  5  2  2  0  0  0  0
  6 20  1  0  0  0  0
  7 14  1  0  0  0  0
  8  9  1  0  0  0  0
  8 19  1  0  0  0  0
  9 16  1  0  0  0  0
 10 13  1  0  0  0  0
 11  5  1  0  0  0  0
 11  9  2  0  0  0  0
 12 10  2  0  0  0  0
 13 18  1  0  0  0  0
 14 15  1  0  0  0  0
 15 24  1  1  0  0  0
 16  7  2  0  0  0  0
 16 20  1  0  0  0  0
 17 31  1  1  0  0  0
 17 12  1  0  0  0  0
 17  5  1  0  0  0  0
 18  3  1  0  0  0  0
 19  6  1  0  0  0  0
 21 25  1  0  0  0  0
 21 22  1  0  0  0  0
 23 25  2  0  0  0  0
 24 26  2  0  0  0  0
 24 27  1  0  0  0  0
 25 30  1  0  0  0  0
 26 23  1  0  0  0  0
 27 21  2  0  0  0  0
 28 27  1  0  0  0  0
 30 29  1  0  0  0  0
 31 32  1  0  0  0  0
M  END
>  <MODEL>
8

>  <REMARK>
 VINA RESULT:      -8.8      2.573      4.946
  Name = 
  3 active torsions:
  status: ('A' for Active; 'I' for Inactive)
    1  A    between atoms: C_13  and  CA_29
    2  A    between atoms: C_16  and  C_27
    3  A    between atoms: C_19  and  C_26
                            x       y       z     vdW  Elec       q    Type
                         _______ _______ _______ _____ _____    ______ ____

>  <TORSDO>
F 3

$$$$
=
 OpenBabel11052414263D

 32 37  0  0  1  0  0  0  0  0999 V2000
  186.4070  178.2720  142.7420 N   0  0  2  0  0  0  0  0  0  0  0  0
  186.9940  177.9600  140.3920 C   0  0  0  0  0  0  0  0  0  0  0  0
  185.2630  178.2460  143.6570 C   0  0  0  0  0  2  0  0  0  0  0  0
  185.8790  178.0260  141.3900 C   0  0  2  0  0  3  0  0  0  0  0  0
  186.7910  178.3410  139.0650 C   0  0  0  0  0  0  0  0  0  0  0  0
  191.7090  177.0830  139.3000 C   0  0  0  0  0  2  0  0  0  0  0  0
  188.2290  177.4580  140.7930 C   0  0  0  0  0  0  0  0  0  0  0  0
  190.1170  177.6980  137.4880 C   0  0  0  0  0  2  0  0  0  0  0  0
  189.0230  177.7270  138.5200 C   0  0  0  0  0  0  0  0  0  0  0  0
  184.8880  179.0990  141.0100 C   0  0  0  0  0  0  0  0  0  0  0  0
  187.8040  178.2200  138.1650 N   0  0  0  0  0  0  0  0  0  0  0  0
  184.7130  179.4480  139.7670 N   0  0  0  0  0  0  0  0  0  0  0  0
  184.0930  179.6920  142.0400 N   0  0  0  0  0  2  0  0  0  0  0  0
  188.4100  177.1000  142.1350 O   0  0  0  0  0  0  0  0  0  0  0  0
  187.3420  177.1830  143.0880 C   0  0  1  0  0  3  0  0  0  0  0  0
  189.2700  177.3520  139.8620 C   0  0  0  0  0  0  0  0  0  0  0  0
  185.4400  178.8460  138.6380 C   0  0  2  0  0  3  0  0  0  0  0  0
  184.4270  179.5110  143.4530 C   0  0  0  0  0  2  0  0  0  0  0  0
  191.2600  176.7680  137.8810 C   0  0  0  0  0  2  0  0  0  0  0  0
  190.5870  176.7480  140.2780 C   0  0  0  0  0  2  0  0  0  0  0  0
  189.7220  177.1650  146.0940 C   0  0  0  0  0  0  0  0  0  0  0  0
  190.9920  176.8030  146.4110 F   0  0  0  0  0  0  0  0  0  0  0  0
  187.5890  178.1130  146.7460 C   0  0  0  0  0  3  0  0  0  0  0  0
  187.9230  177.3580  144.4650 C   0  0  0  0  0  0  0  0  0  0  0  0
  188.8920  177.7290  147.0740 C   0  0  0  0  0  0  0  0  0  0  0  0
  187.1090  177.9240  145.4500 C   0  0  0  0  0  3  0  0  0  0  0  0
  189.2440  176.9720  144.7900 C   0  0  0  0  0  0  0  0  0  0  0  0
  190.3140  176.2530  143.5890 Cl  0  0  0  0  0  0  0  0  0  0  0  0
  188.3160  178.1650  149.3210 O   0  0  0  0  0  1  0  0  0  0  0  0
  189.3930  177.9610  148.4580 C   0  0  0  0  0  2  0  0  0  0  0  0
  184.6300  177.7020  138.0490 C   0  0  0  0  0  2  0  0  0  0  0  0
  183.2870  178.0680  137.9570 O   0  0  0  0  0  1  0  0  0  0  0  0
  1 15  1  0  0  0  0
  1  3  1  1  0  0  0
  2  7  1  0  0  0  0
  4  2  1  6  0  0  0
  4  1  1  0  0  0  0
  5  2  2  0  0  0  0
  6 20  1  0  0  0  0
  7 14  1  0  0  0  0
  8 19  1  0  0  0  0
  8  9  1  0  0  0  0
  9 16  1  0  0  0  0
 10  4  1  0  0  0  0
 10 13  1  0  0  0  0
 11  9  2  0  0  0  0
 11  5  1  0  0  0  0
 12 10  2  0  0  0  0
 13 18  1  0  0  0  0
 14 15  1  0  0  0  0
 15 24  1  1  0  0  0
 16 20  1  0  0  0  0
 16  7  2  0  0  0  0
 17 31  1  1  0  0  0
 17  5  1  0  0  0  0
 17 12  1  0  0  0  0
 18  3  1  0  0  0  0
 19  6  1  0  0  0  0
 21 22  1  0  0  0  0
 21 25  1  0  0  0  0
 23 25  2  0  0  0  0
 24 27  1  0  0  0  0
 24 26  2  0  0  0  0
 25 30  1  0  0  0  0
 26 23  1  0  0  0  0
 27 21  2  0  0  0  0
 28 27  1  0  0  0  0
 30 29  1  0  0  0  0
 32 31  1  0  0  0  0
M  END
>  <MODEL>
9

>  <REMARK>
 VINA RESULT:      -8.6      1.747      2.295
  Name = 
  3 active torsions:
  status: ('A' for Active; 'I' for Inactive)
    1  A    between atoms: C_13  and  CA_29
    2  A    between atoms: C_16  and  C_27
    3  A    between atoms: C_19  and  C_26
                            x       y       z     vdW  Elec       q    Type
                         _______ _______ _______ _____ _____    ______ ____

>  <TORSDO>
F 3

$$$$
