=
 OpenBabel11052413033D

 31 36  0  0  1  0  0  0  0  0999 V2000
  185.1970  178.3660  145.3300 C   0  0  0  0  0  0  0  0  0  0  0  0
  188.6510  177.7490  143.9980 C   0  0  0  0  0  0  0  0  0  0  0  0
  189.4890  177.3640  145.1840 C   0  0  0  0  0  0  0  0  0  0  0  0
  189.8260  177.3630  147.7480 C   0  0  0  0  0  3  0  0  0  0  0  0
  187.2690  178.0720  144.0780 C   0  0  0  0  0  0  0  0  0  0  0  0
  184.5220  178.6980  144.1560 C   0  0  0  0  0  3  0  0  0  0  0  0
  189.0810  177.6900  146.5590 C   0  0  0  0  0  3  0  0  0  0  0  0
  188.5220  178.0910  141.5790 C   0  0  0  0  0  0  0  0  0  0  0  0
  184.5000  178.3440  146.5690 N   0  0  0  0  0  1  0  0  0  0  0  0
  191.1860  176.3380  143.5380 C   0  0  0  0  0  2  0  0  0  0  0  0
  190.9690  176.7100  147.4020 C   0  0  0  0  0  0  0  0  0  0  0  0
  187.2070  178.4030  141.6980 N   0  0  0  0  0  0  0  0  0  0  0  0
  189.2680  177.7410  142.7180 C   0  0  0  0  0  0  0  0  0  0  0  0
  186.5580  178.0530  145.2890 C   0  0  0  0  0  3  0  0  0  0  0  0
  192.1750  176.0330  147.1700 C   0  0  0  0  0  2  0  0  0  0  0  0
  186.5690  178.4020  142.8930 C   0  0  0  0  0  0  0  0  0  0  0  0
  185.2060  178.7150  142.9400 C   0  0  0  0  0  3  0  0  0  0  0  0
  190.7430  177.4370  142.5790 C   0  0  0  0  0  2  0  0  0  0  0  0
  190.7340  176.6880  144.9130 C   0  0  0  0  0  0  0  0  0  0  0  0
  191.4060  176.3870  146.0510 C   0  0  0  0  0  0  0  0  0  0  0  0
  189.1380  178.0970  140.2180 C   0  0  0  0  0  2  0  0  0  0  0  0
  190.5830  176.4250  139.0800 C   0  0  0  0  0  2  0  0  0  0  0  0
  189.2070  176.6750  139.6700 C   0  0  2  0  0  3  0  0  0  0  0  0
  189.3960  176.5760  138.1510 C   0  0  1  0  0  3  0  0  0  0  0  0
  189.4850  177.9120  137.4200 C   0  0  0  0  0  2  0  0  0  0  0  0
  188.4690  177.5460  134.9570 S   0  0  0  0  0  0  0  0  0  0  0  0
  188.3230  178.0680  136.5030 C   0  0  0  0  0  0  0  0  0  0  0  0
  187.1570  178.7630  136.9750 N   0  0  0  0  0  2  0  0  0  0  0  0
  186.0620  178.2210  137.7220 C   0  0  0  0  0  0  0  0  0  0  0  0
  185.5040  178.9170  138.8320 N   0  0  0  0  0  1  0  0  0  0  0  0
  185.3100  176.8830  137.1650 S   0  0  0  0  0  0  0  0  0  0  0  0
  1  9  1  0  0  0  0
  2  5  1  0  0  0  0
  2  3  1  0  0  0  0
  3  7  1  0  0  0  0
  5 14  2  0  0  0  0
  6  1  2  0  0  0  0
  7  4  2  0  0  0  0
  8 12  2  0  0  0  0
  8 13  1  0  0  0  0
 10 19  1  0  0  0  0
 11  4  1  0  0  0  0
 12 16  1  0  0  0  0
 13  2  2  0  0  0  0
 14  1  1  0  0  0  0
 15 11  1  0  0  0  0
 16 17  2  0  0  0  0
 16  5  1  0  0  0  0
 17  6  1  0  0  0  0
 18 13  1  0  0  0  0
 18 10  1  0  0  0  0
 19  3  2  0  0  0  0
 19 20  1  0  0  0  0
 20 15  1  0  0  0  0
 20 11  2  0  0  0  0
 21  8  1  0  0  0  0
 22 23  1  0  0  0  0
 23 21  1  6  0  0  0
 24 25  1  6  0  0  0
 24 22  1  0  0  0  0
 24 23  1  0  0  0  0
 26 27  2  0  0  0  0
 27 28  1  0  0  0  0
 27 25  1  0  0  0  0
 28 29  1  0  0  0  0
 29 30  1  0  0  0  0
 31 29  2  0  0  0  0
M  END
>  <MODEL>
1

>  <REMARK>
 VINA RESULT:     -10.1      0.000      0.000
  Name = 
  6 active torsions:
  status: ('A' for Active; 'I' for Inactive)
    1  A    between atoms: C_1  and  N_24
    2  A    between atoms: C_3  and  C_19
    3  A    between atoms: C_3  and  C_22
    4  A    between atoms: C_9  and  C_23
    5  A    between atoms: C_15  and  C_23
    6  A    between atoms: C_19  and  N_24
                            x       y       z     vdW  Elec       q    Type
                         _______ _______ _______ _____ _____    ______ ____

>  <TORSDO>
F 6

$$$$
=
 OpenBabel11052413033D

 31 36  0  0  1  0  0  0  0  0999 V2000
  185.3090  178.3890  145.2810 C   0  0  0  0  0  0  0  0  0  0  0  0
  188.7330  177.5190  144.0140 C   0  0  0  0  0  0  0  0  0  0  0  0
  189.5630  177.2320  145.2330 C   0  0  0  0  0  0  0  0  0  0  0  0
  189.9140  177.4870  147.7820 C   0  0  0  0  0  3  0  0  0  0  0  0
  187.3630  177.8950  144.0630 C   0  0  0  0  0  0  0  0  0  0  0  0
  184.6390  178.6200  144.0790 C   0  0  0  0  0  3  0  0  0  0  0  0
  189.1740  177.7130  146.5670 C   0  0  0  0  0  3  0  0  0  0  0  0
  188.6030  177.6110  141.5740 C   0  0  0  0  0  0  0  0  0  0  0  0
  184.6180  178.5200  146.5170 N   0  0  0  0  0  1  0  0  0  0  0  0
  191.2160  175.9820  143.7000 C   0  0  0  0  0  2  0  0  0  0  0  0
  191.0330  176.7630  147.5050 C   0  0  0  0  0  0  0  0  0  0  0  0
  187.3000  177.9780  141.6610 N   0  0  0  0  0  0  0  0  0  0  0  0
  189.3430  177.3560  142.7420 C   0  0  0  0  0  0  0  0  0  0  0  0
  186.6580  178.0280  145.2710 C   0  0  0  0  0  3  0  0  0  0  0  0
  192.2140  176.0240  147.3430 C   0  0  0  0  0  2  0  0  0  0  0  0
  186.6680  178.1230  142.8510 C   0  0  0  0  0  0  0  0  0  0  0  0
  185.3170  178.4860  142.8670 C   0  0  0  0  0  3  0  0  0  0  0  0
  190.8060  176.9890  142.6320 C   0  0  0  0  0  2  0  0  0  0  0  0
  190.7840  176.4890  145.0320 C   0  0  0  0  0  0  0  0  0  0  0  0
  191.4520  176.2860  146.1950 C   0  0  0  0  0  0  0  0  0  0  0  0
  189.2120  177.4540  140.2180 C   0  0  0  0  0  2  0  0  0  0  0  0
  187.7590  178.0050  138.2770 C   0  0  0  0  0  2  0  0  0  0  0  0
  188.7300  178.5710  139.2970 C   0  0  2  0  0  3  0  0  0  0  0  0
  189.1450  178.4210  137.8280 C   0  0  1  0  0  3  0  0  0  0  0  0
  189.9750  177.1810  137.5110 C   0  0  0  0  0  2  0  0  0  0  0  0
  189.4990  177.0980  134.8650 S   0  0  0  0  0  0  0  0  0  0  0  0
  189.3740  176.4470  136.3640 C   0  0  0  0  0  0  0  0  0  0  0  0
  188.6190  175.2530  136.6250 N   0  0  0  0  0  2  0  0  0  0  0  0
  189.1260  173.9300  136.8350 C   0  0  0  0  0  0  0  0  0  0  0  0
  190.4630  173.7090  137.2720 N   0  0  0  0  0  1  0  0  0  0  0  0
  188.0930  172.6670  136.7710 S   0  0  0  0  0  0  0  0  0  0  0  0
  1  9  1  0  0  0  0
  2  5  1  0  0  0  0
  2  3  1  0  0  0  0
  3  7  1  0  0  0  0
  5 14  2  0  0  0  0
  6  1  2  0  0  0  0
  7  4  2  0  0  0  0
  8 12  2  0  0  0  0
  8 13  1  0  0  0  0
 10 19  1  0  0  0  0
 11  4  1  0  0  0  0
 12 16  1  0  0  0  0
 13  2  2  0  0  0  0
 14  1  1  0  0  0  0
 15 11  1  0  0  0  0
 16 17  2  0  0  0  0
 16  5  1  0  0  0  0
 17  6  1  0  0  0  0
 18 13  1  0  0  0  0
 18 10  1  0  0  0  0
 19  3  2  0  0  0  0
 19 20  1  0  0  0  0
 20 15  1  0  0  0  0
 20 11  2  0  0  0  0
 21  8  1  0  0  0  0
 22 23  1  0  0  0  0
 23 21  1  1  0  0  0
 24 25  1  1  0  0  0
 24 22  1  0  0  0  0
 24 23  1  0  0  0  0
 26 27  2  0  0  0  0
 27 28  1  0  0  0  0
 27 25  1  0  0  0  0
 28 29  1  0  0  0  0
 29 30  1  0  0  0  0
 31 29  2  0  0  0  0
M  END
>  <MODEL>
2

>  <REMARK>
 VINA RESULT:      -9.9      1.776      2.195
  Name = 
  6 active torsions:
  status: ('A' for Active; 'I' for Inactive)
    1  A    between atoms: C_1  and  N_24
    2  A    between atoms: C_3  and  C_19
    3  A    between atoms: C_3  and  C_22
    4  A    between atoms: C_9  and  C_23
    5  A    between atoms: C_15  and  C_23
    6  A    between atoms: C_19  and  N_24
                            x       y       z     vdW  Elec       q    Type
                         _______ _______ _______ _____ _____    ______ ____

>  <TORSDO>
F 6

$$$$
=
 OpenBabel11052413033D

 31 36  0  0  1  0  0  0  0  0999 V2000
  185.4880  178.3310  145.2260 C   0  0  0  0  0  0  0  0  0  0  0  0
  188.9380  177.4340  144.0500 C   0  0  0  0  0  0  0  0  0  0  0  0
  189.7430  177.1730  145.2910 C   0  0  0  0  0  0  0  0  0  0  0  0
  190.0390  177.4810  147.8420 C   0  0  0  0  0  3  0  0  0  0  0  0
  187.5680  177.8120  144.0620 C   0  0  0  0  0  0  0  0  0  0  0  0
  184.8440  178.5370  144.0050 C   0  0  0  0  0  3  0  0  0  0  0  0
  189.3250  177.6820  146.6070 C   0  0  0  0  0  3  0  0  0  0  0  0
  188.8600  177.4760  141.6060 C   0  0  0  0  0  0  0  0  0  0  0  0
  184.7720  178.4880  146.4440 N   0  0  0  0  0  1  0  0  0  0  0  0
  191.4270  175.8920  143.8210 C   0  0  0  0  0  2  0  0  0  0  0  0
  191.1640  176.7520  147.6030 C   0  0  0  0  0  0  0  0  0  0  0  0
  187.5550  177.8450  141.6580 N   0  0  0  0  0  0  0  0  0  0  0  0
  189.5750  177.2450  142.7940 C   0  0  0  0  0  0  0  0  0  0  0  0
  186.8380  177.9700  145.2520 C   0  0  0  0  0  3  0  0  0  0  0  0
  192.3470  176.0100  147.4820 C   0  0  0  0  0  2  0  0  0  0  0  0
  186.8990  178.0150  142.8310 C   0  0  0  0  0  0  0  0  0  0  0  0
  185.5470  178.3770  142.8110 C   0  0  0  0  0  3  0  0  0  0  0  0
  191.0400  176.8760  142.7230 C   0  0  0  0  0  2  0  0  0  0  0  0
  190.9670  176.4260  145.1320 C   0  0  0  0  0  0  0  0  0  0  0  0
  191.6100  176.2470  146.3130 C   0  0  0  0  0  0  0  0  0  0  0  0
  189.4970  177.2910  140.2670 C   0  0  0  0  0  2  0  0  0  0  0  0
  187.9190  177.6210  138.3750 C   0  0  0  0  0  2  0  0  0  0  0  0
  188.9320  178.3030  139.2750 C   0  0  2  0  0  3  0  0  0  0  0  0
  189.2640  178.0220  137.8040 C   0  0  1  0  0  3  0  0  0  0  0  0
  190.1070  176.7750  137.5560 C   0  0  0  0  0  2  0  0  0  0  0  0
  189.3890  177.2240  135.0040 S   0  0  0  0  0  0  0  0  0  0  0  0
  190.4660  176.6830  136.1140 C   0  0  0  0  0  0  0  0  0  0  0  0
  191.6900  176.0290  135.7460 N   0  0  0  0  0  2  0  0  0  0  0  0
  192.7840  175.6800  136.6030 C   0  0  0  0  0  0  0  0  0  0  0  0
  193.6700  176.6700  137.1150 N   0  0  0  0  0  1  0  0  0  0  0  0
  192.8900  174.1520  137.1660 S   0  0  0  0  0  0  0  0  0  0  0  0
  1 14  1  0  0  0  0
  1  9  1  0  0  0  0
  2  5  1  0  0  0  0
  2  3  1  0  0  0  0
  3  7  1  0  0  0  0
  5 14  2  0  0  0  0
  6  1  2  0  0  0  0
  7  4  2  0  0  0  0
  8 12  2  0  0  0  0
  8 13  1  0  0  0  0
 10 19  1  0  0  0  0
 11  4  1  0  0  0  0
 12 16  1  0  0  0  0
 13  2  2  0  0  0  0
 15 11  1  0  0  0  0
 16  5  1  0  0  0  0
 17 16  2  0  0  0  0
 17  6  1  0  0  0  0
 18 13  1  0  0  0  0
 18 10  1  0  0  0  0
 19  3  2  0  0  0  0
 19 20  1  0  0  0  0
 20 15  1  0  0  0  0
 20 11  2  0  0  0  0
 21  8  1  0  0  0  0
 22 23  1  0  0  0  0
 23 21  1  1  0  0  0
 24 25  1  1  0  0  0
 24 22  1  0  0  0  0
 24 23  1  0  0  0  0
 26 27  2  0  0  0  0
 27 25  1  0  0  0  0
 28 27  1  0  0  0  0
 28 29  1  0  0  0  0
 29 30  1  0  0  0  0
 29 31  2  0  0  0  0
M  END
>  <MODEL>
3

>  <REMARK>
 VINA RESULT:      -9.7      2.119      2.842
  Name = 
  6 active torsions:
  status: ('A' for Active; 'I' for Inactive)
    1  A    between atoms: C_1  and  N_24
    2  A    between atoms: C_3  and  C_19
    3  A    between atoms: C_3  and  C_22
    4  A    between atoms: C_9  and  C_23
    5  A    between atoms: C_15  and  C_23
    6  A    between atoms: C_19  and  N_24
                            x       y       z     vdW  Elec       q    Type
                         _______ _______ _______ _____ _____    ______ ____

>  <TORSDO>
F 6

$$$$
=
 OpenBabel11052413033D

 31 36  0  0  1  0  0  0  0  0999 V2000
  190.5200  177.4540  141.9460 C   0  0  0  0  0  0  0  0  0  0  0  0
  187.4450  177.9040  144.0510 C   0  0  0  0  0  0  0  0  0  0  0  0
  187.8940  177.7540  145.4760 C   0  0  0  0  0  0  0  0  0  0  0  0
  189.6540  176.8860  147.1620 C   0  0  0  0  0  3  0  0  0  0  0  0
  188.3160  177.7960  142.9330 C   0  0  0  0  0  0  0  0  0  0  0  0
  189.9860  177.6240  140.6690 C   0  0  0  0  0  3  0  0  0  0  0  0
  189.1530  177.0770  145.8250 C   0  0  0  0  0  3  0  0  0  0  0  0
  185.6150  178.3730  142.4970 C   0  0  0  0  0  0  0  0  0  0  0  0
  191.9080  177.1920  142.1080 N   0  0  0  0  0  1  0  0  0  0  0  0
  185.7350  178.9650  146.1900 C   0  0  0  0  0  2  0  0  0  0  0  0
  188.7780  177.4240  148.0550 C   0  0  0  0  0  0  0  0  0  0  0  0
  186.4750  178.2530  141.4550 N   0  0  0  0  0  0  0  0  0  0  0  0
  186.0800  178.2200  143.8150 C   0  0  0  0  0  0  0  0  0  0  0  0
  189.6910  177.5420  143.0670 C   0  0  0  0  0  3  0  0  0  0  0  0
  187.9560  177.9390  149.0680 C   0  0  0  0  0  2  0  0  0  0  0  0
  187.7900  177.9760  141.6310 C   0  0  0  0  0  0  0  0  0  0  0  0
  188.6250  177.8860  140.5110 C   0  0  0  0  0  3  0  0  0  0  0  0
  185.1030  178.3130  144.9660 C   0  0  0  0  0  2  0  0  0  0  0  0
  187.0170  178.2730  146.4970 C   0  0  0  0  0  0  0  0  0  0  0  0
  187.5200  178.0860  147.7420 C   0  0  0  0  0  0  0  0  0  0  0  0
  184.1860  178.7010  142.2100 C   0  0  0  0  0  2  0  0  0  0  0  0
  183.1220  179.0750  139.9940 C   0  0  0  0  0  2  0  0  0  0  0  0
  183.7490  178.0380  140.9070 C   0  0  2  0  0  3  0  0  0  0  0  0
  182.2360  178.0390  140.6560 C   0  0  1  0  0  3  0  0  0  0  0  0
  181.3990  178.7020  141.7460 C   0  0  0  0  0  2  0  0  0  0  0  0
  179.0800  179.8010  140.9390 S   0  0  0  0  0  0  0  0  0  0  0  0
  179.9500  178.5130  141.4590 C   0  0  0  0  0  0  0  0  0  0  0  0
  179.3470  177.2420  141.7470 N   0  0  0  0  0  2  0  0  0  0  0  0
  179.2250  176.1160  140.8700 C   0  0  0  0  0  0  0  0  0  0  0  0
  179.0110  174.8020  141.3740 N   0  0  0  0  0  1  0  0  0  0  0  0
  179.1220  176.3750  139.2610 S   0  0  0  0  0  0  0  0  0  0  0  0
  1  9  1  0  0  0  0
  1 14  1  0  0  0  0
  2  3  1  0  0  0  0
  3  7  2  0  0  0  0
  3 19  1  0  0  0  0
  4 11  2  0  0  0  0
  5 14  2  0  0  0  0
  5  2  1  0  0  0  0
  6  1  2  0  0  0  0
  7  4  1  0  0  0  0
  8 13  1  0  0  0  0
 10 19  1  0  0  0  0
 11 15  1  0  0  0  0
 12 16  1  0  0  0  0
 12  8  2  0  0  0  0
 13  2  2  0  0  0  0
 13 18  1  0  0  0  0
 16  5  1  0  0  0  0
 17  6  1  0  0  0  0
 17 16  2  0  0  0  0
 18 10  1  0  0  0  0
 19 20  2  0  0  0  0
 20 11  1  0  0  0  0
 20 15  1  0  0  0  0
 21  8  1  0  0  0  0
 22 24  1  0  0  0  0
 22 23  1  0  0  0  0
 23 21  1  1  0  0  0
 24 23  1  0  0  0  0
 24 25  1  1  0  0  0
 26 27  2  0  0  0  0
 27 25  1  0  0  0  0
 27 28  1  0  0  0  0
 29 30  1  0  0  0  0
 29 28  1  0  0  0  0
 31 29  2  0  0  0  0
M  END
>  <MODEL>
4

>  <REMARK>
 VINA RESULT:      -9.6      3.554      6.033
  Name = 
  6 active torsions:
  status: ('A' for Active; 'I' for Inactive)
    1  A    between atoms: C_1  and  N_24
    2  A    between atoms: C_3  and  C_19
    3  A    between atoms: C_3  and  C_22
    4  A    between atoms: C_9  and  C_23
    5  A    between atoms: C_15  and  C_23
    6  A    between atoms: C_19  and  N_24
                            x       y       z     vdW  Elec       q    Type
                         _______ _______ _______ _____ _____    ______ ____

>  <TORSDO>
F 6

$$$$
=
 OpenBabel11052413033D

 31 36  0  0  1  0  0  0  0  0999 V2000
  190.4070  177.5040  141.9400 C   0  0  0  0  0  0  0  0  0  0  0  0
  187.3760  177.9290  144.1140 C   0  0  0  0  0  0  0  0  0  0  0  0
  187.8560  177.7650  145.5280 C   0  0  0  0  0  0  0  0  0  0  0  0
  189.6520  176.8830  147.1670 C   0  0  0  0  0  3  0  0  0  0  0  0
  188.2240  177.8340  142.9760 C   0  0  0  0  0  0  0  0  0  0  0  0
  189.8460  177.6860  140.6750 C   0  0  0  0  0  3  0  0  0  0  0  0
  189.1230  177.0870  145.8420 C   0  0  0  0  0  3  0  0  0  0  0  0
  185.5140  178.4110  142.6030 C   0  0  0  0  0  0  0  0  0  0  0  0
  191.7980  177.2420  142.0700 N   0  0  0  0  0  1  0  0  0  0  0  0
  185.7110  178.9670  146.2990 C   0  0  0  0  0  2  0  0  0  0  0  0
  188.7950  177.4110  148.0840 C   0  0  0  0  0  0  0  0  0  0  0  0
  186.3520  178.3030  141.5420 N   0  0  0  0  0  0  0  0  0  0  0  0
  186.0070  178.2460  143.9100 C   0  0  0  0  0  0  0  0  0  0  0  0
  189.6010  177.5800  143.0790 C   0  0  0  0  0  3  0  0  0  0  0  0
  187.9940  177.9150  149.1190 C   0  0  0  0  0  2  0  0  0  0  0  0
  187.6700  178.0260  141.6880 C   0  0  0  0  0  0  0  0  0  0  0  0
  188.4810  177.9480  140.5500 C   0  0  0  0  0  3  0  0  0  0  0  0
  185.0540  178.3260  145.0820 C   0  0  0  0  0  2  0  0  0  0  0  0
  187.0000  178.2730  146.5720 C   0  0  0  0  0  0  0  0  0  0  0  0
  187.5300  178.0740  147.8040 C   0  0  0  0  0  0  0  0  0  0  0  0
  184.0790  178.7410  142.3500 C   0  0  0  0  0  2  0  0  0  0  0  0
  183.1260  178.9840  140.0670 C   0  0  0  0  0  2  0  0  0  0  0  0
  183.5800  177.9900  141.1200 C   0  0  2  0  0  3  0  0  0  0  0  0
  182.0880  178.1700  140.8120 C   0  0  1  0  0  3  0  0  0  0  0  0
  181.3300  179.0710  141.7820 C   0  0  0  0  0  2  0  0  0  0  0  0
  178.9670  178.3760  140.7030 S   0  0  0  0  0  0  0  0  0  0  0  0
  180.0490  179.5160  141.1680 C   0  0  0  0  0  0  0  0  0  0  0  0
  179.8530  180.9150  140.9100 N   0  0  0  0  0  2  0  0  0  0  0  0
  179.6950  181.5530  139.6370 C   0  0  0  0  0  0  0  0  0  0  0  0
  178.9310  182.7460  139.4950 N   0  0  0  0  0  1  0  0  0  0  0  0
  180.5740  181.0180  138.3700 S   0  0  0  0  0  0  0  0  0  0  0  0
  1  9  1  0  0  0  0
  1 14  1  0  0  0  0
  2  3  1  0  0  0  0
  3  7  2  0  0  0  0
  3 19  1  0  0  0  0
  4 11  2  0  0  0  0
  5 14  2  0  0  0  0
  5  2  1  0  0  0  0
  6  1  2  0  0  0  0
  7  4  1  0  0  0  0
  8 13  1  0  0  0  0
 10 19  1  0  0  0  0
 11 15  1  0  0  0  0
 12 16  1  0  0  0  0
 12  8  2  0  0  0  0
 13  2  2  0  0  0  0
 13 18  1  0  0  0  0
 16  5  1  0  0  0  0
 17  6  1  0  0  0  0
 17 16  2  0  0  0  0
 18 10  1  0  0  0  0
 19 20  2  0  0  0  0
 20 11  1  0  0  0  0
 20 15  1  0  0  0  0
 21  8  1  0  0  0  0
 22 24  1  0  0  0  0
 22 23  1  0  0  0  0
 23 21  1  1  0  0  0
 24 23  1  0  0  0  0
 24 25  1  1  0  0  0
 26 27  2  0  0  0  0
 27 25  1  0  0  0  0
 28 27  1  0  0  0  0
 29 28  1  0  0  0  0
 30 29  1  0  0  0  0
 31 29  2  0  0  0  0
M  END
>  <MODEL>
5

>  <REMARK>
 VINA RESULT:      -9.5      3.461      5.955
  Name = 
  6 active torsions:
  status: ('A' for Active; 'I' for Inactive)
    1  A    between atoms: C_1  and  N_24
    2  A    between atoms: C_3  and  C_19
    3  A    between atoms: C_3  and  C_22
    4  A    between atoms: C_9  and  C_23
    5  A    between atoms: C_15  and  C_23
    6  A    between atoms: C_19  and  N_24
                            x       y       z     vdW  Elec       q    Type
                         _______ _______ _______ _____ _____    ______ ____

>  <TORSDO>
F 6

$$$$
=
 OpenBabel11052413033D

 31 36  0  0  1  0  0  0  0  0999 V2000
  190.5630  177.0710  145.9850 C   0  0  0  0  0  0  0  0  0  0  0  0
  187.9180  177.8850  143.4500 C   0  0  0  0  0  0  0  0  0  0  0  0
  186.6420  178.0550  144.2240 C   0  0  0  0  0  0  0  0  0  0  0  0
  185.2890  177.6130  146.3830 C   0  0  0  0  0  3  0  0  0  0  0  0
  189.1670  177.5620  144.0470 C   0  0  0  0  0  0  0  0  0  0  0  0
  191.6830  176.9500  145.1620 C   0  0  0  0  0  3  0  0  0  0  0  0
  186.4770  177.5000  145.5760 C   0  0  0  0  0  3  0  0  0  0  0  0
  189.0500  177.9640  141.2830 C   0  0  0  0  0  0  0  0  0  0  0  0
  190.6900  176.8840  147.3890 N   0  0  0  0  0  1  0  0  0  0  0  0
  185.6910  179.3370  142.2010 C   0  0  0  0  0  2  0  0  0  0  0  0
  184.3390  178.3080  145.6980 C   0  0  0  0  0  0  0  0  0  0  0  0
  190.2210  177.6450  141.8880 N   0  0  0  0  0  0  0  0  0  0  0  0
  187.8790  178.1090  142.0480 C   0  0  0  0  0  0  0  0  0  0  0  0
  189.3180  177.3770  145.4310 C   0  0  0  0  0  3  0  0  0  0  0  0
  183.2850  179.0070  145.0930 C   0  0  0  0  0  2  0  0  0  0  0  0
  190.3140  177.4450  143.2250 C   0  0  0  0  0  0  0  0  0  0  0  0
  191.5590  177.1380  143.7850 C   0  0  0  0  0  3  0  0  0  0  0  0
  186.5710  178.4220  141.3560 C   0  0  0  0  0  2  0  0  0  0  0  0
  185.5680  178.7590  143.5680 C   0  0  0  0  0  0  0  0  0  0  0  0
  184.4680  178.8550  144.3550 C   0  0  0  0  0  0  0  0  0  0  0  0
  189.0460  178.1880  139.8060 C   0  0  0  0  0  2  0  0  0  0  0  0
  189.5850  177.1200  137.6260 C   0  0  0  0  0  2  0  0  0  0  0  0
  189.2210  176.8590  139.0760 C   0  0  2  0  0  3  0  0  0  0  0  0
  188.2030  176.5950  137.9590 C   0  0  1  0  0  3  0  0  0  0  0  0
  187.1710  177.6980  137.7480 C   0  0  0  0  0  2  0  0  0  0  0  0
  185.8570  175.6280  136.6420 S   0  0  0  0  0  0  0  0  0  0  0  0
  185.8630  177.1030  137.3580 C   0  0  0  0  0  0  0  0  0  0  0  0
  184.6690  177.8840  137.5260 N   0  0  0  0  0  2  0  0  0  0  0  0
  184.2010  178.5110  138.7250 C   0  0  0  0  0  0  0  0  0  0  0  0
  184.4680  179.8830  138.9980 N   0  0  0  0  0  1  0  0  0  0  0  0
  183.1690  177.6970  139.6930 S   0  0  0  0  0  0  0  0  0  0  0  0
  1  9  1  0  0  0  0
  2  5  1  0  0  0  0
  2  3  1  0  0  0  0
  3  7  1  0  0  0  0
  5 14  2  0  0  0  0
  6  1  2  0  0  0  0
  7  4  2  0  0  0  0
  8 12  2  0  0  0  0
  8 13  1  0  0  0  0
 10 19  1  0  0  0  0
 11  4  1  0  0  0  0
 12 16  1  0  0  0  0
 13  2  2  0  0  0  0
 14  1  1  0  0  0  0
 15 11  1  0  0  0  0
 16 17  2  0  0  0  0
 16  5  1  0  0  0  0
 17  6  1  0  0  0  0
 18 13  1  0  0  0  0
 18 10  1  0  0  0  0
 19  3  2  0  0  0  0
 19 20  1  0  0  0  0
 20 15  1  0  0  0  0
 20 11  2  0  0  0  0
 21  8  1  0  0  0  0
 22 24  1  0  0  0  0
 22 23  1  0  0  0  0
 23 21  1  1  0  0  0
 24 25  1  1  0  0  0
 24 23  1  0  0  0  0
 26 27  2  0  0  0  0
 27 28  1  0  0  0  0
 27 25  1  0  0  0  0
 28 29  1  0  0  0  0
 29 30  1  0  0  0  0
 29 31  2  0  0  0  0
M  END
>  <MODEL>
6

>  <REMARK>
 VINA RESULT:      -9.4      1.851      4.404
  Name = 
  6 active torsions:
  status: ('A' for Active; 'I' for Inactive)
    1  A    between atoms: C_1  and  N_24
    2  A    between atoms: C_3  and  C_19
    3  A    between atoms: C_3  and  C_22
    4  A    between atoms: C_9  and  C_23
    5  A    between atoms: C_15  and  C_23
    6  A    between atoms: C_19  and  N_24
                            x       y       z     vdW  Elec       q    Type
                         _______ _______ _______ _____ _____    ______ ____

>  <TORSDO>
F 6

$$$$
=
 OpenBabel11052413033D

 31 36  0  0  1  0  0  0  0  0999 V2000
  190.1860  177.5280  141.2610 C   0  0  0  0  0  0  0  0  0  0  0  0
  186.6710  178.3000  142.3280 C   0  0  0  0  0  0  0  0  0  0  0  0
  186.6560  178.1730  143.8240 C   0  0  0  0  0  0  0  0  0  0  0  0
  187.7450  177.2390  145.9760 C   0  0  0  0  0  3  0  0  0  0  0  0
  187.8250  178.0800  141.5280 C   0  0  0  0  0  0  0  0  0  0  0  0
  190.0780  177.6870  139.8790 C   0  0  0  0  0  3  0  0  0  0  0  0
  187.6890  177.4140  144.5470 C   0  0  0  0  0  3  0  0  0  0  0  0
  185.4420  178.8480  140.2850 C   0  0  0  0  0  0  0  0  0  0  0  0
  191.4330  177.1650  141.8400 N   0  0  0  0  0  1  0  0  0  0  0  0
  184.4950  179.5770  143.8320 C   0  0  0  0  0  2  0  0  0  0  0  0
  186.6920  177.8790  146.5540 C   0  0  0  0  0  0  0  0  0  0  0  0
  186.5620  178.6200  139.5550 N   0  0  0  0  0  0  0  0  0  0  0  0
  185.4730  178.7120  141.6850 C   0  0  0  0  0  0  0  0  0  0  0  0
  189.0690  177.7250  142.0760 C   0  0  0  0  0  3  0  0  0  0  0  0
  185.6510  178.4960  147.2620 C   0  0  0  0  0  2  0  0  0  0  0  0
  187.7340  178.2480  140.1250 C   0  0  0  0  0  0  0  0  0  0  0  0
  188.8550  178.0480  139.3130 C   0  0  0  0  0  3  0  0  0  0  0  0
  184.2080  178.9280  142.4830 C   0  0  0  0  0  2  0  0  0  0  0  0
  185.5610  178.7990  144.5230 C   0  0  0  0  0  0  0  0  0  0  0  0
  185.6480  178.6230  145.8650 C   0  0  0  0  0  0  0  0  0  0  0  0
  184.2000  179.2750  139.5740 C   0  0  0  0  0  2  0  0  0  0  0  0
  182.5210  178.5800  137.8760 C   0  0  0  0  0  2  0  0  0  0  0  0
  183.5800  178.0870  138.8450 C   0  0  2  0  0  3  0  0  0  0  0  0
  182.0920  177.8530  139.1350 C   0  0  1  0  0  3  0  0  0  0  0  0
  181.4580  178.8430  140.1070 C   0  0  0  0  0  2  0  0  0  0  0  0
  179.6990  176.8700  140.6070 S   0  0  0  0  0  0  0  0  0  0  0  0
  180.6400  178.1130  141.1140 C   0  0  0  0  0  0  0  0  0  0  0  0
  180.6240  178.5880  142.4700 N   0  0  0  0  0  2  0  0  0  0  0  0
  179.8300  179.6500  143.0110 C   0  0  0  0  0  0  0  0  0  0  0  0
  179.6680  180.8830  142.3180 N   0  0  0  0  0  1  0  0  0  0  0  0
  178.9310  179.3650  144.3430 S   0  0  0  0  0  0  0  0  0  0  0  0
  1  9  1  0  0  0  0
  1 14  1  0  0  0  0
  2  3  1  0  0  0  0
  3 19  2  0  0  0  0
  3  7  1  0  0  0  0
  4 11  1  0  0  0  0
  5 14  2  0  0  0  0
  5  2  1  0  0  0  0
  6  1  2  0  0  0  0
  7  4  2  0  0  0  0
  8 13  1  0  0  0  0
 10 19  1  0  0  0  0
 11 15  1  0  0  0  0
 12 16  1  0  0  0  0
 12  8  2  0  0  0  0
 13  2  2  0  0  0  0
 13 18  1  0  0  0  0
 16  5  1  0  0  0  0
 17  6  1  0  0  0  0
 17 16  2  0  0  0  0
 18 10  1  0  0  0  0
 19 20  1  0  0  0  0
 20 11  2  0  0  0  0
 20 15  1  0  0  0  0
 21  8  1  0  0  0  0
 22 23  1  0  0  0  0
 22 24  1  0  0  0  0
 23 24  1  0  0  0  0
 23 21  1  1  0  0  0
 24 25  1  1  0  0  0
 25 27  1  0  0  0  0
 26 27  2  0  0  0  0
 27 28  1  0  0  0  0
 28 29  1  0  0  0  0
 29 31  2  0  0  0  0
 30 29  1  0  0  0  0
M  END
>  <MODEL>
7

>  <REMARK>
 VINA RESULT:      -9.3      3.540      6.392
  Name = 
  6 active torsions:
  status: ('A' for Active; 'I' for Inactive)
    1  A    between atoms: C_1  and  N_24
    2  A    between atoms: C_3  and  C_19
    3  A    between atoms: C_3  and  C_22
    4  A    between atoms: C_9  and  C_23
    5  A    between atoms: C_15  and  C_23
    6  A    between atoms: C_19  and  N_24
                            x       y       z     vdW  Elec       q    Type
                         _______ _______ _______ _____ _____    ______ ____

>  <TORSDO>
F 6

$$$$
=
 OpenBabel11052413033D

 31 36  0  0  1  0  0  0  0  0999 V2000
  183.5250  178.6260  143.0410 C   0  0  0  0  0  0  0  0  0  0  0  0
  187.2410  178.1470  143.2600 C   0  0  0  0  0  0  0  0  0  0  0  0
  187.5410  177.9040  144.7110 C   0  0  0  0  0  0  0  0  0  0  0  0
  186.8150  178.1060  147.1850 C   0  0  0  0  0  3  0  0  0  0  0  0
  185.9340  178.3830  142.7520 C   0  0  0  0  0  0  0  0  0  0  0  0
  183.3700  178.8290  141.6690 C   0  0  0  0  0  3  0  0  0  0  0  0
  186.6030  178.2980  145.7730 C   0  0  0  0  0  3  0  0  0  0  0  0
  188.0870  178.3090  140.9710 C   0  0  0  0  0  0  0  0  0  0  0  0
  182.3880  178.6450  143.8950 N   0  0  0  0  0  1  0  0  0  0  0  0
  189.7900  176.8790  143.9810 C   0  0  0  0  0  2  0  0  0  0  0  0
  188.0220  177.5080  147.3860 C   0  0  0  0  0  0  0  0  0  0  0  0
  186.8270  178.5400  140.5250 N   0  0  0  0  0  0  0  0  0  0  0  0
  188.3220  178.0900  142.3400 C   0  0  0  0  0  0  0  0  0  0  0  0
  184.7960  178.4030  143.5750 C   0  0  0  0  0  3  0  0  0  0  0  0
  189.2400  176.8970  147.7180 C   0  0  0  0  0  2  0  0  0  0  0  0
  185.7610  178.5810  141.3610 C   0  0  0  0  0  0  0  0  0  0  0  0
  184.4860  178.8050  140.8310 C   0  0  0  0  0  3  0  0  0  0  0  0
  189.7370  177.8760  142.8290 C   0  0  0  0  0  2  0  0  0  0  0  0
  188.8110  177.2950  145.0230 C   0  0  0  0  0  0  0  0  0  0  0  0
  188.9760  177.1200  146.3580 C   0  0  0  0  0  0  0  0  0  0  0  0
  189.1990  178.2600  139.9740 C   0  0  0  0  0  2  0  0  0  0  0  0
  191.2410  176.9090  139.5410 C   0  0  0  0  0  2  0  0  0  0  0  0
  189.7660  176.8460  139.8930 C   0  0  2  0  0  3  0  0  0  0  0  0
  190.2520  176.4230  138.5010 C   0  0  1  0  0  3  0  0  0  0  0  0
  190.0950  177.4780  137.4110 C   0  0  0  0  0  2  0  0  0  0  0  0
  189.7420  176.7520  134.8450 S   0  0  0  0  0  0  0  0  0  0  0  0
  189.1620  176.9870  136.3600 C   0  0  0  0  0  0  0  0  0  0  0  0
  187.7700  176.8400  136.6830 N   0  0  0  0  0  2  0  0  0  0  0  0
  186.8300  177.8780  136.9810 C   0  0  0  0  0  0  0  0  0  0  0  0
  187.1790  179.2530  136.8560 N   0  0  0  0  0  1  0  0  0  0  0  0
  185.2740  177.4780  137.2690 S   0  0  0  0  0  0  0  0  0  0  0  0
  1 14  1  0  0  0  0
  1  9  1  0  0  0  0
  2  3  1  0  0  0  0
  3 19  2  0  0  0  0
  3  7  1  0  0  0  0
  4 11  1  0  0  0  0
  5  2  1  0  0  0  0
  5 14  2  0  0  0  0
  6  1  2  0  0  0  0
  7  4  2  0  0  0  0
  8 13  1  0  0  0  0
 10 19  1  0  0  0  0
 11 15  1  0  0  0  0
 12  8  2  0  0  0  0
 12 16  1  0  0  0  0
 13 18  1  0  0  0  0
 13  2  2  0  0  0  0
 16  5  1  0  0  0  0
 17 16  2  0  0  0  0
 17  6  1  0  0  0  0
 18 10  1  0  0  0  0
 19 20  1  0  0  0  0
 20 11  2  0  0  0  0
 20 15  1  0  0  0  0
 21  8  1  0  0  0  0
 22 23  1  0  0  0  0
 23 21  1  6  0  0  0
 24 25  1  6  0  0  0
 24 22  1  0  0  0  0
 24 23  1  0  0  0  0
 26 27  2  0  0  0  0
 27 28  1  0  0  0  0
 27 25  1  0  0  0  0
 28 29  1  0  0  0  0
 29 31  2  0  0  0  0
 30 29  1  0  0  0  0
M  END
>  <MODEL>
8

>  <REMARK>
 VINA RESULT:      -9.3      1.384      2.011
  Name = 
  6 active torsions:
  status: ('A' for Active; 'I' for Inactive)
    1  A    between atoms: C_1  and  N_24
    2  A    between atoms: C_3  and  C_19
    3  A    between atoms: C_3  and  C_22
    4  A    between atoms: C_9  and  C_23
    5  A    between atoms: C_15  and  C_23
    6  A    between atoms: C_19  and  N_24
                            x       y       z     vdW  Elec       q    Type
                         _______ _______ _______ _____ _____    ______ ____

>  <TORSDO>
F 6

$$$$
=
 OpenBabel11052413033D

 31 36  0  0  1  0  0  0  0  0999 V2000
  190.4330  177.1280  146.3000 C   0  0  0  0  0  0  0  0  0  0  0  0
  187.9990  177.7790  143.5170 C   0  0  0  0  0  0  0  0  0  0  0  0
  186.6890  178.0980  144.1810 C   0  0  0  0  0  0  0  0  0  0  0  0
  185.1830  177.9710  146.2790 C   0  0  0  0  0  3  0  0  0  0  0  0
  189.1880  177.4640  144.2290 C   0  0  0  0  0  0  0  0  0  0  0  0
  191.5920  176.8590  145.5720 C   0  0  0  0  0  3  0  0  0  0  0  0
  186.4100  177.7090  145.5710 C   0  0  0  0  0  3  0  0  0  0  0  0
  189.2640  177.5550  141.4360 C   0  0  0  0  0  0  0  0  0  0  0  0
  190.4620  177.0960  147.7210 N   0  0  0  0  0  1  0  0  0  0  0  0
  185.9390  179.1870  141.9690 C   0  0  0  0  0  2  0  0  0  0  0  0
  184.3180  178.6300  145.4590 C   0  0  0  0  0  0  0  0  0  0  0  0
  190.3760  177.2490  142.1500 N   0  0  0  0  0  0  0  0  0  0  0  0
  188.0580  177.8430  142.1000 C   0  0  0  0  0  0  0  0  0  0  0  0
  189.2430  177.4300  145.6320 C   0  0  0  0  0  3  0  0  0  0  0  0
  183.3440  179.3080  144.7120 C   0  0  0  0  0  2  0  0  0  0  0  0
  190.3750  177.1980  143.5040 C   0  0  0  0  0  0  0  0  0  0  0  0
  191.5640  176.8950  144.1770 C   0  0  0  0  0  3  0  0  0  0  0  0
  186.8150  178.1410  141.2910 C   0  0  0  0  0  2  0  0  0  0  0  0
  185.6990  178.7750  143.3800 C   0  0  0  0  0  0  0  0  0  0  0  0
  184.5600  179.0150  144.0760 C   0  0  0  0  0  0  0  0  0  0  0  0
  189.3630  177.6090  139.9470 C   0  0  0  0  0  2  0  0  0  0  0  0
  191.4370  176.7930  138.8440 C   0  0  0  0  0  2  0  0  0  0  0  0
  190.0990  176.3780  139.4270 C   0  0  2  0  0  3  0  0  0  0  0  0
  190.3280  176.3530  137.9100 C   0  0  1  0  0  3  0  0  0  0  0  0
  189.7860  177.5610  137.1530 C   0  0  0  0  0  2  0  0  0  0  0  0
  189.6690  176.1850  134.8450 S   0  0  0  0  0  0  0  0  0  0  0  0
  188.9610  177.1090  135.9990 C   0  0  0  0  0  0  0  0  0  0  0  0
  187.6100  177.5850  135.8840 N   0  0  0  0  0  2  0  0  0  0  0  0
  186.5900  177.5590  136.8890 C   0  0  0  0  0  0  0  0  0  0  0  0
  186.4310  178.6320  137.8120 N   0  0  0  0  0  1  0  0  0  0  0  0
  185.4640  176.3790  136.8440 S   0  0  0  0  0  0  0  0  0  0  0  0
  1  9  1  0  0  0  0
  2  3  1  0  0  0  0
  2  5  1  0  0  0  0
  3  7  1  0  0  0  0
  5 14  2  0  0  0  0
  6  1  2  0  0  0  0
  7  4  2  0  0  0  0
  8 13  1  0  0  0  0
  8 12  2  0  0  0  0
 10 19  1  0  0  0  0
 11  4  1  0  0  0  0
 12 16  1  0  0  0  0
 13  2  2  0  0  0  0
 14  1  1  0  0  0  0
 15 11  1  0  0  0  0
 16 17  2  0  0  0  0
 16  5  1  0  0  0  0
 17  6  1  0  0  0  0
 18 10  1  0  0  0  0
 18 13  1  0  0  0  0
 19 20  1  0  0  0  0
 19  3  2  0  0  0  0
 20 15  1  0  0  0  0
 20 11  2  0  0  0  0
 21  8  1  0  0  0  0
 22 23  1  0  0  0  0
 23 21  1  6  0  0  0
 24 25  1  6  0  0  0
 24 22  1  0  0  0  0
 24 23  1  0  0  0  0
 26 27  2  0  0  0  0
 27 25  1  0  0  0  0
 28 27  1  0  0  0  0
 28 29  1  0  0  0  0
 29 30  1  0  0  0  0
 31 29  2  0  0  0  0
M  END
>  <MODEL>
9

>  <REMARK>
 VINA RESULT:      -9.2      1.618      4.252
  Name = 
  6 active torsions:
  status: ('A' for Active; 'I' for Inactive)
    1  A    between atoms: C_1  and  N_24
    2  A    between atoms: C_3  and  C_19
    3  A    between atoms: C_3  and  C_22
    4  A    between atoms: C_9  and  C_23
    5  A    between atoms: C_15  and  C_23
    6  A    between atoms: C_19  and  N_24
                            x       y       z     vdW  Elec       q    Type
                         _______ _______ _______ _____ _____    ______ ____

>  <TORSDO>
F 6

$$$$
