=
 OpenBabel11052416443D

 43 47  0  0  1  0  0  0  0  0999 V2000
  188.2910  177.6210  141.3230 N   0  0  0  0  0  0  0  0  0  0  0  0
  187.7290  176.9250  136.0890 C   0  0  0  0  0  0  0  0  0  0  0  0
  189.4890  177.0290  137.8250 C   0  0  2  0  0  3  0  0  0  0  0  0
  186.9500  177.8610  136.9310 C   0  0  0  0  0  3  0  0  0  0  0  0
  187.3670  176.7030  134.9040 O   0  0  0  0  0  0  0  0  0  0  0  0
  188.3830  177.2450  138.8290 C   0  0  2  0  0  3  0  0  0  0  0  0
  188.9470  176.2260  136.6450 C   0  0  0  0  0  2  0  0  0  0  0  0
  187.2760  178.0520  138.2160 C   0  0  0  0  0  3  0  0  0  0  0  0
  189.0290  177.8560  140.0640 C   0  0  2  0  0  3  0  0  0  0  0  0
  190.7310  177.1900  140.1840 S   0  0  0  0  0  0  0  0  0  0  0  0
  190.5990  176.3410  138.5740 C   0  0  0  0  0  2  0  0  0  0  0  0
  189.2080  177.4200  142.4550 C   0  0  1  0  0  3  0  0  0  0  0  0
  189.3670  178.6100  143.1730 O   0  0  0  0  0  1  0  0  0  0  0  0
  188.6540  176.3650  143.4050 C   0  0  0  0  0  2  0  0  0  0  0  0
  186.9330  177.9620  146.3770 C   0  0  0  0  0  0  0  0  0  0  0  0
  187.9780  178.0090  147.3120 C   0  0  0  0  0  0  0  0  0  0  0  0
  187.7780  178.5220  148.5500 F   0  0  0  0  0  0  0  0  0  0  0  0
  189.4660  176.9940  145.6890 C   0  0  0  0  0  3  0  0  0  0  0  0
  187.1590  177.4340  145.1030 C   0  0  0  0  0  3  0  0  0  0  0  0
  188.4250  176.9490  144.7570 C   0  0  0  0  0  0  0  0  0  0  0  0
  185.5730  178.4560  146.7330 C   0  0  0  0  0  1  0  0  0  0  0  0
  189.2440  177.5260  146.9640 C   0  0  0  0  0  3  0  0  0  0  0  0
  187.2510  178.6400  141.5690 C   0  0  0  0  0  2  0  0  0  0  0  0
  185.8600  178.0520  141.8440 C   0  0  0  0  0  2  0  0  0  0  0  0
  184.7980  179.1400  141.9420 C   0  0  2  0  0  3  0  0  0  0  0  0
  184.2730  179.2510  143.3640 C   0  0  0  0  0  1  0  0  0  0  0  0
  183.7460  178.8780  141.0170 O   0  0  0  0  0  0  0  0  0  0  0  0
  183.8190  179.2010  139.6580 C   0  0  0  0  0  0  0  0  0  0  0  0
  184.5870  180.1260  139.2870 O   0  0  0  0  0  0  0  0  0  0  0  0
  182.8260  178.3430  138.4310 S   0  0  0  0  0  0  0  0  0  0  0  0
  181.8910  179.8000  137.8230 C   0  0  1  0  0  3  0  0  0  0  0  0
  180.9400  182.0880  138.2270 C   0  0  0  0  0  2  0  0  0  0  0  0
  181.0190  179.5200  136.5930 C   0  0  0  0  0  2  0  0  0  0  0  0
  180.0910  180.7000  136.2660 C   0  0  0  0  0  2  0  0  0  0  0  0
  181.2330  180.7200  138.8660 C   0  0  1  0  0  3  0  0  0  0  0  0
  180.6950  182.0370  136.7060 C   0  0  0  0  0  2  0  0  0  0  0  0
  179.9170  180.1380  139.3880 C   0  0  0  0  0  2  0  0  0  0  0  0
  179.9680  179.7700  140.8380 C   0  0  0  0  0  0  0  0  0  0  0  0
  180.0000  179.0430  143.5180 C   0  0  0  0  0  3  0  0  0  0  0  0
  179.7900  180.3690  143.1330 C   0  0  0  0  0  3  0  0  0  0  0  0
  180.1870  178.0710  142.5350 C   0  0  0  0  0  3  0  0  0  0  0  0
  179.7690  180.7010  141.8140 N   0  0  0  0  0  0  0  0  0  0  0  0
  180.1680  178.4330  141.1870 C   0  0  0  0  0  3  0  0  0  0  0  0
  1 23  1  0  0  0  0
  1 12  1  0  0  0  0
  2  7  1  0  0  0  0
  2  4  1  0  0  0  0
  3  7  1  6  0  0  0
  3 11  1  0  0  0  0
  3  6  1  0  0  0  0
  4  8  2  0  0  0  0
  5  2  2  0  0  0  0
  6  8  1  6  0  0  0
  6  9  1  0  0  0  0
  9 10  1  0  0  0  0
  9  1  1  1  0  0  0
 11 10  1  0  0  0  0
 12 13  1  1  0  0  0
 12 14  1  0  0  0  0
 14 20  1  0  0  0  0
 15 21  1  0  0  0  0
 15 16  1  0  0  0  0
 16 17  1  0  0  0  0
 18 22  1  0  0  0  0
 19 15  2  0  0  0  0
 20 19  1  0  0  0  0
 20 18  2  0  0  0  0
 22 16  2  0  0  0  0
 23 24  1  0  0  0  0
 24 25  1  0  0  0  0
 25 26  1  1  0  0  0
 27 25  1  0  0  0  0
 28 27  1  0  0  0  0
 29 28  2  0  0  0  0
 30 28  1  0  0  0  0
 31 30  1  1  0  0  0
 31 35  1  0  0  0  0
 32 35  1  0  0  0  0
 33 31  1  0  0  0  0
 34 33  1  0  0  0  0
 34 36  1  0  0  0  0
 35 37  1  6  0  0  0
 36 32  1  0  0  0  0
 37 38  1  0  0  0  0
 38 43  2  0  0  0  0
 38 42  1  0  0  0  0
 40 39  1  0  0  0  0
 41 39  2  0  0  0  0
 42 40  2  0  0  0  0
 43 41  1  0  0  0  0
M  END
>  <MODEL>
1

>  <REMARK>
 VINA RESULT:      -8.9      0.000      0.000
  Name = 
  13 active torsions:
  status: ('A' for Active; 'I' for Inactive)
    1  A    between atoms: C_1  and  C_34
    2  A    between atoms: C_1  and  C_35
    3  A    between atoms: C_2  and  O_6
    4  A    between atoms: C_2  and  C_13
    5  A    between atoms: S_3  and  C_4
    6  A    between atoms: S_3  and  C_12
    7  A    between atoms: O_6  and  C_12
    8  A    between atoms: N_8  and  C_27
    9  A    between atoms: N_8  and  C_30
   10  A    between atoms: N_8  and  C_34
   11  A    between atoms: C_11  and  C_14
   12  A    between atoms: C_13  and  C_27
   13  A    between atoms: C_14  and  C_41
                            x       y       z     vdW  Elec       q    Type
                         _______ _______ _______ _____ _____    ______ ____

>  <TORSDO>
F 13

$$$$
=
 OpenBabel11052416443D

 43 47  0  0  1  0  0  0  0  0999 V2000
  188.4270  177.6260  141.3650 N   0  0  0  0  0  0  0  0  0  0  0  0
  187.6790  176.7640  136.1790 C   0  0  0  0  0  0  0  0  0  0  0  0
  189.5000  176.9290  137.8460 C   0  0  2  0  0  3  0  0  0  0  0  0
  186.9260  177.7240  137.0190 C   0  0  0  0  0  3  0  0  0  0  0  0
  187.2760  176.5040  135.0160 O   0  0  0  0  0  0  0  0  0  0  0  0
  188.4300  177.1720  138.8820 C   0  0  2  0  0  3  0  0  0  0  0  0
  188.9190  176.0880  136.7120 C   0  0  0  0  0  2  0  0  0  0  0  0
  187.2980  177.9570  138.2850 C   0  0  0  0  0  3  0  0  0  0  0  0
  189.1180  177.8240  140.0730 C   0  0  2  0  0  3  0  0  0  0  0  0
  190.8260  177.1670  140.1520 S   0  0  0  0  0  0  0  0  0  0  0  0
  190.6390  176.2680  138.5750 C   0  0  0  0  0  2  0  0  0  0  0  0
  189.3850  177.4860  142.4720 C   0  0  1  0  0  3  0  0  0  0  0  0
  189.4770  178.6810  143.1930 O   0  0  0  0  0  1  0  0  0  0  0  0
  188.9330  176.3900  143.4290 C   0  0  0  0  0  2  0  0  0  0  0  0
  187.1000  177.9110  146.3740 C   0  0  0  0  0  0  0  0  0  0  0  0
  188.1240  177.9840  147.3310 C   0  0  0  0  0  0  0  0  0  0  0  0
  187.8820  178.4820  148.5680 F   0  0  0  0  0  0  0  0  0  0  0  0
  189.6770  177.0290  145.7330 C   0  0  0  0  0  3  0  0  0  0  0  0
  187.3700  177.3990  145.1020 C   0  0  0  0  0  3  0  0  0  0  0  0
  188.6570  176.9570  144.7790 C   0  0  0  0  0  0  0  0  0  0  0  0
  185.7190  178.3590  146.7050 C   0  0  0  0  0  1  0  0  0  0  0  0
  189.4120  177.5440  147.0060 C   0  0  0  0  0  3  0  0  0  0  0  0
  187.3760  178.6350  141.6070 C   0  0  0  0  0  2  0  0  0  0  0  0
  186.1170  178.0720  142.2770 C   0  0  0  0  0  2  0  0  0  0  0  0
  184.8870  178.9140  141.9640 C   0  0  2  0  0  3  0  0  0  0  0  0
  183.9590  178.9770  143.1670 C   0  0  0  0  0  1  0  0  0  0  0  0
  184.2190  178.3930  140.8170 O   0  0  0  0  0  0  0  0  0  0  0  0
  183.7480  179.1940  139.7730 C   0  0  0  0  0  0  0  0  0  0  0  0
  184.4890  180.1000  139.3110 O   0  0  0  0  0  0  0  0  0  0  0  0
  182.1000  178.9780  139.0890 S   0  0  0  0  0  0  0  0  0  0  0  0
  181.1560  179.4210  140.5990 C   0  0  1  0  0  3  0  0  0  0  0  0
  180.2680  178.7940  142.8600 C   0  0  0  0  0  2  0  0  0  0  0  0
  180.2120  180.6160  140.4220 C   0  0  0  0  0  2  0  0  0  0  0  0
  179.2870  180.8010  141.6350 C   0  0  0  0  0  2  0  0  0  0  0  0
  180.5740  178.2760  141.4450 C   0  0  1  0  0  3  0  0  0  0  0  0
  179.9370  180.2980  142.9270 C   0  0  0  0  0  2  0  0  0  0  0  0
  179.2790  177.7250  140.8420 C   0  0  0  0  0  2  0  0  0  0  0  0
  179.3730  176.2790  140.4650 C   0  0  0  0  0  0  0  0  0  0  0  0
  179.4890  173.6080  139.7150 C   0  0  0  0  0  3  0  0  0  0  0  0
  179.1130  173.9780  141.0090 C   0  0  0  0  0  3  0  0  0  0  0  0
  179.8010  174.6010  138.7870 C   0  0  0  0  0  3  0  0  0  0  0  0
  179.0540  175.2930  141.3520 N   0  0  0  0  0  0  0  0  0  0  0  0
  179.7400  175.9450  139.1600 C   0  0  0  0  0  3  0  0  0  0  0  0
  1 23  1  0  0  0  0
  1 12  1  0  0  0  0
  2  7  1  0  0  0  0
  2  4  1  0  0  0  0
  3  7  1  6  0  0  0
  3 11  1  0  0  0  0
  3  6  1  0  0  0  0
  4  8  2  0  0  0  0
  5  2  2  0  0  0  0
  6  8  1  6  0  0  0
  6  9  1  0  0  0  0
  9 10  1  0  0  0  0
  9  1  1  1  0  0  0
 11 10  1  0  0  0  0
 12 13  1  1  0  0  0
 12 14  1  0  0  0  0
 14 20  1  0  0  0  0
 15 21  1  0  0  0  0
 15 16  1  0  0  0  0
 16 17  1  0  0  0  0
 18 22  1  0  0  0  0
 19 15  2  0  0  0  0
 20 19  1  0  0  0  0
 20 18  2  0  0  0  0
 22 16  2  0  0  0  0
 23 24  1  0  0  0  0
 25 24  1  0  0  0  0
 25 26  1  1  0  0  0
 27 25  1  0  0  0  0
 28 27  1  0  0  0  0
 29 28  2  0  0  0  0
 30 28  1  0  0  0  0
 31 30  1  6  0  0  0
 31 35  1  0  0  0  0
 32 36  1  0  0  0  0
 33 31  1  0  0  0  0
 33 34  1  0  0  0  0
 34 36  1  0  0  0  0
 35 37  1  6  0  0  0
 35 32  1  0  0  0  0
 38 37  1  0  0  0  0
 38 42  1  0  0  0  0
 39 40  1  0  0  0  0
 40 42  2  0  0  0  0
 41 43  1  0  0  0  0
 41 39  2  0  0  0  0
 43 38  2  0  0  0  0
M  END
>  <MODEL>
2

>  <REMARK>
 VINA RESULT:      -8.7      1.692      2.742
  Name = 
  13 active torsions:
  status: ('A' for Active; 'I' for Inactive)
    1  A    between atoms: C_1  and  C_34
    2  A    between atoms: C_1  and  C_35
    3  A    between atoms: C_2  and  O_6
    4  A    between atoms: C_2  and  C_13
    5  A    between atoms: S_3  and  C_4
    6  A    between atoms: S_3  and  C_12
    7  A    between atoms: O_6  and  C_12
    8  A    between atoms: N_8  and  C_27
    9  A    between atoms: N_8  and  C_30
   10  A    between atoms: N_8  and  C_34
   11  A    between atoms: C_11  and  C_14
   12  A    between atoms: C_13  and  C_27
   13  A    between atoms: C_14  and  C_41
                            x       y       z     vdW  Elec       q    Type
                         _______ _______ _______ _____ _____    ______ ____

>  <TORSDO>
F 13

$$$$
=
 OpenBabel11052416443D

 43 47  0  0  1  0  0  0  0  0999 V2000
  188.7990  177.6740  141.4310 N   0  0  0  0  0  0  0  0  0  0  0  0
  187.7800  176.7440  136.3030 C   0  0  0  0  0  0  0  0  0  0  0  0
  189.6850  176.9240  137.8720 C   0  0  2  0  0  3  0  0  0  0  0  0
  187.0750  177.7190  137.1680 C   0  0  0  0  0  3  0  0  0  0  0  0
  187.3160  176.4700  135.1670 O   0  0  0  0  0  0  0  0  0  0  0  0
  188.6710  177.1860  138.9580 C   0  0  2  0  0  3  0  0  0  0  0  0
  189.0430  176.0700  136.7810 C   0  0  0  0  0  2  0  0  0  0  0  0
  187.5130  177.9680  138.4100 C   0  0  0  0  0  3  0  0  0  0  0  0
  189.4220  177.8510  140.1030 C   0  0  2  0  0  3  0  0  0  0  0  0
  191.1300  177.1870  140.1030 S   0  0  0  0  0  0  0  0  0  0  0  0
  190.8580  176.2670  138.5500 C   0  0  0  0  0  2  0  0  0  0  0  0
  189.8110  177.5810  142.4940 C   0  0  1  0  0  3  0  0  0  0  0  0
  189.8410  178.7590  143.2460 O   0  0  0  0  0  1  0  0  0  0  0  0
  189.4870  176.4270  143.4350 C   0  0  0  0  0  2  0  0  0  0  0  0
  187.3850  177.7930  146.2740 C   0  0  0  0  0  0  0  0  0  0  0  0
  188.3310  177.8710  147.3070 C   0  0  0  0  0  0  0  0  0  0  0  0
  187.9780  178.3220  148.5360 F   0  0  0  0  0  0  0  0  0  0  0  0
  190.0330  177.0190  145.8060 C   0  0  0  0  0  3  0  0  0  0  0  0
  187.7680  177.3300  145.0110 C   0  0  0  0  0  3  0  0  0  0  0  0
  189.0910  176.9430  144.7750 C   0  0  0  0  0  0  0  0  0  0  0  0
  185.9670  178.1830  146.5100 C   0  0  0  0  0  1  0  0  0  0  0  0
  189.6540  177.4860  147.0690 C   0  0  0  0  0  3  0  0  0  0  0  0
  187.7410  178.6700  141.6990 C   0  0  0  0  0  2  0  0  0  0  0  0
  186.3830  178.0530  142.0520 C   0  0  0  0  0  2  0  0  0  0  0  0
  185.2330  179.0010  141.7350 C   0  0  2  0  0  3  0  0  0  0  0  0
  184.4600  179.3490  142.9970 C   0  0  0  0  0  1  0  0  0  0  0  0
  184.3840  178.4230  140.7460 O   0  0  0  0  0  0  0  0  0  0  0  0
  184.0440  179.0680  139.5530 C   0  0  0  0  0  0  0  0  0  0  0  0
  184.5160  180.2100  139.3170 O   0  0  0  0  0  0  0  0  0  0  0  0
  182.9300  178.3170  138.3600 S   0  0  0  0  0  0  0  0  0  0  0  0
  181.3680  179.0160  139.0210 C   0  0  1  0  0  3  0  0  0  0  0  0
  179.2190  180.2580  138.6450 C   0  0  0  0  0  2  0  0  0  0  0  0
  181.3630  179.2190  140.5410 C   0  0  0  0  0  2  0  0  0  0  0  0
  180.1320  180.0110  141.0100 C   0  0  0  0  0  2  0  0  0  0  0  0
  180.6970  180.1520  138.2300 C   0  0  1  0  0  3  0  0  0  0  0  0
  178.9310  179.7940  140.0860 C   0  0  0  0  0  2  0  0  0  0  0  0
  181.3700  181.5030  138.4930 C   0  0  0  0  0  2  0  0  0  0  0  0
  181.1480  182.4950  137.3950 C   0  0  0  0  0  0  0  0  0  0  0  0
  180.7950  184.3040  135.3180 C   0  0  0  0  0  3  0  0  0  0  0  0
  181.1890  184.7320  136.5870 C   0  0  0  0  0  3  0  0  0  0  0  0
  180.5850  182.9430  135.0930 C   0  0  0  0  0  3  0  0  0  0  0  0
  181.3650  183.8270  137.5880 N   0  0  0  0  0  0  0  0  0  0  0  0
  180.7650  182.0310  136.1340 C   0  0  0  0  0  3  0  0  0  0  0  0
  1 23  1  0  0  0  0
  1 12  1  0  0  0  0
  2  7  1  0  0  0  0
  2  4  1  0  0  0  0
  3  7  1  6  0  0  0
  3 11  1  0  0  0  0
  3  6  1  0  0  0  0
  4  8  2  0  0  0  0
  5  2  2  0  0  0  0
  6  8  1  6  0  0  0
  6  9  1  0  0  0  0
  9 10  1  0  0  0  0
  9  1  1  1  0  0  0
 11 10  1  0  0  0  0
 12 13  1  1  0  0  0
 12 14  1  0  0  0  0
 14 20  1  0  0  0  0
 15 21  1  0  0  0  0
 15 16  1  0  0  0  0
 16 17  1  0  0  0  0
 18 22  1  0  0  0  0
 19 15  2  0  0  0  0
 20 19  1  0  0  0  0
 20 18  2  0  0  0  0
 22 16  2  0  0  0  0
 23 24  1  0  0  0  0
 25 24  1  0  0  0  0
 25 26  1  1  0  0  0
 27 25  1  0  0  0  0
 28 27  1  0  0  0  0
 29 28  2  0  0  0  0
 30 28  1  0  0  0  0
 31 30  1  6  0  0  0
 31 33  1  0  0  0  0
 32 36  1  0  0  0  0
 33 34  1  0  0  0  0
 35 37  1  1  0  0  0
 35 32  1  0  0  0  0
 35 31  1  0  0  0  0
 36 34  1  0  0  0  0
 38 42  1  0  0  0  0
 38 37  1  0  0  0  0
 39 40  1  0  0  0  0
 40 42  2  0  0  0  0
 41 39  2  0  0  0  0
 41 43  1  0  0  0  0
 43 38  2  0  0  0  0
M  END
>  <MODEL>
3

>  <REMARK>
 VINA RESULT:      -8.6      1.251      3.080
  Name = 
  13 active torsions:
  status: ('A' for Active; 'I' for Inactive)
    1  A    between atoms: C_1  and  C_34
    2  A    between atoms: C_1  and  C_35
    3  A    between atoms: C_2  and  O_6
    4  A    between atoms: C_2  and  C_13
    5  A    between atoms: S_3  and  C_4
    6  A    between atoms: S_3  and  C_12
    7  A    between atoms: O_6  and  C_12
    8  A    between atoms: N_8  and  C_27
    9  A    between atoms: N_8  and  C_30
   10  A    between atoms: N_8  and  C_34
   11  A    between atoms: C_11  and  C_14
   12  A    between atoms: C_13  and  C_27
   13  A    between atoms: C_14  and  C_41
                            x       y       z     vdW  Elec       q    Type
                         _______ _______ _______ _____ _____    ______ ____

>  <TORSDO>
F 13

$$$$
=
 OpenBabel11052416443D

 43 47  0  0  1  0  0  0  0  0999 V2000
  188.6380  177.6460  141.2020 N   0  0  0  0  0  0  0  0  0  0  0  0
  188.2710  176.3680  136.0610 C   0  0  0  0  0  0  0  0  0  0  0  0
  189.9700  176.7530  137.8180 C   0  0  2  0  0  3  0  0  0  0  0  0
  187.4190  177.3450  136.7780 C   0  0  0  0  0  3  0  0  0  0  0  0
  187.9570  176.0030  134.8990 O   0  0  0  0  0  0  0  0  0  0  0  0
  188.8240  177.0130  138.7660 C   0  0  2  0  0  3  0  0  0  0  0  0
  189.5060  175.8010  136.7180 C   0  0  0  0  0  2  0  0  0  0  0  0
  187.6960  177.6890  138.0430 C   0  0  0  0  0  3  0  0  0  0  0  0
  189.4000  177.7860  139.9440 C   0  0  2  0  0  3  0  0  0  0  0  0
  191.1300  177.2300  140.1760 S   0  0  0  0  0  0  0  0  0  0  0  0
  191.0910  176.2100  138.6640 C   0  0  0  0  0  2  0  0  0  0  0  0
  189.5320  177.4680  142.3560 C   0  0  1  0  0  3  0  0  0  0  0  0
  189.6020  178.6460  143.1070 O   0  0  0  0  0  1  0  0  0  0  0  0
  189.0120  176.3590  143.2640 C   0  0  0  0  0  2  0  0  0  0  0  0
  186.9970  177.8040  146.1270 C   0  0  0  0  0  0  0  0  0  0  0  0
  187.9700  177.8940  147.1340 C   0  0  0  0  0  0  0  0  0  0  0  0
  187.6540  178.3730  148.3620 F   0  0  0  0  0  0  0  0  0  0  0  0
  189.6250  176.9930  145.6080 C   0  0  0  0  0  3  0  0  0  0  0  0
  187.3430  177.3120  144.8650 C   0  0  0  0  0  3  0  0  0  0  0  0
  188.6560  176.9060  144.6030 C   0  0  0  0  0  0  0  0  0  0  0  0
  185.5900  178.2150  146.3910 C   0  0  0  0  0  1  0  0  0  0  0  0
  189.2830  177.4890  146.8700 C   0  0  0  0  0  3  0  0  0  0  0  0
  187.6360  178.7160  141.3810 C   0  0  0  0  0  2  0  0  0  0  0  0
  186.2720  178.2130  141.8700 C   0  0  0  0  0  2  0  0  0  0  0  0
  185.1350  179.1000  141.3800 C   0  0  2  0  0  3  0  0  0  0  0  0
  183.7880  178.4580  141.6700 C   0  0  0  0  0  1  0  0  0  0  0  0
  185.2940  179.3720  139.9900 O   0  0  0  0  0  0  0  0  0  0  0  0
  184.2280  179.4050  139.0850 C   0  0  0  0  0  0  0  0  0  0  0  0
  183.4790  180.4160  139.0560 O   0  0  0  0  0  0  0  0  0  0  0  0
  183.8860  178.0300  137.9810 S   0  0  0  0  0  0  0  0  0  0  0  0
  182.2140  177.6240  138.6180 C   0  0  1  0  0  3  0  0  0  0  0  0
  180.7000  176.0960  139.9100 C   0  0  0  0  0  2  0  0  0  0  0  0
  181.0720  178.3430  137.8900 C   0  0  0  0  0  2  0  0  0  0  0  0
  179.6950  177.8010  138.3050 C   0  0  0  0  0  2  0  0  0  0  0  0
  181.9150  176.1570  138.9690 C   0  0  1  0  0  3  0  0  0  0  0  0
  179.7060  177.2620  139.7380 C   0  0  0  0  0  2  0  0  0  0  0  0
  181.6010  175.3260  137.7210 C   0  0  0  0  0  2  0  0  0  0  0  0
  182.5950  174.2350  137.4740 C   0  0  0  0  0  0  0  0  0  0  0  0
  184.4000  172.1650  137.0650 C   0  0  0  0  0  3  0  0  0  0  0  0
  184.7980  173.3590  137.6700 C   0  0  0  0  0  3  0  0  0  0  0  0
  183.0700  172.0120  136.6700 C   0  0  0  0  0  3  0  0  0  0  0  0
  183.8950  174.3570  137.8690 N   0  0  0  0  0  0  0  0  0  0  0  0
  182.1600  173.0490  136.8780 C   0  0  0  0  0  3  0  0  0  0  0  0
  1 23  1  0  0  0  0
  1 12  1  0  0  0  0
  2  7  1  0  0  0  0
  2  4  1  0  0  0  0
  3  7  1  6  0  0  0
  3 11  1  0  0  0  0
  3  6  1  0  0  0  0
  4  8  2  0  0  0  0
  5  2  2  0  0  0  0
  6  8  1  6  0  0  0
  6  9  1  0  0  0  0
  9 10  1  0  0  0  0
  9  1  1  1  0  0  0
 11 10  1  0  0  0  0
 12 13  1  1  0  0  0
 12 14  1  0  0  0  0
 14 20  1  0  0  0  0
 15 21  1  0  0  0  0
 15 16  1  0  0  0  0
 16 17  1  0  0  0  0
 18 22  1  0  0  0  0
 19 15  2  0  0  0  0
 20 19  1  0  0  0  0
 20 18  2  0  0  0  0
 22 16  2  0  0  0  0
 23 24  1  0  0  0  0
 25 26  1  6  0  0  0
 25 24  1  0  0  0  0
 27 25  1  0  0  0  0
 28 27  1  0  0  0  0
 29 28  2  0  0  0  0
 30 28  1  0  0  0  0
 31 30  1  6  0  0  0
 31 35  1  0  0  0  0
 33 34  1  0  0  0  0
 33 31  1  0  0  0  0
 34 36  1  0  0  0  0
 35 37  1  6  0  0  0
 35 32  1  0  0  0  0
 36 32  1  0  0  0  0
 38 37  1  0  0  0  0
 38 42  1  0  0  0  0
 39 40  1  0  0  0  0
 40 42  2  0  0  0  0
 41 43  1  0  0  0  0
 41 39  2  0  0  0  0
 43 38  2  0  0  0  0
M  END
>  <MODEL>
4

>  <REMARK>
 VINA RESULT:      -8.4      2.603      3.812
  Name = 
  13 active torsions:
  status: ('A' for Active; 'I' for Inactive)
    1  A    between atoms: C_1  and  C_34
    2  A    between atoms: C_1  and  C_35
    3  A    between atoms: C_2  and  O_6
    4  A    between atoms: C_2  and  C_13
    5  A    between atoms: S_3  and  C_4
    6  A    between atoms: S_3  and  C_12
    7  A    between atoms: O_6  and  C_12
    8  A    between atoms: N_8  and  C_27
    9  A    between atoms: N_8  and  C_30
   10  A    between atoms: N_8  and  C_34
   11  A    between atoms: C_11  and  C_14
   12  A    between atoms: C_13  and  C_27
   13  A    between atoms: C_14  and  C_41
                            x       y       z     vdW  Elec       q    Type
                         _______ _______ _______ _____ _____    ______ ____

>  <TORSDO>
F 13

$$$$
=
 OpenBabel11052416443D

 43 47  0  0  1  0  0  0  0  0999 V2000
  188.5920  177.7230  141.0860 N   0  0  0  0  0  0  0  0  0  0  0  0
  187.8510  176.3460  136.0110 C   0  0  0  0  0  0  0  0  0  0  0  0
  189.6720  176.7340  137.6400 C   0  0  2  0  0  3  0  0  0  0  0  0
  187.0680  177.3540  136.7630 C   0  0  0  0  0  3  0  0  0  0  0  0
  187.4510  175.9620  134.8820 O   0  0  0  0  0  0  0  0  0  0  0  0
  188.5990  177.0360  138.6570 C   0  0  2  0  0  3  0  0  0  0  0  0
  189.1170  175.7680  136.5960 C   0  0  0  0  0  2  0  0  0  0  0  0
  187.4370  177.7190  137.9980 C   0  0  0  0  0  3  0  0  0  0  0  0
  189.2690  177.8220  139.7760 C   0  0  2  0  0  3  0  0  0  0  0  0
  191.0010  177.2370  139.9020 S   0  0  0  0  0  0  0  0  0  0  0  0
  190.8390  176.1860  138.4190 C   0  0  0  0  0  2  0  0  0  0  0  0
  189.5590  177.5400  142.1790 C   0  0  1  0  0  3  0  0  0  0  0  0
  189.7520  178.7420  142.8680 O   0  0  0  0  0  1  0  0  0  0  0  0
  189.0480  176.5030  143.1720 C   0  0  0  0  0  2  0  0  0  0  0  0
  189.6200  177.2090  146.8490 C   0  0  0  0  0  0  0  0  0  0  0  0
  190.9880  176.9230  146.9770 C   0  0  0  0  0  0  0  0  0  0  0  0
  191.6120  177.0480  148.1730 F   0  0  0  0  0  0  0  0  0  0  0  0
  191.0890  176.3770  144.6170 C   0  0  0  0  0  3  0  0  0  0  0  0
  188.9930  177.0790  145.6060 C   0  0  0  0  0  3  0  0  0  0  0  0
  189.7260  176.6640  144.4890 C   0  0  0  0  0  0  0  0  0  0  0  0
  188.8190  177.6350  148.0300 C   0  0  0  0  0  1  0  0  0  0  0  0
  191.7200  176.5100  145.8590 C   0  0  0  0  0  3  0  0  0  0  0  0
  187.6330  178.8230  141.3130 C   0  0  0  0  0  2  0  0  0  0  0  0
  186.1660  178.4140  141.1280 C   0  0  0  0  0  2  0  0  0  0  0  0
  185.3340  178.7220  142.3670 C   0  0  2  0  0  3  0  0  0  0  0  0
  186.0600  178.2770  143.6260 C   0  0  0  0  0  1  0  0  0  0  0  0
  184.0530  178.1070  142.2570 O   0  0  0  0  0  0  0  0  0  0  0  0
  182.8590  178.7520  142.5940 C   0  0  0  0  0  0  0  0  0  0  0  0
  182.7240  179.2300  143.7500 O   0  0  0  0  0  0  0  0  0  0  0  0
  181.5020  178.8930  141.4240 S   0  0  0  0  0  0  0  0  0  0  0  0
  182.2900  177.9880  140.0360 C   0  0  1  0  0  3  0  0  0  0  0  0
  183.6370  178.0150  137.9180 C   0  0  0  0  0  2  0  0  0  0  0  0
  181.7400  176.5740  139.8140 C   0  0  0  0  0  2  0  0  0  0  0  0
  182.2660  175.9510  138.5120 C   0  0  0  0  0  2  0  0  0  0  0  0
  182.5740  178.7650  138.7400 C   0  0  1  0  0  3  0  0  0  0  0  0
  183.6510  176.4900  138.1430 C   0  0  0  0  0  2  0  0  0  0  0  0
  181.3170  178.9160  137.8790 C   0  0  0  0  0  2  0  0  0  0  0  0
  181.1230  180.3050  137.3560 C   0  0  0  0  0  0  0  0  0  0  0  0
  180.7040  182.8900  136.4330 C   0  0  0  0  0  3  0  0  0  0  0  0
  180.5370  181.7890  135.5920 C   0  0  0  0  0  3  0  0  0  0  0  0
  181.0790  182.6810  137.7610 C   0  0  0  0  0  3  0  0  0  0  0  0
  180.7380  180.5300  136.0670 N   0  0  0  0  0  0  0  0  0  0  0  0
  181.2870  181.3830  138.2280 C   0  0  0  0  0  3  0  0  0  0  0  0
  1 23  1  0  0  0  0
  1 12  1  0  0  0  0
  2  7  1  0  0  0  0
  2  4  1  0  0  0  0
  3  7  1  6  0  0  0
  3 11  1  0  0  0  0
  3  6  1  0  0  0  0
  4  8  2  0  0  0  0
  5  2  2  0  0  0  0
  6  8  1  6  0  0  0
  6  9  1  0  0  0  0
  9 10  1  0  0  0  0
  9  1  1  1  0  0  0
 11 10  1  0  0  0  0
 12 13  1  1  0  0  0
 12 14  1  0  0  0  0
 14 20  1  0  0  0  0
 15 16  1  0  0  0  0
 15 21  1  0  0  0  0
 16 17  1  0  0  0  0
 18 22  1  0  0  0  0
 19 15  2  0  0  0  0
 20 18  2  0  0  0  0
 20 19  1  0  0  0  0
 22 16  2  0  0  0  0
 24 23  1  0  0  0  0
 24 25  1  0  0  0  0
 25 26  1  1  0  0  0
 27 25  1  0  0  0  0
 27 28  1  0  0  0  0
 28 29  2  0  0  0  0
 30 28  1  0  0  0  0
 31 30  1  1  0  0  0
 32 36  1  0  0  0  0
 32 35  1  0  0  0  0
 33 31  1  0  0  0  0
 34 33  1  0  0  0  0
 35 37  1  6  0  0  0
 35 31  1  0  0  0  0
 36 34  1  0  0  0  0
 38 37  1  0  0  0  0
 38 43  1  0  0  0  0
 39 41  1  0  0  0  0
 40 42  1  0  0  0  0
 40 39  2  0  0  0  0
 41 43  2  0  0  0  0
 42 38  2  0  0  0  0
M  END
>  <MODEL>
5

>  <REMARK>
 VINA RESULT:      -8.3      1.958      3.396
  Name = 
  13 active torsions:
  status: ('A' for Active; 'I' for Inactive)
    1  A    between atoms: C_1  and  C_34
    2  A    between atoms: C_1  and  C_35
    3  A    between atoms: C_2  and  O_6
    4  A    between atoms: C_2  and  C_13
    5  A    between atoms: S_3  and  C_4
    6  A    between atoms: S_3  and  C_12
    7  A    between atoms: O_6  and  C_12
    8  A    between atoms: N_8  and  C_27
    9  A    between atoms: N_8  and  C_30
   10  A    between atoms: N_8  and  C_34
   11  A    between atoms: C_11  and  C_14
   12  A    between atoms: C_13  and  C_27
   13  A    between atoms: C_14  and  C_41
                            x       y       z     vdW  Elec       q    Type
                         _______ _______ _______ _____ _____    ______ ____

>  <TORSDO>
F 13

$$$$
=
 OpenBabel11052416443D

 43 47  0  0  1  0  0  0  0  0999 V2000
  187.4070  178.2010  144.5370 N   0  0  0  0  0  0  0  0  0  0  0  0
  191.7160  176.1070  146.8280 C   0  0  0  0  0  0  0  0  0  0  0  0
  189.5540  177.1530  147.4210 C   0  0  2  0  0  3  0  0  0  0  0  0
  191.7000  176.9450  145.6070 C   0  0  0  0  0  3  0  0  0  0  0  0
  192.7710  175.5040  147.1550 O   0  0  0  0  0  0  0  0  0  0  0  0
  189.2870  177.2690  145.9400 C   0  0  2  0  0  3  0  0  0  0  0  0
  190.4740  175.9610  147.6740 C   0  0  0  0  0  2  0  0  0  0  0  0
  190.5670  177.5350  145.2010 C   0  0  0  0  0  3  0  0  0  0  0  0
  188.2070  178.3280  145.7740 C   0  0  2  0  0  3  0  0  0  0  0  0
  187.1240  178.2490  147.2490 S   0  0  0  0  0  0  0  0  0  0  0  0
  188.2040  177.0310  148.0760 C   0  0  0  0  0  2  0  0  0  0  0  0
  188.1190  177.4220  143.5130 C   0  0  1  0  0  3  0  0  0  0  0  0
  187.5360  176.1600  143.3650 O   0  0  0  0  0  1  0  0  0  0  0  0
  188.0560  178.1330  142.1670 C   0  0  0  0  0  2  0  0  0  0  0  0
  190.0730  177.1530  139.1140 C   0  0  0  0  0  0  0  0  0  0  0  0
  191.3500  176.9800  139.6690 C   0  0  0  0  0  0  0  0  0  0  0  0
  192.4000  176.6190  138.8910 F   0  0  0  0  0  0  0  0  0  0  0  0
  190.4710  177.5470  141.8560 C   0  0  0  0  0  3  0  0  0  0  0  0
  189.0010  177.5210  139.9330 C   0  0  0  0  0  3  0  0  0  0  0  0
  189.1970  177.7180  141.3040 C   0  0  0  0  0  0  0  0  0  0  0  0
  189.8470  176.9660  137.6540 C   0  0  0  0  0  1  0  0  0  0  0  0
  191.5450  177.1750  141.0410 C   0  0  0  0  0  3  0  0  0  0  0  0
  186.0310  177.7300  144.7980 C   0  0  0  0  0  2  0  0  0  0  0  0
  184.9640  178.8210  144.6460 C   0  0  0  0  0  2  0  0  0  0  0  0
  183.9810  178.4970  143.5280 C   0  0  2  0  0  3  0  0  0  0  0  0
  184.6680  178.5570  142.1740 C   0  0  0  0  0  1  0  0  0  0  0  0
  182.8660  179.3840  143.5880 O   0  0  0  0  0  0  0  0  0  0  0  0
  181.5660  179.0090  143.2370 C   0  0  0  0  0  0  0  0  0  0  0  0
  180.9250  178.2330  143.9930 O   0  0  0  0  0  0  0  0  0  0  0  0
  180.7940  179.5880  141.7210 S   0  0  0  0  0  0  0  0  0  0  0  0
  180.8870  178.0100  140.7900 C   0  0  1  0  0  3  0  0  0  0  0  0
  182.2540  176.1380  139.8290 C   0  0  0  0  0  2  0  0  0  0  0  0
  179.6500  177.7110  139.9350 C   0  0  0  0  0  2  0  0  0  0  0  0
  179.8710  176.5050  139.0080 C   0  0  0  0  0  2  0  0  0  0  0  0
  182.2220  177.6490  140.1170 C   0  0  1  0  0  3  0  0  0  0  0  0
  180.8670  175.5060  139.6030 C   0  0  0  0  0  2  0  0  0  0  0  0
  182.4140  178.3980  138.7960 C   0  0  0  0  0  2  0  0  0  0  0  0
  183.7020  178.0640  138.1110 C   0  0  0  0  0  0  0  0  0  0  0  0
  186.1050  177.5220  136.8280 C   0  0  0  0  0  3  0  0  0  0  0  0
  184.8900  177.0800  136.3000 C   0  0  0  0  0  3  0  0  0  0  0  0
  186.1040  178.2560  138.0150 C   0  0  0  0  0  3  0  0  0  0  0  0
  183.7240  177.3650  136.9410 N   0  0  0  0  0  0  0  0  0  0  0  0
  184.8980  178.5330  138.6600 C   0  0  0  0  0  3  0  0  0  0  0  0
  1 23  1  0  0  0  0
  2  5  2  0  0  0  0
  2  7  1  0  0  0  0
  3  7  1  6  0  0  0
  3 11  1  0  0  0  0
  4  2  1  0  0  0  0
  6  8  1  6  0  0  0
  6  3  1  0  0  0  0
  8  4  2  0  0  0  0
  9  1  1  6  0  0  0
  9  6  1  0  0  0  0
  9 10  1  0  0  0  0
 10 11  1  0  0  0  0
 12 13  1  6  0  0  0
 12  1  1  0  0  0  0
 14 12  1  0  0  0  0
 15 16  2  0  0  0  0
 15 19  1  0  0  0  0
 16 22  1  0  0  0  0
 17 16  1  0  0  0  0
 19 20  2  0  0  0  0
 20 18  1  0  0  0  0
 20 14  1  0  0  0  0
 21 15  1  0  0  0  0
 22 18  2  0  0  0  0
 24 23  1  0  0  0  0
 25 26  1  6  0  0  0
 25 27  1  0  0  0  0
 25 24  1  0  0  0  0
 28 27  1  0  0  0  0
 28 29  2  0  0  0  0
 30 28  1  0  0  0  0
 31 30  1  6  0  0  0
 32 35  1  0  0  0  0
 33 31  1  0  0  0  0
 34 36  1  0  0  0  0
 34 33  1  0  0  0  0
 35 37  1  6  0  0  0
 35 31  1  0  0  0  0
 36 32  1  0  0  0  0
 38 43  1  0  0  0  0
 38 37  1  0  0  0  0
 39 41  1  0  0  0  0
 40 39  2  0  0  0  0
 40 42  1  0  0  0  0
 41 43  2  0  0  0  0
 42 38  2  0  0  0  0
M  END
>  <MODEL>
6

>  <REMARK>
 VINA RESULT:      -8.2      3.405      6.852
  Name = 
  13 active torsions:
  status: ('A' for Active; 'I' for Inactive)
    1  A    between atoms: C_1  and  C_34
    2  A    between atoms: C_1  and  C_35
    3  A    between atoms: C_2  and  O_6
    4  A    between atoms: C_2  and  C_13
    5  A    between atoms: S_3  and  C_4
    6  A    between atoms: S_3  and  C_12
    7  A    between atoms: O_6  and  C_12
    8  A    between atoms: N_8  and  C_27
    9  A    between atoms: N_8  and  C_30
   10  A    between atoms: N_8  and  C_34
   11  A    between atoms: C_11  and  C_14
   12  A    between atoms: C_13  and  C_27
   13  A    between atoms: C_14  and  C_41
                            x       y       z     vdW  Elec       q    Type
                         _______ _______ _______ _____ _____    ______ ____

>  <TORSDO>
F 13

$$$$
=
 OpenBabel11052416443D

 43 47  0  0  1  0  0  0  0  0999 V2000
  187.2090  178.2560  144.5500 N   0  0  0  0  0  0  0  0  0  0  0  0
  191.6520  176.3640  146.7580 C   0  0  0  0  0  0  0  0  0  0  0  0
  189.4220  177.2290  147.3900 C   0  0  2  0  0  3  0  0  0  0  0  0
  191.5780  177.2540  145.5770 C   0  0  0  0  0  3  0  0  0  0  0  0
  192.7450  175.8210  147.0620 O   0  0  0  0  0  0  0  0  0  0  0  0
  189.1480  177.3940  145.9150 C   0  0  2  0  0  3  0  0  0  0  0  0
  190.4230  176.0940  147.5920 C   0  0  0  0  0  2  0  0  0  0  0  0
  190.4070  177.7810  145.1940 C   0  0  0  0  0  3  0  0  0  0  0  0
  187.9970  178.3820  145.7940 C   0  0  2  0  0  3  0  0  0  0  0  0
  186.9220  178.1610  147.2610 S   0  0  0  0  0  0  0  0  0  0  0  0
  188.0830  176.9850  148.0340 C   0  0  0  0  0  2  0  0  0  0  0  0
  187.9180  177.4560  143.5420 C   0  0  1  0  0  3  0  0  0  0  0  0
  187.3920  176.1610  143.4860 O   0  0  0  0  0  1  0  0  0  0  0  0
  187.7690  178.0860  142.1620 C   0  0  0  0  0  2  0  0  0  0  0  0
  189.9150  177.4330  139.1110 C   0  0  0  0  0  0  0  0  0  0  0  0
  191.1660  177.1890  139.6990 C   0  0  0  0  0  0  0  0  0  0  0  0
  192.2480  176.9070  138.9320 F   0  0  0  0  0  0  0  0  0  0  0  0
  190.1930  177.5180  141.8940 C   0  0  0  0  0  3  0  0  0  0  0  0
  188.8090  177.7170  139.9180 C   0  0  0  0  0  3  0  0  0  0  0  0
  188.9460  177.7590  141.3090 C   0  0  0  0  0  0  0  0  0  0  0  0
  189.7540  177.4100  137.6300 C   0  0  0  0  0  1  0  0  0  0  0  0
  191.3010  177.2300  141.0900 C   0  0  0  0  0  3  0  0  0  0  0  0
  185.8220  177.8120  144.8000 C   0  0  0  0  0  2  0  0  0  0  0  0
  184.7690  178.9010  144.5580 C   0  0  0  0  0  2  0  0  0  0  0  0
  183.7220  178.4570  143.5450 C   0  0  2  0  0  3  0  0  0  0  0  0
  184.3600  178.2070  142.1870 C   0  0  0  0  0  1  0  0  0  0  0  0
  182.6820  179.4290  143.4620 O   0  0  0  0  0  0  0  0  0  0  0  0
  181.3470  179.1060  143.2010 C   0  0  0  0  0  0  0  0  0  0  0  0
  180.7190  178.3850  144.0190 O   0  0  0  0  0  0  0  0  0  0  0  0
  180.5130  179.6750  141.7150 S   0  0  0  0  0  0  0  0  0  0  0  0
  181.4800  178.6900  140.5070 C   0  0  1  0  0  3  0  0  0  0  0  0
  183.1230  178.5900  138.6120 C   0  0  0  0  0  2  0  0  0  0  0  0
  180.9460  177.2710  140.2810 C   0  0  0  0  0  2  0  0  0  0  0  0
  181.6460  176.5730  139.1050 C   0  0  0  0  0  2  0  0  0  0  0  0
  181.9640  179.3930  139.2280 C   0  0  1  0  0  3  0  0  0  0  0  0
  183.0790  177.0800  138.9160 C   0  0  0  0  0  2  0  0  0  0  0  0
  180.8480  179.5080  138.1850 C   0  0  0  0  0  2  0  0  0  0  0  0
  180.8420  180.8230  137.4710 C   0  0  0  0  0  0  0  0  0  0  0  0
  180.7680  183.2850  136.1890 C   0  0  0  0  0  3  0  0  0  0  0  0
  180.5260  182.1010  135.4900 C   0  0  0  0  0  3  0  0  0  0  0  0
  181.0420  183.2250  137.5560 C   0  0  0  0  0  3  0  0  0  0  0  0
  180.5580  180.9060  136.1400 N   0  0  0  0  0  0  0  0  0  0  0  0
  181.0760  181.9890  138.2040 C   0  0  0  0  0  3  0  0  0  0  0  0
  1 23  1  0  0  0  0
  2  5  2  0  0  0  0
  2  7  1  0  0  0  0
  3  7  1  6  0  0  0
  3 11  1  0  0  0  0
  4  2  1  0  0  0  0
  6  8  1  6  0  0  0
  6  3  1  0  0  0  0
  8  4  2  0  0  0  0
  9  1  1  6  0  0  0
  9  6  1  0  0  0  0
  9 10  1  0  0  0  0
 10 11  1  0  0  0  0
 12 13  1  6  0  0  0
 12  1  1  0  0  0  0
 14 12  1  0  0  0  0
 15 16  2  0  0  0  0
 15 19  1  0  0  0  0
 16 22  1  0  0  0  0
 17 16  1  0  0  0  0
 19 20  2  0  0  0  0
 20 18  1  0  0  0  0
 20 14  1  0  0  0  0
 21 15  1  0  0  0  0
 22 18  2  0  0  0  0
 24 23  1  0  0  0  0
 25 26  1  6  0  0  0
 25 24  1  0  0  0  0
 27 25  1  0  0  0  0
 28 27  1  0  0  0  0
 28 29  2  0  0  0  0
 30 28  1  0  0  0  0
 31 30  1  6  0  0  0
 32 36  1  0  0  0  0
 32 35  1  0  0  0  0
 33 31  1  0  0  0  0
 34 33  1  0  0  0  0
 35 37  1  6  0  0  0
 35 31  1  0  0  0  0
 36 34  1  0  0  0  0
 38 37  1  0  0  0  0
 38 43  1  0  0  0  0
 39 41  1  0  0  0  0
 40 42  1  0  0  0  0
 40 39  2  0  0  0  0
 41 43  2  0  0  0  0
 42 38  2  0  0  0  0
M  END
>  <MODEL>
7

>  <REMARK>
 VINA RESULT:      -8.1      3.174      6.607
  Name = 
  13 active torsions:
  status: ('A' for Active; 'I' for Inactive)
    1  A    between atoms: C_1  and  C_34
    2  A    between atoms: C_1  and  C_35
    3  A    between atoms: C_2  and  O_6
    4  A    between atoms: C_2  and  C_13
    5  A    between atoms: S_3  and  C_4
    6  A    between atoms: S_3  and  C_12
    7  A    between atoms: O_6  and  C_12
    8  A    between atoms: N_8  and  C_27
    9  A    between atoms: N_8  and  C_30
   10  A    between atoms: N_8  and  C_34
   11  A    between atoms: C_11  and  C_14
   12  A    between atoms: C_13  and  C_27
   13  A    between atoms: C_14  and  C_41
                            x       y       z     vdW  Elec       q    Type
                         _______ _______ _______ _____ _____    ______ ____

>  <TORSDO>
F 13

$$$$
=
 OpenBabel11052416443D

 43 47  0  0  1  0  0  0  0  0999 V2000
  189.8070  177.3080  141.7050 N   0  0  0  0  0  0  0  0  0  0  0  0
  192.0530  175.5050  146.1670 C   0  0  0  0  0  0  0  0  0  0  0  0
  191.5710  177.6280  144.9930 C   0  0  2  0  0  3  0  0  0  0  0  0
  192.1470  174.8760  144.8290 C   0  0  0  0  0  3  0  0  0  0  0  0
  192.4560  174.8770  147.1800 O   0  0  0  0  0  0  0  0  0  0  0  0
  190.9250  176.7990  143.9100 C   0  0  2  0  0  3  0  0  0  0  0  0
  191.4670  176.8870  146.3230 C   0  0  0  0  0  2  0  0  0  0  0  0
  191.6560  175.4970  143.7490 C   0  0  0  0  0  3  0  0  0  0  0  0
  190.8690  177.6740  142.6650 C   0  0  2  0  0  3  0  0  0  0  0  0
  190.6640  179.4080  143.2180 S   0  0  0  0  0  0  0  0  0  0  0  0
  190.8600  178.9560  144.9760 C   0  0  0  0  0  2  0  0  0  0  0  0
  188.5020  177.8490  142.1130 C   0  0  1  0  0  3  0  0  0  0  0  0
  187.7670  178.2490  140.9920 O   0  0  0  0  0  1  0  0  0  0  0  0
  187.6960  176.7890  142.8540 C   0  0  0  0  0  2  0  0  0  0  0  0
  185.1840  178.4420  145.1560 C   0  0  0  0  0  0  0  0  0  0  0  0
  185.8720  178.4220  146.3790 C   0  0  0  0  0  0  0  0  0  0  0  0
  185.3070  178.9310  147.5010 F   0  0  0  0  0  0  0  0  0  0  0  0
  187.7560  177.3480  145.2950 C   0  0  0  0  0  3  0  0  0  0  0  0
  185.7850  177.9160  144.0090 C   0  0  0  0  0  3  0  0  0  0  0  0
  187.0710  177.3700  144.0750 C   0  0  0  0  0  0  0  0  0  0  0  0
  183.8070  179.0030  145.0690 C   0  0  0  0  0  1  0  0  0  0  0  0
  187.1590  177.8770  146.4440 C   0  0  0  0  0  3  0  0  0  0  0  0
  190.1740  177.6180  140.3090 C   0  0  0  0  0  2  0  0  0  0  0  0
  190.0910  176.4130  139.3630 C   0  0  0  0  0  2  0  0  0  0  0  0
  189.4600  176.7870  138.0280 C   0  0  2  0  0  3  0  0  0  0  0  0
  189.4280  178.2970  137.8520 C   0  0  0  0  0  1  0  0  0  0  0  0
  188.1540  176.2220  137.9320 O   0  0  0  0  0  0  0  0  0  0  0  0
  187.2400  176.5660  136.9320 C   0  0  0  0  0  0  0  0  0  0  0  0
  187.5170  176.3070  135.7320 O   0  0  0  0  0  0  0  0  0  0  0  0
  185.6890  177.3890  137.3140 S   0  0  0  0  0  0  0  0  0  0  0  0
  184.5800  175.9580  137.0110 C   0  0  1  0  0  3  0  0  0  0  0  0
  182.2620  175.0230  136.7860 C   0  0  0  0  0  2  0  0  0  0  0  0
  185.2440  174.5920  137.2190 C   0  0  0  0  0  2  0  0  0  0  0  0
  184.2240  173.4450  137.1760 C   0  0  0  0  0  2  0  0  0  0  0  0
  183.1370  176.0440  137.5340 C   0  0  1  0  0  3  0  0  0  0  0  0
  183.0260  173.7820  136.2830 C   0  0  0  0  0  2  0  0  0  0  0  0
  183.0550  175.7430  139.0330 C   0  0  0  0  0  2  0  0  0  0  0  0
  182.5480  176.8960  139.8400 C   0  0  0  0  0  0  0  0  0  0  0  0
  181.6210  178.9970  141.4030 C   0  0  0  0  0  3  0  0  0  0  0  0
  180.7650  178.3050  140.5440 C   0  0  0  0  0  3  0  0  0  0  0  0
  182.9620  178.6160  141.4800 C   0  0  0  0  0  3  0  0  0  0  0  0
  181.2380  177.2740  139.7940 N   0  0  0  0  0  0  0  0  0  0  0  0
  183.4290  177.5580  140.6990 C   0  0  0  0  0  3  0  0  0  0  0  0
  1 12  1  0  0  0  0
  2  7  1  0  0  0  0
  2  5  2  0  0  0  0
  3 11  1  1  0  0  0
  3  7  1  0  0  0  0
  4  2  1  0  0  0  0
  6  8  1  6  0  0  0
  6  3  1  0  0  0  0
  8  4  2  0  0  0  0
  9  1  1  6  0  0  0
  9 10  1  0  0  0  0
  9  6  1  0  0  0  0
 10 11  1  0  0  0  0
 12 13  1  6  0  0  0
 12 14  1  0  0  0  0
 14 20  1  0  0  0  0
 15 16  1  0  0  0  0
 16 22  2  0  0  0  0
 16 17  1  0  0  0  0
 18 22  1  0  0  0  0
 19 20  1  0  0  0  0
 19 15  2  0  0  0  0
 20 18  2  0  0  0  0
 21 15  1  0  0  0  0
 23  1  1  0  0  0  0
 24 23  1  0  0  0  0
 25 26  1  1  0  0  0
 25 24  1  0  0  0  0
 27 25  1  0  0  0  0
 28 30  1  0  0  0  0
 28 27  1  0  0  0  0
 29 28  2  0  0  0  0
 31 33  1  0  0  0  0
 31 30  1  1  0  0  0
 31 35  1  0  0  0  0
 32 35  1  0  0  0  0
 34 33  1  0  0  0  0
 35 37  1  1  0  0  0
 36 32  1  0  0  0  0
 36 34  1  0  0  0  0
 37 38  1  0  0  0  0
 38 43  1  0  0  0  0
 39 41  1  0  0  0  0
 40 39  2  0  0  0  0
 42 38  2  0  0  0  0
 42 40  1  0  0  0  0
 43 41  2  0  0  0  0
M  END
>  <MODEL>
8

>  <REMARK>
 VINA RESULT:      -8.1      2.777      5.722
  Name = 
  13 active torsions:
  status: ('A' for Active; 'I' for Inactive)
    1  A    between atoms: C_1  and  C_34
    2  A    between atoms: C_1  and  C_35
    3  A    between atoms: C_2  and  O_6
    4  A    between atoms: C_2  and  C_13
    5  A    between atoms: S_3  and  C_4
    6  A    between atoms: S_3  and  C_12
    7  A    between atoms: O_6  and  C_12
    8  A    between atoms: N_8  and  C_27
    9  A    between atoms: N_8  and  C_30
   10  A    between atoms: N_8  and  C_34
   11  A    between atoms: C_11  and  C_14
   12  A    between atoms: C_13  and  C_27
   13  A    between atoms: C_14  and  C_41
                            x       y       z     vdW  Elec       q    Type
                         _______ _______ _______ _____ _____    ______ ____

>  <TORSDO>
F 13

$$$$
=
 OpenBabel11052416443D

 43 47  0  0  1  0  0  0  0  0999 V2000
  183.1440  177.8310  139.1370 N   0  0  0  0  0  0  0  0  0  0  0  0
  183.4390  178.9210  144.3260 C   0  0  0  0  0  0  0  0  0  0  0  0
  181.9670  179.3000  142.3740 C   0  0  2  0  0  3  0  0  0  0  0  0
  184.5730  178.9110  143.3730 C   0  0  0  0  0  3  0  0  0  0  0  0
  183.6650  178.9930  145.5620 O   0  0  0  0  0  0  0  0  0  0  0  0
  182.9620  178.5070  141.5620 C   0  0  2  0  0  3  0  0  0  0  0  0
  182.0180  178.8320  143.8270 C   0  0  0  0  0  2  0  0  0  0  0  0
  184.3560  178.7590  142.0600 C   0  0  0  0  0  3  0  0  0  0  0  0
  182.7160  178.8640  140.1030 C   0  0  2  0  0  3  0  0  0  0  0  0
  180.9290  179.2180  139.9150 S   0  0  0  0  0  0  0  0  0  0  0  0
  180.6320  179.0910  141.7110 C   0  0  0  0  0  2  0  0  0  0  0  0
  181.9940  177.2300  138.4460 C   0  0  1  0  0  3  0  0  0  0  0  0
  182.2090  177.2100  137.0640 O   0  0  0  0  0  1  0  0  0  0  0  0
  181.7840  175.7950  138.9130 C   0  0  0  0  0  2  0  0  0  0  0  0
  184.4280  173.7710  137.1080 C   0  0  0  0  0  0  0  0  0  0  0  0
  183.6430  173.0130  136.2250 C   0  0  0  0  0  0  0  0  0  0  0  0
  184.2170  172.1280  135.3740 F   0  0  0  0  0  0  0  0  0  0  0  0
  181.6470  174.0830  137.0900 C   0  0  0  0  0  3  0  0  0  0  0  0
  183.8190  174.6820  137.9760 C   0  0  0  0  0  3  0  0  0  0  0  0
  182.4290  174.8400  137.9690 C   0  0  0  0  0  0  0  0  0  0  0  0
  185.9070  173.6030  137.1440 C   0  0  0  0  0  1  0  0  0  0  0  0
  182.2530  173.1740  136.2170 C   0  0  0  0  0  3  0  0  0  0  0  0
  184.2060  178.3080  138.2290 C   0  0  0  0  0  2  0  0  0  0  0  0
  185.6260  177.9970  138.7170 C   0  0  0  0  0  2  0  0  0  0  0  0
  186.5810  177.7540  137.5550 C   0  0  2  0  0  3  0  0  0  0  0  0
  185.8130  177.3980  136.2930 C   0  0  0  0  0  1  0  0  0  0  0  0
  187.5180  176.7360  137.9000 O   0  0  0  0  0  0  0  0  0  0  0  0
  188.6920  176.9830  138.6180 C   0  0  0  0  0  0  0  0  0  0  0  0
  189.7090  176.2760  138.3950 O   0  0  0  0  0  0  0  0  0  0  0  0
  188.7780  178.2690  139.8700 S   0  0  0  0  0  0  0  0  0  0  0  0
  189.5160  177.2490  141.2060 C   0  0  1  0  0  3  0  0  0  0  0  0
  189.2310  175.8190  143.2490 C   0  0  0  0  0  2  0  0  0  0  0  0
  191.0080  177.5090  141.4450 C   0  0  0  0  0  2  0  0  0  0  0  0
  191.5180  176.8050  142.7120 C   0  0  0  0  0  2  0  0  0  0  0  0
  188.6970  177.0480  142.4920 C   0  0  1  0  0  3  0  0  0  0  0  0
  190.7260  175.5290  143.0100 C   0  0  0  0  0  2  0  0  0  0  0  0
  188.7860  178.2630  143.4200 C   0  0  0  0  0  2  0  0  0  0  0  0
  188.5080  177.9320  144.8530 C   0  0  0  0  0  0  0  0  0  0  0  0
  187.9550  177.3870  147.5200 C   0  0  0  0  0  3  0  0  0  0  0  0
  189.2690  177.5500  147.0740 C   0  0  0  0  0  3  0  0  0  0  0  0
  186.9070  177.5100  146.6070 C   0  0  0  0  0  3  0  0  0  0  0  0
  189.5160  177.8260  145.7650 N   0  0  0  0  0  0  0  0  0  0  0  0
  187.1820  177.7870  145.2670 C   0  0  0  0  0  3  0  0  0  0  0  0
  2  5  2  0  0  0  0
  3 11  1  6  0  0  0
  3  7  1  0  0  0  0
  4  2  1  0  0  0  0
  6  8  1  1  0  0  0
  6  3  1  0  0  0  0
  7  2  1  0  0  0  0
  8  4  2  0  0  0  0
  9  1  1  6  0  0  0
  9  6  1  0  0  0  0
 10  9  1  0  0  0  0
 10 11  1  0  0  0  0
 12 13  1  6  0  0  0
 12 14  1  0  0  0  0
 12  1  1  0  0  0  0
 15 21  1  0  0  0  0
 15 19  1  0  0  0  0
 16 15  2  0  0  0  0
 17 16  1  0  0  0  0
 18 20  1  0  0  0  0
 20 19  2  0  0  0  0
 20 14  1  0  0  0  0
 22 16  1  0  0  0  0
 22 18  2  0  0  0  0
 23 24  1  0  0  0  0
 23  1  1  0  0  0  0
 25 26  1  6  0  0  0
 25 27  1  0  0  0  0
 25 24  1  0  0  0  0
 27 28  1  0  0  0  0
 28 30  1  0  0  0  0
 29 28  2  0  0  0  0
 31 30  1  1  0  0  0
 31 33  1  0  0  0  0
 31 35  1  0  0  0  0
 33 34  1  0  0  0  0
 34 36  1  0  0  0  0
 35 32  1  0  0  0  0
 35 37  1  1  0  0  0
 36 32  1  0  0  0  0
 37 38  1  0  0  0  0
 38 43  2  0  0  0  0
 38 42  1  0  0  0  0
 40 39  1  0  0  0  0
 41 39  2  0  0  0  0
 42 40  2  0  0  0  0
 43 41  1  0  0  0  0
M  END
>  <MODEL>
9

>  <REMARK>
 VINA RESULT:      -7.9      3.764      9.413
  Name = 
  13 active torsions:
  status: ('A' for Active; 'I' for Inactive)
    1  A    between atoms: C_1  and  C_34
    2  A    between atoms: C_1  and  C_35
    3  A    between atoms: C_2  and  O_6
    4  A    between atoms: C_2  and  C_13
    5  A    between atoms: S_3  and  C_4
    6  A    between atoms: S_3  and  C_12
    7  A    between atoms: O_6  and  C_12
    8  A    between atoms: N_8  and  C_27
    9  A    between atoms: N_8  and  C_30
   10  A    between atoms: N_8  and  C_34
   11  A    between atoms: C_11  and  C_14
   12  A    between atoms: C_13  and  C_27
   13  A    between atoms: C_14  and  C_41
                            x       y       z     vdW  Elec       q    Type
                         _______ _______ _______ _____ _____    ______ ____

>  <TORSDO>
F 13

$$$$
