=
 OpenBabel11052414163D

 34 41  0  0  1  0  0  0  0  0999 V2000
  187.3130  177.7440  145.4780 C   0  0  0  0  0  0  0  0  0  0  0  0
  189.0770  177.5690  143.7600 C   0  0  0  0  0  0  0  0  0  0  0  0
  186.7870  178.0230  143.1460 C   0  0  0  0  0  0  0  0  0  0  0  0
  186.4490  178.2930  140.8370 C   0  0  0  0  0  0  0  0  0  0  0  0
  189.6140  177.2900  146.1110 C   0  0  0  0  0  3  0  0  0  0  0  0
  181.0810  179.4010  143.2580 C   0  0  1  0  0  0  0  0  0  0  0  0
  180.6680  180.0870  142.1060 O   0  0  0  0  0  0  0  0  0  0  0  0
  190.0190  177.3280  144.7640 C   0  0  0  0  0  3  0  0  0  0  0  0
  188.4650  177.8530  141.5070 C   0  0  0  0  0  0  0  0  0  0  0  0
  183.1700  178.7310  142.4400 N   0  0  0  0  0  0  0  0  0  0  0  0
  187.7230  177.7710  144.1400 C   0  0  2  0  0  3  0  0  0  0  0  0
  180.8300  178.6850  141.9930 C   0  0  1  0  0  3  0  0  0  0  0  0
  187.2170  178.2860  139.6710 C   0  0  0  0  0  3  0  0  0  0  0  0
  188.2690  177.4960  146.4670 C   0  0  0  0  0  3  0  0  0  0  0  0
  185.4350  178.2640  143.4090 C   0  0  0  0  0  0  0  0  0  0  0  0
  182.5570  179.3700  143.5870 C   0  0  0  0  0  2  0  0  0  0  0  0
  185.9560  177.9630  145.7850 C   0  0  0  0  0  3  0  0  0  0  0  0
  189.4410  177.6170  142.4320 N   0  0  0  0  0  0  0  0  0  0  0  0
  185.1180  178.5210  141.0060 N   0  0  0  0  0  0  0  0  0  0  0  0
  182.2040  178.3690  141.4160 C   0  0  0  0  0  2  0  0  0  0  0  0
  184.5820  178.5130  142.2810 C   0  0  0  0  0  0  0  0  0  0  0  0
  188.5320  178.0020  140.1310 C   0  0  0  0  0  0  0  0  0  0  0  0
  180.1040  179.2240  144.2340 O   0  0  0  0  0  1  0  0  0  0  0  0
  187.2130  178.0400  141.8860 N   0  0  0  0  0  0  0  0  0  0  0  0
  185.0210  178.2190  144.7560 C   0  0  0  0  0  3  0  0  0  0  0  0
  190.1890  176.7900  138.7830 C   0  0  0  0  0  3  0  0  0  0  0  0
  189.7590  177.9210  139.3320 C   0  0  0  0  0  3  0  0  0  0  0  0
  193.2540  177.1820  139.4140 C   0  0  0  0  0  1  0  0  0  0  0  0
  191.4360  176.7860  137.9620 C   0  0  1  0  0  3  0  0  0  0  0  0
  192.5330  176.1370  138.7070 N   0  0  0  0  0  0  0  0  0  0  0  0
  193.7060  176.1360  136.5000 C   0  0  0  0  0  2  0  0  0  0  0  0
  192.3950  176.2010  135.7130 C   0  0  0  0  0  2  0  0  0  0  0  0
  191.1670  176.1100  136.6140 C   0  0  0  0  0  2  0  0  0  0  0  0
  193.5090  175.4410  137.8490 C   0  0  0  0  0  2  0  0  0  0  0  0
  1 17  1  0  0  0  0
  1 14  2  0  0  0  0
  2 11  1  0  0  0  0
  2  8  1  0  0  0  0
  3 15  2  0  0  0  0
  4 19  1  0  0  0  0
  4 24  1  0  0  0  0
  5 14  1  0  0  0  0
  6 16  1  0  0  0  0
  6 23  1  1  0  0  0
  7  6  1  0  0  0  0
  8  5  2  0  0  0  0
  9 24  1  0  0  0  0
  9 18  1  0  0  0  0
 10 16  1  0  0  0  0
 11  3  1  1  0  0  0
 11  1  1  0  0  0  0
 12 20  1  6  0  0  0
 12  7  1  0  0  0  0
 12  6  1  0  0  0  0
 13 22  1  0  0  0  0
 13  4  2  0  0  0  0
 15 25  1  0  0  0  0
 18  2  2  0  0  0  0
 19 21  2  0  0  0  0
 20 10  1  0  0  0  0
 21 10  1  0  0  0  0
 21 15  1  0  0  0  0
 22  9  2  0  0  0  0
 24  3  1  0  0  0  0
 25 17  2  0  0  0  0
 26 27  2  0  0  0  0
 27 22  1  0  0  0  0
 29 30  1  0  0  0  0
 29 26  1  1  0  0  0
 30 28  1  0  0  0  0
 31 34  1  0  0  0  0
 32 31  1  0  0  0  0
 32 33  1  0  0  0  0
 33 29  1  0  0  0  0
 34 30  1  0  0  0  0
M  END
>  <MODEL>
1

>  <REMARK>
 VINA RESULT:     -10.4      0.000      0.000
  Name = 
  2 active torsions:
  status: ('A' for Active; 'I' for Inactive)
    1  A    between atoms: C_3  and  C_13
    2  A    between atoms: C_17  and  C_29
                            x       y       z     vdW  Elec       q    Type
                         _______ _______ _______ _____ _____    ______ ____

>  <TORSDO>
F 2

$$$$
=
 OpenBabel11052414163D

 34 41  0  0  1  0  0  0  0  0999 V2000
  189.9240  177.4260  140.3750 C   0  0  0  0  0  0  0  0  0  0  0  0
  187.8220  178.1020  139.2710 C   0  0  0  0  0  0  0  0  0  0  0  0
  187.9610  177.9230  141.6740 C   0  0  0  0  0  0  0  0  0  0  0  0
  185.9680  178.4660  142.7930 C   0  0  0  0  0  0  0  0  0  0  0  0
  189.8000  177.6060  137.9550 C   0  0  0  0  0  3  0  0  0  0  0  0
  189.8990  177.4280  147.1940 C   0  0  1  0  0  0  0  0  0  0  0  0
  189.1090  178.1390  148.1100 O   0  0  0  0  0  0  0  0  0  0  0  0
  188.4510  177.9970  138.0270 C   0  0  0  0  0  3  0  0  0  0  0  0
  185.9560  178.5630  140.6260 C   0  0  0  0  0  0  0  0  0  0  0  0
  188.4240  177.5870  145.3830 N   0  0  0  0  0  0  0  0  0  0  0  0
  188.5790  177.8080  140.4360 C   0  0  0  0  0  0  0  0  0  0  0  0
  188.6030  176.8970  147.6570 C   0  0  1  0  0  3  0  0  0  0  0  0
  184.6800  178.8960  142.4640 C   0  0  0  0  0  3  0  0  0  0  0  0
  190.5340  177.3210  139.1200 C   0  0  0  0  0  3  0  0  0  0  0  0
  188.6180  177.6850  142.8850 C   0  0  0  0  0  0  0  0  0  0  0  0
  189.8140  177.8000  145.7310 C   0  0  0  0  0  2  0  0  0  0  0  0
  190.6180  177.1590  141.5700 C   0  0  0  0  0  3  0  0  0  0  0  0
  186.5030  178.4870  139.3770 N   0  0  0  0  0  0  0  0  0  0  0  0
  186.5290  178.2390  144.0110 N   0  0  0  0  0  2  0  0  0  0  0  0
  187.6280  177.1240  146.5080 C   0  0  0  0  0  2  0  0  0  0  0  0
  187.8540  177.8470  144.0900 C   0  0  0  0  0  0  0  0  0  0  0  0
  184.6950  178.9580  141.0440 C   0  0  0  0  0  0  0  0  0  0  0  0
  191.0160  176.7930  147.7310 O   0  0  0  0  0  1  0  0  0  0  0  0
  186.6810  178.2860  141.6950 N   0  0  0  0  0  0  0  0  0  0  0  0
  189.9690  177.2850  142.8190 C   0  0  0  0  0  3  0  0  0  0  0  0
  182.3480  179.0220  140.3210 C   0  0  0  0  0  3  0  0  0  0  0  0
  183.6120  179.3990  140.1580 C   0  0  0  0  0  3  0  0  0  0  0  0
  179.2420  179.5140  140.5640 C   0  0  0  0  0  1  0  0  0  0  0  0
  181.2930  179.5270  139.3950 C   0  0  1  0  0  3  0  0  0  0  0  0
  180.3320  180.3730  140.1310 N   0  0  0  0  0  0  0  0  0  0  0  0
  179.5510  181.0460  137.8540 C   0  0  0  0  0  2  0  0  0  0  0  0
  180.8890  180.6900  137.2030 C   0  0  0  0  0  2  0  0  0  0  0  0
  181.9430  180.2690  138.2230 C   0  0  0  0  0  2  0  0  0  0  0  0
  179.7380  181.4490  139.3190 C   0  0  0  0  0  2  0  0  0  0  0  0
  1 11  1  0  0  0  0
  1 17  1  0  0  0  0
  2 18  2  0  0  0  0
  2 11  1  0  0  0  0
  3 24  1  0  0  0  0
  3 15  1  0  0  0  0
  4 19  1  0  0  0  0
  5  8  2  0  0  0  0
  5 14  1  0  0  0  0
  6 12  1  0  0  0  0
  6 23  1  1  0  0  0
  6  7  1  0  0  0  0
  8  2  1  0  0  0  0
  9 22  2  0  0  0  0
  9 24  1  0  0  0  0
 10 16  1  0  0  0  0
 10 20  1  0  0  0  0
 11  3  2  0  0  0  0
 12 20  1  6  0  0  0
 12  7  1  0  0  0  0
 13  4  2  0  0  0  0
 14  1  2  0  0  0  0
 15 21  2  0  0  0  0
 16  6  1  0  0  0  0
 17 25  2  0  0  0  0
 18  9  1  0  0  0  0
 19 21  1  0  0  0  0
 21 10  1  0  0  0  0
 22 13  1  0  0  0  0
 24  4  1  0  0  0  0
 25 15  1  0  0  0  0
 27 26  2  0  0  0  0
 27 22  1  0  0  0  0
 29 30  1  0  0  0  0
 29 26  1  1  0  0  0
 30 28  1  0  0  0  0
 31 34  1  0  0  0  0
 32 31  1  0  0  0  0
 32 33  1  0  0  0  0
 33 29  1  0  0  0  0
 34 30  1  0  0  0  0
M  END
>  <MODEL>
2

>  <REMARK>
 VINA RESULT:     -10.0      3.387      8.256
  Name = 
  2 active torsions:
  status: ('A' for Active; 'I' for Inactive)
    1  A    between atoms: C_3  and  C_13
    2  A    between atoms: C_17  and  C_29
                            x       y       z     vdW  Elec       q    Type
                         _______ _______ _______ _____ _____    ______ ____

>  <TORSDO>
F 2

$$$$
=
 OpenBabel11052414163D

 34 41  0  0  1  0  0  0  0  0999 V2000
  188.9740  177.2470  145.7450 C   0  0  0  0  0  0  0  0  0  0  0  0
  190.7650  177.0030  144.0640 C   0  0  0  0  0  0  0  0  0  0  0  0
  188.4990  177.5050  143.4000 C   0  0  0  0  0  0  0  0  0  0  0  0
  188.2110  177.7490  141.0820 C   0  0  0  0  0  0  0  0  0  0  0  0
  191.2510  176.7460  146.4280 C   0  0  0  0  0  3  0  0  0  0  0  0
  182.8290  179.0270  143.3840 C   0  0  1  0  0  0  0  0  0  0  0  0
  182.4540  179.7060  142.2140 O   0  0  0  0  0  0  0  0  0  0  0  0
  191.6810  176.7540  145.0900 C   0  0  0  0  0  3  0  0  0  0  0  0
  190.2020  177.2690  141.7960 C   0  0  0  0  0  0  0  0  0  0  0  0
  184.9140  178.2930  142.6160 N   0  0  0  0  0  0  0  0  0  0  0  0
  189.4100  177.2450  144.4150 C   0  0  2  0  0  3  0  0  0  0  0  0
  182.5830  178.2990  142.1250 C   0  0  1  0  0  3  0  0  0  0  0  0
  189.0000  177.7060  139.9300 C   0  0  0  0  0  3  0  0  0  0  0  0
  189.9050  176.9900  146.7560 C   0  0  0  0  0  3  0  0  0  0  0  0
  187.1490  177.7830  143.6330 C   0  0  0  0  0  0  0  0  0  0  0  0
  184.2970  178.9640  143.7410 C   0  0  0  0  0  2  0  0  0  0  0  0
  187.6170  177.5050  146.0230 C   0  0  0  0  0  3  0  0  0  0  0  0
  191.1550  177.0220  142.7420 N   0  0  0  0  0  0  0  0  0  0  0  0
  186.8840  178.0130  141.2220 N   0  0  0  0  0  0  0  0  0  0  0  0
  183.9600  177.9400  141.5790 C   0  0  0  0  0  2  0  0  0  0  0  0
  186.3230  178.0370  142.4870 C   0  0  0  0  0  0  0  0  0  0  0  0
  190.2990  177.3950  140.4200 C   0  0  0  0  0  0  0  0  0  0  0  0
  181.8290  178.8890  144.3430 O   0  0  0  0  0  1  0  0  0  0  0  0
  188.9490  177.4930  142.1480 N   0  0  0  0  0  0  0  0  0  0  0  0
  186.7090  177.7690  144.9740 C   0  0  0  0  0  3  0  0  0  0  0  0
  191.6970  176.3780  138.6760 C   0  0  0  0  0  3  0  0  0  0  0  0
  191.5380  177.2720  139.6460 C   0  0  0  0  0  3  0  0  0  0  0  0
  194.6710  175.6110  139.3980 C   0  0  0  0  0  1  0  0  0  0  0  0
  192.9800  176.3230  137.9130 C   0  0  1  0  0  3  0  0  0  0  0  0
  193.7780  175.1590  138.3440 N   0  0  0  0  0  0  0  0  0  0  0  0
  195.1400  175.6460  136.3050 C   0  0  0  0  0  2  0  0  0  0  0  0
  193.9860  176.3720  135.6100 C   0  0  0  0  0  2  0  0  0  0  0  0
  192.6880  176.3070  136.4090 C   0  0  0  0  0  2  0  0  0  0  0  0
  194.6220  174.5860  137.2790 C   0  0  0  0  0  2  0  0  0  0  0  0
  1 17  1  0  0  0  0
  1 14  2  0  0  0  0
  2 11  1  0  0  0  0
  2  8  1  0  0  0  0
  3 15  2  0  0  0  0
  4 19  1  0  0  0  0
  4 24  1  0  0  0  0
  5 14  1  0  0  0  0
  6 16  1  0  0  0  0
  6 23  1  1  0  0  0
  7  6  1  0  0  0  0
  8  5  2  0  0  0  0
  9 24  1  0  0  0  0
  9 18  1  0  0  0  0
 10 16  1  0  0  0  0
 11  3  1  1  0  0  0
 11  1  1  0  0  0  0
 12 20  1  6  0  0  0
 12  7  1  0  0  0  0
 12  6  1  0  0  0  0
 13 22  1  0  0  0  0
 13  4  2  0  0  0  0
 15 25  1  0  0  0  0
 18  2  2  0  0  0  0
 19 21  2  0  0  0  0
 20 10  1  0  0  0  0
 21 10  1  0  0  0  0
 21 15  1  0  0  0  0
 22  9  2  0  0  0  0
 24  3  1  0  0  0  0
 25 17  2  0  0  0  0
 26 27  2  0  0  0  0
 27 22  1  0  0  0  0
 29 30  1  0  0  0  0
 29 26  1  1  0  0  0
 30 28  1  0  0  0  0
 31 34  1  0  0  0  0
 32 31  1  0  0  0  0
 32 33  1  0  0  0  0
 33 29  1  0  0  0  0
 34 30  1  0  0  0  0
M  END
>  <MODEL>
3

>  <REMARK>
 VINA RESULT:      -9.5      1.237      1.775
  Name = 
  2 active torsions:
  status: ('A' for Active; 'I' for Inactive)
    1  A    between atoms: C_3  and  C_13
    2  A    between atoms: C_17  and  C_29
                            x       y       z     vdW  Elec       q    Type
                         _______ _______ _______ _____ _____    ______ ____

>  <TORSDO>
F 2

$$$$
=
 OpenBabel11052414163D

 34 41  0  0  1  0  0  0  0  0999 V2000
  188.2410  177.4620  137.3330 C   0  0  0  0  0  0  0  0  0  0  0  0
  187.7710  178.0140  139.6930 C   0  0  0  0  0  0  0  0  0  0  0  0
  189.9480  177.2240  139.0130 C   0  0  0  0  0  0  0  0  0  0  0  0
  191.5040  177.0720  140.7660 C   0  0  0  0  0  0  0  0  0  0  0  0
  186.0460  178.2600  138.0030 C   0  0  0  0  0  3  0  0  0  0  0  0
  194.6440  175.6270  135.8720 C   0  0  1  0  0  0  0  0  0  0  0  0
  195.8540  175.9080  136.5250 O   0  0  0  0  0  0  0  0  0  0  0  0
  186.4640  178.3630  139.3420 C   0  0  0  0  0  3  0  0  0  0  0  0
  189.5020  177.7440  141.2620 C   0  0  0  0  0  0  0  0  0  0  0  0
  193.2480  175.9940  137.7140 N   0  0  0  0  0  0  0  0  0  0  0  0
  188.6460  177.5600  138.6690 C   0  0  2  0  0  3  0  0  0  0  0  0
  195.1430  174.7630  136.9580 C   0  0  1  0  0  3  0  0  0  0  0  0
  191.5470  177.3320  142.1370 C   0  0  0  0  0  3  0  0  0  0  0  0
  186.9280  177.8110  137.0030 C   0  0  0  0  0  3  0  0  0  0  0  0
  190.9000  176.7940  138.0830 C   0  0  0  0  0  0  0  0  0  0  0  0
  193.3980  176.3560  136.3190 C   0  0  0  0  0  2  0  0  0  0  0  0
  189.1640  177.0150  136.3670 C   0  0  0  0  0  3  0  0  0  0  0  0
  188.2140  178.1080  140.9950 N   0  0  0  0  0  0  0  0  0  0  0  0
  192.4830  176.6320  139.9280 N   0  0  0  0  0  0  0  0  0  0  0  0
  194.3010  175.1090  138.1810 C   0  0  0  0  0  2  0  0  0  0  0  0
  192.2110  176.4830  138.5800 C   0  0  0  0  0  0  0  0  0  0  0  0
  190.2310  177.7750  142.4400 C   0  0  0  0  0  0  0  0  0  0  0  0
  194.7650  175.0860  134.5940 O   0  0  0  0  0  1  0  0  0  0  0  0
  190.2970  177.3280  140.2920 N   0  0  0  0  0  0  0  0  0  0  0  0
  190.4850  176.6800  136.7390 C   0  0  0  0  0  3  0  0  0  0  0  0
  189.3590  177.3960  144.7050 C   0  0  0  0  0  3  0  0  0  0  0  0
  189.7190  178.2310  143.7370 C   0  0  0  0  0  3  0  0  0  0  0  0
  186.5610  178.3740  145.7820 C   0  0  0  0  0  1  0  0  0  0  0  0
  188.8680  177.9310  146.0090 C   0  0  1  0  0  3  0  0  0  0  0  0
  187.5180  177.4090  146.2970 N   0  0  0  0  0  0  0  0  0  0  0  0
  187.9270  178.3020  148.5960 C   0  0  0  0  0  2  0  0  0  0  0  0
  189.4470  178.2380  148.4360 C   0  0  0  0  0  2  0  0  0  0  0  0
  189.8710  177.5970  147.1180 C   0  0  0  0  0  2  0  0  0  0  0  0
  187.2340  177.2440  147.7340 C   0  0  0  0  0  2  0  0  0  0  0  0
  2 18  2  0  0  0  0
  3 24  1  0  0  0  0
  4 13  2  0  0  0  0
  5  8  2  0  0  0  0
  6 23  1  6  0  0  0
  6 16  1  0  0  0  0
  6  7  1  0  0  0  0
  6 12  1  0  0  0  0
  7 12  1  0  0  0  0
  8  2  1  0  0  0  0
  9 22  2  0  0  0  0
 10 20  1  0  0  0  0
 10 21  1  0  0  0  0
 11  1  1  6  0  0  0
 11  3  1  0  0  0  0
 11  2  1  0  0  0  0
 12 20  1  1  0  0  0
 13 22  1  0  0  0  0
 14  1  2  0  0  0  0
 14  5  1  0  0  0  0
 15 21  1  0  0  0  0
 15  3  2  0  0  0  0
 16 10  1  0  0  0  0
 17 25  2  0  0  0  0
 17  1  1  0  0  0  0
 18  9  1  0  0  0  0
 19  4  1  0  0  0  0
 21 19  2  0  0  0  0
 22 27  1  0  0  0  0
 24  4  1  0  0  0  0
 24  9  1  0  0  0  0
 25 15  1  0  0  0  0
 27 26  2  0  0  0  0
 28 30  1  0  0  0  0
 29 26  1  6  0  0  0
 29 30  1  0  0  0  0
 29 33  1  0  0  0  0
 30 34  1  0  0  0  0
 32 31  1  0  0  0  0
 33 32  1  0  0  0  0
 34 31  1  0  0  0  0
M  END
>  <MODEL>
4

>  <REMARK>
 VINA RESULT:      -9.4      4.887      9.886
  Name = 
  2 active torsions:
  status: ('A' for Active; 'I' for Inactive)
    1  A    between atoms: C_3  and  C_13
    2  A    between atoms: C_17  and  C_29
                            x       y       z     vdW  Elec       q    Type
                         _______ _______ _______ _____ _____    ______ ____

>  <TORSDO>
F 2

$$$$
=
 OpenBabel11052414163D

 34 41  0  0  1  0  0  0  0  0999 V2000
  184.5730  178.5680  144.9790 C   0  0  0  0  0  0  0  0  0  0  0  0
  183.7160  178.8110  142.6770 C   0  0  0  0  0  0  0  0  0  0  0  0
  186.0540  178.3760  143.0920 C   0  0  0  0  0  0  0  0  0  0  0  0
  187.3550  178.1930  141.1450 C   0  0  0  0  0  0  0  0  0  0  0  0
  182.2170  179.0020  144.5760 C   0  0  0  0  0  3  0  0  0  0  0  0
  191.1770  176.9830  145.5980 C   0  0  1  0  0  0  0  0  0  0  0  0
  192.0550  176.3400  144.7120 O   0  0  0  0  0  0  0  0  0  0  0  0
  182.4310  179.0150  143.1870 C   0  0  0  0  0  3  0  0  0  0  0  0
  185.2410  178.6110  140.8980 C   0  0  0  0  0  0  0  0  0  0  0  0
  189.6330  177.6880  143.9860 N   0  0  0  0  0  0  0  0  0  0  0  0
  184.7780  178.5920  143.5950 C   0  0  0  0  0  0  0  0  0  0  0  0
  191.9370  177.7450  144.5900 C   0  0  1  0  0  3  0  0  0  0  0  0
  187.1630  178.2450  139.7620 C   0  0  0  0  0  3  0  0  0  0  0  0
  183.2810  178.7800  145.4690 C   0  0  0  0  0  3  0  0  0  0  0  0
  187.1650  178.1230  143.9010 C   0  0  0  0  0  0  0  0  0  0  0  0
  189.7030  177.0040  145.2610 C   0  0  0  0  0  2  0  0  0  0  0  0
  185.6700  178.3340  145.8320 C   0  0  0  0  0  3  0  0  0  0  0  0
  183.9580  178.8130  141.3200 N   0  0  0  0  0  0  0  0  0  0  0  0
  188.4870  177.9550  141.8610 N   0  0  0  0  0  2  0  0  0  0  0  0
  190.9400  178.0860  143.4900 C   0  0  0  0  0  2  0  0  0  0  0  0
  188.4240  177.9140  143.2430 C   0  0  0  0  0  0  0  0  0  0  0  0
  185.7740  178.5140  139.6220 C   0  0  0  0  0  0  0  0  0  0  0  0
  191.6380  177.1210  146.9050 O   0  0  0  0  0  1  0  0  0  0  0  0
  186.2110  178.4070  141.7710 N   0  0  0  0  0  0  0  0  0  0  0  0
  186.9590  178.1160  145.2970 C   0  0  0  0  0  3  0  0  0  0  0  0
  184.1180  177.7200  137.9920 C   0  0  0  0  0  3  0  0  0  0  0  0
  185.0080  178.6280  138.3770 C   0  0  0  0  0  3  0  0  0  0  0  0
  184.4940  176.7400  135.0170 C   0  0  0  0  0  1  0  0  0  0  0  0
  183.3570  177.9110  136.7220 C   0  0  1  0  0  3  0  0  0  0  0  0
  183.3660  176.6650  135.9310 N   0  0  0  0  0  0  0  0  0  0  0  0
  181.5770  177.7880  134.5940 C   0  0  0  0  0  2  0  0  0  0  0  0
  181.1800  178.7090  135.7490 C   0  0  0  0  0  2  0  0  0  0  0  0
  181.9360  178.3920  137.0370 C   0  0  0  0  0  2  0  0  0  0  0  0
  182.1580  176.4690  135.1100 C   0  0  0  0  0  2  0  0  0  0  0  0
  1 14  2  0  0  0  0
  1 17  1  0  0  0  0
  2  8  1  0  0  0  0
  2 11  1  0  0  0  0
  3 11  2  0  0  0  0
  3 15  1  0  0  0  0
  4 24  1  0  0  0  0
  4 19  1  0  0  0  0
  5 14  1  0  0  0  0
  6 23  1  1  0  0  0
  7  6  1  0  0  0  0
  8  5  2  0  0  0  0
  9 18  1  0  0  0  0
  9 24  1  0  0  0  0
 10 16  1  0  0  0  0
 11  1  1  0  0  0  0
 12 20  1  6  0  0  0
 12  7  1  0  0  0  0
 12  6  1  0  0  0  0
 13  4  2  0  0  0  0
 15 25  1  0  0  0  0
 16  6  1  0  0  0  0
 18  2  2  0  0  0  0
 19 21  1  0  0  0  0
 20 10  1  0  0  0  0
 21 15  2  0  0  0  0
 21 10  1  0  0  0  0
 22 13  1  0  0  0  0
 22  9  2  0  0  0  0
 24  3  1  0  0  0  0
 25 17  2  0  0  0  0
 26 27  2  0  0  0  0
 27 22  1  0  0  0  0
 28 30  1  0  0  0  0
 29 33  1  0  0  0  0
 29 26  1  1  0  0  0
 30 29  1  0  0  0  0
 31 34  1  0  0  0  0
 31 32  1  0  0  0  0
 32 33  1  0  0  0  0
 34 30  1  0  0  0  0
M  END
>  <MODEL>
5

>  <REMARK>
 VINA RESULT:      -9.1      4.207      7.372
  Name = 
  2 active torsions:
  status: ('A' for Active; 'I' for Inactive)
    1  A    between atoms: C_3  and  C_13
    2  A    between atoms: C_17  and  C_29
                            x       y       z     vdW  Elec       q    Type
                         _______ _______ _______ _____ _____    ______ ____

>  <TORSDO>
F 2

$$$$
=
 OpenBabel11052414163D

 34 41  0  0  1  0  0  0  0  0999 V2000
  190.0360  177.1220  144.5050 C   0  0  0  0  0  0  0  0  0  0  0  0
  187.7090  177.8760  144.8400 C   0  0  0  0  0  0  0  0  0  0  0  0
  188.6080  177.5700  142.6210 C   0  0  0  0  0  0  0  0  0  0  0  0
  187.0780  178.0250  140.8960 C   0  0  0  0  0  0  0  0  0  0  0  0
  189.1440  177.4220  146.7450 C   0  0  0  0  0  3  0  0  0  0  0  0
  191.9730  176.0610  138.0530 C   0  0  1  0  0  0  0  0  0  0  0  0
  191.2240  175.7570  136.9060 O   0  0  0  0  0  0  0  0  0  0  0  0
  187.9000  177.8180  146.2240 C   0  0  0  0  0  3  0  0  0  0  0  0
  186.3920  178.2920  142.9370 C   0  0  0  0  0  0  0  0  0  0  0  0
  190.2210  177.0130  139.2780 N   0  0  0  0  0  0  0  0  0  0  0  0
  188.7970  177.5260  143.9950 C   0  0  2  0  0  3  0  0  0  0  0  0
  191.4010  177.1280  137.2110 C   0  0  1  0  0  3  0  0  0  0  0  0
  185.7440  178.4180  140.7730 C   0  0  0  0  0  3  0  0  0  0  0  0
  190.2080  177.0770  145.8920 C   0  0  0  0  0  3  0  0  0  0  0  0
  189.5980  177.2200  141.6980 C   0  0  0  0  0  0  0  0  0  0  0  0
  191.2780  176.0300  139.3950 C   0  0  0  0  0  2  0  0  0  0  0  0
  191.0680  176.7790  143.6100 C   0  0  0  0  0  3  0  0  0  0  0  0
  186.5010  178.2550  144.2970 N   0  0  0  0  0  0  0  0  0  0  0  0
  187.9910  177.7170  139.9350 N   0  0  0  0  0  0  0  0  0  0  0  0
  190.1870  177.6490  137.9710 C   0  0  0  0  0  2  0  0  0  0  0  0
  189.2610  177.3110  140.3060 C   0  0  0  0  0  0  0  0  0  0  0  0
  185.3130  178.5820  142.1180 C   0  0  0  0  0  0  0  0  0  0  0  0
  193.3510  175.8960  137.9310 O   0  0  0  0  0  1  0  0  0  0  0  0
  187.4170  177.9600  142.1720 N   0  0  0  0  0  0  0  0  0  0  0  0
  190.8520  176.8300  142.2140 C   0  0  0  0  0  3  0  0  0  0  0  0
  182.8860  178.8300  141.8290 C   0  0  0  0  0  3  0  0  0  0  0  0
  183.9710  178.9440  142.5870 C   0  0  0  0  0  3  0  0  0  0  0  0
  180.2770  180.1280  140.6230 C   0  0  0  0  0  1  0  0  0  0  0  0
  181.5480  179.1950  142.3800 C   0  0  1  0  0  3  0  0  0  0  0  0
  180.4940  178.9100  141.3860 N   0  0  0  0  0  0  0  0  0  0  0  0
  178.9310  179.2500  143.3070 C   0  0  0  0  0  2  0  0  0  0  0  0
  180.0040  178.9140  144.3440 C   0  0  0  0  0  2  0  0  0  0  0  0
  181.3150  178.4620  143.7050 C   0  0  0  0  0  2  0  0  0  0  0  0
  179.1980  178.5360  141.9800 C   0  0  0  0  0  2  0  0  0  0  0  0
  1 14  2  0  0  0  0
  2  8  1  0  0  0  0
  4 24  1  0  0  0  0
  6 23  1  6  0  0  0
  6 16  1  0  0  0  0
  7 12  1  0  0  0  0
  7  6  1  0  0  0  0
  8  5  2  0  0  0  0
  9 18  1  0  0  0  0
 10 16  1  0  0  0  0
 10 21  1  0  0  0  0
 11  3  1  6  0  0  0
 11  1  1  0  0  0  0
 11  2  1  0  0  0  0
 12 20  1  1  0  0  0
 12  6  1  0  0  0  0
 13  4  2  0  0  0  0
 13 22  1  0  0  0  0
 14  5  1  0  0  0  0
 15 25  1  0  0  0  0
 15  3  2  0  0  0  0
 17  1  1  0  0  0  0
 18  2  2  0  0  0  0
 19 21  2  0  0  0  0
 19  4  1  0  0  0  0
 20 10  1  0  0  0  0
 21 15  1  0  0  0  0
 22 27  1  0  0  0  0
 22  9  2  0  0  0  0
 24  3  1  0  0  0  0
 24  9  1  0  0  0  0
 25 17  2  0  0  0  0
 26 27  2  0  0  0  0
 28 30  1  0  0  0  0
 29 26  1  6  0  0  0
 29 33  1  0  0  0  0
 30 34  1  0  0  0  0
 30 29  1  0  0  0  0
 31 32  1  0  0  0  0
 33 32  1  0  0  0  0
 34 31  1  0  0  0  0
M  END
>  <MODEL>
6

>  <REMARK>
 VINA RESULT:      -9.0      3.508      8.725
  Name = 
  2 active torsions:
  status: ('A' for Active; 'I' for Inactive)
    1  A    between atoms: C_3  and  C_13
    2  A    between atoms: C_17  and  C_29
                            x       y       z     vdW  Elec       q    Type
                         _______ _______ _______ _____ _____    ______ ____

>  <TORSDO>
F 2

$$$$
=
 OpenBabel11052414163D

 34 41  0  0  1  0  0  0  0  0999 V2000
  188.6940  177.5330  143.8900 C   0  0  0  0  0  0  0  0  0  0  0  0
  190.8090  177.0470  142.7100 C   0  0  0  0  0  0  0  0  0  0  0  0
  188.8010  177.5930  141.4860 C   0  0  0  0  0  0  0  0  0  0  0  0
  189.0810  177.6340  139.1540 C   0  0  0  0  0  0  0  0  0  0  0  0
  190.7090  176.9890  145.1350 C   0  0  0  0  0  3  0  0  0  0  0  0
  183.4100  179.3770  139.9940 C   0  0  1  0  0  0  0  0  0  0  0  0
  183.3670  179.9610  138.7190 O   0  0  0  0  0  0  0  0  0  0  0  0
  191.4400  176.8510  143.9420 C   0  0  0  0  0  3  0  0  0  0  0  0
  190.8120  177.1270  140.3600 C   0  0  0  0  0  0  0  0  0  0  0  0
  185.5620  178.4750  139.8070 N   0  0  0  0  0  0  0  0  0  0  0  0
  189.4280  177.3860  142.7070 C   0  0  2  0  0  3  0  0  0  0  0  0
  183.4160  178.5470  138.7740 C   0  0  1  0  0  3  0  0  0  0  0  0
  190.1130  177.4450  138.2320 C   0  0  0  0  0  3  0  0  0  0  0  0
  189.3430  177.3270  145.1110 C   0  0  0  0  0  3  0  0  0  0  0  0
  187.4560  177.9560  141.3670 C   0  0  0  0  0  0  0  0  0  0  0  0
  184.7460  179.2770  140.6950 C   0  0  0  0  0  2  0  0  0  0  0  0
  187.3320  177.8800  143.8140 C   0  0  0  0  0  3  0  0  0  0  0  0
  191.4970  176.9250  141.5230 N   0  0  0  0  0  0  0  0  0  0  0  0
  187.7790  177.9730  138.9520 N   0  0  0  0  0  0  0  0  0  0  0  0
  184.8540  178.0730  138.6030 C   0  0  0  0  0  2  0  0  0  0  0  0
  186.9410  178.1420  140.0400 C   0  0  0  0  0  0  0  0  0  0  0  0
  191.2360  177.1200  139.0410 C   0  0  0  0  0  0  0  0  0  0  0  0
  182.2060  179.3760  140.6940 O   0  0  0  0  0  1  0  0  0  0  0  0
  189.5290  177.4430  140.3830 N   0  0  0  0  0  0  0  0  0  0  0  0
  186.7140  178.0880  142.5600 C   0  0  0  0  0  3  0  0  0  0  0  0
  192.9200  175.9340  137.7030 C   0  0  0  0  0  3  0  0  0  0  0  0
  192.6110  176.8660  138.5980 C   0  0  0  0  0  3  0  0  0  0  0  0
  195.4310  174.5020  138.9650 C   0  0  0  0  0  1  0  0  0  0  0  0
  194.3390  175.7450  137.2810 C   0  0  1  0  0  3  0  0  0  0  0  0
  194.8070  174.3960  137.6570 N   0  0  0  0  0  0  0  0  0  0  0  0
  196.7330  174.9080  136.1490 C   0  0  0  0  0  2  0  0  0  0  0  0
  195.9360  175.9400  135.3500 C   0  0  0  0  0  2  0  0  0  0  0  0
  194.4730  176.0110  135.7780 C   0  0  0  0  0  2  0  0  0  0  0  0
  195.8150  173.8350  136.7410 C   0  0  0  0  0  2  0  0  0  0  0  0
  1 14  2  0  0  0  0
  2  8  1  0  0  0  0
  4 24  1  0  0  0  0
  6 23  1  1  0  0  0
  6 16  1  0  0  0  0
  7 12  1  0  0  0  0
  7  6  1  0  0  0  0
  8  5  2  0  0  0  0
  9 24  1  0  0  0  0
  9 18  1  0  0  0  0
 10 21  1  0  0  0  0
 10 16  1  0  0  0  0
 11  3  1  1  0  0  0
 11  2  1  0  0  0  0
 11  1  1  0  0  0  0
 12 20  1  6  0  0  0
 12  6  1  0  0  0  0
 13 22  1  0  0  0  0
 13  4  2  0  0  0  0
 14  5  1  0  0  0  0
 15  3  2  0  0  0  0
 15 25  1  0  0  0  0
 17  1  1  0  0  0  0
 18  2  2  0  0  0  0
 19  4  1  0  0  0  0
 19 21  2  0  0  0  0
 20 10  1  0  0  0  0
 21 15  1  0  0  0  0
 22  9  2  0  0  0  0
 24  3  1  0  0  0  0
 25 17  2  0  0  0  0
 26 27  2  0  0  0  0
 27 22  1  0  0  0  0
 29 30  1  0  0  0  0
 29 26  1  6  0  0  0
 30 28  1  0  0  0  0
 31 34  1  0  0  0  0
 32 33  1  0  0  0  0
 32 31  1  0  0  0  0
 33 29  1  0  0  0  0
 34 30  1  0  0  0  0
M  END
>  <MODEL>
7

>  <REMARK>
 VINA RESULT:      -8.9      2.062      3.113
  Name = 
  2 active torsions:
  status: ('A' for Active; 'I' for Inactive)
    1  A    between atoms: C_3  and  C_13
    2  A    between atoms: C_17  and  C_29
                            x       y       z     vdW  Elec       q    Type
                         _______ _______ _______ _____ _____    ______ ____

>  <TORSDO>
F 2

$$$$
=
 OpenBabel11052414163D

 34 41  0  0  1  0  0  0  0  0999 V2000
  188.2090  177.3550  136.6800 C   0  0  0  0  0  0  0  0  0  0  0  0
  189.4620  177.3490  138.8070 C   0  0  0  0  0  0  0  0  0  0  0  0
  187.1330  177.9810  138.7390 C   0  0  0  0  0  0  0  0  0  0  0  0
  186.2300  178.5380  140.8350 C   0  0  0  0  0  0  0  0  0  0  0  0
  190.5520  176.7130  136.7330 C   0  0  0  0  0  3  0  0  0  0  0  0
  181.5700  178.8610  137.0820 C   0  0  1  0  0  0  0  0  0  0  0  0
  180.6640  178.7450  138.1470 O   0  0  0  0  0  0  0  0  0  0  0  0
  190.6030  176.9190  138.1230 C   0  0  0  0  0  3  0  0  0  0  0  0
  188.3250  177.9800  140.7660 C   0  0  0  0  0  0  0  0  0  0  0  0
  183.5140  178.9100  138.3840 N   0  0  0  0  0  0  0  0  0  0  0  0
  188.2720  177.5650  138.0620 C   0  0  0  0  0  0  0  0  0  0  0  0
  181.3970  179.9520  138.0590 C   0  0  1  0  0  3  0  0  0  0  0  0
  186.6560  178.5960  142.1640 C   0  0  0  0  0  2  0  0  0  0  0  0
  189.3630  176.9300  136.0140 C   0  0  0  0  0  3  0  0  0  0  0  0
  185.9030  178.1970  138.1110 C   0  0  0  0  0  0  0  0  0  0  0  0
  182.9420  178.2430  137.2340 C   0  0  0  0  0  2  0  0  0  0  0  0
  186.9930  177.5790  136.0050 C   0  0  0  0  0  3  0  0  0  0  0  0
  189.4770  177.5560  140.1690 N   0  0  0  0  0  0  0  0  0  0  0  0
  185.0040  178.7840  140.2990 N   0  0  0  0  0  0  0  0  0  0  0  0
  182.6130  179.8860  138.9740 C   0  0  0  0  0  2  0  0  0  0  0  0
  184.8090  178.6220  138.9390 C   0  0  0  0  0  0  0  0  0  0  0  0
  188.0260  178.2230  142.0980 C   0  0  0  0  0  0  0  0  0  0  0  0
  181.0020  179.0990  135.8330 O   0  0  0  0  0  1  0  0  0  0  0  0
  187.2300  178.1720  140.0530 N   0  0  0  0  0  0  0  0  0  0  0  0
  185.8470  178.0000  136.7160 C   0  0  0  0  0  3  0  0  0  0  0  0
  188.5710  177.8010  144.4550 C   0  0  0  0  0  3  0  0  0  0  0  0
  188.9640  178.0680  143.2140 C   0  0  0  0  0  3  0  0  0  0  0  0
  188.5330  178.1490  147.5900 C   0  0  0  0  0  1  0  0  0  0  0  0
  189.5830  177.6340  145.5400 C   0  0  1  0  0  3  0  0  0  0  0  0
  188.9520  177.0480  146.7390 N   0  0  0  0  0  0  0  0  0  0  0  0
  191.3040  176.7000  147.5090 C   0  0  0  0  0  2  0  0  0  0  0  0
  191.8570  176.7100  146.0830 C   0  0  0  0  0  2  0  0  0  0  0  0
  190.7570  176.7930  145.0280 C   0  0  0  0  0  2  0  0  0  0  0  0
  189.8560  176.2030  147.5380 C   0  0  0  0  0  2  0  0  0  0  0  0
  1 11  1  0  0  0  0
  2 18  2  0  0  0  0
  3 24  1  0  0  0  0
  4 13  1  0  0  0  0
  5  8  2  0  0  0  0
  6 23  1  6  0  0  0
  6 16  1  0  0  0  0
  6 12  1  0  0  0  0
  6  7  1  0  0  0  0
  8  2  1  0  0  0  0
  9 22  2  0  0  0  0
 10 21  1  0  0  0  0
 10 20  1  0  0  0  0
 11  3  2  0  0  0  0
 11  2  1  0  0  0  0
 12  7  1  0  0  0  0
 12 20  1  1  0  0  0
 14  1  2  0  0  0  0
 14  5  1  0  0  0  0
 15  3  1  0  0  0  0
 15 21  2  0  0  0  0
 16 10  1  0  0  0  0
 17  1  1  0  0  0  0
 17 25  2  0  0  0  0
 18  9  1  0  0  0  0
 19  4  2  0  0  0  0
 21 19  1  0  0  0  0
 22 13  1  0  0  0  0
 22 27  1  0  0  0  0
 24  9  1  0  0  0  0
 24  4  1  0  0  0  0
 25 15  1  0  0  0  0
 27 26  2  0  0  0  0
 29 26  1  6  0  0  0
 29 30  1  0  0  0  0
 30 34  1  0  0  0  0
 30 28  1  0  0  0  0
 31 34  1  0  0  0  0
 32 31  1  0  0  0  0
 33 29  1  0  0  0  0
 33 32  1  0  0  0  0
M  END
>  <MODEL>
8

>  <REMARK>
 VINA RESULT:      -8.9      2.613      6.718
  Name = 
  2 active torsions:
  status: ('A' for Active; 'I' for Inactive)
    1  A    between atoms: C_3  and  C_13
    2  A    between atoms: C_17  and  C_29
                            x       y       z     vdW  Elec       q    Type
                         _______ _______ _______ _____ _____    ______ ____

>  <TORSDO>
F 2

$$$$
=
 OpenBabel11052414163D

 34 41  0  0  1  0  0  0  0  0999 V2000
  185.2790  178.8430  141.1250 C   0  0  0  0  0  0  0  0  0  0  0  0
  186.7370  178.2530  139.2220 C   0  0  0  0  0  0  0  0  0  0  0  0
  187.5020  178.0010  141.4970 C   0  0  0  0  0  0  0  0  0  0  0  0
  189.6810  177.1440  141.6870 C   0  0  0  0  0  0  0  0  0  0  0  0
  184.4940  179.0980  138.8390 C   0  0  0  0  0  3  0  0  0  0  0  0
  187.7740  177.6020  147.3490 C   0  0  1  0  0  0  0  0  0  0  0  0
  188.7480  176.6900  147.7840 O   0  0  0  0  0  0  0  0  0  0  0  0
  185.7180  178.6200  138.3390 C   0  0  0  0  0  3  0  0  0  0  0  0
  188.8940  177.4410  139.6870 C   0  0  0  0  0  0  0  0  0  0  0  0
  188.4600  177.6850  145.1130 N   0  0  0  0  0  0  0  0  0  0  0  0
  186.4960  178.3760  140.6170 C   0  0  0  0  0  0  0  0  0  0  0  0
  189.2050  177.9610  147.3590 C   0  0  1  0  0  3  0  0  0  0  0  0
  190.6980  176.7030  140.8370 C   0  0  0  0  0  3  0  0  0  0  0  0
  184.2740  179.2110  140.2240 C   0  0  0  0  0  3  0  0  0  0  0  0
  187.3640  178.0540  142.8880 C   0  0  0  0  0  0  0  0  0  0  0  0
  187.2760  177.4980  145.9250 C   0  0  0  0  0  2  0  0  0  0  0  0
  185.1050  178.9300  142.5190 C   0  0  0  0  0  3  0  0  0  0  0  0
  187.9460  177.7760  138.7640 N   0  0  0  0  0  0  0  0  0  0  0  0
  189.6330  177.1800  143.0460 N   0  0  0  0  0  2  0  0  0  0  0  0
  189.6600  177.8870  145.9070 C   0  0  0  0  0  2  0  0  0  0  0  0
  188.4860  177.6300  143.6760 C   0  0  0  0  0  0  0  0  0  0  0  0
  190.1620  176.9010  139.5350 C   0  0  0  0  0  0  0  0  0  0  0  0
  187.0150  178.1960  148.3550 O   0  0  0  0  0  1  0  0  0  0  0  0
  188.6470  177.5630  140.9790 N   0  0  0  0  0  0  0  0  0  0  0  0
  186.1410  178.5410  143.3970 C   0  0  0  0  0  3  0  0  0  0  0  0
  191.6930  175.6020  138.1220 C   0  0  0  0  0  3  0  0  0  0  0  0
  190.7860  176.5640  138.2520 C   0  0  0  0  0  3  0  0  0  0  0  0
  194.1320  176.7140  136.4580 C   0  0  0  0  0  1  0  0  0  0  0  0
  192.2720  175.2970  136.7790 C   0  0  1  0  0  3  0  0  0  0  0  0
  193.7450  175.3640  136.8330 N   0  0  0  0  0  0  0  0  0  0  0  0
  193.6350  174.2460  134.6000 C   0  0  0  0  0  2  0  0  0  0  0  0
  192.2500  173.6570  134.8740 C   0  0  0  0  0  2  0  0  0  0  0  0
  191.7670  173.9340  136.2950 C   0  0  0  0  0  2  0  0  0  0  0  0
  194.4200  174.4450  135.8990 C   0  0  0  0  0  2  0  0  0  0  0  0
  1 17  1  0  0  0  0
  2 11  1  0  0  0  0
  3 15  1  0  0  0  0
  4 19  1  0  0  0  0
  5 14  1  0  0  0  0
  6 12  1  0  0  0  0
  6  7  1  0  0  0  0
  6 23  1  1  0  0  0
  8  5  2  0  0  0  0
  8  2  1  0  0  0  0
  9 24  1  0  0  0  0
 10 20  1  0  0  0  0
 10 16  1  0  0  0  0
 11  1  1  0  0  0  0
 11  3  2  0  0  0  0
 12 20  1  6  0  0  0
 12  7  1  0  0  0  0
 13  4  2  0  0  0  0
 14  1  2  0  0  0  0
 15 25  1  0  0  0  0
 15 21  2  0  0  0  0
 16  6  1  0  0  0  0
 17 25  2  0  0  0  0
 18  2  2  0  0  0  0
 18  9  1  0  0  0  0
 19 21  1  0  0  0  0
 21 10  1  0  0  0  0
 22  9  2  0  0  0  0
 22 13  1  0  0  0  0
 24  3  1  0  0  0  0
 24  4  1  0  0  0  0
 26 27  2  0  0  0  0
 27 22  1  0  0  0  0
 28 30  1  0  0  0  0
 29 30  1  0  0  0  0
 29 26  1  1  0  0  0
 31 32  1  0  0  0  0
 31 34  1  0  0  0  0
 32 33  1  0  0  0  0
 33 29  1  0  0  0  0
 34 30  1  0  0  0  0
M  END
>  <MODEL>
9

>  <REMARK>
 VINA RESULT:      -8.8      2.873      5.215
  Name = 
  2 active torsions:
  status: ('A' for Active; 'I' for Inactive)
    1  A    between atoms: C_3  and  C_13
    2  A    between atoms: C_17  and  C_29
                            x       y       z     vdW  Elec       q    Type
                         _______ _______ _______ _____ _____    ______ ____

>  <TORSDO>
F 2

$$$$
