=
 OpenBabel11052415553D

 34 39  0  0  1  0  0  0  0  0999 V2000
  182.4480  178.2350  141.0530 C   0  0  0  0  0  0  0  0  0  0  0  0
  182.2050  179.2540  143.6610 C   0  0  0  0  0  3  0  0  0  0  0  0
  183.4880  178.0910  141.9760 C   0  0  0  0  0  3  0  0  0  0  0  0
  181.1540  179.4120  142.7590 C   0  0  0  0  0  0  0  0  0  0  0  0
  178.9310  180.2380  142.2680 C   0  0  0  0  0  3  0  0  0  0  0  0
  179.9910  180.0740  143.1620 C   0  0  0  0  0  3  0  0  0  0  0  0
  183.3820  178.5940  143.2820 C   0  0  0  0  0  0  0  0  0  0  0  0
  180.1880  179.0770  140.5560 C   0  0  0  0  0  3  0  0  0  0  0  0
  181.2640  178.9030  141.4420 C   0  0  0  0  0  0  0  0  0  0  0  0
  179.0290  179.7410  140.9660 C   0  0  0  0  0  3  0  0  0  0  0  0
  185.3500  178.5090  146.5200 C   0  0  0  0  0  3  0  0  0  0  0  0
  185.7650  178.0200  143.8060 C   0  0  0  0  0  3  0  0  0  0  0  0
  187.6890  177.9120  147.0910 C   0  0  0  0  0  1  0  0  0  0  0  0
  186.6110  178.1020  146.0780 C   0  0  0  0  0  0  0  0  0  0  0  0
  186.8330  177.8710  144.7040 C   0  0  0  0  0  0  0  0  0  0  0  0
  184.4970  178.4280  144.2450 C   0  0  0  0  0  0  0  0  0  0  0  0
  184.3030  178.6740  145.6120 C   0  0  0  0  0  3  0  0  0  0  0  0
  188.4460  177.9810  142.8700 N   0  0  2  0  0  0  0  0  0  0  0  0
  189.0150  176.9340  142.0020 C   0  0  2  0  0  3  0  0  0  0  0  0
  188.1650  177.3910  144.1950 C   0  0  2  0  0  3  0  0  0  0  0  0
  188.0170  176.5630  142.9970 C   0  0  1  0  0  3  0  0  0  0  0  0
  190.4150  176.5620  142.4660 C   0  0  0  0  0  2  0  0  0  0  0  0
  191.3350  176.8720  141.4650 O   0  0  0  0  0  1  0  0  0  0  0  0
  184.0110  178.0650  139.0500 C   0  0  2  0  0  3  0  0  0  0  0  0
  184.1480  177.4880  137.7730 O   0  0  0  0  0  0  0  0  0  0  0  0
  184.2830  176.1000  137.9600 C   0  0  1  0  0  3  0  0  0  0  0  0
  182.9380  175.5130  138.3810 C   0  0  0  0  0  2  0  0  0  0  0  0
  182.5290  176.1270  139.7150 C   0  0  0  0  0  2  0  0  0  0  0  0
  182.6620  177.6530  139.6790 C   0  0  1  0  0  3  0  0  0  0  0  0
  184.1760  180.6740  138.8190 N   0  0  0  0  0  0  0  0  0  0  0  0
  184.1020  179.5240  138.9210 C   0  0  0  0  0  0  0  0  0  0  0  0
  184.6960  175.5080  136.7660 O   0  0  0  0  0  0  0  0  0  0  0  0
  185.9900  175.0530  137.0250 C   0  0  0  0  0  2  0  0  0  0  0  0
  185.9490  173.5770  137.3590 C   0  0  0  0  0  1  0  0  0  0  0  0
  1  9  2  0  0  0  0
  1  3  1  0  0  0  0
  3  7  2  0  0  0  0
  4  6  1  0  0  0  0
  4  2  2  0  0  0  0
  5  6  2  0  0  0  0
  7  2  1  0  0  0  0
  7 16  1  0  0  0  0
  8 10  2  0  0  0  0
  8  9  1  0  0  0  0
  9  4  1  0  0  0  0
 10  5  1  0  0  0  0
 12 16  2  0  0  0  0
 12 15  1  0  0  0  0
 14 11  1  0  0  0  0
 14 13  1  0  0  0  0
 15 14  2  0  0  0  0
 16 17  1  0  0  0  0
 17 11  2  0  0  0  0
 18 21  1  0  0  0  0
 18 20  1  0  0  0  0
 19 22  1  0  0  0  0
 19 18  1  0  0  0  0
 19 21  1  0  0  0  0
 20 15  1  0  0  0  0
 21 20  1  0  0  0  0
 23 22  1  0  0  0  0
 24 29  1  0  0  0  0
 25 26  1  0  0  0  0
 25 24  1  0  0  0  0
 26 27  1  0  0  0  0
 27 28  1  0  0  0  0
 29 28  1  0  0  0  0
 29  1  1  0  0  0  0
 30 31  3  0  0  0  0
 31 24  1  0  0  0  0
 32 33  1  0  0  0  0
 32 26  1  0  0  0  0
 33 34  1  0  0  0  0
M  END
>  <MODEL>
1

>  <REMARK>
 VINA RESULT:      -8.9      0.000      0.000
  Name = 
  7 active torsions:
  status: ('A' for Active; 'I' for Inactive)
    1  A    between atoms: C_1  and  C_34
    2  A    between atoms: C_2  and  C_32
    3  A    between atoms: O_3  and  C_13
    4  A    between atoms: O_3  and  C_25
    5  A    between atoms: C_11  and  C_15
    6  A    between atoms: C_18  and  C_30
    7  A    between atoms: C_26  and  C_28
                            x       y       z     vdW  Elec       q    Type
                         _______ _______ _______ _____ _____    ______ ____

>  <TORSDO>
F 7

$$$$
=
 OpenBabel11052415553D

 34 39  0  0  1  0  0  0  0  0999 V2000
  187.7740  177.4860  144.1270 C   0  0  0  0  0  0  0  0  0  0  0  0
  185.6670  178.3550  145.7730 C   0  0  0  0  0  3  0  0  0  0  0  0
  186.5100  177.7520  143.5900 C   0  0  0  0  0  3  0  0  0  0  0  0
  186.9180  178.0970  146.3330 C   0  0  0  0  0  0  0  0  0  0  0  0
  188.3580  178.0180  148.2780 C   0  0  0  0  0  3  0  0  0  0  0  0
  187.1100  178.2730  147.7060 C   0  0  0  0  0  3  0  0  0  0  0  0
  185.4490  178.1860  144.3980 C   0  0  0  0  0  0  0  0  0  0  0  0
  189.2360  177.4060  146.1070 C   0  0  0  0  0  3  0  0  0  0  0  0
  187.9870  177.6580  145.5140 C   0  0  0  0  0  0  0  0  0  0  0  0
  189.4200  177.5840  147.4800 C   0  0  0  0  0  3  0  0  0  0  0  0
  181.7970  179.1440  144.0600 C   0  0  0  0  0  3  0  0  0  0  0  0
  183.9050  178.3220  142.4280 C   0  0  0  0  0  3  0  0  0  0  0  0
  180.2440  179.3300  142.1340 C   0  0  0  0  0  1  0  0  0  0  0  0
  181.5900  179.0020  142.6860 C   0  0  0  0  0  0  0  0  0  0  0  0
  182.6460  178.5680  141.8570 C   0  0  0  0  0  0  0  0  0  0  0  0
  184.1170  178.4640  143.8080 C   0  0  0  0  0  0  0  0  0  0  0  0
  183.0480  178.8740  144.6170 C   0  0  0  0  0  3  0  0  0  0  0  0
  183.4630  177.4930  139.8190 N   0  0  2  0  0  0  0  0  0  0  0  0
  184.0060  178.0510  138.5670 C   0  0  2  0  0  3  0  0  0  0  0  0
  182.4750  178.4440  140.3670 C   0  0  2  0  0  3  0  0  0  0  0  0
  183.6400  178.9590  139.6460 C   0  0  1  0  0  3  0  0  0  0  0  0
  182.9450  178.0400  137.4770 C   0  0  0  0  0  2  0  0  0  0  0  0
  183.4540  177.4180  136.3370 O   0  0  0  0  0  1  0  0  0  0  0  0
  189.2090  178.0980  142.1140 C   0  0  2  0  0  3  0  0  0  0  0  0
  190.2120  177.6110  141.2560 O   0  0  0  0  0  0  0  0  0  0  0  0
  191.3870  177.4920  142.0210 C   0  0  1  0  0  3  0  0  0  0  0  0
  191.2510  176.3110  142.9790 C   0  0  0  0  0  2  0  0  0  0  0  0
  190.0950  176.5830  143.9340 C   0  0  0  0  0  2  0  0  0  0  0  0
  188.8460  177.0300  143.1700 C   0  0  1  0  0  3  0  0  0  0  0  0
  187.1090  178.7420  140.6770 N   0  0  0  0  0  0  0  0  0  0  0  0
  188.0340  178.4580  141.3110 C   0  0  0  0  0  0  0  0  0  0  0  0
  192.4750  177.2810  141.1730 O   0  0  0  0  0  0  0  0  0  0  0  0
  191.9160  177.1710  139.8990 C   0  0  0  0  0  2  0  0  0  0  0  0
  192.9940  176.7930  138.9050 C   0  0  0  0  0  1  0  0  0  0  0  0
  1  9  1  0  0  0  0
  2  4  1  0  0  0  0
  3  1  2  0  0  0  0
  3  7  1  0  0  0  0
  4  6  1  0  0  0  0
  6  5  2  0  0  0  0
  7  2  2  0  0  0  0
  8 10  2  0  0  0  0
  9  8  1  0  0  0  0
  9  4  2  0  0  0  0
 10  5  1  0  0  0  0
 11 17  1  0  0  0  0
 12 16  1  0  0  0  0
 13 14  1  0  0  0  0
 14 11  2  0  0  0  0
 15 12  2  0  0  0  0
 15 14  1  0  0  0  0
 16  7  1  0  0  0  0
 16 17  2  0  0  0  0
 18 20  1  0  0  0  0
 19 21  1  0  0  0  0
 19 18  1  0  0  0  0
 20 15  1  0  0  0  0
 21 18  1  0  0  0  0
 21 20  1  0  0  0  0
 22 19  1  0  0  0  0
 23 22  1  0  0  0  0
 24 29  1  0  0  0  0
 25 26  1  0  0  0  0
 25 24  1  0  0  0  0
 26 27  1  0  0  0  0
 27 28  1  0  0  0  0
 29 28  1  0  0  0  0
 29  1  1  0  0  0  0
 30 31  3  0  0  0  0
 31 24  1  0  0  0  0
 32 26  1  0  0  0  0
 33 32  1  0  0  0  0
 34 33  1  0  0  0  0
M  END
>  <MODEL>
2

>  <REMARK>
 VINA RESULT:      -8.9      1.814      7.202
  Name = 
  7 active torsions:
  status: ('A' for Active; 'I' for Inactive)
    1  A    between atoms: C_1  and  C_34
    2  A    between atoms: C_2  and  C_32
    3  A    between atoms: O_3  and  C_13
    4  A    between atoms: O_3  and  C_25
    5  A    between atoms: C_11  and  C_15
    6  A    between atoms: C_18  and  C_30
    7  A    between atoms: C_26  and  C_28
                            x       y       z     vdW  Elec       q    Type
                         _______ _______ _______ _____ _____    ______ ____

>  <TORSDO>
F 7

$$$$
=
 OpenBabel11052415553D

 34 39  0  0  1  0  0  0  0  0999 V2000
  185.2100  178.5620  139.2360 C   0  0  0  0  0  0  0  0  0  0  0  0
  187.4770  178.3130  140.8780 C   0  0  0  0  0  3  0  0  0  0  0  0
  185.0870  178.5650  140.6280 C   0  0  0  0  0  3  0  0  0  0  0  0
  187.6260  178.3080  139.4920 C   0  0  0  0  0  0  0  0  0  0  0  0
  189.0640  178.1720  137.5480 C   0  0  0  0  0  3  0  0  0  0  0  0
  188.9010  178.1790  138.9350 C   0  0  0  0  0  3  0  0  0  0  0  0
  186.2080  178.4410  141.4620 C   0  0  0  0  0  0  0  0  0  0  0  0
  186.6740  178.4230  137.2610 C   0  0  0  0  0  3  0  0  0  0  0  0
  186.4920  178.4320  138.6530 C   0  0  0  0  0  0  0  0  0  0  0  0
  187.9510  178.2940  136.7120 C   0  0  0  0  0  3  0  0  0  0  0  0
  184.7540  178.9750  144.9210 C   0  0  0  0  0  3  0  0  0  0  0  0
  187.0630  177.9240  143.7610 C   0  0  0  0  0  3  0  0  0  0  0  0
  185.5420  178.4470  147.2140 C   0  0  0  0  0  1  0  0  0  0  0  0
  185.7590  178.4520  145.7380 C   0  0  0  0  0  0  0  0  0  0  0  0
  186.9380  177.9360  145.1590 C   0  0  0  0  0  0  0  0  0  0  0  0
  186.0550  178.4480  142.9370 C   0  0  0  0  0  0  0  0  0  0  0  0
  184.9020  178.9770  143.5330 C   0  0  0  0  0  3  0  0  0  0  0  0
  189.2080  178.2090  146.0240 N   0  0  2  0  0  0  0  0  0  0  0  0
  190.4170  177.3760  145.8840 C   0  0  2  0  0  3  0  0  0  0  0  0
  188.0240  177.3260  146.0030 C   0  0  2  0  0  3  0  0  0  0  0  0
  189.1950  176.9720  145.1980 C   0  0  1  0  0  3  0  0  0  0  0  0
  190.6400  176.5460  147.1400 C   0  0  0  0  0  2  0  0  0  0  0  0
  191.8430  176.9190  147.7360 O   0  0  0  0  0  1  0  0  0  0  0  0
  183.0440  177.4520  138.4870 C   0  0  2  0  0  3  0  0  0  0  0  0
  181.8800  177.6530  137.7210 O   0  0  0  0  0  0  0  0  0  0  0  0
  181.1160  178.6330  138.3810 C   0  0  1  0  0  3  0  0  0  0  0  0
  181.7880  179.9940  138.2200 C   0  0  0  0  0  2  0  0  0  0  0  0
  183.1600  179.9460  138.8810 C   0  0  0  0  0  2  0  0  0  0  0  0
  183.9420  178.7080  138.4330 C   0  0  1  0  0  3  0  0  0  0  0  0
  184.3160  175.3540  137.5540 N   0  0  0  0  0  0  0  0  0  0  0  0
  183.7550  176.2790  137.9660 C   0  0  0  0  0  0  0  0  0  0  0  0
  179.8360  178.6750  137.8270 O   0  0  0  0  0  0  0  0  0  0  0  0
  179.1530  177.6170  138.4290 C   0  0  0  0  0  2  0  0  0  0  0  0
  179.1380  177.8140  139.9300 C   0  0  0  0  0  1  0  0  0  0  0  0
  1  3  1  0  0  0  0
  2  7  1  0  0  0  0
  3  7  2  0  0  0  0
  4  2  2  0  0  0  0
  5  6  2  0  0  0  0
  6  4  1  0  0  0  0
  7 16  1  0  0  0  0
  8  9  1  0  0  0  0
  9  1  2  0  0  0  0
  9  4  1  0  0  0  0
 10  8  2  0  0  0  0
 10  5  1  0  0  0  0
 11 14  1  0  0  0  0
 12 15  1  0  0  0  0
 14 13  1  0  0  0  0
 15 14  2  0  0  0  0
 15 20  1  0  0  0  0
 16 17  1  0  0  0  0
 16 12  2  0  0  0  0
 17 11  2  0  0  0  0
 19 18  1  0  0  0  0
 19 22  1  0  0  0  0
 20 18  1  0  0  0  0
 21 19  1  0  0  0  0
 21 20  1  0  0  0  0
 21 18  1  0  0  0  0
 22 23  1  0  0  0  0
 25 26  1  0  0  0  0
 25 24  1  0  0  0  0
 27 26  1  0  0  0  0
 27 28  1  0  0  0  0
 29 24  1  0  0  0  0
 29 28  1  0  0  0  0
 29  1  1  0  0  0  0
 30 31  3  0  0  0  0
 31 24  1  0  0  0  0
 32 26  1  0  0  0  0
 32 33  1  0  0  0  0
 33 34  1  0  0  0  0
M  END
>  <MODEL>
3

>  <REMARK>
 VINA RESULT:      -8.3      2.698      5.207
  Name = 
  7 active torsions:
  status: ('A' for Active; 'I' for Inactive)
    1  A    between atoms: C_1  and  C_34
    2  A    between atoms: C_2  and  C_32
    3  A    between atoms: O_3  and  C_13
    4  A    between atoms: O_3  and  C_25
    5  A    between atoms: C_11  and  C_15
    6  A    between atoms: C_18  and  C_30
    7  A    between atoms: C_26  and  C_28
                            x       y       z     vdW  Elec       q    Type
                         _______ _______ _______ _____ _____    ______ ____

>  <TORSDO>
F 7

$$$$
=
 OpenBabel11052415553D

 34 39  0  0  1  0  0  0  0  0999 V2000
  188.2650  177.8820  143.1710 C   0  0  0  0  0  0  0  0  0  0  0  0
  186.3760  178.0350  145.2480 C   0  0  0  0  0  3  0  0  0  0  0  0
  186.9110  178.0960  142.8920 C   0  0  0  0  0  3  0  0  0  0  0  0
  187.7200  177.8200  145.5520 C   0  0  0  0  0  0  0  0  0  0  0  0
  189.4550  177.4690  147.2050 C   0  0  0  0  0  3  0  0  0  0  0  0
  188.1130  177.6850  146.8860 C   0  0  0  0  0  3  0  0  0  0  0  0
  185.9560  178.1750  143.9170 C   0  0  0  0  0  0  0  0  0  0  0  0
  190.0270  177.5240  144.8530 C   0  0  0  0  0  3  0  0  0  0  0  0
  188.6810  177.7410  144.5150 C   0  0  0  0  0  0  0  0  0  0  0  0
  190.4120  177.3890  146.1890 C   0  0  0  0  0  3  0  0  0  0  0  0
  182.2510  178.8600  144.3210 C   0  0  0  0  0  3  0  0  0  0  0  0
  184.0820  178.3980  142.2680 C   0  0  0  0  0  3  0  0  0  0  0  0
  180.3710  179.1270  142.7230 C   0  0  0  0  0  1  0  0  0  0  0  0
  181.8120  178.8520  142.9940 C   0  0  0  0  0  0  0  0  0  0  0  0
  182.7290  178.6000  141.9530 C   0  0  0  0  0  0  0  0  0  0  0  0
  184.5270  178.4050  143.5990 C   0  0  0  0  0  0  0  0  0  0  0  0
  183.5950  178.6350  144.6210 C   0  0  0  0  0  3  0  0  0  0  0  0
  183.0830  177.6400  139.7320 N   0  0  2  0  0  0  0  0  0  0  0  0
  183.4690  178.2550  138.4490 C   0  0  2  0  0  3  0  0  0  0  0  0
  182.3040  178.6250  140.5090 C   0  0  2  0  0  3  0  0  0  0  0  0
  183.3830  179.0930  139.6380 C   0  0  1  0  0  3  0  0  0  0  0  0
  182.2490  178.4400  137.5590 C   0  0  0  0  0  2  0  0  0  0  0  0
  182.4040  177.6910  136.3940 O   0  0  0  0  0  1  0  0  0  0  0  0
  189.4730  176.3790  141.5080 C   0  0  2  0  0  3  0  0  0  0  0  0
  190.3580  176.3920  140.4130 O   0  0  0  0  0  0  0  0  0  0  0  0
  189.6710  176.9820  139.3360 C   0  0  1  0  0  3  0  0  0  0  0  0
  189.5260  178.4810  139.5880 C   0  0  0  0  0  2  0  0  0  0  0  0
  188.6920  178.6900  140.8460 C   0  0  0  0  0  2  0  0  0  0  0  0
  189.2070  177.8200  141.9960 C   0  0  1  0  0  3  0  0  0  0  0  0
  190.5250  174.9240  143.4240 N   0  0  0  0  0  0  0  0  0  0  0  0
  190.0610  175.5650  142.5790 C   0  0  0  0  0  0  0  0  0  0  0  0
  190.3880  176.7740  138.1570 O   0  0  0  0  0  0  0  0  0  0  0  0
  191.6730  176.4310  138.5800 C   0  0  0  0  0  2  0  0  0  0  0  0
  192.6020  176.3860  137.3850 C   0  0  0  0  0  1  0  0  0  0  0  0
  1  9  1  0  0  0  0
  2  4  1  0  0  0  0
  3  1  2  0  0  0  0
  3  7  1  0  0  0  0
  4  6  1  0  0  0  0
  6  5  2  0  0  0  0
  7  2  2  0  0  0  0
  8 10  2  0  0  0  0
  9  8  1  0  0  0  0
  9  4  2  0  0  0  0
 10  5  1  0  0  0  0
 11 17  1  0  0  0  0
 12 16  1  0  0  0  0
 13 14  1  0  0  0  0
 14 11  2  0  0  0  0
 15 12  2  0  0  0  0
 15 14  1  0  0  0  0
 16  7  1  0  0  0  0
 16 17  2  0  0  0  0
 18 20  1  0  0  0  0
 19 21  1  0  0  0  0
 19 18  1  0  0  0  0
 20 15  1  0  0  0  0
 21 18  1  0  0  0  0
 21 20  1  0  0  0  0
 22 19  1  0  0  0  0
 23 22  1  0  0  0  0
 24 29  1  0  0  0  0
 24 31  1  0  0  0  0
 25 24  1  0  0  0  0
 26 27  1  0  0  0  0
 26 25  1  0  0  0  0
 27 28  1  0  0  0  0
 28 29  1  0  0  0  0
 29  1  1  0  0  0  0
 31 30  3  0  0  0  0
 32 33  1  0  0  0  0
 32 26  1  0  0  0  0
 34 33  1  0  0  0  0
M  END
>  <MODEL>
4

>  <REMARK>
 VINA RESULT:      -8.3      2.097      7.242
  Name = 
  7 active torsions:
  status: ('A' for Active; 'I' for Inactive)
    1  A    between atoms: C_1  and  C_34
    2  A    between atoms: C_2  and  C_32
    3  A    between atoms: O_3  and  C_13
    4  A    between atoms: O_3  and  C_25
    5  A    between atoms: C_11  and  C_15
    6  A    between atoms: C_18  and  C_30
    7  A    between atoms: C_26  and  C_28
                            x       y       z     vdW  Elec       q    Type
                         _______ _______ _______ _____ _____    ______ ____

>  <TORSDO>
F 7

$$$$
=
 OpenBabel11052415553D

 34 39  0  0  1  0  0  0  0  0999 V2000
  187.4060  177.5860  144.0390 C   0  0  0  0  0  0  0  0  0  0  0  0
  185.5220  178.5940  142.2120 C   0  0  0  0  0  3  0  0  0  0  0  0
  187.6900  177.6300  142.6710 C   0  0  0  0  0  3  0  0  0  0  0  0
  185.2150  178.5610  143.5710 C   0  0  0  0  0  0  0  0  0  0  0  0
  183.6540  179.0030  145.3690 C   0  0  0  0  0  3  0  0  0  0  0  0
  183.9740  179.0300  144.0100 C   0  0  0  0  0  3  0  0  0  0  0  0
  186.7610  178.1290  141.7460 C   0  0  0  0  0  0  0  0  0  0  0  0
  185.8170  178.0350  145.8650 C   0  0  0  0  0  3  0  0  0  0  0  0
  186.1550  178.0560  144.5020 C   0  0  0  0  0  0  0  0  0  0  0  0
  184.5740  178.5060  146.2960 C   0  0  0  0  0  3  0  0  0  0  0  0
  186.3990  178.5120  137.9930 C   0  0  0  0  0  3  0  0  0  0  0  0
  188.3880  177.9070  139.8520 C   0  0  0  0  0  3  0  0  0  0  0  0
  187.9820  178.3410  136.0900 C   0  0  0  0  0  1  0  0  0  0  0  0
  187.6990  178.2520  137.5510 C   0  0  0  0  0  0  0  0  0  0  0  0
  188.7050  177.9260  138.4850 C   0  0  0  0  0  0  0  0  0  0  0  0
  187.0840  178.1680  140.2990 C   0  0  0  0  0  0  0  0  0  0  0  0
  186.0920  178.4670  139.3530 C   0  0  0  0  0  3  0  0  0  0  0  0
  190.3840  176.2300  137.9520 N   0  0  2  0  0  0  0  0  0  0  0  0
  191.7100  175.9490  138.5320 C   0  0  2  0  0  3  0  0  0  0  0  0
  190.1260  177.6810  138.0530 C   0  0  2  0  0  3  0  0  0  0  0  0
  190.9000  177.0170  139.1030 C   0  0  1  0  0  3  0  0  0  0  0  0
  192.8090  176.5110  137.6420 C   0  0  0  0  0  2  0  0  0  0  0  0
  194.0300  175.9330  137.9890 O   0  0  0  0  0  1  0  0  0  0  0  0
  189.8830  177.0610  144.3080 C   0  0  2  0  0  3  0  0  0  0  0  0
  190.8330  176.5360  145.2050 O   0  0  0  0  0  0  0  0  0  0  0  0
  190.9400  177.4480  146.2720 C   0  0  1  0  0  3  0  0  0  0  0  0
  189.6810  177.3720  147.1320 C   0  0  0  0  0  2  0  0  0  0  0  0
  188.4820  177.7800  146.2860 C   0  0  0  0  0  2  0  0  0  0  0  0
  188.4770  177.0360  144.9470 C   0  0  1  0  0  3  0  0  0  0  0  0
  189.9310  175.6400  142.1020 N   0  0  0  0  0  0  0  0  0  0  0  0
  189.9100  176.2660  143.0750 C   0  0  0  0  0  0  0  0  0  0  0  0
  192.0560  177.1280  147.0470 O   0  0  0  0  0  0  0  0  0  0  0  0
  191.9410  175.7580  147.2840 C   0  0  0  0  0  2  0  0  0  0  0  0
  192.8050  175.3760  148.4680 C   0  0  0  0  0  1  0  0  0  0  0  0
  1  9  1  0  0  0  0
  1 29  1  0  0  0  0
  2  4  1  0  0  0  0
  3  1  2  0  0  0  0
  4  6  2  0  0  0  0
  4  9  1  0  0  0  0
  5 10  2  0  0  0  0
  6  5  1  0  0  0  0
  7  2  2  0  0  0  0
  7  3  1  0  0  0  0
  8 10  1  0  0  0  0
  9  8  2  0  0  0  0
 11 17  1  0  0  0  0
 12 16  1  0  0  0  0
 13 14  1  0  0  0  0
 14 11  2  0  0  0  0
 14 15  1  0  0  0  0
 15 12  2  0  0  0  0
 16  7  1  0  0  0  0
 17 16  2  0  0  0  0
 18 20  1  0  0  0  0
 18 19  1  0  0  0  0
 18 21  1  0  0  0  0
 19 21  1  0  0  0  0
 20 15  1  0  0  0  0
 20 21  1  0  0  0  0
 22 23  1  0  0  0  0
 22 19  1  0  0  0  0
 24 29  1  0  0  0  0
 24 25  1  0  0  0  0
 25 26  1  0  0  0  0
 26 32  1  0  0  0  0
 26 27  1  0  0  0  0
 28 27  1  0  0  0  0
 29 28  1  0  0  0  0
 30 31  3  0  0  0  0
 31 24  1  0  0  0  0
 32 33  1  0  0  0  0
 33 34  1  0  0  0  0
M  END
>  <MODEL>
5

>  <REMARK>
 VINA RESULT:      -8.0      3.988      7.717
  Name = 
  7 active torsions:
  status: ('A' for Active; 'I' for Inactive)
    1  A    between atoms: C_1  and  C_34
    2  A    between atoms: C_2  and  C_32
    3  A    between atoms: O_3  and  C_13
    4  A    between atoms: O_3  and  C_25
    5  A    between atoms: C_11  and  C_15
    6  A    between atoms: C_18  and  C_30
    7  A    between atoms: C_26  and  C_28
                            x       y       z     vdW  Elec       q    Type
                         _______ _______ _______ _____ _____    ______ ____

>  <TORSDO>
F 7

$$$$
=
 OpenBabel11052415553D

 34 39  0  0  1  0  0  0  0  0999 V2000
  185.6610  178.5320  143.5400 C   0  0  0  0  0  0  0  0  0  0  0  0
  188.2550  177.5860  144.0700 C   0  0  0  0  0  3  0  0  0  0  0  0
  186.5400  178.2330  142.4950 C   0  0  0  0  0  3  0  0  0  0  0  0
  187.3970  177.8780  145.1300 C   0  0  0  0  0  0  0  0  0  0  0  0
  186.9880  177.9840  147.5150 C   0  0  0  0  0  3  0  0  0  0  0  0
  187.8370  177.6960  146.4440 C   0  0  0  0  0  3  0  0  0  0  0  0
  187.8380  177.7600  142.7420 C   0  0  0  0  0  0  0  0  0  0  0  0
  185.2480  178.6400  145.9650 C   0  0  0  0  0  3  0  0  0  0  0  0
  186.0880  178.3550  144.8760 C   0  0  0  0  0  0  0  0  0  0  0  0
  185.6950  178.4560  147.2760 C   0  0  0  0  0  3  0  0  0  0  0  0
  190.9340  176.7480  140.8050 C   0  0  0  0  0  3  0  0  0  0  0  0
  188.3100  177.5400  140.2900 C   0  0  0  0  0  3  0  0  0  0  0  0
  191.4350  176.4790  138.3900 C   0  0  0  0  0  1  0  0  0  0  0  0
  190.4890  176.8420  139.4840 C   0  0  0  0  0  0  0  0  0  0  0  0
  189.1690  177.2600  139.2160 C   0  0  0  0  0  0  0  0  0  0  0  0
  188.7530  177.4470  141.6180 C   0  0  0  0  0  0  0  0  0  0  0  0
  190.0760  177.0510  141.8630 C   0  0  0  0  0  3  0  0  0  0  0  0
  187.8600  178.5740  137.6220 N   0  0  2  0  0  0  0  0  0  0  0  0
  186.6440  178.2530  136.8530 C   0  0  2  0  0  3  0  0  0  0  0  0
  188.6390  177.3330  137.8090 C   0  0  2  0  0  3  0  0  0  0  0  0
  187.1770  177.2630  137.7810 C   0  0  1  0  0  3  0  0  0  0  0  0
  187.0010  177.9050  135.4160 C   0  0  0  0  0  2  0  0  0  0  0  0
  185.8500  177.5150  134.7320 O   0  0  0  0  0  1  0  0  0  0  0  0
  183.8330  178.5480  141.7680 C   0  0  2  0  0  3  0  0  0  0  0  0
  182.5470  179.0430  141.4790 O   0  0  0  0  0  0  0  0  0  0  0  0
  181.6520  178.4020  142.3560 C   0  0  1  0  0  3  0  0  0  0  0  0
  181.8450  178.9500  143.7670 C   0  0  0  0  0  2  0  0  0  0  0  0
  183.2620  178.6310  144.2290 C   0  0  0  0  0  2  0  0  0  0  0  0
  184.2880  179.0280  143.1640 C   0  0  1  0  0  3  0  0  0  0  0  0
  185.4920  179.3750  139.9100 N   0  0  0  0  0  0  0  0  0  0  0  0
  184.7610  179.0100  140.7290 C   0  0  0  0  0  0  0  0  0  0  0  0
  180.3420  178.6400  141.9380 O   0  0  0  0  0  0  0  0  0  0  0  0
  179.9050  179.7040  142.7280 C   0  0  0  0  0  2  0  0  0  0  0  0
  179.3110  180.7790  141.8430 C   0  0  0  0  0  1  0  0  0  0  0  0
  1  9  1  0  0  0  0
  2  4  1  0  0  0  0
  3  7  1  0  0  0  0
  3  1  2  0  0  0  0
  4  6  1  0  0  0  0
  6  5  2  0  0  0  0
  7  2  2  0  0  0  0
  8 10  2  0  0  0  0
  9  4  2  0  0  0  0
  9  8  1  0  0  0  0
 10  5  1  0  0  0  0
 11 17  1  0  0  0  0
 12 16  1  0  0  0  0
 13 14  1  0  0  0  0
 14 11  2  0  0  0  0
 15 14  1  0  0  0  0
 15 12  2  0  0  0  0
 16 17  2  0  0  0  0
 16  7  1  0  0  0  0
 18 21  1  0  0  0  0
 18 20  1  0  0  0  0
 19 18  1  0  0  0  0
 19 21  1  0  0  0  0
 20 15  1  0  0  0  0
 21 20  1  0  0  0  0
 22 19  1  0  0  0  0
 23 22  1  0  0  0  0
 24 29  1  0  0  0  0
 25 24  1  0  0  0  0
 25 26  1  0  0  0  0
 26 27  1  0  0  0  0
 27 28  1  0  0  0  0
 29  1  1  0  0  0  0
 29 28  1  0  0  0  0
 30 31  3  0  0  0  0
 31 24  1  0  0  0  0
 32 26  1  0  0  0  0
 32 33  1  0  0  0  0
 34 33  1  0  0  0  0
M  END
>  <MODEL>
6

>  <REMARK>
 VINA RESULT:      -7.8      2.568      6.688
  Name = 
  7 active torsions:
  status: ('A' for Active; 'I' for Inactive)
    1  A    between atoms: C_1  and  C_34
    2  A    between atoms: C_2  and  C_32
    3  A    between atoms: O_3  and  C_13
    4  A    between atoms: O_3  and  C_25
    5  A    between atoms: C_11  and  C_15
    6  A    between atoms: C_18  and  C_30
    7  A    between atoms: C_26  and  C_28
                            x       y       z     vdW  Elec       q    Type
                         _______ _______ _______ _____ _____    ______ ____

>  <TORSDO>
F 7

$$$$
=
 OpenBabel11052415553D

 34 39  0  0  1  0  0  0  0  0999 V2000
  184.3390  178.8790  141.6310 C   0  0  0  0  0  0  0  0  0  0  0  0
  183.2830  178.6290  144.2250 C   0  0  0  0  0  3  0  0  0  0  0  0
  185.1850  178.7530  142.7380 C   0  0  0  0  0  3  0  0  0  0  0  0
  182.4190  178.7540  143.1380 C   0  0  0  0  0  0  0  0  0  0  0  0
  180.1620  178.8780  142.2700 C   0  0  0  0  0  3  0  0  0  0  0  0
  181.0380  178.7530  143.3500 C   0  0  0  0  0  3  0  0  0  0  0  0
  184.6740  178.6270  144.0380 C   0  0  0  0  0  0  0  0  0  0  0  0
  182.0430  179.0060  140.7510 C   0  0  0  0  0  3  0  0  0  0  0  0
  182.9390  178.8810  141.8260 C   0  0  0  0  0  0  0  0  0  0  0  0
  180.6630  179.0040  140.9720 C   0  0  0  0  0  3  0  0  0  0  0  0
  186.0550  178.7930  147.5630 C   0  0  0  0  0  3  0  0  0  0  0  0
  186.8610  177.9230  145.0390 C   0  0  0  0  0  3  0  0  0  0  0  0
  188.1900  178.0770  148.6050 C   0  0  0  0  0  1  0  0  0  0  0  0
  187.3220  178.2260  147.4020 C   0  0  0  0  0  0  0  0  0  0  0  0
  187.7430  177.8010  146.1240 C   0  0  0  0  0  0  0  0  0  0  0  0
  185.5880  178.4920  145.1970 C   0  0  0  0  0  0  0  0  0  0  0  0
  185.1970  178.9290  146.4710 C   0  0  0  0  0  3  0  0  0  0  0  0
  189.9420  178.0030  145.0740 N   0  0  2  0  0  0  0  0  0  0  0  0
  190.6450  177.1470  144.1010 C   0  0  2  0  0  3  0  0  0  0  0  0
  189.0820  177.1470  145.9170 C   0  0  2  0  0  3  0  0  0  0  0  0
  189.2940  176.7870  144.5140 C   0  0  1  0  0  3  0  0  0  0  0  0
  191.6810  176.2820  144.8040 C   0  0  0  0  0  2  0  0  0  0  0  0
  192.0560  175.2320  143.9670 O   0  0  0  0  0  1  0  0  0  0  0  0
  186.3020  178.1940  140.1620 C   0  0  2  0  0  3  0  0  0  0  0  0
  186.8580  178.3500  138.8780 O   0  0  0  0  0  0  0  0  0  0  0  0
  185.9940  177.7060  137.9740 C   0  0  1  0  0  3  0  0  0  0  0  0
  184.7170  178.5280  137.8200 C   0  0  0  0  0  2  0  0  0  0  0  0
  184.0130  178.6000  139.1700 C   0  0  0  0  0  2  0  0  0  0  0  0
  184.9910  179.0020  140.2780 C   0  0  1  0  0  3  0  0  0  0  0  0
  188.0550  178.9960  141.9440 N   0  0  0  0  0  0  0  0  0  0  0  0
  187.2820  178.6430  141.1580 C   0  0  0  0  0  0  0  0  0  0  0  0
  186.6230  177.5860  136.7340 O   0  0  0  0  0  0  0  0  0  0  0  0
  187.8550  178.2210  136.8980 C   0  0  0  0  0  2  0  0  0  0  0  0
  188.9140  177.4810  136.1080 C   0  0  0  0  0  1  0  0  0  0  0  0
  1  9  2  0  0  0  0
  1  3  1  0  0  0  0
  3  7  2  0  0  0  0
  4  6  1  0  0  0  0
  4  2  2  0  0  0  0
  5  6  2  0  0  0  0
  7  2  1  0  0  0  0
  7 16  1  0  0  0  0
  8 10  2  0  0  0  0
  8  9  1  0  0  0  0
  9  4  1  0  0  0  0
 10  5  1  0  0  0  0
 12 16  2  0  0  0  0
 12 15  1  0  0  0  0
 14 11  1  0  0  0  0
 14 13  1  0  0  0  0
 15 14  2  0  0  0  0
 16 17  1  0  0  0  0
 17 11  2  0  0  0  0
 18 20  1  0  0  0  0
 19 21  1  0  0  0  0
 19 22  1  0  0  0  0
 19 18  1  0  0  0  0
 20 15  1  0  0  0  0
 21 18  1  0  0  0  0
 21 20  1  0  0  0  0
 23 22  1  0  0  0  0
 24 29  1  0  0  0  0
 24 31  1  0  0  0  0
 25 24  1  0  0  0  0
 26 25  1  0  0  0  0
 27 26  1  0  0  0  0
 27 28  1  0  0  0  0
 28 29  1  0  0  0  0
 29  1  1  0  0  0  0
 31 30  3  0  0  0  0
 32 33  1  0  0  0  0
 32 26  1  0  0  0  0
 34 33  1  0  0  0  0
M  END
>  <MODEL>
7

>  <REMARK>
 VINA RESULT:      -7.6      2.055      2.576
  Name = 
  7 active torsions:
  status: ('A' for Active; 'I' for Inactive)
    1  A    between atoms: C_1  and  C_34
    2  A    between atoms: C_2  and  C_32
    3  A    between atoms: O_3  and  C_13
    4  A    between atoms: O_3  and  C_25
    5  A    between atoms: C_11  and  C_15
    6  A    between atoms: C_18  and  C_30
    7  A    between atoms: C_26  and  C_28
                            x       y       z     vdW  Elec       q    Type
                         _______ _______ _______ _____ _____    ______ ____

>  <TORSDO>
F 7

$$$$
=
 OpenBabel11052415553D

 34 39  0  0  1  0  0  0  0  0999 V2000
  189.7540  177.2650  142.1140 C   0  0  0  0  0  0  0  0  0  0  0  0
  187.5620  178.0430  140.5350 C   0  0  0  0  0  3  0  0  0  0  0  0
  188.5100  177.5270  142.6970 C   0  0  0  0  0  3  0  0  0  0  0  0
  188.7920  177.7870  139.9300 C   0  0  0  0  0  0  0  0  0  0  0  0
  190.1480  177.6680  137.9260 C   0  0  0  0  0  3  0  0  0  0  0  0
  188.9210  177.9200  138.5450 C   0  0  0  0  0  3  0  0  0  0  0  0
  187.4070  177.9160  141.9230 C   0  0  0  0  0  0  0  0  0  0  0  0
  191.1300  177.1450  140.0760 C   0  0  0  0  0  3  0  0  0  0  0  0
  189.9040  177.3950  140.7140 C   0  0  0  0  0  0  0  0  0  0  0  0
  191.2510  177.2810  138.6910 C   0  0  0  0  0  3  0  0  0  0  0  0
  184.7580  178.5600  144.5550 C   0  0  0  0  0  3  0  0  0  0  0  0
  184.9400  178.3400  141.7810 C   0  0  0  0  0  3  0  0  0  0  0  0
  182.3220  179.0220  144.4610 C   0  0  0  0  0  1  0  0  0  0  0  0
  183.6090  178.7130  143.7750 C   0  0  0  0  0  0  0  0  0  0  0  0
  183.6910  178.5840  142.3720 C   0  0  0  0  0  0  0  0  0  0  0  0
  186.0960  178.1870  142.5610 C   0  0  0  0  0  0  0  0  0  0  0  0
  185.9900  178.2970  143.9550 C   0  0  0  0  0  3  0  0  0  0  0  0
  182.3920  177.6910  140.5030 N   0  0  2  0  0  0  0  0  0  0  0  0
  182.0250  178.2730  139.1990 C   0  0  2  0  0  3  0  0  0  0  0  0
  182.4850  178.7820  141.4940 C   0  0  2  0  0  3  0  0  0  0  0  0
  182.8670  179.0430  140.1050 C   0  0  1  0  0  3  0  0  0  0  0  0
  180.5890  178.7750  139.2260 C   0  0  0  0  0  2  0  0  0  0  0  0
  180.1680  179.0520  137.9260 O   0  0  0  0  0  1  0  0  0  0  0  0
  190.8510  177.5930  144.3880 C   0  0  2  0  0  3  0  0  0  0  0  0
  191.9160  177.1580  145.2000 O   0  0  0  0  0  0  0  0  0  0  0  0
  191.6440  175.8240  145.5560 C   0  0  1  0  0  3  0  0  0  0  0  0
  191.8420  174.9240  144.3390 C   0  0  0  0  0  2  0  0  0  0  0  0
  190.8480  175.3320  143.2590 C   0  0  0  0  0  2  0  0  0  0  0  0
  190.8710  176.8470  143.0360 C   0  0  1  0  0  3  0  0  0  0  0  0
  191.0690  180.1840  144.0280 N   0  0  0  0  0  0  0  0  0  0  0  0
  190.9740  179.0420  144.1870 C   0  0  0  0  0  0  0  0  0  0  0  0
  192.5110  175.4290  146.5750 O   0  0  0  0  0  0  0  0  0  0  0  0
  192.0280  176.0650  147.7190 C   0  0  0  0  0  2  0  0  0  0  0  0
  193.0470  175.9450  148.8320 C   0  0  0  0  0  1  0  0  0  0  0  0
  1  3  1  0  0  0  0
  1 29  1  0  0  0  0
  2  7  1  0  0  0  0
  4  2  2  0  0  0  0
  4  9  1  0  0  0  0
  5  6  2  0  0  0  0
  5 10  1  0  0  0  0
  6  4  1  0  0  0  0
  7 16  1  0  0  0  0
  7  3  2  0  0  0  0
  8  9  1  0  0  0  0
  9  1  2  0  0  0  0
 10  8  2  0  0  0  0
 12 15  2  0  0  0  0
 12 16  1  0  0  0  0
 14 13  1  0  0  0  0
 14 11  2  0  0  0  0
 15 14  1  0  0  0  0
 16 17  2  0  0  0  0
 17 11  1  0  0  0  0
 18 20  1  0  0  0  0
 19 22  1  0  0  0  0
 19 21  1  0  0  0  0
 19 18  1  0  0  0  0
 20 15  1  0  0  0  0
 21 18  1  0  0  0  0
 21 20  1  0  0  0  0
 23 22  1  0  0  0  0
 24 25  1  0  0  0  0
 25 26  1  0  0  0  0
 26 32  1  0  0  0  0
 27 26  1  0  0  0  0
 28 27  1  0  0  0  0
 29 28  1  0  0  0  0
 29 24  1  0  0  0  0
 30 31  3  0  0  0  0
 31 24  1  0  0  0  0
 32 33  1  0  0  0  0
 33 34  1  0  0  0  0
M  END
>  <MODEL>
8

>  <REMARK>
 VINA RESULT:      -7.6      2.809      8.710
  Name = 
  7 active torsions:
  status: ('A' for Active; 'I' for Inactive)
    1  A    between atoms: C_1  and  C_34
    2  A    between atoms: C_2  and  C_32
    3  A    between atoms: O_3  and  C_13
    4  A    between atoms: O_3  and  C_25
    5  A    between atoms: C_11  and  C_15
    6  A    between atoms: C_18  and  C_30
    7  A    between atoms: C_26  and  C_28
                            x       y       z     vdW  Elec       q    Type
                         _______ _______ _______ _____ _____    ______ ____

>  <TORSDO>
F 7

$$$$
=
 OpenBabel11052415553D

 34 39  0  0  1  0  0  0  0  0999 V2000
  189.3490  177.0380  138.9580 C   0  0  0  0  0  0  0  0  0  0  0  0
  190.8220  177.2110  141.3460 C   0  0  0  0  0  3  0  0  0  0  0  0
  188.7010  177.1970  140.1870 C   0  0  0  0  0  3  0  0  0  0  0  0
  191.4910  177.0520  140.1340 C   0  0  0  0  0  0  0  0  0  0  0  0
  193.5690  176.8220  138.9110 C   0  0  0  0  0  3  0  0  0  0  0  0
  192.8860  176.9820  140.1190 C   0  0  0  0  0  3  0  0  0  0  0  0
  189.4220  177.2850  141.3880 C   0  0  0  0  0  0  0  0  0  0  0  0
  191.4630  176.8030  137.7180 C   0  0  0  0  0  3  0  0  0  0  0  0
  190.7600  176.9630  138.9240 C   0  0  0  0  0  0  0  0  0  0  0  0
  192.8580  176.7330  137.7120 C   0  0  0  0  0  3  0  0  0  0  0  0
  188.7450  177.5180  145.1100 C   0  0  0  0  0  3  0  0  0  0  0  0
  187.3390  177.7300  142.7100 C   0  0  0  0  0  3  0  0  0  0  0  0
  186.7170  177.9930  146.4580 C   0  0  0  0  0  1  0  0  0  0  0  0
  187.3750  177.7910  145.1360 C   0  0  0  0  0  0  0  0  0  0  0  0
  186.6540  177.8810  143.9260 C   0  0  0  0  0  0  0  0  0  0  0  0
  188.7150  177.4560  142.6800 C   0  0  0  0  0  0  0  0  0  0  0  0
  189.4090  177.3480  143.8940 C   0  0  0  0  0  3  0  0  0  0  0  0
  184.6040  177.8840  142.5940 N   0  0  2  0  0  0  0  0  0  0  0  0
  183.6960  178.9750  142.1950 C   0  0  2  0  0  3  0  0  0  0  0  0
  185.1870  178.2160  143.9100 C   0  0  2  0  0  3  0  0  0  0  0  0
  184.8910  179.2950  142.9650 C   0  0  1  0  0  3  0  0  0  0  0  0
  182.4570  178.9850  143.0770 C   0  0  0  0  0  2  0  0  0  0  0  0
  181.3150  178.9890  142.2760 O   0  0  0  0  0  1  0  0  0  0  0  0
  187.8620  175.5620  137.5110 C   0  0  2  0  0  3  0  0  0  0  0  0
  187.0650  175.5580  136.3500 O   0  0  0  0  0  0  0  0  0  0  0  0
  185.9490  176.3740  136.6150 C   0  0  1  0  0  3  0  0  0  0  0  0
  186.3850  177.8360  136.6420 C   0  0  0  0  0  2  0  0  0  0  0  0
  187.3860  178.0310  137.7750 C   0  0  0  0  0  2  0  0  0  0  0  0
  188.4800  176.9600  137.7290 C   0  0  1  0  0  3  0  0  0  0  0  0
  189.7360  173.7420  137.2520 N   0  0  0  0  0  0  0  0  0  0  0  0
  188.9100  174.5450  137.3660 C   0  0  0  0  0  0  0  0  0  0  0  0
  184.9920  176.1900  135.6160 O   0  0  0  0  0  0  0  0  0  0  0  0
  183.7660  176.3000  136.2740 C   0  0  0  0  0  2  0  0  0  0  0  0
  183.7340  175.3390  137.4440 C   0  0  0  0  0  1  0  0  0  0  0  0
  1  3  1  0  0  0  0
  2  7  1  0  0  0  0
  3  7  2  0  0  0  0
  4  2  2  0  0  0  0
  5  6  2  0  0  0  0
  6  4  1  0  0  0  0
  7 16  1  0  0  0  0
  8  9  1  0  0  0  0
  9  1  2  0  0  0  0
  9  4  1  0  0  0  0
 10  8  2  0  0  0  0
 10  5  1  0  0  0  0
 11 14  1  0  0  0  0
 12 15  1  0  0  0  0
 14 13  1  0  0  0  0
 15 14  2  0  0  0  0
 16 12  2  0  0  0  0
 16 17  1  0  0  0  0
 17 11  2  0  0  0  0
 18 21  1  0  0  0  0
 18 20  1  0  0  0  0
 19 18  1  0  0  0  0
 19 21  1  0  0  0  0
 19 22  1  0  0  0  0
 20 15  1  0  0  0  0
 21 20  1  0  0  0  0
 23 22  1  0  0  0  0
 24 29  1  0  0  0  0
 25 26  1  0  0  0  0
 25 24  1  0  0  0  0
 26 27  1  0  0  0  0
 27 28  1  0  0  0  0
 29 28  1  0  0  0  0
 29  1  1  0  0  0  0
 30 31  3  0  0  0  0
 31 24  1  0  0  0  0
 32 33  1  0  0  0  0
 32 26  1  0  0  0  0
 33 34  1  0  0  0  0
M  END
>  <MODEL>
9

>  <REMARK>
 VINA RESULT:      -7.5      2.899      7.290
  Name = 
  7 active torsions:
  status: ('A' for Active; 'I' for Inactive)
    1  A    between atoms: C_1  and  C_34
    2  A    between atoms: C_2  and  C_32
    3  A    between atoms: O_3  and  C_13
    4  A    between atoms: O_3  and  C_25
    5  A    between atoms: C_11  and  C_15
    6  A    between atoms: C_18  and  C_30
    7  A    between atoms: C_26  and  C_28
                            x       y       z     vdW  Elec       q    Type
                         _______ _______ _______ _____ _____    ______ ____

>  <TORSDO>
F 7

$$$$
