=
 OpenBabel11052416043D

 34 34  0  0  1  0  0  0  0  0999 V2000
  187.7200  177.3870  144.0670 O   0  0  0  0  0  0  0  0  0  0  0  0
  186.8820  177.0260  145.1250 C   0  0  0  0  0  2  0  0  0  0  0  0
  185.8850  178.1380  145.4180 C   0  0  2  0  0  3  0  0  0  0  0  0
  185.8400  178.3450  146.9220 C   0  0  0  0  0  2  0  0  0  0  0  0
  185.7200  179.7020  147.2180 O   0  0  0  0  0  1  0  0  0  0  0  0
  184.6160  177.7590  144.9510 O   0  0  0  0  0  0  0  0  0  0  0  0
  184.7260  179.9870  144.0050 C   0  0  0  0  0  2  0  0  0  0  0  0
  183.2560  179.6020  143.9440 C   0  0  0  0  0  2  0  0  0  0  0  0
  184.3300  178.5390  143.8150 C   0  0  0  0  0  0  0  0  0  0  0  0
  184.6400  177.9880  142.4260 C   0  0  0  0  0  2  0  0  0  0  0  0
  185.1820  179.0690  141.5040 C   0  0  0  0  0  2  0  0  0  0  0  0
  184.2310  179.1320  139.9560 S   0  0  0  0  0  0  0  0  0  0  0  0
  182.9950  177.9420  140.5750 C   0  0  1  0  0  3  0  0  0  0  0  0
  181.6440  178.6200  140.6780 C   0  0  0  0  0  1  0  0  0  0  0  0
  182.8940  176.6980  139.6920 C   0  0  1  0  0  3  0  0  0  0  0  0
  181.5630  176.3130  139.5110 O   0  0  0  0  0  1  0  0  0  0  0  0
  183.5550  176.9260  138.3470 C   0  0  0  0  0  1  0  0  0  0  0  0
  188.8850  177.8600  144.6750 C   0  0  0  0  0  2  0  0  0  0  0  0
  189.7380  176.7000  145.1660 C   0  0  2  0  0  3  0  0  0  0  0  0
  190.4240  177.0390  146.4490 C   0  0  0  0  0  0  0  0  0  0  0  0
  191.6790  176.9760  146.5180 O   0  0  0  0  0  0  0  0  0  0  0  0
  189.6740  177.4540  147.5870 N   0  0  0  0  0  1  0  0  0  0  0  0
  190.9690  176.2640  143.8990 S   0  0  0  0  0  0  0  0  0  0  0  0
  190.8800  177.8960  143.0980 C   0  0  1  0  0  3  0  0  0  0  0  0
  191.3230  179.9940  144.1650 O   0  0  0  0  0  1  0  0  0  0  0  0
  191.9280  178.8270  143.6990 C   0  0  0  0  0  2  0  0  0  0  0  0
  192.2660  177.4190  141.2030 O   0  0  0  0  0  1  0  0  0  0  0  0
  190.9710  177.7900  141.5670 C   0  0  1  0  0  3  0  0  0  0  0  0
  189.9440  176.8150  140.9570 C   0  0  2  0  0  3  0  0  0  0  0  0
  190.4800  176.1120  139.8700 O   0  0  0  0  0  1  0  0  0  0  0  0
  188.7220  177.4360  140.6140 O   0  0  0  0  0  0  0  0  0  0  0  0
  188.8790  178.0880  139.3780 C   0  0  0  0  0  2  0  0  0  0  0  0
  187.5900  178.0110  138.5820 C   0  0  0  0  0  2  0  0  0  0  0  0
  187.6120  176.8100  137.6560 C   0  0  0  0  0  1  0  0  0  0  0  0
  1 18  1  0  0  0  0
  1  2  1  0  0  0  0
  3  2  1  1  0  0  0
  3  4  1  0  0  0  0
  4  5  1  0  0  0  0
  6  3  1  0  0  0  0
  8  7  1  0  0  0  0
  9  8  1  0  0  0  0
  9  7  1  0  0  0  0
  9  6  1  0  0  0  0
 10  9  1  0  0  0  0
 11 10  1  0  0  0  0
 12 13  1  0  0  0  0
 12 11  1  0  0  0  0
 13 14  1  6  0  0  0
 15 17  1  6  0  0  0
 15 13  1  0  0  0  0
 16 15  1  0  0  0  0
 19 18  1  6  0  0  0
 19 20  1  0  0  0  0
 20 21  2  0  0  0  0
 20 22  1  0  0  0  0
 23 19  1  0  0  0  0
 24 26  1  1  0  0  0
 24 23  1  0  0  0  0
 26 25  1  0  0  0  0
 28 27  1  1  0  0  0
 28 24  1  0  0  0  0
 29 30  1  6  0  0  0
 29 28  1  0  0  0  0
 31 29  1  0  0  0  0
 32 31  1  0  0  0  0
 33 32  1  0  0  0  0
 34 33  1  0  0  0  0
M  END
>  <MODEL>
1

>  <REMARK>
 VINA RESULT:      -5.3      0.000      0.000
  Name = 
  21 active torsions:
  status: ('A' for Active; 'I' for Inactive)
    1  A    between atoms: O_2  and  C_23
    2  A    between atoms: O_2  and  C_32
    3  A    between atoms: C_3  and  C_25
    4  A    between atoms: C_4  and  C_30
    5  A    between atoms: C_7  and  O_16
    6  A    between atoms: C_7  and  C_29
    7  A    between atoms: C_8  and  C_10
    8  A    between atoms: C_10  and  S_17
    9  A    between atoms: C_11  and  C_26
   10  A    between atoms: C_12  and  S_17
   11  A    between atoms: C_12  and  C_22
   12  A    between atoms: O_16  and  C_30
   13  A    between atoms: C_19  and  C_22
   14  A    between atoms: C_19  and  O_28
   15  A    between atoms: C_23  and  C_25
   16  A    between atoms: C_25  and  S_27
   17  A    between atoms: C_26  and  O_28
   18  A    between atoms: C_26  and  C_32
   19  A    between atoms: S_27  and  C_33
   20  A    between atoms: C_29  and  C_33
   21  A    between atoms: C_33  and  C_34
                            x       y       z     vdW  Elec       q    Type
                         _______ _______ _______ _____ _____    ______ ____

>  <TORSDO>
F 21

$$$$
=
 OpenBabel11052416043D

 34 34  0  0  1  0  0  0  0  0999 V2000
  187.5800  176.9800  143.4000 O   0  0  0  0  0  0  0  0  0  0  0  0
  187.6390  177.3720  144.7400 C   0  0  0  0  0  2  0  0  0  0  0  0
  186.4160  178.1990  145.1080 C   0  0  2  0  0  3  0  0  0  0  0  0
  186.3900  178.3540  146.6190 C   0  0  0  0  0  2  0  0  0  0  0  0
  185.6090  179.4510  146.9770 O   0  0  0  0  0  1  0  0  0  0  0  0
  185.2580  177.5340  144.6770 O   0  0  0  0  0  0  0  0  0  0  0  0
  184.6440  178.3220  142.4690 C   0  0  0  0  0  2  0  0  0  0  0  0
  185.1980  179.5440  143.1880 C   0  0  0  0  0  2  0  0  0  0  0  0
  184.4730  178.4620  143.9660 C   0  0  0  0  0  0  0  0  0  0  0  0
  183.0360  178.7250  144.4060 C   0  0  0  0  0  2  0  0  0  0  0  0
  182.1820  179.2280  143.2520 C   0  0  0  0  0  2  0  0  0  0  0  0
  180.4490  178.7260  143.4650 S   0  0  0  0  0  0  0  0  0  0  0  0
  180.0920  178.9140  141.6870 C   0  0  1  0  0  3  0  0  0  0  0  0
  179.2210  177.7650  141.2200 C   0  0  0  0  0  1  0  0  0  0  0  0
  179.4200  180.2490  141.3670 C   0  0  1  0  0  3  0  0  0  0  0  0
  179.5540  181.1490  142.4270 O   0  0  0  0  0  1  0  0  0  0  0  0
  179.9830  180.8550  140.0980 C   0  0  0  0  0  1  0  0  0  0  0  0
  188.6700  176.1250  143.2260 C   0  0  0  0  0  2  0  0  0  0  0  0
  189.6560  176.7170  142.2300 C   0  0  2  0  0  3  0  0  0  0  0  0
  190.9680  177.0140  142.8800 C   0  0  0  0  0  0  0  0  0  0  0  0
  191.4980  178.1440  142.7220 O   0  0  0  0  0  0  0  0  0  0  0  0
  191.6140  176.0390  143.6940 N   0  0  0  0  0  1  0  0  0  0  0  0
  188.9630  178.2360  141.5070 S   0  0  0  0  0  0  0  0  0  0  0  0
  189.5580  177.8380  139.8330 C   0  0  1  0  0  3  0  0  0  0  0  0
  190.8250  175.9450  139.0950 O   0  0  0  0  0  1  0  0  0  0  0  0
  189.6000  176.3260  139.6440 C   0  0  0  0  0  2  0  0  0  0  0  0
  189.4440  178.5240  137.5400 O   0  0  0  0  0  1  0  0  0  0  0  0
  188.7440  178.5620  138.7480 C   0  0  1  0  0  3  0  0  0  0  0  0
  187.3240  177.9910  138.5610 C   0  0  2  0  0  3  0  0  0  0  0  0
  187.0170  177.7980  137.2070 O   0  0  0  0  0  1  0  0  0  0  0  0
  186.3280  178.7540  139.2100 O   0  0  0  0  0  0  0  0  0  0  0  0
  185.0720  178.3860  138.6950 C   0  0  0  0  0  2  0  0  0  0  0  0
  184.0410  179.4460  139.0330 C   0  0  0  0  0  2  0  0  0  0  0  0
  182.7000  179.0930  138.4160 C   0  0  0  0  0  1  0  0  0  0  0  0
  1  2  1  0  0  0  0
  3  2  1  1  0  0  0
  3  4  1  0  0  0  0
  4  5  1  0  0  0  0
  6  3  1  0  0  0  0
  7  8  1  0  0  0  0
  7  9  1  0  0  0  0
  8  9  1  0  0  0  0
  9 10  1  0  0  0  0
  9  6  1  0  0  0  0
 11 12  1  0  0  0  0
 11 10  1  0  0  0  0
 13 14  1  1  0  0  0
 13 12  1  0  0  0  0
 15 17  1  6  0  0  0
 15 13  1  0  0  0  0
 15 16  1  0  0  0  0
 18  1  1  0  0  0  0
 19 20  1  0  0  0  0
 19 18  1  1  0  0  0
 20 22  1  0  0  0  0
 21 20  2  0  0  0  0
 23 19  1  0  0  0  0
 24 26  1  6  0  0  0
 24 23  1  0  0  0  0
 25 26  1  0  0  0  0
 28 27  1  6  0  0  0
 28 24  1  0  0  0  0
 29 30  1  6  0  0  0
 29 28  1  0  0  0  0
 29 31  1  0  0  0  0
 32 33  1  0  0  0  0
 32 31  1  0  0  0  0
 34 33  1  0  0  0  0
M  END
>  <MODEL>
2

>  <REMARK>
 VINA RESULT:      -5.3      2.408      3.726
  Name = 
  21 active torsions:
  status: ('A' for Active; 'I' for Inactive)
    1  A    between atoms: O_2  and  C_23
    2  A    between atoms: O_2  and  C_32
    3  A    between atoms: C_3  and  C_25
    4  A    between atoms: C_4  and  C_30
    5  A    between atoms: C_7  and  O_16
    6  A    between atoms: C_7  and  C_29
    7  A    between atoms: C_8  and  C_10
    8  A    between atoms: C_10  and  S_17
    9  A    between atoms: C_11  and  C_26
   10  A    between atoms: C_12  and  S_17
   11  A    between atoms: C_12  and  C_22
   12  A    between atoms: O_16  and  C_30
   13  A    between atoms: C_19  and  C_22
   14  A    between atoms: C_19  and  O_28
   15  A    between atoms: C_23  and  C_25
   16  A    between atoms: C_25  and  S_27
   17  A    between atoms: C_26  and  O_28
   18  A    between atoms: C_26  and  C_32
   19  A    between atoms: S_27  and  C_33
   20  A    between atoms: C_29  and  C_33
   21  A    between atoms: C_33  and  C_34
                            x       y       z     vdW  Elec       q    Type
                         _______ _______ _______ _____ _____    ______ ____

>  <TORSDO>
F 21

$$$$
=
 OpenBabel11052416043D

 34 34  0  0  1  0  0  0  0  0999 V2000
  187.5540  178.2300  142.0490 O   0  0  0  0  0  0  0  0  0  0  0  0
  187.4850  177.1860  142.9750 C   0  0  0  0  0  2  0  0  0  0  0  0
  187.3580  177.7350  144.3890 C   0  0  2  0  0  3  0  0  0  0  0  0
  188.5380  177.2260  145.1990 C   0  0  0  0  0  2  0  0  0  0  0  0
  189.5690  178.1650  145.1900 O   0  0  0  0  0  1  0  0  0  0  0  0
  186.1580  177.2800  144.9580 O   0  0  0  0  0  0  0  0  0  0  0  0
  185.9440  179.1480  146.4880 C   0  0  0  0  0  2  0  0  0  0  0  0
  184.6310  178.3870  146.6030 C   0  0  0  0  0  2  0  0  0  0  0  0
  185.3880  178.4120  145.2880 C   0  0  0  0  0  0  0  0  0  0  0  0
  184.8810  179.3270  144.1780 C   0  0  0  0  0  2  0  0  0  0  0  0
  183.6570  178.7440  143.4880 C   0  0  0  0  0  2  0  0  0  0  0  0
  184.0000  178.4180  141.7340 S   0  0  0  0  0  0  0  0  0  0  0  0
  182.2280  178.4310  141.3030 C   0  0  1  0  0  3  0  0  0  0  0  0
  181.4280  178.9980  142.4580 C   0  0  0  0  0  1  0  0  0  0  0  0
  181.9460  179.2240  140.0270 C   0  0  1  0  0  3  0  0  0  0  0  0
  182.7880  178.8240  138.9870 O   0  0  0  0  0  1  0  0  0  0  0  0
  180.4970  179.0850  139.6050 C   0  0  0  0  0  1  0  0  0  0  0  0
  188.9150  178.3880  141.7840 C   0  0  0  0  0  2  0  0  0  0  0  0
  189.5030  177.0970  141.2340 C   0  0  2  0  0  3  0  0  0  0  0  0
  190.5760  176.5670  142.1300 C   0  0  0  0  0  0  0  0  0  0  0  0
  190.4370  175.4360  142.6620 O   0  0  0  0  0  0  0  0  0  0  0  0
  191.7620  177.3200  142.3680 N   0  0  0  0  0  1  0  0  0  0  0  0
  190.1720  177.3860  139.5670 S   0  0  0  0  0  0  0  0  0  0  0  0
  188.6030  176.9580  138.7480 C   0  0  1  0  0  3  0  0  0  0  0  0
  188.7720  179.2810  138.1920 O   0  0  0  0  0  1  0  0  0  0  0  0
  187.8680  178.2280  138.3370 C   0  0  0  0  0  2  0  0  0  0  0  0
  187.6930  175.9970  136.7510 O   0  0  0  0  0  1  0  0  0  0  0  0
  188.8120  175.9760  137.5840 C   0  0  1  0  0  3  0  0  0  0  0  0
  190.0910  176.2530  136.7680 C   0  0  2  0  0  3  0  0  0  0  0  0
  189.8400  177.1060  135.6850 O   0  0  0  0  0  1  0  0  0  0  0  0
  190.7530  175.0760  136.3530 O   0  0  0  0  0  0  0  0  0  0  0  0
  191.4100  174.5140  137.4610 C   0  0  0  0  0  2  0  0  0  0  0  0
  192.9120  174.5670  137.2580 C   0  0  0  0  0  2  0  0  0  0  0  0
  193.5020  175.7560  137.9940 C   0  0  0  0  0  1  0  0  0  0  0  0
  1  2  1  0  0  0  0
  3  2  1  6  0  0  0
  3  6  1  0  0  0  0
  3  4  1  0  0  0  0
  5  4  1  0  0  0  0
  6  9  1  0  0  0  0
  7  8  1  0  0  0  0
  9  7  1  0  0  0  0
  9  8  1  0  0  0  0
 10  9  1  0  0  0  0
 11 10  1  0  0  0  0
 12 11  1  0  0  0  0
 13 12  1  0  0  0  0
 13 14  1  1  0  0  0
 15 17  1  6  0  0  0
 15 13  1  0  0  0  0
 16 15  1  0  0  0  0
 18  1  1  0  0  0  0
 19 18  1  1  0  0  0
 19 20  1  0  0  0  0
 20 22  1  0  0  0  0
 20 21  2  0  0  0  0
 23 19  1  0  0  0  0
 24 26  1  6  0  0  0
 24 23  1  0  0  0  0
 25 26  1  0  0  0  0
 28 27  1  6  0  0  0
 28 24  1  0  0  0  0
 29 30  1  6  0  0  0
 29 28  1  0  0  0  0
 31 29  1  0  0  0  0
 31 32  1  0  0  0  0
 33 32  1  0  0  0  0
 33 34  1  0  0  0  0
M  END
>  <MODEL>
3

>  <REMARK>
 VINA RESULT:      -5.2      2.709      4.134
  Name = 
  21 active torsions:
  status: ('A' for Active; 'I' for Inactive)
    1  A    between atoms: O_2  and  C_23
    2  A    between atoms: O_2  and  C_32
    3  A    between atoms: C_3  and  C_25
    4  A    between atoms: C_4  and  C_30
    5  A    between atoms: C_7  and  O_16
    6  A    between atoms: C_7  and  C_29
    7  A    between atoms: C_8  and  C_10
    8  A    between atoms: C_10  and  S_17
    9  A    between atoms: C_11  and  C_26
   10  A    between atoms: C_12  and  S_17
   11  A    between atoms: C_12  and  C_22
   12  A    between atoms: O_16  and  C_30
   13  A    between atoms: C_19  and  C_22
   14  A    between atoms: C_19  and  O_28
   15  A    between atoms: C_23  and  C_25
   16  A    between atoms: C_25  and  S_27
   17  A    between atoms: C_26  and  O_28
   18  A    between atoms: C_26  and  C_32
   19  A    between atoms: S_27  and  C_33
   20  A    between atoms: C_29  and  C_33
   21  A    between atoms: C_33  and  C_34
                            x       y       z     vdW  Elec       q    Type
                         _______ _______ _______ _____ _____    ______ ____

>  <TORSDO>
F 21

$$$$
=
 OpenBabel11052416043D

 34 34  0  0  1  0  0  0  0  0999 V2000
  187.7830  178.6260  138.3980 O   0  0  0  0  0  0  0  0  0  0  0  0
  186.9230  178.4120  137.3190 C   0  0  0  0  0  2  0  0  0  0  0  0
  185.8160  177.4420  137.7030 C   0  0  2  0  0  3  0  0  0  0  0  0
  186.1100  176.1050  137.0430 C   0  0  0  0  0  2  0  0  0  0  0  0
  185.6680  176.1140  135.7210 O   0  0  0  0  0  1  0  0  0  0  0  0
  184.5840  177.9370  137.2470 O   0  0  0  0  0  0  0  0  0  0  0  0
  183.1340  177.1290  139.0120 C   0  0  0  0  0  2  0  0  0  0  0  0
  182.3220  178.1900  138.2860 C   0  0  0  0  0  2  0  0  0  0  0  0
  183.8310  178.3120  138.3760 C   0  0  0  0  0  0  0  0  0  0  0  0
  184.4200  179.3000  139.3790 C   0  0  0  0  0  2  0  0  0  0  0  0
  184.3430  178.7650  140.8010 C   0  0  0  0  0  2  0  0  0  0  0  0
  185.8920  179.0880  141.6950 S   0  0  0  0  0  0  0  0  0  0  0  0
  185.3180  178.1900  143.1740 C   0  0  1  0  0  3  0  0  0  0  0  0
  186.5090  177.6080  143.9090 C   0  0  0  0  0  1  0  0  0  0  0  0
  184.5020  179.0780  144.1140 C   0  0  1  0  0  3  0  0  0  0  0  0
  183.2160  178.5670  144.3020 O   0  0  0  0  0  1  0  0  0  0  0  0
  185.1960  179.2440  145.4510 C   0  0  0  0  0  1  0  0  0  0  0  0
  189.0660  178.5980  137.8480 C   0  0  0  0  0  2  0  0  0  0  0  0
  189.9070  177.5200  138.5130 C   0  0  2  0  0  3  0  0  0  0  0  0
  189.9690  176.2870  137.6710 C   0  0  0  0  0  0  0  0  0  0  0  0
  189.5720  176.3290  136.4780 O   0  0  0  0  0  0  0  0  0  0  0  0
  190.4940  175.0720  138.1980 N   0  0  0  0  0  1  0  0  0  0  0  0
  189.2150  177.1210  140.1490 S   0  0  0  0  0  0  0  0  0  0  0  0
  190.8550  177.0220  140.9350 C   0  0  1  0  0  3  0  0  0  0  0  0
  193.1040  177.1190  140.1200 O   0  0  0  0  0  1  0  0  0  0  0  0
  191.8780  177.7840  140.1010 C   0  0  0  0  0  2  0  0  0  0  0  0
  189.6480  178.2060  142.6340 O   0  0  0  0  0  1  0  0  0  0  0  0
  190.8140  177.4740  142.4050 C   0  0  1  0  0  3  0  0  0  0  0  0
  190.9200  176.3080  143.4090 C   0  0  2  0  0  3  0  0  0  0  0  0
  190.3790  175.1250  142.8880 O   0  0  0  0  0  1  0  0  0  0  0  0
  190.3680  176.6120  144.6730 O   0  0  0  0  0  0  0  0  0  0  0  0
  191.3240  177.3190  145.4240 C   0  0  0  0  0  2  0  0  0  0  0  0
  191.3690  176.7870  146.8430 C   0  0  0  0  0  2  0  0  0  0  0  0
  192.2430  175.5480  146.9150 C   0  0  0  0  0  1  0  0  0  0  0  0
  2  3  1  0  0  0  0
  2  1  1  0  0  0  0
  3  4  1  6  0  0  0
  5  4  1  0  0  0  0
  6  3  1  0  0  0  0
  6  9  1  0  0  0  0
  8  9  1  0  0  0  0
  8  7  1  0  0  0  0
  9  7  1  0  0  0  0
  9 10  1  0  0  0  0
 10 11  1  0  0  0  0
 11 12  1  0  0  0  0
 12 13  1  0  0  0  0
 13 14  1  1  0  0  0
 13 15  1  0  0  0  0
 15 16  1  0  0  0  0
 15 17  1  1  0  0  0
 18  1  1  0  0  0  0
 19 18  1  6  0  0  0
 19 23  1  0  0  0  0
 20 22  1  0  0  0  0
 20 19  1  0  0  0  0
 21 20  2  0  0  0  0
 23 24  1  0  0  0  0
 24 26  1  6  0  0  0
 24 28  1  0  0  0  0
 26 25  1  0  0  0  0
 28 27  1  1  0  0  0
 28 29  1  0  0  0  0
 29 30  1  6  0  0  0
 29 31  1  0  0  0  0
 31 32  1  0  0  0  0
 32 33  1  0  0  0  0
 33 34  1  0  0  0  0
M  END
>  <MODEL>
4

>  <REMARK>
 VINA RESULT:      -5.2      2.790      6.565
  Name = 
  21 active torsions:
  status: ('A' for Active; 'I' for Inactive)
    1  A    between atoms: O_2  and  C_23
    2  A    between atoms: O_2  and  C_32
    3  A    between atoms: C_3  and  C_25
    4  A    between atoms: C_4  and  C_30
    5  A    between atoms: C_7  and  O_16
    6  A    between atoms: C_7  and  C_29
    7  A    between atoms: C_8  and  C_10
    8  A    between atoms: C_10  and  S_17
    9  A    between atoms: C_11  and  C_26
   10  A    between atoms: C_12  and  S_17
   11  A    between atoms: C_12  and  C_22
   12  A    between atoms: O_16  and  C_30
   13  A    between atoms: C_19  and  C_22
   14  A    between atoms: C_19  and  O_28
   15  A    between atoms: C_23  and  C_25
   16  A    between atoms: C_25  and  S_27
   17  A    between atoms: C_26  and  O_28
   18  A    between atoms: C_26  and  C_32
   19  A    between atoms: S_27  and  C_33
   20  A    between atoms: C_29  and  C_33
   21  A    between atoms: C_33  and  C_34
                            x       y       z     vdW  Elec       q    Type
                         _______ _______ _______ _____ _____    ______ ____

>  <TORSDO>
F 21

$$$$
=
 OpenBabel11052416043D

 34 34  0  0  1  0  0  0  0  0999 V2000
  187.8240  178.2380  143.4560 O   0  0  0  0  0  0  0  0  0  0  0  0
  187.1680  177.4980  144.4440 C   0  0  0  0  0  2  0  0  0  0  0  0
  185.9190  178.2280  144.9140 C   0  0  2  0  0  3  0  0  0  0  0  0
  185.8580  178.1290  146.4290 C   0  0  0  0  0  2  0  0  0  0  0  0
  185.5110  179.3620  146.9790 O   0  0  0  0  0  1  0  0  0  0  0  0
  184.7850  177.6200  144.3520 O   0  0  0  0  0  0  0  0  0  0  0  0
  184.4450  179.9430  143.7550 C   0  0  0  0  0  2  0  0  0  0  0  0
  183.0590  179.3170  143.7220 C   0  0  0  0  0  2  0  0  0  0  0  0
  184.2800  178.4900  143.3680 C   0  0  0  0  0  0  0  0  0  0  0  0
  184.5580  178.2030  141.8950 C   0  0  0  0  0  2  0  0  0  0  0  0
  183.6250  178.9900  140.9870 C   0  0  0  0  0  2  0  0  0  0  0  0
  183.4630  178.1770  139.3700 S   0  0  0  0  0  0  0  0  0  0  0  0
  181.7650  177.6190  139.7320 C   0  0  1  0  0  3  0  0  0  0  0  0
  180.7740  178.4930  138.9900 C   0  0  0  0  0  1  0  0  0  0  0  0
  181.5470  176.1500  139.3690 C   0  0  1  0  0  3  0  0  0  0  0  0
  180.5220  176.0080  138.4310 O   0  0  0  0  0  1  0  0  0  0  0  0
  182.8220  175.5200  138.8440 C   0  0  0  0  0  1  0  0  0  0  0  0
  188.3550  177.2840  142.5850 C   0  0  0  0  0  2  0  0  0  0  0  0
  189.2730  177.9460  141.5680 C   0  0  2  0  0  3  0  0  0  0  0  0
  188.7310  177.8100  140.1820 C   0  0  0  0  0  0  0  0  0  0  0  0
  189.3610  177.1260  139.3350 O   0  0  0  0  0  0  0  0  0  0  0  0
  187.5010  178.4280  139.8180 N   0  0  0  0  0  1  0  0  0  0  0  0
  190.9320  177.2060  141.6640 S   0  0  0  0  0  0  0  0  0  0  0  0
  190.7200  176.6960  143.3990 C   0  0  1  0  0  3  0  0  0  0  0  0
  192.1950  174.9140  144.0200 O   0  0  0  0  0  1  0  0  0  0  0  0
  190.9200  175.1900  143.5250 C   0  0  0  0  0  2  0  0  0  0  0  0
  191.6810  178.8310  143.9090 O   0  0  0  0  0  1  0  0  0  0  0  0
  191.6160  177.5080  144.3490 C   0  0  1  0  0  3  0  0  0  0  0  0
  191.1580  177.4550  145.8200 C   0  0  2  0  0  3  0  0  0  0  0  0
  192.0360  176.7000  146.6090 O   0  0  0  0  0  1  0  0  0  0  0  0
  189.8240  177.0160  145.9720 O   0  0  0  0  0  0  0  0  0  0  0  0
  189.5710  176.8100  147.3400 C   0  0  0  0  0  2  0  0  0  0  0  0
  189.2540  178.1300  148.0160 C   0  0  0  0  0  2  0  0  0  0  0  0
  188.1240  177.9540  149.0130 C   0  0  0  0  0  1  0  0  0  0  0  0
  1  2  1  0  0  0  0
  3  2  1  6  0  0  0
  3  4  1  0  0  0  0
  4  5  1  0  0  0  0
  6  3  1  0  0  0  0
  8  7  1  0  0  0  0
  9  8  1  0  0  0  0
  9  7  1  0  0  0  0
  9  6  1  0  0  0  0
 10  9  1  0  0  0  0
 11 10  1  0  0  0  0
 12 13  1  0  0  0  0
 12 11  1  0  0  0  0
 13 14  1  6  0  0  0
 15 17  1  6  0  0  0
 15 13  1  0  0  0  0
 16 15  1  0  0  0  0
 18  1  1  0  0  0  0
 19 23  1  0  0  0  0
 19 18  1  1  0  0  0
 20 19  1  0  0  0  0
 21 20  2  0  0  0  0
 22 20  1  0  0  0  0
 23 24  1  0  0  0  0
 24 26  1  6  0  0  0
 24 28  1  0  0  0  0
 26 25  1  0  0  0  0
 28 27  1  6  0  0  0
 28 29  1  0  0  0  0
 29 31  1  0  0  0  0
 29 30  1  1  0  0  0
 31 32  1  0  0  0  0
 32 33  1  0  0  0  0
 33 34  1  0  0  0  0
M  END
>  <MODEL>
5

>  <REMARK>
 VINA RESULT:      -5.2      2.068      4.423
  Name = 
  21 active torsions:
  status: ('A' for Active; 'I' for Inactive)
    1  A    between atoms: O_2  and  C_23
    2  A    between atoms: O_2  and  C_32
    3  A    between atoms: C_3  and  C_25
    4  A    between atoms: C_4  and  C_30
    5  A    between atoms: C_7  and  O_16
    6  A    between atoms: C_7  and  C_29
    7  A    between atoms: C_8  and  C_10
    8  A    between atoms: C_10  and  S_17
    9  A    between atoms: C_11  and  C_26
   10  A    between atoms: C_12  and  S_17
   11  A    between atoms: C_12  and  C_22
   12  A    between atoms: O_16  and  C_30
   13  A    between atoms: C_19  and  C_22
   14  A    between atoms: C_19  and  O_28
   15  A    between atoms: C_23  and  C_25
   16  A    between atoms: C_25  and  S_27
   17  A    between atoms: C_26  and  O_28
   18  A    between atoms: C_26  and  C_32
   19  A    between atoms: S_27  and  C_33
   20  A    between atoms: C_29  and  C_33
   21  A    between atoms: C_33  and  C_34
                            x       y       z     vdW  Elec       q    Type
                         _______ _______ _______ _____ _____    ______ ____

>  <TORSDO>
F 21

$$$$
=
 OpenBabel11052416043D

 34 34  0  0  1  0  0  0  0  0999 V2000
  188.9840  178.0600  139.9730 O   0  0  0  0  0  0  0  0  0  0  0  0
  189.4900  177.0930  140.8450 C   0  0  0  0  0  2  0  0  0  0  0  0
  190.8510  177.5170  141.3800 C   0  0  2  0  0  3  0  0  0  0  0  0
  191.8470  177.4530  140.2340 C   0  0  0  0  0  2  0  0  0  0  0  0
  193.1310  177.2240  140.7250 O   0  0  0  0  0  1  0  0  0  0  0  0
  191.2430  176.6370  142.4010 O   0  0  0  0  0  0  0  0  0  0  0  0
  190.8410  178.5930  143.7750 C   0  0  0  0  0  2  0  0  0  0  0  0
  191.6120  177.6320  144.6680 C   0  0  0  0  0  2  0  0  0  0  0  0
  190.6730  177.0990  143.6030 C   0  0  0  0  0  0  0  0  0  0  0  0
  189.3080  176.5730  144.0380 C   0  0  0  0  0  2  0  0  0  0  0  0
  188.5220  177.6260  144.8050 C   0  0  0  0  0  2  0  0  0  0  0  0
  186.7360  177.4120  144.5480 S   0  0  0  0  0  0  0  0  0  0  0  0
  186.3830  177.5440  146.3320 C   0  0  1  0  0  3  0  0  0  0  0  0
  187.6270  178.0070  147.0640 C   0  0  0  0  0  1  0  0  0  0  0  0
  185.2170  178.4890  146.6260 C   0  0  1  0  0  3  0  0  0  0  0  0
  185.6630  179.6700  147.2240 O   0  0  0  0  0  1  0  0  0  0  0  0
  184.4400  178.8070  145.3640 C   0  0  0  0  0  1  0  0  0  0  0  0
  188.2570  177.3420  139.0210 C   0  0  0  0  0  2  0  0  0  0  0  0
  188.1490  178.1340  137.7270 C   0  0  2  0  0  3  0  0  0  0  0  0
  186.7250  178.2720  137.2960 C   0  0  0  0  0  0  0  0  0  0  0  0
  185.9040  178.8600  138.0460 O   0  0  0  0  0  0  0  0  0  0  0  0
  186.2950  177.7660  136.0360 N   0  0  0  0  0  1  0  0  0  0  0  0
  189.1180  177.3150  136.4220 S   0  0  0  0  0  0  0  0  0  0  0  0
  189.0860  175.7010  137.2650 C   0  0  1  0  0  3  0  0  0  0  0  0
  187.0330  174.4740  137.1460 O   0  0  0  0  0  1  0  0  0  0  0  0
  188.2300  174.7190  136.4730 C   0  0  0  0  0  2  0  0  0  0  0  0
  190.4950  173.7800  137.5150 O   0  0  0  0  0  1  0  0  0  0  0  0
  190.5020  175.1750  137.5520 C   0  0  1  0  0  3  0  0  0  0  0  0
  191.5700  175.7310  136.5890 C   0  0  2  0  0  3  0  0  0  0  0  0
  191.6930  174.9400  135.4390 O   0  0  0  0  0  1  0  0  0  0  0  0
  192.8240  175.9350  137.2070 O   0  0  0  0  0  0  0  0  0  0  0  0
  193.8040  176.0650  136.2070 C   0  0  0  0  0  2  0  0  0  0  0  0
  194.9950  175.1820  136.5280 C   0  0  0  0  0  2  0  0  0  0  0  0
  194.8420  174.5710  137.9080 C   0  0  0  0  0  1  0  0  0  0  0  0
  1  2  1  0  0  0  0
  2  3  1  0  0  0  0
  3  4  1  6  0  0  0
  3  6  1  0  0  0  0
  4  5  1  0  0  0  0
  6  9  1  0  0  0  0
  7  8  1  0  0  0  0
  9  7  1  0  0  0  0
  9 10  1  0  0  0  0
  9  8  1  0  0  0  0
 10 11  1  0  0  0  0
 12 11  1  0  0  0  0
 12 13  1  0  0  0  0
 13 15  1  0  0  0  0
 13 14  1  1  0  0  0
 15 17  1  6  0  0  0
 15 16  1  0  0  0  0
 18  1  1  0  0  0  0
 19 18  1  1  0  0  0
 20 19  1  0  0  0  0
 20 21  2  0  0  0  0
 22 20  1  0  0  0  0
 23 24  1  0  0  0  0
 23 19  1  0  0  0  0
 24 26  1  6  0  0  0
 24 28  1  0  0  0  0
 26 25  1  0  0  0  0
 28 27  1  6  0  0  0
 29 30  1  6  0  0  0
 29 31  1  0  0  0  0
 29 28  1  0  0  0  0
 32 33  1  0  0  0  0
 32 31  1  0  0  0  0
 33 34  1  0  0  0  0
M  END
>  <MODEL>
6

>  <REMARK>
 VINA RESULT:      -5.2      3.750      7.473
  Name = 
  21 active torsions:
  status: ('A' for Active; 'I' for Inactive)
    1  A    between atoms: O_2  and  C_23
    2  A    between atoms: O_2  and  C_32
    3  A    between atoms: C_3  and  C_25
    4  A    between atoms: C_4  and  C_30
    5  A    between atoms: C_7  and  O_16
    6  A    between atoms: C_7  and  C_29
    7  A    between atoms: C_8  and  C_10
    8  A    between atoms: C_10  and  S_17
    9  A    between atoms: C_11  and  C_26
   10  A    between atoms: C_12  and  S_17
   11  A    between atoms: C_12  and  C_22
   12  A    between atoms: O_16  and  C_30
   13  A    between atoms: C_19  and  C_22
   14  A    between atoms: C_19  and  O_28
   15  A    between atoms: C_23  and  C_25
   16  A    between atoms: C_25  and  S_27
   17  A    between atoms: C_26  and  O_28
   18  A    between atoms: C_26  and  C_32
   19  A    between atoms: S_27  and  C_33
   20  A    between atoms: C_29  and  C_33
   21  A    between atoms: C_33  and  C_34
                            x       y       z     vdW  Elec       q    Type
                         _______ _______ _______ _____ _____    ______ ____

>  <TORSDO>
F 21

$$$$
=
 OpenBabel11052416043D

 34 34  0  0  1  0  0  0  0  0999 V2000
  186.6200  178.1010  142.1280 O   0  0  0  0  0  0  0  0  0  0  0  0
  185.7940  179.1860  142.4320 C   0  0  0  0  0  2  0  0  0  0  0  0
  184.3530  178.8830  142.0490 C   0  0  2  0  0  3  0  0  0  0  0  0
  183.5350  178.7980  143.3260 C   0  0  0  0  0  2  0  0  0  0  0  0
  182.1930  179.0610  143.0560 O   0  0  0  0  0  1  0  0  0  0  0  0
  184.3010  177.6570  141.3670 O   0  0  0  0  0  0  0  0  0  0  0  0
  184.5750  178.4960  139.1100 C   0  0  0  0  0  2  0  0  0  0  0  0
  183.4420  179.3190  139.7060 C   0  0  0  0  0  2  0  0  0  0  0  0
  183.6510  177.8800  140.1390 C   0  0  0  0  0  0  0  0  0  0  0  0
  182.7180  176.8120  139.5750 C   0  0  0  0  0  2  0  0  0  0  0  0
  182.9860  176.5570  138.1000 C   0  0  0  0  0  2  0  0  0  0  0  0
  183.4610  174.8250  137.8220 S   0  0  0  0  0  0  0  0  0  0  0  0
  184.4090  175.2440  136.3210 C   0  0  1  0  0  3  0  0  0  0  0  0
  184.0970  176.6660  135.9030 C   0  0  0  0  0  1  0  0  0  0  0  0
  185.9160  175.0720  136.5190 C   0  0  1  0  0  3  0  0  0  0  0  0
  186.4650  176.1680  137.1880 O   0  0  0  0  0  1  0  0  0  0  0  0
  186.2270  173.7940  137.2730 C   0  0  0  0  0  1  0  0  0  0  0  0
  187.6370  178.6330  141.3320 C   0  0  0  0  0  2  0  0  0  0  0  0
  188.9880  178.0730  141.7510 C   0  0  2  0  0  3  0  0  0  0  0  0
  189.7200  177.4990  140.5810 C   0  0  0  0  0  0  0  0  0  0  0  0
  190.9730  177.3960  140.6240 O   0  0  0  0  0  0  0  0  0  0  0  0
  189.0130  177.0500  139.4290 N   0  0  0  0  0  1  0  0  0  0  0  0
  188.7550  176.7960  143.0260 S   0  0  0  0  0  0  0  0  0  0  0  0
  190.2490  177.2900  143.9430 C   0  0  1  0  0  3  0  0  0  0  0  0
  191.5100  179.3260  143.9100 O   0  0  0  0  0  1  0  0  0  0  0  0
  190.2450  178.7980  144.1680 C   0  0  0  0  0  2  0  0  0  0  0  0
  191.7640  176.1540  145.4110 O   0  0  0  0  0  1  0  0  0  0  0  0
  190.4180  176.4840  145.2410 C   0  0  1  0  0  3  0  0  0  0  0  0
  189.8840  177.2120  146.4910 C   0  0  2  0  0  3  0  0  0  0  0  0
  190.8100  177.1840  147.5420 O   0  0  0  0  0  1  0  0  0  0  0  0
  188.6180  176.7440  146.9090 O   0  0  0  0  0  0  0  0  0  0  0  0
  187.7770  177.8510  147.1230 C   0  0  0  0  0  2  0  0  0  0  0  0
  186.7830  177.9770  145.9850 C   0  0  0  0  0  2  0  0  0  0  0  0
  185.5020  178.6280  146.4720 C   0  0  0  0  0  1  0  0  0  0  0  0
  1  2  1  0  0  0  0
  3  2  1  1  0  0  0
  3  4  1  0  0  0  0
  5  4  1  0  0  0  0
  6  3  1  0  0  0  0
  7  8  1  0  0  0  0
  7  9  1  0  0  0  0
  8  9  1  0  0  0  0
  9  6  1  0  0  0  0
 10  9  1  0  0  0  0
 11 10  1  0  0  0  0
 12 11  1  0  0  0  0
 13 14  1  1  0  0  0
 13 15  1  0  0  0  0
 13 12  1  0  0  0  0
 15 16  1  0  0  0  0
 15 17  1  1  0  0  0
 18  1  1  0  0  0  0
 19 18  1  6  0  0  0
 19 23  1  0  0  0  0
 20 21  2  0  0  0  0
 20 19  1  0  0  0  0
 22 20  1  0  0  0  0
 23 24  1  0  0  0  0
 24 26  1  1  0  0  0
 24 28  1  0  0  0  0
 25 26  1  0  0  0  0
 28 27  1  1  0  0  0
 28 29  1  0  0  0  0
 29 31  1  0  0  0  0
 29 30  1  1  0  0  0
 31 32  1  0  0  0  0
 33 34  1  0  0  0  0
 33 32  1  0  0  0  0
M  END
>  <MODEL>
7

>  <REMARK>
 VINA RESULT:      -5.2      2.565      5.107
  Name = 
  21 active torsions:
  status: ('A' for Active; 'I' for Inactive)
    1  A    between atoms: O_2  and  C_23
    2  A    between atoms: O_2  and  C_32
    3  A    between atoms: C_3  and  C_25
    4  A    between atoms: C_4  and  C_30
    5  A    between atoms: C_7  and  O_16
    6  A    between atoms: C_7  and  C_29
    7  A    between atoms: C_8  and  C_10
    8  A    between atoms: C_10  and  S_17
    9  A    between atoms: C_11  and  C_26
   10  A    between atoms: C_12  and  S_17
   11  A    between atoms: C_12  and  C_22
   12  A    between atoms: O_16  and  C_30
   13  A    between atoms: C_19  and  C_22
   14  A    between atoms: C_19  and  O_28
   15  A    between atoms: C_23  and  C_25
   16  A    between atoms: C_25  and  S_27
   17  A    between atoms: C_26  and  O_28
   18  A    between atoms: C_26  and  C_32
   19  A    between atoms: S_27  and  C_33
   20  A    between atoms: C_29  and  C_33
   21  A    between atoms: C_33  and  C_34
                            x       y       z     vdW  Elec       q    Type
                         _______ _______ _______ _____ _____    ______ ____

>  <TORSDO>
F 21

$$$$
=
 OpenBabel11052416043D

 34 34  0  0  1  0  0  0  0  0999 V2000
  187.0320  178.6890  140.2020 O   0  0  0  0  0  0  0  0  0  0  0  0
  185.9280  178.4530  139.3790 C   0  0  0  0  0  2  0  0  0  0  0  0
  184.6410  178.8450  140.0890 C   0  0  2  0  0  3  0  0  0  0  0  0
  183.7280  179.5130  139.0750 C   0  0  0  0  0  2  0  0  0  0  0  0
  184.1810  180.8010  138.7940 O   0  0  0  0  0  1  0  0  0  0  0  0
  184.9370  179.7430  141.1270 O   0  0  0  0  0  0  0  0  0  0  0  0
  184.2240  177.7030  142.2230 C   0  0  0  0  0  2  0  0  0  0  0  0
  183.0180  178.6290  142.2840 C   0  0  0  0  0  2  0  0  0  0  0  0
  184.4230  179.2000  142.3200 C   0  0  0  0  0  0  0  0  0  0  0  0
  184.9810  179.6670  143.6610 C   0  0  0  0  0  2  0  0  0  0  0  0
  184.7620  178.6270  144.7500 C   0  0  0  0  0  2  0  0  0  0  0  0
  185.4670  179.1880  146.3280 S   0  0  0  0  0  0  0  0  0  0  0  0
  186.5980  177.7610  146.4220 C   0  0  1  0  0  3  0  0  0  0  0  0
  187.0750  177.3990  145.0300 C   0  0  0  0  0  1  0  0  0  0  0  0
  187.7930  178.0260  147.3370 C   0  0  1  0  0  3  0  0  0  0  0  0
  187.4860  178.9830  148.3060 O   0  0  0  0  0  1  0  0  0  0  0  0
  188.2680  176.7480  148.0010 C   0  0  0  0  0  1  0  0  0  0  0  0
  187.8700  177.5880  140.0060 C   0  0  0  0  0  2  0  0  0  0  0  0
  189.2990  178.0460  139.7550 C   0  0  2  0  0  3  0  0  0  0  0  0
  189.5790  178.1630  138.2920 C   0  0  0  0  0  0  0  0  0  0  0  0
  190.2640  177.2770  137.7190 O   0  0  0  0  0  0  0  0  0  0  0  0
  189.0610  179.2550  137.5380 N   0  0  0  0  0  1  0  0  0  0  0  0
  190.4630  176.8750  140.5200 S   0  0  0  0  0  0  0  0  0  0  0  0
  190.0160  177.3730  142.2130 C   0  0  1  0  0  3  0  0  0  0  0  0
  189.7940  175.0590  142.7870 O   0  0  0  0  0  1  0  0  0  0  0  0
  189.1540  176.2960  142.8610 C   0  0  0  0  0  2  0  0  0  0  0  0
  192.2500  178.2390  142.2070 O   0  0  0  0  0  1  0  0  0  0  0  0
  191.2540  177.7410  143.0480 C   0  0  1  0  0  3  0  0  0  0  0  0
  190.9560  178.7470  144.1780 C   0  0  2  0  0  3  0  0  0  0  0  0
  191.9970  179.6710  144.3370 O   0  0  0  0  0  1  0  0  0  0  0  0
  190.6290  178.1260  145.4040 O   0  0  0  0  0  0  0  0  0  0  0  0
  191.5530  177.0950  145.6470 C   0  0  0  0  0  2  0  0  0  0  0  0
  191.5180  176.6980  147.1110 C   0  0  0  0  0  2  0  0  0  0  0  0
  192.4190  175.5030  147.3560 C   0  0  0  0  0  1  0  0  0  0  0  0
  2  3  1  0  0  0  0
  2  1  1  0  0  0  0
  3  4  1  6  0  0  0
  3  6  1  0  0  0  0
  5  4  1  0  0  0  0
  6  9  1  0  0  0  0
  7  8  1  0  0  0  0
  7  9  1  0  0  0  0
  8  9  1  0  0  0  0
  9 10  1  0  0  0  0
 10 11  1  0  0  0  0
 11 12  1  0  0  0  0
 12 13  1  0  0  0  0
 13 14  1  6  0  0  0
 13 15  1  0  0  0  0
 15 17  1  1  0  0  0
 15 16  1  0  0  0  0
 18  1  1  0  0  0  0
 19 18  1  6  0  0  0
 19 23  1  0  0  0  0
 20 19  1  0  0  0  0
 21 20  2  0  0  0  0
 22 20  1  0  0  0  0
 23 24  1  0  0  0  0
 24 26  1  1  0  0  0
 24 28  1  0  0  0  0
 25 26  1  0  0  0  0
 28 27  1  6  0  0  0
 28 29  1  0  0  0  0
 29 30  1  1  0  0  0
 29 31  1  0  0  0  0
 31 32  1  0  0  0  0
 32 33  1  0  0  0  0
 33 34  1  0  0  0  0
M  END
>  <MODEL>
8

>  <REMARK>
 VINA RESULT:      -5.1      2.919      6.495
  Name = 
  21 active torsions:
  status: ('A' for Active; 'I' for Inactive)
    1  A    between atoms: O_2  and  C_23
    2  A    between atoms: O_2  and  C_32
    3  A    between atoms: C_3  and  C_25
    4  A    between atoms: C_4  and  C_30
    5  A    between atoms: C_7  and  O_16
    6  A    between atoms: C_7  and  C_29
    7  A    between atoms: C_8  and  C_10
    8  A    between atoms: C_10  and  S_17
    9  A    between atoms: C_11  and  C_26
   10  A    between atoms: C_12  and  S_17
   11  A    between atoms: C_12  and  C_22
   12  A    between atoms: O_16  and  C_30
   13  A    between atoms: C_19  and  C_22
   14  A    between atoms: C_19  and  O_28
   15  A    between atoms: C_23  and  C_25
   16  A    between atoms: C_25  and  S_27
   17  A    between atoms: C_26  and  O_28
   18  A    between atoms: C_26  and  C_32
   19  A    between atoms: S_27  and  C_33
   20  A    between atoms: C_29  and  C_33
   21  A    between atoms: C_33  and  C_34
                            x       y       z     vdW  Elec       q    Type
                         _______ _______ _______ _____ _____    ______ ____

>  <TORSDO>
F 21

$$$$
=
 OpenBabel11052416043D

 34 34  0  0  1  0  0  0  0  0999 V2000
  188.7020  176.5760  138.5460 O   0  0  0  0  0  0  0  0  0  0  0  0
  189.7820  177.4490  138.3950 C   0  0  0  0  0  2  0  0  0  0  0  0
  190.8960  177.0920  139.3690 C   0  0  2  0  0  3  0  0  0  0  0  0
  191.9880  176.3760  138.5930 C   0  0  0  0  0  2  0  0  0  0  0  0
  193.2230  176.9760  138.8340 O   0  0  0  0  0  1  0  0  0  0  0  0
  190.3870  176.2460  140.3670 O   0  0  0  0  0  0  0  0  0  0  0  0
  191.6960  177.5740  141.9150 C   0  0  0  0  0  2  0  0  0  0  0  0
  191.1270  176.4350  142.7500 C   0  0  0  0  0  2  0  0  0  0  0  0
  190.3480  176.9790  141.5680 C   0  0  0  0  0  0  0  0  0  0  0  0
  189.1690  177.9090  141.8440 C   0  0  0  0  0  2  0  0  0  0  0  0
  188.8690  178.0030  143.3320 C   0  0  0  0  0  2  0  0  0  0  0  0
  187.2130  177.3490  143.6980 S   0  0  0  0  0  0  0  0  0  0  0  0
  187.5940  177.1560  145.4700 C   0  0  1  0  0  3  0  0  0  0  0  0
  188.9570  177.7490  145.7640 C   0  0  0  0  0  1  0  0  0  0  0  0
  186.5350  177.8010  146.3650 C   0  0  1  0  0  3  0  0  0  0  0  0
  187.0840  178.2080  147.5840 O   0  0  0  0  0  1  0  0  0  0  0  0
  185.8760  178.9780  145.6740 C   0  0  0  0  0  1  0  0  0  0  0  0
  188.3890  176.1610  137.2500 C   0  0  0  0  0  2  0  0  0  0  0  0
  186.9350  175.7230  137.1680 C   0  0  2  0  0  3  0  0  0  0  0  0
  186.8210  174.3180  136.6730 C   0  0  0  0  0  0  0  0  0  0  0  0
  187.1490  174.0490  135.4880 O   0  0  0  0  0  0  0  0  0  0  0  0
  186.3650  173.2780  137.5330 N   0  0  0  0  0  1  0  0  0  0  0  0
  186.0150  176.8460  136.0720 S   0  0  0  0  0  0  0  0  0  0  0  0
  184.8910  177.3910  137.3970 C   0  0  1  0  0  3  0  0  0  0  0  0
  182.8620  176.1380  137.1850 O   0  0  0  0  0  1  0  0  0  0  0  0
  184.0620  176.2120  137.8920 C   0  0  0  0  0  2  0  0  0  0  0  0
  186.5660  179.0060  137.9690 O   0  0  0  0  0  1  0  0  0  0  0  0
  185.6430  178.1180  138.5240 C   0  0  1  0  0  3  0  0  0  0  0  0
  184.7130  178.8590  139.5050 C   0  0  2  0  0  3  0  0  0  0  0  0
  184.4700  180.1770  139.0960 O   0  0  0  0  0  1  0  0  0  0  0  0
  185.1640  178.8120  140.8430 O   0  0  0  0  0  0  0  0  0  0  0  0
  184.1370  178.2880  141.6480 C   0  0  0  0  0  2  0  0  0  0  0  0
  183.0140  177.7570  140.7770 C   0  0  0  0  0  2  0  0  0  0  0  0
  181.7490  178.5660  140.9950 C   0  0  0  0  0  1  0  0  0  0  0  0
  2  1  1  0  0  0  0
  3  2  1  6  0  0  0
  3  6  1  0  0  0  0
  4  5  1  0  0  0  0
  4  3  1  0  0  0  0
  6  9  1  0  0  0  0
  7  8  1  0  0  0  0
  9 10  1  0  0  0  0
  9  7  1  0  0  0  0
  9  8  1  0  0  0  0
 10 11  1  0  0  0  0
 11 12  1  0  0  0  0
 12 13  1  0  0  0  0
 13 14  1  6  0  0  0
 13 15  1  0  0  0  0
 15 17  1  6  0  0  0
 15 16  1  0  0  0  0
 18  1  1  0  0  0  0
 19 18  1  6  0  0  0
 20 19  1  0  0  0  0
 20 22  1  0  0  0  0
 21 20  2  0  0  0  0
 23 19  1  0  0  0  0
 23 24  1  0  0  0  0
 24 26  1  1  0  0  0
 24 28  1  0  0  0  0
 25 26  1  0  0  0  0
 28 27  1  6  0  0  0
 28 29  1  0  0  0  0
 29 30  1  6  0  0  0
 29 31  1  0  0  0  0
 31 32  1  0  0  0  0
 33 34  1  0  0  0  0
 33 32  1  0  0  0  0
M  END
>  <MODEL>
9

>  <REMARK>
 VINA RESULT:      -5.0      3.114      8.126
  Name = 
  21 active torsions:
  status: ('A' for Active; 'I' for Inactive)
    1  A    between atoms: O_2  and  C_23
    2  A    between atoms: O_2  and  C_32
    3  A    between atoms: C_3  and  C_25
    4  A    between atoms: C_4  and  C_30
    5  A    between atoms: C_7  and  O_16
    6  A    between atoms: C_7  and  C_29
    7  A    between atoms: C_8  and  C_10
    8  A    between atoms: C_10  and  S_17
    9  A    between atoms: C_11  and  C_26
   10  A    between atoms: C_12  and  S_17
   11  A    between atoms: C_12  and  C_22
   12  A    between atoms: O_16  and  C_30
   13  A    between atoms: C_19  and  C_22
   14  A    between atoms: C_19  and  O_28
   15  A    between atoms: C_23  and  C_25
   16  A    between atoms: C_25  and  S_27
   17  A    between atoms: C_26  and  O_28
   18  A    between atoms: C_26  and  C_32
   19  A    between atoms: S_27  and  C_33
   20  A    between atoms: C_29  and  C_33
   21  A    between atoms: C_33  and  C_34
                            x       y       z     vdW  Elec       q    Type
                         _______ _______ _______ _____ _____    ______ ____

>  <TORSDO>
F 21

$$$$
