=
 OpenBabel11052414283D

 32 38  0  0  1  0  0  0  0  0999 V2000
  183.5090  178.2120  138.2600 C   0  0  2  0  0  3  0  0  0  0  0  0
  182.8210  177.5030  140.7110 C   0  0  2  0  0  3  0  0  0  0  0  0
  182.6860  179.3040  137.5960 C   0  0  0  0  0  2  0  0  0  0  0  0
  182.6780  177.2890  139.1940 C   0  0  1  0  0  3  0  0  0  0  0  0
  181.6560  178.2580  141.3410 C   0  0  2  0  0  0  0  0  0  0  0  0
  185.4710  178.7950  144.6690 C   0  0  0  0  0  3  0  0  0  0  0  0
  184.1790  178.0370  141.1780 C   0  0  1  0  0  3  0  0  0  0  0  0
  183.0550  178.9570  144.7180 C   0  0  0  0  0  3  0  0  0  0  0  0
  182.9990  178.6280  143.3610 C   0  0  0  0  0  0  0  0  0  0  0  0
  180.8010  179.2030  140.5050 C   0  0  2  0  0  3  0  0  0  0  0  0
  181.2020  177.0520  138.7680 C   0  0  1  0  0  3  0  0  0  0  0  0
  181.7520  178.5310  142.7340 O   0  0  0  0  0  0  0  0  0  0  0  0
  180.3420  176.7830  139.8690 O   0  0  0  0  0  0  0  0  0  0  0  0
  180.5630  178.0730  137.8110 C   0  0  0  0  0  2  0  0  0  0  0  0
  184.6120  179.2270  140.3380 C   0  0  0  0  0  2  0  0  0  0  0  0
  180.0930  180.2450  141.3540 C   0  0  0  0  0  1  0  0  0  0  0  0
  184.7780  178.8120  138.8790 C   0  0  1  0  0  3  0  0  0  0  0  0
  184.1940  178.3780  142.6470 C   0  0  0  0  0  0  0  0  0  0  0  0
  180.2800  177.8010  140.8840 C   0  0  1  0  0  3  0  0  0  0  0  0
  181.5570  178.6550  136.8240 C   0  0  0  0  0  2  0  0  0  0  0  0
  184.2880  179.0410  145.3710 C   0  0  0  0  0  3  0  0  0  0  0  0
  185.4230  178.4640  143.3120 C   0  0  0  0  0  3  0  0  0  0  0  0
  187.7250  177.0520  136.9760 C   0  0  2  0  0  3  0  0  0  0  0  0
  187.1550  175.8980  136.4390 O   0  0  0  0  0  1  0  0  0  0  0  0
  188.5330  177.8420  139.2700 C   0  0  0  0  0  2  0  0  0  0  0  0
  186.0620  178.0140  138.6170 C   0  0  2  0  0  3  0  0  0  0  0  0
  188.5030  176.6930  138.2580 C   0  0  2  0  0  3  0  0  0  0  0  0
  187.1200  178.2530  139.7040 C   0  0  0  0  0  2  0  0  0  0  0  0
  186.6350  178.1100  137.1920 C   0  0  1  0  0  3  0  0  0  0  0  0
  187.1720  179.3780  136.9540 O   0  0  0  0  0  1  0  0  0  0  0  0
  190.8760  176.4100  139.0920 C   0  0  0  0  0  1  0  0  0  0  0  0
  189.9080  176.1880  137.9400 C   0  0  0  0  0  2  0  0  0  0  0  0
  1  3  1  1  0  0  0
  1 17  1  0  0  0  0
  1  4  1  0  0  0  0
  2  7  1  0  0  0  0
  2  5  1  0  0  0  0
  4  2  1  0  0  0  0
  5 12  1  0  0  0  0
  6 21  1  0  0  0  0
  7 18  1  0  0  0  0
  8 21  2  0  0  0  0
  9  8  1  0  0  0  0
 10 19  1  0  0  0  0
 10  5  1  0  0  0  0
 10 16  1  0  0  0  0
 11  4  1  0  0  0  0
 11 13  1  0  0  0  0
 12  9  1  0  0  0  0
 13 19  1  0  0  0  0
 14 11  1  0  0  0  0
 15  7  1  0  0  0  0
 17 15  1  0  0  0  0
 18 22  1  0  0  0  0
 18  9  2  0  0  0  0
 19  5  1  0  0  0  0
 20  3  1  0  0  0  0
 20 14  1  0  0  0  0
 22  6  2  0  0  0  0
 23 29  1  0  0  0  0
 23 27  1  0  0  0  0
 24 23  1  0  0  0  0
 25 28  1  0  0  0  0
 26 17  1  0  0  0  0
 26 28  1  0  0  0  0
 27 25  1  0  0  0  0
 29 26  1  0  0  0  0
 30 29  1  0  0  0  0
 32 27  1  0  0  0  0
 32 31  1  0  0  0  0
M  END
>  <MODEL>
1

>  <REMARK>
 VINA RESULT:      -8.2      0.000      0.000
  Name = 
  2 active torsions:
  status: ('A' for Active; 'I' for Inactive)
    1  A    between atoms: C_16  and  C_27
    2  A    between atoms: C_19  and  C_26
                            x       y       z     vdW  Elec       q    Type
                         _______ _______ _______ _____ _____    ______ ____

>  <TORSDO>
F 2

$$$$
=
 OpenBabel11052414283D

 32 38  0  0  1  0  0  0  0  0999 V2000
  182.4450  177.9880  137.9710 C   0  0  2  0  0  3  0  0  0  0  0  0
  182.0530  177.5100  140.5410 C   0  0  2  0  0  3  0  0  0  0  0  0
  181.6680  179.1380  137.3520 C   0  0  0  0  0  2  0  0  0  0  0  0
  181.6600  177.2320  139.0790 C   0  0  1  0  0  3  0  0  0  0  0  0
  181.0940  178.4430  141.2710 C   0  0  2  0  0  0  0  0  0  0  0  0
  185.4010  178.6690  143.9760 C   0  0  0  0  0  3  0  0  0  0  0  0
  183.5190  177.8910  140.7700 C   0  0  1  0  0  3  0  0  0  0  0  0
  183.0570  179.1420  144.3560 C   0  0  0  0  0  3  0  0  0  0  0  0
  182.7580  178.7480  143.0490 C   0  0  0  0  0  0  0  0  0  0  0  0
  180.2410  179.4410  140.4980 C   0  0  2  0  0  3  0  0  0  0  0  0
  180.1190  177.1630  138.8850 C   0  0  1  0  0  3  0  0  0  0  0  0
  181.4290  178.7770  142.6130 O   0  0  0  0  0  0  0  0  0  0  0  0
  179.4080  177.0690  140.1140 O   0  0  0  0  0  0  0  0  0  0  0  0
  179.4690  178.2030  137.9560 C   0  0  0  0  0  2  0  0  0  0  0  0
  183.9600  178.9680  139.7920 C   0  0  0  0  0  2  0  0  0  0  0  0
  179.7970  180.6110  141.3600 C   0  0  0  0  0  1  0  0  0  0  0  0
  183.8550  178.4540  138.3580 C   0  0  1  0  0  3  0  0  0  0  0  0
  183.7940  178.3080  142.1930 C   0  0  0  0  0  0  0  0  0  0  0  0
  179.6200  178.1410  141.0500 C   0  0  1  0  0  3  0  0  0  0  0  0
  180.3660  178.5980  136.7980 C   0  0  0  0  0  2  0  0  0  0  0  0
  184.3740  179.1040  144.8190 C   0  0  0  0  0  3  0  0  0  0  0  0
  185.1110  178.2730  142.6680 C   0  0  0  0  0  3  0  0  0  0  0  0
  185.7660  175.4790  136.6550 C   0  0  2  0  0  3  0  0  0  0  0  0
  185.3060  174.3410  137.3180 O   0  0  0  0  0  1  0  0  0  0  0  0
  187.3990  177.3880  137.1360 C   0  0  0  0  0  2  0  0  0  0  0  0
  184.9810  177.4850  137.9760 C   0  0  2  0  0  3  0  0  0  0  0  0
  187.1450  175.8800  137.2180 C   0  0  2  0  0  3  0  0  0  0  0  0
  186.3480  178.1840  137.9190 C   0  0  0  0  0  2  0  0  0  0  0  0
  184.7140  176.5910  136.7520 C   0  0  1  0  0  3  0  0  0  0  0  0
  184.7290  177.3410  135.5740 O   0  0  0  0  0  1  0  0  0  0  0  0
  188.0540  174.8940  135.0710 C   0  0  0  0  0  1  0  0  0  0  0  0
  188.2720  175.0840  136.5650 C   0  0  0  0  0  2  0  0  0  0  0  0
  1  3  1  1  0  0  0
  1 17  1  0  0  0  0
  1  4  1  0  0  0  0
  2  7  1  0  0  0  0
  2  5  1  0  0  0  0
  4  2  1  0  0  0  0
  5 12  1  0  0  0  0
  6 21  1  0  0  0  0
  7 18  1  0  0  0  0
  8 21  2  0  0  0  0
  9  8  1  0  0  0  0
 10 19  1  0  0  0  0
 10  5  1  0  0  0  0
 10 16  1  0  0  0  0
 11  4  1  0  0  0  0
 11 13  1  0  0  0  0
 12  9  1  0  0  0  0
 13 19  1  0  0  0  0
 14 11  1  0  0  0  0
 15  7  1  0  0  0  0
 17 15  1  0  0  0  0
 18 22  1  0  0  0  0
 18  9  2  0  0  0  0
 19  5  1  0  0  0  0
 20  3  1  0  0  0  0
 20 14  1  0  0  0  0
 22  6  2  0  0  0  0
 23 29  1  0  0  0  0
 23 27  1  0  0  0  0
 23 24  1  0  0  0  0
 25 27  1  0  0  0  0
 25 28  1  0  0  0  0
 26 17  1  0  0  0  0
 28 26  1  0  0  0  0
 29 26  1  0  0  0  0
 30 29  1  0  0  0  0
 31 32  1  0  0  0  0
 32 27  1  0  0  0  0
M  END
>  <MODEL>
2

>  <REMARK>
 VINA RESULT:      -7.8      1.437      1.715
  Name = 
  2 active torsions:
  status: ('A' for Active; 'I' for Inactive)
    1  A    between atoms: C_16  and  C_27
    2  A    between atoms: C_19  and  C_26
                            x       y       z     vdW  Elec       q    Type
                         _______ _______ _______ _____ _____    ______ ____

>  <TORSDO>
F 2

$$$$
=
 OpenBabel11052414283D

 32 38  0  0  1  0  0  0  0  0999 V2000
  190.1950  176.4520  143.3710 C   0  0  2  0  0  3  0  0  0  0  0  0
  188.8160  178.1270  144.8800 C   0  0  2  0  0  3  0  0  0  0  0  0
  190.6730  175.1640  144.0210 C   0  0  0  0  0  2  0  0  0  0  0  0
  190.1810  177.6680  144.3380 C   0  0  1  0  0  3  0  0  0  0  0  0
  188.5430  177.6890  146.3150 C   0  0  2  0  0  0  0  0  0  0  0  0
  183.9400  178.7090  144.3940 C   0  0  0  0  0  3  0  0  0  0  0  0
  187.6200  177.8730  143.9580 C   0  0  1  0  0  3  0  0  0  0  0  0
  184.9290  178.5330  146.5970 C   0  0  0  0  0  3  0  0  0  0  0  0
  186.1710  178.2480  146.0250 C   0  0  0  0  0  0  0  0  0  0  0  0
  189.2310  176.4600  146.8960 C   0  0  2  0  0  3  0  0  0  0  0  0
  191.2830  177.6690  145.4350 C   0  0  1  0  0  3  0  0  0  0  0  0
  187.2760  178.0420  146.8580 O   0  0  0  0  0  0  0  0  0  0  0  0
  190.8930  178.3650  146.6130 O   0  0  0  0  0  0  0  0  0  0  0  0
  191.9410  176.3230  145.7860 C   0  0  0  0  0  2  0  0  0  0  0  0
  187.6330  176.4470  143.4330 C   0  0  0  0  0  2  0  0  0  0  0  0
  188.4630  175.8670  148.0650 C   0  0  0  0  0  1  0  0  0  0  0  0
  188.8900  176.2010  142.6030 C   0  0  1  0  0  3  0  0  0  0  0  0
  186.3010  178.1940  144.6170 C   0  0  0  0  0  0  0  0  0  0  0  0
  189.7100  177.8780  147.2710 C   0  0  1  0  0  3  0  0  0  0  0  0
  192.0550  175.3960  144.5920 C   0  0  0  0  0  2  0  0  0  0  0  0
  183.8150  178.7620  145.7850 C   0  0  0  0  0  3  0  0  0  0  0  0
  185.1790  178.4260  143.8130 C   0  0  0  0  0  3  0  0  0  0  0  0
  187.9270  178.6280  139.6720 C   0  0  2  0  0  3  0  0  0  0  0  0
  186.6300  178.2530  139.3190 O   0  0  0  0  0  1  0  0  0  0  0  0
  190.2940  177.7320  139.3050 C   0  0  0  0  0  2  0  0  0  0  0  0
  188.8320  176.8370  141.2070 C   0  0  2  0  0  3  0  0  0  0  0  0
  188.9290  178.0170  138.6710 C   0  0  2  0  0  3  0  0  0  0  0  0
  190.1820  176.7530  140.4800 C   0  0  0  0  0  2  0  0  0  0  0  0
  188.1950  178.2360  141.1310 C   0  0  1  0  0  3  0  0  0  0  0  0
  189.0250  179.1940  141.7180 O   0  0  0  0  0  1  0  0  0  0  0  0
  189.0550  178.0350  136.1430 C   0  0  0  0  0  1  0  0  0  0  0  0
  189.0600  178.8720  137.4150 C   0  0  0  0  0  2  0  0  0  0  0  0
  1  3  1  1  0  0  0
  1  4  1  0  0  0  0
  2  5  1  0  0  0  0
  3 20  1  0  0  0  0
  4  2  1  0  0  0  0
  4 11  1  0  0  0  0
  5 12  1  0  0  0  0
  5 10  1  0  0  0  0
  5 19  1  0  0  0  0
  6 21  1  0  0  0  0
  7 18  1  0  0  0  0
  7  2  1  0  0  0  0
  9  8  1  0  0  0  0
  9 12  1  0  0  0  0
 10 19  1  0  0  0  0
 10 16  1  0  0  0  0
 11 14  1  0  0  0  0
 11 13  1  0  0  0  0
 13 19  1  0  0  0  0
 15  7  1  0  0  0  0
 17  1  1  0  0  0  0
 17 15  1  0  0  0  0
 18  9  2  0  0  0  0
 20 14  1  0  0  0  0
 21  8  2  0  0  0  0
 22  6  2  0  0  0  0
 22 18  1  0  0  0  0
 23 29  1  0  0  0  0
 24 23  1  0  0  0  0
 25 28  1  0  0  0  0
 26 17  1  0  0  0  0
 27 25  1  0  0  0  0
 27 23  1  0  0  0  0
 28 26  1  0  0  0  0
 29 26  1  0  0  0  0
 29 30  1  0  0  0  0
 31 32  1  0  0  0  0
 32 27  1  0  0  0  0
M  END
>  <MODEL>
3

>  <REMARK>
 VINA RESULT:      -7.6      4.050      7.423
  Name = 
  2 active torsions:
  status: ('A' for Active; 'I' for Inactive)
    1  A    between atoms: C_16  and  C_27
    2  A    between atoms: C_19  and  C_26
                            x       y       z     vdW  Elec       q    Type
                         _______ _______ _______ _____ _____    ______ ____

>  <TORSDO>
F 2

$$$$
=
 OpenBabel11052414283D

 32 38  0  0  1  0  0  0  0  0999 V2000
  191.2200  177.1330  140.7480 C   0  0  2  0  0  3  0  0  0  0  0  0
  188.8210  176.6970  139.7290 C   0  0  2  0  0  3  0  0  0  0  0  0
  192.2190  177.8780  139.8780 C   0  0  0  0  0  2  0  0  0  0  0  0
  190.2640  176.2080  139.9450 C   0  0  1  0  0  3  0  0  0  0  0  0
  188.5590  177.2520  138.3340 C   0  0  2  0  0  0  0  0  0  0  0  0
  184.8360  179.2060  141.2050 C   0  0  0  0  0  3  0  0  0  0  0  0
  188.2590  177.6030  140.8290 C   0  0  1  0  0  3  0  0  0  0  0  0
  185.2150  178.8050  138.8470 C   0  0  0  0  0  3  0  0  0  0  0  0
  186.4660  178.2530  139.1350 C   0  0  0  0  0  0  0  0  0  0  0  0
  189.6980  177.8200  137.4970 C   0  0  2  0  0  3  0  0  0  0  0  0
  190.8670  175.5660  138.6640 C   0  0  1  0  0  3  0  0  0  0  0  0
  187.2540  177.7650  138.0870 O   0  0  0  0  0  0  0  0  0  0  0  0
  189.8890  175.2900  137.6680 O   0  0  0  0  0  0  0  0  0  0  0  0
  192.1050  176.2380  138.0430 C   0  0  0  0  0  2  0  0  0  0  0  0
  189.2430  178.7060  141.1790 C   0  0  0  0  0  2  0  0  0  0  0  0
  189.2090  178.7940  136.4380 C   0  0  0  0  0  1  0  0  0  0  0  0
  190.5390  178.1070  141.7190 C   0  0  1  0  0  3  0  0  0  0  0  0
  186.9090  178.1750  140.4760 C   0  0  0  0  0  0  0  0  0  0  0  0
  189.1300  176.4180  137.1990 C   0  0  1  0  0  3  0  0  0  0  0  0
  193.0150  176.8660  139.0820 C   0  0  0  0  0  2  0  0  0  0  0  0
  184.4020  179.2810  139.8780 C   0  0  0  0  0  3  0  0  0  0  0  0
  186.0850  178.6540  141.5020 C   0  0  0  0  0  3  0  0  0  0  0  0
  191.5320  176.9370  145.3320 C   0  0  2  0  0  3  0  0  0  0  0  0
  192.0550  175.6560  145.1540 O   0  0  0  0  0  1  0  0  0  0  0  0
  189.2130  178.0150  145.3830 C   0  0  0  0  0  2  0  0  0  0  0  0
  190.4190  177.5990  143.1620 C   0  0  2  0  0  3  0  0  0  0  0  0
  190.0760  176.8320  145.8320 C   0  0  2  0  0  3  0  0  0  0  0  0
  189.1540  178.1270  143.8550 C   0  0  0  0  0  2  0  0  0  0  0  0
  191.6800  177.7380  144.0320 C   0  0  1  0  0  3  0  0  0  0  0  0
  191.9260  179.0770  144.3440 O   0  0  0  0  0  1  0  0  0  0  0  0
  189.0350  177.5850  148.0120 C   0  0  0  0  0  1  0  0  0  0  0  0
  190.0150  176.6320  147.3430 C   0  0  0  0  0  2  0  0  0  0  0  0
  1  3  1  6  0  0  0
  1 17  1  0  0  0  0
  2  4  1  0  0  0  0
  2  7  1  0  0  0  0
  4  1  1  0  0  0  0
  5  2  1  0  0  0  0
  6 22  1  0  0  0  0
  7 15  1  0  0  0  0
  8  9  2  0  0  0  0
  8 21  1  0  0  0  0
  9 18  1  0  0  0  0
 10  5  1  0  0  0  0
 11  4  1  0  0  0  0
 12  5  1  0  0  0  0
 12  9  1  0  0  0  0
 13 11  1  0  0  0  0
 14 11  1  0  0  0  0
 14 20  1  0  0  0  0
 15 17  1  0  0  0  0
 16 10  1  0  0  0  0
 17 26  1  0  0  0  0
 18  7  1  0  0  0  0
 18 22  2  0  0  0  0
 19 10  1  0  0  0  0
 19 13  1  0  0  0  0
 19  5  1  0  0  0  0
 20  3  1  0  0  0  0
 21  6  2  0  0  0  0
 23 27  1  0  0  0  0
 24 23  1  0  0  0  0
 25 27  1  0  0  0  0
 26 28  1  0  0  0  0
 26 29  1  0  0  0  0
 27 32  1  0  0  0  0
 28 25  1  0  0  0  0
 29 30  1  0  0  0  0
 29 23  1  0  0  0  0
 32 31  1  0  0  0  0
M  END
>  <MODEL>
4

>  <REMARK>
 VINA RESULT:      -7.3      3.714      7.926
  Name = 
  2 active torsions:
  status: ('A' for Active; 'I' for Inactive)
    1  A    between atoms: C_16  and  C_27
    2  A    between atoms: C_19  and  C_26
                            x       y       z     vdW  Elec       q    Type
                         _______ _______ _______ _____ _____    ______ ____

>  <TORSDO>
F 2

$$$$
=
 OpenBabel11052414283D

 32 38  0  0  1  0  0  0  0  0999 V2000
  186.3680  178.3340  142.4640 C   0  0  2  0  0  3  0  0  0  0  0  0
  188.5960  176.9230  142.2930 C   0  0  2  0  0  3  0  0  0  0  0  0
  186.3770  179.5370  143.3920 C   0  0  0  0  0  2  0  0  0  0  0  0
  187.2340  177.1490  142.9730 C   0  0  1  0  0  3  0  0  0  0  0  0
  189.7840  177.4190  143.1100 C   0  0  2  0  0  0  0  0  0  0  0  0
  191.5480  177.1280  138.3440 C   0  0  0  0  0  3  0  0  0  0  0  0
  188.6810  177.3550  140.8260 C   0  0  1  0  0  3  0  0  0  0  0  0
  192.4950  177.1720  140.5710 C   0  0  0  0  0  3  0  0  0  0  0  0
  191.2130  177.2450  141.1220 C   0  0  0  0  0  0  0  0  0  0  0  0
  189.6100  178.5290  144.1400 C   0  0  2  0  0  3  0  0  0  0  0  0
  187.3110  176.9860  144.5170 C   0  0  1  0  0  3  0  0  0  0  0  0
  191.0690  177.2830  142.5140 O   0  0  0  0  0  0  0  0  0  0  0  0
  188.5220  176.3780  144.9520 O   0  0  0  0  0  0  0  0  0  0  0  0
  186.9740  178.2130  145.3820 C   0  0  0  0  0  2  0  0  0  0  0  0
  188.1160  178.7520  140.6370 C   0  0  0  0  0  2  0  0  0  0  0  0
  190.9120  179.2540  144.4340 C   0  0  0  0  0  1  0  0  0  0  0  0
  186.6390  178.7810  141.0210 C   0  0  1  0  0  3  0  0  0  0  0  0
  190.0820  177.2590  140.2740 C   0  0  0  0  0  0  0  0  0  0  0  0
  189.7360  177.0580  144.5860 C   0  0  1  0  0  3  0  0  0  0  0  0
  185.9070  179.0930  144.7620 C   0  0  0  0  0  2  0  0  0  0  0  0
  192.6630  177.1150  139.1860 C   0  0  0  0  0  3  0  0  0  0  0  0
  190.2620  177.2000  138.8860 C   0  0  0  0  0  3  0  0  0  0  0  0
  183.4010  177.7730  139.0450 C   0  0  2  0  0  3  0  0  0  0  0  0
  182.7870  176.8100  139.8460 O   0  0  0  0  0  1  0  0  0  0  0  0
  185.3900  177.8770  137.4410 C   0  0  0  0  0  2  0  0  0  0  0  0
  185.7240  178.1440  139.9660 C   0  0  2  0  0  3  0  0  0  0  0  0
  184.1660  177.0790  137.9000 C   0  0  2  0  0  3  0  0  0  0  0  0
  186.3910  178.0880  138.5840 C   0  0  0  0  0  2  0  0  0  0  0  0
  184.2820  178.6790  139.9150 C   0  0  1  0  0  3  0  0  0  0  0  0
  184.2500  179.9790  139.4040 O   0  0  0  0  0  1  0  0  0  0  0  0
  182.2720  177.8720  136.4190 C   0  0  0  0  0  1  0  0  0  0  0  0
  183.2440  176.7430  136.7320 C   0  0  0  0  0  2  0  0  0  0  0  0
  1  4  1  0  0  0  0
  1  3  1  1  0  0  0
  2  4  1  0  0  0  0
  2  5  1  0  0  0  0
  3 20  1  0  0  0  0
  4 11  1  0  0  0  0
  5 10  1  0  0  0  0
  5 19  1  0  0  0  0
  6 22  2  0  0  0  0
  6 21  1  0  0  0  0
  7  2  1  0  0  0  0
  8  9  1  0  0  0  0
  9 12  1  0  0  0  0
 10 16  1  0  0  0  0
 10 19  1  0  0  0  0
 11 13  1  0  0  0  0
 11 14  1  0  0  0  0
 12  5  1  0  0  0  0
 15  7  1  0  0  0  0
 15 17  1  0  0  0  0
 17  1  1  0  0  0  0
 18  7  1  0  0  0  0
 18  9  2  0  0  0  0
 19 13  1  0  0  0  0
 20 14  1  0  0  0  0
 21  8  2  0  0  0  0
 22 18  1  0  0  0  0
 23 24  1  0  0  0  0
 23 29  1  0  0  0  0
 25 27  1  0  0  0  0
 25 28  1  0  0  0  0
 26 17  1  0  0  0  0
 27 23  1  0  0  0  0
 28 26  1  0  0  0  0
 29 26  1  0  0  0  0
 30 29  1  0  0  0  0
 31 32  1  0  0  0  0
 32 27  1  0  0  0  0
M  END
>  <MODEL>
5

>  <REMARK>
 VINA RESULT:      -7.1      2.957      7.334
  Name = 
  2 active torsions:
  status: ('A' for Active; 'I' for Inactive)
    1  A    between atoms: C_16  and  C_27
    2  A    between atoms: C_19  and  C_26
                            x       y       z     vdW  Elec       q    Type
                         _______ _______ _______ _____ _____    ______ ____

>  <TORSDO>
F 2

$$$$
=
 OpenBabel11052414283D

 32 38  0  0  1  0  0  0  0  0999 V2000
  185.8770  177.2280  137.1450 C   0  0  2  0  0  3  0  0  0  0  0  0
  183.6970  176.5740  138.4880 C   0  0  2  0  0  3  0  0  0  0  0  0
  185.6870  177.9380  135.8150 C   0  0  0  0  0  2  0  0  0  0  0  0
  184.7700  176.1840  137.4560 C   0  0  1  0  0  3  0  0  0  0  0  0
  182.3640  176.9820  137.8690 C   0  0  2  0  0  0  0  0  0  0  0  0
  182.2730  179.0030  142.5410 C   0  0  0  0  0  3  0  0  0  0  0  0
  184.1530  177.5500  139.5780 C   0  0  1  0  0  3  0  0  0  0  0  0
  180.6470  178.4020  140.8510 C   0  0  0  0  0  3  0  0  0  0  0  0
  181.6710  177.9440  140.0180 C   0  0  0  0  0  0  0  0  0  0  0  0
  182.3020  177.5260  136.4480 C   0  0  2  0  0  3  0  0  0  0  0  0
  184.1650  175.4550  136.2230 C   0  0  1  0  0  3  0  0  0  0  0  0
  181.3460  177.4010  138.7700 O   0  0  0  0  0  0  0  0  0  0  0  0
  182.8210  175.0360  136.4300 O   0  0  0  0  0  0  0  0  0  0  0  0
  184.3220  176.1280  134.8480 C   0  0  0  0  0  2  0  0  0  0  0  0
  184.8950  178.7310  138.9730 C   0  0  0  0  0  2  0  0  0  0  0  0
  181.0610  178.3690  136.2050 C   0  0  0  0  0  1  0  0  0  0  0  0
  186.1520  178.2530  138.2530 C   0  0  1  0  0  3  0  0  0  0  0  0
  183.0160  178.0160  140.4520 C   0  0  0  0  0  0  0  0  0  0  0  0
  181.8780  176.0740  136.7510 C   0  0  1  0  0  3  0  0  0  0  0  0
  185.6230  176.8980  134.7170 C   0  0  0  0  0  2  0  0  0  0  0  0
  180.9460  178.9310  142.1090 C   0  0  0  0  0  3  0  0  0  0  0  0
  183.3040  178.5470  141.7150 C   0  0  0  0  0  3  0  0  0  0  0  0
  189.7380  177.3520  139.5710 C   0  0  2  0  0  3  0  0  0  0  0  0
  189.9450  176.0370  139.1540 O   0  0  0  0  0  1  0  0  0  0  0  0
  188.4200  178.5420  141.4110 C   0  0  0  0  0  2  0  0  0  0  0  0
  187.2940  177.8780  139.2080 C   0  0  2  0  0  3  0  0  0  0  0  0
  189.3300  177.3610  141.0580 C   0  0  2  0  0  3  0  0  0  0  0  0
  187.1230  178.5240  140.5910 C   0  0  0  0  0  2  0  0  0  0  0  0
  188.7180  178.0300  138.6470 C   0  0  1  0  0  3  0  0  0  0  0  0
  189.0550  179.3780  138.5010 O   0  0  0  0  0  1  0  0  0  0  0  0
  190.5500  176.0470  142.8440 C   0  0  0  0  0  1  0  0  0  0  0  0
  190.5470  177.2970  141.9750 C   0  0  0  0  0  2  0  0  0  0  0  0
  1  3  1  6  0  0  0
  1  4  1  0  0  0  0
  1 17  1  0  0  0  0
  2  7  1  0  0  0  0
  4  2  1  0  0  0  0
  5  2  1  0  0  0  0
  5 12  1  0  0  0  0
  7 18  1  0  0  0  0
  8 21  2  0  0  0  0
  9 18  2  0  0  0  0
  9  8  1  0  0  0  0
 10 19  1  0  0  0  0
 10  5  1  0  0  0  0
 11 13  1  0  0  0  0
 11  4  1  0  0  0  0
 12  9  1  0  0  0  0
 13 19  1  0  0  0  0
 14 11  1  0  0  0  0
 15  7  1  0  0  0  0
 16 10  1  0  0  0  0
 17 15  1  0  0  0  0
 17 26  1  0  0  0  0
 18 22  1  0  0  0  0
 19  5  1  0  0  0  0
 20 14  1  0  0  0  0
 20  3  1  0  0  0  0
 21  6  1  0  0  0  0
 22  6  2  0  0  0  0
 23 27  1  0  0  0  0
 24 23  1  0  0  0  0
 26 28  1  0  0  0  0
 27 25  1  0  0  0  0
 27 32  1  0  0  0  0
 28 25  1  0  0  0  0
 29 26  1  0  0  0  0
 29 23  1  0  0  0  0
 30 29  1  0  0  0  0
 32 31  1  0  0  0  0
M  END
>  <MODEL>
6

>  <REMARK>
 VINA RESULT:      -6.7      2.142      3.591
  Name = 
  2 active torsions:
  status: ('A' for Active; 'I' for Inactive)
    1  A    between atoms: C_16  and  C_27
    2  A    between atoms: C_19  and  C_26
                            x       y       z     vdW  Elec       q    Type
                         _______ _______ _______ _____ _____    ______ ____

>  <TORSDO>
F 2

$$$$
=
 OpenBabel11052414283D

 32 38  0  0  1  0  0  0  0  0999 V2000
  186.7390  178.4540  142.1740 C   0  0  2  0  0  3  0  0  0  0  0  0
  187.3040  177.0540  144.3430 C   0  0  2  0  0  3  0  0  0  0  0  0
  186.1530  179.8410  142.3760 C   0  0  0  0  0  2  0  0  0  0  0  0
  186.2880  177.4260  143.2490 C   0  0  1  0  0  3  0  0  0  0  0  0
  187.0450  177.7340  145.6830 C   0  0  2  0  0  0  0  0  0  0  0  0
  191.9370  176.3390  145.8850 C   0  0  0  0  0  3  0  0  0  0  0  0
  188.7770  177.1280  143.9300 C   0  0  1  0  0  3  0  0  0  0  0  0
  190.2020  176.9100  147.4740 C   0  0  0  0  0  3  0  0  0  0  0  0
  189.2970  177.1050  146.4270 C   0  0  0  0  0  0  0  0  0  0  0  0
  186.2870  179.0540  145.7500 C   0  0  2  0  0  3  0  0  0  0  0  0
  184.8560  177.6310  143.8170 C   0  0  1  0  0  3  0  0  0  0  0  0
  187.9790  177.4680  146.7230 O   0  0  0  0  0  0  0  0  0  0  0  0
  184.7130  177.1490  145.1490 O   0  0  0  0  0  0  0  0  0  0  0  0
  184.2220  179.0250  143.6700 C   0  0  0  0  0  2  0  0  0  0  0  0
  189.0770  178.4400  143.2230 C   0  0  0  0  0  2  0  0  0  0  0  0
  186.5970  179.8350  147.0160 C   0  0  0  0  0  1  0  0  0  0  0  0
  188.2530  178.5500  141.9430 C   0  0  1  0  0  3  0  0  0  0  0  0
  189.7160  176.9130  145.0900 C   0  0  0  0  0  0  0  0  0  0  0  0
  185.5920  177.7300  146.1280 C   0  0  1  0  0  3  0  0  0  0  0  0
  184.6430  179.7300  142.3950 C   0  0  0  0  0  2  0  0  0  0  0  0
  191.5190  176.5300  147.2050 C   0  0  0  0  0  3  0  0  0  0  0  0
  191.0380  176.5300  144.8320 C   0  0  0  0  0  3  0  0  0  0  0  0
  188.7390  177.0300  138.3570 C   0  0  2  0  0  3  0  0  0  0  0  0
  187.6220  176.2150  138.1680 O   0  0  0  0  0  1  0  0  0  0  0  0
  190.9420  176.9070  139.6490 C   0  0  0  0  0  2  0  0  0  0  0  0
  188.7870  177.6790  140.7980 C   0  0  2  0  0  3  0  0  0  0  0  0
  189.9490  176.1600  138.7550 C   0  0  2  0  0  3  0  0  0  0  0  0
  190.2870  177.3830  140.9520 C   0  0  0  0  0  2  0  0  0  0  0  0
  188.4070  178.1270  139.3770 C   0  0  1  0  0  3  0  0  0  0  0  0
  189.0820  179.2990  139.0260 O   0  0  0  0  0  1  0  0  0  0  0  0
  190.2530  174.1040  137.3100 C   0  0  0  0  0  1  0  0  0  0  0  0
  190.6350  175.5600  137.5310 C   0  0  0  0  0  2  0  0  0  0  0  0
  1  3  1  1  0  0  0
  1  4  1  0  0  0  0
  2  5  1  0  0  0  0
  3 20  1  0  0  0  0
  4 11  1  0  0  0  0
  4  2  1  0  0  0  0
  5 10  1  0  0  0  0
  5 19  1  0  0  0  0
  5 12  1  0  0  0  0
  6 21  1  0  0  0  0
  7  2  1  0  0  0  0
  7 18  1  0  0  0  0
  9 12  1  0  0  0  0
  9  8  1  0  0  0  0
 10 19  1  0  0  0  0
 10 16  1  0  0  0  0
 11 13  1  0  0  0  0
 13 19  1  0  0  0  0
 14 11  1  0  0  0  0
 15  7  1  0  0  0  0
 17  1  1  0  0  0  0
 17 15  1  0  0  0  0
 18  9  2  0  0  0  0
 20 14  1  0  0  0  0
 21  8  2  0  0  0  0
 22 18  1  0  0  0  0
 22  6  2  0  0  0  0
 23 27  1  0  0  0  0
 23 29  1  0  0  0  0
 24 23  1  0  0  0  0
 25 28  1  0  0  0  0
 26 28  1  0  0  0  0
 26 17  1  0  0  0  0
 27 25  1  0  0  0  0
 29 26  1  0  0  0  0
 30 29  1  0  0  0  0
 31 32  1  0  0  0  0
 32 27  1  0  0  0  0
M  END
>  <MODEL>
7

>  <REMARK>
 VINA RESULT:      -6.6      3.531      5.702
  Name = 
  2 active torsions:
  status: ('A' for Active; 'I' for Inactive)
    1  A    between atoms: C_16  and  C_27
    2  A    between atoms: C_19  and  C_26
                            x       y       z     vdW  Elec       q    Type
                         _______ _______ _______ _____ _____    ______ ____

>  <TORSDO>
F 2

$$$$
=
 OpenBabel11052414283D

 32 38  0  0  1  0  0  0  0  0999 V2000
  185.1300  177.8380  139.5920 C   0  0  2  0  0  3  0  0  0  0  0  0
  182.5510  177.4320  140.0030 C   0  0  2  0  0  3  0  0  0  0  0  0
  185.5210  178.6060  138.3410 C   0  0  0  0  0  2  0  0  0  0  0  0
  183.8780  176.9370  139.4020 C   0  0  1  0  0  3  0  0  0  0  0  0
  181.5930  178.0270  138.9760 C   0  0  2  0  0  0  0  0  0  0  0  0
  180.0090  179.9020  143.4370 C   0  0  0  0  0  3  0  0  0  0  0  0
  182.6770  178.3070  141.2540 C   0  0  1  0  0  3  0  0  0  0  0  0
  179.0640  179.5680  141.2330 C   0  0  0  0  0  3  0  0  0  0  0  0
  180.2670  179.0070  140.7950 C   0  0  0  0  0  0  0  0  0  0  0  0
  182.1180  178.6180  137.6740 C   0  0  2  0  0  3  0  0  0  0  0  0
  183.6940  176.3310  137.9820 C   0  0  1  0  0  3  0  0  0  0  0  0
  180.3670  178.5480  139.4770 O   0  0  0  0  0  0  0  0  0  0  0  0
  182.3310  176.0830  137.6570 O   0  0  0  0  0  0  0  0  0  0  0  0
  184.4200  177.0180  136.8130 C   0  0  0  0  0  2  0  0  0  0  0  0
  183.7140  179.4000  141.0500 C   0  0  0  0  0  2  0  0  0  0  0  0
  181.1550  179.6210  137.0630 C   0  0  0  0  0  1  0  0  0  0  0  0
  185.0880  178.7840  140.8000 C   0  0  1  0  0  3  0  0  0  0  0  0
  181.3560  178.8900  141.6900 C   0  0  0  0  0  0  0  0  0  0  0  0
  181.4560  177.2250  137.6930 C   0  0  1  0  0  3  0  0  0  0  0  0
  185.7530  177.6160  137.2190 C   0  0  0  0  0  2  0  0  0  0  0  0
  178.9350  180.0150  142.5500 C   0  0  0  0  0  3  0  0  0  0  0  0
  181.2150  179.3420  143.0080 C   0  0  0  0  0  3  0  0  0  0  0  0
  187.7970  177.3230  143.2340 C   0  0  2  0  0  3  0  0  0  0  0  0
  187.9310  175.9890  142.8490 O   0  0  0  0  0  1  0  0  0  0  0  0
  186.1170  178.7250  144.5590 C   0  0  0  0  0  2  0  0  0  0  0  0
  185.7490  178.2360  142.0710 C   0  0  2  0  0  3  0  0  0  0  0  0
  186.9000  177.4090  144.4850 C   0  0  2  0  0  3  0  0  0  0  0  0
  185.2060  178.9120  143.3390 C   0  0  0  0  0  2  0  0  0  0  0  0
  187.2850  178.1510  142.0490 C   0  0  1  0  0  3  0  0  0  0  0  0
  187.8560  179.4250  142.0970 O   0  0  0  0  0  1  0  0  0  0  0  0
  189.0900  177.7530  145.7070 C   0  0  0  0  0  1  0  0  0  0  0  0
  187.6920  177.1550  145.7640 C   0  0  0  0  0  2  0  0  0  0  0  0
  1  3  1  6  0  0  0
  1 17  1  0  0  0  0
  2  7  1  0  0  0  0
  4  1  1  0  0  0  0
  4  2  1  0  0  0  0
  5 12  1  0  0  0  0
  5  2  1  0  0  0  0
  7 18  1  0  0  0  0
  8 21  1  0  0  0  0
  9  8  2  0  0  0  0
  9 18  1  0  0  0  0
 10 19  1  0  0  0  0
 10  5  1  0  0  0  0
 11  4  1  0  0  0  0
 12  9  1  0  0  0  0
 13 19  1  0  0  0  0
 13 11  1  0  0  0  0
 14 20  1  0  0  0  0
 14 11  1  0  0  0  0
 15  7  1  0  0  0  0
 16 10  1  0  0  0  0
 17 15  1  0  0  0  0
 17 26  1  0  0  0  0
 18 22  2  0  0  0  0
 19  5  1  0  0  0  0
 20  3  1  0  0  0  0
 21  6  2  0  0  0  0
 22  6  1  0  0  0  0
 23 27  1  0  0  0  0
 24 23  1  0  0  0  0
 26 28  1  0  0  0  0
 27 25  1  0  0  0  0
 27 32  1  0  0  0  0
 28 25  1  0  0  0  0
 29 26  1  0  0  0  0
 29 30  1  0  0  0  0
 29 23  1  0  0  0  0
 31 32  1  0  0  0  0
M  END
>  <MODEL>
8

>  <REMARK>
 VINA RESULT:      -6.5      2.326      4.437
  Name = 
  2 active torsions:
  status: ('A' for Active; 'I' for Inactive)
    1  A    between atoms: C_16  and  C_27
    2  A    between atoms: C_19  and  C_26
                            x       y       z     vdW  Elec       q    Type
                         _______ _______ _______ _____ _____    ______ ____

>  <TORSDO>
F 2

$$$$
=
 OpenBabel11052414283D

 32 38  0  0  1  0  0  0  0  0999 V2000
  191.5550  176.3930  139.3150 C   0  0  2  0  0  3  0  0  0  0  0  0
  189.3160  175.7720  138.0580 C   0  0  2  0  0  3  0  0  0  0  0  0
  192.6580  177.0370  138.4920 C   0  0  0  0  0  2  0  0  0  0  0  0
  190.7190  175.3490  138.5250 C   0  0  1  0  0  3  0  0  0  0  0  0
  189.2400  176.1310  136.5780 C   0  0  2  0  0  0  0  0  0  0  0  0
  185.1590  178.3670  138.6430 C   0  0  0  0  0  3  0  0  0  0  0  0
  188.6080  176.8040  138.9420 C   0  0  1  0  0  3  0  0  0  0  0  0
  185.8510  177.6640  136.4320 C   0  0  0  0  0  3  0  0  0  0  0  0
  187.0550  177.1830  136.9540 C   0  0  0  0  0  0  0  0  0  0  0  0
  190.4790  176.6070  135.8290 C   0  0  2  0  0  3  0  0  0  0  0  0
  191.4910  174.5550  137.4340 C   0  0  1  0  0  3  0  0  0  0  0  0
  187.9780  176.5770  136.0950 O   0  0  0  0  0  0  0  0  0  0  0  0
  190.6550  174.1260  136.3640 O   0  0  0  0  0  0  0  0  0  0  0  0
  192.7970  175.1650  136.8970 C   0  0  0  0  0  2  0  0  0  0  0  0
  189.5330  177.9660  139.2660 C   0  0  0  0  0  2  0  0  0  0  0  0
  190.1310  177.4190  134.5940 C   0  0  0  0  0  1  0  0  0  0  0  0
  190.7470  177.4720  140.0480 C   0  0  1  0  0  3  0  0  0  0  0  0
  187.3150  177.2940  138.3400 C   0  0  0  0  0  0  0  0  0  0  0  0
  189.9600  175.1650  135.6510 C   0  0  1  0  0  3  0  0  0  0  0  0
  193.5580  175.9450  137.9510 C   0  0  0  0  0  2  0  0  0  0  0  0
  184.9060  178.2550  137.2730 C   0  0  0  0  0  3  0  0  0  0  0  0
  186.3600  177.8880  139.1740 C   0  0  0  0  0  3  0  0  0  0  0  0
  191.2630  176.6680  143.8550 C   0  0  2  0  0  3  0  0  0  0  0  0
  191.6650  175.3330  143.8790 O   0  0  0  0  0  1  0  0  0  0  0  0
  189.0750  177.9540  143.5360 C   0  0  0  0  0  2  0  0  0  0  0  0
  190.4380  177.1590  141.5180 C   0  0  2  0  0  3  0  0  0  0  0  0
  189.7640  176.7610  144.2050 C   0  0  2  0  0  3  0  0  0  0  0  0
  189.1740  177.8820  142.0070 C   0  0  0  0  0  2  0  0  0  0  0  0
  191.6180  177.2870  142.4960 C   0  0  1  0  0  3  0  0  0  0  0  0
  191.9710  178.6260  142.6790 O   0  0  0  0  0  1  0  0  0  0  0  0
  188.2730  177.5020  146.1110 C   0  0  0  0  0  1  0  0  0  0  0  0
  189.5380  176.7550  145.7140 C   0  0  0  0  0  2  0  0  0  0  0  0
  1  3  1  6  0  0  0
  1 17  1  0  0  0  0
  2  4  1  0  0  0  0
  2  7  1  0  0  0  0
  4  1  1  0  0  0  0
  5  2  1  0  0  0  0
  6 22  1  0  0  0  0
  7 15  1  0  0  0  0
  8  9  2  0  0  0  0
  8 21  1  0  0  0  0
  9 18  1  0  0  0  0
 10  5  1  0  0  0  0
 11  4  1  0  0  0  0
 12  5  1  0  0  0  0
 12  9  1  0  0  0  0
 13 11  1  0  0  0  0
 14 11  1  0  0  0  0
 14 20  1  0  0  0  0
 15 17  1  0  0  0  0
 16 10  1  0  0  0  0
 17 26  1  0  0  0  0
 18  7  1  0  0  0  0
 18 22  2  0  0  0  0
 19 10  1  0  0  0  0
 19 13  1  0  0  0  0
 19  5  1  0  0  0  0
 20  3  1  0  0  0  0
 21  6  2  0  0  0  0
 23 24  1  0  0  0  0
 23 27  1  0  0  0  0
 25 27  1  0  0  0  0
 26 28  1  0  0  0  0
 26 29  1  0  0  0  0
 27 32  1  0  0  0  0
 28 25  1  0  0  0  0
 29 30  1  0  0  0  0
 29 23  1  0  0  0  0
 32 31  1  0  0  0  0
M  END
>  <MODEL>
9

>  <REMARK>
 VINA RESULT:      -6.5      3.913      8.406
  Name = 
  2 active torsions:
  status: ('A' for Active; 'I' for Inactive)
    1  A    between atoms: C_16  and  C_27
    2  A    between atoms: C_19  and  C_26
                            x       y       z     vdW  Elec       q    Type
                         _______ _______ _______ _____ _____    ______ ____

>  <TORSDO>
F 2

$$$$
