=
 OpenBabel11052412323D

 30 32  0  0  1  0  0  0  0  0999 V2000
  188.6680  177.8480  144.2030 O   0  0  0  0  0  0  0  0  0  0  0  0
  190.8520  178.5540  144.9480 C   0  0  1  0  0  3  0  0  0  0  0  0
  187.0480  179.0090  147.4810 C   0  0  0  0  0  2  0  0  0  0  0  0
  187.2930  178.0780  144.3760 C   0  0  2  0  0  3  0  0  0  0  0  0
  185.6560  178.8790  147.6290 O   0  0  0  0  0  0  0  0  0  0  0  0
  191.5200  177.2340  145.3710 C   0  0  0  0  0  2  0  0  0  0  0  0
  191.1120  178.8190  143.6040 O   0  0  0  0  0  1  0  0  0  0  0  0
  187.5960  177.7160  146.8720 C   0  0  1  0  0  3  0  0  0  0  0  0
  190.5670  176.2110  145.5320 O   0  0  0  0  0  0  0  0  0  0  0  0
  189.3410  178.5470  145.2240 C   0  0  2  0  0  3  0  0  0  0  0  0
  186.7780  177.3200  145.6210 C   0  0  1  0  0  3  0  0  0  0  0  0
  185.1540  178.9040  146.4020 O   0  0  0  0  0  0  0  0  0  0  0  0
  185.2950  177.5970  145.9000 C   0  0  0  0  0  2  0  0  0  0  0  0
  189.8230  176.5130  146.6940 C   0  0  0  0  0  2  0  0  0  0  0  0
  189.0890  177.8650  146.5820 C   0  0  2  0  0  3  0  0  0  0  0  0
  186.5460  177.7690  143.0590 C   0  0  1  0  0  3  0  0  0  0  0  0
  185.4290  180.0260  143.4700 C   0  0  0  0  0  1  0  0  0  0  0  0
  185.4810  178.7820  142.5910 C   0  0  2  0  0  3  0  0  0  0  0  0
  183.0260  178.8730  143.1680 C   0  0  0  0  0  1  0  0  0  0  0  0
  184.1040  178.1320  142.3930 C   0  0  1  0  0  3  0  0  0  0  0  0
  183.7320  178.1570  140.9490 C   0  0  0  0  0  3  0  0  0  0  0  0
  184.6300  179.9630  139.4040 O   0  0  0  0  0  0  0  0  0  0  0  0
  184.1930  179.0860  140.1590 C   0  0  0  0  0  0  0  0  0  0  0  0
  187.4250  177.4430  142.0220 O   0  0  0  0  0  0  0  0  0  0  0  0
  187.5760  178.6280  141.2970 C   0  0  0  0  0  2  0  0  0  0  0  0
  188.6450  178.4590  140.2280 C   0  0  0  0  0  2  0  0  0  0  0  0
  189.1170  177.0140  140.1340 C   0  0  0  0  0  2  0  0  0  0  0  0
  190.4520  175.9680  141.9660 O   0  0  0  0  0  1  0  0  0  0  0  0
  190.4000  176.8200  140.8700 C   0  0  0  0  0  0  0  0  0  0  0  0
  191.4330  177.4400  140.5080 O   0  0  0  0  0  0  0  0  0  0  0  0
  1  4  1  0  0  0  0
  2  7  1  6  0  0  0
  2 10  1  0  0  0  0
  2  6  1  0  0  0  0
  3  5  1  0  0  0  0
  4 16  1  6  0  0  0
  4 11  1  0  0  0  0
  6  9  1  0  0  0  0
  8  3  1  6  0  0  0
  9 14  1  0  0  0  0
 10  1  1  6  0  0  0
 10 15  1  0  0  0  0
 11 13  1  1  0  0  0
 11  8  1  0  0  0  0
 12  5  1  0  0  0  0
 13 12  1  0  0  0  0
 15 14  1  6  0  0  0
 15  8  1  0  0  0  0
 16 24  1  6  0  0  0
 18 16  1  0  0  0  0
 18 17  1  1  0  0  0
 20 18  1  0  0  0  0
 20 19  1  1  0  0  0
 21 20  1  0  0  0  0
 22 23  2  0  0  0  0
 23 21  2  0  0  0  0
 25 24  1  0  0  0  0
 26 25  1  0  0  0  0
 27 26  1  0  0  0  0
 27 29  1  0  0  0  0
 29 28  1  0  0  0  0
 30 29  2  0  0  0  0
M  END
>  <MODEL>
1

>  <REMARK>
 VINA RESULT:      -6.8      0.000      0.000
  Name = 
  9 active torsions:
  status: ('A' for Active; 'I' for Inactive)
    1  A    between atoms: C_4  and  C_13
    2  A    between atoms: C_5  and  C_12
    3  A    between atoms: C_7  and  C_15
    4  A    between atoms: C_7  and  C_16
    5  A    between atoms: C_8  and  C_12
    6  A    between atoms: C_8  and  C_13
    7  A    between atoms: C_13  and  O_27
    8  A    between atoms: C_16  and  C_30
    9  A    between atoms: O_27  and  C_30
                            x       y       z     vdW  Elec       q    Type
                         _______ _______ _______ _____ _____    ______ ____

>  <TORSDO>
F 9

$$$$
=
 OpenBabel11052412323D

 30 32  0  0  1  0  0  0  0  0999 V2000
  188.3580  177.7320  139.3100 O   0  0  0  0  0  0  0  0  0  0  0  0
  188.3930  178.4260  136.9990 C   0  0  1  0  0  3  0  0  0  0  0  0
  192.1900  177.6120  139.4510 C   0  0  0  0  0  2  0  0  0  0  0  0
  189.1140  177.7320  140.4940 C   0  0  2  0  0  3  0  0  0  0  0  0
  192.8110  177.2790  140.6680 O   0  0  0  0  0  0  0  0  0  0  0  0
  188.0600  177.1290  136.2410 C   0  0  0  0  0  2  0  0  0  0  0  0
  187.2240  179.1250  137.2980 O   0  0  0  0  0  1  0  0  0  0  0  0
  191.0240  176.6490  139.2180 C   0  0  1  0  0  3  0  0  0  0  0  0
  188.2250  176.0000  137.0660 O   0  0  0  0  0  0  0  0  0  0  0  0
  189.2100  178.1530  138.2710 C   0  0  2  0  0  3  0  0  0  0  0  0
  190.1310  176.5680  140.4770 C   0  0  1  0  0  3  0  0  0  0  0  0
  191.9570  177.6250  141.6210 O   0  0  0  0  0  0  0  0  0  0  0  0
  191.0350  176.5650  141.7180 C   0  0  0  0  0  2  0  0  0  0  0  0
  189.6120  175.8350  137.2740 C   0  0  0  0  0  2  0  0  0  0  0  0
  190.2490  177.0570  137.9660 C   0  0  2  0  0  3  0  0  0  0  0  0
  188.1650  177.7620  141.7150 C   0  0  1  0  0  3  0  0  0  0  0  0
  187.9950  175.9250  143.4770 C   0  0  0  0  0  1  0  0  0  0  0  0
  188.7040  177.2040  143.0470 C   0  0  2  0  0  3  0  0  0  0  0  0
  187.9470  177.8270  145.3730 C   0  0  0  0  0  1  0  0  0  0  0  0
  188.7410  178.2680  144.1540 C   0  0  1  0  0  3  0  0  0  0  0  0
  190.1500  178.5060  144.5850 C   0  0  0  0  0  3  0  0  0  0  0  0
  191.4920  176.6700  145.7170 O   0  0  0  0  0  0  0  0  0  0  0  0
  190.8360  177.5620  145.1670 C   0  0  0  0  0  0  0  0  0  0  0  0
  187.5800  179.0190  141.8910 O   0  0  0  0  0  0  0  0  0  0  0  0
  186.2300  178.8290  141.5860 C   0  0  0  0  0  2  0  0  0  0  0  0
  185.3550  179.3900  142.6980 C   0  0  0  0  0  2  0  0  0  0  0  0
  184.7240  178.2790  143.5270 C   0  0  0  0  0  2  0  0  0  0  0  0
  183.8740  179.0710  145.7360 O   0  0  0  0  0  1  0  0  0  0  0  0
  183.6330  178.8100  144.3930 C   0  0  0  0  0  0  0  0  0  0  0  0
  182.4880  179.0100  143.9120 O   0  0  0  0  0  0  0  0  0  0  0  0
  1  4  1  0  0  0  0
  2  7  1  1  0  0  0
  2 10  1  0  0  0  0
  3  5  1  0  0  0  0
  4 16  1  1  0  0  0
  5 12  1  0  0  0  0
  6  2  1  0  0  0  0
  6  9  1  0  0  0  0
  8  3  1  1  0  0  0
  8 11  1  0  0  0  0
  9 14  1  0  0  0  0
 10  1  1  1  0  0  0
 11  4  1  0  0  0  0
 11 13  1  1  0  0  0
 12 13  1  0  0  0  0
 15 14  1  1  0  0  0
 15 10  1  0  0  0  0
 15  8  1  0  0  0  0
 16 24  1  1  0  0  0
 16 18  1  0  0  0  0
 18 17  1  1  0  0  0
 18 20  1  0  0  0  0
 20 21  1  0  0  0  0
 20 19  1  1  0  0  0
 21 23  2  0  0  0  0
 23 22  2  0  0  0  0
 25 24  1  0  0  0  0
 25 26  1  0  0  0  0
 26 27  1  0  0  0  0
 27 29  1  0  0  0  0
 29 28  1  0  0  0  0
 30 29  2  0  0  0  0
M  END
>  <MODEL>
2

>  <REMARK>
 VINA RESULT:      -6.7      2.208      7.253
  Name = 
  9 active torsions:
  status: ('A' for Active; 'I' for Inactive)
    1  A    between atoms: C_4  and  C_13
    2  A    between atoms: C_5  and  C_12
    3  A    between atoms: C_7  and  C_15
    4  A    between atoms: C_7  and  C_16
    5  A    between atoms: C_8  and  C_12
    6  A    between atoms: C_8  and  C_13
    7  A    between atoms: C_13  and  O_27
    8  A    between atoms: C_16  and  C_30
    9  A    between atoms: O_27  and  C_30
                            x       y       z     vdW  Elec       q    Type
                         _______ _______ _______ _____ _____    ______ ____

>  <TORSDO>
F 9

$$$$
=
 OpenBabel11052412323D

 30 32  0  0  1  0  0  0  0  0999 V2000
  188.7300  177.7720  144.2770 O   0  0  0  0  0  0  0  0  0  0  0  0
  190.8680  178.4810  145.1430 C   0  0  1  0  0  3  0  0  0  0  0  0
  186.9080  179.0690  147.3940 C   0  0  0  0  0  2  0  0  0  0  0  0
  187.3500  178.0230  144.3480 C   0  0  2  0  0  3  0  0  0  0  0  0
  185.5070  178.9600  147.4520 O   0  0  0  0  0  0  0  0  0  0  0  0
  191.4880  177.1700  145.6560 C   0  0  0  0  0  2  0  0  0  0  0  0
  191.2210  178.6930  143.8110 O   0  0  0  0  0  1  0  0  0  0  0  0
  187.4780  177.7490  146.8700 C   0  0  1  0  0  3  0  0  0  0  0  0
  190.5120  176.1630  145.7890 O   0  0  0  0  0  0  0  0  0  0  0  0
  189.3410  178.5000  145.3150 C   0  0  2  0  0  3  0  0  0  0  0  0
  186.7420  177.3170  145.5810 C   0  0  1  0  0  3  0  0  0  0  0  0
  185.0900  178.9460  146.1930 O   0  0  0  0  0  0  0  0  0  0  0  0
  185.2460  177.6200  145.7490 C   0  0  0  0  0  2  0  0  0  0  0  0
  189.6960  176.5160  146.8860 C   0  0  0  0  0  2  0  0  0  0  0  0
  188.9890  177.8700  146.6770 C   0  0  2  0  0  3  0  0  0  0  0  0
  186.6880  177.6750  142.9940 C   0  0  1  0  0  3  0  0  0  0  0  0
  185.6240  179.9830  143.2160 C   0  0  0  0  0  1  0  0  0  0  0  0
  185.6870  178.6910  142.4100 C   0  0  2  0  0  3  0  0  0  0  0  0
  183.2140  178.8480  142.8860 C   0  0  0  0  0  1  0  0  0  0  0  0
  184.3040  178.0730  142.1630 C   0  0  1  0  0  3  0  0  0  0  0  0
  183.9900  178.0910  140.7040 C   0  0  0  0  0  3  0  0  0  0  0  0
  184.5330  180.1250  139.2820 O   0  0  0  0  0  0  0  0  0  0  0  0
  184.2690  179.1370  139.9780 C   0  0  0  0  0  0  0  0  0  0  0  0
  187.6300  177.2830  142.0380 O   0  0  0  0  0  0  0  0  0  0  0  0
  187.7160  178.3650  141.1590 C   0  0  0  0  0  2  0  0  0  0  0  0
  188.6210  178.0190  139.9860 C   0  0  0  0  0  2  0  0  0  0  0  0
  187.8220  177.8140  138.7050 C   0  0  0  0  0  2  0  0  0  0  0  0
  188.8990  179.7890  137.6240 O   0  0  0  0  0  1  0  0  0  0  0  0
  188.4950  178.4620  137.5430 C   0  0  0  0  0  0  0  0  0  0  0  0
  188.6850  177.8120  136.4830 O   0  0  0  0  0  0  0  0  0  0  0  0
  1  4  1  0  0  0  0
  2  7  1  6  0  0  0
  2 10  1  0  0  0  0
  2  6  1  0  0  0  0
  3  5  1  0  0  0  0
  4 16  1  6  0  0  0
  4 11  1  0  0  0  0
  6  9  1  0  0  0  0
  8  3  1  6  0  0  0
  9 14  1  0  0  0  0
 10  1  1  6  0  0  0
 10 15  1  0  0  0  0
 11 13  1  1  0  0  0
 11  8  1  0  0  0  0
 12  5  1  0  0  0  0
 13 12  1  0  0  0  0
 15  8  1  0  0  0  0
 15 14  1  6  0  0  0
 16 24  1  6  0  0  0
 18 16  1  0  0  0  0
 18 17  1  1  0  0  0
 20 18  1  0  0  0  0
 20 19  1  1  0  0  0
 21 20  1  0  0  0  0
 22 23  2  0  0  0  0
 23 21  2  0  0  0  0
 25 24  1  0  0  0  0
 26 25  1  0  0  0  0
 27 26  1  0  0  0  0
 29 28  1  0  0  0  0
 29 27  1  0  0  0  0
 30 29  2  0  0  0  0
M  END
>  <MODEL>
3

>  <REMARK>
 VINA RESULT:      -6.6      1.372      1.665
  Name = 
  9 active torsions:
  status: ('A' for Active; 'I' for Inactive)
    1  A    between atoms: C_4  and  C_13
    2  A    between atoms: C_5  and  C_12
    3  A    between atoms: C_7  and  C_15
    4  A    between atoms: C_7  and  C_16
    5  A    between atoms: C_8  and  C_12
    6  A    between atoms: C_8  and  C_13
    7  A    between atoms: C_13  and  O_27
    8  A    between atoms: C_16  and  C_30
    9  A    between atoms: O_27  and  C_30
                            x       y       z     vdW  Elec       q    Type
                         _______ _______ _______ _____ _____    ______ ____

>  <TORSDO>
F 9

$$$$
=
 OpenBabel11052412323D

 30 32  0  0  1  0  0  0  0  0999 V2000
  188.2430  177.3140  140.6130 O   0  0  0  0  0  0  0  0  0  0  0  0
  187.8520  178.3180  138.4540 C   0  0  1  0  0  3  0  0  0  0  0  0
  192.0380  177.7370  140.2510 C   0  0  0  0  0  2  0  0  0  0  0  0
  189.1570  177.2600  141.6780 C   0  0  2  0  0  3  0  0  0  0  0  0
  192.8670  177.3330  141.3130 O   0  0  0  0  0  0  0  0  0  0  0  0
  187.5770  177.1040  137.5500 C   0  0  0  0  0  2  0  0  0  0  0  0
  186.6600  178.7900  139.0040 O   0  0  0  0  0  1  0  0  0  0  0  0
  190.9810  176.6550  140.0180 C   0  0  1  0  0  3  0  0  0  0  0  0
  188.0020  175.9080  138.1600 O   0  0  0  0  0  0  0  0  0  0  0  0
  188.8740  177.9940  139.5540 C   0  0  2  0  0  3  0  0  0  0  0  0
  190.2990  176.2710  141.3510 C   0  0  1  0  0  3  0  0  0  0  0  0
  192.1250  177.4150  142.4080 O   0  0  0  0  0  0  0  0  0  0  0  0
  191.3670  176.2290  142.4520 C   0  0  0  0  0  2  0  0  0  0  0  0
  189.4140  175.9200  138.1630 C   0  0  0  0  0  2  0  0  0  0  0  0
  189.9870  177.1140  138.9530 C   0  0  2  0  0  3  0  0  0  0  0  0
  188.4000  176.9820  142.9980 C   0  0  1  0  0  3  0  0  0  0  0  0
  189.7900  178.9270  143.8910 C   0  0  0  0  0  1  0  0  0  0  0  0
  188.7330  177.8760  144.2090 C   0  0  2  0  0  3  0  0  0  0  0  0
  190.5300  177.1870  145.8420 C   0  0  0  0  0  1  0  0  0  0  0  0
  189.0620  177.0580  145.4660 C   0  0  1  0  0  3  0  0  0  0  0  0
  188.2480  177.5440  146.6190 C   0  0  0  0  0  3  0  0  0  0  0  0
  189.3620  178.2600  148.7870 O   0  0  0  0  0  0  0  0  0  0  0  0
  188.8230  177.9090  147.7310 C   0  0  0  0  0  0  0  0  0  0  0  0
  187.0200  176.8890  142.7990 O   0  0  0  0  0  0  0  0  0  0  0  0
  186.4820  177.9470  143.5370 C   0  0  0  0  0  2  0  0  0  0  0  0
  185.1630  178.3970  142.9260 C   0  0  0  0  0  2  0  0  0  0  0  0
  184.5470  179.5470  143.7120 C   0  0  0  0  0  2  0  0  0  0  0  0
  184.0350  178.9880  146.0900 O   0  0  0  0  0  1  0  0  0  0  0  0
  183.6210  179.0400  144.7660 C   0  0  0  0  0  0  0  0  0  0  0  0
  182.4680  178.6460  144.4530 O   0  0  0  0  0  0  0  0  0  0  0  0
  1  4  1  0  0  0  0
  2  7  1  1  0  0  0
  2 10  1  0  0  0  0
  3  5  1  0  0  0  0
  4 16  1  1  0  0  0
  5 12  1  0  0  0  0
  6  9  1  0  0  0  0
  6  2  1  0  0  0  0
  8  3  1  1  0  0  0
  8 11  1  0  0  0  0
  9 14  1  0  0  0  0
 10  1  1  1  0  0  0
 11  4  1  0  0  0  0
 11 13  1  1  0  0  0
 12 13  1  0  0  0  0
 15 14  1  1  0  0  0
 15 10  1  0  0  0  0
 15  8  1  0  0  0  0
 16 24  1  6  0  0  0
 16 18  1  0  0  0  0
 18 17  1  6  0  0  0
 18 20  1  0  0  0  0
 20 19  1  1  0  0  0
 20 21  1  0  0  0  0
 21 23  2  0  0  0  0
 23 22  2  0  0  0  0
 24 25  1  0  0  0  0
 26 25  1  0  0  0  0
 26 27  1  0  0  0  0
 27 29  1  0  0  0  0
 29 28  1  0  0  0  0
 30 29  2  0  0  0  0
M  END
>  <MODEL>
4

>  <REMARK>
 VINA RESULT:      -6.4      1.932      7.039
  Name = 
  9 active torsions:
  status: ('A' for Active; 'I' for Inactive)
    1  A    between atoms: C_4  and  C_13
    2  A    between atoms: C_5  and  C_12
    3  A    between atoms: C_7  and  C_15
    4  A    between atoms: C_7  and  C_16
    5  A    between atoms: C_8  and  C_12
    6  A    between atoms: C_8  and  C_13
    7  A    between atoms: C_13  and  O_27
    8  A    between atoms: C_16  and  C_30
    9  A    between atoms: O_27  and  C_30
                            x       y       z     vdW  Elec       q    Type
                         _______ _______ _______ _____ _____    ______ ____

>  <TORSDO>
F 9

$$$$
=
 OpenBabel11052412323D

 30 32  0  0  1  0  0  0  0  0999 V2000
  187.9250  177.8410  139.8280 O   0  0  0  0  0  0  0  0  0  0  0  0
  188.2660  178.3290  137.4890 C   0  0  1  0  0  3  0  0  0  0  0  0
  191.7040  177.6570  140.4590 C   0  0  0  0  0  2  0  0  0  0  0  0
  188.5280  177.9290  141.0940 C   0  0  2  0  0  3  0  0  0  0  0  0
  192.1600  177.4190  141.7680 O   0  0  0  0  0  0  0  0  0  0  0  0
  187.9890  176.9780  136.8080 C   0  0  0  0  0  2  0  0  0  0  0  0
  187.0910  179.0750  137.5790 O   0  0  0  0  0  1  0  0  0  0  0  0
  190.5470  176.7000  140.1640 C   0  0  1  0  0  3  0  0  0  0  0  0
  188.0160  175.9220  137.7400 O   0  0  0  0  0  0  0  0  0  0  0  0
  188.9110  178.1520  138.8720 C   0  0  2  0  0  3  0  0  0  0  0  0
  189.5030  176.7480  141.3030 C   0  0  1  0  0  3  0  0  0  0  0  0
  191.2060  177.8650  142.5740 O   0  0  0  0  0  0  0  0  0  0  0  0
  190.2460  176.8360  142.6430 C   0  0  0  0  0  2  0  0  0  0  0  0
  189.3610  175.7480  138.1330 C   0  0  0  0  0  2  0  0  0  0  0  0
  189.9450  177.0130  138.7940 C   0  0  2  0  0  3  0  0  0  0  0  0
  187.4370  178.0860  142.1780 C   0  0  1  0  0  3  0  0  0  0  0  0
  185.9650  180.0950  142.7310 C   0  0  0  0  0  1  0  0  0  0  0  0
  186.1810  178.8990  141.8110 C   0  0  2  0  0  3  0  0  0  0  0  0
  183.8440  178.4420  142.6490 C   0  0  0  0  0  1  0  0  0  0  0  0
  184.9320  178.0160  141.6750 C   0  0  1  0  0  3  0  0  0  0  0  0
  184.3790  178.1240  140.2930 C   0  0  0  0  0  3  0  0  0  0  0  0
  184.3150  180.3590  139.0880 O   0  0  0  0  0  0  0  0  0  0  0  0
  184.3460  179.2730  139.6780 C   0  0  0  0  0  0  0  0  0  0  0  0
  187.0960  176.8600  142.7570 O   0  0  0  0  0  0  0  0  0  0  0  0
  187.6650  176.8990  144.0330 C   0  0  0  0  0  2  0  0  0  0  0  0
  187.0830  178.0560  144.8330 C   0  0  0  0  0  2  0  0  0  0  0  0
  186.1730  177.5610  145.9500 C   0  0  0  0  0  2  0  0  0  0  0  0
  184.0020  178.7880  146.0410 O   0  0  0  0  0  0  0  0  0  0  0  0
  185.3160  178.6650  146.4710 C   0  0  0  0  0  0  0  0  0  0  0  0
  185.7880  179.4950  147.2900 O   0  0  0  0  0  1  0  0  0  0  0  0
  1  4  1  0  0  0  0
  2  7  1  1  0  0  0
  2 10  1  0  0  0  0
  3  5  1  0  0  0  0
  4 11  1  0  0  0  0
  4 16  1  1  0  0  0
  5 12  1  0  0  0  0
  6  2  1  0  0  0  0
  6  9  1  0  0  0  0
  8  3  1  1  0  0  0
  8 11  1  0  0  0  0
  9 14  1  0  0  0  0
 10  1  1  1  0  0  0
 11 13  1  1  0  0  0
 12 13  1  0  0  0  0
 15 14  1  1  0  0  0
 15 10  1  0  0  0  0
 15  8  1  0  0  0  0
 16 24  1  6  0  0  0
 18 16  1  0  0  0  0
 18 17  1  1  0  0  0
 20 18  1  0  0  0  0
 20 19  1  1  0  0  0
 21 20  1  0  0  0  0
 22 23  2  0  0  0  0
 23 21  2  0  0  0  0
 24 25  1  0  0  0  0
 25 26  1  0  0  0  0
 26 27  1  0  0  0  0
 27 29  1  0  0  0  0
 28 29  2  0  0  0  0
 29 30  1  0  0  0  0
M  END
>  <MODEL>
5

>  <REMARK>
 VINA RESULT:      -6.0      1.749      6.034
  Name = 
  9 active torsions:
  status: ('A' for Active; 'I' for Inactive)
    1  A    between atoms: C_4  and  C_13
    2  A    between atoms: C_5  and  C_12
    3  A    between atoms: C_7  and  C_15
    4  A    between atoms: C_7  and  C_16
    5  A    between atoms: C_8  and  C_12
    6  A    between atoms: C_8  and  C_13
    7  A    between atoms: C_13  and  O_27
    8  A    between atoms: C_16  and  C_30
    9  A    between atoms: O_27  and  C_30
                            x       y       z     vdW  Elec       q    Type
                         _______ _______ _______ _____ _____    ______ ____

>  <TORSDO>
F 9

$$$$
=
 OpenBabel11052412323D

 30 32  0  0  1  0  0  0  0  0999 V2000
  187.5760  177.8310  141.8160 O   0  0  0  0  0  0  0  0  0  0  0  0
  189.6810  178.4130  140.7910 C   0  0  1  0  0  3  0  0  0  0  0  0
  189.0520  178.2140  145.3360 C   0  0  0  0  0  2  0  0  0  0  0  0
  186.8160  177.9840  142.9880 C   0  0  2  0  0  3  0  0  0  0  0  0
  188.2110  178.0210  146.4460 O   0  0  0  0  0  0  0  0  0  0  0  0
  190.2440  177.0490  140.3540 C   0  0  0  0  0  2  0  0  0  0  0  0
  188.9120  178.9680  139.7690 O   0  0  0  0  0  1  0  0  0  0  0  0
  188.7860  177.0980  144.3240 C   0  0  1  0  0  3  0  0  0  0  0  0
  189.5770  175.9920  141.0010 O   0  0  0  0  0  0  0  0  0  0  0  0
  188.8710  178.3080  142.0920 C   0  0  2  0  0  3  0  0  0  0  0  0
  187.2700  176.9620  144.0550 C   0  0  1  0  0  3  0  0  0  0  0  0
  186.9840  178.2990  146.0280 O   0  0  0  0  0  0  0  0  0  0  0  0
  186.5220  177.1350  145.3840 C   0  0  0  0  0  2  0  0  0  0  0  0
  189.9710  176.0170  142.3570 C   0  0  0  0  0  2  0  0  0  0  0  0
  189.5950  177.3420  143.0500 C   0  0  2  0  0  3  0  0  0  0  0  0
  185.3100  177.9500  142.6390 C   0  0  1  0  0  3  0  0  0  0  0  0
  185.2350  180.1640  143.9040 C   0  0  0  0  0  1  0  0  0  0  0  0
  184.4280  179.0900  143.1850 C   0  0  2  0  0  3  0  0  0  0  0  0
  183.4080  178.9320  145.4880 C   0  0  0  0  0  1  0  0  0  0  0  0
  183.2500  178.5680  144.0200 C   0  0  1  0  0  3  0  0  0  0  0  0
  181.9740  179.1690  143.5320 C   0  0  0  0  0  3  0  0  0  0  0  0
  181.0300  178.5500  141.2570 O   0  0  0  0  0  0  0  0  0  0  0  0
  181.4930  178.8500  142.3630 C   0  0  0  0  0  0  0  0  0  0  0  0
  185.0950  177.7510  141.2720 O   0  0  0  0  0  0  0  0  0  0  0  0
  184.8400  179.0270  140.7630 C   0  0  0  0  0  2  0  0  0  0  0  0
  184.1620  178.9260  139.4040 C   0  0  0  0  0  2  0  0  0  0  0  0
  185.1230  178.4150  138.3380 C   0  0  0  0  0  2  0  0  0  0  0  0
  184.7960  177.1590  136.2060 O   0  0  0  0  0  0  0  0  0  0  0  0
  184.5140  177.2990  137.5590 C   0  0  0  0  0  0  0  0  0  0  0  0
  183.7330  176.4900  138.1240 O   0  0  0  0  0  1  0  0  0  0  0  0
  1  4  1  0  0  0  0
  2  7  1  6  0  0  0
  2 10  1  0  0  0  0
  3  5  1  0  0  0  0
  4 16  1  6  0  0  0
  4 11  1  0  0  0  0
  6  2  1  0  0  0  0
  6  9  1  0  0  0  0
  8  3  1  1  0  0  0
  9 14  1  0  0  0  0
 10  1  1  6  0  0  0
 10 15  1  0  0  0  0
 11  8  1  0  0  0  0
 11 13  1  1  0  0  0
 12  5  1  0  0  0  0
 13 12  1  0  0  0  0
 15 14  1  6  0  0  0
 15  8  1  0  0  0  0
 16 24  1  6  0  0  0
 16 18  1  0  0  0  0
 18 17  1  1  0  0  0
 18 20  1  0  0  0  0
 20 19  1  1  0  0  0
 21 20  1  0  0  0  0
 22 23  2  0  0  0  0
 23 21  2  0  0  0  0
 25 24  1  0  0  0  0
 26 25  1  0  0  0  0
 27 26  1  0  0  0  0
 28 29  2  0  0  0  0
 29 30  1  0  0  0  0
 29 27  1  0  0  0  0
M  END
>  <MODEL>
6

>  <REMARK>
 VINA RESULT:      -5.8      2.038      3.921
  Name = 
  9 active torsions:
  status: ('A' for Active; 'I' for Inactive)
    1  A    between atoms: C_4  and  C_13
    2  A    between atoms: C_5  and  C_12
    3  A    between atoms: C_7  and  C_15
    4  A    between atoms: C_7  and  C_16
    5  A    between atoms: C_8  and  C_12
    6  A    between atoms: C_8  and  C_13
    7  A    between atoms: C_13  and  O_27
    8  A    between atoms: C_16  and  C_30
    9  A    between atoms: O_27  and  C_30
                            x       y       z     vdW  Elec       q    Type
                         _______ _______ _______ _____ _____    ______ ____

>  <TORSDO>
F 9

$$$$
=
 OpenBabel11052412323D

 30 32  0  0  1  0  0  0  0  0999 V2000
  186.2860  178.5380  138.7790 O   0  0  0  0  0  0  0  0  0  0  0  0
  188.6400  178.1990  138.3670 C   0  0  1  0  0  3  0  0  0  0  0  0
  185.3950  175.2060  137.1000 C   0  0  0  0  0  2  0  0  0  0  0  0
  185.0660  177.8620  138.9450 C   0  0  2  0  0  3  0  0  0  0  0  0
  184.0470  174.8050  137.0690 O   0  0  0  0  0  0  0  0  0  0  0  0
  188.9150  179.1050  137.1550 C   0  0  0  0  0  2  0  0  0  0  0  0
  188.8440  178.9040  139.5530 O   0  0  0  0  0  1  0  0  0  0  0  0
  185.4710  176.6890  136.7290 C   0  0  1  0  0  3  0  0  0  0  0  0
  187.7170  179.4810  136.5170 O   0  0  0  0  0  0  0  0  0  0  0  0
  187.2270  177.5960  138.3230 C   0  0  2  0  0  3  0  0  0  0  0  0
  184.4620  177.5070  137.5660 C   0  0  1  0  0  3  0  0  0  0  0  0
  183.4670  175.3910  138.1070 O   0  0  0  0  0  0  0  0  0  0  0  0
  183.1620  176.7010  137.6900 C   0  0  0  0  0  2  0  0  0  0  0  0
  187.2070  178.3310  135.8760 C   0  0  0  0  0  2  0  0  0  0  0  0
  186.9060  177.1920  136.8710 C   0  0  2  0  0  3  0  0  0  0  0  0
  184.1430  178.6780  139.8790 C   0  0  1  0  0  3  0  0  0  0  0  0
  182.8010  178.4260  142.0340 C   0  0  0  0  0  1  0  0  0  0  0  0
  184.1760  178.3390  141.3830 C   0  0  2  0  0  3  0  0  0  0  0  0
  184.7530  179.5650  143.5120 C   0  0  0  0  0  1  0  0  0  0  0  0
  185.2470  179.1390  142.1390 C   0  0  1  0  0  3  0  0  0  0  0  0
  186.4680  178.3020  142.3290 C   0  0  0  0  0  3  0  0  0  0  0  0
  186.8690  177.0630  144.5110 O   0  0  0  0  0  0  0  0  0  0  0  0
  186.6720  177.6690  143.4510 C   0  0  0  0  0  0  0  0  0  0  0  0
  184.2690  180.0540  139.6670 O   0  0  0  0  0  0  0  0  0  0  0  0
  183.3310  180.3480  138.6730 C   0  0  0  0  0  2  0  0  0  0  0  0
  181.9350  179.9580  139.1360 C   0  0  0  0  0  2  0  0  0  0  0  0
  180.9520  179.9160  137.9740 C   0  0  0  0  0  2  0  0  0  0  0  0
  180.4220  182.3410  138.2330 O   0  0  0  0  0  1  0  0  0  0  0  0
  180.7410  181.2760  137.4000 C   0  0  0  0  0  0  0  0  0  0  0  0
  180.8380  181.4580  136.1590 O   0  0  0  0  0  0  0  0  0  0  0  0
  1  4  1  0  0  0  0
  2  7  1  1  0  0  0
  4 16  1  6  0  0  0
  5  3  1  0  0  0  0
  5 12  1  0  0  0  0
  6  2  1  0  0  0  0
  8 15  1  0  0  0  0
  8  3  1  1  0  0  0
  8 11  1  0  0  0  0
  9  6  1  0  0  0  0
 10  2  1  0  0  0  0
 10  1  1  6  0  0  0
 11 13  1  1  0  0  0
 11  4  1  0  0  0  0
 13 12  1  0  0  0  0
 14  9  1  0  0  0  0
 15 14  1  6  0  0  0
 15 10  1  0  0  0  0
 16 24  1  1  0  0  0
 16 18  1  0  0  0  0
 18 17  1  1  0  0  0
 18 20  1  0  0  0  0
 20 21  1  0  0  0  0
 20 19  1  1  0  0  0
 21 23  2  0  0  0  0
 23 22  2  0  0  0  0
 25 26  1  0  0  0  0
 25 24  1  0  0  0  0
 27 26  1  0  0  0  0
 29 27  1  0  0  0  0
 29 28  1  0  0  0  0
 30 29  2  0  0  0  0
M  END
>  <MODEL>
7

>  <REMARK>
 VINA RESULT:      -5.8      3.310      7.959
  Name = 
  9 active torsions:
  status: ('A' for Active; 'I' for Inactive)
    1  A    between atoms: C_4  and  C_13
    2  A    between atoms: C_5  and  C_12
    3  A    between atoms: C_7  and  C_15
    4  A    between atoms: C_7  and  C_16
    5  A    between atoms: C_8  and  C_12
    6  A    between atoms: C_8  and  C_13
    7  A    between atoms: C_13  and  O_27
    8  A    between atoms: C_16  and  C_30
    9  A    between atoms: O_27  and  C_30
                            x       y       z     vdW  Elec       q    Type
                         _______ _______ _______ _____ _____    ______ ____

>  <TORSDO>
F 9

$$$$
=
 OpenBabel11052412323D

 30 32  0  0  1  0  0  0  0  0999 V2000
  186.0740  178.6280  138.8210 O   0  0  0  0  0  0  0  0  0  0  0  0
  188.4240  178.2200  138.4520 C   0  0  1  0  0  3  0  0  0  0  0  0
  185.1240  175.2710  137.2270 C   0  0  0  0  0  2  0  0  0  0  0  0
  184.8350  177.9870  138.9890 C   0  0  2  0  0  3  0  0  0  0  0  0
  183.7670  174.9010  137.1880 O   0  0  0  0  0  0  0  0  0  0  0  0
  188.7380  179.0830  137.2180 C   0  0  0  0  0  2  0  0  0  0  0  0
  188.6290  178.9540  139.6200 O   0  0  0  0  0  1  0  0  0  0  0  0
  185.2410  176.7390  136.8140 C   0  0  1  0  0  3  0  0  0  0  0  0
  187.5580  179.4690  136.5530 O   0  0  0  0  0  0  0  0  0  0  0  0
  186.9980  177.6500  138.4060 C   0  0  2  0  0  3  0  0  0  0  0  0
  184.2420  177.6070  137.6130 C   0  0  1  0  0  3  0  0  0  0  0  0
  183.1880  175.5320  138.2000 O   0  0  0  0  0  0  0  0  0  0  0  0
  182.9210  176.8360  137.7410 C   0  0  0  0  0  2  0  0  0  0  0  0
  187.0290  178.3130  135.9390 C   0  0  0  0  0  2  0  0  0  0  0  0
  186.6870  177.2120  136.9620 C   0  0  2  0  0  3  0  0  0  0  0  0
  183.9210  178.8520  139.8860 C   0  0  1  0  0  3  0  0  0  0  0  0
  182.5480  180.6570  138.7170 C   0  0  0  0  0  1  0  0  0  0  0  0
  182.5460  179.2570  139.3190 C   0  0  2  0  0  3  0  0  0  0  0  0
  180.4590  180.2290  140.3550 C   0  0  0  0  0  1  0  0  0  0  0  0
  181.4100  179.0420  140.3300 C   0  0  1  0  0  3  0  0  0  0  0  0
  180.6230  177.8290  139.9630 C   0  0  0  0  0  3  0  0  0  0  0  0
  179.3070  176.5510  141.7200 O   0  0  0  0  0  0  0  0  0  0  0  0
  179.9490  177.1750  140.8680 C   0  0  0  0  0  0  0  0  0  0  0  0
  183.8030  178.3250  141.1750 O   0  0  0  0  0  0  0  0  0  0  0  0
  184.8740  178.8750  141.8840 C   0  0  0  0  0  2  0  0  0  0  0  0
  184.9630  178.2520  143.2700 C   0  0  0  0  0  2  0  0  0  0  0  0
  184.8470  179.3040  144.3650 C   0  0  0  0  0  2  0  0  0  0  0  0
  186.6760  178.4290  145.8210 O   0  0  0  0  0  0  0  0  0  0  0  0
  185.3400  178.7760  145.6700 C   0  0  0  0  0  0  0  0  0  0  0  0
  184.5420  178.6310  146.6310 O   0  0  0  0  0  1  0  0  0  0  0  0
  1  4  1  0  0  0  0
  2  7  1  1  0  0  0
  4 16  1  6  0  0  0
  5  3  1  0  0  0  0
  5 12  1  0  0  0  0
  6  2  1  0  0  0  0
  8 15  1  0  0  0  0
  8  3  1  1  0  0  0
  8 11  1  0  0  0  0
  9  6  1  0  0  0  0
 10  2  1  0  0  0  0
 10  1  1  6  0  0  0
 11 13  1  1  0  0  0
 11  4  1  0  0  0  0
 13 12  1  0  0  0  0
 14  9  1  0  0  0  0
 15 14  1  6  0  0  0
 15 10  1  0  0  0  0
 16 24  1  1  0  0  0
 18 17  1  1  0  0  0
 18 16  1  0  0  0  0
 18 20  1  0  0  0  0
 20 19  1  6  0  0  0
 21 20  1  0  0  0  0
 21 23  2  0  0  0  0
 23 22  2  0  0  0  0
 24 25  1  0  0  0  0
 25 26  1  0  0  0  0
 26 27  1  0  0  0  0
 27 29  1  0  0  0  0
 29 28  2  0  0  0  0
 29 30  1  0  0  0  0
M  END
>  <MODEL>
8

>  <REMARK>
 VINA RESULT:      -5.6      3.299      7.347
  Name = 
  9 active torsions:
  status: ('A' for Active; 'I' for Inactive)
    1  A    between atoms: C_4  and  C_13
    2  A    between atoms: C_5  and  C_12
    3  A    between atoms: C_7  and  C_15
    4  A    between atoms: C_7  and  C_16
    5  A    between atoms: C_8  and  C_12
    6  A    between atoms: C_8  and  C_13
    7  A    between atoms: C_13  and  O_27
    8  A    between atoms: C_16  and  C_30
    9  A    between atoms: O_27  and  C_30
                            x       y       z     vdW  Elec       q    Type
                         _______ _______ _______ _____ _____    ______ ____

>  <TORSDO>
F 9

$$$$
=
 OpenBabel11052412323D

 30 32  0  0  1  0  0  0  0  0999 V2000
  188.2820  177.7550  141.6130 O   0  0  0  0  0  0  0  0  0  0  0  0
  189.3370  176.1610  143.0860 C   0  0  1  0  0  3  0  0  0  0  0  0
  190.1680  176.3680  138.5740 C   0  0  0  0  0  2  0  0  0  0  0  0
  187.9130  177.9750  140.2760 C   0  0  2  0  0  3  0  0  0  0  0  0
  189.9120  176.9240  137.3080 O   0  0  0  0  0  0  0  0  0  0  0  0
  190.4230  176.9980  143.7830 C   0  0  0  0  0  2  0  0  0  0  0  0
  188.1500  176.2050  143.8170 O   0  0  0  0  0  1  0  0  0  0  0  0
  190.3120  177.5070  139.5870 C   0  0  1  0  0  3  0  0  0  0  0  0
  190.6620  178.2000  143.0910 O   0  0  0  0  0  0  0  0  0  0  0  0
  189.1070  176.6140  141.6360 C   0  0  2  0  0  3  0  0  0  0  0  0
  189.1250  178.4890  139.4660 C   0  0  1  0  0  3  0  0  0  0  0  0
  188.6810  177.4140  137.3670 O   0  0  0  0  0  0  0  0  0  0  0  0
  188.7960  178.6770  137.9790 C   0  0  0  0  0  2  0  0  0  0  0  0
  191.3200  177.8660  141.8880 C   0  0  0  0  0  2  0  0  0  0  0  0
  190.4700  176.9380  140.9960 C   0  0  2  0  0  3  0  0  0  0  0  0
  186.6560  178.8740  140.2260 C   0  0  1  0  0  3  0  0  0  0  0  0
  185.4720  177.8590  138.2060 C   0  0  0  0  0  1  0  0  0  0  0  0
  185.3580  178.2510  139.6740 C   0  0  2  0  0  3  0  0  0  0  0  0
  183.6530  179.8500  138.7210 C   0  0  0  0  0  1  0  0  0  0  0  0
  184.1240  179.1170  139.9670 C   0  0  1  0  0  3  0  0  0  0  0  0
  183.0020  178.2590  140.4470 C   0  0  0  0  0  3  0  0  0  0  0  0
  181.5720  178.9720  142.4230 O   0  0  0  0  0  0  0  0  0  0  0  0
  182.2710  178.6270  141.4620 C   0  0  0  0  0  0  0  0  0  0  0  0
  186.4300  179.5240  141.4420 O   0  0  0  0  0  0  0  0  0  0  0  0
  185.9820  178.5200  142.3050 C   0  0  0  0  0  2  0  0  0  0  0  0
  185.2930  179.1350  143.5150 C   0  0  0  0  0  2  0  0  0  0  0  0
  185.5860  178.3460  144.7840 C   0  0  0  0  0  2  0  0  0  0  0  0
  184.9980  178.6280  147.1930 O   0  0  0  0  0  1  0  0  0  0  0  0
  184.6100  178.6830  145.8610 C   0  0  0  0  0  0  0  0  0  0  0  0
  183.4300  179.0030  145.5640 O   0  0  0  0  0  0  0  0  0  0  0  0
  2  6  1  0  0  0  0
  2  7  1  1  0  0  0
  4 16  1  1  0  0  0
  4  1  1  0  0  0  0
  5 12  1  0  0  0  0
  5  3  1  0  0  0  0
  8  3  1  6  0  0  0
  8 15  1  0  0  0  0
  9  6  1  0  0  0  0
 10  1  1  1  0  0  0
 10  2  1  0  0  0  0
 11 13  1  6  0  0  0
 11  8  1  0  0  0  0
 11  4  1  0  0  0  0
 12 13  1  0  0  0  0
 14  9  1  0  0  0  0
 15 10  1  0  0  0  0
 15 14  1  1  0  0  0
 16 24  1  1  0  0  0
 18 17  1  6  0  0  0
 18 20  1  0  0  0  0
 18 16  1  0  0  0  0
 20 19  1  6  0  0  0
 20 21  1  0  0  0  0
 21 23  2  0  0  0  0
 23 22  2  0  0  0  0
 24 25  1  0  0  0  0
 25 26  1  0  0  0  0
 26 27  1  0  0  0  0
 27 29  1  0  0  0  0
 29 28  1  0  0  0  0
 30 29  2  0  0  0  0
M  END
>  <MODEL>
9

>  <REMARK>
 VINA RESULT:      -5.6      1.961      5.873
  Name = 
  9 active torsions:
  status: ('A' for Active; 'I' for Inactive)
    1  A    between atoms: C_4  and  C_13
    2  A    between atoms: C_5  and  C_12
    3  A    between atoms: C_7  and  C_15
    4  A    between atoms: C_7  and  C_16
    5  A    between atoms: C_8  and  C_12
    6  A    between atoms: C_8  and  C_13
    7  A    between atoms: C_13  and  O_27
    8  A    between atoms: C_16  and  C_30
    9  A    between atoms: O_27  and  C_30
                            x       y       z     vdW  Elec       q    Type
                         _______ _______ _______ _____ _____    ______ ____

>  <TORSDO>
F 9

$$$$
