=
 OpenBabel11052414333D

 32 37  0  0  1  0  0  0  0  0999 V2000
  189.6520  177.3090  143.2680 C   0  0  0  0  0  0  0  0  0  0  0  0
  187.8060  177.6290  144.8280 C   0  0  0  0  0  0  0  0  0  0  0  0
  191.0900  176.9380  142.9880 C   0  0  0  0  0  2  0  0  0  0  0  0
  189.1650  177.3510  144.5940 C   0  0  0  0  0  0  0  0  0  0  0  0
  187.2730  177.6370  146.1350 C   0  0  0  0  0  0  0  0  0  0  0  0
  183.4910  179.2720  143.2160 C   0  0  0  0  0  2  0  0  0  0  0  0
  186.9520  177.8680  143.7360 C   0  0  0  0  0  0  0  0  0  0  0  0
  183.6910  178.4360  145.5360 C   0  0  0  0  0  3  0  0  0  0  0  0
  185.1140  178.1560  145.2830 C   0  0  0  0  0  0  0  0  0  0  0  0
  190.1070  177.2270  145.7720 C   0  0  1  0  0  3  0  0  0  0  0  0
  185.9510  177.9000  146.3230 N   0  0  0  0  0  0  0  0  0  0  0  0
  189.4020  176.5870  146.9650 C   0  0  0  0  0  2  0  0  0  0  0  0
  191.3690  176.4560  145.4190 C   0  0  0  0  0  2  0  0  0  0  0  0
  187.4470  177.8180  142.4710 N   0  0  0  0  0  0  0  0  0  0  0  0
  188.7530  177.5390  142.2010 C   0  0  0  0  0  0  0  0  0  0  0  0
  185.5980  178.1460  143.9620 C   0  0  0  0  0  0  0  0  0  0  0  0
  188.1450  177.3840  147.3370 C   0  0  1  0  0  3  0  0  0  0  0  0
  192.0050  177.1030  144.2000 C   0  0  0  0  0  2  0  0  0  0  0  0
  182.9150  178.9150  144.5600 C   0  0  0  0  0  3  0  0  0  0  0  0
  184.6290  178.3240  142.8210 C   0  0  0  0  0  2  0  0  0  0  0  0
  189.2460  178.2880  138.5970 C   0  0  0  0  0  0  0  0  0  0  0  0
  188.9460  179.1530  137.7310 O   0  0  0  0  0  0  0  0  0  0  0  0
  189.1830  177.4700  140.8280 N   0  0  0  0  0  0  0  0  0  0  0  0
  189.9660  177.2320  138.2480 O   0  0  0  0  0  0  0  0  0  0  0  0
  189.9030  176.4210  140.4230 N   0  0  0  0  0  0  0  0  0  0  0  0
  188.8290  178.4330  139.9230 C   0  0  0  0  0  0  0  0  0  0  0  0
  188.1510  179.4400  140.2720 O   0  0  0  0  0  0  0  0  0  0  0  0
  190.3030  176.2980  139.1310 C   0  0  0  0  0  0  0  0  0  0  0  0
  192.0670  175.2900  137.7530 C   0  0  0  0  0  1  0  0  0  0  0  0
  191.0590  175.1920  138.7470 O   0  0  0  0  0  0  0  0  0  0  0  0
  188.5090  178.7020  148.0060 C   0  0  0  0  0  2  0  0  0  0  0  0
  189.5110  178.4950  148.9540 O   0  0  0  0  0  1  0  0  0  0  0  0
  1  4  1  0  0  0  0
  2  5  1  0  0  0  0
  3  1  1  0  0  0  0
  3 18  1  0  0  0  0
  4  2  2  0  0  0  0
  4 10  1  0  0  0  0
  5 11  2  0  0  0  0
  5 17  1  0  0  0  0
  6 19  1  0  0  0  0
  7 16  1  0  0  0  0
  7  2  1  0  0  0  0
  9  8  1  0  0  0  0
  9 11  1  0  0  0  0
 10 13  1  6  0  0  0
 10 12  1  0  0  0  0
 12 17  1  0  0  0  0
 14  7  2  0  0  0  0
 15 14  1  0  0  0  0
 15  1  2  0  0  0  0
 16  9  2  0  0  0  0
 17 31  1  6  0  0  0
 18 13  1  0  0  0  0
 19  8  2  0  0  0  0
 20  6  1  0  0  0  0
 20 16  1  0  0  0  0
 21 26  1  0  0  0  0
 22 21  2  0  0  0  0
 23 15  1  0  0  0  0
 24 21  1  0  0  0  0
 24 28  1  0  0  0  0
 25 23  1  0  0  0  0
 26 27  2  0  0  0  0
 26 23  1  0  0  0  0
 28 25  2  0  0  0  0
 29 30  1  0  0  0  0
 30 28  1  0  0  0  0
 31 32  1  0  0  0  0
M  END
>  <MODEL>
1

>  <REMARK>
 VINA RESULT:     -10.7      0.000      0.000
  Name = 
  3 active torsions:
  status: ('A' for Active; 'I' for Inactive)
    1  A    between atoms: C_13  and  C_29
    2  A    between atoms: O_15  and  C_26
    3  A    between atoms: N_16  and  C_27
                            x       y       z     vdW  Elec       q    Type
                         _______ _______ _______ _____ _____    ______ ____

>  <TORSDO>
F 3

$$$$
=
 OpenBabel11052414333D

 32 37  0  0  1  0  0  0  0  0999 V2000
  185.7110  178.3350  144.2090 C   0  0  0  0  0  0  0  0  0  0  0  0
  188.1190  177.9560  144.2310 C   0  0  0  0  0  0  0  0  0  0  0  0
  184.4170  178.6200  144.9360 C   0  0  0  0  0  2  0  0  0  0  0  0
  186.9140  178.1500  144.9280 C   0  0  0  0  0  0  0  0  0  0  0  0
  189.3470  177.8120  144.9120 C   0  0  0  0  0  0  0  0  0  0  0  0
  190.4740  176.9180  140.0710 C   0  0  0  0  0  2  0  0  0  0  0  0
  188.1080  177.9430  142.8240 C   0  0  0  0  0  0  0  0  0  0  0  0
  191.7700  177.4040  142.1210 C   0  0  0  0  0  3  0  0  0  0  0  0
  190.5030  177.5970  142.8450 C   0  0  0  0  0  0  0  0  0  0  0  0
  186.9070  178.0310  146.4370 C   0  0  1  0  0  3  0  0  0  0  0  0
  190.4950  177.6360  144.2030 N   0  0  0  0  0  0  0  0  0  0  0  0
  188.2120  178.5560  147.0290 C   0  0  0  0  0  2  0  0  0  0  0  0
  185.7130  178.7350  147.0630 C   0  0  0  0  0  2  0  0  0  0  0  0
  186.9370  178.1270  142.1580 N   0  0  0  0  0  0  0  0  0  0  0  0
  185.7510  178.3300  142.7960 C   0  0  0  0  0  0  0  0  0  0  0  0
  189.3050  177.7500  142.1230 C   0  0  0  0  0  0  0  0  0  0  0  0
  189.4130  177.8220  146.4170 C   0  0  1  0  0  3  0  0  0  0  0  0
  184.4460  178.2120  146.4080 C   0  0  0  0  0  2  0  0  0  0  0  0
  191.7660  177.1320  140.8140 C   0  0  0  0  0  3  0  0  0  0  0  0
  189.3550  177.8130  140.6180 C   0  0  0  0  0  2  0  0  0  0  0  0
  183.4540  179.1830  140.0050 C   0  0  0  0  0  0  0  0  0  0  0  0
  183.4780  179.5410  138.7980 O   0  0  0  0  0  0  0  0  0  0  0  0
  184.5640  178.5530  142.0100 N   0  0  0  0  0  0  0  0  0  0  0  0
  182.2910  179.0260  140.6210 O   0  0  0  0  0  0  0  0  0  0  0  0
  183.3670  178.4180  142.5860 N   0  0  0  0  0  0  0  0  0  0  0  0
  184.6420  178.9460  140.7020 C   0  0  0  0  0  0  0  0  0  0  0  0
  185.7580  179.0810  140.1250 O   0  0  0  0  0  0  0  0  0  0  0  0
  182.2230  178.6490  141.8920 C   0  0  0  0  0  0  0  0  0  0  0  0
  180.8330  178.7280  143.9150 C   0  0  0  0  0  1  0  0  0  0  0  0
  180.9910  178.4900  142.5250 O   0  0  0  0  0  0  0  0  0  0  0  0
  189.5140  176.3990  146.9460 C   0  0  0  0  0  2  0  0  0  0  0  0
  190.8110  176.1460  147.3920 O   0  0  0  0  0  1  0  0  0  0  0  0
  1  4  1  0  0  0  0
  1  3  1  0  0  0  0
  2  5  1  0  0  0  0
  2  4  2  0  0  0  0
  3 18  1  0  0  0  0
  4 10  1  0  0  0  0
  5 17  1  0  0  0  0
  6 20  1  0  0  0  0
  6 19  1  0  0  0  0
  7  2  1  0  0  0  0
  8  9  1  0  0  0  0
  9 11  1  0  0  0  0
 10 12  1  1  0  0  0
 10 13  1  0  0  0  0
 11  5  2  0  0  0  0
 14 15  1  0  0  0  0
 14  7  2  0  0  0  0
 15  1  2  0  0  0  0
 16  7  1  0  0  0  0
 16  9  2  0  0  0  0
 17 31  1  1  0  0  0
 17 12  1  0  0  0  0
 18 13  1  0  0  0  0
 19  8  2  0  0  0  0
 20 16  1  0  0  0  0
 21 24  1  0  0  0  0
 21 26  1  0  0  0  0
 22 21  2  0  0  0  0
 23 25  1  0  0  0  0
 23 15  1  0  0  0  0
 24 28  1  0  0  0  0
 26 23  1  0  0  0  0
 27 26  2  0  0  0  0
 28 30  1  0  0  0  0
 28 25  2  0  0  0  0
 30 29  1  0  0  0  0
 31 32  1  0  0  0  0
M  END
>  <MODEL>
2

>  <REMARK>
 VINA RESULT:      -9.7      2.605      6.103
  Name = 
  3 active torsions:
  status: ('A' for Active; 'I' for Inactive)
    1  A    between atoms: C_13  and  C_29
    2  A    between atoms: O_15  and  C_26
    3  A    between atoms: N_16  and  C_27
                            x       y       z     vdW  Elec       q    Type
                         _______ _______ _______ _____ _____    ______ ____

>  <TORSDO>
F 3

$$$$
=
 OpenBabel11052414333D

 32 37  0  0  1  0  0  0  0  0999 V2000
  187.3230  177.8690  144.1480 C   0  0  0  0  0  0  0  0  0  0  0  0
  189.6080  177.4810  143.3900 C   0  0  0  0  0  0  0  0  0  0  0  0
  186.3230  178.0760  145.2630 C   0  0  0  0  0  2  0  0  0  0  0  0
  188.6800  177.6010  144.4400 C   0  0  0  0  0  0  0  0  0  0  0  0
  190.9790  177.2580  143.6430 C   0  0  0  0  0  0  0  0  0  0  0  0
  190.5430  176.8990  138.6240 C   0  0  0  0  0  2  0  0  0  0  0  0
  189.1680  177.6230  142.0610 C   0  0  0  0  0  0  0  0  0  0  0  0
  192.4190  177.1520  140.2170 C   0  0  0  0  0  3  0  0  0  0  0  0
  191.4410  177.2690  141.3100 C   0  0  0  0  0  0  0  0  0  0  0  0
  189.1280  177.3160  145.8570 C   0  0  1  0  0  3  0  0  0  0  0  0
  191.8480  177.1580  142.6020 N   0  0  0  0  0  0  0  0  0  0  0  0
  190.5700  177.7680  146.0710 C   0  0  0  0  0  2  0  0  0  0  0  0
  188.2090  177.9520  146.8890 C   0  0  0  0  0  2  0  0  0  0  0  0
  187.8570  177.8830  141.8100 N   0  0  0  0  0  0  0  0  0  0  0  0
  186.9300  178.0200  142.7980 C   0  0  0  0  0  0  0  0  0  0  0  0
  190.0860  177.5050  141.0100 C   0  0  0  0  0  0  0  0  0  0  0  0
  191.4990  177.1030  145.0470 C   0  0  1  0  0  3  0  0  0  0  0  0
  186.7840  177.5090  146.6030 C   0  0  0  0  0  2  0  0  0  0  0  0
  192.0060  177.0250  138.9530 C   0  0  0  0  0  3  0  0  0  0  0  0
  189.6780  177.7330  139.5770 C   0  0  0  0  0  2  0  0  0  0  0  0
  183.9040  179.0260  140.8940 C   0  0  0  0  0  0  0  0  0  0  0  0
  183.5510  179.3650  139.7340 O   0  0  0  0  0  0  0  0  0  0  0  0
  185.5700  178.3320  142.4420 N   0  0  0  0  0  0  0  0  0  0  0  0
  183.0050  178.9770  141.8670 O   0  0  0  0  0  0  0  0  0  0  0  0
  184.6270  178.3070  143.3870 N   0  0  0  0  0  0  0  0  0  0  0  0
  185.2360  178.6980  141.1670 C   0  0  0  0  0  0  0  0  0  0  0  0
  186.1020  178.7310  140.2480 O   0  0  0  0  0  0  0  0  0  0  0  0
  183.3380  178.6250  143.1040 C   0  0  0  0  0  0  0  0  0  0  0  0
  180.9920  178.6440  143.8280 C   0  0  0  0  0  1  0  0  0  0  0  0
  182.3800  178.5800  144.1150 O   0  0  0  0  0  0  0  0  0  0  0  0
  191.7040  175.6290  145.3690 C   0  0  0  0  0  2  0  0  0  0  0  0
  192.2840  175.4910  146.6300 O   0  0  0  0  0  1  0  0  0  0  0  0
  1  4  1  0  0  0  0
  1  3  1  0  0  0  0
  2  5  1  0  0  0  0
  2  4  2  0  0  0  0
  3 18  1  0  0  0  0
  4 10  1  0  0  0  0
  5 17  1  0  0  0  0
  6 19  1  0  0  0  0
  6 20  1  0  0  0  0
  7  2  1  0  0  0  0
  8  9  1  0  0  0  0
  9 11  1  0  0  0  0
 10 12  1  6  0  0  0
 10 13  1  0  0  0  0
 11  5  2  0  0  0  0
 14  7  2  0  0  0  0
 14 15  1  0  0  0  0
 15  1  2  0  0  0  0
 16  9  2  0  0  0  0
 16  7  1  0  0  0  0
 17 31  1  1  0  0  0
 17 12  1  0  0  0  0
 18 13  1  0  0  0  0
 19  8  2  0  0  0  0
 20 16  1  0  0  0  0
 21 26  1  0  0  0  0
 21 24  1  0  0  0  0
 22 21  2  0  0  0  0
 23 15  1  0  0  0  0
 23 25  1  0  0  0  0
 24 28  1  0  0  0  0
 26 23  1  0  0  0  0
 27 26  2  0  0  0  0
 28 25  2  0  0  0  0
 28 30  1  0  0  0  0
 29 30  1  0  0  0  0
 31 32  1  0  0  0  0
M  END
>  <MODEL>
3

>  <REMARK>
 VINA RESULT:      -9.7      2.420      6.192
  Name = 
  3 active torsions:
  status: ('A' for Active; 'I' for Inactive)
    1  A    between atoms: C_13  and  C_29
    2  A    between atoms: O_15  and  C_26
    3  A    between atoms: N_16  and  C_27
                            x       y       z     vdW  Elec       q    Type
                         _______ _______ _______ _____ _____    ______ ____

>  <TORSDO>
F 3

$$$$
=
 OpenBabel11052414333D

 32 37  0  0  1  0  0  0  0  0999 V2000
  187.2880  178.2160  142.2310 C   0  0  0  0  0  0  0  0  0  0  0  0
  187.8540  177.9880  144.5910 C   0  0  0  0  0  0  0  0  0  0  0  0
  186.3340  178.6510  141.1420 C   0  0  0  0  0  2  0  0  0  0  0  0
  186.9260  178.3320  143.5920 C   0  0  0  0  0  0  0  0  0  0  0  0
  187.5460  178.1330  145.9610 C   0  0  0  0  0  0  0  0  0  0  0  0
  192.0230  175.7970  145.9110 C   0  0  0  0  0  2  0  0  0  0  0  0
  189.1300  177.5260  144.2180 C   0  0  0  0  0  0  0  0  0  0  0  0
  190.6710  176.9800  147.6120 C   0  0  0  0  0  3  0  0  0  0  0  0
  189.7020  177.3290  146.5610 C   0  0  0  0  0  0  0  0  0  0  0  0
  185.5140  178.7020  143.9920 C   0  0  1  0  0  3  0  0  0  0  0  0
  188.4720  177.7990  146.9000 N   0  0  0  0  0  0  0  0  0  0  0  0
  185.5050  179.4540  145.3200 C   0  0  0  0  0  2  0  0  0  0  0  0
  184.8030  179.5070  142.9150 C   0  0  0  0  0  2  0  0  0  0  0  0
  189.4510  177.4270  142.9010 N   0  0  0  0  0  0  0  0  0  0  0  0
  188.5860  177.7620  141.9040 C   0  0  0  0  0  0  0  0  0  0  0  0
  190.0590  177.1810  145.2080 C   0  0  0  0  0  0  0  0  0  0  0  0
  186.1960  178.6270  146.4110 C   0  0  1  0  0  3  0  0  0  0  0  0
  184.8820  178.7370  141.6070 C   0  0  0  0  0  2  0  0  0  0  0  0
  191.7820  176.3040  147.3080 C   0  0  0  0  0  3  0  0  0  0  0  0
  191.4630  176.7620  144.8580 C   0  0  0  0  0  2  0  0  0  0  0  0
  190.4210  176.7670  138.8320 C   0  0  0  0  0  0  0  0  0  0  0  0
  191.3260  175.9780  138.4500 O   0  0  0  0  0  0  0  0  0  0  0  0
  189.0250  177.6610  140.5360 N   0  0  0  0  0  0  0  0  0  0  0  0
  189.8470  177.5810  137.9580 O   0  0  0  0  0  0  0  0  0  0  0  0
  188.4850  178.4660  139.6170 N   0  0  0  0  0  0  0  0  0  0  0  0
  190.0140  176.7900  140.1690 C   0  0  0  0  0  0  0  0  0  0  0  0
  190.5450  176.0120  141.0110 O   0  0  0  0  0  0  0  0  0  0  0  0
  188.8900  178.4270  138.3220 C   0  0  0  0  0  0  0  0  0  0  0  0
  187.4100  178.7910  136.3970 C   0  0  0  0  0  1  0  0  0  0  0  0
  188.2980  179.2780  137.3900 O   0  0  0  0  0  0  0  0  0  0  0  0
  185.3270  177.4540  146.8430 C   0  0  0  0  0  2  0  0  0  0  0  0
  184.0590  177.9070  147.2070 O   0  0  0  0  0  1  0  0  0  0  0  0
  1  4  1  0  0  0  0
  2  5  1  0  0  0  0
  3 18  1  0  0  0  0
  3  1  1  0  0  0  0
  4 10  1  0  0  0  0
  4  2  2  0  0  0  0
  5 17  1  0  0  0  0
  5 11  2  0  0  0  0
  6 19  1  0  0  0  0
  7  2  1  0  0  0  0
  7 16  1  0  0  0  0
  9 11  1  0  0  0  0
  9  8  1  0  0  0  0
 10 13  1  6  0  0  0
 10 12  1  0  0  0  0
 12 17  1  0  0  0  0
 14  7  2  0  0  0  0
 15  1  2  0  0  0  0
 15 14  1  0  0  0  0
 16  9  2  0  0  0  0
 17 31  1  6  0  0  0
 18 13  1  0  0  0  0
 19  8  2  0  0  0  0
 20 16  1  0  0  0  0
 20  6  1  0  0  0  0
 21 26  1  0  0  0  0
 22 21  2  0  0  0  0
 23 15  1  0  0  0  0
 24 28  1  0  0  0  0
 24 21  1  0  0  0  0
 25 23  1  0  0  0  0
 26 23  1  0  0  0  0
 26 27  2  0  0  0  0
 28 25  2  0  0  0  0
 29 30  1  0  0  0  0
 30 28  1  0  0  0  0
 31 32  1  0  0  0  0
M  END
>  <MODEL>
4

>  <REMARK>
 VINA RESULT:      -9.5      1.757      4.815
  Name = 
  3 active torsions:
  status: ('A' for Active; 'I' for Inactive)
    1  A    between atoms: C_13  and  C_29
    2  A    between atoms: O_15  and  C_26
    3  A    between atoms: N_16  and  C_27
                            x       y       z     vdW  Elec       q    Type
                         _______ _______ _______ _____ _____    ______ ____

>  <TORSDO>
F 3

$$$$
=
 OpenBabel11052414333D

 32 37  0  0  1  0  0  0  0  0999 V2000
  189.5530  177.4910  143.3230 C   0  0  0  0  0  0  0  0  0  0  0  0
  187.6510  177.7610  144.8250 C   0  0  0  0  0  0  0  0  0  0  0  0
  191.0100  177.1660  143.0900 C   0  0  0  0  0  2  0  0  0  0  0  0
  189.0240  177.5260  144.6340 C   0  0  0  0  0  0  0  0  0  0  0  0
  187.0780  177.7590  146.1150 C   0  0  0  0  0  0  0  0  0  0  0  0
  183.3360  179.2520  143.0710 C   0  0  0  0  0  2  0  0  0  0  0  0
  186.8230  177.9650  143.7050 C   0  0  0  0  0  0  0  0  0  0  0  0
  183.4930  178.4370  145.4020 C   0  0  0  0  0  3  0  0  0  0  0  0
  184.9310  178.2020  145.1950 C   0  0  0  0  0  0  0  0  0  0  0  0
  189.9340  177.4400  145.8400 C   0  0  1  0  0  3  0  0  0  0  0  0
  185.7440  177.9800  146.2610 N   0  0  0  0  0  0  0  0  0  0  0  0
  189.2140  176.7840  147.0160 C   0  0  0  0  0  2  0  0  0  0  0  0
  191.2310  176.7080  145.5310 C   0  0  0  0  0  2  0  0  0  0  0  0
  187.3580  177.9230  142.4560 N   0  0  0  0  0  0  0  0  0  0  0  0
  188.6800  177.6850  142.2280 C   0  0  0  0  0  0  0  0  0  0  0  0
  185.4550  178.1990  143.8890 C   0  0  0  0  0  0  0  0  0  0  0  0
  187.9210  177.5420  147.3440 C   0  0  1  0  0  3  0  0  0  0  0  0
  191.8820  177.3690  144.3270 C   0  0  0  0  0  2  0  0  0  0  0  0
  182.7310  178.8840  144.4000 C   0  0  0  0  0  3  0  0  0  0  0  0
  184.5160  178.3390  142.7180 C   0  0  0  0  0  2  0  0  0  0  0  0
  190.4700  176.6570  139.1400 C   0  0  0  0  0  0  0  0  0  0  0  0
  191.2610  175.7710  138.7220 O   0  0  0  0  0  0  0  0  0  0  0  0
  189.1540  177.6220  140.8690 N   0  0  0  0  0  0  0  0  0  0  0  0
  190.0600  177.6130  138.3190 O   0  0  0  0  0  0  0  0  0  0  0  0
  188.7790  178.5670  140.0040 N   0  0  0  0  0  0  0  0  0  0  0  0
  190.0160  176.6410  140.4620 C   0  0  0  0  0  0  0  0  0  0  0  0
  190.3900  175.7300  141.2540 O   0  0  0  0  0  0  0  0  0  0  0  0
  189.2260  178.5650  138.7220 C   0  0  0  0  0  0  0  0  0  0  0  0
  187.9200  179.2880  136.7720 C   0  0  0  0  0  1  0  0  0  0  0  0
  188.8070  179.5640  137.8450 O   0  0  0  0  0  0  0  0  0  0  0  0
  188.2220  178.8750  148.0140 C   0  0  0  0  0  2  0  0  0  0  0  0
  189.2320  178.7160  148.9620 O   0  0  0  0  0  1  0  0  0  0  0  0
  1  4  1  0  0  0  0
  2  5  1  0  0  0  0
  3  1  1  0  0  0  0
  3 18  1  0  0  0  0
  4  2  2  0  0  0  0
  4 10  1  0  0  0  0
  5 11  2  0  0  0  0
  5 17  1  0  0  0  0
  6 19  1  0  0  0  0
  7 16  1  0  0  0  0
  7  2  1  0  0  0  0
  9  8  1  0  0  0  0
  9 11  1  0  0  0  0
 10 13  1  6  0  0  0
 10 12  1  0  0  0  0
 12 17  1  0  0  0  0
 14  7  2  0  0  0  0
 15 14  1  0  0  0  0
 15  1  2  0  0  0  0
 16  9  2  0  0  0  0
 17 31  1  6  0  0  0
 18 13  1  0  0  0  0
 19  8  2  0  0  0  0
 20  6  1  0  0  0  0
 20 16  1  0  0  0  0
 21 26  1  0  0  0  0
 22 21  2  0  0  0  0
 23 15  1  0  0  0  0
 24 28  1  0  0  0  0
 24 21  1  0  0  0  0
 25 23  1  0  0  0  0
 26 23  1  0  0  0  0
 26 27  2  0  0  0  0
 28 25  2  0  0  0  0
 29 30  1  0  0  0  0
 30 28  1  0  0  0  0
 31 32  1  0  0  0  0
M  END
>  <MODEL>
5

>  <REMARK>
 VINA RESULT:      -9.4      0.780      1.937
  Name = 
  3 active torsions:
  status: ('A' for Active; 'I' for Inactive)
    1  A    between atoms: C_13  and  C_29
    2  A    between atoms: O_15  and  C_26
    3  A    between atoms: N_16  and  C_27
                            x       y       z     vdW  Elec       q    Type
                         _______ _______ _______ _____ _____    ______ ____

>  <TORSDO>
F 3

$$$$
=
 OpenBabel11052414333D

 32 37  0  0  1  0  0  0  0  0999 V2000
  186.7350  178.2760  140.0050 C   0  0  0  0  0  0  0  0  0  0  0  0
  187.6200  177.8980  142.2450 C   0  0  0  0  0  0  0  0  0  0  0  0
  186.9010  178.2530  138.5030 C   0  0  0  0  0  2  0  0  0  0  0  0
  187.8140  177.9390  140.8530 C   0  0  0  0  0  0  0  0  0  0  0  0
  188.6610  177.5230  143.1220 C   0  0  0  0  0  0  0  0  0  0  0  0
  184.9140  179.0030  146.1670 C   0  0  0  0  0  2  0  0  0  0  0  0
  186.3510  178.2000  142.7740 C   0  0  0  0  0  0  0  0  0  0  0  0
  187.0230  177.7410  146.4530 C   0  0  0  0  0  3  0  0  0  0  0  0
  187.2220  177.7950  144.9950 C   0  0  0  0  0  0  0  0  0  0  0  0
  189.2080  177.7450  140.2960 C   0  0  1  0  0  3  0  0  0  0  0  0
  188.4330  177.4850  144.4620 N   0  0  0  0  0  0  0  0  0  0  0  0
  189.9930  176.7420  141.1380 C   0  0  0  0  0  2  0  0  0  0  0  0
  189.1900  177.3210  138.8360 C   0  0  0  0  0  2  0  0  0  0  0  0
  185.3300  178.5180  141.9340 N   0  0  0  0  0  0  0  0  0  0  0  0
  185.4740  178.5560  140.5810 C   0  0  0  0  0  0  0  0  0  0  0  0
  186.1500  178.1620  144.1600 C   0  0  0  0  0  0  0  0  0  0  0  0
  190.0350  177.1870  142.6050 C   0  0  1  0  0  3  0  0  0  0  0  0
  188.3580  178.3240  138.0530 C   0  0  0  0  0  2  0  0  0  0  0  0
  185.9240  178.2620  147.0040 C   0  0  0  0  0  3  0  0  0  0  0  0
  184.7900  178.3950  144.7650 C   0  0  0  0  0  2  0  0  0  0  0  0
  182.4860  178.2450  138.3970 C   0  0  0  0  0  0  0  0  0  0  0  0
  181.7510  177.3690  137.8700 O   0  0  0  0  0  0  0  0  0  0  0  0
  184.3280  178.8670  139.7650 N   0  0  0  0  0  0  0  0  0  0  0  0
  182.2360  179.5290  138.1810 O   0  0  0  0  0  0  0  0  0  0  0  0
  184.0380  180.1450  139.5080 N   0  0  0  0  0  0  0  0  0  0  0  0
  183.5610  177.8790  139.2110 C   0  0  0  0  0  0  0  0  0  0  0  0
  183.8050  176.6590  139.4340 O   0  0  0  0  0  0  0  0  0  0  0  0
  182.9870  180.4830  138.7190 C   0  0  0  0  0  0  0  0  0  0  0  0
  181.4490  182.2530  137.9920 C   0  0  0  0  0  1  0  0  0  0  0  0
  182.7110  181.8280  138.4790 O   0  0  0  0  0  0  0  0  0  0  0  0
  190.9690  178.3750  142.7910 C   0  0  0  0  0  2  0  0  0  0  0  0
  191.7560  178.1900  143.9280 O   0  0  0  0  0  1  0  0  0  0  0  0
  1 15  2  0  0  0  0
  1  4  1  0  0  0  0
  2  7  1  0  0  0  0
  2  5  1  0  0  0  0
  3  1  1  0  0  0  0
  4  2  2  0  0  0  0
  5 11  2  0  0  0  0
  6 19  1  0  0  0  0
  7 16  1  0  0  0  0
  8 19  2  0  0  0  0
  9  8  1  0  0  0  0
 10 13  1  6  0  0  0
 10  4  1  0  0  0  0
 10 12  1  0  0  0  0
 11  9  1  0  0  0  0
 12 17  1  0  0  0  0
 14  7  2  0  0  0  0
 15 14  1  0  0  0  0
 16 20  1  0  0  0  0
 16  9  2  0  0  0  0
 17 31  1  6  0  0  0
 17  5  1  0  0  0  0
 18  3  1  0  0  0  0
 18 13  1  0  0  0  0
 20  6  1  0  0  0  0
 21 26  1  0  0  0  0
 22 21  2  0  0  0  0
 23 15  1  0  0  0  0
 24 21  1  0  0  0  0
 24 28  1  0  0  0  0
 25 23  1  0  0  0  0
 26 27  2  0  0  0  0
 26 23  1  0  0  0  0
 28 25  2  0  0  0  0
 29 30  1  0  0  0  0
 30 28  1  0  0  0  0
 31 32  1  0  0  0  0
M  END
>  <MODEL>
6

>  <REMARK>
 VINA RESULT:      -9.3      3.425      5.788
  Name = 
  3 active torsions:
  status: ('A' for Active; 'I' for Inactive)
    1  A    between atoms: C_13  and  C_29
    2  A    between atoms: O_15  and  C_26
    3  A    between atoms: N_16  and  C_27
                            x       y       z     vdW  Elec       q    Type
                         _______ _______ _______ _____ _____    ______ ____

>  <TORSDO>
F 3

$$$$
=
 OpenBabel11052414333D

 32 37  0  0  1  0  0  0  0  0999 V2000
  182.7560  178.4770  139.5710 C   0  0  0  0  0  0  0  0  0  0  0  0
  182.6910  178.7290  141.9950 C   0  0  0  0  0  0  0  0  0  0  0  0
  182.0940  178.5930  138.2170 C   0  0  0  0  0  2  0  0  0  0  0  0
  182.0370  178.7740  140.7510 C   0  0  0  0  0  0  0  0  0  0  0  0
  182.0180  179.0620  143.1910 C   0  0  0  0  0  0  0  0  0  0  0  0
  186.5260  177.3610  144.7050 C   0  0  0  0  0  2  0  0  0  0  0  0
  184.0530  178.3820  142.0460 C   0  0  0  0  0  0  0  0  0  0  0  0
  184.6760  178.6270  145.7540 C   0  0  0  0  0  3  0  0  0  0  0  0
  183.9960  178.6620  144.4490 C   0  0  0  0  0  0  0  0  0  0  0  0
  180.5430  179.0170  140.7100 C   0  0  1  0  0  3  0  0  0  0  0  0
  182.6860  179.0170  144.3750 N   0  0  0  0  0  0  0  0  0  0  0  0
  180.1200  179.9760  141.8190 C   0  0  0  0  0  2  0  0  0  0  0  0
  180.0810  179.5270  139.3540 C   0  0  0  0  0  2  0  0  0  0  0  0
  184.7210  178.1040  140.8950 N   0  0  0  0  0  0  0  0  0  0  0  0
  184.1280  178.1490  139.6700 C   0  0  0  0  0  0  0  0  0  0  0  0
  184.7110  178.3350  143.2820 C   0  0  0  0  0  0  0  0  0  0  0  0
  180.5610  179.4430  143.1880 C   0  0  1  0  0  3  0  0  0  0  0  0
  180.5690  178.5640  138.2840 C   0  0  0  0  0  2  0  0  0  0  0  0
  185.8800  178.0610  145.8720 C   0  0  0  0  0  3  0  0  0  0  0  0
  186.1880  178.0510  143.3780 C   0  0  0  0  0  2  0  0  0  0  0  0
  185.5410  176.5260  136.6420 C   0  0  0  0  0  0  0  0  0  0  0  0
  185.3810  175.5090  135.9180 O   0  0  0  0  0  0  0  0  0  0  0  0
  184.9220  177.8760  138.4990 N   0  0  0  0  0  0  0  0  0  0  0  0
  186.5030  177.3920  136.3570 O   0  0  0  0  0  0  0  0  0  0  0  0
  185.9110  178.7110  138.1730 N   0  0  0  0  0  0  0  0  0  0  0  0
  184.7110  176.7540  137.7450 C   0  0  0  0  0  0  0  0  0  0  0  0
  183.7830  175.9440  138.0230 O   0  0  0  0  0  0  0  0  0  0  0  0
  186.7040  178.4770  137.0970 C   0  0  0  0  0  0  0  0  0  0  0  0
  189.0560  179.1710  137.2220 C   0  0  0  0  0  1  0  0  0  0  0  0
  187.7220  179.3750  136.7830 O   0  0  0  0  0  0  0  0  0  0  0  0
  179.7090  178.2570  143.6160 C   0  0  0  0  0  2  0  0  0  0  0  0
  178.9310  178.6010  144.7210 O   0  0  0  0  0  1  0  0  0  0  0  0
  1 15  2  0  0  0  0
  1  4  1  0  0  0  0
  2  7  1  0  0  0  0
  2  5  1  0  0  0  0
  3 18  1  0  0  0  0
  3  1  1  0  0  0  0
  4  2  2  0  0  0  0
  5 11  2  0  0  0  0
  6 19  1  0  0  0  0
  7 16  1  0  0  0  0
  8 19  2  0  0  0  0
  9  8  1  0  0  0  0
 10 13  1  6  0  0  0
 10  4  1  0  0  0  0
 10 12  1  0  0  0  0
 11  9  1  0  0  0  0
 12 17  1  0  0  0  0
 14  7  2  0  0  0  0
 15 14  1  0  0  0  0
 16 20  1  0  0  0  0
 16  9  2  0  0  0  0
 17  5  1  0  0  0  0
 17 31  1  6  0  0  0
 18 13  1  0  0  0  0
 20  6  1  0  0  0  0
 21 26  1  0  0  0  0
 22 21  2  0  0  0  0
 23 15  1  0  0  0  0
 24 21  1  0  0  0  0
 24 28  1  0  0  0  0
 25 23  1  0  0  0  0
 26 27  2  0  0  0  0
 26 23  1  0  0  0  0
 28 25  2  0  0  0  0
 30 28  1  0  0  0  0
 30 29  1  0  0  0  0
 31 32  1  0  0  0  0
M  END
>  <MODEL>
7

>  <REMARK>
 VINA RESULT:      -9.2      3.899      6.974
  Name = 
  3 active torsions:
  status: ('A' for Active; 'I' for Inactive)
    1  A    between atoms: C_13  and  C_29
    2  A    between atoms: O_15  and  C_26
    3  A    between atoms: N_16  and  C_27
                            x       y       z     vdW  Elec       q    Type
                         _______ _______ _______ _____ _____    ______ ____

>  <TORSDO>
F 3

$$$$
=
 OpenBabel11052414333D

 32 37  0  0  1  0  0  0  0  0999 V2000
  189.5640  177.4900  143.0570 C   0  0  0  0  0  0  0  0  0  0  0  0
  187.9240  178.0050  141.3280 C   0  0  0  0  0  0  0  0  0  0  0  0
  190.9840  177.1850  143.4750 C   0  0  0  0  0  2  0  0  0  0  0  0
  189.2350  177.6520  141.6920 C   0  0  0  0  0  0  0  0  0  0  0  0
  187.5680  178.2190  139.9790 C   0  0  0  0  0  0  0  0  0  0  0  0
  183.1970  178.4750  142.4970 C   0  0  0  0  0  2  0  0  0  0  0  0
  186.9540  178.1850  142.3320 C   0  0  0  0  0  0  0  0  0  0  0  0
  183.9650  179.1050  140.2310 C   0  0  0  0  0  3  0  0  0  0  0  0
  185.3340  178.7260  140.6180 C   0  0  0  0  0  0  0  0  0  0  0  0
  190.2410  177.3290  140.6080 C   0  0  1  0  0  3  0  0  0  0  0  0
  186.2910  178.5690  139.6660 N   0  0  0  0  0  0  0  0  0  0  0  0
  190.0080  178.2010  139.3760 C   0  0  0  0  0  2  0  0  0  0  0  0
  191.6750  177.4620  141.0950 C   0  0  0  0  0  2  0  0  0  0  0  0
  187.2990  178.0260  143.6380 N   0  0  0  0  0  0  0  0  0  0  0  0
  188.5610  177.6970  144.0320 C   0  0  0  0  0  0  0  0  0  0  0  0
  185.6450  178.5360  141.9770 C   0  0  0  0  0  0  0  0  0  0  0  0
  188.5690  178.0420  138.8690 C   0  0  1  0  0  3  0  0  0  0  0  0
  191.8390  176.6140  142.3470 C   0  0  0  0  0  2  0  0  0  0  0  0
  182.9690  179.0340  141.1180 C   0  0  0  0  0  3  0  0  0  0  0  0
  184.5960  178.8220  143.0210 C   0  0  0  0  0  2  0  0  0  0  0  0
  188.2420  177.7670  147.7320 C   0  0  0  0  0  0  0  0  0  0  0  0
  187.3950  178.0050  148.6320 O   0  0  0  0  0  0  0  0  0  0  0  0
  188.8460  177.5850  145.4390 N   0  0  0  0  0  0  0  0  0  0  0  0
  189.4790  177.4260  148.0660 O   0  0  0  0  0  0  0  0  0  0  0  0
  190.0790  177.2530  145.8300 N   0  0  0  0  0  0  0  0  0  0  0  0
  187.8920  177.8570  146.3810 C   0  0  0  0  0  0  0  0  0  0  0  0
  186.7150  178.1720  146.0480 O   0  0  0  0  0  0  0  0  0  0  0  0
  190.4010  177.1670  147.1460 C   0  0  0  0  0  0  0  0  0  0  0  0
  192.3070  175.6230  147.0350 C   0  0  0  0  0  1  0  0  0  0  0  0
  191.6970  176.8110  147.5150 O   0  0  0  0  0  0  0  0  0  0  0  0
  188.3710  176.6920  138.1950 C   0  0  0  0  0  2  0  0  0  0  0  0
  188.0470  176.8710  136.8510 O   0  0  0  0  0  1  0  0  0  0  0  0
  1  3  1  0  0  0  0
  1 15  1  0  0  0  0
  2  4  1  0  0  0  0
  2  7  1  0  0  0  0
  4  1  2  0  0  0  0
  5  2  2  0  0  0  0
  6 20  1  0  0  0  0
  7 14  1  0  0  0  0
  8  9  1  0  0  0  0
  8 19  2  0  0  0  0
  9 16  1  0  0  0  0
 10 12  1  6  0  0  0
 10 13  1  0  0  0  0
 10  4  1  0  0  0  0
 11  5  1  0  0  0  0
 11  9  2  0  0  0  0
 13 18  1  0  0  0  0
 14 15  2  0  0  0  0
 15 23  1  0  0  0  0
 16  7  2  0  0  0  0
 16 20  1  0  0  0  0
 17 31  1  1  0  0  0
 17 12  1  0  0  0  0
 17  5  1  0  0  0  0
 18  3  1  0  0  0  0
 19  6  1  0  0  0  0
 21 24  1  0  0  0  0
 21 22  2  0  0  0  0
 23 25  1  0  0  0  0
 23 26  1  0  0  0  0
 25 28  2  0  0  0  0
 26 21  1  0  0  0  0
 27 26  2  0  0  0  0
 28 30  1  0  0  0  0
 28 24  1  0  0  0  0
 29 30  1  0  0  0  0
 32 31  1  0  0  0  0
M  END
>  <MODEL>
8

>  <REMARK>
 VINA RESULT:      -9.2      2.135      6.327
  Name = 
  3 active torsions:
  status: ('A' for Active; 'I' for Inactive)
    1  A    between atoms: C_13  and  C_29
    2  A    between atoms: O_15  and  C_26
    3  A    between atoms: N_16  and  C_27
                            x       y       z     vdW  Elec       q    Type
                         _______ _______ _______ _____ _____    ______ ____

>  <TORSDO>
F 3

$$$$
=
 OpenBabel11052414333D

 32 37  0  0  1  0  0  0  0  0999 V2000
  184.2840  178.6850  142.5220 C   0  0  0  0  0  0  0  0  0  0  0  0
  186.6130  178.2760  143.1150 C   0  0  0  0  0  0  0  0  0  0  0  0
  182.8610  179.0010  142.9210 C   0  0  0  0  0  2  0  0  0  0  0  0
  185.2820  178.4980  143.5070 C   0  0  0  0  0  0  0  0  0  0  0  0
  187.6450  178.1280  144.0670 C   0  0  0  0  0  0  0  0  0  0  0  0
  189.8600  177.1280  139.6400 C   0  0  0  0  0  2  0  0  0  0  0  0
  186.9320  178.2360  141.7440 C   0  0  0  0  0  0  0  0  0  0  0  0
  190.6470  177.6360  141.9300 C   0  0  0  0  0  3  0  0  0  0  0  0
  189.2490  177.8600  142.3330 C   0  0  0  0  0  0  0  0  0  0  0  0
  184.9180  178.4080  144.9730 C   0  0  1  0  0  3  0  0  0  0  0  0
  188.9240  177.9240  143.6510 N   0  0  0  0  0  0  0  0  0  0  0  0
  186.0570  178.9270  145.8460 C   0  0  0  0  0  2  0  0  0  0  0  0
  183.6240  179.1400  145.2910 C   0  0  0  0  0  2  0  0  0  0  0  0
  185.9530  178.4220  140.8200 N   0  0  0  0  0  0  0  0  0  0  0  0
  184.6540  178.6540  141.1580 C   0  0  0  0  0  0  0  0  0  0  0  0
  188.2570  178.0140  141.3470 C   0  0  0  0  0  0  0  0  0  0  0  0
  187.3550  178.1660  145.5450 C   0  0  1  0  0  3  0  0  0  0  0  0
  182.5370  178.6210  144.3630 C   0  0  0  0  0  2  0  0  0  0  0  0
  190.9450  177.3390  140.6620 C   0  0  0  0  0  3  0  0  0  0  0  0
  188.6600  178.0480  139.8950 C   0  0  0  0  0  2  0  0  0  0  0  0
  182.1710  178.1140  138.4500 C   0  0  0  0  0  0  0  0  0  0  0  0
  181.5750  177.1840  137.8460 O   0  0  0  0  0  0  0  0  0  0  0  0
  183.6890  178.8770  140.1120 N   0  0  0  0  0  0  0  0  0  0  0  0
  181.9440  179.3730  138.1040 O   0  0  0  0  0  0  0  0  0  0  0  0
  183.4310  180.1270  139.7200 N   0  0  0  0  0  0  0  0  0  0  0  0
  183.0690  177.8320  139.4830 C   0  0  0  0  0  0  0  0  0  0  0  0
  183.2880  176.6370  139.8300 O   0  0  0  0  0  0  0  0  0  0  0  0
  182.5530  180.3820  138.7170 C   0  0  0  0  0  0  0  0  0  0  0  0
  181.0100  182.1300  137.9460 C   0  0  0  0  0  1  0  0  0  0  0  0
  182.3040  181.7010  138.3400 O   0  0  0  0  0  0  0  0  0  0  0  0
  187.3050  176.7520  146.1050 C   0  0  0  0  0  2  0  0  0  0  0  0
  188.0600  176.6740  147.2750 O   0  0  0  0  0  1  0  0  0  0  0  0
  1  3  1  0  0  0  0
  1  4  1  0  0  0  0
  2  4  2  0  0  0  0
  2  5  1  0  0  0  0
  3 18  1  0  0  0  0
  4 10  1  0  0  0  0
  5 17  1  0  0  0  0
  6 20  1  0  0  0  0
  6 19  1  0  0  0  0
  7  2  1  0  0  0  0
  8  9  1  0  0  0  0
  9 11  1  0  0  0  0
 10 13  1  6  0  0  0
 10 12  1  0  0  0  0
 11  5  2  0  0  0  0
 14 15  1  0  0  0  0
 14  7  2  0  0  0  0
 15  1  2  0  0  0  0
 16  7  1  0  0  0  0
 16  9  2  0  0  0  0
 17 12  1  0  0  0  0
 17 31  1  6  0  0  0
 18 13  1  0  0  0  0
 19  8  2  0  0  0  0
 20 16  1  0  0  0  0
 21 26  1  0  0  0  0
 22 21  2  0  0  0  0
 23 15  1  0  0  0  0
 24 21  1  0  0  0  0
 24 28  1  0  0  0  0
 25 23  1  0  0  0  0
 26 27  2  0  0  0  0
 26 23  1  0  0  0  0
 28 25  2  0  0  0  0
 29 30  1  0  0  0  0
 30 28  1  0  0  0  0
 31 32  1  0  0  0  0
M  END
>  <MODEL>
9

>  <REMARK>
 VINA RESULT:      -9.2      3.377      6.533
  Name = 
  3 active torsions:
  status: ('A' for Active; 'I' for Inactive)
    1  A    between atoms: C_13  and  C_29
    2  A    between atoms: O_15  and  C_26
    3  A    between atoms: N_16  and  C_27
                            x       y       z     vdW  Elec       q    Type
                         _______ _______ _______ _____ _____    ______ ____

>  <TORSDO>
F 3

$$$$
