=
 OpenBabel11052415243D

 37 41  0  0  1  0  0  0  0  0999 V2000
  191.2500  174.6910  134.8610 C   0  0  0  0  0  2  0  0  0  0  0  0
  191.7020  176.4780  139.0320 C   0  0  0  0  0  2  0  0  0  0  0  0
  188.6220  178.0730  141.6090 C   0  0  0  0  0  2  0  0  0  0  0  0
  192.1620  176.2270  136.6320 C   0  0  2  0  0  3  0  0  0  0  0  0
  190.4350  176.8160  139.7550 C   0  0  2  0  0  0  0  0  0  0  0  0
  191.3290  175.8070  137.7830 N   0  0  2  0  0  0  0  0  0  0  0  0
  190.2110  176.2290  141.1540 C   0  0  0  0  0  2  0  0  0  0  0  0
  189.9910  176.1870  137.5130 N   0  0  1  0  0  0  0  0  0  0  0  0
  189.9810  173.4350  137.0460 S   0  0  0  0  0  0  0  0  0  0  0  0
  189.2220  175.0960  136.8910 C   0  0  0  0  0  2  0  0  0  0  0  0
  188.4650  178.4510  140.1310 C   0  0  1  0  0  3  0  0  0  0  0  0
  189.3480  176.4630  138.7890 C   0  0  2  0  0  3  0  0  0  0  0  0
  192.4540  175.0340  135.7220 C   0  0  0  0  0  2  0  0  0  0  0  0
  188.8560  176.5790  141.7450 C   0  0  1  0  0  3  0  0  0  0  0  0
  190.5810  173.3930  135.3150 C   0  0  0  0  0  2  0  0  0  0  0  0
  189.5600  177.9280  139.1730 C   0  0  2  0  0  3  0  0  0  0  0  0
  193.4970  176.8980  136.9960 C   0  0  0  0  0  2  0  0  0  0  0  0
  194.5750  176.2860  136.3050 O   0  0  0  0  0  0  0  0  0  0  0  0
  195.5600  177.0610  135.7460 N   0  0  0  0  0  2  0  0  0  0  0  0
  195.3860  178.2890  135.6140 O   0  0  0  0  0  1  0  0  0  0  0  0
  187.0340  178.3250  139.5870 C   0  0  2  0  0  3  0  0  0  0  0  0
  186.1160  177.4440  137.1490 S   0  0  0  0  0  1  0  0  0  0  0  0
  187.0280  178.6880  138.1100 C   0  0  0  0  0  2  0  0  0  0  0  0
  186.1530  179.1600  140.2870 O   0  0  0  0  0  0  0  0  0  0  0  0
  184.9970  178.3990  140.4810 C   0  0  0  0  0  2  0  0  0  0  0  0
  184.7420  178.2280  141.9410 C   0  0  0  0  0  3  0  0  0  0  0  0
  184.7040  179.2850  142.7530 C   0  0  0  0  0  3  0  0  0  0  0  0
  182.9870  178.8500  144.4770 C   0  0  0  0  0  1  0  0  0  0  0  0
  184.4580  179.1170  144.2160 C   0  0  0  0  0  2  0  0  0  0  0  0
  188.8190  176.1530  143.2040 C   0  0  0  0  0  2  0  0  0  0  0  0
  190.0260  177.5660  144.9190 C   0  0  0  0  0  2  0  0  0  0  0  0
  188.7080  177.3520  144.1370 C   0  0  2  0  0  3  0  0  0  0  0  0
  187.4680  177.1750  145.0290 C   0  0  0  0  0  2  0  0  0  0  0  0
  186.1580  178.9010  146.8480 Cl  0  0  0  0  0  0  0  0  0  0  0  0
  188.7070  178.0650  146.9530 C   0  0  0  0  0  3  0  0  0  0  0  0
  187.5540  178.0030  146.2830 C   0  0  0  0  0  0  0  0  0  0  0  0
  189.8920  177.3150  146.4260 C   0  0  0  0  0  2  0  0  0  0  0  0
  1 15  1  0  0  0  0
  1 13  1  0  0  0  0
  3 14  1  0  0  0  0
  4 17  1  1  0  0  0
  4  6  1  0  0  0  0
  5  2  1  6  0  0  0
  5  7  1  0  0  0  0
  6  2  1  1  0  0  0
  7 14  1  0  0  0  0
  8 10  1  1  0  0  0
  8  6  1  0  0  0  0
  8 12  1  0  0  0  0
 10  9  1  0  0  0  0
 11 21  1  6  0  0  0
 11  3  1  0  0  0  0
 12 16  1  0  0  0  0
 12  5  1  0  0  0  0
 13  4  1  0  0  0  0
 14 30  1  0  0  0  0
 15  9  1  0  0  0  0
 16  5  1  0  0  0  0
 16 11  1  0  0  0  0
 18 17  1  0  0  0  0
 19 18  1  0  0  0  0
 20 19  1  0  0  0  0
 21 24  1  0  0  0  0
 22 23  1  0  0  0  0
 23 21  1  0  0  0  0
 24 25  1  0  0  0  0
 25 26  1  0  0  0  0
 26 27  2  0  0  0  0
 27 29  1  0  0  0  0
 29 28  1  0  0  0  0
 30 32  1  0  0  0  0
 31 37  1  0  0  0  0
 32 31  1  0  0  0  0
 32 33  1  0  0  0  0
 33 36  1  0  0  0  0
 36 34  1  0  0  0  0
 36 35  2  0  0  0  0
 37 35  1  0  0  0  0
M  END
>  <MODEL>
1

>  <REMARK>
 VINA RESULT:      -7.4      0.000      0.000
  Name = 
  11 active torsions:
  status: ('A' for Active; 'I' for Inactive)
    1  A    between atoms: C_1  and  C_17
    2  A    between atoms: C_5  and  C_23
    3  A    between atoms: C_6  and  C_37
    4  A    between atoms: C_9  and  C_16
    5  A    between atoms: C_16  and  O_24
    6  A    between atoms: C_17  and  O_26
    7  A    between atoms: N_22  and  O_24
    8  A    between atoms: O_26  and  C_33
    9  A    between atoms: C_27  and  C_33
   10  A    between atoms: C_31  and  C_37
   11  A    between atoms: C_33  and  C_34
                            x       y       z     vdW  Elec       q    Type
                         _______ _______ _______ _____ _____    ______ ____

>  <TORSDO>
F 11

$$$$
=
 OpenBabel11052415243D

 37 41  0  0  1  0  0  0  0  0999 V2000
  191.2030  174.5670  134.8420 C   0  0  0  0  0  2  0  0  0  0  0  0
  191.6770  176.5120  138.9390 C   0  0  0  0  0  2  0  0  0  0  0  0
  188.6060  178.1700  141.4850 C   0  0  0  0  0  2  0  0  0  0  0  0
  192.1170  176.1760  136.5450 C   0  0  2  0  0  3  0  0  0  0  0  0
  190.4130  176.8640  139.6610 C   0  0  2  0  0  0  0  0  0  0  0  0
  191.2990  175.7910  137.7190 N   0  0  2  0  0  0  0  0  0  0  0  0
  190.2090  176.3270  141.0840 C   0  0  0  0  0  2  0  0  0  0  0  0
  189.9550  176.1480  137.4480 N   0  0  1  0  0  0  0  0  0  0  0  0
  189.9690  173.3800  137.0840 S   0  0  0  0  0  0  0  0  0  0  0  0
  189.1920  175.0260  136.8750 C   0  0  0  0  0  2  0  0  0  0  0  0
  188.4310  178.4910  139.9960 C   0  0  1  0  0  3  0  0  0  0  0  0
  189.3210  176.4640  138.7200 C   0  0  2  0  0  3  0  0  0  0  0  0
  192.4120  174.9530  135.6770 C   0  0  0  0  0  2  0  0  0  0  0  0
  188.8560  176.6840  141.6740 C   0  0  1  0  0  3  0  0  0  0  0  0
  190.5530  173.2800  135.3500 C   0  0  0  0  0  2  0  0  0  0  0  0
  189.5210  177.9440  139.0470 C   0  0  2  0  0  3  0  0  0  0  0  0
  193.4480  176.8740  136.8710 C   0  0  0  0  0  2  0  0  0  0  0  0
  194.5490  176.0440  136.5320 O   0  0  0  0  0  0  0  0  0  0  0  0
  195.5750  176.5440  135.7700 N   0  0  0  0  0  2  0  0  0  0  0  0
  195.3410  177.4030  134.8980 O   0  0  0  0  0  1  0  0  0  0  0  0
  186.9960  178.3310  139.4720 C   0  0  2  0  0  3  0  0  0  0  0  0
  185.9880  177.3080  137.1260 S   0  0  0  0  0  1  0  0  0  0  0  0
  186.9830  178.5720  137.9700 C   0  0  0  0  0  2  0  0  0  0  0  0
  186.1240  179.2260  140.1050 O   0  0  0  0  0  0  0  0  0  0  0  0
  185.0230  178.4580  140.4950 C   0  0  0  0  0  2  0  0  0  0  0  0
  183.7600  179.1970  140.2050 C   0  0  0  0  0  3  0  0  0  0  0  0
  183.4840  179.6130  138.9700 C   0  0  0  0  0  3  0  0  0  0  0  0
  181.4420  179.6690  137.5790 C   0  0  0  0  0  1  0  0  0  0  0  0
  182.2250  180.3620  138.6780 C   0  0  0  0  0  2  0  0  0  0  0  0
  188.8370  176.3130  143.1480 C   0  0  0  0  0  2  0  0  0  0  0  0
  189.2580  177.7600  145.1790 C   0  0  0  0  0  2  0  0  0  0  0  0
  188.2960  177.4480  144.0080 C   0  0  2  0  0  3  0  0  0  0  0  0
  186.8630  177.1000  144.4460 C   0  0  0  0  0  2  0  0  0  0  0  0
  184.8500  178.5930  145.7580 Cl  0  0  0  0  0  0  0  0  0  0  0  0
  187.3060  178.0230  146.6780 C   0  0  0  0  0  3  0  0  0  0  0  0
  186.4460  177.8730  145.6680 C   0  0  0  0  0  0  0  0  0  0  0  0
  188.6750  177.4250  146.5570 C   0  0  0  0  0  2  0  0  0  0  0  0
  1 15  1  0  0  0  0
  1 13  1  0  0  0  0
  3 14  1  0  0  0  0
  4 17  1  1  0  0  0
  4  6  1  0  0  0  0
  5  2  1  6  0  0  0
  5  7  1  0  0  0  0
  6  2  1  1  0  0  0
  7 14  1  0  0  0  0
  8 10  1  1  0  0  0
  8  6  1  0  0  0  0
  8 12  1  0  0  0  0
 10  9  1  0  0  0  0
 11 21  1  6  0  0  0
 11  3  1  0  0  0  0
 12 16  1  0  0  0  0
 12  5  1  0  0  0  0
 13  4  1  0  0  0  0
 14 30  1  0  0  0  0
 15  9  1  0  0  0  0
 16  5  1  0  0  0  0
 16 11  1  0  0  0  0
 18 17  1  0  0  0  0
 19 18  1  0  0  0  0
 20 19  1  0  0  0  0
 21 24  1  0  0  0  0
 22 23  1  0  0  0  0
 23 21  1  0  0  0  0
 24 25  1  0  0  0  0
 26 25  1  0  0  0  0
 27 26  2  0  0  0  0
 28 29  1  0  0  0  0
 29 27  1  0  0  0  0
 30 32  1  0  0  0  0
 31 37  1  0  0  0  0
 32 33  1  0  0  0  0
 32 31  1  0  0  0  0
 33 36  1  0  0  0  0
 36 34  1  0  0  0  0
 36 35  2  0  0  0  0
 37 35  1  0  0  0  0
M  END
>  <MODEL>
2

>  <REMARK>
 VINA RESULT:      -6.6      1.217      1.805
  Name = 
  11 active torsions:
  status: ('A' for Active; 'I' for Inactive)
    1  A    between atoms: C_1  and  C_17
    2  A    between atoms: C_5  and  C_23
    3  A    between atoms: C_6  and  C_37
    4  A    between atoms: C_9  and  C_16
    5  A    between atoms: C_16  and  O_24
    6  A    between atoms: C_17  and  O_26
    7  A    between atoms: N_22  and  O_24
    8  A    between atoms: O_26  and  C_33
    9  A    between atoms: C_27  and  C_33
   10  A    between atoms: C_31  and  C_37
   11  A    between atoms: C_33  and  C_34
                            x       y       z     vdW  Elec       q    Type
                         _______ _______ _______ _____ _____    ______ ____

>  <TORSDO>
F 11

$$$$
=
 OpenBabel11052415243D

 37 41  0  0  1  0  0  0  0  0999 V2000
  186.0490  178.0880  144.7480 C   0  0  0  0  0  2  0  0  0  0  0  0
  185.5460  178.9620  140.3010 C   0  0  0  0  0  2  0  0  0  0  0  0
  182.1630  178.0710  137.7640 C   0  0  0  0  0  2  0  0  0  0  0  0
  186.6460  178.0630  142.3050 C   0  0  2  0  0  3  0  0  0  0  0  0
  184.1990  178.6740  139.7120 C   0  0  2  0  0  0  0  0  0  0  0  0
  185.4500  178.7350  141.7470 N   0  0  2  0  0  0  0  0  0  0  0  0
  183.4730  179.7980  138.9610 C   0  0  0  0  0  2  0  0  0  0  0  0
  184.3390  177.8780  141.9400 N   0  0  1  0  0  0  0  0  0  0  0  0
  183.9940  179.8280  143.9080 S   0  0  0  0  0  0  0  0  0  0  0  0
  183.6130  178.1880  143.1830 C   0  0  0  0  0  2  0  0  0  0  0  0
  182.5190  176.9560  138.7550 C   0  0  1  0  0  3  0  0  0  0  0  0
  183.4040  178.1200  140.8520 C   0  0  2  0  0  3  0  0  0  0  0  0
  186.9840  178.6330  143.6820 C   0  0  0  0  0  2  0  0  0  0  0  0
  182.0850  179.4060  138.4850 C   0  0  1  0  0  3  0  0  0  0  0  0
  185.0620  179.1510  145.2330 C   0  0  0  0  0  2  0  0  0  0  0  0
  183.7410  177.2160  139.6650 C   0  0  2  0  0  3  0  0  0  0  0  0
  187.9080  178.1300  141.4280 C   0  0  0  0  0  2  0  0  0  0  0  0
  188.8380  177.1250  141.8040 O   0  0  0  0  0  0  0  0  0  0  0  0
  189.8700  176.7970  140.9620 N   0  0  0  0  0  2  0  0  0  0  0  0
  190.9870  177.3290  141.1100 O   0  0  0  0  0  1  0  0  0  0  0  0
  181.3140  176.3320  139.4750 C   0  0  2  0  0  3  0  0  0  0  0  0
  180.2200  175.0520  137.2990 S   0  0  0  0  0  1  0  0  0  0  0  0
  181.0590  174.9440  138.9080 C   0  0  0  0  0  2  0  0  0  0  0  0
  180.1700  177.1250  139.3240 O   0  0  0  0  0  0  0  0  0  0  0  0
  179.2820  176.6860  140.3110 C   0  0  0  0  0  2  0  0  0  0  0  0
  179.0700  177.7640  141.3200 C   0  0  0  0  0  3  0  0  0  0  0  0
  180.0870  178.5220  141.7280 C   0  0  0  0  0  3  0  0  0  0  0  0
  179.5640  178.9860  144.0990 C   0  0  0  0  0  1  0  0  0  0  0  0
  179.8810  179.5950  142.7460 C   0  0  0  0  0  2  0  0  0  0  0  0
  181.5440  180.4890  137.5660 C   0  0  0  0  0  2  0  0  0  0  0  0
  180.3520  181.4590  139.5730 C   0  0  0  0  0  2  0  0  0  0  0  0
  181.2200  181.7660  138.3300 C   0  0  2  0  0  3  0  0  0  0  0  0
  180.5940  182.7810  137.3590 C   0  0  0  0  0  2  0  0  0  0  0  0
  179.9280  185.5190  137.6220 Cl  0  0  0  0  0  0  0  0  0  0  0  0
  178.9960  183.4740  139.0910 C   0  0  0  0  0  3  0  0  0  0  0  0
  179.7950  183.8320  138.0830 C   0  0  0  0  0  0  0  0  0  0  0  0
  178.9310  182.0290  139.4830 C   0  0  0  0  0  2  0  0  0  0  0  0
  1 15  1  0  0  0  0
  3 14  1  0  0  0  0
  3 11  1  0  0  0  0
  4 17  1  6  0  0  0
  4 13  1  0  0  0  0
  5  7  1  6  0  0  0
  5  2  1  0  0  0  0
  5 12  1  0  0  0  0
  6  2  1  6  0  0  0
  6  8  1  0  0  0  0
  6  4  1  0  0  0  0
  8 10  1  1  0  0  0
  9 15  1  0  0  0  0
 10  9  1  0  0  0  0
 11 21  1  1  0  0  0
 11 16  1  0  0  0  0
 12  8  1  0  0  0  0
 13  1  1  0  0  0  0
 14  7  1  0  0  0  0
 16  5  1  0  0  0  0
 16 12  1  0  0  0  0
 17 18  1  0  0  0  0
 19 20  1  0  0  0  0
 19 18  1  0  0  0  0
 22 23  1  0  0  0  0
 23 21  1  0  0  0  0
 24 21  1  0  0  0  0
 24 25  1  0  0  0  0
 25 26  1  0  0  0  0
 26 27  2  0  0  0  0
 27 29  1  0  0  0  0
 29 28  1  0  0  0  0
 30 32  1  0  0  0  0
 30 14  1  0  0  0  0
 32 31  1  0  0  0  0
 33 36  1  0  0  0  0
 33 32  1  0  0  0  0
 34 36  1  0  0  0  0
 35 37  1  0  0  0  0
 36 35  2  0  0  0  0
 37 31  1  0  0  0  0
M  END
>  <MODEL>
3

>  <REMARK>
 VINA RESULT:      -5.6      5.177      8.839
  Name = 
  11 active torsions:
  status: ('A' for Active; 'I' for Inactive)
    1  A    between atoms: C_1  and  C_17
    2  A    between atoms: C_5  and  C_23
    3  A    between atoms: C_6  and  C_37
    4  A    between atoms: C_9  and  C_16
    5  A    between atoms: C_16  and  O_24
    6  A    between atoms: C_17  and  O_26
    7  A    between atoms: N_22  and  O_24
    8  A    between atoms: O_26  and  C_33
    9  A    between atoms: C_27  and  C_33
   10  A    between atoms: C_31  and  C_37
   11  A    between atoms: C_33  and  C_34
                            x       y       z     vdW  Elec       q    Type
                         _______ _______ _______ _____ _____    ______ ____

>  <TORSDO>
F 11

$$$$
=
 OpenBabel11052415243D

 37 41  0  0  1  0  0  0  0  0999 V2000
  195.8800  171.7270  135.5820 C   0  0  0  0  0  2  0  0  0  0  0  0
  194.3390  175.8850  136.6440 C   0  0  0  0  0  2  0  0  0  0  0  0
  190.3610  177.0290  137.8840 C   0  0  0  0  0  2  0  0  0  0  0  0
  195.4250  174.1780  135.2510 C   0  0  2  0  0  3  0  0  0  0  0  0
  192.9450  175.9620  137.1870 C   0  0  2  0  0  0  0  0  0  0  0  0
  194.6730  174.4650  136.4940 N   0  0  2  0  0  0  0  0  0  0  0  0
  192.7220  176.6630  138.5330 C   0  0  0  0  0  2  0  0  0  0  0  0
  193.4390  173.7720  136.4260 N   0  0  1  0  0  0  0  0  0  0  0  0
  194.9450  172.2260  138.1970 S   0  0  0  0  0  0  0  0  0  0  0  0
  193.5100  172.4550  137.0810 C   0  0  0  0  0  2  0  0  0  0  0  0
  190.3950  175.9920  136.7540 C   0  0  1  0  0  3  0  0  0  0  0  0
  192.4600  174.5460  137.1740 C   0  0  2  0  0  3  0  0  0  0  0  0
  196.4930  173.1150  135.5070 C   0  0  0  0  0  2  0  0  0  0  0  0
  191.2820  176.6010  139.0130 C   0  0  1  0  0  3  0  0  0  0  0  0
  195.8790  171.1860  137.0130 C   0  0  0  0  0  2  0  0  0  0  0  0
  191.7960  175.5730  136.2550 C   0  0  2  0  0  3  0  0  0  0  0  0
  196.0990  175.3950  134.5940 C   0  0  0  0  0  2  0  0  0  0  0  0
  197.4700  175.4690  134.9540 O   0  0  0  0  0  0  0  0  0  0  0  0
  197.8390  176.0800  136.1260 N   0  0  0  0  0  2  0  0  0  0  0  0
  197.7190  175.4730  137.2090 O   0  0  0  0  0  1  0  0  0  0  0  0
  189.4080  174.8280  136.9240 C   0  0  2  0  0  3  0  0  0  0  0  0
  189.8040  172.6700  135.2650 S   0  0  0  0  0  1  0  0  0  0  0  0
  189.0310  174.2890  135.5520 C   0  0  0  0  0  2  0  0  0  0  0  0
  188.2550  175.2390  137.6060 O   0  0  0  0  0  0  0  0  0  0  0  0
  187.2810  175.4110  136.6180 C   0  0  0  0  0  2  0  0  0  0  0  0
  186.2160  176.3330  137.1100 C   0  0  0  0  0  3  0  0  0  0  0  0
  186.5250  177.5500  137.5570 C   0  0  0  0  0  3  0  0  0  0  0  0
  185.5060  178.5530  139.5730 C   0  0  0  0  0  1  0  0  0  0  0  0
  185.4630  178.4720  138.0590 C   0  0  0  0  0  2  0  0  0  0  0  0
  191.1160  177.5070  140.2220 C   0  0  0  0  0  2  0  0  0  0  0  0
  189.1280  176.8120  141.6220 C   0  0  0  0  0  2  0  0  0  0  0  0
  190.6640  176.7290  141.4510 C   0  0  2  0  0  3  0  0  0  0  0  0
  191.4610  177.2190  142.6720 C   0  0  0  0  0  2  0  0  0  0  0  0
  191.6630  176.2720  145.3300 Cl  0  0  0  0  0  0  0  0  0  0  0  0
  189.4410  177.0860  144.0620 C   0  0  0  0  0  3  0  0  0  0  0  0
  190.7600  176.9020  143.9650 C   0  0  0  0  0  0  0  0  0  0  0  0
  188.6920  177.5940  142.8680 C   0  0  0  0  0  2  0  0  0  0  0  0
  1 15  1  0  0  0  0
  3 14  1  0  0  0  0
  4 17  1  1  0  0  0
  4 13  1  0  0  0  0
  4  6  1  0  0  0  0
  5  2  1  6  0  0  0
  5  7  1  0  0  0  0
  6  2  1  6  0  0  0
  7 14  1  0  0  0  0
  8  6  1  0  0  0  0
  8 10  1  1  0  0  0
  8 12  1  0  0  0  0
 10  9  1  0  0  0  0
 11 21  1  1  0  0  0
 11  3  1  0  0  0  0
 12  5  1  0  0  0  0
 13  1  1  0  0  0  0
 14 30  1  0  0  0  0
 15  9  1  0  0  0  0
 16 11  1  0  0  0  0
 16 12  1  0  0  0  0
 16  5  1  0  0  0  0
 17 18  1  0  0  0  0
 18 19  1  0  0  0  0
 19 20  1  0  0  0  0
 21 24  1  0  0  0  0
 22 23  1  0  0  0  0
 23 21  1  0  0  0  0
 25 26  1  0  0  0  0
 25 24  1  0  0  0  0
 26 27  2  0  0  0  0
 27 29  1  0  0  0  0
 29 28  1  0  0  0  0
 30 32  1  0  0  0  0
 31 37  1  0  0  0  0
 32 31  1  0  0  0  0
 32 33  1  0  0  0  0
 33 36  1  0  0  0  0
 36 35  2  0  0  0  0
 36 34  1  0  0  0  0
 37 35  1  0  0  0  0
M  END
>  <MODEL>
4

>  <REMARK>
 VINA RESULT:      -5.4      2.859      4.620
  Name = 
  11 active torsions:
  status: ('A' for Active; 'I' for Inactive)
    1  A    between atoms: C_1  and  C_17
    2  A    between atoms: C_5  and  C_23
    3  A    between atoms: C_6  and  C_37
    4  A    between atoms: C_9  and  C_16
    5  A    between atoms: C_16  and  O_24
    6  A    between atoms: C_17  and  O_26
    7  A    between atoms: N_22  and  O_24
    8  A    between atoms: O_26  and  C_33
    9  A    between atoms: C_27  and  C_33
   10  A    between atoms: C_31  and  C_37
   11  A    between atoms: C_33  and  C_34
                            x       y       z     vdW  Elec       q    Type
                         _______ _______ _______ _____ _____    ______ ____

>  <TORSDO>
F 11

$$$$
=
 OpenBabel11052415243D

 37 41  0  0  1  0  0  0  0  0999 V2000
  191.2890  174.6290  134.8340 C   0  0  0  0  0  2  0  0  0  0  0  0
  191.9200  176.1580  139.0830 C   0  0  0  0  0  2  0  0  0  0  0  0
  189.0870  178.1680  141.6520 C   0  0  0  0  0  2  0  0  0  0  0  0
  192.4000  175.9170  136.6850 C   0  0  2  0  0  3  0  0  0  0  0  0
  190.7090  176.6840  139.7900 C   0  0  2  0  0  0  0  0  0  0  0  0
  191.4730  175.6070  137.7990 N   0  0  2  0  0  0  0  0  0  0  0  0
  190.3460  176.0950  141.1590 C   0  0  0  0  0  2  0  0  0  0  0  0
  190.2300  176.2230  137.5140 N   0  0  1  0  0  0  0  0  0  0  0  0
  189.7590  173.5330  136.9350 S   0  0  0  0  0  0  0  0  0  0  0  0
  189.3030  175.3050  136.8320 C   0  0  0  0  0  2  0  0  0  0  0  0
  189.0410  178.6210  140.1870 C   0  0  1  0  0  3  0  0  0  0  0  0
  189.6070  176.5600  138.7860 C   0  0  2  0  0  3  0  0  0  0  0  0
  192.5080  174.7260  135.7350 C   0  0  0  0  0  2  0  0  0  0  0  0
  189.0550  176.6520  141.7320 C   0  0  1  0  0  3  0  0  0  0  0  0
  190.3930  173.4510  135.2190 C   0  0  0  0  0  2  0  0  0  0  0  0
  190.0560  177.9510  139.2340 C   0  0  2  0  0  3  0  0  0  0  0  0
  193.8200  176.3330  137.1070 C   0  0  0  0  0  2  0  0  0  0  0  0
  194.2490  177.4730  136.3780 O   0  0  0  0  0  0  0  0  0  0  0  0
  195.2150  177.3450  135.4120 N   0  0  0  0  0  2  0  0  0  0  0  0
  196.2560  176.7020  135.6530 O   0  0  0  0  0  1  0  0  0  0  0  0
  187.6260  178.7650  139.6070 C   0  0  2  0  0  3  0  0  0  0  0  0
  185.6080  179.0060  141.4600 S   0  0  0  0  0  1  0  0  0  0  0  0
  186.6590  177.9350  140.4370 C   0  0  0  0  0  2  0  0  0  0  0  0
  187.5840  178.3500  138.2700 O   0  0  0  0  0  0  0  0  0  0  0  0
  186.2320  178.1310  137.9930 C   0  0  0  0  0  2  0  0  0  0  0  0
  186.0950  177.1700  136.8600 C   0  0  0  0  0  3  0  0  0  0  0  0
  184.9130  176.9690  136.2780 C   0  0  0  0  0  3  0  0  0  0  0  0
  183.3050  175.8030  134.8070 C   0  0  0  0  0  1  0  0  0  0  0  0
  184.7700  176.0010  135.1510 C   0  0  0  0  0  2  0  0  0  0  0  0
  188.9020  176.1870  143.1710 C   0  0  0  0  0  2  0  0  0  0  0  0
  189.6420  177.5490  145.1690 C   0  0  0  0  0  2  0  0  0  0  0  0
  188.5430  177.3400  144.1000 C   0  0  2  0  0  3  0  0  0  0  0  0
  187.1400  177.0930  144.6790 C   0  0  0  0  0  2  0  0  0  0  0  0
  185.3960  178.7050  146.2180 Cl  0  0  0  0  0  0  0  0  0  0  0  0
  187.8810  177.9250  146.8680 C   0  0  0  0  0  3  0  0  0  0  0  0
  186.9130  177.8670  145.9500 C   0  0  0  0  0  0  0  0  0  0  0  0
  189.1790  177.2270  146.5950 C   0  0  0  0  0  2  0  0  0  0  0  0
  1 15  1  0  0  0  0
  1 13  1  0  0  0  0
  3 14  1  0  0  0  0
  4 17  1  1  0  0  0
  4  6  1  0  0  0  0
  5  2  1  6  0  0  0
  5  7  1  0  0  0  0
  6  2  1  1  0  0  0
  7 14  1  0  0  0  0
  8 10  1  1  0  0  0
  8  6  1  0  0  0  0
  8 12  1  0  0  0  0
 10  9  1  0  0  0  0
 11 21  1  6  0  0  0
 11  3  1  0  0  0  0
 12 16  1  0  0  0  0
 12  5  1  0  0  0  0
 13  4  1  0  0  0  0
 14 30  1  0  0  0  0
 15  9  1  0  0  0  0
 16  5  1  0  0  0  0
 16 11  1  0  0  0  0
 18 17  1  0  0  0  0
 19 20  1  0  0  0  0
 19 18  1  0  0  0  0
 21 23  1  0  0  0  0
 23 22  1  0  0  0  0
 24 21  1  0  0  0  0
 25 24  1  0  0  0  0
 26 25  1  0  0  0  0
 27 26  2  0  0  0  0
 28 29  1  0  0  0  0
 29 27  1  0  0  0  0
 30 32  1  0  0  0  0
 31 37  1  0  0  0  0
 32 33  1  0  0  0  0
 32 31  1  0  0  0  0
 33 36  1  0  0  0  0
 36 34  1  0  0  0  0
 36 35  2  0  0  0  0
 37 35  1  0  0  0  0
M  END
>  <MODEL>
5

>  <REMARK>
 VINA RESULT:      -5.2      1.729      2.960
  Name = 
  11 active torsions:
  status: ('A' for Active; 'I' for Inactive)
    1  A    between atoms: C_1  and  C_17
    2  A    between atoms: C_5  and  C_23
    3  A    between atoms: C_6  and  C_37
    4  A    between atoms: C_9  and  C_16
    5  A    between atoms: C_16  and  O_24
    6  A    between atoms: C_17  and  O_26
    7  A    between atoms: N_22  and  O_24
    8  A    between atoms: O_26  and  C_33
    9  A    between atoms: C_27  and  C_33
   10  A    between atoms: C_31  and  C_37
   11  A    between atoms: C_33  and  C_34
                            x       y       z     vdW  Elec       q    Type
                         _______ _______ _______ _____ _____    ______ ____

>  <TORSDO>
F 11

$$$$
=
 OpenBabel11052415243D

 37 41  0  0  1  0  0  0  0  0999 V2000
  178.9490  180.8090  139.5700 C   0  0  0  0  0  2  0  0  0  0  0  0
  182.9440  178.7500  140.3390 C   0  0  0  0  0  2  0  0  0  0  0  0
  185.3590  176.4750  137.5700 C   0  0  0  0  0  2  0  0  0  0  0  0
  180.5780  179.2820  140.7280 C   0  0  2  0  0  3  0  0  0  0  0  0
  183.6300  178.1570  139.1470 C   0  0  2  0  0  0  0  0  0  0  0  0
  181.7590  179.4640  139.8530 N   0  0  2  0  0  0  0  0  0  0  0  0
  185.0760  178.5750  138.8500 C   0  0  0  0  0  2  0  0  0  0  0  0
  181.4520  178.9070  138.5870 N   0  0  1  0  0  0  0  0  0  0  0  0
  181.2340  181.6550  138.1470 S   0  0  0  0  0  0  0  0  0  0  0  0
  180.9290  179.9170  137.6520 C   0  0  0  0  0  2  0  0  0  0  0  0
  183.8530  176.2110  137.4570 C   0  0  1  0  0  3  0  0  0  0  0  0
  182.6960  178.4230  138.0080 C   0  0  2  0  0  3  0  0  0  0  0  0
  179.7800  180.5820  140.8220 C   0  0  0  0  0  2  0  0  0  0  0  0
  185.6290  177.9700  137.5720 C   0  0  1  0  0  3  0  0  0  0  0  0
  179.5160  181.9430  138.7140 C   0  0  0  0  0  2  0  0  0  0  0  0
  182.9480  176.9800  138.4470 C   0  0  2  0  0  3  0  0  0  0  0  0
  180.8850  178.7950  142.1540 C   0  0  0  0  0  2  0  0  0  0  0  0
  180.0130  179.4050  143.0940 O   0  0  0  0  0  0  0  0  0  0  0  0
  179.2400  178.6280  143.9180 N   0  0  0  0  0  2  0  0  0  0  0  0
  179.6810  177.5420  144.3440 O   0  0  0  0  0  1  0  0  0  0  0  0
  183.3180  176.1620  136.0180 C   0  0  2  0  0  3  0  0  0  0  0  0
  180.6010  176.1650  135.5920 S   0  0  0  0  0  1  0  0  0  0  0  0
  182.1160  175.2330  135.9630 C   0  0  0  0  0  2  0  0  0  0  0  0
  184.3050  175.7160  135.1280 O   0  0  0  0  0  0  0  0  0  0  0  0
  184.1800  174.3250  135.1040 C   0  0  0  0  0  2  0  0  0  0  0  0
  185.5040  173.6910  135.3730 C   0  0  0  0  0  3  0  0  0  0  0  0
  185.6000  172.3770  135.5750 C   0  0  0  0  0  3  0  0  0  0  0  0
  187.7120  172.5780  136.8430 C   0  0  0  0  0  1  0  0  0  0  0  0
  186.9220  171.7410  135.8540 C   0  0  0  0  0  2  0  0  0  0  0  0
  187.1200  178.2530  137.4860 C   0  0  0  0  0  2  0  0  0  0  0  0
  188.5190  177.6410  139.5020 C   0  0  0  0  0  2  0  0  0  0  0  0
  187.9410  177.1550  138.1510 C   0  0  2  0  0  3  0  0  0  0  0  0
  189.0010  176.6540  137.1560 C   0  0  0  0  0  2  0  0  0  0  0  0
  190.8030  174.4740  137.2190 Cl  0  0  0  0  0  0  0  0  0  0  0  0
  190.6520  176.5040  138.9680 C   0  0  0  0  0  3  0  0  0  0  0  0
  190.1470  175.9720  137.8530 C   0  0  0  0  0  0  0  0  0  0  0  0
  190.0470  177.7660  139.5050 C   0  0  0  0  0  2  0  0  0  0  0  0
  1 13  1  0  0  0  0
  3 14  1  0  0  0  0
  4 13  1  0  0  0  0
  4 17  1  1  0  0  0
  5  7  1  6  0  0  0
  5  2  1  0  0  0  0
  6  2  1  1  0  0  0
  6  4  1  0  0  0  0
  8 10  1  6  0  0  0
  8  6  1  0  0  0  0
  9 15  1  0  0  0  0
 10  9  1  0  0  0  0
 11 21  1  6  0  0  0
 11  3  1  0  0  0  0
 11 16  1  0  0  0  0
 12 16  1  0  0  0  0
 12  8  1  0  0  0  0
 12  5  1  0  0  0  0
 14  7  1  0  0  0  0
 15  1  1  0  0  0  0
 16  5  1  0  0  0  0
 17 18  1  0  0  0  0
 18 19  1  0  0  0  0
 19 20  1  0  0  0  0
 22 23  1  0  0  0  0
 23 21  1  0  0  0  0
 24 21  1  0  0  0  0
 25 24  1  0  0  0  0
 25 26  1  0  0  0  0
 26 27  2  0  0  0  0
 27 29  1  0  0  0  0
 29 28  1  0  0  0  0
 30 14  1  0  0  0  0
 30 32  1  0  0  0  0
 31 37  1  0  0  0  0
 32 31  1  0  0  0  0
 33 36  1  0  0  0  0
 33 32  1  0  0  0  0
 34 36  1  0  0  0  0
 35 37  1  0  0  0  0
 36 35  2  0  0  0  0
M  END
>  <MODEL>
6

>  <REMARK>
 VINA RESULT:      -5.2      5.967     10.150
  Name = 
  11 active torsions:
  status: ('A' for Active; 'I' for Inactive)
    1  A    between atoms: C_1  and  C_17
    2  A    between atoms: C_5  and  C_23
    3  A    between atoms: C_6  and  C_37
    4  A    between atoms: C_9  and  C_16
    5  A    between atoms: C_16  and  O_24
    6  A    between atoms: C_17  and  O_26
    7  A    between atoms: N_22  and  O_24
    8  A    between atoms: O_26  and  C_33
    9  A    between atoms: C_27  and  C_33
   10  A    between atoms: C_31  and  C_37
   11  A    between atoms: C_33  and  C_34
                            x       y       z     vdW  Elec       q    Type
                         _______ _______ _______ _____ _____    ______ ____

>  <TORSDO>
F 11

$$$$
=
 OpenBabel11052415243D

 37 41  0  0  1  0  0  0  0  0999 V2000
  196.7130  172.9780  136.2360 C   0  0  0  0  0  2  0  0  0  0  0  0
  193.8040  176.4740  136.5620 C   0  0  0  0  0  2  0  0  0  0  0  0
  189.5620  176.3580  137.3770 C   0  0  0  0  0  2  0  0  0  0  0  0
  195.5270  175.0740  135.5110 C   0  0  2  0  0  3  0  0  0  0  0  0
  192.4110  176.1450  137.0040 C   0  0  2  0  0  0  0  0  0  0  0  0
  194.5940  175.2420  136.6500 N   0  0  2  0  0  0  0  0  0  0  0  0
  191.8310  176.8900  138.2140 C   0  0  0  0  0  2  0  0  0  0  0  0
  193.6660  174.1720  136.6140 N   0  0  1  0  0  0  0  0  0  0  0  0
  195.3950  173.4520  138.6850 S   0  0  0  0  0  0  0  0  0  0  0  0
  194.0900  173.0460  137.4640 C   0  0  0  0  0  2  0  0  0  0  0  0
  190.0500  175.2630  136.4210 C   0  0  1  0  0  3  0  0  0  0  0  0
  192.4150  174.6580  137.1770 C   0  0  2  0  0  3  0  0  0  0  0  0
  196.8470  174.4710  135.9880 C   0  0  0  0  0  2  0  0  0  0  0  0
  190.4470  176.4080  138.6110 C   0  0  1  0  0  3  0  0  0  0  0  0
  196.7360  172.6490  137.7290 C   0  0  0  0  0  2  0  0  0  0  0  0
  191.5560  175.2810  136.0750 C   0  0  2  0  0  3  0  0  0  0  0  0
  195.8350  176.3550  134.7180 C   0  0  0  0  0  2  0  0  0  0  0  0
  196.8870  177.0860  135.3290 O   0  0  0  0  0  0  0  0  0  0  0  0
  196.8890  178.4570  135.2810 N   0  0  0  0  0  2  0  0  0  0  0  0
  195.8130  179.0830  135.3440 O   0  0  0  0  0  1  0  0  0  0  0  0
  189.4810  173.8660  136.7060 C   0  0  2  0  0  3  0  0  0  0  0  0
  190.7100  171.9490  135.1630 S   0  0  0  0  0  1  0  0  0  0  0  0
  189.3320  173.1100  135.3950 C   0  0  0  0  0  2  0  0  0  0  0  0
  188.2410  173.9470  137.3520 O   0  0  0  0  0  0  0  0  0  0  0  0
  187.3000  173.5470  136.3990 C   0  0  0  0  0  2  0  0  0  0  0  0
  185.9530  173.4320  137.0320 C   0  0  0  0  0  3  0  0  0  0  0  0
  185.0490  172.5770  136.5540 C   0  0  0  0  0  3  0  0  0  0  0  0
  183.0590  171.1370  136.8230 C   0  0  0  0  0  1  0  0  0  0  0  0
  183.6970  172.4670  137.1780 C   0  0  0  0  0  2  0  0  0  0  0  0
  189.8690  177.3470  139.6570 C   0  0  0  0  0  2  0  0  0  0  0  0
  188.5010  177.2060  141.7800 C   0  0  0  0  0  2  0  0  0  0  0  0
  189.7310  176.6650  141.0120 C   0  0  2  0  0  3  0  0  0  0  0  0
  191.0590  176.7990  141.7740 C   0  0  0  0  0  2  0  0  0  0  0  0
  192.0070  175.6560  144.1830 Cl  0  0  0  0  0  0  0  0  0  0  0  0
  189.8360  177.2030  143.8650 C   0  0  0  0  0  3  0  0  0  0  0  0
  190.8760  176.6260  143.2580 C   0  0  0  0  0  0  0  0  0  0  0  0
  188.8680  177.9970  143.0420 C   0  0  0  0  0  2  0  0  0  0  0  0
  1 15  1  0  0  0  0
  3 14  1  0  0  0  0
  4 17  1  1  0  0  0
  4 13  1  0  0  0  0
  4  6  1  0  0  0  0
  5  2  1  6  0  0  0
  5 12  1  0  0  0  0
  5  7  1  0  0  0  0
  6  2  1  6  0  0  0
  7 14  1  0  0  0  0
  8  6  1  0  0  0  0
  8 12  1  0  0  0  0
  8 10  1  1  0  0  0
 10  9  1  0  0  0  0
 11 21  1  1  0  0  0
 11  3  1  0  0  0  0
 13  1  1  0  0  0  0
 14 30  1  0  0  0  0
 15  9  1  0  0  0  0
 16 11  1  0  0  0  0
 16  5  1  0  0  0  0
 16 12  1  0  0  0  0
 17 18  1  0  0  0  0
 19 18  1  0  0  0  0
 19 20  1  0  0  0  0
 21 24  1  0  0  0  0
 22 23  1  0  0  0  0
 23 21  1  0  0  0  0
 25 26  1  0  0  0  0
 25 24  1  0  0  0  0
 27 26  2  0  0  0  0
 27 29  1  0  0  0  0
 28 29  1  0  0  0  0
 30 32  1  0  0  0  0
 31 37  1  0  0  0  0
 32 33  1  0  0  0  0
 32 31  1  0  0  0  0
 33 36  1  0  0  0  0
 36 35  2  0  0  0  0
 36 34  1  0  0  0  0
 37 35  1  0  0  0  0
M  END
>  <MODEL>
7

>  <REMARK>
 VINA RESULT:      -5.2      3.327      5.405
  Name = 
  11 active torsions:
  status: ('A' for Active; 'I' for Inactive)
    1  A    between atoms: C_1  and  C_17
    2  A    between atoms: C_5  and  C_23
    3  A    between atoms: C_6  and  C_37
    4  A    between atoms: C_9  and  C_16
    5  A    between atoms: C_16  and  O_24
    6  A    between atoms: C_17  and  O_26
    7  A    between atoms: N_22  and  O_24
    8  A    between atoms: O_26  and  C_33
    9  A    between atoms: C_27  and  C_33
   10  A    between atoms: C_31  and  C_37
   11  A    between atoms: C_33  and  C_34
                            x       y       z     vdW  Elec       q    Type
                         _______ _______ _______ _____ _____    ______ ____

>  <TORSDO>
F 11

$$$$
=
 OpenBabel11052415243D

 37 41  0  0  1  0  0  0  0  0999 V2000
  179.0830  178.0810  135.9030 C   0  0  0  0  0  2  0  0  0  0  0  0
  181.9030  176.9010  139.2860 C   0  0  0  0  0  2  0  0  0  0  0  0
  186.1020  177.8250  139.7150 C   0  0  0  0  0  2  0  0  0  0  0  0
  180.2610  176.5330  137.4960 C   0  0  2  0  0  3  0  0  0  0  0  0
  183.2790  177.4910  139.2450 C   0  0  2  0  0  0  0  0  0  0  0  0
  181.1340  177.5060  138.1940 N   0  0  2  0  0  0  0  0  0  0  0  0
  183.7850  178.2550  140.4750 C   0  0  0  0  0  2  0  0  0  0  0  0
  182.0830  177.9860  137.2590 N   0  0  1  0  0  0  0  0  0  0  0  0
  180.2720  180.0990  137.4750 S   0  0  0  0  0  0  0  0  0  0  0  0
  181.6420  179.2360  136.6170 C   0  0  0  0  0  2  0  0  0  0  0  0
  185.6820  177.4460  138.2890 C   0  0  1  0  0  3  0  0  0  0  0  0
  183.2960  178.3120  137.9940 C   0  0  2  0  0  3  0  0  0  0  0  0
  178.9310  177.1840  137.1200 C   0  0  0  0  0  2  0  0  0  0  0  0
  185.1580  178.8740  140.2770 C   0  0  1  0  0  3  0  0  0  0  0  0
  178.9950  179.5620  136.2770 C   0  0  0  0  0  2  0  0  0  0  0  0
  184.1940  177.0790  138.0900 C   0  0  2  0  0  3  0  0  0  0  0  0
  179.9660  175.2390  138.2740 C   0  0  0  0  0  2  0  0  0  0  0  0
  180.4890  174.1090  137.5910 O   0  0  0  0  0  0  0  0  0  0  0  0
  180.3190  172.8520  138.1150 N   0  0  0  0  0  2  0  0  0  0  0  0
  180.1430  171.8800  137.3550 O   0  0  0  0  0  1  0  0  0  0  0  0
  186.2650  178.3490  137.1910 C   0  0  2  0  0  3  0  0  0  0  0  0
  185.3030  177.5000  134.7580 S   0  0  0  0  0  1  0  0  0  0  0  0
  186.6390  177.4940  135.9900 C   0  0  0  0  0  2  0  0  0  0  0  0
  187.3910  179.0420  137.6520 O   0  0  0  0  0  0  0  0  0  0  0  0
  188.4450  178.6170  136.8380 C   0  0  0  0  0  2  0  0  0  0  0  0
  189.5590  178.0930  137.6820 C   0  0  0  0  0  3  0  0  0  0  0  0
  189.4080  177.9590  139.0000 C   0  0  0  0  0  3  0  0  0  0  0  0
  190.0200  177.1230  141.2440 C   0  0  0  0  0  1  0  0  0  0  0  0
  190.5230  177.4440  139.8490 C   0  0  0  0  0  2  0  0  0  0  0  0
  185.6670  179.4050  141.6070 C   0  0  0  0  0  2  0  0  0  0  0  0
  184.7730  178.2510  143.6730 C   0  0  0  0  0  2  0  0  0  0  0  0
  185.8980  178.2830  142.6110 C   0  0  2  0  0  3  0  0  0  0  0  0
  187.3130  178.4230  143.1970 C   0  0  0  0  0  2  0  0  0  0  0  0
  188.8710  176.7440  144.8580 Cl  0  0  0  0  0  0  0  0  0  0  0  0
  186.4700  177.8070  145.4190 C   0  0  0  0  0  3  0  0  0  0  0  0
  187.4490  177.7120  144.5160 C   0  0  0  0  0  0  0  0  0  0  0  0
  185.2520  178.6140  145.0840 C   0  0  0  0  0  2  0  0  0  0  0  0
  1 15  1  0  0  0  0
  1 13  1  0  0  0  0
  3 14  1  0  0  0  0
  4  6  1  0  0  0  0
  4 17  1  1  0  0  0
  5  2  1  1  0  0  0
  5  7  1  0  0  0  0
  6  2  1  1  0  0  0
  8 10  1  1  0  0  0
  8 12  1  0  0  0  0
  8  6  1  0  0  0  0
 10  9  1  0  0  0  0
 11 21  1  6  0  0  0
 11  3  1  0  0  0  0
 12 16  1  0  0  0  0
 12  5  1  0  0  0  0
 13  4  1  0  0  0  0
 14  7  1  0  0  0  0
 14 30  1  0  0  0  0
 15  9  1  0  0  0  0
 16 11  1  0  0  0  0
 16  5  1  0  0  0  0
 18 19  1  0  0  0  0
 18 17  1  0  0  0  0
 20 19  1  0  0  0  0
 21 24  1  0  0  0  0
 22 23  1  0  0  0  0
 23 21  1  0  0  0  0
 25 24  1  0  0  0  0
 25 26  1  0  0  0  0
 26 27  2  0  0  0  0
 27 29  1  0  0  0  0
 29 28  1  0  0  0  0
 30 32  1  0  0  0  0
 31 37  1  0  0  0  0
 32 33  1  0  0  0  0
 32 31  1  0  0  0  0
 33 36  1  0  0  0  0
 36 34  1  0  0  0  0
 36 35  2  0  0  0  0
 37 35  1  0  0  0  0
M  END
>  <MODEL>
8

>  <REMARK>
 VINA RESULT:      -5.0      4.704      8.477
  Name = 
  11 active torsions:
  status: ('A' for Active; 'I' for Inactive)
    1  A    between atoms: C_1  and  C_17
    2  A    between atoms: C_5  and  C_23
    3  A    between atoms: C_6  and  C_37
    4  A    between atoms: C_9  and  C_16
    5  A    between atoms: C_16  and  O_24
    6  A    between atoms: C_17  and  O_26
    7  A    between atoms: N_22  and  O_24
    8  A    between atoms: O_26  and  C_33
    9  A    between atoms: C_27  and  C_33
   10  A    between atoms: C_31  and  C_37
   11  A    between atoms: C_33  and  C_34
                            x       y       z     vdW  Elec       q    Type
                         _______ _______ _______ _____ _____    ______ ____

>  <TORSDO>
F 11

$$$$
=
 OpenBabel11052415243D

 37 41  0  0  1  0  0  0  0  0999 V2000
  192.6870  173.9620  134.5940 C   0  0  0  0  0  2  0  0  0  0  0  0
  192.1930  176.6460  138.2460 C   0  0  0  0  0  2  0  0  0  0  0  0
  188.6110  178.6020  139.6660 C   0  0  0  0  0  2  0  0  0  0  0  0
  193.1770  175.8960  136.1240 C   0  0  2  0  0  3  0  0  0  0  0  0
  190.7950  177.0660  138.5820 C   0  0  2  0  0  0  0  0  0  0  0  0
  192.1090  175.6960  137.1320 N   0  0  2  0  0  0  0  0  0  0  0  0
  190.2670  176.7910  139.9960 C   0  0  0  0  0  2  0  0  0  0  0  0
  190.8640  175.9360  136.5000 N   0  0  1  0  0  0  0  0  0  0  0  0
  190.9680  173.1510  136.6790 S   0  0  0  0  0  0  0  0  0  0  0  0
  190.2570  174.6940  135.9910 C   0  0  0  0  0  2  0  0  0  0  0  0
  188.7860  178.6350  138.1420 C   0  0  1  0  0  3  0  0  0  0  0  0
  189.9520  176.4510  137.5100 C   0  0  2  0  0  3  0  0  0  0  0  0
  193.6680  174.5500  135.5940 C   0  0  0  0  0  2  0  0  0  0  0  0
  188.8130  177.1890  140.1840 C   0  0  1  0  0  3  0  0  0  0  0  0
  191.9380  172.7610  135.1750 C   0  0  0  0  0  2  0  0  0  0  0  0
  190.0680  177.9740  137.5880 C   0  0  2  0  0  3  0  0  0  0  0  0
  194.3950  176.7020  136.6070 C   0  0  0  0  0  2  0  0  0  0  0  0
  194.9830  177.4200  135.5330 O   0  0  0  0  0  0  0  0  0  0  0  0
  196.2580  177.1200  135.1240 N   0  0  0  0  0  2  0  0  0  0  0  0
  196.5100  175.9980  134.6420 O   0  0  0  0  0  1  0  0  0  0  0  0
  187.5120  178.3160  137.3450 C   0  0  2  0  0  3  0  0  0  0  0  0
  187.7520  177.9080  134.6360 S   0  0  0  0  0  1  0  0  0  0  0  0
  187.5510  179.0650  136.0220 C   0  0  0  0  0  2  0  0  0  0  0  0
  186.3640  178.6760  138.0630 O   0  0  0  0  0  0  0  0  0  0  0  0
  185.3440  177.8630  137.5610 C   0  0  0  0  0  2  0  0  0  0  0  0
  184.0970  178.0630  138.3560 C   0  0  0  0  0  3  0  0  0  0  0  0
  184.1580  178.3220  139.6620 C   0  0  0  0  0  3  0  0  0  0  0  0
  181.9280  179.3860  139.7080 C   0  0  0  0  0  1  0  0  0  0  0  0
  182.9130  178.5130  140.4630 C   0  0  0  0  0  2  0  0  0  0  0  0
  188.4530  177.0940  141.6580 C   0  0  0  0  0  2  0  0  0  0  0  0
  189.5850  175.9510  143.6100 C   0  0  0  0  0  2  0  0  0  0  0  0
  189.6940  177.0640  142.5410 C   0  0  2  0  0  3  0  0  0  0  0  0
  189.9290  178.4710  143.1170 C   0  0  0  0  0  2  0  0  0  0  0  0
  192.0680  179.6060  144.5800 Cl  0  0  0  0  0  0  0  0  0  0  0  0
  190.5650  177.4950  145.2790 C   0  0  0  0  0  3  0  0  0  0  0  0
  190.7820  178.4350  144.3560 C   0  0  0  0  0  0  0  0  0  0  0  0
  189.4800  176.4870  145.0430 C   0  0  0  0  0  2  0  0  0  0  0  0
  1 15  1  0  0  0  0
  1 13  1  0  0  0  0
  3 14  1  0  0  0  0
  4 17  1  1  0  0  0
  4  6  1  0  0  0  0
  5  2  1  6  0  0  0
  5  7  1  0  0  0  0
  6  2  1  1  0  0  0
  7 14  1  0  0  0  0
  8 10  1  1  0  0  0
  8  6  1  0  0  0  0
  8 12  1  0  0  0  0
 10  9  1  0  0  0  0
 11 21  1  6  0  0  0
 11  3  1  0  0  0  0
 12 16  1  0  0  0  0
 12  5  1  0  0  0  0
 13  4  1  0  0  0  0
 14 30  1  0  0  0  0
 15  9  1  0  0  0  0
 16 11  1  0  0  0  0
 16  5  1  0  0  0  0
 18 17  1  0  0  0  0
 19 18  1  0  0  0  0
 20 19  1  0  0  0  0
 21 24  1  0  0  0  0
 22 23  1  0  0  0  0
 23 21  1  0  0  0  0
 25 24  1  0  0  0  0
 25 26  1  0  0  0  0
 26 27  2  0  0  0  0
 27 29  1  0  0  0  0
 28 29  1  0  0  0  0
 30 32  1  0  0  0  0
 31 37  1  0  0  0  0
 32 33  1  0  0  0  0
 32 31  1  0  0  0  0
 33 36  1  0  0  0  0
 36 34  1  0  0  0  0
 36 35  2  0  0  0  0
 37 35  1  0  0  0  0
M  END
>  <MODEL>
9

>  <REMARK>
 VINA RESULT:      -4.9      2.064      2.499
  Name = 
  11 active torsions:
  status: ('A' for Active; 'I' for Inactive)
    1  A    between atoms: C_1  and  C_17
    2  A    between atoms: C_5  and  C_23
    3  A    between atoms: C_6  and  C_37
    4  A    between atoms: C_9  and  C_16
    5  A    between atoms: C_16  and  O_24
    6  A    between atoms: C_17  and  O_26
    7  A    between atoms: N_22  and  O_24
    8  A    between atoms: O_26  and  C_33
    9  A    between atoms: C_27  and  C_33
   10  A    between atoms: C_31  and  C_37
   11  A    between atoms: C_33  and  C_34
                            x       y       z     vdW  Elec       q    Type
                         _______ _______ _______ _____ _____    ______ ____

>  <TORSDO>
F 11

$$$$
