=
 OpenBabel11052415123D

 55 58  0  0  1  0  0  0  0  0999 V2000
  190.1380  177.6370  143.4110 C   0  0  0  0  0  2  0  0  0  0  0  0
  188.8390  177.6650  141.7760 C   0  0  2  0  0  0  0  0  0  0  0  0
  190.1060  175.6100  142.3650 O   0  0  0  0  0  1  0  0  0  0  0  0
  189.7610  178.7110  142.4300 C   0  0  0  0  0  2  0  0  0  0  0  0
  189.2110  176.6000  142.8320 C   0  0  1  0  0  3  0  0  0  0  0  0
  188.8340  177.2070  140.2470 C   0  0  0  0  0  2  0  0  0  0  0  0
  189.6940  178.1280  139.3000 C   0  0  0  0  0  2  0  0  0  0  0  0
  188.8170  178.3350  138.0260 C   0  0  0  0  0  2  0  0  0  0  0  0
  190.4890  177.4960  136.7800 O   0  0  0  0  0  0  0  0  0  0  0  0
  189.8940  176.2910  136.3420 C   0  0  1  0  0  3  0  0  0  0  0  0
  189.2990  178.1860  136.6620 N   0  0  0  0  0  0  0  0  0  0  0  0
  188.6080  177.0360  136.1310 C   0  0  0  0  0  2  0  0  0  0  0  0
  190.4720  175.8840  135.1030 O   0  0  0  0  0  0  0  0  0  0  0  0
  191.8110  175.4060  135.1550 C   0  0  0  0  0  0  0  0  0  0  0  0
  192.7080  176.1600  134.7810 O   0  0  0  0  0  0  0  0  0  0  0  0
  192.1910  173.9900  135.6320 C   0  0  2  0  0  3  0  0  0  0  0  0
  190.6100  172.4900  134.6570 O   0  0  0  0  0  1  0  0  0  0  0  0
  191.0000  173.0490  135.8740 C   0  0  0  0  0  2  0  0  0  0  0  0
  193.0270  175.4610  137.3930 O   0  0  0  0  0  1  0  0  0  0  0  0
  193.0890  174.1560  136.8800 C   0  0  2  0  0  3  0  0  0  0  0  0
  194.5610  173.7130  136.7590 C   0  0  1  0  0  3  0  0  0  0  0  0
  194.7380  172.3250  136.5410 O   0  0  0  0  0  0  0  0  0  0  0  0
  195.1770  171.7130  137.7290 C   0  0  0  0  0  2  0  0  0  0  0  0
  196.3920  170.9040  137.5200 C   0  0  0  0  0  0  0  0  0  0  0  0
  197.6490  171.5050  137.4330 O   0  0  0  0  0  0  0  0  0  0  0  0
  196.3050  169.6500  137.4730 O   0  0  0  0  0  1  0  0  0  0  0  0
  195.4680  174.7250  135.9280 C   0  0  0  0  0  2  0  0  0  0  0  0
  198.0960  174.1720  135.1880 C   0  0  0  0  0  1  0  0  0  0  0  0
  197.1750  174.9540  136.5510 S   0  0  0  0  0  0  0  0  0  0  0  0
  187.4090  178.0130  142.1620 C   0  0  0  0  0  2  0  0  0  0  0  0
  186.6030  178.5470  140.9400 C   0  0  0  0  0  2  0  0  0  0  0  0
  184.9860  178.8820  141.1140 C   0  0  2  0  0  3  0  0  0  0  0  0
  183.7310  178.8100  143.6600 C   0  0  0  0  0  0  0  0  0  0  0  0
  182.5330  179.2160  143.3370 O   0  0  0  0  0  0  0  0  0  0  0  0
  184.7400  178.6970  142.5840 N   0  0  0  0  0  2  0  0  0  0  0  0
  184.2240  178.5370  145.1420 C   0  0  0  0  0  2  0  0  0  0  0  0
  186.7240  178.6090  147.4760 O   0  0  0  0  0  0  0  0  0  0  0  0
  186.8700  177.4090  146.9090 O   0  0  0  0  0  0  0  0  0  0  0  0
  186.4160  177.5170  145.5840 C   0  0  0  0  0  2  0  0  0  0  0  0
  185.6570  178.8220  145.4360 C   0  0  0  0  0  3  0  0  0  0  0  0
  185.6080  179.1870  146.8460 C   0  0  0  0  0  2  0  0  0  0  0  0
  183.8920  178.0380  140.2120 C   0  0  1  0  0  3  0  0  0  0  0  0
  181.4640  177.4570  140.4800 N   0  0  0  0  0  2  0  0  0  0  0  0
  179.6820  179.0550  139.9880 C   0  0  0  0  0  2  0  0  0  0  0  0
  182.0160  179.8060  139.6420 C   0  0  0  0  0  0  0  0  0  0  0  0
  180.5620  180.1960  139.4640 C   0  0  0  0  0  2  0  0  0  0  0  0
  180.2910  177.7040  139.6450 C   0  0  0  0  0  2  0  0  0  0  0  0
  182.4780  178.5070  140.1770 N   0  0  0  0  0  0  0  0  0  0  0  0
  182.7950  180.5400  138.9000 O   0  0  0  0  0  0  0  0  0  0  0  0
  185.2280  178.5820  138.4280 O   0  0  0  0  0  0  0  0  0  0  0  0
  183.9270  176.5520  137.9990 N   0  0  0  0  0  2  0  0  0  0  0  0
  184.3810  177.7100  138.8260 C   0  0  0  0  0  0  0  0  0  0  0  0
  184.5310  176.5570  136.6890 C   0  0  1  0  0  3  0  0  0  0  0  0
  185.5130  175.5850  136.5630 O   0  0  0  0  0  1  0  0  0  0  0  0
  183.5570  176.6290  135.5780 C   0  0  0  0  0  1  0  0  0  0  0  0
  2  6  1  6  0  0  0
  2 30  1  0  0  0  0
  2  4  1  0  0  0  0
  2  5  1  0  0  0  0
  4  1  1  0  0  0  0
  5  3  1  6  0  0  0
  5  1  1  0  0  0  0
  7  6  1  0  0  0  0
  8  7  1  0  0  0  0
 10 13  1  6  0  0  0
 10  9  1  0  0  0  0
 11  9  1  0  0  0  0
 11  8  1  0  0  0  0
 12 10  1  0  0  0  0
 12 11  1  0  0  0  0
 13 14  1  0  0  0  0
 14 16  1  0  0  0  0
 15 14  2  0  0  0  0
 16 18  1  1  0  0  0
 16 20  1  0  0  0  0
 17 18  1  0  0  0  0
 20 19  1  6  0  0  0
 21 27  1  6  0  0  0
 21 20  1  0  0  0  0
 22 21  1  0  0  0  0
 22 23  1  0  0  0  0
 24 23  1  0  0  0  0
 25 24  2  0  0  0  0
 26 24  1  0  0  0  0
 27 29  1  0  0  0  0
 28 29  1  0  0  0  0
 31 30  1  0  0  0  0
 32 31  1  1  0  0  0
 32 35  1  0  0  0  0
 33 36  1  0  0  0  0
 34 33  2  0  0  0  0
 35 33  1  0  0  0  0
 36 40  1  0  0  0  0
 38 37  1  0  0  0  0
 39 38  1  0  0  0  0
 40 39  1  0  0  0  0
 40 41  1  0  0  0  0
 41 37  1  0  0  0  0
 42 52  1  6  0  0  0
 42 32  1  0  0  0  0
 45 48  1  0  0  0  0
 46 45  1  0  0  0  0
 46 44  1  0  0  0  0
 47 44  1  0  0  0  0
 47 43  1  0  0  0  0
 48 42  1  0  0  0  0
 48 43  1  0  0  0  0
 49 45  2  0  0  0  0
 50 52  2  0  0  0  0
 51 52  1  0  0  0  0
 53 55  1  6  0  0  0
 53 51  1  0  0  0  0
 54 53  1  0  0  0  0
M  END
>  <MODEL>
1

>  <REMARK>
 VINA RESULT:      -5.4      0.000      0.000
  Name = 
  25 active torsions:
  status: ('A' for Active; 'I' for Inactive)
    1  A    between atoms: C_1  and  C_29
    2  A    between atoms: C_2  and  C_28
    3  A    between atoms: C_2  and  C_31
    4  A    between atoms: C_3  and  S_25
    5  A    between atoms: C_3  and  C_38
    6  A    between atoms: C_4  and  N_40
    7  A    between atoms: C_6  and  C_14
    8  A    between atoms: C_6  and  C_20
    9  A    between atoms: C_6  and  C_53
   10  A    between atoms: O_7  and  C_20
   11  A    between atoms: O_7  and  C_22
   12  A    between atoms: C_13  and  C_48
   13  A    between atoms: C_14  and  C_38
   14  A    between atoms: O_21  and  C_29
   15  A    between atoms: O_21  and  C_38
   16  A    between atoms: N_26  and  C_49
   17  A    between atoms: C_27  and  C_31
   18  A    between atoms: C_27  and  C_54
   19  A    between atoms: C_28  and  C_33
   20  A    between atoms: C_33  and  C_49
   21  A    between atoms: C_33  and  N_52
   22  A    between atoms: N_35  and  C_51
   23  A    between atoms: C_39  and  C_48
   24  A    between atoms: C_45  and  C_49
   25  A    between atoms: C_51  and  C_54
                            x       y       z     vdW  Elec       q    Type
                         _______ _______ _______ _____ _____    ______ ____

>  <TORSDO>
F 25

$$$$
=
 OpenBabel11052415123D

 55 58  0  0  1  0  0  0  0  0999 V2000
  190.0440  177.8990  143.0880 C   0  0  0  0  0  2  0  0  0  0  0  0
  188.5770  177.9360  141.6030 C   0  0  2  0  0  0  0  0  0  0  0  0
  189.9400  175.8970  142.0020 O   0  0  0  0  0  1  0  0  0  0  0  0
  189.5430  178.9870  142.1800 C   0  0  0  0  0  2  0  0  0  0  0  0
  189.0810  176.8560  142.5860 C   0  0  1  0  0  3  0  0  0  0  0  0
  188.4170  177.5120  140.0730 C   0  0  0  0  0  2  0  0  0  0  0  0
  189.1550  178.4710  139.0620 C   0  0  0  0  0  2  0  0  0  0  0  0
  188.1620  178.6550  137.8740 C   0  0  0  0  0  2  0  0  0  0  0  0
  189.6300  177.5910  136.5450 O   0  0  0  0  0  0  0  0  0  0  0  0
  188.9330  176.3830  136.3190 C   0  0  1  0  0  3  0  0  0  0  0  0
  188.4670  178.3330  136.4880 N   0  0  0  0  0  0  0  0  0  0  0  0
  187.6650  177.1750  136.1750 C   0  0  0  0  0  2  0  0  0  0  0  0
  189.3370  175.8130  135.0750 O   0  0  0  0  0  0  0  0  0  0  0  0
  190.4980  174.9910  135.1020 C   0  0  0  0  0  0  0  0  0  0  0  0
  191.5680  175.4930  134.7600 O   0  0  0  0  0  0  0  0  0  0  0  0
  190.4800  173.5060  135.5140 C   0  0  2  0  0  3  0  0  0  0  0  0
  188.6950  172.2160  134.5940 O   0  0  0  0  0  1  0  0  0  0  0  0
  189.0790  172.9150  135.7370 C   0  0  0  0  0  2  0  0  0  0  0  0
  190.9010  174.0890  137.8470 O   0  0  0  0  0  1  0  0  0  0  0  0
  191.3960  173.3650  136.7510 C   0  0  2  0  0  3  0  0  0  0  0  0
  192.8960  173.6680  136.5620 C   0  0  1  0  0  3  0  0  0  0  0  0
  193.5080  174.3090  137.6680 O   0  0  0  0  0  0  0  0  0  0  0  0
  193.5360  175.6980  137.4510 C   0  0  0  0  0  2  0  0  0  0  0  0
  193.1410  176.4550  138.6530 C   0  0  0  0  0  0  0  0  0  0  0  0
  194.1010  176.9400  139.5430 O   0  0  0  0  0  1  0  0  0  0  0  0
  191.9270  176.7160  138.8550 O   0  0  0  0  0  0  0  0  0  0  0  0
  193.6990  172.5000  135.8350 C   0  0  0  0  0  2  0  0  0  0  0  0
  194.9050  174.7350  134.6920 C   0  0  0  0  0  1  0  0  0  0  0  0
  195.2830  172.9920  135.0580 S   0  0  0  0  0  0  0  0  0  0  0  0
  187.1910  178.2440  142.1480 C   0  0  0  0  0  2  0  0  0  0  0  0
  186.1780  178.5330  141.0000 C   0  0  0  0  0  2  0  0  0  0  0  0
  184.6000  178.8860  141.3750 C   0  0  2  0  0  3  0  0  0  0  0  0
  183.6770  178.8230  144.0590 C   0  0  0  0  0  0  0  0  0  0  0  0
  182.4810  179.3220  143.9030 O   0  0  0  0  0  0  0  0  0  0  0  0
  184.5300  178.6740  142.8600 N   0  0  0  0  0  2  0  0  0  0  0  0
  184.3340  178.4720  145.4590 C   0  0  0  0  0  2  0  0  0  0  0  0
  187.0750  178.4480  147.5050 O   0  0  0  0  0  0  0  0  0  0  0  0
  187.1840  177.2980  146.8360 O   0  0  0  0  0  0  0  0  0  0  0  0
  186.5830  177.4890  145.5800 C   0  0  0  0  0  2  0  0  0  0  0  0
  185.7840  178.7780  145.6160 C   0  0  0  0  0  3  0  0  0  0  0  0
  185.8840  179.0360  147.0470 C   0  0  0  0  0  2  0  0  0  0  0  0
  183.3910  178.0760  140.5960 C   0  0  1  0  0  3  0  0  0  0  0  0
  180.9580  177.9270  141.1990 N   0  0  0  0  0  2  0  0  0  0  0  0
  179.3150  179.5390  140.3810 C   0  0  0  0  0  2  0  0  0  0  0  0
  181.6640  179.8390  139.6590 C   0  0  0  0  0  0  0  0  0  0  0  0
  180.2500  180.3530  139.4780 C   0  0  0  0  0  2  0  0  0  0  0  0
  179.7350  178.0780  140.4150 C   0  0  0  0  0  2  0  0  0  0  0  0
  182.0400  178.7000  140.5240 N   0  0  0  0  0  0  0  0  0  0  0  0
  182.4320  180.2170  138.6780 O   0  0  0  0  0  0  0  0  0  0  0  0
  184.7380  178.2380  138.7460 O   0  0  0  0  0  0  0  0  0  0  0  0
  183.1870  176.3510  138.5730 N   0  0  0  0  0  2  0  0  0  0  0  0
  183.8010  177.5310  139.2530 C   0  0  0  0  0  0  0  0  0  0  0  0
  183.7540  176.1290  137.2660 C   0  0  1  0  0  3  0  0  0  0  0  0
  184.0910  177.3160  136.6330 O   0  0  0  0  0  1  0  0  0  0  0  0
  184.7870  175.0700  137.2300 C   0  0  0  0  0  1  0  0  0  0  0  0
  2  6  1  6  0  0  0
  2 30  1  0  0  0  0
  2  4  1  0  0  0  0
  2  5  1  0  0  0  0
  4  1  1  0  0  0  0
  5  3  1  6  0  0  0
  5  1  1  0  0  0  0
  7  6  1  0  0  0  0
  8  7  1  0  0  0  0
 10 13  1  6  0  0  0
 10  9  1  0  0  0  0
 11  9  1  0  0  0  0
 11  8  1  0  0  0  0
 12 10  1  0  0  0  0
 12 11  1  0  0  0  0
 13 14  1  0  0  0  0
 14 16  1  0  0  0  0
 15 14  2  0  0  0  0
 16 18  1  1  0  0  0
 16 20  1  0  0  0  0
 17 18  1  0  0  0  0
 20 19  1  1  0  0  0
 21 27  1  1  0  0  0
 21 20  1  0  0  0  0
 21 22  1  0  0  0  0
 23 22  1  0  0  0  0
 23 24  1  0  0  0  0
 24 26  2  0  0  0  0
 24 25  1  0  0  0  0
 28 29  1  0  0  0  0
 29 27  1  0  0  0  0
 31 30  1  0  0  0  0
 32 31  1  6  0  0  0
 32 35  1  0  0  0  0
 33 36  1  0  0  0  0
 34 33  2  0  0  0  0
 35 33  1  0  0  0  0
 36 40  1  0  0  0  0
 38 37  1  0  0  0  0
 39 40  1  0  0  0  0
 39 38  1  0  0  0  0
 40 41  1  0  0  0  0
 41 37  1  0  0  0  0
 42 52  1  6  0  0  0
 42 32  1  0  0  0  0
 44 47  1  0  0  0  0
 45 48  1  0  0  0  0
 46 45  1  0  0  0  0
 46 44  1  0  0  0  0
 47 43  1  0  0  0  0
 48 42  1  0  0  0  0
 48 43  1  0  0  0  0
 49 45  2  0  0  0  0
 50 52  2  0  0  0  0
 51 52  1  0  0  0  0
 53 55  1  1  0  0  0
 53 51  1  0  0  0  0
 54 53  1  0  0  0  0
M  END
>  <MODEL>
2

>  <REMARK>
 VINA RESULT:      -5.1      1.597      2.210
  Name = 
  25 active torsions:
  status: ('A' for Active; 'I' for Inactive)
    1  A    between atoms: C_1  and  C_29
    2  A    between atoms: C_2  and  C_28
    3  A    between atoms: C_2  and  C_31
    4  A    between atoms: C_3  and  S_25
    5  A    between atoms: C_3  and  C_38
    6  A    between atoms: C_4  and  N_40
    7  A    between atoms: C_6  and  C_14
    8  A    between atoms: C_6  and  C_20
    9  A    between atoms: C_6  and  C_53
   10  A    between atoms: O_7  and  C_20
   11  A    between atoms: O_7  and  C_22
   12  A    between atoms: C_13  and  C_48
   13  A    between atoms: C_14  and  C_38
   14  A    between atoms: O_21  and  C_29
   15  A    between atoms: O_21  and  C_38
   16  A    between atoms: N_26  and  C_49
   17  A    between atoms: C_27  and  C_31
   18  A    between atoms: C_27  and  C_54
   19  A    between atoms: C_28  and  C_33
   20  A    between atoms: C_33  and  C_49
   21  A    between atoms: C_33  and  N_52
   22  A    between atoms: N_35  and  C_51
   23  A    between atoms: C_39  and  C_48
   24  A    between atoms: C_45  and  C_49
   25  A    between atoms: C_51  and  C_54
                            x       y       z     vdW  Elec       q    Type
                         _______ _______ _______ _____ _____    ______ ____

>  <TORSDO>
F 25

$$$$
=
 OpenBabel11052415123D

 55 58  0  0  1  0  0  0  0  0999 V2000
  190.2100  178.7530  144.7160 C   0  0  0  0  0  2  0  0  0  0  0  0
  189.6610  177.4130  143.2120 C   0  0  2  0  0  0  0  0  0  0  0  0
  190.4940  176.5980  145.4060 O   0  0  0  0  0  1  0  0  0  0  0  0
  190.3010  178.8140  143.2180 C   0  0  0  0  0  2  0  0  0  0  0  0
  189.5360  177.4060  144.7510 C   0  0  1  0  0  3  0  0  0  0  0  0
  190.2350  176.0950  142.5200 C   0  0  0  0  0  2  0  0  0  0  0  0
  190.6300  176.2860  141.0060 C   0  0  0  0  0  2  0  0  0  0  0  0
  191.9170  177.1680  141.0270 C   0  0  0  0  0  2  0  0  0  0  0  0
  193.6930  177.2230  139.6510 O   0  0  0  0  0  0  0  0  0  0  0  0
  193.1880  176.4780  138.5610 C   0  0  1  0  0  3  0  0  0  0  0  0
  192.4750  177.8370  139.8630 N   0  0  0  0  0  0  0  0  0  0  0  0
  191.8760  177.1890  138.7210 C   0  0  0  0  0  2  0  0  0  0  0  0
  193.8500  176.8660  137.3580 O   0  0  0  0  0  0  0  0  0  0  0  0
  194.0500  175.8450  136.3870 C   0  0  0  0  0  0  0  0  0  0  0  0
  193.1330  175.6120  135.6000 O   0  0  0  0  0  0  0  0  0  0  0  0
  195.3380  175.0060  136.2870 C   0  0  2  0  0  3  0  0  0  0  0  0
  197.3280  175.0310  134.9680 O   0  0  0  0  0  1  0  0  0  0  0  0
  195.9410  174.9160  134.8760 C   0  0  0  0  0  2  0  0  0  0  0  0
  193.7490  173.5820  137.4750 O   0  0  0  0  0  1  0  0  0  0  0  0
  195.0280  173.6190  136.8970 C   0  0  2  0  0  3  0  0  0  0  0  0
  196.0600  173.0290  137.8790 C   0  0  1  0  0  3  0  0  0  0  0  0
  196.6620  171.8240  137.4400 O   0  0  0  0  0  0  0  0  0  0  0  0
  195.6730  170.8390  137.2670 C   0  0  0  0  0  2  0  0  0  0  0  0
  195.7740  170.1760  135.9540 C   0  0  0  0  0  0  0  0  0  0  0  0
  194.6300  169.8230  135.2380 O   0  0  0  0  0  0  0  0  0  0  0  0
  196.9070  169.9740  135.4430 O   0  0  0  0  0  1  0  0  0  0  0  0
  196.9900  174.1240  138.5670 C   0  0  0  0  0  2  0  0  0  0  0  0
  197.8550  175.4420  140.8630 C   0  0  0  0  0  1  0  0  0  0  0  0
  196.3030  174.9140  140.0700 S   0  0  0  0  0  0  0  0  0  0  0  0
  188.2130  177.5750  142.7740 C   0  0  0  0  0  2  0  0  0  0  0  0
  188.1130  177.9720  141.2700 C   0  0  0  0  0  2  0  0  0  0  0  0
  186.6900  178.5930  140.6840 C   0  0  2  0  0  3  0  0  0  0  0  0
  185.0940  179.2230  142.9460 C   0  0  0  0  0  0  0  0  0  0  0  0
  185.3540  180.4970  143.0630 O   0  0  0  0  0  0  0  0  0  0  0  0
  185.7460  178.4790  141.8460 N   0  0  0  0  0  2  0  0  0  0  0  0
  184.2210  178.3810  143.9670 C   0  0  0  0  0  2  0  0  0  0  0  0
  186.4330  178.9890  146.5040 O   0  0  0  0  0  0  0  0  0  0  0  0
  185.2500  179.2610  147.0590 O   0  0  0  0  0  0  0  0  0  0  0  0
  184.2950  178.4510  146.4230 C   0  0  0  0  0  2  0  0  0  0  0  0
  184.9190  177.8560  145.1750 C   0  0  0  0  0  3  0  0  0  0  0  0
  186.1490  178.6360  145.1730 C   0  0  0  0  0  2  0  0  0  0  0  0
  186.0370  177.9430  139.3140 C   0  0  1  0  0  3  0  0  0  0  0  0
  184.4500  179.8880  139.2380 N   0  0  0  0  0  2  0  0  0  0  0  0
  182.2670  179.7430  138.1490 C   0  0  0  0  0  2  0  0  0  0  0  0
  183.6850  177.7120  138.1390 C   0  0  0  0  0  0  0  0  0  0  0  0
  182.3180  178.2570  137.7750 C   0  0  0  0  0  2  0  0  0  0  0  0
  183.0090  179.9950  139.4530 C   0  0  0  0  0  2  0  0  0  0  0  0
  184.7500  178.4940  138.8020 N   0  0  0  0  0  0  0  0  0  0  0  0
  183.6740  176.4120  138.1950 O   0  0  0  0  0  0  0  0  0  0  0  0
  187.4500  178.9140  137.7890 O   0  0  0  0  0  0  0  0  0  0  0  0
  187.4550  176.4730  137.6010 N   0  0  0  0  0  2  0  0  0  0  0  0
  187.0310  177.7760  138.1950 C   0  0  0  0  0  0  0  0  0  0  0  0
  188.3640  176.6550  136.4970 C   0  0  1  0  0  3  0  0  0  0  0  0
  189.5180  175.8980  136.6390 O   0  0  0  0  0  1  0  0  0  0  0  0
  187.7170  176.5910  135.1680 C   0  0  0  0  0  1  0  0  0  0  0  0
  1  5  1  0  0  0  0
  2  6  1  6  0  0  0
  2  4  1  0  0  0  0
  2  5  1  0  0  0  0
  4  1  1  0  0  0  0
  5  3  1  1  0  0  0
  7  8  1  0  0  0  0
  7  6  1  0  0  0  0
  9 11  1  0  0  0  0
 10 13  1  6  0  0  0
 10 12  1  0  0  0  0
 10  9  1  0  0  0  0
 11  8  1  0  0  0  0
 12 11  1  0  0  0  0
 14 13  1  0  0  0  0
 15 14  2  0  0  0  0
 16 18  1  6  0  0  0
 16 14  1  0  0  0  0
 16 20  1  0  0  0  0
 18 17  1  0  0  0  0
 20 19  1  1  0  0  0
 20 21  1  0  0  0  0
 21 27  1  6  0  0  0
 22 21  1  0  0  0  0
 23 22  1  0  0  0  0
 24 23  1  0  0  0  0
 25 24  2  0  0  0  0
 26 24  1  0  0  0  0
 27 29  1  0  0  0  0
 29 28  1  0  0  0  0
 30  2  1  0  0  0  0
 31 30  1  0  0  0  0
 32 31  1  1  0  0  0
 32 35  1  0  0  0  0
 33 34  2  0  0  0  0
 33 36  1  0  0  0  0
 35 33  1  0  0  0  0
 36 40  1  0  0  0  0
 37 38  1  0  0  0  0
 39 38  1  0  0  0  0
 40 39  1  0  0  0  0
 41 40  1  0  0  0  0
 41 37  1  0  0  0  0
 42 52  1  6  0  0  0
 42 32  1  0  0  0  0
 43 47  1  0  0  0  0
 44 47  1  0  0  0  0
 45 49  2  0  0  0  0
 45 48  1  0  0  0  0
 46 45  1  0  0  0  0
 46 44  1  0  0  0  0
 48 43  1  0  0  0  0
 48 42  1  0  0  0  0
 50 52  2  0  0  0  0
 51 52  1  0  0  0  0
 53 55  1  6  0  0  0
 53 54  1  0  0  0  0
 53 51  1  0  0  0  0
M  END
>  <MODEL>
3

>  <REMARK>
 VINA RESULT:      -5.0      2.148      3.162
  Name = 
  25 active torsions:
  status: ('A' for Active; 'I' for Inactive)
    1  A    between atoms: C_1  and  C_29
    2  A    between atoms: C_2  and  C_28
    3  A    between atoms: C_2  and  C_31
    4  A    between atoms: C_3  and  S_25
    5  A    between atoms: C_3  and  C_38
    6  A    between atoms: C_4  and  N_40
    7  A    between atoms: C_6  and  C_14
    8  A    between atoms: C_6  and  C_20
    9  A    between atoms: C_6  and  C_53
   10  A    between atoms: O_7  and  C_20
   11  A    between atoms: O_7  and  C_22
   12  A    between atoms: C_13  and  C_48
   13  A    between atoms: C_14  and  C_38
   14  A    between atoms: O_21  and  C_29
   15  A    between atoms: O_21  and  C_38
   16  A    between atoms: N_26  and  C_49
   17  A    between atoms: C_27  and  C_31
   18  A    between atoms: C_27  and  C_54
   19  A    between atoms: C_28  and  C_33
   20  A    between atoms: C_33  and  C_49
   21  A    between atoms: C_33  and  N_52
   22  A    between atoms: N_35  and  C_51
   23  A    between atoms: C_39  and  C_48
   24  A    between atoms: C_45  and  C_49
   25  A    between atoms: C_51  and  C_54
                            x       y       z     vdW  Elec       q    Type
                         _______ _______ _______ _____ _____    ______ ____

>  <TORSDO>
F 25

$$$$
=
 OpenBabel11052415123D

 55 58  0  0  1  0  0  0  0  0999 V2000
  188.4890  177.3850  137.0350 C   0  0  0  0  0  2  0  0  0  0  0  0
  186.4540  177.5320  137.4790 C   0  0  2  0  0  0  0  0  0  0  0  0
  187.8160  179.5640  137.0490 O   0  0  0  0  0  1  0  0  0  0  0  0
  187.5800  176.5760  137.9170 C   0  0  0  0  0  2  0  0  0  0  0  0
  187.4050  178.3090  136.5430 C   0  0  1  0  0  3  0  0  0  0  0  0
  185.4970  178.3900  138.4250 C   0  0  0  0  0  2  0  0  0  0  0  0
  186.0190  178.5300  139.9060 C   0  0  0  0  0  2  0  0  0  0  0  0
  184.7540  178.8680  140.7540 C   0  0  0  0  0  2  0  0  0  0  0  0
  185.4560  177.7460  142.5720 O   0  0  0  0  0  0  0  0  0  0  0  0
  185.2320  178.7230  143.5690 C   0  0  1  0  0  3  0  0  0  0  0  0
  184.3010  178.0940  141.9000 N   0  0  0  0  0  0  0  0  0  0  0  0
  183.9330  179.0660  142.9010 C   0  0  0  0  0  2  0  0  0  0  0  0
  185.0200  178.0900  144.8300 O   0  0  0  0  0  0  0  0  0  0  0  0
  185.9380  178.4180  145.8670 C   0  0  0  0  0  0  0  0  0  0  0  0
  185.7790  179.4840  146.4610 O   0  0  0  0  0  0  0  0  0  0  0  0
  187.1270  177.5230  146.2650 C   0  0  2  0  0  3  0  0  0  0  0  0
  187.4800  177.2860  148.6140 O   0  0  0  0  0  1  0  0  0  0  0  0
  187.9110  178.0020  147.4980 C   0  0  0  0  0  2  0  0  0  0  0  0
  187.5830  176.3070  144.1970 O   0  0  0  0  0  1  0  0  0  0  0  0
  188.0180  177.3640  145.0110 C   0  0  2  0  0  3  0  0  0  0  0  0
  189.5410  177.2590  145.2310 C   0  0  1  0  0  3  0  0  0  0  0  0
  190.3010  178.2320  144.5360 O   0  0  0  0  0  0  0  0  0  0  0  0
  189.7570  178.4280  143.2550 C   0  0  0  0  0  2  0  0  0  0  0  0
  190.3750  177.5450  142.2490 C   0  0  0  0  0  0  0  0  0  0  0  0
  191.7490  177.2990  142.2570 O   0  0  0  0  0  1  0  0  0  0  0  0
  189.6500  176.9600  141.4030 O   0  0  0  0  0  0  0  0  0  0  0  0
  189.9500  176.9210  146.7330 C   0  0  0  0  0  2  0  0  0  0  0  0
  192.0580  175.1020  146.7800 C   0  0  0  0  0  1  0  0  0  0  0  0
  191.7490  176.8720  147.0730 S   0  0  0  0  0  0  0  0  0  0  0  0
  185.5760  176.7780  136.4900 C   0  0  0  0  0  2  0  0  0  0  0  0
  184.0690  176.8860  136.8680 C   0  0  0  0  0  2  0  0  0  0  0  0
  183.2750  175.5470  137.4440 C   0  0  2  0  0  3  0  0  0  0  0  0
  184.7440  173.1890  136.8600 C   0  0  0  0  0  0  0  0  0  0  0  0
  185.1310  172.8550  138.0610 O   0  0  0  0  0  0  0  0  0  0  0  0
  183.9190  174.4070  136.7080 N   0  0  0  0  0  2  0  0  0  0  0  0
  185.1900  172.4510  135.5290 C   0  0  0  0  0  2  0  0  0  0  0  0
  188.1890  174.0710  135.8260 O   0  0  0  0  0  0  0  0  0  0  0  0
  188.2110  173.1990  136.8370 O   0  0  0  0  0  0  0  0  0  0  0  0
  187.4410  172.0900  136.4480 C   0  0  0  0  0  2  0  0  0  0  0  0
  186.6460  172.4620  135.2100 C   0  0  0  0  0  3  0  0  0  0  0  0
  186.9410  173.8890  135.2040 C   0  0  0  0  0  2  0  0  0  0  0  0
  181.6290  175.4810  137.3320 C   0  0  1  0  0  3  0  0  0  0  0  0
  180.7630  173.2620  138.1250 N   0  0  0  0  0  2  0  0  0  0  0  0
  179.9610  171.5500  136.5760 C   0  0  0  0  0  2  0  0  0  0  0  0
  180.7970  173.6680  135.6030 C   0  0  0  0  0  0  0  0  0  0  0  0
  180.2930  172.2790  135.2680 C   0  0  0  0  0  2  0  0  0  0  0  0
  180.9750  171.8950  137.6560 C   0  0  0  0  0  2  0  0  0  0  0  0
  180.9860  174.1850  136.9760 N   0  0  0  0  0  0  0  0  0  0  0  0
  181.4320  174.1940  134.5950 O   0  0  0  0  0  0  0  0  0  0  0  0
  180.2730  175.2600  139.1680 O   0  0  0  0  0  0  0  0  0  0  0  0
  180.9300  177.5900  138.8040 N   0  0  0  0  0  2  0  0  0  0  0  0
  180.9210  176.1300  138.4910 C   0  0  0  0  0  0  0  0  0  0  0  0
  180.0950  177.9020  139.9380 C   0  0  1  0  0  3  0  0  0  0  0  0
  180.8040  177.8850  141.1300 O   0  0  0  0  0  1  0  0  0  0  0  0
  179.2170  179.0760  139.7330 C   0  0  0  0  0  1  0  0  0  0  0  0
  1  4  1  0  0  0  0
  2 30  1  6  0  0  0
  2  4  1  0  0  0  0
  2  6  1  0  0  0  0
  5  1  1  0  0  0  0
  5  3  1  1  0  0  0
  5  2  1  0  0  0  0
  6  7  1  0  0  0  0
  7  8  1  0  0  0  0
  8 11  1  0  0  0  0
  9 10  1  0  0  0  0
 10 13  1  1  0  0  0
 11  9  1  0  0  0  0
 11 12  1  0  0  0  0
 12 10  1  0  0  0  0
 13 14  1  0  0  0  0
 14 16  1  0  0  0  0
 14 15  2  0  0  0  0
 16 18  1  1  0  0  0
 18 17  1  0  0  0  0
 20 19  1  1  0  0  0
 20 21  1  0  0  0  0
 20 16  1  0  0  0  0
 21 27  1  1  0  0  0
 22 21  1  0  0  0  0
 23 22  1  0  0  0  0
 24 25  1  0  0  0  0
 24 23  1  0  0  0  0
 26 24  2  0  0  0  0
 27 29  1  0  0  0  0
 28 29  1  0  0  0  0
 30 31  1  0  0  0  0
 32 31  1  6  0  0  0
 33 34  2  0  0  0  0
 35 33  1  0  0  0  0
 35 32  1  0  0  0  0
 36 33  1  0  0  0  0
 37 38  1  0  0  0  0
 39 38  1  0  0  0  0
 40 36  1  0  0  0  0
 40 39  1  0  0  0  0
 41 40  1  0  0  0  0
 41 37  1  0  0  0  0
 42 32  1  0  0  0  0
 42 52  1  1  0  0  0
 44 47  1  0  0  0  0
 45 48  1  0  0  0  0
 46 45  1  0  0  0  0
 46 44  1  0  0  0  0
 47 43  1  0  0  0  0
 48 42  1  0  0  0  0
 48 43  1  0  0  0  0
 49 45  2  0  0  0  0
 51 53  1  0  0  0  0
 52 51  1  0  0  0  0
 52 50  2  0  0  0  0
 53 55  1  6  0  0  0
 53 54  1  0  0  0  0
M  END
>  <MODEL>
4

>  <REMARK>
 VINA RESULT:      -4.8      4.395      9.067
  Name = 
  25 active torsions:
  status: ('A' for Active; 'I' for Inactive)
    1  A    between atoms: C_1  and  C_29
    2  A    between atoms: C_2  and  C_28
    3  A    between atoms: C_2  and  C_31
    4  A    between atoms: C_3  and  S_25
    5  A    between atoms: C_3  and  C_38
    6  A    between atoms: C_4  and  N_40
    7  A    between atoms: C_6  and  C_14
    8  A    between atoms: C_6  and  C_20
    9  A    between atoms: C_6  and  C_53
   10  A    between atoms: O_7  and  C_20
   11  A    between atoms: O_7  and  C_22
   12  A    between atoms: C_13  and  C_48
   13  A    between atoms: C_14  and  C_38
   14  A    between atoms: O_21  and  C_29
   15  A    between atoms: O_21  and  C_38
   16  A    between atoms: N_26  and  C_49
   17  A    between atoms: C_27  and  C_31
   18  A    between atoms: C_27  and  C_54
   19  A    between atoms: C_28  and  C_33
   20  A    between atoms: C_33  and  C_49
   21  A    between atoms: C_33  and  N_52
   22  A    between atoms: N_35  and  C_51
   23  A    between atoms: C_39  and  C_48
   24  A    between atoms: C_45  and  C_49
   25  A    between atoms: C_51  and  C_54
                            x       y       z     vdW  Elec       q    Type
                         _______ _______ _______ _____ _____    ______ ____

>  <TORSDO>
F 25

$$$$
=
 OpenBabel11052415123D

 55 58  0  0  1  0  0  0  0  0999 V2000
  187.4340  173.9540  136.0410 C   0  0  0  0  0  2  0  0  0  0  0  0
  186.1220  175.5520  135.7490 C   0  0  2  0  0  0  0  0  0  0  0  0
  188.4750  175.6720  134.9620 O   0  0  0  0  0  1  0  0  0  0  0  0
  186.2930  174.4950  136.8560 C   0  0  0  0  0  2  0  0  0  0  0  0
  187.2670  174.9390  134.9130 C   0  0  1  0  0  3  0  0  0  0  0  0
  186.1150  177.1380  135.9250 C   0  0  0  0  0  2  0  0  0  0  0  0
  187.5390  177.7590  136.1930 C   0  0  0  0  0  2  0  0  0  0  0  0
  187.7390  177.6720  137.7380 C   0  0  0  0  0  2  0  0  0  0  0  0
  188.4050  178.8220  139.5510 O   0  0  0  0  0  0  0  0  0  0  0  0
  188.7550  177.7550  140.4090 C   0  0  1  0  0  3  0  0  0  0  0  0
  188.9100  178.1670  138.4450 N   0  0  0  0  0  0  0  0  0  0  0  0
  189.3800  177.0560  139.2370 C   0  0  0  0  0  2  0  0  0  0  0  0
  189.7400  178.1880  141.3460 O   0  0  0  0  0  0  0  0  0  0  0  0
  189.8780  177.4050  142.5260 C   0  0  0  0  0  0  0  0  0  0  0  0
  190.4440  176.3160  142.4340 O   0  0  0  0  0  0  0  0  0  0  0  0
  189.3380  177.8390  143.9030 C   0  0  2  0  0  3  0  0  0  0  0  0
  189.9450  176.9040  146.0140 O   0  0  0  0  0  1  0  0  0  0  0  0
  190.3710  177.8070  145.0410 C   0  0  0  0  0  2  0  0  0  0  0  0
  187.8370  176.0620  143.1600 O   0  0  0  0  0  1  0  0  0  0  0  0
  188.0930  176.9720  144.1980 C   0  0  2  0  0  3  0  0  0  0  0  0
  186.7910  177.7060  144.5800 C   0  0  1  0  0  3  0  0  0  0  0  0
  185.8110  177.7290  143.5570 O   0  0  0  0  0  0  0  0  0  0  0  0
  185.8910  178.9450  142.8560 C   0  0  0  0  0  2  0  0  0  0  0  0
  184.9590  178.9880  141.7140 C   0  0  0  0  0  0  0  0  0  0  0  0
  183.5910  178.7800  141.8950 O   0  0  0  0  0  1  0  0  0  0  0  0
  185.3920  179.2700  140.5660 O   0  0  0  0  0  0  0  0  0  0  0  0
  186.3110  177.4250  146.0720 C   0  0  0  0  0  2  0  0  0  0  0  0
  187.8310  177.5120  148.4040 C   0  0  0  0  0  1  0  0  0  0  0  0
  186.8800  178.6310  147.3280 S   0  0  0  0  0  0  0  0  0  0  0  0
  184.8930  175.1680  134.9390 C   0  0  0  0  0  2  0  0  0  0  0  0
  183.6040  175.1840  135.8140 C   0  0  0  0  0  2  0  0  0  0  0  0
  182.1190  175.0850  135.0800 C   0  0  2  0  0  3  0  0  0  0  0  0
  181.6560  177.8830  135.2040 C   0  0  0  0  0  0  0  0  0  0  0  0
  182.7230  178.3200  134.5940 O   0  0  0  0  0  0  0  0  0  0  0  0
  181.4930  176.4210  135.3600 N   0  0  0  0  0  2  0  0  0  0  0  0
  180.5700  178.8070  135.8990 C   0  0  0  0  0  2  0  0  0  0  0  0
  180.1620  180.5260  138.8280 O   0  0  0  0  0  0  0  0  0  0  0  0
  181.0160  179.5550  139.1610 O   0  0  0  0  0  0  0  0  0  0  0  0
  181.7550  179.2390  138.0080 C   0  0  0  0  0  2  0  0  0  0  0  0
  181.0780  179.8730  136.8080 C   0  0  0  0  0  3  0  0  0  0  0  0
  179.8560  180.3070  137.4740 C   0  0  0  0  0  2  0  0  0  0  0  0
  181.1040  173.8490  135.4910 C   0  0  1  0  0  3  0  0  0  0  0  0
  180.6950  171.4970  134.7130 N   0  0  0  0  0  2  0  0  0  0  0  0
  182.2090  169.6620  135.2710 C   0  0  0  0  0  2  0  0  0  0  0  0
  182.7690  171.9090  136.1470 C   0  0  0  0  0  0  0  0  0  0  0  0
  183.1650  170.4460  136.1770 C   0  0  0  0  0  2  0  0  0  0  0  0
  180.7920  170.2040  135.3850 C   0  0  0  0  0  2  0  0  0  0  0  0
  181.6080  172.4490  135.4070 N   0  0  0  0  0  0  0  0  0  0  0  0
  183.2840  172.5570  137.1520 O   0  0  0  0  0  0  0  0  0  0  0  0
  179.1070  174.0880  136.5940 O   0  0  0  0  0  0  0  0  0  0  0  0
  181.0130  174.3030  138.1160 N   0  0  0  0  0  2  0  0  0  0  0  0
  180.3710  174.0780  136.7860 C   0  0  0  0  0  0  0  0  0  0  0  0
  180.0380  174.5640  139.1460 C   0  0  1  0  0  3  0  0  0  0  0  0
  179.6860  173.4140  139.8380 O   0  0  0  0  0  1  0  0  0  0  0  0
  180.3500  175.7440  139.9840 C   0  0  0  0  0  1  0  0  0  0  0  0
  1  4  1  0  0  0  0
  2 30  1  6  0  0  0
  2  6  1  0  0  0  0
  2  4  1  0  0  0  0
  5  3  1  1  0  0  0
  5  2  1  0  0  0  0
  5  1  1  0  0  0  0
  6  7  1  0  0  0  0
  7  8  1  0  0  0  0
  8 11  1  0  0  0  0
  9 10  1  0  0  0  0
 10 13  1  1  0  0  0
 11 12  1  0  0  0  0
 11  9  1  0  0  0  0
 12 10  1  0  0  0  0
 13 14  1  0  0  0  0
 14 16  1  0  0  0  0
 15 14  2  0  0  0  0
 16 20  1  0  0  0  0
 16 18  1  1  0  0  0
 18 17  1  0  0  0  0
 20 19  1  6  0  0  0
 20 21  1  0  0  0  0
 21 27  1  1  0  0  0
 22 21  1  0  0  0  0
 23 22  1  0  0  0  0
 24 25  1  0  0  0  0
 24 23  1  0  0  0  0
 26 24  2  0  0  0  0
 27 29  1  0  0  0  0
 29 28  1  0  0  0  0
 30 31  1  0  0  0  0
 32 35  1  0  0  0  0
 32 42  1  0  0  0  0
 32 31  1  1  0  0  0
 33 35  1  0  0  0  0
 33 36  1  0  0  0  0
 34 33  2  0  0  0  0
 36 40  1  0  0  0  0
 37 38  1  0  0  0  0
 39 38  1  0  0  0  0
 40 41  1  0  0  0  0
 40 39  1  0  0  0  0
 41 37  1  0  0  0  0
 42 52  1  1  0  0  0
 43 47  1  0  0  0  0
 43 48  1  0  0  0  0
 44 47  1  0  0  0  0
 44 46  1  0  0  0  0
 45 46  1  0  0  0  0
 45 49  2  0  0  0  0
 48 42  1  0  0  0  0
 48 45  1  0  0  0  0
 50 52  2  0  0  0  0
 51 53  1  0  0  0  0
 52 51  1  0  0  0  0
 53 54  1  0  0  0  0
 53 55  1  1  0  0  0
M  END
>  <MODEL>
5

>  <REMARK>
 VINA RESULT:      -4.7      4.728      9.350
  Name = 
  25 active torsions:
  status: ('A' for Active; 'I' for Inactive)
    1  A    between atoms: C_1  and  C_29
    2  A    between atoms: C_2  and  C_28
    3  A    between atoms: C_2  and  C_31
    4  A    between atoms: C_3  and  S_25
    5  A    between atoms: C_3  and  C_38
    6  A    between atoms: C_4  and  N_40
    7  A    between atoms: C_6  and  C_14
    8  A    between atoms: C_6  and  C_20
    9  A    between atoms: C_6  and  C_53
   10  A    between atoms: O_7  and  C_20
   11  A    between atoms: O_7  and  C_22
   12  A    between atoms: C_13  and  C_48
   13  A    between atoms: C_14  and  C_38
   14  A    between atoms: O_21  and  C_29
   15  A    between atoms: O_21  and  C_38
   16  A    between atoms: N_26  and  C_49
   17  A    between atoms: C_27  and  C_31
   18  A    between atoms: C_27  and  C_54
   19  A    between atoms: C_28  and  C_33
   20  A    between atoms: C_33  and  C_49
   21  A    between atoms: C_33  and  N_52
   22  A    between atoms: N_35  and  C_51
   23  A    between atoms: C_39  and  C_48
   24  A    between atoms: C_45  and  C_49
   25  A    between atoms: C_51  and  C_54
                            x       y       z     vdW  Elec       q    Type
                         _______ _______ _______ _____ _____    ______ ____

>  <TORSDO>
F 25

$$$$
=
 OpenBabel11052415123D

 55 58  0  0  1  0  0  0  0  0999 V2000
  180.1870  180.1480  139.9330 C   0  0  0  0  0  2  0  0  0  0  0  0
  181.7790  178.9600  140.5750 C   0  0  2  0  0  0  0  0  0  0  0  0
  180.4470  180.2930  142.1930 O   0  0  0  0  0  1  0  0  0  0  0  0
  181.5000  179.7800  139.3010 C   0  0  0  0  0  2  0  0  0  0  0  0
  180.4000  179.3170  141.1710 C   0  0  1  0  0  3  0  0  0  0  0  0
  183.0450  179.0800  141.5380 C   0  0  0  0  0  2  0  0  0  0  0  0
  182.9080  178.2630  142.8800 C   0  0  0  0  0  2  0  0  0  0  0  0
  182.8140  179.3390  144.0050 C   0  0  0  0  0  2  0  0  0  0  0  0
  184.0850  178.5040  145.6610 O   0  0  0  0  0  0  0  0  0  0  0  0
  185.2560  178.1800  144.9380 C   0  0  1  0  0  3  0  0  0  0  0  0
  183.8910  179.6590  144.9300 N   0  0  0  0  0  0  0  0  0  0  0  0
  185.1110  179.4690  144.1820 C   0  0  0  0  0  2  0  0  0  0  0  0
  186.3870  178.2080  145.8070 O   0  0  0  0  0  0  0  0  0  0  0  0
  187.4650  177.3430  145.4720 C   0  0  0  0  0  0  0  0  0  0  0  0
  187.4480  176.8020  144.3670 O   0  0  0  0  0  0  0  0  0  0  0  0
  188.6350  177.0310  146.4260 C   0  0  2  0  0  3  0  0  0  0  0  0
  189.5720  177.8090  148.4790 O   0  0  0  0  0  1  0  0  0  0  0  0
  188.3770  177.3820  147.9000 C   0  0  0  0  0  2  0  0  0  0  0  0
  189.5640  178.9380  145.2170 O   0  0  0  0  0  1  0  0  0  0  0  0
  189.8890  177.7300  145.8520 C   0  0  2  0  0  3  0  0  0  0  0  0
  190.8130  176.8950  144.9420 C   0  0  1  0  0  3  0  0  0  0  0  0
  191.0450  177.4630  143.6650 O   0  0  0  0  0  0  0  0  0  0  0  0
  190.3030  176.7640  142.6960 C   0  0  0  0  0  2  0  0  0  0  0  0
  190.9000  176.8770  141.3530 C   0  0  0  0  0  0  0  0  0  0  0  0
  190.1570  176.5820  140.2090 O   0  0  0  0  0  0  0  0  0  0  0  0
  192.0800  177.2980  141.2280 O   0  0  0  0  0  1  0  0  0  0  0  0
  192.0470  176.2420  145.7070 C   0  0  0  0  0  2  0  0  0  0  0  0
  192.7390  176.0460  148.3980 C   0  0  0  0  0  1  0  0  0  0  0  0
  191.6260  175.2560  147.1930 S   0  0  0  0  0  0  0  0  0  0  0  0
  181.6030  177.4910  140.2180 C   0  0  0  0  0  2  0  0  0  0  0  0
  182.9360  176.8630  139.7130 C   0  0  0  0  0  2  0  0  0  0  0  0
  183.1280  176.5490  138.0940 C   0  0  2  0  0  3  0  0  0  0  0  0
  180.5590  175.7360  137.1980 C   0  0  0  0  0  0  0  0  0  0  0  0
  180.0760  176.8860  136.8120 O   0  0  0  0  0  0  0  0  0  0  0  0
  181.9320  175.7090  137.7510 N   0  0  0  0  0  2  0  0  0  0  0  0
  179.7430  174.3770  137.2280 C   0  0  0  0  0  2  0  0  0  0  0  0
  180.8370  171.1390  137.0710 O   0  0  0  0  0  0  0  0  0  0  0  0
  179.5390  171.0380  136.7730 O   0  0  0  0  0  0  0  0  0  0  0  0
  179.1580  172.2430  136.1590 C   0  0  0  0  0  2  0  0  0  0  0  0
  180.2560  173.2660  136.3760 C   0  0  0  0  0  3  0  0  0  0  0  0
  181.0560  172.5040  137.3260 C   0  0  0  0  0  2  0  0  0  0  0  0
  184.5270  175.8420  137.5760 C   0  0  1  0  0  3  0  0  0  0  0  0
  185.3920  173.5190  137.1830 N   0  0  0  0  0  2  0  0  0  0  0  0
  184.6550  172.1590  135.2910 C   0  0  0  0  0  2  0  0  0  0  0  0
  183.7030  174.4360  135.4990 C   0  0  0  0  0  0  0  0  0  0  0  0
  183.7640  173.2080  134.6130 C   0  0  0  0  0  2  0  0  0  0  0  0
  185.8380  172.8220  135.9790 C   0  0  0  0  0  2  0  0  0  0  0  0
  184.4420  174.5910  136.7710 N   0  0  0  0  0  0  0  0  0  0  0  0
  183.2850  175.4750  134.8360 O   0  0  0  0  0  0  0  0  0  0  0  0
  185.0500  177.2460  135.8380 O   0  0  0  0  0  0  0  0  0  0  0  0
  186.8190  177.2030  137.5310 N   0  0  0  0  0  2  0  0  0  0  0  0
  185.4960  176.8130  136.9560 C   0  0  0  0  0  0  0  0  0  0  0  0
  187.5420  178.0960  136.6600 C   0  0  1  0  0  3  0  0  0  0  0  0
  188.3240  178.9970  137.3680 O   0  0  0  0  0  1  0  0  0  0  0  0
  188.2130  177.4200  135.5280 C   0  0  0  0  0  1  0  0  0  0  0  0
  1  5  1  0  0  0  0
  2 30  1  6  0  0  0
  2  5  1  0  0  0  0
  2  6  1  0  0  0  0
  4  1  1  0  0  0  0
  4  2  1  0  0  0  0
  5  3  1  1  0  0  0
  6  7  1  0  0  0  0
  7  8  1  0  0  0  0
  8 11  1  0  0  0  0
 10  9  1  0  0  0  0
 10 13  1  1  0  0  0
 11  9  1  0  0  0  0
 12 11  1  0  0  0  0
 12 10  1  0  0  0  0
 14 13  1  0  0  0  0
 14 16  1  0  0  0  0
 15 14  2  0  0  0  0
 16 18  1  1  0  0  0
 18 17  1  0  0  0  0
 20 19  1  6  0  0  0
 20 16  1  0  0  0  0
 21 27  1  1  0  0  0
 21 20  1  0  0  0  0
 22 21  1  0  0  0  0
 23 22  1  0  0  0  0
 24 23  1  0  0  0  0
 25 24  2  0  0  0  0
 26 24  1  0  0  0  0
 27 29  1  0  0  0  0
 29 28  1  0  0  0  0
 31 30  1  0  0  0  0
 32 31  1  1  0  0  0
 33 36  1  0  0  0  0
 33 35  1  0  0  0  0
 34 33  2  0  0  0  0
 35 32  1  0  0  0  0
 37 41  1  0  0  0  0
 38 37  1  0  0  0  0
 39 40  1  0  0  0  0
 39 38  1  0  0  0  0
 40 36  1  0  0  0  0
 40 41  1  0  0  0  0
 42 52  1  6  0  0  0
 42 32  1  0  0  0  0
 44 47  1  0  0  0  0
 45 48  1  0  0  0  0
 46 44  1  0  0  0  0
 46 45  1  0  0  0  0
 47 43  1  0  0  0  0
 48 43  1  0  0  0  0
 48 42  1  0  0  0  0
 49 45  2  0  0  0  0
 50 52  2  0  0  0  0
 52 51  1  0  0  0  0
 53 55  1  6  0  0  0
 53 54  1  0  0  0  0
 53 51  1  0  0  0  0
M  END
>  <MODEL>
6

>  <REMARK>
 VINA RESULT:      -4.7      4.485      9.339
  Name = 
  25 active torsions:
  status: ('A' for Active; 'I' for Inactive)
    1  A    between atoms: C_1  and  C_29
    2  A    between atoms: C_2  and  C_28
    3  A    between atoms: C_2  and  C_31
    4  A    between atoms: C_3  and  S_25
    5  A    between atoms: C_3  and  C_38
    6  A    between atoms: C_4  and  N_40
    7  A    between atoms: C_6  and  C_14
    8  A    between atoms: C_6  and  C_20
    9  A    between atoms: C_6  and  C_53
   10  A    between atoms: O_7  and  C_20
   11  A    between atoms: O_7  and  C_22
   12  A    between atoms: C_13  and  C_48
   13  A    between atoms: C_14  and  C_38
   14  A    between atoms: O_21  and  C_29
   15  A    between atoms: O_21  and  C_38
   16  A    between atoms: N_26  and  C_49
   17  A    between atoms: C_27  and  C_31
   18  A    between atoms: C_27  and  C_54
   19  A    between atoms: C_28  and  C_33
   20  A    between atoms: C_33  and  C_49
   21  A    between atoms: C_33  and  N_52
   22  A    between atoms: N_35  and  C_51
   23  A    between atoms: C_39  and  C_48
   24  A    between atoms: C_45  and  C_49
   25  A    between atoms: C_51  and  C_54
                            x       y       z     vdW  Elec       q    Type
                         _______ _______ _______ _____ _____    ______ ____

>  <TORSDO>
F 25

$$$$
=
 OpenBabel11052415123D

 55 58  0  0  1  0  0  0  0  0999 V2000
  186.7960  177.8440  146.8960 C   0  0  0  0  0  2  0  0  0  0  0  0
  185.4700  178.6370  145.4920 C   0  0  2  0  0  0  0  0  0  0  0  0
  185.6910  179.6460  147.7510 O   0  0  0  0  0  1  0  0  0  0  0  0
  185.9640  177.2140  145.8150 C   0  0  0  0  0  2  0  0  0  0  0  0
  186.3770  179.2560  146.5780 C   0  0  1  0  0  3  0  0  0  0  0  0
  183.9570  179.1400  145.4310 C   0  0  0  0  0  2  0  0  0  0  0  0
  183.3750  179.2420  143.9690 C   0  0  0  0  0  2  0  0  0  0  0  0
  181.8670  178.8630  144.1030 C   0  0  0  0  0  2  0  0  0  0  0  0
  181.2980  179.0270  141.9340 O   0  0  0  0  0  0  0  0  0  0  0  0
  180.4490  177.9030  141.8130 C   0  0  1  0  0  3  0  0  0  0  0  0
  180.8220  179.3150  143.1970 N   0  0  0  0  0  0  0  0  0  0  0  0
  179.8600  178.2410  143.1520 C   0  0  0  0  0  2  0  0  0  0  0  0
  179.5100  178.1140  140.7600 O   0  0  0  0  0  0  0  0  0  0  0  0
  179.7610  177.4260  139.5400 C   0  0  0  0  0  0  0  0  0  0  0  0
  180.0730  178.0940  138.5550 O   0  0  0  0  0  0  0  0  0  0  0  0
  179.6410  175.8970  139.3850 C   0  0  2  0  0  3  0  0  0  0  0  0
  179.3220  173.8340  140.5410 O   0  0  0  0  0  1  0  0  0  0  0  0
  178.9610  175.1800  140.5620 C   0  0  0  0  0  2  0  0  0  0  0  0
  182.0500  176.1380  139.7030 O   0  0  0  0  0  1  0  0  0  0  0  0
  181.0590  175.3560  139.0890 C   0  0  2  0  0  3  0  0  0  0  0  0
  181.4310  175.1090  137.6130 C   0  0  1  0  0  3  0  0  0  0  0  0
  182.7200  174.5540  137.4200 O   0  0  0  0  0  0  0  0  0  0  0  0
  182.6010  173.2000  137.0590 C   0  0  0  0  0  2  0  0  0  0  0  0
  183.9070  172.5170  137.0350 C   0  0  0  0  0  0  0  0  0  0  0  0
  185.0880  173.2140  137.2940 O   0  0  0  0  0  1  0  0  0  0  0  0
  183.9570  171.2760  136.8310 O   0  0  0  0  0  0  0  0  0  0  0  0
  180.2300  174.5400  136.7360 C   0  0  0  0  0  2  0  0  0  0  0  0
  180.6790  176.4760  134.7860 C   0  0  0  0  0  1  0  0  0  0  0  0
  179.3050  175.7810  135.7570 S   0  0  0  0  0  0  0  0  0  0  0  0
  186.1590  179.0780  144.2100 C   0  0  0  0  0  2  0  0  0  0  0  0
  185.7370  178.1900  143.0010 C   0  0  0  0  0  2  0  0  0  0  0  0
  186.8950  177.3340  142.1740 C   0  0  2  0  0  3  0  0  0  0  0  0
  189.1570  177.4390  143.8850 C   0  0  0  0  0  0  0  0  0  0  0  0
  188.9310  176.3900  144.6300 O   0  0  0  0  0  0  0  0  0  0  0  0
  188.1810  177.7590  142.8200 N   0  0  0  0  0  2  0  0  0  0  0  0
  190.3420  178.4680  144.1100 C   0  0  0  0  0  2  0  0  0  0  0  0
  192.0080  175.9960  145.7880 O   0  0  0  0  0  0  0  0  0  0  0  0
  191.9830  175.5480  144.5300 O   0  0  0  0  0  0  0  0  0  0  0  0
  191.9670  176.6730  143.6890 C   0  0  0  0  0  2  0  0  0  0  0  0
  191.6560  177.9000  144.5250 C   0  0  0  0  0  3  0  0  0  0  0  0
  191.3100  177.2160  145.7640 C   0  0  0  0  0  2  0  0  0  0  0  0
  186.9740  177.4750  140.5310 C   0  0  1  0  0  3  0  0  0  0  0  0
  185.1770  179.2180  140.7270 N   0  0  0  0  0  2  0  0  0  0  0  0
  183.8140  179.9010  138.8170 C   0  0  0  0  0  2  0  0  0  0  0  0
  185.5240  178.1510  138.4310 C   0  0  0  0  0  0  0  0  0  0  0  0
  184.3780  178.9100  137.7920 C   0  0  0  0  0  2  0  0  0  0  0  0
  183.8120  179.2910  140.2100 C   0  0  0  0  0  2  0  0  0  0  0  0
  185.9620  178.3180  139.8340 N   0  0  0  0  0  0  0  0  0  0  0  0
  185.7990  177.0660  137.7680 O   0  0  0  0  0  0  0  0  0  0  0  0
  188.5240  179.0260  139.8570 O   0  0  0  0  0  0  0  0  0  0  0  0
  189.3990  176.7440  139.7000 N   0  0  0  0  0  2  0  0  0  0  0  0
  188.3590  177.7680  140.0190 C   0  0  0  0  0  0  0  0  0  0  0  0
  190.5950  177.3420  139.1600 C   0  0  1  0  0  3  0  0  0  0  0  0
  191.7240  177.0070  139.8930 O   0  0  0  0  0  1  0  0  0  0  0  0
  190.7230  177.2090  137.6920 C   0  0  0  0  0  1  0  0  0  0  0  0
  2 30  1  6  0  0  0
  2  4  1  0  0  0  0
  2  5  1  0  0  0  0
  4  1  1  0  0  0  0
  5  1  1  0  0  0  0
  5  3  1  1  0  0  0
  6  2  1  0  0  0  0
  7  8  1  0  0  0  0
  7  6  1  0  0  0  0
  9 11  1  0  0  0  0
 10 13  1  6  0  0  0
 10  9  1  0  0  0  0
 10 12  1  0  0  0  0
 11  8  1  0  0  0  0
 12 11  1  0  0  0  0
 14 13  1  0  0  0  0
 15 14  2  0  0  0  0
 16 14  1  0  0  0  0
 16 18  1  1  0  0  0
 17 18  1  0  0  0  0
 20 16  1  0  0  0  0
 20 19  1  6  0  0  0
 21 27  1  1  0  0  0
 21 20  1  0  0  0  0
 22 21  1  0  0  0  0
 23 22  1  0  0  0  0
 24 23  1  0  0  0  0
 24 25  1  0  0  0  0
 26 24  2  0  0  0  0
 28 29  1  0  0  0  0
 29 27  1  0  0  0  0
 31 30  1  0  0  0  0
 32 35  1  0  0  0  0
 32 31  1  1  0  0  0
 33 36  1  0  0  0  0
 33 34  2  0  0  0  0
 35 33  1  0  0  0  0
 36 40  1  0  0  0  0
 38 37  1  0  0  0  0
 39 40  1  0  0  0  0
 39 38  1  0  0  0  0
 40 41  1  0  0  0  0
 41 37  1  0  0  0  0
 42 52  1  1  0  0  0
 42 32  1  0  0  0  0
 44 47  1  0  0  0  0
 45 48  1  0  0  0  0
 46 45  1  0  0  0  0
 46 44  1  0  0  0  0
 47 43  1  0  0  0  0
 48 42  1  0  0  0  0
 48 43  1  0  0  0  0
 49 45  2  0  0  0  0
 50 52  2  0  0  0  0
 51 52  1  0  0  0  0
 53 55  1  6  0  0  0
 53 51  1  0  0  0  0
 53 54  1  0  0  0  0
M  END
>  <MODEL>
7

>  <REMARK>
 VINA RESULT:      -4.3      4.465      9.194
  Name = 
  25 active torsions:
  status: ('A' for Active; 'I' for Inactive)
    1  A    between atoms: C_1  and  C_29
    2  A    between atoms: C_2  and  C_28
    3  A    between atoms: C_2  and  C_31
    4  A    between atoms: C_3  and  S_25
    5  A    between atoms: C_3  and  C_38
    6  A    between atoms: C_4  and  N_40
    7  A    between atoms: C_6  and  C_14
    8  A    between atoms: C_6  and  C_20
    9  A    between atoms: C_6  and  C_53
   10  A    between atoms: O_7  and  C_20
   11  A    between atoms: O_7  and  C_22
   12  A    between atoms: C_13  and  C_48
   13  A    between atoms: C_14  and  C_38
   14  A    between atoms: O_21  and  C_29
   15  A    between atoms: O_21  and  C_38
   16  A    between atoms: N_26  and  C_49
   17  A    between atoms: C_27  and  C_31
   18  A    between atoms: C_27  and  C_54
   19  A    between atoms: C_28  and  C_33
   20  A    between atoms: C_33  and  C_49
   21  A    between atoms: C_33  and  N_52
   22  A    between atoms: N_35  and  C_51
   23  A    between atoms: C_39  and  C_48
   24  A    between atoms: C_45  and  C_49
   25  A    between atoms: C_51  and  C_54
                            x       y       z     vdW  Elec       q    Type
                         _______ _______ _______ _____ _____    ______ ____

>  <TORSDO>
F 25

$$$$
=
 OpenBabel11052415123D

 55 58  0  0  1  0  0  0  0  0999 V2000
  187.1600  177.3430  147.1640 C   0  0  0  0  0  2  0  0  0  0  0  0
  185.9450  178.1830  145.6890 C   0  0  2  0  0  0  0  0  0  0  0  0
  186.1730  179.2550  147.9190 O   0  0  0  0  0  1  0  0  0  0  0  0
  186.3160  176.7390  146.0780 C   0  0  0  0  0  2  0  0  0  0  0  0
  186.8630  178.7700  146.7840 C   0  0  1  0  0  3  0  0  0  0  0  0
  184.4790  178.7990  145.5590 C   0  0  0  0  0  2  0  0  0  0  0  0
  184.0140  179.0370  144.0710 C   0  0  0  0  0  2  0  0  0  0  0  0
  182.4590  178.9210  144.1060 C   0  0  0  0  0  2  0  0  0  0  0  0
  181.9780  179.1050  141.9170 O   0  0  0  0  0  0  0  0  0  0  0  0
  180.8890  178.2090  141.8240 C   0  0  1  0  0  3  0  0  0  0  0  0
  181.5640  179.5610  143.1530 N   0  0  0  0  0  0  0  0  0  0  0  0
  180.3750  178.7430  143.1300 C   0  0  0  0  0  2  0  0  0  0  0  0
  180.0430  178.5830  140.7380 O   0  0  0  0  0  0  0  0  0  0  0  0
  179.7660  177.5730  139.7750 C   0  0  0  0  0  0  0  0  0  0  0  0
  179.4460  176.4570  140.1840 O   0  0  0  0  0  0  0  0  0  0  0  0
  179.8670  177.7970  138.2530 C   0  0  2  0  0  3  0  0  0  0  0  0
  179.6950  180.0720  137.5500 O   0  0  0  0  0  1  0  0  0  0  0  0
  178.9520  178.9020  137.7020 C   0  0  0  0  0  2  0  0  0  0  0  0
  179.0820  175.4950  138.4670 O   0  0  0  0  0  1  0  0  0  0  0  0
  179.6320  176.4280  137.5740 C   0  0  2  0  0  3  0  0  0  0  0  0
  180.8220  175.7940  136.8250 C   0  0  1  0  0  3  0  0  0  0  0  0
  182.0890  176.2940  137.2110 O   0  0  0  0  0  0  0  0  0  0  0  0
  182.5590  177.1920  136.2360 C   0  0  0  0  0  2  0  0  0  0  0  0
  183.9890  176.9910  135.9390 C   0  0  0  0  0  0  0  0  0  0  0  0
  184.7990  176.2330  136.7880 O   0  0  0  0  0  1  0  0  0  0  0  0
  184.4790  177.4620  134.8800 O   0  0  0  0  0  0  0  0  0  0  0  0
  180.6720  174.2250  136.5960 C   0  0  0  0  0  2  0  0  0  0  0  0
  181.3980  172.2250  134.7990 C   0  0  0  0  0  1  0  0  0  0  0  0
  180.3390  173.7040  134.8710 S   0  0  0  0  0  0  0  0  0  0  0  0
  186.7070  178.5210  144.4170 C   0  0  0  0  0  2  0  0  0  0  0  0
  186.8850  177.2680  143.5080 C   0  0  0  0  0  2  0  0  0  0  0  0
  188.2470  177.1290  142.5690 C   0  0  2  0  0  3  0  0  0  0  0  0
  190.7130  178.1020  143.5860 C   0  0  0  0  0  0  0  0  0  0  0  0
  191.2690  178.5180  142.4810 O   0  0  0  0  0  0  0  0  0  0  0  0
  189.3630  177.5030  143.5020 N   0  0  0  0  0  2  0  0  0  0  0  0
  191.4230  178.0820  145.0040 C   0  0  0  0  0  2  0  0  0  0  0  0
  192.3000  175.4380  146.9890 O   0  0  0  0  0  0  0  0  0  0  0  0
  192.3370  176.4750  147.8290 O   0  0  0  0  0  0  0  0  0  0  0  0
  191.4000  177.4160  147.3690 C   0  0  0  0  0  2  0  0  0  0  0  0
  190.9770  177.0320  145.9640 C   0  0  0  0  0  3  0  0  0  0  0  0
  191.9610  175.9820  145.7380 C   0  0  0  0  0  2  0  0  0  0  0  0
  188.3360  177.9790  141.1560 C   0  0  1  0  0  3  0  0  0  0  0  0
  189.6960  176.0590  140.2800 N   0  0  0  0  0  2  0  0  0  0  0  0
  190.6270  176.0490  138.0210 C   0  0  0  0  0  2  0  0  0  0  0  0
  189.3300  178.0420  138.7120 C   0  0  0  0  0  0  0  0  0  0  0  0
  190.1860  177.4580  137.6060 C   0  0  0  0  0  2  0  0  0  0  0  0
  190.9350  175.9970  139.5090 C   0  0  0  0  0  2  0  0  0  0  0  0
  189.0370  177.3650  139.9940 N   0  0  0  0  0  0  0  0  0  0  0  0
  189.2340  179.3360  138.6000 O   0  0  0  0  0  0  0  0  0  0  0  0
  186.6290  179.4500  141.5850 O   0  0  0  0  0  0  0  0  0  0  0  0
  186.2490  178.2030  139.5130 N   0  0  0  0  0  2  0  0  0  0  0  0
  187.0220  178.5810  140.7330 C   0  0  0  0  0  0  0  0  0  0  0  0
  184.9960  178.9100  139.4290 C   0  0  1  0  0  3  0  0  0  0  0  0
  184.9760  179.8180  138.3800 O   0  0  0  0  0  1  0  0  0  0  0  0
  183.8050  178.0390  139.5430 C   0  0  0  0  0  1  0  0  0  0  0  0
  2 30  1  6  0  0  0
  2  4  1  0  0  0  0
  2  5  1  0  0  0  0
  4  1  1  0  0  0  0
  5  1  1  0  0  0  0
  5  3  1  1  0  0  0
  6  2  1  0  0  0  0
  7  8  1  0  0  0  0
  7  6  1  0  0  0  0
  9 11  1  0  0  0  0
 10 13  1  6  0  0  0
 10  9  1  0  0  0  0
 10 12  1  0  0  0  0
 11  8  1  0  0  0  0
 12 11  1  0  0  0  0
 14 15  2  0  0  0  0
 14 13  1  0  0  0  0
 16 18  1  6  0  0  0
 16 14  1  0  0  0  0
 17 18  1  0  0  0  0
 20 16  1  0  0  0  0
 20 19  1  1  0  0  0
 21 27  1  1  0  0  0
 21 22  1  0  0  0  0
 21 20  1  0  0  0  0
 23 22  1  0  0  0  0
 24 23  1  0  0  0  0
 24 25  1  0  0  0  0
 26 24  2  0  0  0  0
 28 29  1  0  0  0  0
 29 27  1  0  0  0  0
 31 30  1  0  0  0  0
 32 35  1  0  0  0  0
 32 31  1  1  0  0  0
 33 36  1  0  0  0  0
 34 33  2  0  0  0  0
 35 33  1  0  0  0  0
 36 40  1  0  0  0  0
 37 38  1  0  0  0  0
 39 38  1  0  0  0  0
 40 39  1  0  0  0  0
 41 40  1  0  0  0  0
 41 37  1  0  0  0  0
 42 52  1  6  0  0  0
 42 32  1  0  0  0  0
 44 47  1  0  0  0  0
 45 48  1  0  0  0  0
 46 44  1  0  0  0  0
 46 45  1  0  0  0  0
 47 43  1  0  0  0  0
 48 43  1  0  0  0  0
 48 42  1  0  0  0  0
 49 45  2  0  0  0  0
 51 52  1  0  0  0  0
 52 50  2  0  0  0  0
 53 51  1  0  0  0  0
 53 55  1  6  0  0  0
 54 53  1  0  0  0  0
M  END
>  <MODEL>
8

>  <REMARK>
 VINA RESULT:      -4.3      4.594      9.783
  Name = 
  25 active torsions:
  status: ('A' for Active; 'I' for Inactive)
    1  A    between atoms: C_1  and  C_29
    2  A    between atoms: C_2  and  C_28
    3  A    between atoms: C_2  and  C_31
    4  A    between atoms: C_3  and  S_25
    5  A    between atoms: C_3  and  C_38
    6  A    between atoms: C_4  and  N_40
    7  A    between atoms: C_6  and  C_14
    8  A    between atoms: C_6  and  C_20
    9  A    between atoms: C_6  and  C_53
   10  A    between atoms: O_7  and  C_20
   11  A    between atoms: O_7  and  C_22
   12  A    between atoms: C_13  and  C_48
   13  A    between atoms: C_14  and  C_38
   14  A    between atoms: O_21  and  C_29
   15  A    between atoms: O_21  and  C_38
   16  A    between atoms: N_26  and  C_49
   17  A    between atoms: C_27  and  C_31
   18  A    between atoms: C_27  and  C_54
   19  A    between atoms: C_28  and  C_33
   20  A    between atoms: C_33  and  C_49
   21  A    between atoms: C_33  and  N_52
   22  A    between atoms: N_35  and  C_51
   23  A    between atoms: C_39  and  C_48
   24  A    between atoms: C_45  and  C_49
   25  A    between atoms: C_51  and  C_54
                            x       y       z     vdW  Elec       q    Type
                         _______ _______ _______ _____ _____    ______ ____

>  <TORSDO>
F 25

$$$$
=
 OpenBabel11052415123D

 55 58  0  0  1  0  0  0  0  0999 V2000
  180.1800  180.1950  139.3490 C   0  0  0  0  0  2  0  0  0  0  0  0
  181.7800  178.9680  139.8890 C   0  0  2  0  0  0  0  0  0  0  0  0
  180.4940  180.2210  141.6070 O   0  0  0  0  0  1  0  0  0  0  0  0
  181.4750  179.8550  138.6670 C   0  0  0  0  0  2  0  0  0  0  0  0
  180.4170  179.3000  140.5360 C   0  0  1  0  0  3  0  0  0  0  0  0
  183.0690  179.0320  140.8280 C   0  0  0  0  0  2  0  0  0  0  0  0
  182.9930  178.0840  142.0850 C   0  0  0  0  0  2  0  0  0  0  0  0
  182.6440  179.0210  143.2830 C   0  0  0  0  0  2  0  0  0  0  0  0
  184.0600  178.1680  144.8070 O   0  0  0  0  0  0  0  0  0  0  0  0
  185.2900  178.3510  144.1350 C   0  0  1  0  0  3  0  0  0  0  0  0
  183.5700  179.3750  144.3470 N   0  0  0  0  0  0  0  0  0  0  0  0
  184.8110  179.7020  143.6870 C   0  0  0  0  0  2  0  0  0  0  0  0
  186.3500  178.4610  145.0830 O   0  0  0  0  0  0  0  0  0  0  0  0
  187.3310  177.4310  145.0590 C   0  0  0  0  0  0  0  0  0  0  0  0
  187.1400  176.4710  144.3130 O   0  0  0  0  0  0  0  0  0  0  0  0
  188.6010  177.4440  145.9310 C   0  0  2  0  0  3  0  0  0  0  0  0
  187.0450  178.2110  147.5700 O   0  0  0  0  0  1  0  0  0  0  0  0
  188.4060  178.0080  147.3480 C   0  0  0  0  0  2  0  0  0  0  0  0
  189.1770  178.7730  143.9650 O   0  0  0  0  0  1  0  0  0  0  0  0
  189.6950  178.1920  145.1330 C   0  0  2  0  0  3  0  0  0  0  0  0
  190.9860  177.4170  144.8010 C   0  0  1  0  0  3  0  0  0  0  0  0
  191.9120  177.3370  145.8700 O   0  0  0  0  0  0  0  0  0  0  0  0
  192.0320  176.0010  146.2920 C   0  0  0  0  0  2  0  0  0  0  0  0
  192.2300  175.8950  147.7490 C   0  0  0  0  0  0  0  0  0  0  0  0
  192.2320  174.6530  148.3850 O   0  0  0  0  0  0  0  0  0  0  0  0
  192.4540  176.9330  148.4250 O   0  0  0  0  0  1  0  0  0  0  0  0
  190.7420  176.1120  143.9210 C   0  0  0  0  0  2  0  0  0  0  0  0
  191.4470  177.4610  141.5890 C   0  0  0  0  0  1  0  0  0  0  0  0
  190.1080  176.4050  142.2280 S   0  0  0  0  0  0  0  0  0  0  0  0
  181.5870  177.5210  139.4610 C   0  0  0  0  0  2  0  0  0  0  0  0
  182.8460  176.9700  138.7280 C   0  0  0  0  0  2  0  0  0  0  0  0
  182.9810  177.1600  137.0840 C   0  0  2  0  0  3  0  0  0  0  0  0
  180.2980  176.5110  136.4210 C   0  0  0  0  0  0  0  0  0  0  0  0
  179.6780  177.5350  136.9430 O   0  0  0  0  0  0  0  0  0  0  0  0
  181.7710  176.4540  136.5440 N   0  0  0  0  0  2  0  0  0  0  0  0
  179.5800  175.2590  135.7630 C   0  0  0  0  0  2  0  0  0  0  0  0
  179.7990  172.2810  137.4320 O   0  0  0  0  0  0  0  0  0  0  0  0
  180.2280  173.1680  138.3330 O   0  0  0  0  0  0  0  0  0  0  0  0
  179.5810  174.3850  138.0600 C   0  0  0  0  0  2  0  0  0  0  0  0
  178.9310  174.2920  136.6930 C   0  0  0  0  0  3  0  0  0  0  0  0
  179.5230  173.0290  136.2740 C   0  0  0  0  0  2  0  0  0  0  0  0
  184.3590  176.6530  136.3300 C   0  0  1  0  0  3  0  0  0  0  0  0
  186.4860  177.4220  135.2390 N   0  0  0  0  0  2  0  0  0  0  0  0
  188.0930  178.8570  136.3920 C   0  0  0  0  0  2  0  0  0  0  0  0
  186.0620  178.1860  137.6400 C   0  0  0  0  0  0  0  0  0  0  0  0
  187.3900  178.9080  137.7540 C   0  0  0  0  0  2  0  0  0  0  0  0
  187.8630  177.5130  135.7170 C   0  0  0  0  0  2  0  0  0  0  0  0
  185.5800  177.5020  136.4200 N   0  0  0  0  0  0  0  0  0  0  0  0
  185.5940  177.8730  138.8130 O   0  0  0  0  0  0  0  0  0  0  0  0
  183.8550  174.4390  136.0020 O   0  0  0  0  0  0  0  0  0  0  0  0
  185.8120  174.7180  137.4470 N   0  0  0  0  0  2  0  0  0  0  0  0
  184.6900  175.2080  136.5910 C   0  0  0  0  0  0  0  0  0  0  0  0
  185.8170  173.2800  137.5560 C   0  0  1  0  0  3  0  0  0  0  0  0
  184.7720  172.8100  138.3370 O   0  0  0  0  0  1  0  0  0  0  0  0
  186.0170  172.5800  136.2670 C   0  0  0  0  0  1  0  0  0  0  0  0
  1  5  1  0  0  0  0
  2 30  1  6  0  0  0
  2  5  1  0  0  0  0
  2  6  1  0  0  0  0
  4  1  1  0  0  0  0
  4  2  1  0  0  0  0
  5  3  1  1  0  0  0
  6  7  1  0  0  0  0
  7  8  1  0  0  0  0
  8 11  1  0  0  0  0
 10  9  1  0  0  0  0
 10 13  1  1  0  0  0
 11  9  1  0  0  0  0
 12 10  1  0  0  0  0
 12 11  1  0  0  0  0
 14 13  1  0  0  0  0
 14 16  1  0  0  0  0
 15 14  2  0  0  0  0
 16 18  1  1  0  0  0
 18 17  1  0  0  0  0
 20 19  1  6  0  0  0
 20 16  1  0  0  0  0
 21 27  1  1  0  0  0
 21 20  1  0  0  0  0
 21 22  1  0  0  0  0
 22 23  1  0  0  0  0
 23 24  1  0  0  0  0
 24 25  2  0  0  0  0
 24 26  1  0  0  0  0
 28 29  1  0  0  0  0
 29 27  1  0  0  0  0
 31 30  1  0  0  0  0
 32 31  1  1  0  0  0
 33 35  1  0  0  0  0
 33 34  2  0  0  0  0
 35 32  1  0  0  0  0
 36 33  1  0  0  0  0
 36 40  1  0  0  0  0
 37 38  1  0  0  0  0
 39 38  1  0  0  0  0
 40 39  1  0  0  0  0
 41 40  1  0  0  0  0
 41 37  1  0  0  0  0
 42 48  1  0  0  0  0
 42 52  1  1  0  0  0
 42 32  1  0  0  0  0
 43 47  1  0  0  0  0
 43 48  1  0  0  0  0
 44 46  1  0  0  0  0
 45 46  1  0  0  0  0
 45 49  2  0  0  0  0
 47 44  1  0  0  0  0
 48 45  1  0  0  0  0
 50 52  2  0  0  0  0
 51 53  1  0  0  0  0
 52 51  1  0  0  0  0
 53 55  1  6  0  0  0
 53 54  1  0  0  0  0
M  END
>  <MODEL>
9

>  <REMARK>
 VINA RESULT:      -4.1      4.979      9.220
  Name = 
  25 active torsions:
  status: ('A' for Active; 'I' for Inactive)
    1  A    between atoms: C_1  and  C_29
    2  A    between atoms: C_2  and  C_28
    3  A    between atoms: C_2  and  C_31
    4  A    between atoms: C_3  and  S_25
    5  A    between atoms: C_3  and  C_38
    6  A    between atoms: C_4  and  N_40
    7  A    between atoms: C_6  and  C_14
    8  A    between atoms: C_6  and  C_20
    9  A    between atoms: C_6  and  C_53
   10  A    between atoms: O_7  and  C_20
   11  A    between atoms: O_7  and  C_22
   12  A    between atoms: C_13  and  C_48
   13  A    between atoms: C_14  and  C_38
   14  A    between atoms: O_21  and  C_29
   15  A    between atoms: O_21  and  C_38
   16  A    between atoms: N_26  and  C_49
   17  A    between atoms: C_27  and  C_31
   18  A    between atoms: C_27  and  C_54
   19  A    between atoms: C_28  and  C_33
   20  A    between atoms: C_33  and  C_49
   21  A    between atoms: C_33  and  N_52
   22  A    between atoms: N_35  and  C_51
   23  A    between atoms: C_39  and  C_48
   24  A    between atoms: C_45  and  C_49
   25  A    between atoms: C_51  and  C_54
                            x       y       z     vdW  Elec       q    Type
                         _______ _______ _______ _____ _____    ______ ____

>  <TORSDO>
F 25

$$$$
