=
 OpenBabel11052414143D

 34 37  0  0  1  0  0  0  0  0999 V2000
  191.4980  177.0670  139.0880 C   0  0  2  0  0  3  0  0  0  0  0  0
  188.2420  176.6140  137.2520 C   0  0  0  0  0  2  0  0  0  0  0  0
  188.3400  177.8140  139.3750 N   0  0  0  0  0  0  0  0  0  0  0  0
  186.7770  178.4940  141.2260 C   0  0  0  0  0  0  0  0  0  0  0  0
  191.4430  176.3550  136.8570 C   0  0  0  0  0  2  0  0  0  0  0  0
  190.2060  175.5060  136.6120 C   0  0  0  0  0  2  0  0  0  0  0  0
  186.1830  178.6300  138.9400 O   0  0  0  0  0  0  0  0  0  0  0  0
  188.6870  177.8840  137.9580 C   0  0  0  0  0  2  0  0  0  0  0  0
  191.9990  176.0580  138.1680 N   0  0  0  0  0  2  0  0  0  0  0  0
  189.4100  177.5980  140.3690 C   0  0  1  0  0  3  0  0  0  0  0  0
  192.5250  177.4830  139.9330 O   0  0  0  0  0  1  0  0  0  0  0  0
  189.1200  176.3430  136.1240 N   0  0  0  0  0  2  0  0  0  0  0  0
  187.6370  178.0290  142.1310 C   0  0  0  0  0  3  0  0  0  0  0  0
  188.8350  177.2120  141.7450 C   0  0  2  0  0  3  0  0  0  0  0  0
  187.0580  178.3160  139.7930 C   0  0  0  0  0  0  0  0  0  0  0  0
  190.3610  176.4900  139.9150 C   0  0  0  0  0  2  0  0  0  0  0  0
  191.4870  176.2380  144.2980 C   0  0  0  0  0  0  0  0  0  0  0  0
  191.8170  177.4880  144.8310 C   0  0  0  0  0  3  0  0  0  0  0  0
  189.8740  177.2940  142.8220 C   0  0  0  0  0  0  0  0  0  0  0  0
  191.1780  178.6400  144.3620 C   0  0  0  0  0  3  0  0  0  0  0  0
  190.5180  176.1400  143.2960 C   0  0  0  0  0  3  0  0  0  0  0  0
  190.2090  178.5430  143.3590 C   0  0  0  0  0  3  0  0  0  0  0  0
  192.1060  175.1230  144.7530 F   0  0  0  0  0  0  0  0  0  0  0  0
  185.6160  179.3070  141.6880 C   0  0  0  0  0  2  0  0  0  0  0  0
  184.9450  178.6090  142.8550 C   0  0  0  0  0  2  0  0  0  0  0  0
  185.0850  179.4510  144.1070 C   0  0  0  0  0  2  0  0  0  0  0  0
  184.8030  178.6010  145.3390 C   0  0  0  0  0  2  0  0  0  0  0  0
  185.6750  179.7770  147.7630 O   0  0  0  0  0  0  0  0  0  0  0  0
  186.0440  178.2470  146.0220 N   0  0  0  0  0  0  0  0  0  0  0  0
  186.4180  178.8940  147.2550 C   0  0  0  0  0  0  0  0  0  0  0  0
  188.2410  177.2120  147.5160 C   0  0  0  0  0  2  0  0  0  0  0  0
  188.2330  177.0840  146.0020 C   0  0  0  0  0  2  0  0  0  0  0  0
  186.7930  177.1010  145.5020 C   0  0  0  0  0  2  0  0  0  0  0  0
  187.7290  178.5890  147.9140 C   0  0  0  0  0  2  0  0  0  0  0  0
  1 16  1  0  0  0  0
  1 11  1  1  0  0  0
  2  8  1  0  0  0  0
  3 15  1  0  0  0  0
  3 10  1  0  0  0  0
  4 24  1  0  0  0  0
  4 13  2  0  0  0  0
  5  9  1  0  0  0  0
  6  5  1  0  0  0  0
  7 15  2  0  0  0  0
  8  3  1  0  0  0  0
  9  1  1  0  0  0  0
 10 16  1  6  0  0  0
 10 14  1  0  0  0  0
 12  6  1  0  0  0  0
 12  2  1  0  0  0  0
 14 13  1  0  0  0  0
 14 19  1  1  0  0  0
 15  4  1  0  0  0  0
 17 23  1  0  0  0  0
 17 18  1  0  0  0  0
 19 21  1  0  0  0  0
 19 22  2  0  0  0  0
 20 18  2  0  0  0  0
 21 17  2  0  0  0  0
 22 20  1  0  0  0  0
 24 25  1  0  0  0  0
 25 26  1  0  0  0  0
 26 27  1  0  0  0  0
 27 29  1  0  0  0  0
 29 30  1  0  0  0  0
 30 28  2  0  0  0  0
 30 34  1  0  0  0  0
 31 34  1  0  0  0  0
 32 31  1  0  0  0  0
 33 32  1  0  0  0  0
 33 29  1  0  0  0  0
M  END
>  <MODEL>
1

>  <REMARK>
 VINA RESULT:      -9.5      0.000      0.000
  Name = 
  6 active torsions:
  status: ('A' for Active; 'I' for Inactive)
    1  A    between atoms: C_3  and  N_13
    2  A    between atoms: C_3  and  C_17
    3  A    between atoms: C_5  and  C_18
    4  A    between atoms: C_12  and  C_28
    5  A    between atoms: C_17  and  C_29
    6  A    between atoms: C_18  and  C_29
                            x       y       z     vdW  Elec       q    Type
                         _______ _______ _______ _____ _____    ______ ____

>  <TORSDO>
F 6

$$$$
=
 OpenBabel11052414143D

 34 37  0  0  1  0  0  0  0  0999 V2000
  190.8670  177.9420  142.8480 C   0  0  2  0  0  3  0  0  0  0  0  0
  188.7240  177.4000  139.7990 C   0  0  0  0  0  2  0  0  0  0  0  0
  187.7870  178.3220  141.8550 N   0  0  0  0  0  0  0  0  0  0  0  0
  185.5320  178.5980  142.9390 C   0  0  0  0  0  0  0  0  0  0  0  0
  191.8150  177.5190  140.7480 C   0  0  0  0  0  2  0  0  0  0  0  0
  190.9180  176.5880  139.9500 C   0  0  0  0  0  2  0  0  0  0  0  0
  185.8930  178.9650  140.6290 O   0  0  0  0  0  0  0  0  0  0  0  0
  188.6590  178.6070  140.7190 C   0  0  0  0  0  2  0  0  0  0  0  0
  191.8350  177.1150  142.1460 N   0  0  0  0  0  2  0  0  0  0  0  0
  188.3870  178.0900  143.1840 C   0  0  1  0  0  3  0  0  0  0  0  0
  191.3970  178.3490  144.0720 O   0  0  0  0  0  1  0  0  0  0  0  0
  190.0100  177.3660  139.1200 N   0  0  0  0  0  2  0  0  0  0  0  0
  186.0140  178.1110  144.0800 C   0  0  0  0  0  3  0  0  0  0  0  0
  187.3720  177.4760  144.1660 C   0  0  2  0  0  3  0  0  0  0  0  0
  186.3870  178.6350  141.7420 C   0  0  0  0  0  0  0  0  0  0  0  0
  189.5910  177.1520  143.0840 C   0  0  0  0  0  2  0  0  0  0  0  0
  189.5670  177.0550  147.2480 C   0  0  0  0  0  0  0  0  0  0  0  0
  188.7640  177.6410  148.2310 C   0  0  0  0  0  3  0  0  0  0  0  0
  187.8670  177.5250  145.5790 C   0  0  0  0  0  0  0  0  0  0  0  0
  187.5150  178.1690  147.8900 C   0  0  0  0  0  3  0  0  0  0  0  0
  189.1210  176.9960  145.9250 C   0  0  0  0  0  3  0  0  0  0  0  0
  187.0680  178.1110  146.5670 C   0  0  0  0  0  3  0  0  0  0  0  0
  190.7770  176.5440  147.5780 F   0  0  0  0  0  0  0  0  0  0  0  0
  184.1790  179.2240  142.9370 C   0  0  0  0  0  2  0  0  0  0  0  0
  183.4830  178.9190  144.2490 C   0  0  0  0  0  2  0  0  0  0  0  0
  182.0340  178.5600  143.9920 C   0  0  0  0  0  2  0  0  0  0  0  0
  181.5280  179.2930  142.7560 C   0  0  0  0  0  2  0  0  0  0  0  0
  178.9310  178.1650  142.7560 O   0  0  0  0  0  0  0  0  0  0  0  0
  181.0450  178.3470  141.7530 N   0  0  0  0  0  0  0  0  0  0  0  0
  179.7050  177.8180  141.8240 C   0  0  0  0  0  0  0  0  0  0  0  0
  180.0280  176.8590  139.5440 C   0  0  0  0  0  2  0  0  0  0  0  0
  181.5150  176.8270  139.8530 C   0  0  0  0  0  2  0  0  0  0  0  0
  181.9050  178.1010  140.5940 C   0  0  0  0  0  2  0  0  0  0  0  0
  179.2360  176.7890  140.8410 C   0  0  0  0  0  2  0  0  0  0  0  0
  1 16  1  0  0  0  0
  1 11  1  1  0  0  0
  2  8  1  0  0  0  0
  3 10  1  0  0  0  0
  4 13  2  0  0  0  0
  5  9  1  0  0  0  0
  6  5  1  0  0  0  0
  7 15  2  0  0  0  0
  8  3  1  0  0  0  0
  9  1  1  0  0  0  0
 10 16  1  6  0  0  0
 10 14  1  0  0  0  0
 12  2  1  0  0  0  0
 12  6  1  0  0  0  0
 13 14  1  0  0  0  0
 14 19  1  1  0  0  0
 15  3  1  0  0  0  0
 15  4  1  0  0  0  0
 17 23  1  0  0  0  0
 17 18  1  0  0  0  0
 19 21  1  0  0  0  0
 19 22  2  0  0  0  0
 20 18  2  0  0  0  0
 21 17  2  0  0  0  0
 22 20  1  0  0  0  0
 24  4  1  0  0  0  0
 24 25  1  0  0  0  0
 26 25  1  0  0  0  0
 27 26  1  0  0  0  0
 29 30  1  0  0  0  0
 29 27  1  0  0  0  0
 30 28  2  0  0  0  0
 31 32  1  0  0  0  0
 31 34  1  0  0  0  0
 32 33  1  0  0  0  0
 33 29  1  0  0  0  0
 34 30  1  0  0  0  0
M  END
>  <MODEL>
2

>  <REMARK>
 VINA RESULT:      -9.5      3.268      5.118
  Name = 
  6 active torsions:
  status: ('A' for Active; 'I' for Inactive)
    1  A    between atoms: C_3  and  N_13
    2  A    between atoms: C_3  and  C_17
    3  A    between atoms: C_5  and  C_18
    4  A    between atoms: C_12  and  C_28
    5  A    between atoms: C_17  and  C_29
    6  A    between atoms: C_18  and  C_29
                            x       y       z     vdW  Elec       q    Type
                         _______ _______ _______ _____ _____    ______ ____

>  <TORSDO>
F 6

$$$$
=
 OpenBabel11052414143D

 34 37  0  0  1  0  0  0  0  0999 V2000
  190.8420  177.9460  142.7330 C   0  0  2  0  0  3  0  0  0  0  0  0
  188.7330  177.4140  139.6590 C   0  0  0  0  0  2  0  0  0  0  0  0
  187.7720  178.3210  141.7100 N   0  0  0  0  0  0  0  0  0  0  0  0
  185.5050  178.5840  142.7710 C   0  0  0  0  0  0  0  0  0  0  0  0
  191.8140  177.5370  140.6410 C   0  0  0  0  0  2  0  0  0  0  0  0
  190.9280  176.6080  139.8280 C   0  0  0  0  0  2  0  0  0  0  0  0
  185.8890  178.9650  140.4670 O   0  0  0  0  0  0  0  0  0  0  0  0
  188.6550  178.6160  140.5850 C   0  0  0  0  0  2  0  0  0  0  0  0
  191.8210  177.1250  142.0360 N   0  0  0  0  0  2  0  0  0  0  0  0
  188.3590  178.0840  143.0440 C   0  0  1  0  0  3  0  0  0  0  0  0
  191.3580  178.3470  143.9640 O   0  0  0  0  0  1  0  0  0  0  0  0
  190.0260  177.3880  138.9930 N   0  0  0  0  0  2  0  0  0  0  0  0
  185.9770  178.0920  143.9150 C   0  0  0  0  0  3  0  0  0  0  0  0
  187.3350  177.4610  144.0110 C   0  0  2  0  0  3  0  0  0  0  0  0
  186.3720  178.6300  141.5840 C   0  0  0  0  0  0  0  0  0  0  0  0
  189.5660  177.1500  142.9510 C   0  0  0  0  0  2  0  0  0  0  0  0
  189.5090  177.0510  147.1100 C   0  0  0  0  0  0  0  0  0  0  0  0
  188.6830  177.6060  148.0920 C   0  0  0  0  0  3  0  0  0  0  0  0
  187.8150  177.5030  145.4300 C   0  0  0  0  0  0  0  0  0  0  0  0
  187.4260  178.1100  147.7450 C   0  0  0  0  0  3  0  0  0  0  0  0
  189.0780  176.9990  145.7820 C   0  0  0  0  0  3  0  0  0  0  0  0
  186.9930  178.0590  146.4170 C   0  0  0  0  0  3  0  0  0  0  0  0
  190.7270  176.5640  147.4460 F   0  0  0  0  0  0  0  0  0  0  0  0
  184.1490  179.2060  142.7590 C   0  0  0  0  0  2  0  0  0  0  0  0
  183.3060  178.5930  143.8600 C   0  0  0  0  0  2  0  0  0  0  0  0
  181.9980  179.3470  143.9860 C   0  0  0  0  0  2  0  0  0  0  0  0
  180.8850  178.5800  143.2860 C   0  0  0  0  0  2  0  0  0  0  0  0
  181.7020  177.9730  140.6430 O   0  0  0  0  0  0  0  0  0  0  0  0
  180.4260  179.2980  142.1000 N   0  0  0  0  0  0  0  0  0  0  0  0
  180.8900  178.9260  140.7860 C   0  0  0  0  0  0  0  0  0  0  0  0
  179.1670  180.4450  139.8130 C   0  0  0  0  0  2  0  0  0  0  0  0
  179.2510  181.2410  141.1040 C   0  0  0  0  0  2  0  0  0  0  0  0
  179.3550  180.2800  142.2840 C   0  0  0  0  0  2  0  0  0  0  0  0
  180.4800  179.7130  139.5780 C   0  0  0  0  0  2  0  0  0  0  0  0
  1 16  1  0  0  0  0
  1 11  1  1  0  0  0
  2  8  1  0  0  0  0
  3 10  1  0  0  0  0
  4 13  2  0  0  0  0
  5  9  1  0  0  0  0
  6  5  1  0  0  0  0
  7 15  2  0  0  0  0
  8  3  1  0  0  0  0
  9  1  1  0  0  0  0
 10 16  1  6  0  0  0
 10 14  1  0  0  0  0
 12  2  1  0  0  0  0
 12  6  1  0  0  0  0
 13 14  1  0  0  0  0
 14 19  1  1  0  0  0
 15  3  1  0  0  0  0
 15  4  1  0  0  0  0
 17 23  1  0  0  0  0
 17 18  1  0  0  0  0
 19 21  1  0  0  0  0
 19 22  2  0  0  0  0
 20 18  2  0  0  0  0
 21 17  2  0  0  0  0
 22 20  1  0  0  0  0
 24  4  1  0  0  0  0
 24 25  1  0  0  0  0
 25 26  1  0  0  0  0
 27 26  1  0  0  0  0
 28 30  2  0  0  0  0
 29 33  1  0  0  0  0
 29 27  1  0  0  0  0
 30 29  1  0  0  0  0
 31 32  1  0  0  0  0
 32 33  1  0  0  0  0
 34 31  1  0  0  0  0
 34 30  1  0  0  0  0
M  END
>  <MODEL>
3

>  <REMARK>
 VINA RESULT:      -9.1      3.229      5.311
  Name = 
  6 active torsions:
  status: ('A' for Active; 'I' for Inactive)
    1  A    between atoms: C_3  and  N_13
    2  A    between atoms: C_3  and  C_17
    3  A    between atoms: C_5  and  C_18
    4  A    between atoms: C_12  and  C_28
    5  A    between atoms: C_17  and  C_29
    6  A    between atoms: C_18  and  C_29
                            x       y       z     vdW  Elec       q    Type
                         _______ _______ _______ _____ _____    ______ ____

>  <TORSDO>
F 6

$$$$
=
 OpenBabel11052414143D

 34 37  0  0  1  0  0  0  0  0999 V2000
  188.6780  178.0270  146.7570 C   0  0  2  0  0  3  0  0  0  0  0  0
  191.3880  176.3540  144.7470 C   0  0  0  0  0  2  0  0  0  0  0  0
  189.6510  177.6850  143.6670 N   0  0  0  0  0  0  0  0  0  0  0  0
  188.6270  177.9470  141.3830 C   0  0  0  0  0  0  0  0  0  0  0  0
  190.5980  177.1590  147.7810 C   0  0  0  0  0  2  0  0  0  0  0  0
  191.0750  175.9260  147.0300 C   0  0  0  0  0  2  0  0  0  0  0  0
  190.9560  177.6890  141.7170 O   0  0  0  0  0  0  0  0  0  0  0  0
  190.8450  177.7530  144.5040 C   0  0  0  0  0  2  0  0  0  0  0  0
  189.1450  177.1740  147.8400 N   0  0  0  0  0  2  0  0  0  0  0  0
  188.3280  177.9240  144.2770 C   0  0  1  0  0  3  0  0  0  0  0  0
  187.6340  178.8320  147.2110 O   0  0  0  0  0  1  0  0  0  0  0  0
  192.0660  176.3050  146.0330 N   0  0  0  0  0  2  0  0  0  0  0  0
  187.4090  177.8740  141.9140 C   0  0  0  0  0  3  0  0  0  0  0  0
  187.1850  177.4810  143.3450 C   0  0  2  0  0  3  0  0  0  0  0  0
  189.8090  177.7580  142.2380 C   0  0  0  0  0  0  0  0  0  0  0  0
  188.1930  177.1690  145.6000 C   0  0  0  0  0  2  0  0  0  0  0  0
  183.5850  178.7190  143.3570 C   0  0  0  0  0  0  0  0  0  0  0  0
  183.3860  178.9510  144.7220 C   0  0  0  0  0  3  0  0  0  0  0  0
  185.8570  177.9960  143.8120 C   0  0  0  0  0  0  0  0  0  0  0  0
  184.4200  178.7050  145.6310 C   0  0  0  0  0  3  0  0  0  0  0  0
  184.8170  178.2430  142.9020 C   0  0  0  0  0  3  0  0  0  0  0  0
  185.6530  178.2280  145.1770 C   0  0  0  0  0  3  0  0  0  0  0  0
  182.5830  178.9560  142.4780 F   0  0  0  0  0  0  0  0  0  0  0  0
  188.7670  178.3560  139.9550 C   0  0  0  0  0  2  0  0  0  0  0  0
  188.8830  177.1180  139.0870 C   0  0  0  0  0  2  0  0  0  0  0  0
  187.8290  177.1530  137.9990 C   0  0  0  0  0  2  0  0  0  0  0  0
  186.9290  178.3670  138.1860 C   0  0  0  0  0  2  0  0  0  0  0  0
  184.9820  179.6860  139.7640 O   0  0  0  0  0  0  0  0  0  0  0  0
  185.5260  177.9670  138.2610 N   0  0  0  0  0  0  0  0  0  0  0  0
  184.5960  178.6930  139.0890 C   0  0  0  0  0  0  0  0  0  0  0  0
  182.7400  177.4090  138.0270 C   0  0  0  0  0  2  0  0  0  0  0  0
  183.7530  176.3060  137.7740 C   0  0  0  0  0  2  0  0  0  0  0  0
  185.0760  176.9250  137.3360 C   0  0  0  0  0  2  0  0  0  0  0  0
  183.1760  178.2360  139.2280 C   0  0  0  0  0  2  0  0  0  0  0  0
  1 11  1  1  0  0  0
  1  9  1  0  0  0  0
  2 12  1  0  0  0  0
  3 10  1  0  0  0  0
  3  8  1  0  0  0  0
  4 13  2  0  0  0  0
  4 15  1  0  0  0  0
  5  9  1  0  0  0  0
  6  5  1  0  0  0  0
  7 15  2  0  0  0  0
  8  2  1  0  0  0  0
 10 16  1  1  0  0  0
 12  6  1  0  0  0  0
 13 14  1  0  0  0  0
 14 19  1  1  0  0  0
 14 10  1  0  0  0  0
 15  3  1  0  0  0  0
 16  1  1  0  0  0  0
 17 18  1  0  0  0  0
 18 20  2  0  0  0  0
 19 22  2  0  0  0  0
 21 17  2  0  0  0  0
 21 19  1  0  0  0  0
 22 20  1  0  0  0  0
 23 17  1  0  0  0  0
 24  4  1  0  0  0  0
 25 24  1  0  0  0  0
 26 27  1  0  0  0  0
 26 25  1  0  0  0  0
 27 29  1  0  0  0  0
 29 30  1  0  0  0  0
 30 34  1  0  0  0  0
 30 28  2  0  0  0  0
 31 34  1  0  0  0  0
 32 31  1  0  0  0  0
 33 32  1  0  0  0  0
 33 29  1  0  0  0  0
M  END
>  <MODEL>
4

>  <REMARK>
 VINA RESULT:      -8.5      3.049      7.533
  Name = 
  6 active torsions:
  status: ('A' for Active; 'I' for Inactive)
    1  A    between atoms: C_3  and  N_13
    2  A    between atoms: C_3  and  C_17
    3  A    between atoms: C_5  and  C_18
    4  A    between atoms: C_12  and  C_28
    5  A    between atoms: C_17  and  C_29
    6  A    between atoms: C_18  and  C_29
                            x       y       z     vdW  Elec       q    Type
                         _______ _______ _______ _____ _____    ______ ____

>  <TORSDO>
F 6

$$$$
=
 OpenBabel11052414143D

 34 37  0  0  1  0  0  0  0  0999 V2000
  190.2610  178.1530  142.7090 C   0  0  2  0  0  3  0  0  0  0  0  0
  188.8770  177.2870  139.3160 C   0  0  0  0  0  2  0  0  0  0  0  0
  187.4820  178.3390  141.0200 N   0  0  0  0  0  0  0  0  0  0  0  0
  185.0350  178.6200  141.5400 C   0  0  0  0  0  0  0  0  0  0  0  0
  191.6690  177.5950  140.9220 C   0  0  0  0  0  2  0  0  0  0  0  0
  190.9920  176.5700  140.0270 C   0  0  0  0  0  2  0  0  0  0  0  0
  185.9050  178.8110  139.3470 O   0  0  0  0  0  0  0  0  0  0  0  0
  188.5840  178.5620  140.0890 C   0  0  0  0  0  2  0  0  0  0  0  0
  191.3780  177.3070  142.3190 N   0  0  0  0  0  2  0  0  0  0  0  0
  187.7680  178.2380  142.4650 C   0  0  1  0  0  3  0  0  0  0  0  0
  190.4920  178.6760  143.9810 O   0  0  0  0  0  1  0  0  0  0  0  0
  190.2840  177.2450  138.9500 N   0  0  0  0  0  2  0  0  0  0  0  0
  185.2540  178.2450  142.7990 C   0  0  0  0  0  3  0  0  0  0  0  0
  186.5660  177.6680  143.2430 C   0  0  2  0  0  3  0  0  0  0  0  0
  186.1390  178.5900  140.5680 C   0  0  0  0  0  0  0  0  0  0  0  0
  188.9780  177.3380  142.7200 C   0  0  0  0  0  2  0  0  0  0  0  0
  187.9270  177.4360  146.7910 C   0  0  0  0  0  0  0  0  0  0  0  0
  186.9990  178.2180  147.4850 C   0  0  0  0  0  3  0  0  0  0  0  0
  186.7270  177.8500  144.7220 C   0  0  0  0  0  0  0  0  0  0  0  0
  185.9360  178.8160  146.8010 C   0  0  0  0  0  3  0  0  0  0  0  0
  187.7920  177.2510  145.4120 C   0  0  0  0  0  3  0  0  0  0  0  0
  185.8010  178.6320  145.4210 C   0  0  0  0  0  3  0  0  0  0  0  0
  188.9560  176.8580  147.4550 F   0  0  0  0  0  0  0  0  0  0  0  0
  183.7070  179.1940  141.1790 C   0  0  0  0  0  2  0  0  0  0  0  0
  182.6860  178.0770  141.0830 C   0  0  0  0  0  2  0  0  0  0  0  0
  181.2860  178.6560  141.1200 C   0  0  0  0  0  2  0  0  0  0  0  0
  180.5460  178.3090  139.8350 C   0  0  0  0  0  2  0  0  0  0  0  0
  180.5020  177.9100  137.0320 O   0  0  0  0  0  0  0  0  0  0  0  0
  180.6810  179.3800  138.8520 N   0  0  0  0  0  0  0  0  0  0  0  0
  180.6480  179.0940  137.4390 C   0  0  0  0  0  0  0  0  0  0  0  0
  180.5130  181.5470  137.0060 C   0  0  0  0  0  2  0  0  0  0  0  0
  181.2280  181.7410  138.3320 C   0  0  0  0  0  2  0  0  0  0  0  0
  180.6730  180.7560  139.3540 C   0  0  0  0  0  2  0  0  0  0  0  0
  180.8650  180.1820  136.4320 C   0  0  0  0  0  2  0  0  0  0  0  0
  1 16  1  0  0  0  0
  1 11  1  1  0  0  0
  2  8  1  0  0  0  0
  3 10  1  0  0  0  0
  4 13  2  0  0  0  0
  5  9  1  0  0  0  0
  6  5  1  0  0  0  0
  7 15  2  0  0  0  0
  8  3  1  0  0  0  0
  9  1  1  0  0  0  0
 10 16  1  6  0  0  0
 10 14  1  0  0  0  0
 12  2  1  0  0  0  0
 12  6  1  0  0  0  0
 13 14  1  0  0  0  0
 14 19  1  1  0  0  0
 15  3  1  0  0  0  0
 15  4  1  0  0  0  0
 17 23  1  0  0  0  0
 17 18  1  0  0  0  0
 19 21  1  0  0  0  0
 19 22  2  0  0  0  0
 20 18  2  0  0  0  0
 21 17  2  0  0  0  0
 22 20  1  0  0  0  0
 24  4  1  0  0  0  0
 25 26  1  0  0  0  0
 25 24  1  0  0  0  0
 27 26  1  0  0  0  0
 28 30  2  0  0  0  0
 29 33  1  0  0  0  0
 29 27  1  0  0  0  0
 30 29  1  0  0  0  0
 31 32  1  0  0  0  0
 32 33  1  0  0  0  0
 34 31  1  0  0  0  0
 34 30  1  0  0  0  0
M  END
>  <MODEL>
5

>  <REMARK>
 VINA RESULT:      -8.3      3.666      6.266
  Name = 
  6 active torsions:
  status: ('A' for Active; 'I' for Inactive)
    1  A    between atoms: C_3  and  N_13
    2  A    between atoms: C_3  and  C_17
    3  A    between atoms: C_5  and  C_18
    4  A    between atoms: C_12  and  C_28
    5  A    between atoms: C_17  and  C_29
    6  A    between atoms: C_18  and  C_29
                            x       y       z     vdW  Elec       q    Type
                         _______ _______ _______ _____ _____    ______ ____

>  <TORSDO>
F 6

$$$$
=
 OpenBabel11052414143D

 34 37  0  0  1  0  0  0  0  0999 V2000
  188.6200  178.0010  146.8990 C   0  0  2  0  0  3  0  0  0  0  0  0
  191.4270  176.3810  144.9820 C   0  0  0  0  0  2  0  0  0  0  0  0
  189.7200  177.7050  143.8470 N   0  0  0  0  0  0  0  0  0  0  0  0
  188.7860  177.9820  141.5270 C   0  0  0  0  0  0  0  0  0  0  0  0
  190.5080  177.1420  147.9900 C   0  0  0  0  0  2  0  0  0  0  0  0
  191.0280  175.9230  147.2460 C   0  0  0  0  0  2  0  0  0  0  0  0
  191.1020  177.7450  141.9510 O   0  0  0  0  0  0  0  0  0  0  0  0
  190.8790  177.7760  144.7330 C   0  0  0  0  0  2  0  0  0  0  0  0
  189.0520  177.1410  147.9900 N   0  0  0  0  0  2  0  0  0  0  0  0
  188.3710  177.9230  144.4060 C   0  0  1  0  0  3  0  0  0  0  0  0
  187.5500  178.7900  147.3190 O   0  0  0  0  0  1  0  0  0  0  0  0
  192.0530  176.3240  146.2940 N   0  0  0  0  0  2  0  0  0  0  0  0
  187.5470  177.8900  142.0080 C   0  0  0  0  0  3  0  0  0  0  0  0
  187.2710  177.4780  143.4240 C   0  0  2  0  0  3  0  0  0  0  0  0
  189.9340  177.7960  142.4270 C   0  0  0  0  0  0  0  0  0  0  0  0
  188.1910  177.1520  145.7150 C   0  0  0  0  0  2  0  0  0  0  0  0
  183.6650  178.6930  143.3040 C   0  0  0  0  0  0  0  0  0  0  0  0
  183.4040  178.8920  144.6640 C   0  0  0  0  0  3  0  0  0  0  0  0
  185.9200  177.9740  143.8430 C   0  0  0  0  0  0  0  0  0  0  0  0
  184.3980  178.6320  145.6120 C   0  0  0  0  0  3  0  0  0  0  0  0
  184.9190  178.2350  142.8930 C   0  0  0  0  0  3  0  0  0  0  0  0
  185.6530  178.1730  145.2020 C   0  0  0  0  0  3  0  0  0  0  0  0
  182.7010  178.9440  142.3860 F   0  0  0  0  0  0  0  0  0  0  0  0
  188.9780  178.4090  140.1110 C   0  0  0  0  0  2  0  0  0  0  0  0
  189.1850  177.1840  139.2400 C   0  0  0  0  0  2  0  0  0  0  0  0
  189.7130  177.6020  137.8830 C   0  0  0  0  0  2  0  0  0  0  0  0
  188.6800  178.4590  137.1650 C   0  0  0  0  0  2  0  0  0  0  0  0
  186.0570  178.9830  138.0960 O   0  0  0  0  0  0  0  0  0  0  0  0
  187.5080  177.6660  136.8030 N   0  0  0  0  0  0  0  0  0  0  0  0
  186.2040  177.9990  137.3210 C   0  0  0  0  0  0  0  0  0  0  0  0
  185.2160  176.3580  135.7230 C   0  0  0  0  0  2  0  0  0  0  0  0
  186.5470  175.6270  135.7730 C   0  0  0  0  0  2  0  0  0  0  0  0
  187.6820  176.6450  135.7690 C   0  0  0  0  0  2  0  0  0  0  0  0
  185.0150  177.1400  137.0140 C   0  0  0  0  0  2  0  0  0  0  0  0
  1 11  1  1  0  0  0
  1  9  1  0  0  0  0
  2 12  1  0  0  0  0
  3 10  1  0  0  0  0
  3  8  1  0  0  0  0
  4 13  2  0  0  0  0
  4 15  1  0  0  0  0
  6  5  1  0  0  0  0
  7 15  2  0  0  0  0
  8  2  1  0  0  0  0
  9  5  1  0  0  0  0
 10 16  1  1  0  0  0
 12  6  1  0  0  0  0
 13 14  1  0  0  0  0
 14 19  1  1  0  0  0
 14 10  1  0  0  0  0
 15  3  1  0  0  0  0
 16  1  1  0  0  0  0
 17 18  1  0  0  0  0
 18 20  2  0  0  0  0
 19 22  2  0  0  0  0
 21 17  2  0  0  0  0
 21 19  1  0  0  0  0
 22 20  1  0  0  0  0
 23 17  1  0  0  0  0
 24  4  1  0  0  0  0
 25 24  1  0  0  0  0
 26 25  1  0  0  0  0
 27 26  1  0  0  0  0
 29 27  1  0  0  0  0
 29 30  1  0  0  0  0
 30 28  2  0  0  0  0
 31 32  1  0  0  0  0
 31 34  1  0  0  0  0
 33 32  1  0  0  0  0
 33 29  1  0  0  0  0
 34 30  1  0  0  0  0
M  END
>  <MODEL>
6

>  <REMARK>
 VINA RESULT:      -8.1      2.821      8.041
  Name = 
  6 active torsions:
  status: ('A' for Active; 'I' for Inactive)
    1  A    between atoms: C_3  and  N_13
    2  A    between atoms: C_3  and  C_17
    3  A    between atoms: C_5  and  C_18
    4  A    between atoms: C_12  and  C_28
    5  A    between atoms: C_17  and  C_29
    6  A    between atoms: C_18  and  C_29
                            x       y       z     vdW  Elec       q    Type
                         _______ _______ _______ _____ _____    ______ ____

>  <TORSDO>
F 6

$$$$
=
 OpenBabel11052414143D

 34 37  0  0  1  0  0  0  0  0999 V2000
  189.0910  177.8690  138.3530 C   0  0  2  0  0  3  0  0  0  0  0  0
  185.3490  177.7960  137.9390 C   0  0  0  0  0  2  0  0  0  0  0  0
  186.3760  178.5110  140.0350 N   0  0  0  0  0  0  0  0  0  0  0  0
  185.7350  178.7630  142.4550 C   0  0  0  0  0  0  0  0  0  0  0  0
  188.1010  177.6540  136.2410 C   0  0  0  0  0  2  0  0  0  0  0  0
  186.8050  176.8680  136.3530 C   0  0  0  0  0  2  0  0  0  0  0  0
  184.2970  179.3850  140.6820 O   0  0  0  0  0  0  0  0  0  0  0  0
  186.1380  178.8870  138.6440 C   0  0  0  0  0  2  0  0  0  0  0  0
  189.1050  177.0860  137.1270 N   0  0  0  0  0  2  0  0  0  0  0  0
  187.7310  178.0940  140.4460 C   0  0  1  0  0  3  0  0  0  0  0  0
  190.4000  178.1010  138.7760 O   0  0  0  0  0  1  0  0  0  0  0  0
  185.6850  177.7820  136.5240 N   0  0  0  0  0  2  0  0  0  0  0  0
  186.8430  178.1220  142.8220 C   0  0  0  0  0  3  0  0  0  0  0  0
  187.7210  177.4170  141.8290 C   0  0  2  0  0  3  0  0  0  0  0  0
  185.4100  178.9010  141.0270 C   0  0  0  0  0  0  0  0  0  0  0  0
  188.3340  177.1180  139.4350 C   0  0  0  0  0  2  0  0  0  0  0  0
  191.1860  178.2460  143.1710 C   0  0  0  0  0  0  0  0  0  0  0  0
  191.6830  176.9670  143.4390 C   0  0  0  0  0  3  0  0  0  0  0  0
  189.1040  177.2730  142.3880 C   0  0  0  0  0  0  0  0  0  0  0  0
  190.8930  175.8420  143.1820 C   0  0  0  0  0  3  0  0  0  0  0  0
  189.9000  178.4010  142.6470 C   0  0  0  0  0  3  0  0  0  0  0  0
  189.6060  175.9950  142.6580 C   0  0  0  0  0  3  0  0  0  0  0  0
  191.9510  179.3360  143.4210 F   0  0  0  0  0  0  0  0  0  0  0  0
  184.9210  179.4490  143.5000 C   0  0  0  0  0  2  0  0  0  0  0  0
  184.8320  178.5650  144.7280 C   0  0  0  0  0  2  0  0  0  0  0  0
  185.5170  179.2390  145.8980 C   0  0  0  0  0  2  0  0  0  0  0  0
  185.8240  178.2150  146.9830 C   0  0  0  0  0  2  0  0  0  0  0  0
  187.2430  178.2450  149.4330 O   0  0  0  0  0  0  0  0  0  0  0  0
  187.2630  177.9970  147.0990 N   0  0  0  0  0  0  0  0  0  0  0  0
  187.9120  178.0280  148.3860 C   0  0  0  0  0  0  0  0  0  0  0  0
  189.9750  177.1390  147.3020 C   0  0  0  0  0  2  0  0  0  0  0  0
  189.4830  177.7830  146.0170 C   0  0  0  0  0  2  0  0  0  0  0  0
  187.9770  177.5750  145.8920 C   0  0  0  0  0  2  0  0  0  0  0  0
  189.3990  177.8830  148.4980 C   0  0  0  0  0  2  0  0  0  0  0  0
  1 11  1  1  0  0  0
  1 16  1  0  0  0  0
  2  8  1  0  0  0  0
  3 10  1  0  0  0  0
  3 15  1  0  0  0  0
  4 13  2  0  0  0  0
  4 24  1  0  0  0  0
  5  6  1  0  0  0  0
  5  9  1  0  0  0  0
  6 12  1  0  0  0  0
  7 15  2  0  0  0  0
  8  3  1  0  0  0  0
  9  1  1  0  0  0  0
 10 16  1  6  0  0  0
 10 14  1  0  0  0  0
 12  2  1  0  0  0  0
 14 19  1  1  0  0  0
 14 13  1  0  0  0  0
 15  4  1  0  0  0  0
 17 23  1  0  0  0  0
 17 18  1  0  0  0  0
 19 21  1  0  0  0  0
 19 22  2  0  0  0  0
 20 18  2  0  0  0  0
 21 17  2  0  0  0  0
 22 20  1  0  0  0  0
 24 25  1  0  0  0  0
 25 26  1  0  0  0  0
 26 27  1  0  0  0  0
 27 29  1  0  0  0  0
 29 30  1  0  0  0  0
 30 34  1  0  0  0  0
 30 28  2  0  0  0  0
 31 34  1  0  0  0  0
 32 31  1  0  0  0  0
 33 32  1  0  0  0  0
 33 29  1  0  0  0  0
M  END
>  <MODEL>
7

>  <REMARK>
 VINA RESULT:      -8.1      1.826      2.440
  Name = 
  6 active torsions:
  status: ('A' for Active; 'I' for Inactive)
    1  A    between atoms: C_3  and  N_13
    2  A    between atoms: C_3  and  C_17
    3  A    between atoms: C_5  and  C_18
    4  A    between atoms: C_12  and  C_28
    5  A    between atoms: C_17  and  C_29
    6  A    between atoms: C_18  and  C_29
                            x       y       z     vdW  Elec       q    Type
                         _______ _______ _______ _____ _____    ______ ____

>  <TORSDO>
F 6

$$$$
=
 OpenBabel11052414143D

 34 37  0  0  1  0  0  0  0  0999 V2000
  188.5950  178.0940  146.6700 C   0  0  2  0  0  3  0  0  0  0  0  0
  191.5430  176.3570  145.0980 C   0  0  0  0  0  2  0  0  0  0  0  0
  189.9450  177.6120  143.7450 N   0  0  0  0  0  0  0  0  0  0  0  0
  189.2120  177.7490  141.3420 C   0  0  0  0  0  0  0  0  0  0  0  0
  190.3780  177.3010  147.9660 C   0  0  0  0  0  2  0  0  0  0  0  0
  190.9510  176.0380  147.3440 C   0  0  0  0  0  2  0  0  0  0  0  0
  191.4820  177.5350  141.9740 O   0  0  0  0  0  0  0  0  0  0  0  0
  191.0260  177.7350  144.7200 C   0  0  0  0  0  2  0  0  0  0  0  0
  188.9280  177.3020  147.8440 N   0  0  0  0  0  2  0  0  0  0  0  0
  188.5560  177.8650  144.1740 C   0  0  1  0  0  3  0  0  0  0  0  0
  187.4980  178.9080  146.9500 O   0  0  0  0  0  1  0  0  0  0  0  0
  192.0550  176.3800  146.4590 N   0  0  0  0  0  2  0  0  0  0  0  0
  187.9370  177.6880  141.7210 C   0  0  0  0  0  3  0  0  0  0  0  0
  187.5400  177.3630  143.1320 C   0  0  2  0  0  3  0  0  0  0  0  0
  190.2790  177.6170  142.3450 C   0  0  0  0  0  0  0  0  0  0  0  0
  188.2620  177.1750  145.5070 C   0  0  0  0  0  2  0  0  0  0  0  0
  184.3960  178.5040  144.9510 C   0  0  0  0  0  0  0  0  0  0  0  0
  183.5820  178.8700  143.8750 C   0  0  0  0  0  3  0  0  0  0  0  0
  186.1610  177.8840  143.4040 C   0  0  0  0  0  0  0  0  0  0  0  0
  184.0550  178.7440  142.5660 C   0  0  0  0  0  3  0  0  0  0  0  0
  185.6830  178.0130  144.7180 C   0  0  0  0  0  3  0  0  0  0  0  0
  185.3420  178.2530  142.3310 C   0  0  0  0  0  3  0  0  0  0  0  0
  183.9380  178.6280  146.2200 F   0  0  0  0  0  0  0  0  0  0  0  0
  189.5250  178.0890  139.9240 C   0  0  0  0  0  2  0  0  0  0  0  0
  188.3410  177.7300  139.0470 C   0  0  0  0  0  2  0  0  0  0  0  0
  188.5880  178.2060  137.6300 C   0  0  0  0  0  2  0  0  0  0  0  0
  189.6260  177.3190  136.9570 C   0  0  0  0  0  2  0  0  0  0  0  0
  190.6140  174.8780  138.0000 O   0  0  0  0  0  0  0  0  0  0  0  0
  189.0650  176.0070  136.6450 N   0  0  0  0  0  0  0  0  0  0  0  0
  189.6260  174.8090  137.2190 C   0  0  0  0  0  0  0  0  0  0  0  0
  187.6640  173.5420  136.3450 C   0  0  0  0  0  2  0  0  0  0  0  0
  187.5560  174.6050  135.2650 C   0  0  0  0  0  2  0  0  0  0  0  0
  187.8170  175.9760  135.8790 C   0  0  0  0  0  2  0  0  0  0  0  0
  189.1010  173.4580  136.8380 C   0  0  0  0  0  2  0  0  0  0  0  0
  1 11  1  1  0  0  0
  1  9  1  0  0  0  0
  2 12  1  0  0  0  0
  3 10  1  0  0  0  0
  3  8  1  0  0  0  0
  4 13  2  0  0  0  0
  4 15  1  0  0  0  0
  6  5  1  0  0  0  0
  7 15  2  0  0  0  0
  8  2  1  0  0  0  0
  9  5  1  0  0  0  0
 10 16  1  1  0  0  0
 12  6  1  0  0  0  0
 13 14  1  0  0  0  0
 14 19  1  1  0  0  0
 14 10  1  0  0  0  0
 15  3  1  0  0  0  0
 16  1  1  0  0  0  0
 17 23  1  0  0  0  0
 18 17  2  0  0  0  0
 19 21  2  0  0  0  0
 20 18  1  0  0  0  0
 21 17  1  0  0  0  0
 22 20  2  0  0  0  0
 22 19  1  0  0  0  0
 24  4  1  0  0  0  0
 25 24  1  0  0  0  0
 26 25  1  0  0  0  0
 27 26  1  0  0  0  0
 29 27  1  0  0  0  0
 29 30  1  0  0  0  0
 30 28  2  0  0  0  0
 31 34  1  0  0  0  0
 32 33  1  0  0  0  0
 32 31  1  0  0  0  0
 33 29  1  0  0  0  0
 34 30  1  0  0  0  0
M  END
>  <MODEL>
8

>  <REMARK>
 VINA RESULT:      -8.0      2.672      8.181
  Name = 
  6 active torsions:
  status: ('A' for Active; 'I' for Inactive)
    1  A    between atoms: C_3  and  N_13
    2  A    between atoms: C_3  and  C_17
    3  A    between atoms: C_5  and  C_18
    4  A    between atoms: C_12  and  C_28
    5  A    between atoms: C_17  and  C_29
    6  A    between atoms: C_18  and  C_29
                            x       y       z     vdW  Elec       q    Type
                         _______ _______ _______ _____ _____    ______ ____

>  <TORSDO>
F 6

$$$$
=
 OpenBabel11052414143D

 34 37  0  0  1  0  0  0  0  0999 V2000
  187.5270  178.3870  146.6850 C   0  0  2  0  0  3  0  0  0  0  0  0
  190.5910  176.7850  145.1940 C   0  0  0  0  0  2  0  0  0  0  0  0
  188.9990  178.0040  143.8040 N   0  0  0  0  0  0  0  0  0  0  0  0
  188.3490  178.1550  141.3780 C   0  0  0  0  0  0  0  0  0  0  0  0
  189.2900  177.6360  148.0320 C   0  0  0  0  0  2  0  0  0  0  0  0
  189.9310  176.4060  147.4120 C   0  0  0  0  0  2  0  0  0  0  0  0
  190.6010  178.0130  142.0890 O   0  0  0  0  0  0  0  0  0  0  0  0
  190.0390  178.1490  144.8190 C   0  0  0  0  0  2  0  0  0  0  0  0
  187.8460  177.5870  147.8570 N   0  0  0  0  0  2  0  0  0  0  0  0
  187.5870  178.1990  144.1860 C   0  0  1  0  0  3  0  0  0  0  0  0
  186.3910  179.1560  146.9370 O   0  0  0  0  0  1  0  0  0  0  0  0
  191.0530  176.8020  146.5740 N   0  0  0  0  0  2  0  0  0  0  0  0
  187.0640  178.0420  141.7090 C   0  0  0  0  0  3  0  0  0  0  0  0
  186.6280  177.6780  143.0980 C   0  0  2  0  0  3  0  0  0  0  0  0
  189.3830  178.0450  142.4170 C   0  0  0  0  0  0  0  0  0  0  0  0
  187.2700  177.4760  145.4960 C   0  0  0  0  0  2  0  0  0  0  0  0
  183.0100  178.6990  142.4970 C   0  0  0  0  0  0  0  0  0  0  0  0
  182.6010  179.0130  143.7970 C   0  0  0  0  0  3  0  0  0  0  0  0
  185.2230  178.1450  143.3280 C   0  0  0  0  0  0  0  0  0  0  0  0
  183.4990  178.8930  144.8610 C   0  0  0  0  0  3  0  0  0  0  0  0
  184.3170  178.2660  142.2620 C   0  0  0  0  0  3  0  0  0  0  0  0
  184.8070  178.4600  144.6270 C   0  0  0  0  0  3  0  0  0  0  0  0
  182.1390  178.8140  141.4660 F   0  0  0  0  0  0  0  0  0  0  0  0
  188.7010  178.5300  139.9780 C   0  0  0  0  0  2  0  0  0  0  0  0
  188.7670  177.2790  139.1240 C   0  0  0  0  0  2  0  0  0  0  0  0
  190.0550  177.2690  138.3260 C   0  0  0  0  0  2  0  0  0  0  0  0
  191.0620  176.3310  138.9780 C   0  0  0  0  0  2  0  0  0  0  0  0
  190.3830  173.9130  137.6690 O   0  0  0  0  0  0  0  0  0  0  0  0
  191.8960  175.6820  137.9690 N   0  0  0  0  0  0  0  0  0  0  0  0
  191.4780  174.4500  137.3480 C   0  0  0  0  0  0  0  0  0  0  0  0
  193.3470  174.7080  135.7170 C   0  0  0  0  0  2  0  0  0  0  0  0
  194.0680  175.5080  136.7880 C   0  0  0  0  0  2  0  0  0  0  0  0
  193.0700  176.4180  137.4960 C   0  0  0  0  0  2  0  0  0  0  0  0
  192.3690  173.7430  136.3720 C   0  0  0  0  0  2  0  0  0  0  0  0
  1 11  1  1  0  0  0
  1  9  1  0  0  0  0
  2 12  1  0  0  0  0
  3 10  1  0  0  0  0
  3  8  1  0  0  0  0
  4 13  2  0  0  0  0
  4 15  1  0  0  0  0
  6  5  1  0  0  0  0
  7 15  2  0  0  0  0
  8  2  1  0  0  0  0
  9  5  1  0  0  0  0
 10 16  1  1  0  0  0
 12  6  1  0  0  0  0
 13 14  1  0  0  0  0
 14 19  1  1  0  0  0
 14 10  1  0  0  0  0
 15  3  1  0  0  0  0
 16  1  1  0  0  0  0
 17 18  1  0  0  0  0
 18 20  2  0  0  0  0
 19 22  2  0  0  0  0
 21 17  2  0  0  0  0
 21 19  1  0  0  0  0
 22 20  1  0  0  0  0
 23 17  1  0  0  0  0
 24  4  1  0  0  0  0
 25 24  1  0  0  0  0
 26 27  1  0  0  0  0
 26 25  1  0  0  0  0
 29 27  1  0  0  0  0
 30 28  2  0  0  0  0
 30 29  1  0  0  0  0
 31 34  1  0  0  0  0
 31 32  1  0  0  0  0
 32 33  1  0  0  0  0
 33 29  1  0  0  0  0
 34 30  1  0  0  0  0
M  END
>  <MODEL>
9

>  <REMARK>
 VINA RESULT:      -8.0      2.838      8.598
  Name = 
  6 active torsions:
  status: ('A' for Active; 'I' for Inactive)
    1  A    between atoms: C_3  and  N_13
    2  A    between atoms: C_3  and  C_17
    3  A    between atoms: C_5  and  C_18
    4  A    between atoms: C_12  and  C_28
    5  A    between atoms: C_17  and  C_29
    6  A    between atoms: C_18  and  C_29
                            x       y       z     vdW  Elec       q    Type
                         _______ _______ _______ _____ _____    ______ ____

>  <TORSDO>
F 6

$$$$
