=
 OpenBabel11052412323D

 30 33  0  0  1  0  0  0  0  0999 V2000
  187.9580  177.4800  143.7680 C   0  0  0  0  0  2  0  0  0  0  0  0
  187.2390  177.6660  146.1560 C   0  0  0  0  0  0  0  0  0  0  0  0
  183.8830  178.4660  142.6450 C   0  0  0  0  0  2  0  0  0  0  0  0
  187.7460  178.1680  142.4230 C   0  0  2  0  0  3  0  0  0  0  0  0
  183.6380  178.3110  141.1360 C   0  0  0  0  0  2  0  0  0  0  0  0
  186.3080  178.0010  147.1410 C   0  0  0  0  0  3  0  0  0  0  0  0
  188.4280  177.1280  146.5250 F   0  0  0  0  0  0  0  0  0  0  0  0
  185.3550  178.7510  142.9960 C   0  0  2  0  0  3  0  0  0  0  0  0
  185.0790  178.5560  146.7870 C   0  0  0  0  0  3  0  0  0  0  0  0
  186.9450  177.8890  144.8010 C   0  0  0  0  0  0  0  0  0  0  0  0
  186.2860  178.0840  141.9730 C   0  0  1  0  0  3  0  0  0  0  0  0
  184.6280  179.1420  140.3200 C   0  0  0  0  0  2  0  0  0  0  0  0
  186.0800  178.7150  140.5850 C   0  0  0  0  0  2  0  0  0  0  0  0
  184.7730  178.7700  145.4420 C   0  0  0  0  0  3  0  0  0  0  0  0
  185.6840  178.4170  144.4340 C   0  0  0  0  0  0  0  0  0  0  0  0
  190.4890  176.2840  140.8500 O   0  0  0  0  0  0  0  0  0  0  0  0
  189.9620  177.0320  141.7180 C   0  0  0  0  0  0  0  0  0  0  0  0
  188.6890  177.6580  141.4230 N   0  0  0  0  0  0  0  0  0  0  0  0
  190.9330  176.1980  143.8460 N   0  0  0  0  0  0  0  0  0  0  0  0
  191.2230  178.3670  143.4230 N   0  0  0  0  0  2  0  0  0  0  0  0
  190.6920  177.2120  142.9930 C   0  0  0  0  0  0  0  0  0  0  0  0
  191.6330  176.7970  144.8310 C   0  0  0  0  0  3  0  0  0  0  0  0
  191.8090  178.1070  144.5780 N   0  0  0  0  0  0  0  0  0  0  0  0
  188.1820  177.6160  140.0590 C   0  0  0  0  0  2  0  0  0  0  0  0
  189.0360  178.4910  139.1560 C   0  0  0  0  0  2  0  0  0  0  0  0
  189.0900  177.9070  137.7570 C   0  0  0  0  0  2  0  0  0  0  0  0
  189.1170  176.4540  137.8250 N   0  0  0  0  0  2  0  0  0  0  0  0
  191.3770  176.2930  137.2590 O   0  0  0  0  0  0  0  0  0  0  0  0
  190.3040  175.7080  137.5610 C   0  0  0  0  0  0  0  0  0  0  0  0
  190.2750  174.3220  137.6400 O   0  0  0  0  0  1  0  0  0  0  0  0
  1 10  1  0  0  0  0
  2  7  1  0  0  0  0
  2  6  1  0  0  0  0
  4 18  1  6  0  0  0
  4  1  1  0  0  0  0
  5  3  1  0  0  0  0
  8  3  1  6  0  0  0
  8 15  1  0  0  0  0
  9  6  2  0  0  0  0
 10  2  2  0  0  0  0
 11 13  1  6  0  0  0
 11  4  1  0  0  0  0
 11  8  1  0  0  0  0
 12 13  1  0  0  0  0
 12  5  1  0  0  0  0
 14  9  1  0  0  0  0
 15 10  1  0  0  0  0
 15 14  2  0  0  0  0
 16 17  2  0  0  0  0
 17 21  1  0  0  0  0
 18 17  1  0  0  0  0
 19 22  1  0  0  0  0
 20 23  1  0  0  0  0
 21 20  1  0  0  0  0
 21 19  2  0  0  0  0
 23 22  2  0  0  0  0
 24 18  1  0  0  0  0
 25 24  1  0  0  0  0
 26 27  1  0  0  0  0
 26 25  1  0  0  0  0
 28 29  2  0  0  0  0
 29 30  1  0  0  0  0
 29 27  1  0  0  0  0
M  END
>  <MODEL>
1

>  <REMARK>
 VINA RESULT:      -9.2      0.000      0.000
  Name = 
  6 active torsions:
  status: ('A' for Active; 'I' for Inactive)
    1  A    between atoms: C_4  and  N_13
    2  A    between atoms: N_7  and  C_16
    3  A    between atoms: C_8  and  C_12
    4  A    between atoms: N_13  and  C_27
    5  A    between atoms: C_16  and  C_30
    6  A    between atoms: C_27  and  C_30
                            x       y       z     vdW  Elec       q    Type
                         _______ _______ _______ _____ _____    ______ ____

>  <TORSDO>
F 6

$$$$
=
 OpenBabel11052412323D

 30 33  0  0  1  0  0  0  0  0999 V2000
  187.0210  178.1960  141.6600 C   0  0  0  0  0  2  0  0  0  0  0  0
  184.7050  178.7690  140.9100 C   0  0  0  0  0  0  0  0  0  0  0  0
  185.6140  178.6070  145.7450 C   0  0  0  0  0  2  0  0  0  0  0  0
  187.7380  177.3870  142.7350 C   0  0  2  0  0  3  0  0  0  0  0  0
  186.7590  178.5400  146.7680 C   0  0  0  0  0  2  0  0  0  0  0  0
  183.3520  179.0100  141.1580 C   0  0  0  0  0  3  0  0  0  0  0  0
  185.1760  178.8850  139.6430 F   0  0  0  0  0  0  0  0  0  0  0  0
  185.9290  177.8670  144.4310 C   0  0  2  0  0  3  0  0  0  0  0  0
  182.8450  178.8960  142.4520 C   0  0  0  0  0  3  0  0  0  0  0  0
  185.5640  178.4090  141.9610 C   0  0  0  0  0  0  0  0  0  0  0  0
  187.4340  177.9200  144.1370 C   0  0  1  0  0  3  0  0  0  0  0  0
  187.5720  177.2560  146.6140 C   0  0  0  0  0  2  0  0  0  0  0  0
  188.2100  177.1510  145.2200 C   0  0  0  0  0  2  0  0  0  0  0  0
  183.6930  178.5510  143.5050 C   0  0  0  0  0  3  0  0  0  0  0  0
  185.0610  178.3310  143.2820 C   0  0  0  0  0  0  0  0  0  0  0  0
  191.0340  177.9420  141.1930 O   0  0  0  0  0  0  0  0  0  0  0  0
  189.8010  177.6730  141.1990 C   0  0  0  0  0  0  0  0  0  0  0  0
  189.1740  177.2980  142.4490 N   0  0  0  0  0  0  0  0  0  0  0  0
  188.6820  176.6870  139.2130 N   0  0  0  0  0  0  0  0  0  0  0  0
  188.7040  178.9140  139.3180 N   0  0  0  0  0  2  0  0  0  0  0  0
  189.0790  177.7690  139.9110 C   0  0  0  0  0  0  0  0  0  0  0  0
  188.0530  177.2310  138.1520 C   0  0  0  0  0  3  0  0  0  0  0  0
  188.0650  178.5750  138.2130 N   0  0  0  0  0  0  0  0  0  0  0  0
  190.0160  176.9950  143.5990 C   0  0  0  0  0  2  0  0  0  0  0  0
  190.7860  175.7070  143.3570 C   0  0  0  0  0  2  0  0  0  0  0  0
  191.8970  175.5610  144.3800 C   0  0  0  0  0  2  0  0  0  0  0  0
  191.6680  176.4650  145.4970 N   0  0  0  0  0  2  0  0  0  0  0  0
  192.6230  175.0360  147.0780 O   0  0  0  0  0  0  0  0  0  0  0  0
  192.0600  176.1340  146.8280 C   0  0  0  0  0  0  0  0  0  0  0  0
  191.8180  177.0330  147.8580 O   0  0  0  0  0  1  0  0  0  0  0  0
  1 10  1  0  0  0  0
  1  4  1  0  0  0  0
  2  6  2  0  0  0  0
  2 10  1  0  0  0  0
  3  5  1  0  0  0  0
  4 18  1  6  0  0  0
  4 11  1  0  0  0  0
  6  9  1  0  0  0  0
  7  2  1  0  0  0  0
  8  3  1  1  0  0  0
  9 14  2  0  0  0  0
 10 15  2  0  0  0  0
 11  8  1  0  0  0  0
 11 13  1  1  0  0  0
 12  5  1  0  0  0  0
 13 12  1  0  0  0  0
 15 14  1  0  0  0  0
 15  8  1  0  0  0  0
 16 17  2  0  0  0  0
 17 18  1  0  0  0  0
 18 24  1  0  0  0  0
 19 21  2  0  0  0  0
 20 21  1  0  0  0  0
 21 17  1  0  0  0  0
 22 23  2  0  0  0  0
 22 19  1  0  0  0  0
 23 20  1  0  0  0  0
 25 24  1  0  0  0  0
 25 26  1  0  0  0  0
 26 27  1  0  0  0  0
 27 29  1  0  0  0  0
 29 28  2  0  0  0  0
 29 30  1  0  0  0  0
M  END
>  <MODEL>
2

>  <REMARK>
 VINA RESULT:      -8.9      2.599      5.725
  Name = 
  6 active torsions:
  status: ('A' for Active; 'I' for Inactive)
    1  A    between atoms: C_4  and  N_13
    2  A    between atoms: N_7  and  C_16
    3  A    between atoms: C_8  and  C_12
    4  A    between atoms: N_13  and  C_27
    5  A    between atoms: C_16  and  C_30
    6  A    between atoms: C_27  and  C_30
                            x       y       z     vdW  Elec       q    Type
                         _______ _______ _______ _____ _____    ______ ____

>  <TORSDO>
F 6

$$$$
=
 OpenBabel11052412323D

 30 33  0  0  1  0  0  0  0  0999 V2000
  184.1700  177.8200  141.5150 C   0  0  0  0  0  2  0  0  0  0  0  0
  185.7100  178.0580  143.4710 C   0  0  0  0  0  0  0  0  0  0  0  0
  180.8910  178.7470  144.2040 C   0  0  0  0  0  2  0  0  0  0  0  0
  182.9300  178.4730  140.9140 C   0  0  2  0  0  3  0  0  0  0  0  0
  179.5190  178.5540  143.5420 C   0  0  0  0  0  2  0  0  0  0  0  0
  185.9760  178.4080  144.7960 C   0  0  0  0  0  3  0  0  0  0  0  0
  186.7060  177.5370  142.7120 F   0  0  0  0  0  0  0  0  0  0  0  0
  182.0160  179.0520  143.1960 C   0  0  2  0  0  3  0  0  0  0  0  0
  184.9680  178.9460  145.5960 C   0  0  0  0  0  3  0  0  0  0  0  0
  184.4260  178.2460  142.9340 C   0  0  0  0  0  0  0  0  0  0  0  0
  181.7270  178.3680  141.8530 C   0  0  1  0  0  3  0  0  0  0  0  0
  179.3970  179.3730  142.2570 C   0  0  0  0  0  2  0  0  0  0  0  0
  180.4570  178.9640  141.2210 C   0  0  0  0  0  2  0  0  0  0  0  0
  183.6860  179.1250  145.0740 C   0  0  0  0  0  3  0  0  0  0  0  0
  183.3900  178.7550  143.7540 C   0  0  0  0  0  0  0  0  0  0  0  0
  182.7290  178.1880  137.2490 O   0  0  0  0  0  0  0  0  0  0  0  0
  182.5530  178.7450  138.3670 C   0  0  0  0  0  0  0  0  0  0  0  0
  182.6630  177.9460  139.5710 N   0  0  0  0  0  0  0  0  0  0  0  0
  181.0460  180.6860  138.0100 N   0  0  0  0  0  0  0  0  0  0  0  0
  183.0970  181.1610  138.7440 N   0  0  0  0  0  2  0  0  0  0  0  0
  182.2480  180.1930  138.3640 C   0  0  0  0  0  0  0  0  0  0  0  0
  181.2060  182.0140  138.1810 C   0  0  0  0  0  3  0  0  0  0  0  0
  182.4440  182.3040  138.6240 N   0  0  0  0  0  0  0  0  0  0  0  0
  182.7190  176.4960  139.4540 C   0  0  0  0  0  2  0  0  0  0  0  0
  181.3130  175.9230  139.3840 C   0  0  0  0  0  2  0  0  0  0  0  0
  181.1530  175.0760  138.1340 C   0  0  0  0  0  2  0  0  0  0  0  0
  182.4600  174.7360  137.5930 N   0  0  0  0  0  2  0  0  0  0  0  0
  181.8140  172.6020  136.9000 O   0  0  0  0  0  1  0  0  0  0  0  0
  182.7200  173.4720  136.9860 C   0  0  0  0  0  0  0  0  0  0  0  0
  183.9860  173.1980  136.4840 O   0  0  0  0  0  0  0  0  0  0  0  0
  1 10  1  0  0  0  0
  2  6  1  0  0  0  0
  4 18  1  6  0  0  0
  4  1  1  0  0  0  0
  4 11  1  0  0  0  0
  5  3  1  0  0  0  0
  6  9  2  0  0  0  0
  7  2  1  0  0  0  0
  8 15  1  0  0  0  0
  8  3  1  1  0  0  0
 10  2  2  0  0  0  0
 10 15  1  0  0  0  0
 11 13  1  6  0  0  0
 11  8  1  0  0  0  0
 12  5  1  0  0  0  0
 13 12  1  0  0  0  0
 14  9  1  0  0  0  0
 15 14  2  0  0  0  0
 16 17  2  0  0  0  0
 17 18  1  0  0  0  0
 19 22  1  0  0  0  0
 19 21  2  0  0  0  0
 21 17  1  0  0  0  0
 21 20  1  0  0  0  0
 22 23  2  0  0  0  0
 23 20  1  0  0  0  0
 24 18  1  0  0  0  0
 25 24  1  0  0  0  0
 26 25  1  0  0  0  0
 27 26  1  0  0  0  0
 28 29  1  0  0  0  0
 29 27  1  0  0  0  0
 30 29  2  0  0  0  0
M  END
>  <MODEL>
3

>  <REMARK>
 VINA RESULT:      -8.8      5.264      7.093
  Name = 
  6 active torsions:
  status: ('A' for Active; 'I' for Inactive)
    1  A    between atoms: C_4  and  N_13
    2  A    between atoms: N_7  and  C_16
    3  A    between atoms: C_8  and  C_12
    4  A    between atoms: N_13  and  C_27
    5  A    between atoms: C_16  and  C_30
    6  A    between atoms: C_27  and  C_30
                            x       y       z     vdW  Elec       q    Type
                         _______ _______ _______ _____ _____    ______ ____

>  <TORSDO>
F 6

$$$$
=
 OpenBabel11052412323D

 30 33  0  0  1  0  0  0  0  0999 V2000
  187.4490  178.4410  141.0360 C   0  0  0  0  0  2  0  0  0  0  0  0
  185.4210  179.0170  142.3810 C   0  0  0  0  0  0  0  0  0  0  0  0
  189.3190  177.1460  144.7330 C   0  0  0  0  0  2  0  0  0  0  0  0
  188.5240  177.3640  140.9410 C   0  0  2  0  0  3  0  0  0  0  0  0
  190.8080  176.8170  144.5510 C   0  0  0  0  0  2  0  0  0  0  0  0
  184.6840  179.0090  143.5670 C   0  0  0  0  0  3  0  0  0  0  0  0
  184.9130  179.6460  141.2910 F   0  0  0  0  0  0  0  0  0  0  0  0
  188.4990  176.9880  143.4390 C   0  0  2  0  0  3  0  0  0  0  0  0
  185.1840  178.3690  144.7000 C   0  0  0  0  0  3  0  0  0  0  0  0
  186.6690  178.3770  142.3200 C   0  0  0  0  0  0  0  0  0  0  0  0
  189.3700  177.2990  142.2140 C   0  0  1  0  0  3  0  0  0  0  0  0
  191.0210  175.7720  143.4560 C   0  0  0  0  0  2  0  0  0  0  0  0
  190.5000  176.2620  142.0960 C   0  0  0  0  0  2  0  0  0  0  0  0
  186.4290  177.7410  144.6530 C   0  0  0  0  0  3  0  0  0  0  0  0
  187.1980  177.7600  143.4790 C   0  0  0  0  0  0  0  0  0  0  0  0
  189.5540  178.3470  137.5460 O   0  0  0  0  0  0  0  0  0  0  0  0
  188.7920  177.8300  138.4090 C   0  0  0  0  0  0  0  0  0  0  0  0
  189.3240  177.5330  139.7240 N   0  0  0  0  0  0  0  0  0  0  0  0
  186.4250  178.5030  138.0800 N   0  0  0  0  0  0  0  0  0  0  0  0
  186.9360  176.4120  137.5030 N   0  0  0  0  0  2  0  0  0  0  0  0
  187.3920  177.5690  138.0090 C   0  0  0  0  0  0  0  0  0  0  0  0
  185.3460  177.8530  137.6000 C   0  0  0  0  0  3  0  0  0  0  0  0
  185.6520  176.5900  137.2500 N   0  0  0  0  0  0  0  0  0  0  0  0
  190.7640  177.5980  139.9340 C   0  0  0  0  0  2  0  0  0  0  0  0
  191.4740  176.6490  138.9820 C   0  0  0  0  0  2  0  0  0  0  0  0
  192.9750  176.8660  139.0470 C   0  0  0  0  0  2  0  0  0  0  0  0
  193.5590  176.7030  137.7250 N   0  0  0  0  0  2  0  0  0  0  0  0
  193.9920  174.4250  138.0030 O   0  0  0  0  0  1  0  0  0  0  0  0
  194.0510  175.4450  137.2670 C   0  0  0  0  0  0  0  0  0  0  0  0
  194.6000  175.3440  135.9950 O   0  0  0  0  0  0  0  0  0  0  0  0
  1 10  1  0  0  0  0
  2  6  1  0  0  0  0
  4 18  1  6  0  0  0
  4  1  1  0  0  0  0
  4 11  1  0  0  0  0
  5  3  1  0  0  0  0
  6  9  2  0  0  0  0
  7  2  1  0  0  0  0
  8 15  1  0  0  0  0
  8  3  1  1  0  0  0
 10  2  2  0  0  0  0
 10 15  1  0  0  0  0
 11 13  1  6  0  0  0
 11  8  1  0  0  0  0
 12  5  1  0  0  0  0
 13 12  1  0  0  0  0
 14  9  1  0  0  0  0
 15 14  2  0  0  0  0
 16 17  2  0  0  0  0
 17 18  1  0  0  0  0
 18 24  1  0  0  0  0
 20 21  1  0  0  0  0
 21 19  2  0  0  0  0
 21 17  1  0  0  0  0
 22 19  1  0  0  0  0
 23 20  1  0  0  0  0
 23 22  2  0  0  0  0
 25 26  1  0  0  0  0
 25 24  1  0  0  0  0
 27 26  1  0  0  0  0
 29 27  1  0  0  0  0
 29 28  1  0  0  0  0
 30 29  2  0  0  0  0
M  END
>  <MODEL>
4

>  <REMARK>
 VINA RESULT:      -8.6      2.602      5.162
  Name = 
  6 active torsions:
  status: ('A' for Active; 'I' for Inactive)
    1  A    between atoms: C_4  and  N_13
    2  A    between atoms: N_7  and  C_16
    3  A    between atoms: C_8  and  C_12
    4  A    between atoms: N_13  and  C_27
    5  A    between atoms: C_16  and  C_30
    6  A    between atoms: C_27  and  C_30
                            x       y       z     vdW  Elec       q    Type
                         _______ _______ _______ _____ _____    ______ ____

>  <TORSDO>
F 6

$$$$
=
 OpenBabel11052412323D

 30 33  0  0  1  0  0  0  0  0999 V2000
  185.3150  178.8700  142.6840 C   0  0  0  0  0  2  0  0  0  0  0  0
  184.2060  179.0590  144.9180 C   0  0  0  0  0  0  0  0  0  0  0  0
  188.9240  177.6620  144.7710 C   0  0  0  0  0  2  0  0  0  0  0  0
  186.2940  177.9730  141.9350 C   0  0  2  0  0  3  0  0  0  0  0  0
  190.1380  177.5700  143.8350 C   0  0  0  0  0  2  0  0  0  0  0  0
  184.1800  178.8750  146.3010 C   0  0  0  0  0  3  0  0  0  0  0  0
  183.1550  179.6660  144.3120 F   0  0  0  0  0  0  0  0  0  0  0  0
  187.5800  177.4570  144.0460 C   0  0  2  0  0  3  0  0  0  0  0  0
  185.2480  178.2530  146.9480 C   0  0  0  0  0  3  0  0  0  0  0  0
  185.3070  178.6180  144.1660 C   0  0  0  0  0  0  0  0  0  0  0  0
  187.6710  177.9640  142.6000 C   0  0  1  0  0  3  0  0  0  0  0  0
  189.8680  176.6330  142.6580 C   0  0  0  0  0  2  0  0  0  0  0  0
  188.6820  177.1160  141.8080 C   0  0  0  0  0  2  0  0  0  0  0  0
  186.3520  177.8220  146.2100 C   0  0  0  0  0  3  0  0  0  0  0  0
  186.4110  178.0220  144.8230 C   0  0  0  0  0  0  0  0  0  0  0  0
  185.3550  179.3000  138.6320 O   0  0  0  0  0  0  0  0  0  0  0  0
  185.1890  178.6290  139.6870 C   0  0  0  0  0  0  0  0  0  0  0  0
  186.3420  178.3290  140.5120 N   0  0  0  0  0  0  0  0  0  0  0  0
  182.8710  179.0430  140.4750 N   0  0  0  0  0  0  0  0  0  0  0  0
  183.3310  176.9550  139.8430 N   0  0  0  0  0  2  0  0  0  0  0  0
  183.8110  178.1980  140.0100 C   0  0  0  0  0  0  0  0  0  0  0  0
  181.7890  178.2480  140.5970 C   0  0  0  0  0  3  0  0  0  0  0  0
  182.0640  176.9870  140.2160 N   0  0  0  0  0  0  0  0  0  0  0  0
  187.6750  178.5830  139.9830 C   0  0  0  0  0  2  0  0  0  0  0  0
  187.8490  177.8790  138.6470 C   0  0  0  0  0  2  0  0  0  0  0  0
  189.2970  177.9550  138.1990 C   0  0  0  0  0  2  0  0  0  0  0  0
  189.7000  176.6920  137.6020 N   0  0  0  0  0  2  0  0  0  0  0  0
  190.9290  176.0020  139.4650 O   0  0  0  0  0  1  0  0  0  0  0  0
  190.5230  175.7570  138.2980 C   0  0  0  0  0  0  0  0  0  0  0  0
  190.8800  174.5650  137.6830 O   0  0  0  0  0  0  0  0  0  0  0  0
  1 10  1  0  0  0  0
  2  6  1  0  0  0  0
  4 18  1  6  0  0  0
  4 11  1  0  0  0  0
  4  1  1  0  0  0  0
  5  3  1  0  0  0  0
  6  9  2  0  0  0  0
  7  2  1  0  0  0  0
  8  3  1  1  0  0  0
  8 15  1  0  0  0  0
 10 15  1  0  0  0  0
 10  2  2  0  0  0  0
 11 13  1  6  0  0  0
 11  8  1  0  0  0  0
 12  5  1  0  0  0  0
 13 12  1  0  0  0  0
 14  9  1  0  0  0  0
 15 14  2  0  0  0  0
 16 17  2  0  0  0  0
 17 21  1  0  0  0  0
 17 18  1  0  0  0  0
 19 22  1  0  0  0  0
 20 21  1  0  0  0  0
 20 23  1  0  0  0  0
 21 19  2  0  0  0  0
 23 22  2  0  0  0  0
 24 18  1  0  0  0  0
 25 24  1  0  0  0  0
 26 25  1  0  0  0  0
 27 26  1  0  0  0  0
 27 29  1  0  0  0  0
 29 28  1  0  0  0  0
 30 29  2  0  0  0  0
M  END
>  <MODEL>
5

>  <REMARK>
 VINA RESULT:      -8.5      2.727      5.024
  Name = 
  6 active torsions:
  status: ('A' for Active; 'I' for Inactive)
    1  A    between atoms: C_4  and  N_13
    2  A    between atoms: N_7  and  C_16
    3  A    between atoms: C_8  and  C_12
    4  A    between atoms: N_13  and  C_27
    5  A    between atoms: C_16  and  C_30
    6  A    between atoms: C_27  and  C_30
                            x       y       z     vdW  Elec       q    Type
                         _______ _______ _______ _____ _____    ______ ____

>  <TORSDO>
F 6

$$$$
=
 OpenBabel11052412323D

 30 33  0  0  1  0  0  0  0  0999 V2000
  186.9420  178.6240  144.5550 C   0  0  0  0  0  2  0  0  0  0  0  0
  186.7510  178.6120  147.0480 C   0  0  0  0  0  0  0  0  0  0  0  0
  190.8660  176.8280  145.0210 C   0  0  0  0  0  2  0  0  0  0  0  0
  187.4560  177.7500  143.4150 C   0  0  2  0  0  3  0  0  0  0  0  0
  191.6360  176.7520  143.6940 C   0  0  0  0  0  2  0  0  0  0  0  0
  187.2010  178.2480  148.3180 C   0  0  0  0  0  3  0  0  0  0  0  0
  185.6420  179.3870  146.9370 F   0  0  0  0  0  0  0  0  0  0  0  0
  189.3370  176.8430  144.8360 C   0  0  2  0  0  3  0  0  0  0  0  0
  188.3380  177.4520  148.4580 C   0  0  0  0  0  3  0  0  0  0  0  0
  187.4370  178.1780  145.9020 C   0  0  0  0  0  0  0  0  0  0  0  0
  188.9670  177.5280  143.5130 C   0  0  1  0  0  3  0  0  0  0  0  0
  190.8370  176.0090  142.6240 C   0  0  0  0  0  2  0  0  0  0  0  0
  189.5000  176.7060  142.3280 C   0  0  0  0  0  2  0  0  0  0  0  0
  189.0330  177.0250  147.3260 C   0  0  0  0  0  3  0  0  0  0  0  0
  188.6130  177.4020  146.0410 C   0  0  0  0  0  0  0  0  0  0  0  0
  185.7140  179.7470  140.8590 O   0  0  0  0  0  0  0  0  0  0  0  0
  185.7930  178.9930  141.8680 C   0  0  0  0  0  0  0  0  0  0  0  0
  187.0340  178.2870  142.1170 N   0  0  0  0  0  0  0  0  0  0  0  0
  184.4040  179.6810  143.8080 N   0  0  0  0  0  0  0  0  0  0  0  0
  183.5740  178.0450  142.5410 N   0  0  0  0  0  2  0  0  0  0  0  0
  184.5990  178.8890  142.7350 C   0  0  0  0  0  0  0  0  0  0  0  0
  183.2060  179.2680  144.2690 C   0  0  0  0  0  3  0  0  0  0  0  0
  182.7030  178.2810  143.5060 N   0  0  0  0  0  0  0  0  0  0  0  0
  188.0540  178.2640  141.0770 C   0  0  0  0  0  2  0  0  0  0  0  0
  187.4290  177.8950  139.7410 C   0  0  0  0  0  2  0  0  0  0  0  0
  188.4430  178.0630  138.6240 C   0  0  0  0  0  2  0  0  0  0  0  0
  188.8840  176.7600  138.1520 N   0  0  0  0  0  2  0  0  0  0  0  0
  190.9890  176.9140  139.1520 O   0  0  0  0  0  1  0  0  0  0  0  0
  190.1800  176.2460  138.4560 C   0  0  0  0  0  0  0  0  0  0  0  0
  190.5510  174.9950  137.9810 O   0  0  0  0  0  0  0  0  0  0  0  0
  1 10  1  0  0  0  0
  2  6  1  0  0  0  0
  4 18  1  6  0  0  0
  4 11  1  0  0  0  0
  4  1  1  0  0  0  0
  5  3  1  0  0  0  0
  6  9  2  0  0  0  0
  7  2  1  0  0  0  0
  8  3  1  1  0  0  0
  8 15  1  0  0  0  0
 10 15  1  0  0  0  0
 10  2  2  0  0  0  0
 11 13  1  6  0  0  0
 11  8  1  0  0  0  0
 12  5  1  0  0  0  0
 13 12  1  0  0  0  0
 14  9  1  0  0  0  0
 15 14  2  0  0  0  0
 16 17  2  0  0  0  0
 17 18  1  0  0  0  0
 17 21  1  0  0  0  0
 19 22  1  0  0  0  0
 20 21  1  0  0  0  0
 20 23  1  0  0  0  0
 21 19  2  0  0  0  0
 23 22  2  0  0  0  0
 24 18  1  0  0  0  0
 25 24  1  0  0  0  0
 26 25  1  0  0  0  0
 27 29  1  0  0  0  0
 27 26  1  0  0  0  0
 29 28  1  0  0  0  0
 30 29  2  0  0  0  0
M  END
>  <MODEL>
6

>  <REMARK>
 VINA RESULT:      -8.3      2.503      4.821
  Name = 
  6 active torsions:
  status: ('A' for Active; 'I' for Inactive)
    1  A    between atoms: C_4  and  N_13
    2  A    between atoms: N_7  and  C_16
    3  A    between atoms: C_8  and  C_12
    4  A    between atoms: N_13  and  C_27
    5  A    between atoms: C_16  and  C_30
    6  A    between atoms: C_27  and  C_30
                            x       y       z     vdW  Elec       q    Type
                         _______ _______ _______ _____ _____    ______ ____

>  <TORSDO>
F 6

$$$$
=
 OpenBabel11052412323D

 30 33  0  0  1  0  0  0  0  0999 V2000
  183.8850  177.9180  141.3830 C   0  0  0  0  0  2  0  0  0  0  0  0
  185.4570  178.1090  143.3180 C   0  0  0  0  0  0  0  0  0  0  0  0
  180.6480  178.7370  144.1560 C   0  0  0  0  0  2  0  0  0  0  0  0
  182.6290  178.5800  140.8240 C   0  0  2  0  0  3  0  0  0  0  0  0
  179.2650  178.5530  143.5130 C   0  0  0  0  0  2  0  0  0  0  0  0
  185.7450  178.4210  144.6470 C   0  0  0  0  0  3  0  0  0  0  0  0
  186.4440  177.6200  142.5250 F   0  0  0  0  0  0  0  0  0  0  0  0
  181.7520  179.0810  143.1390 C   0  0  2  0  0  3  0  0  0  0  0  0
  184.7470  178.9260  145.4820 C   0  0  0  0  0  3  0  0  0  0  0  0
  184.1630  178.3030  142.8090 C   0  0  0  0  0  0  0  0  0  0  0  0
  181.4440  178.4360  141.7800 C   0  0  1  0  0  3  0  0  0  0  0  0
  179.1150  179.4090  142.2560 C   0  0  0  0  0  2  0  0  0  0  0  0
  180.1580  179.0410  141.1900 C   0  0  0  0  0  2  0  0  0  0  0  0
  183.4550  179.1110  144.9880 C   0  0  0  0  0  3  0  0  0  0  0  0
  183.1380  178.7780  143.6620 C   0  0  0  0  0  0  0  0  0  0  0  0
  182.4600  178.3580  137.1530 O   0  0  0  0  0  0  0  0  0  0  0  0
  182.3100  178.9120  138.2760 C   0  0  0  0  0  0  0  0  0  0  0  0
  182.3430  178.0920  139.4700 N   0  0  0  0  0  0  0  0  0  0  0  0
  180.9590  180.9670  137.9290 N   0  0  0  0  0  0  0  0  0  0  0  0
  183.0310  181.2760  138.6920 N   0  0  0  0  0  2  0  0  0  0  0  0
  182.1160  180.3790  138.2900 C   0  0  0  0  0  0  0  0  0  0  0  0
  181.2170  182.2760  138.1200 C   0  0  0  0  0  3  0  0  0  0  0  0
  182.4670  182.4660  138.5810 N   0  0  0  0  0  0  0  0  0  0  0  0
  182.2900  176.6430  139.3330 C   0  0  0  0  0  2  0  0  0  0  0  0
  181.4180  176.2620  138.1490 C   0  0  0  0  0  2  0  0  0  0  0  0
  180.3500  175.2730  138.5800 C   0  0  0  0  0  2  0  0  0  0  0  0
  179.8900  175.5920  139.9230 N   0  0  0  0  0  2  0  0  0  0  0  0
  179.6460  173.3580  140.5590 O   0  0  0  0  0  0  0  0  0  0  0  0
  179.5530  174.5760  140.8660 C   0  0  0  0  0  0  0  0  0  0  0  0
  179.1190  174.9340  142.1350 O   0  0  0  0  0  1  0  0  0  0  0  0
  1 10  1  0  0  0  0
  2  6  1  0  0  0  0
  4 18  1  6  0  0  0
  4  1  1  0  0  0  0
  4 11  1  0  0  0  0
  5  3  1  0  0  0  0
  6  9  2  0  0  0  0
  7  2  1  0  0  0  0
  8 15  1  0  0  0  0
  8  3  1  1  0  0  0
 10  2  2  0  0  0  0
 10 15  1  0  0  0  0
 11 13  1  6  0  0  0
 11  8  1  0  0  0  0
 12  5  1  0  0  0  0
 13 12  1  0  0  0  0
 14  9  1  0  0  0  0
 15 14  2  0  0  0  0
 16 17  2  0  0  0  0
 17 21  1  0  0  0  0
 17 18  1  0  0  0  0
 19 22  1  0  0  0  0
 19 21  2  0  0  0  0
 21 20  1  0  0  0  0
 22 23  2  0  0  0  0
 23 20  1  0  0  0  0
 24 18  1  0  0  0  0
 25 26  1  0  0  0  0
 25 24  1  0  0  0  0
 26 27  1  0  0  0  0
 27 29  1  0  0  0  0
 28 29  2  0  0  0  0
 29 30  1  0  0  0  0
M  END
>  <MODEL>
7

>  <REMARK>
 VINA RESULT:      -8.3      5.615      7.850
  Name = 
  6 active torsions:
  status: ('A' for Active; 'I' for Inactive)
    1  A    between atoms: C_4  and  N_13
    2  A    between atoms: N_7  and  C_16
    3  A    between atoms: C_8  and  C_12
    4  A    between atoms: N_13  and  C_27
    5  A    between atoms: C_16  and  C_30
    6  A    between atoms: C_27  and  C_30
                            x       y       z     vdW  Elec       q    Type
                         _______ _______ _______ _____ _____    ______ ____

>  <TORSDO>
F 6

$$$$
=
 OpenBabel11052412323D

 30 33  0  0  1  0  0  0  0  0999 V2000
  188.0730  176.9700  143.3840 C   0  0  0  0  0  2  0  0  0  0  0  0
  190.3880  176.0240  143.3550 C   0  0  0  0  0  0  0  0  0  0  0  0
  188.5130  177.4570  147.6740 C   0  0  0  0  0  2  0  0  0  0  0  0
  187.2700  178.0810  144.0520 C   0  0  2  0  0  3  0  0  0  0  0  0
  187.2000  177.8760  148.3530 C   0  0  0  0  0  2  0  0  0  0  0  0
  191.6080  175.7310  143.9650 C   0  0  0  0  0  3  0  0  0  0  0  0
  190.1830  175.6410  142.0690 F   0  0  0  0  0  0  0  0  0  0  0  0
  188.5920  177.8750  146.1940 C   0  0  2  0  0  3  0  0  0  0  0  0
  191.8430  176.1150  145.2860 C   0  0  0  0  0  3  0  0  0  0  0  0
  189.3880  176.7080  144.0640 C   0  0  0  0  0  0  0  0  0  0  0  0
  187.1910  177.8860  145.5670 C   0  0  1  0  0  3  0  0  0  0  0  0
  186.6310  179.1510  147.7310 C   0  0  0  0  0  2  0  0  0  0  0  0
  186.3240  178.9650  146.2370 C   0  0  0  0  0  2  0  0  0  0  0  0
  190.8500  176.7840  146.0030 C   0  0  0  0  0  3  0  0  0  0  0  0
  189.6070  177.0650  145.4170 C   0  0  0  0  0  0  0  0  0  0  0  0
  184.5340  177.8860  141.5960 O   0  0  0  0  0  0  0  0  0  0  0  0
  185.7010  178.1540  141.9940 C   0  0  0  0  0  0  0  0  0  0  0  0
  185.9550  178.2260  143.4190 N   0  0  0  0  0  0  0  0  0  0  0  0
  188.0500  178.4630  141.2500 N   0  0  0  0  0  0  0  0  0  0  0  0
  186.5070  178.4640  139.6420 N   0  0  0  0  0  2  0  0  0  0  0  0
  186.7380  178.3730  140.9610 C   0  0  0  0  0  0  0  0  0  0  0  0
  188.6130  178.6270  140.0360 C   0  0  0  0  0  3  0  0  0  0  0  0
  187.6830  178.6280  139.0630 N   0  0  0  0  0  0  0  0  0  0  0  0
  184.8240  178.2410  144.3370 C   0  0  0  0  0  2  0  0  0  0  0  0
  183.8900  179.3900  143.9970 C   0  0  0  0  0  2  0  0  0  0  0  0
  182.4590  179.0230  144.3440 C   0  0  0  0  0  2  0  0  0  0  0  0
  181.6460  178.9950  143.1370 N   0  0  0  0  0  2  0  0  0  0  0  0
  179.7520  178.1620  144.2210 O   0  0  0  0  0  1  0  0  0  0  0  0
  180.2910  178.5490  143.1500 C   0  0  0  0  0  0  0  0  0  0  0  0
  179.5590  178.5420  141.9710 O   0  0  0  0  0  0  0  0  0  0  0  0
  1  4  1  0  0  0  0
  1 10  1  0  0  0  0
  2  6  2  0  0  0  0
  2 10  1  0  0  0  0
  3  5  1  0  0  0  0
  4 18  1  6  0  0  0
  4 11  1  0  0  0  0
  6  9  1  0  0  0  0
  7  2  1  0  0  0  0
  8  3  1  1  0  0  0
  9 14  2  0  0  0  0
 10 15  2  0  0  0  0
 11  8  1  0  0  0  0
 11 13  1  1  0  0  0
 12  5  1  0  0  0  0
 13 12  1  0  0  0  0
 15 14  1  0  0  0  0
 15  8  1  0  0  0  0
 16 17  2  0  0  0  0
 17 18  1  0  0  0  0
 18 24  1  0  0  0  0
 20 21  1  0  0  0  0
 21 19  2  0  0  0  0
 21 17  1  0  0  0  0
 22 19  1  0  0  0  0
 23 20  1  0  0  0  0
 23 22  2  0  0  0  0
 25 24  1  0  0  0  0
 25 26  1  0  0  0  0
 27 29  1  0  0  0  0
 27 26  1  0  0  0  0
 29 28  1  0  0  0  0
 30 29  2  0  0  0  0
M  END
>  <MODEL>
8

>  <REMARK>
 VINA RESULT:      -8.1      3.888      6.883
  Name = 
  6 active torsions:
  status: ('A' for Active; 'I' for Inactive)
    1  A    between atoms: C_4  and  N_13
    2  A    between atoms: N_7  and  C_16
    3  A    between atoms: C_8  and  C_12
    4  A    between atoms: N_13  and  C_27
    5  A    between atoms: C_16  and  C_30
    6  A    between atoms: C_27  and  C_30
                            x       y       z     vdW  Elec       q    Type
                         _______ _______ _______ _____ _____    ______ ____

>  <TORSDO>
F 6

$$$$
=
 OpenBabel11052412323D

 30 33  0  0  1  0  0  0  0  0999 V2000
  182.2010  179.0820  142.0440 C   0  0  0  0  0  2  0  0  0  0  0  0
  183.3460  178.9140  144.2600 C   0  0  0  0  0  0  0  0  0  0  0  0
  186.0870  178.5300  140.1900 C   0  0  0  0  0  2  0  0  0  0  0  0
  182.2360  178.4490  140.6560 C   0  0  2  0  0  3  0  0  0  0  0  0
  186.0450  178.7420  138.6690 C   0  0  0  0  0  2  0  0  0  0  0  0
  184.4640  178.6520  145.0550 C   0  0  0  0  0  3  0  0  0  0  0  0
  182.1960  179.3240  144.8520 F   0  0  0  0  0  0  0  0  0  0  0  0
  184.7330  178.0930  140.7800 C   0  0  2  0  0  3  0  0  0  0  0  0
  185.6570  178.2290  144.4700 C   0  0  0  0  0  3  0  0  0  0  0  0
  183.4150  178.7520  142.8670 C   0  0  0  0  0  0  0  0  0  0  0  0
  183.5780  178.6860  139.9620 C   0  0  1  0  0  3  0  0  0  0  0  0
  185.0090  177.8360  138.0060 C   0  0  0  0  0  2  0  0  0  0  0  0
  183.5930  178.1100  138.5360 C   0  0  0  0  0  2  0  0  0  0  0  0
  185.7390  178.0760  143.0850 C   0  0  0  0  0  3  0  0  0  0  0  0
  184.6350  178.3600  142.2660 C   0  0  0  0  0  0  0  0  0  0  0  0
  178.9310  178.5160  139.0350 O   0  0  0  0  0  0  0  0  0  0  0  0
  180.0480  178.0150  139.3420 C   0  0  0  0  0  0  0  0  0  0  0  0
  181.0860  178.8850  139.8570 N   0  0  0  0  0  0  0  0  0  0  0  0
  180.6350  176.0090  138.0010 N   0  0  0  0  0  0  0  0  0  0  0  0
  180.0070  175.6290  140.1060 N   0  0  0  0  0  2  0  0  0  0  0  0
  180.2130  176.5570  139.1570 C   0  0  0  0  0  0  0  0  0  0  0  0
  180.6650  174.6920  138.2880 C   0  0  0  0  0  3  0  0  0  0  0  0
  180.2870  174.4600  139.5590 N   0  0  0  0  0  0  0  0  0  0  0  0
  180.9080  180.3280  139.7660 C   0  0  0  0  0  2  0  0  0  0  0  0
  181.2120  180.8040  138.3550 C   0  0  0  0  0  2  0  0  0  0  0  0
  181.1730  182.3200  138.2940 C   0  0  0  0  0  2  0  0  0  0  0  0
  180.7840  182.7540  136.9610 N   0  0  0  0  0  2  0  0  0  0  0  0
  181.9390  184.7800  137.0920 O   0  0  0  0  0  1  0  0  0  0  0  0
  181.2070  184.0060  136.4210 C   0  0  0  0  0  0  0  0  0  0  0  0
  180.8070  184.3720  135.1430 O   0  0  0  0  0  0  0  0  0  0  0  0
  1 10  1  0  0  0  0
  2  7  1  0  0  0  0
  2  6  1  0  0  0  0
  4 18  1  6  0  0  0
  4  1  1  0  0  0  0
  5  3  1  0  0  0  0
  8  3  1  6  0  0  0
  8 15  1  0  0  0  0
  9  6  2  0  0  0  0
 10  2  2  0  0  0  0
 11 13  1  6  0  0  0
 11  4  1  0  0  0  0
 11  8  1  0  0  0  0
 12 13  1  0  0  0  0
 12  5  1  0  0  0  0
 14  9  1  0  0  0  0
 15 10  1  0  0  0  0
 15 14  2  0  0  0  0
 16 17  2  0  0  0  0
 17 18  1  0  0  0  0
 19 22  1  0  0  0  0
 19 21  2  0  0  0  0
 21 17  1  0  0  0  0
 21 20  1  0  0  0  0
 22 23  2  0  0  0  0
 23 20  1  0  0  0  0
 24 18  1  0  0  0  0
 25 24  1  0  0  0  0
 26 25  1  0  0  0  0
 27 26  1  0  0  0  0
 29 27  1  0  0  0  0
 29 28  1  0  0  0  0
 30 29  2  0  0  0  0
M  END
>  <MODEL>
9

>  <REMARK>
 VINA RESULT:      -8.1      6.262      8.424
  Name = 
  6 active torsions:
  status: ('A' for Active; 'I' for Inactive)
    1  A    between atoms: C_4  and  N_13
    2  A    between atoms: N_7  and  C_16
    3  A    between atoms: C_8  and  C_12
    4  A    between atoms: N_13  and  C_27
    5  A    between atoms: C_16  and  C_30
    6  A    between atoms: C_27  and  C_30
                            x       y       z     vdW  Elec       q    Type
                         _______ _______ _______ _____ _____    ______ ____

>  <TORSDO>
F 6

$$$$
