=
 OpenBabel11052413513D

 27 31  0  0  1  0  0  0  0  0999 V2000
  187.4240  178.4970  141.3950 N   0  0  0  0  0  2  0  0  0  0  0  0
  187.6900  177.6750  143.7240 C   0  0  2  0  0  3  0  0  0  0  0  0
  189.2290  176.3130  142.2010 C   0  0  0  0  0  2  0  0  0  0  0  0
  190.3500  176.3680  138.7840 C   0  0  0  0  0  3  0  0  0  0  0  0
  189.7530  177.1490  137.8890 C   0  0  0  0  0  3  0  0  0  0  0  0
  186.8030  177.7230  142.4650 C   0  0  1  0  0  3  0  0  0  0  0  0
  188.5370  178.1020  140.5750 C   0  0  0  0  0  0  0  0  0  0  0  0
  189.1190  177.1860  143.4600 C   0  0  1  0  0  3  0  0  0  0  0  0
  190.6400  176.8310  140.1720 C   0  0  0  0  0  2  0  0  0  0  0  0
  189.2390  178.4990  138.1800 C   0  0  0  0  0  3  0  0  0  0  0  0
  188.7260  178.9090  139.3470 C   0  0  0  0  0  3  0  0  0  0  0  0
  189.3860  177.1090  140.9370 C   0  0  0  0  0  0  0  0  0  0  0  0
  183.9390  179.5360  144.1800 C   0  0  0  0  0  3  0  0  0  0  0  0
  185.4480  178.2930  142.7650 C   0  0  0  0  0  0  0  0  0  0  0  0
  184.3950  178.0590  141.8790 C   0  0  0  0  0  3  0  0  0  0  0  0
  183.1300  178.5750  142.1660 C   0  0  0  0  0  3  0  0  0  0  0  0
  182.9290  179.2970  143.3010 N   0  0  0  0  0  0  0  0  0  0  0  0
  185.2190  179.0390  143.9290 C   0  0  0  0  0  3  0  0  0  0  0  0
  190.6380  178.4080  144.7930 C   0  0  0  0  0  2  0  0  0  0  0  0
  191.3930  177.7530  143.7360 C   0  0  0  0  0  2  0  0  0  0  0  0
  190.0600  178.3040  143.4430 N   0  0  0  0  0  0  0  0  0  0  0  0
  187.0820  176.7850  144.7700 C   0  0  0  0  0  3  0  0  0  0  0  0
  187.0900  177.0860  146.0730 C   0  0  0  0  0  3  0  0  0  0  0  0
  189.2350  176.7450  147.7450 C   0  0  0  0  0  1  0  0  0  0  0  0
  187.5940  178.3900  148.0640 C   0  0  0  0  0  2  0  0  0  0  0  0
  188.9190  178.1440  147.4740 N   0  0  0  0  0  0  0  0  0  0  0  0
  187.7200  178.3470  146.6140 C   0  0  1  0  0  3  0  0  0  0  0  0
  1  6  1  0  0  0  0
  2 22  1  1  0  0  0
  4  9  1  0  0  0  0
  5 10  1  0  0  0  0
  5  4  2  0  0  0  0
  6 14  1  1  0  0  0
  6  2  1  0  0  0  0
  7 12  2  0  0  0  0
  7  1  1  0  0  0  0
  8  3  1  6  0  0  0
  8  2  1  0  0  0  0
  9 12  1  0  0  0  0
 10 11  2  0  0  0  0
 11  7  1  0  0  0  0
 12  3  1  0  0  0  0
 14 18  2  0  0  0  0
 15 16  2  0  0  0  0
 15 14  1  0  0  0  0
 16 17  1  0  0  0  0
 17 13  2  0  0  0  0
 18 13  1  0  0  0  0
 20 19  1  0  0  0  0
 21  8  1  0  0  0  0
 21 20  1  0  0  0  0
 21 19  1  0  0  0  0
 22 23  2  0  0  0  0
 26 24  1  0  0  0  0
 26 25  1  0  0  0  0
 27 23  1  1  0  0  0
 27 26  1  0  0  0  0
 27 25  1  0  0  0  0
M  END
>  <MODEL>
1

>  <REMARK>
 VINA RESULT:      -8.0      0.000      0.000
  Name = 
  4 active torsions:
  status: ('A' for Active; 'I' for Inactive)
    1  A    between atoms: C_2  and  C_6
    2  A    between atoms: C_9  and  C_15
    3  A    between atoms: N_14  and  C_19
    4  A    between atoms: C_17  and  C_21
                            x       y       z     vdW  Elec       q    Type
                         _______ _______ _______ _____ _____    ______ ____

>  <TORSDO>
F 4

$$$$
=
 OpenBabel11052413513D

 27 31  0  0  1  0  0  0  0  0999 V2000
  186.9700  177.6190  144.4750 N   0  0  0  0  0  2  0  0  0  0  0  0
  188.4300  177.8150  142.4750 C   0  0  2  0  0  3  0  0  0  0  0  0
  189.7860  178.4820  144.5380 C   0  0  0  0  0  2  0  0  0  0  0  0
  189.4130  178.4450  148.1150 C   0  0  0  0  0  3  0  0  0  0  0  0
  188.2270  178.2130  148.6700 C   0  0  0  0  0  3  0  0  0  0  0  0
  187.2630  178.4110  143.2850 C   0  0  1  0  0  3  0  0  0  0  0  0
  187.7490  177.5490  145.6810 C   0  0  0  0  0  0  0  0  0  0  0  0
  189.7030  177.5810  143.2970 C   0  0  1  0  0  3  0  0  0  0  0  0
  189.8990  177.6810  146.9300 C   0  0  0  0  0  2  0  0  0  0  0  0
  187.2390  177.2570  148.1390 C   0  0  0  0  0  3  0  0  0  0  0  0
  187.0450  176.9650  146.8460 C   0  0  0  0  0  3  0  0  0  0  0  0
  189.0500  177.9290  145.7250 C   0  0  0  0  0  0  0  0  0  0  0  0
  184.9040  179.0210  140.3690 C   0  0  0  0  0  3  0  0  0  0  0  0
  186.0200  178.5340  142.4540 C   0  0  0  0  0  0  0  0  0  0  0  0
  184.7760  178.2980  143.0430 C   0  0  0  0  0  3  0  0  0  0  0  0
  183.6180  178.4280  142.2750 C   0  0  0  0  0  3  0  0  0  0  0  0
  183.7050  178.7840  140.9650 N   0  0  0  0  0  0  0  0  0  0  0  0
  186.0860  178.9000  141.1030 C   0  0  0  0  0  3  0  0  0  0  0  0
  190.7110  175.5670  142.5870 C   0  0  0  0  0  2  0  0  0  0  0  0
  191.2930  175.9340  143.8680 C   0  0  0  0  0  2  0  0  0  0  0  0
  189.8590  176.1660  143.6280 N   0  0  0  0  0  0  0  0  0  0  0  0
  188.7840  178.7050  141.3170 C   0  0  0  0  0  3  0  0  0  0  0  0
  189.0500  178.2320  140.0940 C   0  0  0  0  0  3  0  0  0  0  0  0
  191.4090  177.1540  139.2100 C   0  0  0  0  0  1  0  0  0  0  0  0
  189.3100  176.5530  138.3530 C   0  0  0  0  0  2  0  0  0  0  0  0
  190.3320  176.1780  139.3440 N   0  0  0  0  0  0  0  0  0  0  0  0
  189.0260  176.7590  139.7670 C   0  0  1  0  0  3  0  0  0  0  0  0
  1  7  1  0  0  0  0
  2 22  1  6  0  0  0
  2  6  1  0  0  0  0
  2  8  1  0  0  0  0
  3 12  1  0  0  0  0
  4  5  2  0  0  0  0
  6 14  1  6  0  0  0
  6  1  1  0  0  0  0
  7 12  2  0  0  0  0
  7 11  1  0  0  0  0
  8 21  1  1  0  0  0
  8  3  1  0  0  0  0
  9  4  1  0  0  0  0
 10  5  1  0  0  0  0
 11 10  2  0  0  0  0
 12  9  1  0  0  0  0
 13 17  2  0  0  0  0
 13 18  1  0  0  0  0
 14 15  1  0  0  0  0
 16 15  2  0  0  0  0
 17 16  1  0  0  0  0
 18 14  2  0  0  0  0
 19 21  1  0  0  0  0
 19 20  1  0  0  0  0
 21 20  1  0  0  0  0
 23 22  2  0  0  0  0
 24 26  1  0  0  0  0
 25 26  1  0  0  0  0
 25 27  1  0  0  0  0
 26 27  1  0  0  0  0
 27 23  1  6  0  0  0
M  END
>  <MODEL>
2

>  <REMARK>
 VINA RESULT:      -6.8      1.666      5.828
  Name = 
  4 active torsions:
  status: ('A' for Active; 'I' for Inactive)
    1  A    between atoms: C_2  and  C_6
    2  A    between atoms: C_9  and  C_15
    3  A    between atoms: N_14  and  C_19
    4  A    between atoms: C_17  and  C_21
                            x       y       z     vdW  Elec       q    Type
                         _______ _______ _______ _____ _____    ______ ____

>  <TORSDO>
F 4

$$$$
=
 OpenBabel11052413513D

 27 31  0  0  1  0  0  0  0  0999 V2000
  190.7780  175.9200  139.3510 N   0  0  0  0  0  2  0  0  0  0  0  0
  188.8860  177.4860  139.7240 C   0  0  2  0  0  3  0  0  0  0  0  0
  189.7950  177.8580  137.3630 C   0  0  0  0  0  2  0  0  0  0  0  0
  192.1490  176.3170  135.1240 C   0  0  0  0  0  3  0  0  0  0  0  0
  192.9930  175.3880  135.5640 C   0  0  0  0  0  3  0  0  0  0  0  0
  190.3560  177.1410  140.0300 C   0  0  1  0  0  3  0  0  0  0  0  0
  191.0490  175.7590  137.9490 C   0  0  0  0  0  0  0  0  0  0  0  0
  188.5610  177.5570  138.2280 C   0  0  1  0  0  3  0  0  0  0  0  0
  190.7220  176.3600  135.5540 C   0  0  0  0  0  2  0  0  0  0  0  0
  192.6490  174.3690  136.5720 C   0  0  0  0  0  3  0  0  0  0  0  0
  191.7990  174.5320  137.5940 C   0  0  0  0  0  3  0  0  0  0  0  0
  190.5930  176.6340  137.0190 C   0  0  0  0  0  0  0  0  0  0  0  0
  190.1780  175.9120  143.6210 C   0  0  0  0  0  3  0  0  0  0  0  0
  190.5950  176.9950  141.5040 C   0  0  0  0  0  0  0  0  0  0  0  0
  191.4690  177.8740  142.1470 C   0  0  0  0  0  3  0  0  0  0  0  0
  191.6790  177.7490  143.5210 C   0  0  0  0  0  3  0  0  0  0  0  0
  191.0350  176.7790  144.2240 N   0  0  0  0  0  0  0  0  0  0  0  0
  189.9420  176.0040  142.2480 C   0  0  0  0  0  3  0  0  0  0  0  0
  186.4150  176.6530  137.8450 C   0  0  0  0  0  2  0  0  0  0  0  0
  187.1100  176.7140  136.5690 C   0  0  0  0  0  2  0  0  0  0  0  0
  187.8560  176.3570  137.7870 N   0  0  0  0  0  0  0  0  0  0  0  0
  188.5080  178.8010  140.3450 C   0  0  0  0  0  3  0  0  0  0  0  0
  187.6400  178.9020  141.3570 C   0  0  0  0  0  3  0  0  0  0  0  0
  185.2220  179.3750  142.5600 C   0  0  0  0  0  1  0  0  0  0  0  0
  186.8180  177.8790  143.4050 C   0  0  0  0  0  2  0  0  0  0  0  0
  185.6150  177.9680  142.5630 N   0  0  0  0  0  0  0  0  0  0  0  0
  186.9540  177.7030  141.9660 C   0  0  1  0  0  3  0  0  0  0  0  0
  1  6  1  0  0  0  0
  2  6  1  0  0  0  0
  2 22  1  6  0  0  0
  4  9  1  0  0  0  0
  4  5  2  0  0  0  0
  5 10  1  0  0  0  0
  6 14  1  1  0  0  0
  7  1  1  0  0  0  0
  8  3  1  6  0  0  0
  8  2  1  0  0  0  0
  9 12  1  0  0  0  0
 10 11  2  0  0  0  0
 11  7  1  0  0  0  0
 12  3  1  0  0  0  0
 12  7  2  0  0  0  0
 13 17  1  0  0  0  0
 14 15  2  0  0  0  0
 14 18  1  0  0  0  0
 15 16  1  0  0  0  0
 16 17  2  0  0  0  0
 18 13  2  0  0  0  0
 20 21  1  0  0  0  0
 20 19  1  0  0  0  0
 21 19  1  0  0  0  0
 21  8  1  0  0  0  0
 22 23  2  0  0  0  0
 24 26  1  0  0  0  0
 26 25  1  0  0  0  0
 27 23  1  6  0  0  0
 27 26  1  0  0  0  0
 27 25  1  0  0  0  0
M  END
>  <MODEL>
3

>  <REMARK>
 VINA RESULT:      -6.2      2.350      5.918
  Name = 
  4 active torsions:
  status: ('A' for Active; 'I' for Inactive)
    1  A    between atoms: C_2  and  C_6
    2  A    between atoms: C_9  and  C_15
    3  A    between atoms: N_14  and  C_19
    4  A    between atoms: C_17  and  C_21
                            x       y       z     vdW  Elec       q    Type
                         _______ _______ _______ _____ _____    ______ ____

>  <TORSDO>
F 4

$$$$
=
 OpenBabel11052413513D

 27 31  0  0  1  0  0  0  0  0999 V2000
  183.6670  178.0180  140.2510 N   0  0  0  0  0  2  0  0  0  0  0  0
  181.4850  177.9880  139.0630 C   0  0  2  0  0  3  0  0  0  0  0  0
  181.0400  178.2100  141.5710 C   0  0  0  0  0  2  0  0  0  0  0  0
  182.9220  178.7500  144.5880 C   0  0  0  0  0  3  0  0  0  0  0  0
  184.2480  178.6520  144.5860 C   0  0  0  0  0  3  0  0  0  0  0  0
  182.7040  177.1790  139.5440 C   0  0  1  0  0  3  0  0  0  0  0  0
  183.5300  178.5670  141.5720 C   0  0  0  0  0  0  0  0  0  0  0  0
  180.7940  178.7910  140.1710 C   0  0  1  0  0  3  0  0  0  0  0  0
  182.1720  179.4120  143.4820 C   0  0  0  0  0  2  0  0  0  0  0  0
  185.1080  179.0960  143.4750 C   0  0  0  0  0  3  0  0  0  0  0  0
  184.7870  179.0680  142.1740 C   0  0  0  0  0  3  0  0  0  0  0  0
  182.3270  178.6760  142.1900 C   0  0  0  0  0  0  0  0  0  0  0  0
  183.9080  174.5030  137.1300 C   0  0  0  0  0  3  0  0  0  0  0  0
  183.3940  176.4880  138.4060 C   0  0  0  0  0  0  0  0  0  0  0  0
  184.2240  177.2240  137.5580 C   0  0  0  0  0  3  0  0  0  0  0  0
  184.8790  176.5780  136.5080 C   0  0  0  0  0  3  0  0  0  0  0  0
  184.7090  175.2420  136.3170 N   0  0  0  0  0  0  0  0  0  0  0  0
  183.2340  175.1120  138.1910 C   0  0  0  0  0  3  0  0  0  0  0  0
  180.7360  180.6800  138.7550 C   0  0  0  0  0  2  0  0  0  0  0  0
  179.8890  180.9540  139.9050 C   0  0  0  0  0  2  0  0  0  0  0  0
  181.1440  180.2070  140.0880 N   0  0  0  0  0  0  0  0  0  0  0  0
  180.4610  177.0860  138.4360 C   0  0  0  0  0  3  0  0  0  0  0  0
  180.1540  177.1310  137.1350 C   0  0  0  0  0  3  0  0  0  0  0  0
  179.1230  177.1950  134.5960 C   0  0  0  0  0  1  0  0  0  0  0  0
  181.4130  177.3780  135.0680 C   0  0  0  0  0  2  0  0  0  0  0  0
  180.1930  178.1630  134.8190 N   0  0  0  0  0  0  0  0  0  0  0  0
  180.8040  178.0990  136.1770 C   0  0  1  0  0  3  0  0  0  0  0  0
  1  7  1  0  0  0  0
  2 22  1  1  0  0  0
  2  6  1  0  0  0  0
  2  8  1  0  0  0  0
  3 12  1  0  0  0  0
  5  4  2  0  0  0  0
  6 14  1  6  0  0  0
  6  1  1  0  0  0  0
  7 11  1  0  0  0  0
  7 12  2  0  0  0  0
  8 21  1  1  0  0  0
  8  3  1  0  0  0  0
  9  4  1  0  0  0  0
 10  5  1  0  0  0  0
 11 10  2  0  0  0  0
 12  9  1  0  0  0  0
 13 18  1  0  0  0  0
 15 14  1  0  0  0  0
 16 15  2  0  0  0  0
 17 16  1  0  0  0  0
 17 13  2  0  0  0  0
 18 14  2  0  0  0  0
 19 20  1  0  0  0  0
 19 21  1  0  0  0  0
 20 21  1  0  0  0  0
 23 22  2  0  0  0  0
 24 26  1  0  0  0  0
 25 27  1  0  0  0  0
 26 25  1  0  0  0  0
 26 27  1  0  0  0  0
 27 23  1  1  0  0  0
M  END
>  <MODEL>
4

>  <REMARK>
 VINA RESULT:      -6.1      4.699      9.480
  Name = 
  4 active torsions:
  status: ('A' for Active; 'I' for Inactive)
    1  A    between atoms: C_2  and  C_6
    2  A    between atoms: C_9  and  C_15
    3  A    between atoms: N_14  and  C_19
    4  A    between atoms: C_17  and  C_21
                            x       y       z     vdW  Elec       q    Type
                         _______ _______ _______ _____ _____    ______ ____

>  <TORSDO>
F 4

$$$$
=
 OpenBabel11052413513D

 27 31  0  0  1  0  0  0  0  0999 V2000
  188.0550  177.3600  141.3570 N   0  0  0  0  0  2  0  0  0  0  0  0
  188.7010  177.7780  138.9950 C   0  0  2  0  0  3  0  0  0  0  0  0
  190.7380  178.2030  140.4810 C   0  0  0  0  0  2  0  0  0  0  0  0
  191.6820  177.7610  143.9240 C   0  0  0  0  0  3  0  0  0  0  0  0
  190.7680  177.4700  144.8440 C   0  0  0  0  0  3  0  0  0  0  0  0
  187.9320  178.2820  140.2320 C   0  0  1  0  0  3  0  0  0  0  0  0
  189.2130  177.1520  142.1830 C   0  0  0  0  0  0  0  0  0  0  0  0
  190.1730  177.4490  139.2680 C   0  0  1  0  0  3  0  0  0  0  0  0
  191.6730  177.1350  142.5700 C   0  0  0  0  0  2  0  0  0  0  0  0
  189.6140  176.5840  144.6130 C   0  0  0  0  0  3  0  0  0  0  0  0
  188.9530  176.4410  143.4560 C   0  0  0  0  0  3  0  0  0  0  0  0
  190.4570  177.5200  141.7900 C   0  0  0  0  0  0  0  0  0  0  0  0
  184.6050  178.4760  138.4070 C   0  0  0  0  0  3  0  0  0  0  0  0
  186.4800  178.5010  139.9290 C   0  0  0  0  0  0  0  0  0  0  0  0
  185.6370  178.9900  140.9290 C   0  0  0  0  0  3  0  0  0  0  0  0
  184.2890  179.2100  140.6420 C   0  0  0  0  0  3  0  0  0  0  0  0
  183.8040  178.9510  139.3980 N   0  0  0  0  0  0  0  0  0  0  0  0
  185.9600  178.2420  138.6540 C   0  0  0  0  0  3  0  0  0  0  0  0
  190.2720  175.4550  138.0080 C   0  0  0  0  0  2  0  0  0  0  0  0
  191.5850  175.6830  138.5920 C   0  0  0  0  0  2  0  0  0  0  0  0
  190.3760  176.0060  139.3690 N   0  0  0  0  0  0  0  0  0  0  0  0
  188.6500  178.7930  137.8880 C   0  0  0  0  0  3  0  0  0  0  0  0
  188.2830  178.4860  136.6390 C   0  0  0  0  0  3  0  0  0  0  0  0
  189.7340  177.3800  134.5940 C   0  0  0  0  0  1  0  0  0  0  0  0
  187.4210  177.0850  134.8470 C   0  0  0  0  0  2  0  0  0  0  0  0
  188.7280  176.4810  135.1530 N   0  0  0  0  0  0  0  0  0  0  0  0
  187.8910  177.0880  136.2250 C   0  0  1  0  0  3  0  0  0  0  0  0
  1  7  1  0  0  0  0
  2 22  1  6  0  0  0
  2  8  1  0  0  0  0
  2  6  1  0  0  0  0
  3 12  1  0  0  0  0
  4  5  2  0  0  0  0
  6 14  1  6  0  0  0
  6  1  1  0  0  0  0
  7 11  1  0  0  0  0
  8 21  1  1  0  0  0
  8  3  1  0  0  0  0
  9  4  1  0  0  0  0
 10  5  1  0  0  0  0
 11 10  2  0  0  0  0
 12  7  2  0  0  0  0
 12  9  1  0  0  0  0
 13 18  2  0  0  0  0
 13 17  1  0  0  0  0
 14 15  2  0  0  0  0
 16 15  1  0  0  0  0
 17 16  2  0  0  0  0
 18 14  1  0  0  0  0
 19 20  1  0  0  0  0
 19 21  1  0  0  0  0
 20 21  1  0  0  0  0
 23 22  2  0  0  0  0
 24 26  1  0  0  0  0
 25 26  1  0  0  0  0
 25 27  1  0  0  0  0
 26 27  1  0  0  0  0
 27 23  1  6  0  0  0
M  END
>  <MODEL>
5

>  <REMARK>
 VINA RESULT:      -5.7      2.527      6.624
  Name = 
  4 active torsions:
  status: ('A' for Active; 'I' for Inactive)
    1  A    between atoms: C_2  and  C_6
    2  A    between atoms: C_9  and  C_15
    3  A    between atoms: N_14  and  C_19
    4  A    between atoms: C_17  and  C_21
                            x       y       z     vdW  Elec       q    Type
                         _______ _______ _______ _____ _____    ______ ____

>  <TORSDO>
F 4

$$$$
=
 OpenBabel11052413513D

 27 31  0  0  1  0  0  0  0  0999 V2000
  185.2550  177.8370  138.5900 N   0  0  0  0  0  2  0  0  0  0  0  0
  183.5470  176.4710  137.4100 C   0  0  2  0  0  3  0  0  0  0  0  0
  185.5420  176.8070  135.8450 C   0  0  0  0  0  2  0  0  0  0  0  0
  188.8780  178.1400  136.0050 C   0  0  0  0  0  3  0  0  0  0  0  0
  189.2720  178.8550  137.0550 C   0  0  0  0  0  3  0  0  0  0  0  0
  183.9580  177.8650  137.9210 C   0  0  1  0  0  3  0  0  0  0  0  0
  186.5450  177.7030  137.9700 C   0  0  0  0  0  0  0  0  0  0  0  0
  184.6010  175.7990  136.5210 C   0  0  1  0  0  3  0  0  0  0  0  0
  188.0470  176.9100  136.1480 C   0  0  0  0  0  2  0  0  0  0  0  0
  188.8690  178.5740  138.4440 C   0  0  0  0  0  3  0  0  0  0  0  0
  187.6930  178.0650  138.8330 C   0  0  0  0  0  3  0  0  0  0  0  0
  186.6970  177.2180  136.7130 C   0  0  0  0  0  0  0  0  0  0  0  0
  181.7170  178.4040  140.9420 C   0  0  0  0  0  3  0  0  0  0  0  0
  182.9320  178.4350  138.8560 C   0  0  0  0  0  0  0  0  0  0  0  0
  182.1920  179.5520  138.4630 C   0  0  0  0  0  3  0  0  0  0  0  0
  181.2260  180.0720  139.3260 C   0  0  0  0  0  3  0  0  0  0  0  0
  181.0100  179.4930  140.5380 N   0  0  0  0  0  0  0  0  0  0  0  0
  182.6930  177.8540  140.1080 C   0  0  0  0  0  3  0  0  0  0  0  0
  184.3550  173.7330  137.6360 C   0  0  0  0  0  2  0  0  0  0  0  0
  185.2200  173.5220  136.4860 C   0  0  0  0  0  2  0  0  0  0  0  0
  185.3290  174.7700  137.2600 N   0  0  0  0  0  0  0  0  0  0  0  0
  182.2640  176.5460  136.6320 C   0  0  0  0  0  3  0  0  0  0  0  0
  181.1400  175.9390  137.0280 C   0  0  0  0  0  3  0  0  0  0  0  0
  179.4070  173.8160  136.9770 C   0  0  0  0  0  1  0  0  0  0  0  0
  179.7180  175.1880  138.8530 C   0  0  0  0  0  2  0  0  0  0  0  0
  180.1570  173.9320  138.2250 N   0  0  0  0  0  0  0  0  0  0  0  0
  181.0590  175.1160  138.2910 C   0  0  1  0  0  3  0  0  0  0  0  0
  2 22  1  6  0  0  0
  2  6  1  0  0  0  0
  3 12  1  0  0  0  0
  4  9  1  0  0  0  0
  4  5  2  0  0  0  0
  5 10  1  0  0  0  0
  6  1  1  0  0  0  0
  6 14  1  1  0  0  0
  7  1  1  0  0  0  0
  7 11  1  0  0  0  0
  8  3  1  1  0  0  0
  8 21  1  0  0  0  0
  8  2  1  0  0  0  0
  9 12  1  0  0  0  0
 10 11  2  0  0  0  0
 12  7  2  0  0  0  0
 14 18  1  0  0  0  0
 15 14  2  0  0  0  0
 15 16  1  0  0  0  0
 16 17  2  0  0  0  0
 17 13  1  0  0  0  0
 18 13  2  0  0  0  0
 20 21  1  0  0  0  0
 20 19  1  0  0  0  0
 21 19  1  0  0  0  0
 22 23  2  0  0  0  0
 24 26  1  0  0  0  0
 26 27  1  0  0  0  0
 26 25  1  0  0  0  0
 27 23  1  6  0  0  0
 27 25  1  0  0  0  0
M  END
>  <MODEL>
6

>  <REMARK>
 VINA RESULT:      -5.6      5.225      7.680
  Name = 
  4 active torsions:
  status: ('A' for Active; 'I' for Inactive)
    1  A    between atoms: C_2  and  C_6
    2  A    between atoms: C_9  and  C_15
    3  A    between atoms: N_14  and  C_19
    4  A    between atoms: C_17  and  C_21
                            x       y       z     vdW  Elec       q    Type
                         _______ _______ _______ _____ _____    ______ ____

>  <TORSDO>
F 4

$$$$
=
 OpenBabel11052413513D

 27 31  0  0  1  0  0  0  0  0999 V2000
  188.1750  177.2890  142.0970 N   0  0  0  0  0  2  0  0  0  0  0  0
  190.5970  177.1780  141.5540 C   0  0  2  0  0  3  0  0  0  0  0  0
  190.3360  178.1620  143.8990 C   0  0  0  0  0  2  0  0  0  0  0  0
  187.7190  178.6810  146.3120 C   0  0  0  0  0  3  0  0  0  0  0  0
  186.4430  178.5330  145.9690 C   0  0  0  0  0  3  0  0  0  0  0  0
  189.2510  177.8880  141.3130 C   0  0  1  0  0  3  0  0  0  0  0  0
  187.9670  177.4110  143.5140 C   0  0  0  0  0  0  0  0  0  0  0  0
  190.9930  177.0790  143.0310 C   0  0  1  0  0  3  0  0  0  0  0  0
  188.7810  177.7430  145.8440 C   0  0  0  0  0  2  0  0  0  0  0  0
  185.9510  177.5020  145.0370 C   0  0  0  0  0  3  0  0  0  0  0  0
  186.6200  177.0120  143.9840 C   0  0  0  0  0  3  0  0  0  0  0  0
  188.9540  177.7970  144.3600 C   0  0  0  0  0  0  0  0  0  0  0  0
  188.6820  178.9560  137.7110 C   0  0  0  0  0  3  0  0  0  0  0  0
  188.8710  177.8750  139.8620 C   0  0  0  0  0  0  0  0  0  0  0  0
  188.2940  176.7270  139.3150 C   0  0  0  0  0  3  0  0  0  0  0  0
  187.9250  176.7210  137.9680 C   0  0  0  0  0  3  0  0  0  0  0  0
  188.1250  177.8260  137.2010 N   0  0  0  0  0  0  0  0  0  0  0  0
  189.0670  179.0030  139.0530 C   0  0  0  0  0  3  0  0  0  0  0  0
  192.0560  175.0470  143.5940 C   0  0  0  0  0  2  0  0  0  0  0  0
  191.5010  175.6160  144.8120 C   0  0  0  0  0  2  0  0  0  0  0  0
  190.7540  175.7340  143.5490 N   0  0  0  0  0  0  0  0  0  0  0  0
  191.7060  177.8780  140.8220 C   0  0  0  0  0  3  0  0  0  0  0  0
  192.2470  177.4000  139.6960 C   0  0  0  0  0  3  0  0  0  0  0  0
  193.7750  176.4790  137.6140 C   0  0  0  0  0  1  0  0  0  0  0  0
  191.4350  176.3310  137.6670 C   0  0  0  0  0  2  0  0  0  0  0  0
  192.6710  175.5920  137.9690 N   0  0  0  0  0  0  0  0  0  0  0  0
  191.7960  176.1070  139.0600 C   0  0  1  0  0  3  0  0  0  0  0  0
  1  7  1  0  0  0  0
  2 22  1  6  0  0  0
  2  8  1  0  0  0  0
  3 12  1  0  0  0  0
  5  4  2  0  0  0  0
  6 14  1  6  0  0  0
  6  2  1  0  0  0  0
  6  1  1  0  0  0  0
  7 11  1  0  0  0  0
  7 12  2  0  0  0  0
  8 21  1  1  0  0  0
  8  3  1  0  0  0  0
  9  4  1  0  0  0  0
 10  5  1  0  0  0  0
 11 10  2  0  0  0  0
 12  9  1  0  0  0  0
 13 18  1  0  0  0  0
 15 14  1  0  0  0  0
 16 15  2  0  0  0  0
 17 13  2  0  0  0  0
 17 16  1  0  0  0  0
 18 14  2  0  0  0  0
 19 20  1  0  0  0  0
 21 19  1  0  0  0  0
 21 20  1  0  0  0  0
 23 22  2  0  0  0  0
 24 26  1  0  0  0  0
 25 26  1  0  0  0  0
 25 27  1  0  0  0  0
 26 27  1  0  0  0  0
 27 23  1  1  0  0  0
M  END
>  <MODEL>
7

>  <REMARK>
 VINA RESULT:      -5.5      2.299      6.552
  Name = 
  4 active torsions:
  status: ('A' for Active; 'I' for Inactive)
    1  A    between atoms: C_2  and  C_6
    2  A    between atoms: C_9  and  C_15
    3  A    between atoms: N_14  and  C_19
    4  A    between atoms: C_17  and  C_21
                            x       y       z     vdW  Elec       q    Type
                         _______ _______ _______ _____ _____    ______ ____

>  <TORSDO>
F 4

$$$$
=
 OpenBabel11052413513D

 27 31  0  0  1  0  0  0  0  0999 V2000
  182.8200  176.6680  138.7840 N   0  0  0  0  0  2  0  0  0  0  0  0
  184.9660  177.9010  138.5720 C   0  0  2  0  0  3  0  0  0  0  0  0
  183.1810  179.5190  139.4290 C   0  0  0  0  0  2  0  0  0  0  0  0
  179.7840  179.3850  140.6020 C   0  0  0  0  0  3  0  0  0  0  0  0
  179.0550  178.2850  140.4400 C   0  0  0  0  0  3  0  0  0  0  0  0
  183.7660  177.2620  137.8460 C   0  0  1  0  0  3  0  0  0  0  0  0
  181.9060  177.3620  139.6480 C   0  0  0  0  0  0  0  0  0  0  0  0
  184.5730  178.9090  139.6570 C   0  0  1  0  0  3  0  0  0  0  0  0
  181.2190  179.3340  141.0070 C   0  0  0  0  0  2  0  0  0  0  0  0
  179.5880  176.9160  140.5510 C   0  0  0  0  0  3  0  0  0  0  0  0
  180.8250  176.5250  140.2190 C   0  0  0  0  0  3  0  0  0  0  0  0
  182.0650  178.6710  139.9670 C   0  0  0  0  0  0  0  0  0  0  0  0
  184.5690  175.4630  134.5970 C   0  0  0  0  0  3  0  0  0  0  0  0
  184.2060  176.2200  136.8610 C   0  0  0  0  0  0  0  0  0  0  0  0
  184.6440  174.9780  137.3260 C   0  0  0  0  0  3  0  0  0  0  0  0
  185.0380  174.0030  136.4090 C   0  0  0  0  0  3  0  0  0  0  0  0
  184.9930  174.2630  135.0740 N   0  0  0  0  0  0  0  0  0  0  0  0
  184.1670  176.4660  135.4820 C   0  0  0  0  0  3  0  0  0  0  0  0
  186.1390  178.3680  141.3380 C   0  0  0  0  0  2  0  0  0  0  0  0
  185.2380  179.3770  141.8720 C   0  0  0  0  0  2  0  0  0  0  0  0
  184.7100  178.3250  140.9890 N   0  0  0  0  0  0  0  0  0  0  0  0
  185.8690  178.5990  137.5950 C   0  0  0  0  0  3  0  0  0  0  0  0
  187.1050  178.1710  137.3150 C   0  0  0  0  0  3  0  0  0  0  0  0
  189.1400  178.6280  139.0940 C   0  0  0  0  0  1  0  0  0  0  0  0
  189.1130  176.8260  137.5920 C   0  0  0  0  0  2  0  0  0  0  0  0
  188.7740  177.2200  138.9690 N   0  0  0  0  0  0  0  0  0  0  0  0
  187.7100  176.9490  137.9620 C   0  0  1  0  0  3  0  0  0  0  0  0
  1  7  1  0  0  0  0
  2 22  1  6  0  0  0
  2  8  1  0  0  0  0
  3 12  1  0  0  0  0
  4  9  1  0  0  0  0
  5 10  1  0  0  0  0
  5  4  2  0  0  0  0
  6 14  1  6  0  0  0
  6  2  1  0  0  0  0
  6  1  1  0  0  0  0
  7 12  2  0  0  0  0
  7 11  1  0  0  0  0
  8  3  1  6  0  0  0
  8 21  1  0  0  0  0
 11 10  2  0  0  0  0
 12  9  1  0  0  0  0
 13 17  2  0  0  0  0
 13 18  1  0  0  0  0
 14 15  1  0  0  0  0
 16 15  2  0  0  0  0
 17 16  1  0  0  0  0
 18 14  2  0  0  0  0
 19 20  1  0  0  0  0
 21 19  1  0  0  0  0
 21 20  1  0  0  0  0
 23 22  2  0  0  0  0
 25 27  1  0  0  0  0
 25 26  1  0  0  0  0
 26 24  1  0  0  0  0
 27 23  1  6  0  0  0
 27 26  1  0  0  0  0
M  END
>  <MODEL>
8

>  <REMARK>
 VINA RESULT:      -5.4      4.007      8.176
  Name = 
  4 active torsions:
  status: ('A' for Active; 'I' for Inactive)
    1  A    between atoms: C_2  and  C_6
    2  A    between atoms: C_9  and  C_15
    3  A    between atoms: N_14  and  C_19
    4  A    between atoms: C_17  and  C_21
                            x       y       z     vdW  Elec       q    Type
                         _______ _______ _______ _____ _____    ______ ____

>  <TORSDO>
F 4

$$$$
=
 OpenBabel11052413513D

 27 31  0  0  1  0  0  0  0  0999 V2000
  183.6000  177.9640  140.0630 N   0  0  0  0  0  2  0  0  0  0  0  0
  181.5380  178.1390  138.6870 C   0  0  2  0  0  3  0  0  0  0  0  0
  180.8960  178.3910  141.1490 C   0  0  0  0  0  2  0  0  0  0  0  0
  182.5440  178.7440  144.3260 C   0  0  0  0  0  3  0  0  0  0  0  0
  183.8510  178.5260  144.4390 C   0  0  0  0  0  3  0  0  0  0  0  0
  182.6320  177.2190  139.2640 C   0  0  1  0  0  3  0  0  0  0  0  0
  183.3980  178.5170  141.3730 C   0  0  0  0  0  0  0  0  0  0  0  0
  180.8280  178.9970  139.7400 C   0  0  1  0  0  3  0  0  0  0  0  0
  181.9590  179.4770  143.1660 C   0  0  0  0  0  2  0  0  0  0  0  0
  184.8430  178.8930  143.4130 C   0  0  0  0  0  3  0  0  0  0  0  0
  184.6370  178.8990  142.0890 C   0  0  0  0  0  3  0  0  0  0  0  0
  182.1600  178.7340  141.8840 C   0  0  0  0  0  0  0  0  0  0  0  0
  184.0740  174.4130  137.1470 C   0  0  0  0  0  3  0  0  0  0  0  0
  183.3540  176.4720  138.1820 C   0  0  0  0  0  0  0  0  0  0  0  0
  184.0300  177.1850  137.1910 C   0  0  0  0  0  3  0  0  0  0  0  0
  184.7160  176.4900  136.1930 C   0  0  0  0  0  3  0  0  0  0  0  0
  184.7240  175.1300  136.1920 N   0  0  0  0  0  0  0  0  0  0  0  0
  183.3760  175.0710  138.1610 C   0  0  0  0  0  3  0  0  0  0  0  0
  181.0700  180.8870  138.3470 C   0  0  0  0  0  2  0  0  0  0  0  0
  180.1510  181.2350  139.4190 C   0  0  0  0  0  2  0  0  0  0  0  0
  181.3120  180.3750  139.7050 N   0  0  0  0  0  0  0  0  0  0  0  0
  180.4960  177.3360  137.9620 C   0  0  0  0  0  3  0  0  0  0  0  0
  179.8730  176.2890  138.5150 C   0  0  0  0  0  3  0  0  0  0  0  0
  179.5790  173.6010  138.9650 C   0  0  0  0  0  1  0  0  0  0  0  0
  178.9660  175.2480  140.5180 C   0  0  0  0  0  2  0  0  0  0  0  0
  180.0580  174.3430  140.1290 N   0  0  0  0  0  0  0  0  0  0  0  0
  180.1660  175.8130  139.9170 C   0  0  1  0  0  3  0  0  0  0  0  0
  1  7  1  0  0  0  0
  2 22  1  1  0  0  0
  2  6  1  0  0  0  0
  2  8  1  0  0  0  0
  3 12  1  0  0  0  0
  4  5  2  0  0  0  0
  6 14  1  6  0  0  0
  6  1  1  0  0  0  0
  7 12  2  0  0  0  0
  7 11  1  0  0  0  0
  8 21  1  1  0  0  0
  8  3  1  0  0  0  0
  9  4  1  0  0  0  0
 10  5  1  0  0  0  0
 11 10  2  0  0  0  0
 12  9  1  0  0  0  0
 13 18  1  0  0  0  0
 15 14  1  0  0  0  0
 16 15  2  0  0  0  0
 17 16  1  0  0  0  0
 17 13  2  0  0  0  0
 18 14  2  0  0  0  0
 19 20  1  0  0  0  0
 19 21  1  0  0  0  0
 20 21  1  0  0  0  0
 22 23  2  0  0  0  0
 24 26  1  0  0  0  0
 26 25  1  0  0  0  0
 27 23  1  6  0  0  0
 27 26  1  0  0  0  0
 27 25  1  0  0  0  0
M  END
>  <MODEL>
9

>  <REMARK>
 VINA RESULT:      -5.3      4.864      8.928
  Name = 
  4 active torsions:
  status: ('A' for Active; 'I' for Inactive)
    1  A    between atoms: C_2  and  C_6
    2  A    between atoms: C_9  and  C_15
    3  A    between atoms: N_14  and  C_19
    4  A    between atoms: C_17  and  C_21
                            x       y       z     vdW  Elec       q    Type
                         _______ _______ _______ _____ _____    ______ ____

>  <TORSDO>
F 4

$$$$
