=
 OpenBabel11052413293D

 28 32  0  0  1  0  0  0  0  0999 V2000
  186.4970  178.5650  140.3340 N   0  0  0  0  0  0  0  0  0  0  0  0
  187.1840  177.8510  145.3910 C   0  0  0  0  0  3  0  0  0  0  0  0
  190.8600  176.7050  140.7710 O   0  0  0  0  0  0  0  0  0  0  0  0
  189.6110  177.2780  145.5290 C   0  0  0  0  0  0  0  0  0  0  0  0
  188.5760  177.8050  143.2880 C   0  0  0  0  0  0  0  0  0  0  0  0
  188.2420  177.2660  147.5310 C   0  0  0  0  0  0  0  0  0  0  0  0
  188.5450  178.0410  144.7740 C   0  0  1  0  0  3  0  0  0  0  0  0
  190.8030  176.8580  143.5110 O   0  0  0  0  0  0  0  0  0  0  0  0
  189.4490  177.1030  146.9790 C   0  0  0  0  0  3  0  0  0  0  0  0
  188.7400  177.5960  140.5190 C   0  0  0  0  0  0  0  0  0  0  0  0
  187.5500  178.2260  142.5000 N   0  0  0  0  0  2  0  0  0  0  0  0
  190.6880  176.7940  144.9060 C   0  0  0  0  0  3  0  0  0  0  0  0
  187.7520  177.9210  138.3060 C   0  0  0  0  0  3  0  0  0  0  0  0
  189.8210  177.1760  141.3080 C   0  0  0  0  0  0  0  0  0  0  0  0
  188.7800  177.5040  139.0450 C   0  0  0  0  0  3  0  0  0  0  0  0
  188.0850  177.0870  148.8650 F   0  0  0  0  0  0  0  0  0  0  0  0
  187.0560  177.5390  146.6870 C   0  0  0  0  0  3  0  0  0  0  0  0
  189.7410  177.2810  142.7010 C   0  0  0  0  0  0  0  0  0  0  0  0
  186.5850  178.4680  138.9330 N   0  0  0  0  0  2  0  0  0  0  0  0
  187.5980  178.1230  141.1430 C   0  0  0  0  0  0  0  0  0  0  0  0
  185.3160  179.1730  140.9310 C   0  0  0  0  0  2  0  0  0  0  0  0
  184.0940  178.7770  140.1750 C   0  0  0  0  0  0  0  0  0  0  0  0
  181.7680  178.0560  138.7970 C   0  0  0  0  0  0  0  0  0  0  0  0
  183.5580  179.6350  139.2080 C   0  0  0  0  0  3  0  0  0  0  0  0
  183.4600  177.5630  140.4580 C   0  0  0  0  0  3  0  0  0  0  0  0
  182.2980  177.2020  139.7680 C   0  0  0  0  0  3  0  0  0  0  0  0
  180.3140  177.6040  137.9350 Cl  0  0  0  0  0  0  0  0  0  0  0  0
  182.3970  179.2740  138.5190 C   0  0  0  0  0  3  0  0  0  0  0  0
  1 21  1  0  0  0  0
  1 20  1  0  0  0  0
  2 17  2  0  0  0  0
  3 14  2  0  0  0  0
  4  9  1  0  0  0  0
  5  7  1  0  0  0  0
  6 16  1  0  0  0  0
  7  2  1  1  0  0  0
  7  4  1  0  0  0  0
  8 12  1  0  0  0  0
  9  6  2  0  0  0  0
 10 20  2  0  0  0  0
 10 14  1  0  0  0  0
 11  5  1  0  0  0  0
 12  4  2  0  0  0  0
 13 19  1  0  0  0  0
 13 15  2  0  0  0  0
 14 18  1  0  0  0  0
 15 10  1  0  0  0  0
 17  6  1  0  0  0  0
 18  5  2  0  0  0  0
 18  8  1  0  0  0  0
 19  1  1  0  0  0  0
 20 11  1  0  0  0  0
 22 25  1  0  0  0  0
 22 21  1  0  0  0  0
 23 26  1  0  0  0  0
 24 22  2  0  0  0  0
 26 25  2  0  0  0  0
 27 23  1  0  0  0  0
 28 23  2  0  0  0  0
 28 24  1  0  0  0  0
M  END
>  <MODEL>
1

>  <REMARK>
 VINA RESULT:      -9.6      0.000      0.000
  Name = 
  2 active torsions:
  status: ('A' for Active; 'I' for Inactive)
    1  A    between atoms: N_1  and  C_2
    2  A    between atoms: C_2  and  C_3
                            x       y       z     vdW  Elec       q    Type
                         _______ _______ _______ _____ _____    ______ ____

>  <TORSDO>
F 2

$$$$
=
 OpenBabel11052413293D

 28 32  0  0  1  0  0  0  0  0999 V2000
  189.9940  177.1380  142.4790 N   0  0  0  0  0  0  0  0  0  0  0  0
  185.0090  178.3830  142.8720 C   0  0  0  0  0  3  0  0  0  0  0  0
  189.0130  176.9920  147.1370 O   0  0  0  0  0  0  0  0  0  0  0  0
  184.7200  178.6770  145.3350 C   0  0  0  0  0  0  0  0  0  0  0  0
  186.9900  178.0850  144.4040 C   0  0  0  0  0  0  0  0  0  0  0  0
  182.8140  178.8980  143.8510 C   0  0  0  0  0  0  0  0  0  0  0  0
  185.6740  178.7750  144.1650 C   0  0  1  0  0  3  0  0  0  0  0  0
  186.4900  178.0120  146.7810 O   0  0  0  0  0  0  0  0  0  0  0  0
  183.2950  178.9480  145.0970 C   0  0  0  0  0  3  0  0  0  0  0  0
  189.5230  177.0390  144.8810 C   0  0  0  0  0  0  0  0  0  0  0  0
  187.8580  177.8800  143.3770 N   0  0  0  0  0  2  0  0  0  0  0  0
  185.1560  178.3780  146.5600 C   0  0  0  0  0  3  0  0  0  0  0  0
  191.6980  176.2900  144.0520 C   0  0  0  0  0  3  0  0  0  0  0  0
  188.6540  177.2630  145.9600 C   0  0  0  0  0  0  0  0  0  0  0  0
  190.8770  176.4840  145.0850 C   0  0  0  0  0  3  0  0  0  0  0  0
  181.4970  179.1280  143.6310 F   0  0  0  0  0  0  0  0  0  0  0  0
  183.6820  178.4910  142.7220 C   0  0  0  0  0  3  0  0  0  0  0  0
  187.3800  177.7900  145.7220 C   0  0  0  0  0  0  0  0  0  0  0  0
  191.2780  176.6190  142.7220 N   0  0  0  0  0  2  0  0  0  0  0  0
  189.0990  177.3560  143.5800 C   0  0  0  0  0  0  0  0  0  0  0  0
  189.6230  177.5070  141.1200 C   0  0  0  0  0  2  0  0  0  0  0  0
  190.6870  177.0880  140.1630 C   0  0  0  0  0  0  0  0  0  0  0  0
  192.6700  176.3450  138.3350 C   0  0  0  0  0  0  0  0  0  0  0  0
  192.0080  177.5080  140.3530 C   0  0  0  0  0  3  0  0  0  0  0  0
  190.3580  176.3030  139.0520 C   0  0  0  0  0  3  0  0  0  0  0  0
  191.3490  175.9300  138.1400 C   0  0  0  0  0  3  0  0  0  0  0  0
  193.9100  175.8780  137.1920 Cl  0  0  0  0  0  0  0  0  0  0  0  0
  192.9990  177.1350  139.4400 C   0  0  0  0  0  3  0  0  0  0  0  0
  1 19  1  0  0  0  0
  1 20  1  0  0  0  0
  4 12  2  0  0  0  0
  5 18  2  0  0  0  0
  6  9  2  0  0  0  0
  7  2  1  6  0  0  0
  7  5  1  0  0  0  0
  7  4  1  0  0  0  0
  9  4  1  0  0  0  0
 10 15  1  0  0  0  0
 10 14  1  0  0  0  0
 11 20  1  0  0  0  0
 11  5  1  0  0  0  0
 12  8  1  0  0  0  0
 13 15  2  0  0  0  0
 14  3  2  0  0  0  0
 16  6  1  0  0  0  0
 17  2  2  0  0  0  0
 17  6  1  0  0  0  0
 18 14  1  0  0  0  0
 18  8  1  0  0  0  0
 19 13  1  0  0  0  0
 20 10  2  0  0  0  0
 21  1  1  0  0  0  0
 22 24  1  0  0  0  0
 22 21  1  0  0  0  0
 23 28  1  0  0  0  0
 25 22  2  0  0  0  0
 26 23  2  0  0  0  0
 26 25  1  0  0  0  0
 27 23  1  0  0  0  0
 28 24  2  0  0  0  0
M  END
>  <MODEL>
2

>  <REMARK>
 VINA RESULT:      -9.6      4.098      6.772
  Name = 
  2 active torsions:
  status: ('A' for Active; 'I' for Inactive)
    1  A    between atoms: N_1  and  C_2
    2  A    between atoms: C_2  and  C_3
                            x       y       z     vdW  Elec       q    Type
                         _______ _______ _______ _____ _____    ______ ____

>  <TORSDO>
F 2

$$$$
=
 OpenBabel11052413293D

 28 32  0  0  1  0  0  0  0  0999 V2000
  187.0480  178.2710  140.6030 N   0  0  0  0  0  0  0  0  0  0  0  0
  188.8290  177.9650  145.4300 C   0  0  0  0  0  3  0  0  0  0  0  0
  183.2740  179.0600  143.4000 O   0  0  0  0  0  0  0  0  0  0  0  0
  186.7280  177.9780  146.7800 C   0  0  0  0  0  0  0  0  0  0  0  0
  186.5960  178.0660  144.2610 C   0  0  0  0  0  0  0  0  0  0  0  0
  188.8860  177.9450  147.8860 C   0  0  0  0  0  0  0  0  0  0  0  0
  187.3690  177.5960  145.4640 C   0  0  1  0  0  3  0  0  0  0  0  0
  184.6700  178.4670  145.6880 O   0  0  0  0  0  0  0  0  0  0  0  0
  187.5540  177.9380  147.9960 C   0  0  0  0  0  3  0  0  0  0  0  0
  185.0880  178.6960  142.0090 C   0  0  0  0  0  0  0  0  0  0  0  0
  187.1500  178.0110  143.0200 N   0  0  0  0  0  2  0  0  0  0  0  0
  185.4400  178.3190  146.8500 C   0  0  0  0  0  3  0  0  0  0  0  0
  184.9070  178.9630  139.5860 C   0  0  0  0  0  3  0  0  0  0  0  0
  184.4870  178.7380  143.2770 C   0  0  0  0  0  0  0  0  0  0  0  0
  184.3280  179.0220  140.7860 C   0  0  0  0  0  3  0  0  0  0  0  0
  189.6500  177.9280  149.0050 F   0  0  0  0  0  0  0  0  0  0  0  0
  189.5360  178.0760  146.5620 C   0  0  0  0  0  3  0  0  0  0  0  0
  185.2440  178.4200  144.4110 C   0  0  0  0  0  0  0  0  0  0  0  0
  186.2820  178.5800  139.4650 N   0  0  0  0  0  2  0  0  0  0  0  0
  186.4380  178.3270  141.9020 C   0  0  0  0  0  0  0  0  0  0  0  0
  188.4280  177.8370  140.4340 C   0  0  0  0  0  2  0  0  0  0  0  0
  188.7380  177.6550  138.9880 C   0  0  0  0  0  0  0  0  0  0  0  0
  189.3750  177.3140  136.2850 C   0  0  0  0  0  0  0  0  0  0  0  0
  188.7760  176.3710  138.4340 C   0  0  0  0  0  3  0  0  0  0  0  0
  189.0280  178.7680  138.1890 C   0  0  0  0  0  3  0  0  0  0  0  0
  189.3440  178.5980  136.8390 C   0  0  0  0  0  3  0  0  0  0  0  0
  189.7720  177.1020  134.5940 Cl  0  0  0  0  0  0  0  0  0  0  0  0
  189.0930  176.2010  137.0820 C   0  0  0  0  0  3  0  0  0  0  0  0
  1 20  1  0  0  0  0
  2 17  2  0  0  0  0
  4 12  2  0  0  0  0
  4  9  1  0  0  0  0
  5 18  2  0  0  0  0
  5  7  1  0  0  0  0
  6  9  2  0  0  0  0
  6 16  1  0  0  0  0
  7  2  1  1  0  0  0
  7  4  1  0  0  0  0
  8 12  1  0  0  0  0
 10 14  1  0  0  0  0
 11  5  1  0  0  0  0
 13 15  2  0  0  0  0
 14  3  2  0  0  0  0
 14 18  1  0  0  0  0
 15 10  1  0  0  0  0
 17  6  1  0  0  0  0
 18  8  1  0  0  0  0
 19 13  1  0  0  0  0
 19  1  1  0  0  0  0
 20 10  2  0  0  0  0
 20 11  1  0  0  0  0
 21  1  1  0  0  0  0
 22 21  1  0  0  0  0
 23 26  2  0  0  0  0
 23 28  1  0  0  0  0
 24 22  1  0  0  0  0
 25 22  2  0  0  0  0
 26 25  1  0  0  0  0
 27 23  1  0  0  0  0
 28 24  2  0  0  0  0
M  END
>  <MODEL>
3

>  <REMARK>
 VINA RESULT:      -9.6      3.147      4.979
  Name = 
  2 active torsions:
  status: ('A' for Active; 'I' for Inactive)
    1  A    between atoms: N_1  and  C_2
    2  A    between atoms: C_2  and  C_3
                            x       y       z     vdW  Elec       q    Type
                         _______ _______ _______ _____ _____    ______ ____

>  <TORSDO>
F 2

$$$$
=
 OpenBabel11052413293D

 28 32  0  0  1  0  0  0  0  0999 V2000
  183.6070  178.5440  141.6960 N   0  0  0  0  0  0  0  0  0  0  0  0
  188.6500  177.8450  142.4980 C   0  0  0  0  0  3  0  0  0  0  0  0
  184.1710  178.6850  146.4230 O   0  0  0  0  0  0  0  0  0  0  0  0
  188.7620  177.5250  144.9730 C   0  0  0  0  0  0  0  0  0  0  0  0
  186.5260  177.8870  143.8580 C   0  0  0  0  0  0  0  0  0  0  0  0
  190.7980  177.5520  143.6550 C   0  0  0  0  0  0  0  0  0  0  0  0
  187.9260  177.3520  143.7230 C   0  0  1  0  0  3  0  0  0  0  0  0
  186.8130  177.9570  146.2700 O   0  0  0  0  0  0  0  0  0  0  0  0
  190.2230  177.4180  144.8550 C   0  0  0  0  0  3  0  0  0  0  0  0
  183.8610  178.6370  144.1300 C   0  0  0  0  0  0  0  0  0  0  0  0
  185.7290  178.0210  142.7640 N   0  0  0  0  0  2  0  0  0  0  0  0
  188.1940  177.7450  146.1600 C   0  0  0  0  0  3  0  0  0  0  0  0
  181.6930  179.1620  143.1290 C   0  0  0  0  0  3  0  0  0  0  0  0
  184.6560  178.4840  145.2770 C   0  0  0  0  0  0  0  0  0  0  0  0
  182.4410  179.0340  144.2250 C   0  0  0  0  0  3  0  0  0  0  0  0
  192.1460  177.4730  143.5460 F   0  0  0  0  0  0  0  0  0  0  0  0
  189.9880  177.8870  142.4610 C   0  0  0  0  0  3  0  0  0  0  0  0
  185.9960  178.1050  145.1420 C   0  0  0  0  0  0  0  0  0  0  0  0
  182.2570  178.9140  141.8350 N   0  0  0  0  0  2  0  0  0  0  0  0
  184.4250  178.3990  142.8670 C   0  0  0  0  0  0  0  0  0  0  0  0
  184.1290  178.2510  140.3680 C   0  0  0  0  0  2  0  0  0  0  0  0
  183.0650  177.6480  139.5170 C   0  0  0  0  0  0  0  0  0  0  0  0
  181.1070  176.5000  137.8820 C   0  0  0  0  0  0  0  0  0  0  0  0
  182.6400  176.3360  139.7490 C   0  0  0  0  0  3  0  0  0  0  0  0
  182.5160  178.3820  138.4590 C   0  0  0  0  0  3  0  0  0  0  0  0
  181.5360  177.8090  137.6440 C   0  0  0  0  0  3  0  0  0  0  0  0
  179.8810  175.7820  136.8590 Cl  0  0  0  0  0  0  0  0  0  0  0  0
  181.6600  175.7620  138.9320 C   0  0  0  0  0  3  0  0  0  0  0  0
  1 19  1  0  0  0  0
  1 20  1  0  0  0  0
  4 12  2  0  0  0  0
  5 18  2  0  0  0  0
  6  9  2  0  0  0  0
  7  2  1  6  0  0  0
  7  5  1  0  0  0  0
  7  4  1  0  0  0  0
  9  4  1  0  0  0  0
 10 15  1  0  0  0  0
 10 14  1  0  0  0  0
 11 20  1  0  0  0  0
 11  5  1  0  0  0  0
 12  8  1  0  0  0  0
 13 15  2  0  0  0  0
 14  3  2  0  0  0  0
 16  6  1  0  0  0  0
 17  2  2  0  0  0  0
 17  6  1  0  0  0  0
 18 14  1  0  0  0  0
 18  8  1  0  0  0  0
 19 13  1  0  0  0  0
 20 10  2  0  0  0  0
 21  1  1  0  0  0  0
 22 24  1  0  0  0  0
 22 21  1  0  0  0  0
 23 28  1  0  0  0  0
 25 22  2  0  0  0  0
 26 23  2  0  0  0  0
 26 25  1  0  0  0  0
 27 23  1  0  0  0  0
 28 24  2  0  0  0  0
M  END
>  <MODEL>
4

>  <REMARK>
 VINA RESULT:      -9.4      2.934      4.504
  Name = 
  2 active torsions:
  status: ('A' for Active; 'I' for Inactive)
    1  A    between atoms: N_1  and  C_2
    2  A    between atoms: C_2  and  C_3
                            x       y       z     vdW  Elec       q    Type
                         _______ _______ _______ _____ _____    ______ ____

>  <TORSDO>
F 2

$$$$
=
 OpenBabel11052413293D

 28 32  0  0  1  0  0  0  0  0999 V2000
  189.5740  177.3430  141.7860 N   0  0  0  0  0  0  0  0  0  0  0  0
  184.5960  178.5200  142.4120 C   0  0  0  0  0  3  0  0  0  0  0  0
  188.7830  177.0610  146.4750 O   0  0  0  0  0  0  0  0  0  0  0  0
  184.4030  178.7450  144.8920 C   0  0  0  0  0  0  0  0  0  0  0  0
  186.6400  178.2030  143.8550 C   0  0  0  0  0  0  0  0  0  0  0  0
  182.4370  178.9830  143.4910 C   0  0  0  0  0  0  0  0  0  0  0  0
  185.3090  178.8850  143.6870 C   0  0  1  0  0  3  0  0  0  0  0  0
  186.2370  178.0610  146.2470 O   0  0  0  0  0  0  0  0  0  0  0  0
  182.9670  179.0060  144.7190 C   0  0  0  0  0  3  0  0  0  0  0  0
  189.2010  177.1740  144.2020 C   0  0  0  0  0  0  0  0  0  0  0  0
  187.4690  178.0360  142.7890 N   0  0  0  0  0  2  0  0  0  0  0  0
  184.8910  178.4180  146.0900 C   0  0  0  0  0  3  0  0  0  0  0  0
  191.3490  176.4730  143.2670 C   0  0  0  0  0  3  0  0  0  0  0  0
  188.3740  177.3590  145.3200 C   0  0  0  0  0  0  0  0  0  0  0  0
  190.5670  176.6300  144.3370 C   0  0  0  0  0  3  0  0  0  0  0  0
  181.1100  179.2030  143.3300 F   0  0  0  0  0  0  0  0  0  0  0  0
  183.2630  178.6170  142.3180 C   0  0  0  0  0  3  0  0  0  0  0  0
  187.0860  177.8780  145.1480 C   0  0  0  0  0  0  0  0  0  0  0  0
  190.8720  176.8320  141.9650 N   0  0  0  0  0  2  0  0  0  0  0  0
  188.7220  177.5210  142.9290 C   0  0  0  0  0  0  0  0  0  0  0  0
  189.1450  177.7440  140.4540 C   0  0  0  0  0  2  0  0  0  0  0  0
  189.9040  176.9870  139.4190 C   0  0  0  0  0  0  0  0  0  0  0  0
  191.3200  175.6080  137.4380 C   0  0  0  0  0  0  0  0  0  0  0  0
  191.2930  177.1250  139.3250 C   0  0  0  0  0  3  0  0  0  0  0  0
  189.2230  176.1640  138.5140 C   0  0  0  0  0  3  0  0  0  0  0  0
  189.9310  175.4740  137.5250 C   0  0  0  0  0  3  0  0  0  0  0  0
  192.2050  174.7430  136.2000 Cl  0  0  0  0  0  0  0  0  0  0  0  0
  192.0010  176.4350  138.3360 C   0  0  0  0  0  3  0  0  0  0  0  0
  1 19  1  0  0  0  0
  1 20  1  0  0  0  0
  4 12  2  0  0  0  0
  5 18  2  0  0  0  0
  6  9  2  0  0  0  0
  7  2  1  6  0  0  0
  7  5  1  0  0  0  0
  7  4  1  0  0  0  0
  9  4  1  0  0  0  0
 10 15  1  0  0  0  0
 10 14  1  0  0  0  0
 11 20  1  0  0  0  0
 11  5  1  0  0  0  0
 12  8  1  0  0  0  0
 13 15  2  0  0  0  0
 14  3  2  0  0  0  0
 16  6  1  0  0  0  0
 17  2  2  0  0  0  0
 17  6  1  0  0  0  0
 18 14  1  0  0  0  0
 18  8  1  0  0  0  0
 19 13  1  0  0  0  0
 20 10  2  0  0  0  0
 21  1  1  0  0  0  0
 22 21  1  0  0  0  0
 23 26  2  0  0  0  0
 23 28  1  0  0  0  0
 24 22  1  0  0  0  0
 25 22  2  0  0  0  0
 26 25  1  0  0  0  0
 27 23  1  0  0  0  0
 28 24  2  0  0  0  0
M  END
>  <MODEL>
5

>  <REMARK>
 VINA RESULT:      -9.0      3.832      6.358
  Name = 
  2 active torsions:
  status: ('A' for Active; 'I' for Inactive)
    1  A    between atoms: N_1  and  C_2
    2  A    between atoms: C_2  and  C_3
                            x       y       z     vdW  Elec       q    Type
                         _______ _______ _______ _____ _____    ______ ____

>  <TORSDO>
F 2

$$$$
=
 OpenBabel11052413293D

 28 32  0  0  1  0  0  0  0  0999 V2000
  189.0940  178.0040  139.3380 N   0  0  0  0  0  0  0  0  0  0  0  0
  184.5120  178.6770  141.6010 C   0  0  0  0  0  3  0  0  0  0  0  0
  189.7890  176.9840  143.9380 O   0  0  0  0  0  0  0  0  0  0  0  0
  185.0830  178.5240  144.0270 C   0  0  0  0  0  0  0  0  0  0  0  0
  186.9100  178.3190  142.2980 C   0  0  0  0  0  0  0  0  0  0  0  0
  182.7760  178.8050  143.3350 C   0  0  0  0  0  0  0  0  0  0  0  0
  185.5700  178.9090  142.6470 C   0  0  1  0  0  3  0  0  0  0  0  0
  187.2650  177.8010  144.6450 O   0  0  0  0  0  0  0  0  0  0  0  0
  183.6550  178.6920  144.3350 C   0  0  0  0  0  3  0  0  0  0  0  0
  189.4850  177.4580  141.6940 C   0  0  0  0  0  0  0  0  0  0  0  0
  187.3760  178.3740  141.0210 N   0  0  0  0  0  2  0  0  0  0  0  0
  185.9250  178.0680  144.9560 C   0  0  0  0  0  3  0  0  0  0  0  0
  191.2640  177.0730  140.0610 C   0  0  0  0  0  3  0  0  0  0  0  0
  189.0350  177.4130  143.0230 C   0  0  0  0  0  0  0  0  0  0  0  0
  190.8440  177.0110  141.3250 C   0  0  0  0  0  3  0  0  0  0  0  0
  181.4570  178.9400  143.6140 F   0  0  0  0  0  0  0  0  0  0  0  0
  183.2130  178.6800  141.9250 C   0  0  0  0  0  3  0  0  0  0  0  0
  187.7410  177.8470  143.3280 C   0  0  0  0  0  0  0  0  0  0  0  0
  190.3990  177.5780  139.0360 N   0  0  0  0  0  2  0  0  0  0  0  0
  188.6280  177.9470  140.6950 C   0  0  0  0  0  0  0  0  0  0  0  0
  188.2640  178.5580  138.2770 C   0  0  0  0  0  2  0  0  0  0  0  0
  187.2630  177.5510  137.8260 C   0  0  0  0  0  0  0  0  0  0  0  0
  185.3880  175.6790  136.9270 C   0  0  0  0  0  0  0  0  0  0  0  0
  187.6760  176.2650  137.4630 C   0  0  0  0  0  3  0  0  0  0  0  0
  185.9110  177.9020  137.7310 C   0  0  0  0  0  3  0  0  0  0  0  0
  184.9740  176.9660  137.2830 C   0  0  0  0  0  3  0  0  0  0  0  0
  184.2140  174.5080  136.3660 Cl  0  0  0  0  0  0  0  0  0  0  0  0
  186.7380  175.3290  137.0150 C   0  0  0  0  0  3  0  0  0  0  0  0
  1 20  1  0  0  0  0
  2 17  2  0  0  0  0
  4  9  1  0  0  0  0
  4 12  2  0  0  0  0
  5  7  1  0  0  0  0
  5 18  2  0  0  0  0
  6 16  1  0  0  0  0
  6  9  2  0  0  0  0
  7  2  1  6  0  0  0
  7  4  1  0  0  0  0
  8 12  1  0  0  0  0
 10 14  1  0  0  0  0
 11  5  1  0  0  0  0
 13 15  2  0  0  0  0
 14 18  1  0  0  0  0
 14  3  2  0  0  0  0
 15 10  1  0  0  0  0
 17  6  1  0  0  0  0
 18  8  1  0  0  0  0
 19  1  1  0  0  0  0
 19 13  1  0  0  0  0
 20 11  1  0  0  0  0
 20 10  2  0  0  0  0
 21  1  1  0  0  0  0
 22 21  1  0  0  0  0
 23 28  2  0  0  0  0
 23 26  1  0  0  0  0
 24 22  2  0  0  0  0
 25 22  1  0  0  0  0
 26 25  2  0  0  0  0
 27 23  1  0  0  0  0
 28 24  1  0  0  0  0
M  END
>  <MODEL>
6

>  <REMARK>
 VINA RESULT:      -9.0      2.870      4.481
  Name = 
  2 active torsions:
  status: ('A' for Active; 'I' for Inactive)
    1  A    between atoms: N_1  and  C_2
    2  A    between atoms: C_2  and  C_3
                            x       y       z     vdW  Elec       q    Type
                         _______ _______ _______ _____ _____    ______ ____

>  <TORSDO>
F 2

$$$$
=
 OpenBabel11052413293D

 28 32  0  0  1  0  0  0  0  0999 V2000
  184.1310  178.7630  142.5110 N   0  0  0  0  0  0  0  0  0  0  0  0
  188.9450  177.8410  140.9190 C   0  0  0  0  0  3  0  0  0  0  0  0
  186.5960  177.7340  146.4550 O   0  0  0  0  0  0  0  0  0  0  0  0
  190.0250  176.9220  142.9750 C   0  0  0  0  0  0  0  0  0  0  0  0
  187.5850  177.5680  143.0260 C   0  0  0  0  0  0  0  0  0  0  0  0
  191.3300  177.2520  140.9580 C   0  0  0  0  0  0  0  0  0  0  0  0
  188.7360  177.0680  142.1950 C   0  0  1  0  0  3  0  0  0  0  0  0
  188.8420  177.0410  145.0380 O   0  0  0  0  0  0  0  0  0  0  0  0
  191.2870  176.8330  142.2270 C   0  0  0  0  0  3  0  0  0  0  0  0
  185.3690  178.2530  144.5620 C   0  0  0  0  0  0  0  0  0  0  0  0
  186.4300  177.9730  142.4320 N   0  0  0  0  0  2  0  0  0  0  0  0
  190.0230  176.8490  144.3080 C   0  0  0  0  0  3  0  0  0  0  0  0
  183.0560  179.0280  144.7190 C   0  0  0  0  0  3  0  0  0  0  0  0
  186.5420  177.8150  145.1980 C   0  0  0  0  0  0  0  0  0  0  0  0
  184.1680  178.6280  145.3360 C   0  0  0  0  0  3  0  0  0  0  0  0
  192.4970  177.1900  140.2720 F   0  0  0  0  0  0  0  0  0  0  0  0
  190.1450  177.8780  140.3270 C   0  0  0  0  0  3  0  0  0  0  0  0
  187.6570  177.4690  144.4270 C   0  0  0  0  0  0  0  0  0  0  0  0
  183.0080  179.1000  143.2880 N   0  0  0  0  0  2  0  0  0  0  0  0
  185.3350  178.3270  143.1600 C   0  0  0  0  0  0  0  0  0  0  0  0
  184.0260  178.8000  141.0590 C   0  0  0  0  0  2  0  0  0  0  0  0
  182.8570  177.9940  140.6060 C   0  0  0  0  0  0  0  0  0  0  0  0
  180.6640  176.5090  139.7050 C   0  0  0  0  0  0  0  0  0  0  0  0
  183.0550  176.7460  140.0050 C   0  0  0  0  0  3  0  0  0  0  0  0
  181.5610  178.5020  140.7470 C   0  0  0  0  0  3  0  0  0  0  0  0
  180.4650  177.7590  140.2980 C   0  0  0  0  0  3  0  0  0  0  0  0
  179.2910  175.5800  139.1430 Cl  0  0  0  0  0  0  0  0  0  0  0  0
  181.9580  176.0030  139.5560 C   0  0  0  0  0  3  0  0  0  0  0  0
  1 20  1  0  0  0  0
  1 19  1  0  0  0  0
  4 12  2  0  0  0  0
  5 18  2  0  0  0  0
  6  9  2  0  0  0  0
  7  2  1  6  0  0  0
  7  4  1  0  0  0  0
  7  5  1  0  0  0  0
  9  4  1  0  0  0  0
 10 14  1  0  0  0  0
 10 15  1  0  0  0  0
 11  5  1  0  0  0  0
 11 20  1  0  0  0  0
 12  8  1  0  0  0  0
 13 15  2  0  0  0  0
 14  3  2  0  0  0  0
 16  6  1  0  0  0  0
 17  2  2  0  0  0  0
 17  6  1  0  0  0  0
 18  8  1  0  0  0  0
 18 14  1  0  0  0  0
 19 13  1  0  0  0  0
 20 10  2  0  0  0  0
 21  1  1  0  0  0  0
 22 25  1  0  0  0  0
 22 21  1  0  0  0  0
 23 26  1  0  0  0  0
 24 22  2  0  0  0  0
 26 25  2  0  0  0  0
 27 23  1  0  0  0  0
 28 23  2  0  0  0  0
 28 24  1  0  0  0  0
M  END
>  <MODEL>
7

>  <REMARK>
 VINA RESULT:      -8.8      2.872      4.651
  Name = 
  2 active torsions:
  status: ('A' for Active; 'I' for Inactive)
    1  A    between atoms: N_1  and  C_2
    2  A    between atoms: C_2  and  C_3
                            x       y       z     vdW  Elec       q    Type
                         _______ _______ _______ _____ _____    ______ ____

>  <TORSDO>
F 2

$$$$
=
 OpenBabel11052413293D

 28 32  0  0  0  0  0  0  0  0999 V2000
  189.8120  177.1870  144.5870 N   0  0  0  0  0  0  0  0  0  0  0  0
  184.7970  178.3620  144.4180 C   0  0  0  0  0  3  0  0  0  0  0  0
  188.9830  178.5690  140.1050 O   0  0  0  0  0  0  0  0  0  0  0  0
  184.3970  178.6640  141.9710 C   0  0  0  0  0  0  0  0  0  0  0  0
  186.6960  178.0190  142.7930 C   0  0  0  0  0  0  0  0  0  0  0  0
  182.6020  179.0500  143.5550 C   0  0  0  0  0  0  0  0  0  0  0  0
  185.2110  177.9500  143.0290 C   0  0  0  0  0  0  0  0  0  0  0  0
  186.2720  178.7220  140.5050 O   0  0  0  0  0  0  0  0  0  0  0  0
  183.0030  179.0120  142.2800 C   0  0  0  0  0  2  0  0  0  0  0  0
  189.4270  177.9060  142.2770 C   0  0  0  0  0  0  0  0  0  0  0  0
  187.5680  177.6360  143.7640 N   0  0  0  0  0  2  0  0  0  0  0  0
  184.9160  178.9500  140.7750 C   0  0  0  0  0  3  0  0  0  0  0  0
  191.7100  177.4580  143.0290 C   0  0  0  0  0  3  0  0  0  0  0  0
  188.5450  178.2820  141.2520 C   0  0  0  0  0  0  0  0  0  0  0  0
  190.8840  177.8320  142.0510 C   0  0  0  0  0  3  0  0  0  0  0  0
  181.3220  179.3900  143.8440 F   0  0  0  0  0  0  0  0  0  0  0  0
  183.5640  178.8250  144.6580 C   0  0  0  0  0  3  0  0  0  0  0  0
  187.1710  178.3380  141.5090 C   0  0  0  0  0  0  0  0  0  0  0  0
  191.1920  177.1210  144.3220 N   0  0  0  0  0  2  0  0  0  0  0  0
  188.9110  177.5850  143.5420 C   0  0  0  0  0  0  0  0  0  0  0  0
  189.3210  176.7870  145.8980 C   0  0  0  0  0  2  0  0  0  0  0  0
  190.4270  176.8240  146.8970 C   0  0  0  0  0  0  0  0  0  0  0  0
  192.4700  176.8620  148.8070 C   0  0  0  0  0  0  0  0  0  0  0  0
  191.4250  175.8430  146.8750 C   0  0  0  0  0  3  0  0  0  0  0  0
  190.4480  177.8180  147.8810 C   0  0  0  0  0  3  0  0  0  0  0  0
  191.4700  177.8380  148.8350 C   0  0  0  0  0  3  0  0  0  0  0  0
  193.7500  176.8880  150.0010 Cl  0  0  0  0  0  0  0  0  0  0  0  0
  192.4470  175.8640  147.8290 C   0  0  0  0  0  3  0  0  0  0  0  0
  1 21  1  0  0  0  0
  2 17  1  0  0  0  0
  3 14  2  0  0  0  0
  4  9  1  0  0  0  0
  4  7  1  0  0  0  0
  5  7  1  0  0  0  0
  5 11  1  0  0  0  0
  6 16  1  0  0  0  0
  6 17  2  0  0  0  0
  7  2  2  0  0  0  0
  8 12  1  0  0  0  0
  8 18  1  0  0  0  0
  9  6  1  0  0  0  0
 10 20  2  0  0  0  0
 12  4  2  0  0  0  0
 13 19  1  0  0  0  0
 14 18  1  0  0  0  0
 14 10  1  0  0  0  0
 15 10  1  0  0  0  0
 15 13  2  0  0  0  0
 18  5  2  0  0  0  0
 19  1  1  0  0  0  0
 20 11  1  0  0  0  0
 20  1  1  0  0  0  0
 21 22  1  0  0  0  0
 22 25  1  0  0  0  0
 23 26  1  0  0  0  0
 23 27  1  0  0  0  0
 24 22  2  0  0  0  0
 24 28  1  0  0  0  0
 25 26  2  0  0  0  0
 28 23  2  0  0  0  0
M  END
>  <MODEL>
8

>  <REMARK>
 VINA RESULT:      -8.2      4.498      8.058
  Name = 
  2 active torsions:
  status: ('A' for Active; 'I' for Inactive)
    1  A    between atoms: N_1  and  C_2
    2  A    between atoms: C_2  and  C_3
                            x       y       z     vdW  Elec       q    Type
                         _______ _______ _______ _____ _____    ______ ____

>  <TORSDO>
F 2

$$$$
=
 OpenBabel11052413293D

 28 32  0  0  0  0  0  0  0  0999 V2000
  187.7900  177.9520  144.7000 N   0  0  0  0  0  0  0  0  0  0  0  0
  187.2910  177.8740  139.5710 C   0  0  0  0  0  3  0  0  0  0  0  0
  183.1490  178.6280  143.8660 O   0  0  0  0  0  0  0  0  0  0  0  0
  184.9360  178.6410  139.2470 C   0  0  0  0  0  0  0  0  0  0  0  0
  185.8890  178.4780  141.5790 C   0  0  0  0  0  0  0  0  0  0  0  0
  186.2790  177.9950  137.3340 C   0  0  0  0  0  0  0  0  0  0  0  0
  186.1700  178.7170  140.1200 C   0  0  0  0  0  0  0  0  0  0  0  0
  183.5220  178.8260  141.1540 O   0  0  0  0  0  0  0  0  0  0  0  0
  185.1150  178.4590  137.8000 C   0  0  0  0  0  2  0  0  0  0  0  0
  185.3950  178.2870  144.3100 C   0  0  0  0  0  0  0  0  0  0  0  0
  186.9110  178.2820  142.4550 N   0  0  0  0  0  2  0  0  0  0  0  0
  183.7120  178.7610  139.7670 C   0  0  0  0  0  3  0  0  0  0  0  0
  186.2070  177.9770  146.5950 C   0  0  0  0  0  3  0  0  0  0  0  0
  184.3260  178.5140  143.4290 C   0  0  0  0  0  0  0  0  0  0  0  0
  185.1810  178.1780  145.7670 C   0  0  0  0  0  3  0  0  0  0  0  0
  186.4410  177.8070  136.0020 F   0  0  0  0  0  0  0  0  0  0  0  0
  187.3570  177.5860  138.2650 C   0  0  0  0  0  3  0  0  0  0  0  0
  184.5730  178.6120  142.0550 C   0  0  0  0  0  0  0  0  0  0  0  0
  187.5400  177.8650  146.0810 N   0  0  0  0  0  2  0  0  0  0  0  0
  186.6960  178.1710  143.7960 C   0  0  0  0  0  0  0  0  0  0  0  0
  189.1640  177.8840  144.2210 C   0  0  0  0  0  2  0  0  0  0  0  0
  190.0480  177.3100  145.2740 C   0  0  0  0  0  0  0  0  0  0  0  0
  191.7450  176.2760  147.2440 C   0  0  0  0  0  0  0  0  0  0  0  0
  189.8130  177.5980  146.6230 C   0  0  0  0  0  3  0  0  0  0  0  0
  191.1400  176.5110  144.9120 C   0  0  0  0  0  3  0  0  0  0  0  0
  191.9860  175.9930  145.8960 C   0  0  0  0  0  3  0  0  0  0  0  0
  192.8060  175.6280  148.4760 Cl  0  0  0  0  0  0  0  0  0  0  0  0
  190.6600  177.0800  147.6070 C   0  0  0  0  0  3  0  0  0  0  0  0
  1 19  1  0  0  0  0
  2  7  2  0  0  0  0
  4 12  2  0  0  0  0
  4  7  1  0  0  0  0
  5 18  2  0  0  0  0
  5 11  1  0  0  0  0
  6  9  1  0  0  0  0
  6 17  2  0  0  0  0
  7  5  1  0  0  0  0
  8 18  1  0  0  0  0
  9  4  1  0  0  0  0
 10 15  1  0  0  0  0
 11 20  1  0  0  0  0
 12  8  1  0  0  0  0
 14  3  2  0  0  0  0
 14 10  1  0  0  0  0
 15 13  2  0  0  0  0
 16  6  1  0  0  0  0
 17  2  1  0  0  0  0
 18 14  1  0  0  0  0
 19 13  1  0  0  0  0
 20 10  2  0  0  0  0
 20  1  1  0  0  0  0
 21  1  1  0  0  0  0
 21 22  1  0  0  0  0
 22 24  1  0  0  0  0
 23 28  1  0  0  0  0
 23 27  1  0  0  0  0
 24 28  2  0  0  0  0
 25 22  2  0  0  0  0
 25 26  1  0  0  0  0
 26 23  2  0  0  0  0
M  END
>  <MODEL>
9

>  <REMARK>
 VINA RESULT:      -7.9      4.741      8.677
  Name = 
  2 active torsions:
  status: ('A' for Active; 'I' for Inactive)
    1  A    between atoms: N_1  and  C_2
    2  A    between atoms: C_2  and  C_3
                            x       y       z     vdW  Elec       q    Type
                         _______ _______ _______ _____ _____    ______ ____

>  <TORSDO>
F 2

$$$$
