=
 OpenBabel11052415293D

 37 44  0  0  1  0  0  0  0  0999 V2000
  187.5720  177.6930  139.4370 C   0  0  1  0  0  3  0  0  0  0  0  0
  182.8760  178.7700  138.9830 C   0  0  0  0  0  0  0  0  0  0  0  0
  185.9070  176.0680  137.0190 C   0  0  1  0  0  3  0  0  0  0  0  0
  188.9360  178.0580  135.5760 C   0  0  0  0  0  2  0  0  0  0  0  0
  183.6900  177.3870  136.9670 C   0  0  1  0  0  3  0  0  0  0  0  0
  187.3160  176.6960  137.1000 C   0  0  1  0  0  3  0  0  0  0  0  0
  186.4890  178.4790  141.4340 O   0  0  0  0  0  0  0  0  0  0  0  0
  184.9720  177.0530  137.7190 C   0  0  2  0  0  3  0  0  0  0  0  0
  187.9660  176.8820  135.7090 C   0  0  2  0  0  3  0  0  0  0  0  0
  183.0220  176.1050  136.4990 C   0  0  0  0  0  2  0  0  0  0  0  0
  185.7350  178.3380  137.9800 C   0  0  1  0  0  3  0  0  0  0  0  0
  184.0310  178.4470  139.8990 C   0  0  0  0  0  2  0  0  0  0  0  0
  186.2130  174.5570  134.9100 C   0  0  0  0  0  2  0  0  0  0  0  0
  186.5010  178.4020  140.2150 C   0  0  0  0  0  0  0  0  0  0  0  0
  183.9300  175.2970  135.5600 C   0  0  0  0  0  2  0  0  0  0  0  0
  185.3970  178.9140  139.3630 C   0  0  1  0  0  3  0  0  0  0  0  0
  189.1530  178.7280  136.9170 C   0  0  0  0  0  2  0  0  0  0  0  0
  185.4180  175.6840  135.5930 C   0  0  1  0  0  3  0  0  0  0  0  0
  187.2160  177.9810  137.9610 C   0  0  1  0  0  0  0  0  0  0  0  0
  182.7230  178.2600  137.7420 C   0  0  0  0  0  3  0  0  0  0  0  0
  188.5590  175.5660  135.1660 C   0  0  2  0  0  3  0  0  0  0  0  0
  181.7880  179.6290  139.5240 C   0  0  0  0  0  1  0  0  0  0  0  0
  187.9100  179.1130  137.4480 O   0  0  0  0  0  0  0  0  0  0  0  0
  187.6460  174.3590  135.4070 C   0  0  0  0  0  2  0  0  0  0  0  0
  190.0550  174.3970  136.8020 C   0  0  0  0  0  3  0  0  0  0  0  0
  189.9270  175.2760  135.7210 C   0  0  0  0  0  0  0  0  0  0  0  0
  191.0750  175.8590  135.1630 C   0  0  0  0  0  3  0  0  0  0  0  0
  193.7640  176.2810  134.9650 Cl  0  0  0  0  0  0  0  0  0  0  0  0
  192.4610  174.6800  136.7570 C   0  0  0  0  0  3  0  0  0  0  0  0
  192.3380  175.5600  135.6780 C   0  0  0  0  0  0  0  0  0  0  0  0
  191.3200  174.1010  137.3200 C   0  0  0  0  0  3  0  0  0  0  0  0
  189.9480  176.8290  139.3670 C   0  0  0  0  0  2  0  0  0  0  0  0
  189.6540  177.0700  140.8360 C   0  0  2  0  0  3  0  0  0  0  0  0
  189.0540  177.9820  139.7790 C   0  0  2  0  0  3  0  0  0  0  0  0
  190.8300  177.7750  141.4780 C   0  0  0  0  0  2  0  0  0  0  0  0
  191.3040  176.9810  142.6790 C   0  0  0  0  0  2  0  0  0  0  0  0
  190.3270  175.8590  142.9580 C   0  0  0  0  0  1  0  0  0  0  0  0
  1 34  1  0  0  0  0
  1 14  1  1  0  0  0
  2 22  1  0  0  0  0
  2 12  1  0  0  0  0
  3  6  1  0  0  0  0
  3  8  1  0  0  0  0
  4  9  1  0  0  0  0
  4 17  1  0  0  0  0
  5  8  1  0  0  0  0
  5 20  1  0  0  0  0
  6 19  1  0  0  0  0
  8 11  1  0  0  0  0
  9  6  1  0  0  0  0
 10  5  1  0  0  0  0
 11 16  1  0  0  0  0
 13 24  1  0  0  0  0
 13 18  1  0  0  0  0
 14  7  2  0  0  0  0
 15 18  1  0  0  0  0
 15 10  1  0  0  0  0
 16 12  1  0  0  0  0
 16 14  1  0  0  0  0
 17 23  1  0  0  0  0
 18  3  1  0  0  0  0
 19 11  1  0  0  0  0
 19  1  1  0  0  0  0
 20  2  2  0  0  0  0
 21 24  1  0  0  0  0
 21  9  1  0  0  0  0
 21 26  1  0  0  0  0
 23 19  1  0  0  0  0
 25 31  1  0  0  0  0
 26 25  2  0  0  0  0
 27 30  2  0  0  0  0
 27 26  1  0  0  0  0
 28 30  1  0  0  0  0
 29 31  2  0  0  0  0
 30 29  1  0  0  0  0
 32 34  1  0  0  0  0
 32 33  1  0  0  0  0
 33 35  1  0  0  0  0
 34 33  1  0  0  0  0
 35 36  1  0  0  0  0
 36 37  1  0  0  0  0
M  END
>  <MODEL>
1

>  <REMARK>
 VINA RESULT:      -6.8      0.000      0.000
  Name = 
  4 active torsions:
  status: ('A' for Active; 'I' for Inactive)
    1  A    between atoms: C_1  and  C_36
    2  A    between atoms: C_6  and  C_31
    3  A    between atoms: C_11  and  C_26
    4  A    between atoms: C_17  and  C_26
                            x       y       z     vdW  Elec       q    Type
                         _______ _______ _______ _____ _____    ______ ____

>  <TORSDO>
F 4

$$$$
=
 OpenBabel11052415293D

 37 44  0  0  1  0  0  0  0  0999 V2000
  182.7900  175.6260  138.2070 C   0  0  1  0  0  3  0  0  0  0  0  0
  180.2960  171.7280  136.7930 C   0  0  0  0  0  0  0  0  0  0  0  0
  184.5620  173.1920  136.7260 C   0  0  1  0  0  3  0  0  0  0  0  0
  184.9240  176.5790  134.8250 C   0  0  0  0  0  2  0  0  0  0  0  0
  182.6750  171.6920  135.8040 C   0  0  1  0  0  3  0  0  0  0  0  0
  184.5970  174.7340  136.6390 C   0  0  1  0  0  3  0  0  0  0  0  0
  180.7760  175.1770  139.4420 O   0  0  0  0  0  0  0  0  0  0  0  0
  183.0820  172.8110  136.7550 C   0  0  2  0  0  3  0  0  0  0  0  0
  185.3870  175.2430  135.4110 C   0  0  2  0  0  3  0  0  0  0  0  0
  183.6330  170.5210  135.9520 C   0  0  0  0  0  2  0  0  0  0  0  0
  182.2610  174.0460  136.4360 C   0  0  1  0  0  3  0  0  0  0  0  0
  180.5650  172.7530  137.8670 C   0  0  0  0  0  2  0  0  0  0  0  0
  186.8820  172.6330  135.6650 C   0  0  0  0  0  2  0  0  0  0  0  0
  181.4330  175.0200  138.4230 C   0  0  0  0  0  0  0  0  0  0  0  0
  185.0790  170.9210  135.6270 C   0  0  0  0  0  2  0  0  0  0  0  0
  181.0070  174.1230  137.3180 C   0  0  1  0  0  3  0  0  0  0  0  0
  183.8400  177.1940  135.6850 C   0  0  0  0  0  2  0  0  0  0  0  0
  185.3570  172.4340  135.6250 C   0  0  1  0  0  3  0  0  0  0  0  0
  183.1400  175.2510  136.7490 C   0  0  1  0  0  0  0  0  0  0  0  0
  181.2340  171.2450  135.9490 C   0  0  0  0  0  3  0  0  0  0  0  0
  186.9110  175.1990  135.6440 C   0  0  2  0  0  3  0  0  0  0  0  0
  178.9310  171.1390  136.7290 C   0  0  0  0  0  1  0  0  0  0  0  0
  182.7860  176.2760  135.8270 O   0  0  0  0  0  0  0  0  0  0  0  0
  187.3680  173.9150  136.3440 C   0  0  0  0  0  2  0  0  0  0  0  0
  187.4560  177.6410  135.7820 C   0  0  0  0  0  3  0  0  0  0  0  0
  187.4130  176.3910  136.4100 C   0  0  0  0  0  0  0  0  0  0  0  0
  187.8230  176.2750  137.7480 C   0  0  0  0  0  3  0  0  0  0  0  0
  188.7580  177.2440  140.1220 Cl  0  0  0  0  0  0  0  0  0  0  0  0
  188.3030  178.6440  137.8180 C   0  0  0  0  0  3  0  0  0  0  0  0
  188.2640  177.3980  138.4500 C   0  0  0  0  0  0  0  0  0  0  0  0
  187.9010  178.7650  136.4850 C   0  0  0  0  0  3  0  0  0  0  0  0
  184.4480  177.4410  138.8020 C   0  0  0  0  0  2  0  0  0  0  0  0
  183.4420  177.4300  139.9390 C   0  0  2  0  0  3  0  0  0  0  0  0
  182.9910  177.1290  138.5190 C   0  0  2  0  0  3  0  0  0  0  0  0
  183.0520  178.8530  140.2830 C   0  0  0  0  0  2  0  0  0  0  0  0
  182.6530  178.9300  141.7430 C   0  0  0  0  0  2  0  0  0  0  0  0
  183.8360  178.5530  142.6090 C   0  0  0  0  0  1  0  0  0  0  0  0
  1 14  1  6  0  0  0
  1 34  1  0  0  0  0
  2 12  1  0  0  0  0
  3  8  1  0  0  0  0
  4  9  1  0  0  0  0
  4 17  1  0  0  0  0
  5 20  1  0  0  0  0
  5 10  1  0  0  0  0
  5  8  1  0  0  0  0
  6  3  1  0  0  0  0
  6 19  1  0  0  0  0
  9 21  1  0  0  0  0
  9  6  1  0  0  0  0
 11 19  1  0  0  0  0
 11  8  1  0  0  0  0
 11 16  1  0  0  0  0
 13 24  1  0  0  0  0
 14  7  2  0  0  0  0
 15 10  1  0  0  0  0
 16 12  1  0  0  0  0
 16 14  1  0  0  0  0
 17 23  1  0  0  0  0
 18 15  1  0  0  0  0
 18 13  1  0  0  0  0
 18  3  1  0  0  0  0
 19  1  1  0  0  0  0
 20  2  2  0  0  0  0
 21 24  1  0  0  0  0
 21 26  1  0  0  0  0
 22  2  1  0  0  0  0
 23 19  1  0  0  0  0
 25 26  2  0  0  0  0
 25 31  1  0  0  0  0
 26 27  1  0  0  0  0
 27 30  2  0  0  0  0
 29 30  1  0  0  0  0
 30 28  1  0  0  0  0
 31 29  2  0  0  0  0
 32 33  1  0  0  0  0
 33 35  1  0  0  0  0
 34 32  1  0  0  0  0
 34 33  1  0  0  0  0
 35 36  1  0  0  0  0
 36 37  1  0  0  0  0
M  END
>  <MODEL>
2

>  <REMARK>
 VINA RESULT:      -5.6      3.221      5.732
  Name = 
  4 active torsions:
  status: ('A' for Active; 'I' for Inactive)
    1  A    between atoms: C_1  and  C_36
    2  A    between atoms: C_6  and  C_31
    3  A    between atoms: C_11  and  C_26
    4  A    between atoms: C_17  and  C_26
                            x       y       z     vdW  Elec       q    Type
                         _______ _______ _______ _____ _____    ______ ____

>  <TORSDO>
F 4

$$$$
=
 OpenBabel11052415293D

 37 44  0  0  1  0  0  0  0  0999 V2000
  184.8960  178.2650  139.8310 C   0  0  1  0  0  3  0  0  0  0  0  0
  184.7380  179.0470  144.6040 C   0  0  0  0  0  0  0  0  0  0  0  0
  181.8790  177.9960  141.2770 C   0  0  1  0  0  3  0  0  0  0  0  0
  181.8710  180.6780  138.4440 C   0  0  0  0  0  2  0  0  0  0  0  0
  182.3590  178.9730  143.6170 C   0  0  1  0  0  3  0  0  0  0  0  0
  182.3670  178.6020  139.9420 C   0  0  1  0  0  3  0  0  0  0  0  0
  186.9350  177.8180  141.0250 O   0  0  0  0  0  0  0  0  0  0  0  0
  182.9200  178.4010  142.3210 C   0  0  2  0  0  3  0  0  0  0  0  0
  181.3160  179.5300  139.2900 C   0  0  2  0  0  3  0  0  0  0  0  0
  181.2560  178.0680  144.1410 C   0  0  0  0  0  2  0  0  0  0  0  0
  183.8540  179.4220  141.6990 C   0  0  1  0  0  3  0  0  0  0  0  0
  185.4350  178.3890  143.4390 C   0  0  0  0  0  2  0  0  0  0  0  0
  179.3220  177.8220  140.7790 C   0  0  0  0  0  2  0  0  0  0  0  0
  185.8520  178.3830  140.9840 C   0  0  0  0  0  0  0  0  0  0  0  0
  180.1010  177.9360  143.1380 C   0  0  0  0  0  2  0  0  0  0  0  0
  185.3090  179.1730  142.1190 C   0  0  1  0  0  3  0  0  0  0  0  0
  183.3760  180.5730  138.3210 C   0  0  0  0  0  2  0  0  0  0  0  0
  180.4290  178.3660  141.6980 C   0  0  1  0  0  3  0  0  0  0  0  0
  183.7560  179.2450  140.1890 C   0  0  1  0  0  0  0  0  0  0  0  0
  183.4030  179.2410  144.6830 C   0  0  0  0  0  3  0  0  0  0  0  0
  180.2170  178.7350  138.5540 C   0  0  2  0  0  3  0  0  0  0  0  0
  185.5670  179.4140  145.7850 C   0  0  0  0  0  1  0  0  0  0  0  0
  183.9440  180.5290  139.6060 O   0  0  0  0  0  0  0  0  0  0  0  0
  179.7430  177.5090  139.3420 C   0  0  0  0  0  2  0  0  0  0  0  0
  180.3120  179.1170  136.0800 C   0  0  0  0  0  3  0  0  0  0  0  0
  180.6380  178.3090  137.1750 C   0  0  0  0  0  0  0  0  0  0  0  0
  181.3660  177.1260  136.9700 C   0  0  0  0  0  3  0  0  0  0  0  0
  182.6870  175.2910  135.4420 Cl  0  0  0  0  0  0  0  0  0  0  0  0
  181.4400  177.5720  134.5940 C   0  0  0  0  0  3  0  0  0  0  0  0
  181.7670  176.7600  135.6840 C   0  0  0  0  0  0  0  0  0  0  0  0
  180.7110  178.7480  134.7910 C   0  0  0  0  0  3  0  0  0  0  0  0
  184.9570  177.3450  137.4770 C   0  0  0  0  0  2  0  0  0  0  0  0
  186.4050  177.3740  137.9310 C   0  0  2  0  0  3  0  0  0  0  0  0
  185.4380  178.4520  138.3940 C   0  0  2  0  0  3  0  0  0  0  0  0
  187.2710  177.9380  136.8250 C   0  0  0  0  0  2  0  0  0  0  0  0
  188.7320  177.7110  137.1600 C   0  0  0  0  0  2  0  0  0  0  0  0
  189.1190  178.5800  138.3380 C   0  0  0  0  0  1  0  0  0  0  0  0
  1 19  1  0  0  0  0
  1 14  1  1  0  0  0
  2 20  2  0  0  0  0
  2 22  1  0  0  0  0
  3 18  1  0  0  0  0
  3  8  1  0  0  0  0
  4  9  1  0  0  0  0
  5 10  1  0  0  0  0
  5 20  1  0  0  0  0
  6 19  1  0  0  0  0
  6  3  1  0  0  0  0
  8  5  1  0  0  0  0
  9  6  1  0  0  0  0
 11 16  1  0  0  0  0
 11  8  1  0  0  0  0
 12  2  1  0  0  0  0
 13 18  1  0  0  0  0
 14  7  2  0  0  0  0
 14 16  1  0  0  0  0
 15 10  1  0  0  0  0
 16 12  1  0  0  0  0
 17  4  1  0  0  0  0
 17 23  1  0  0  0  0
 18 15  1  0  0  0  0
 19 11  1  0  0  0  0
 21  9  1  0  0  0  0
 21 24  1  0  0  0  0
 23 19  1  0  0  0  0
 24 13  1  0  0  0  0
 25 26  1  0  0  0  0
 26 21  1  0  0  0  0
 27 26  2  0  0  0  0
 28 30  1  0  0  0  0
 29 31  1  0  0  0  0
 29 30  2  0  0  0  0
 30 27  1  0  0  0  0
 31 25  2  0  0  0  0
 32 33  1  0  0  0  0
 32 34  1  0  0  0  0
 33 34  1  0  0  0  0
 34  1  1  0  0  0  0
 35 36  1  0  0  0  0
 35 33  1  0  0  0  0
 36 37  1  0  0  0  0
M  END
>  <MODEL>
3

>  <REMARK>
 VINA RESULT:      -5.6      3.311      7.397
  Name = 
  4 active torsions:
  status: ('A' for Active; 'I' for Inactive)
    1  A    between atoms: C_1  and  C_36
    2  A    between atoms: C_6  and  C_31
    3  A    between atoms: C_11  and  C_26
    4  A    between atoms: C_17  and  C_26
                            x       y       z     vdW  Elec       q    Type
                         _______ _______ _______ _____ _____    ______ ____

>  <TORSDO>
F 4

$$$$
=
 OpenBabel11052415293D

 37 44  0  0  1  0  0  0  0  0999 V2000
  184.4990  178.2650  141.8050 C   0  0  1  0  0  3  0  0  0  0  0  0
  179.9270  178.5860  143.3590 C   0  0  0  0  0  0  0  0  0  0  0  0
  182.2160  176.5330  140.0590 C   0  0  1  0  0  3  0  0  0  0  0  0
  184.1210  179.0720  137.7910 C   0  0  0  0  0  2  0  0  0  0  0  0
  180.0200  177.4730  141.0370 C   0  0  1  0  0  3  0  0  0  0  0  0
  183.4450  177.3780  139.6550 C   0  0  1  0  0  3  0  0  0  0  0  0
  184.2280  178.7470  144.1450 O   0  0  0  0  0  0  0  0  0  0  0  0
  181.5290  177.3100  141.1810 C   0  0  2  0  0  3  0  0  0  0  0  0
  183.4450  177.7470  138.1530 C   0  0  2  0  0  3  0  0  0  0  0  0
  179.3880  176.1290  140.7200 C   0  0  0  0  0  2  0  0  0  0  0  0
  182.1630  178.6860  141.2720 C   0  0  1  0  0  3  0  0  0  0  0  0
  181.3850  178.4030  143.7040 C   0  0  0  0  0  2  0  0  0  0  0  0
  181.8280  175.2180  137.8360 C   0  0  0  0  0  2  0  0  0  0  0  0
  183.7540  178.7440  143.0180 C   0  0  0  0  0  0  0  0  0  0  0  0
  179.9310  175.5360  139.4120 C   0  0  0  0  0  2  0  0  0  0  0  0
  182.3450  179.1170  142.7350 C   0  0  1  0  0  3  0  0  0  0  0  0
  184.7770  179.6880  139.0090 C   0  0  0  0  0  2  0  0  0  0  0  0
  181.2430  176.1580  138.9040 C   0  0  1  0  0  3  0  0  0  0  0  0
  183.5410  178.5770  140.6320 C   0  0  1  0  0  0  0  0  0  0  0  0
  179.3490  178.1310  142.2270 C   0  0  0  0  0  3  0  0  0  0  0  0
  183.9290  176.5790  137.2690 C   0  0  2  0  0  3  0  0  0  0  0  0
  179.0530  179.2230  144.3820 C   0  0  0  0  0  1  0  0  0  0  0  0
  183.8190  179.8350  140.0270 O   0  0  0  0  0  0  0  0  0  0  0  0
  183.3520  175.2270  137.7040 C   0  0  0  0  0  2  0  0  0  0  0  0
  186.0380  175.2260  137.2500 C   0  0  0  0  0  3  0  0  0  0  0  0
  185.4280  176.4850  137.2050 C   0  0  0  0  0  0  0  0  0  0  0  0
  186.2230  177.6360  137.0840 C   0  0  0  0  0  3  0  0  0  0  0  0
  188.5940  178.9660  136.8380 Cl  0  0  0  0  0  0  0  0  0  0  0  0
  188.2170  176.2660  137.0470 C   0  0  0  0  0  3  0  0  0  0  0  0
  187.6130  177.5260  137.0030 C   0  0  0  0  0  0  0  0  0  0  0  0
  187.4300  175.1180  137.1720 C   0  0  0  0  0  3  0  0  0  0  0  0
  186.6920  177.8690  140.6110 C   0  0  0  0  0  2  0  0  0  0  0  0
  187.0330  177.8510  142.0900 C   0  0  2  0  0  3  0  0  0  0  0  0
  185.9420  178.7720  141.5700 C   0  0  2  0  0  3  0  0  0  0  0  0
  188.2870  178.6670  142.3300 C   0  0  0  0  0  2  0  0  0  0  0  0
  189.1700  177.9550  143.3350 C   0  0  0  0  0  2  0  0  0  0  0  0
  188.3040  177.2160  144.3330 C   0  0  0  0  0  1  0  0  0  0  0  0
  1 14  1  1  0  0  0
  2 12  1  0  0  0  0
  2 22  1  0  0  0  0
  3  8  1  0  0  0  0
  4  9  1  0  0  0  0
  4 17  1  0  0  0  0
  5  8  1  0  0  0  0
  5 20  1  0  0  0  0
  6  3  1  0  0  0  0
  6 19  1  0  0  0  0
  8 11  1  0  0  0  0
  9  6  1  0  0  0  0
 10  5  1  0  0  0  0
 11 16  1  0  0  0  0
 13 18  1  0  0  0  0
 14  7  2  0  0  0  0
 15 10  1  0  0  0  0
 16 14  1  0  0  0  0
 16 12  1  0  0  0  0
 17 23  1  0  0  0  0
 18 15  1  0  0  0  0
 18  3  1  0  0  0  0
 19 11  1  0  0  0  0
 19  1  1  0  0  0  0
 20  2  2  0  0  0  0
 21 24  1  0  0  0  0
 21  9  1  0  0  0  0
 23 19  1  0  0  0  0
 24 13  1  0  0  0  0
 26 25  1  0  0  0  0
 26 21  1  0  0  0  0
 27 26  2  0  0  0  0
 28 30  1  0  0  0  0
 29 31  1  0  0  0  0
 30 29  2  0  0  0  0
 30 27  1  0  0  0  0
 31 25  2  0  0  0  0
 32 34  1  0  0  0  0
 32 33  1  0  0  0  0
 33 35  1  0  0  0  0
 34  1  1  0  0  0  0
 34 33  1  0  0  0  0
 35 36  1  0  0  0  0
 36 37  1  0  0  0  0
M  END
>  <MODEL>
4

>  <REMARK>
 VINA RESULT:      -5.3      2.816      4.724
  Name = 
  4 active torsions:
  status: ('A' for Active; 'I' for Inactive)
    1  A    between atoms: C_1  and  C_36
    2  A    between atoms: C_6  and  C_31
    3  A    between atoms: C_11  and  C_26
    4  A    between atoms: C_17  and  C_26
                            x       y       z     vdW  Elec       q    Type
                         _______ _______ _______ _____ _____    ______ ____

>  <TORSDO>
F 4

$$$$
=
 OpenBabel11052415293D

 37 44  0  0  1  0  0  0  0  0999 V2000
  186.1500  173.4630  136.3890 C   0  0  1  0  0  3  0  0  0  0  0  0
  190.8780  173.9770  135.4950 C   0  0  0  0  0  0  0  0  0  0  0  0
  187.5930  176.2410  137.6000 C   0  0  1  0  0  3  0  0  0  0  0  0
  184.6320  177.0960  135.2090 C   0  0  0  0  0  2  0  0  0  0  0  0
  189.8840  176.1690  136.4150 C   0  0  1  0  0  3  0  0  0  0  0  0
  186.2320  175.9580  136.9250 C   0  0  1  0  0  3  0  0  0  0  0  0
  187.3750  171.4190  136.0650 O   0  0  0  0  0  0  0  0  0  0  0  0
  188.6200  175.4210  136.8200 C   0  0  2  0  0  3  0  0  0  0  0  0
  185.5300  177.2480  136.4380 C   0  0  2  0  0  3  0  0  0  0  0  0
  190.4470  176.9120  137.6150 C   0  0  0  0  0  2  0  0  0  0  0  0
  187.9540  174.8750  135.5720 C   0  0  1  0  0  3  0  0  0  0  0  0
  189.7500  173.0740  135.9290 C   0  0  0  0  0  2  0  0  0  0  0  0
  187.0920  178.5770  138.6530 C   0  0  0  0  0  2  0  0  0  0  0  0
  187.3000  172.6280  135.9030 C   0  0  0  0  0  0  0  0  0  0  0  0
  189.4460  177.9330  138.1760 C   0  0  0  0  0  2  0  0  0  0  0  0
  188.3930  173.4300  135.2940 C   0  0  1  0  0  3  0  0  0  0  0  0
  184.5210  175.6420  134.8020 C   0  0  0  0  0  2  0  0  0  0  0  0
  187.9880  177.7390  137.7250 C   0  0  1  0  0  3  0  0  0  0  0  0
  186.4540  174.8750  135.8390 C   0  0  1  0  0  0  0  0  0  0  0  0
  190.9410  175.3000  135.7620 C   0  0  0  0  0  3  0  0  0  0  0  0
  184.8300  177.9960  137.5910 C   0  0  2  0  0  3  0  0  0  0  0  0
  192.0430  173.3470  134.8160 C   0  0  0  0  0  1  0  0  0  0  0  0
  185.8090  175.1200  134.5940 O   0  0  0  0  0  0  0  0  0  0  0  0
  185.6750  178.0440  138.8680 C   0  0  0  0  0  2  0  0  0  0  0  0
  183.3560  176.4630  138.9160 C   0  0  0  0  0  3  0  0  0  0  0  0
  183.4750  177.4280  137.9090 C   0  0  0  0  0  0  0  0  0  0  0  0
  182.3270  177.8600  137.2260 C   0  0  0  0  0  3  0  0  0  0  0  0
  179.6480  177.8930  136.7060 Cl  0  0  0  0  0  0  0  0  0  0  0  0
  180.9610  176.3740  138.5610 C   0  0  0  0  0  3  0  0  0  0  0  0
  181.0740  177.3370  137.5530 C   0  0  0  0  0  0  0  0  0  0  0  0
  182.1020  175.9370  139.2400 C   0  0  0  0  0  3  0  0  0  0  0  0
  183.7780  173.3010  137.2490 C   0  0  0  0  0  2  0  0  0  0  0  0
  184.2090  171.8680  136.9950 C   0  0  2  0  0  3  0  0  0  0  0  0
  184.7080  172.9860  136.0940 C   0  0  2  0  0  3  0  0  0  0  0  0
  183.1000  171.1250  136.2810 C   0  0  0  0  0  2  0  0  0  0  0  0
  183.5330  169.6960  136.0190 C   0  0  0  0  0  2  0  0  0  0  0  0
  184.2730  169.6280  134.7000 C   0  0  0  0  0  1  0  0  0  0  0  0
  1 14  1  6  0  0  0
  2 20  2  0  0  0  0
  2 12  1  0  0  0  0
  3 18  1  0  0  0  0
  4  9  1  0  0  0  0
  5  8  1  0  0  0  0
  5 10  1  0  0  0  0
  6  3  1  0  0  0  0
  8  3  1  0  0  0  0
  9  6  1  0  0  0  0
  9 21  1  0  0  0  0
 10 15  1  0  0  0  0
 11 19  1  0  0  0  0
 11  8  1  0  0  0  0
 13 24  1  0  0  0  0
 14  7  2  0  0  0  0
 16 11  1  0  0  0  0
 16 14  1  0  0  0  0
 16 12  1  0  0  0  0
 17  4  1  0  0  0  0
 18 15  1  0  0  0  0
 18 13  1  0  0  0  0
 19  1  1  0  0  0  0
 19  6  1  0  0  0  0
 20  5  1  0  0  0  0
 21 26  1  0  0  0  0
 21 24  1  0  0  0  0
 22  2  1  0  0  0  0
 23 17  1  0  0  0  0
 23 19  1  0  0  0  0
 25 31  1  0  0  0  0
 26 25  2  0  0  0  0
 27 30  2  0  0  0  0
 27 26  1  0  0  0  0
 28 30  1  0  0  0  0
 29 31  2  0  0  0  0
 30 29  1  0  0  0  0
 33 32  1  0  0  0  0
 34  1  1  0  0  0  0
 34 33  1  0  0  0  0
 34 32  1  0  0  0  0
 35 33  1  0  0  0  0
 36 35  1  0  0  0  0
 37 36  1  0  0  0  0
M  END
>  <MODEL>
5

>  <REMARK>
 VINA RESULT:      -5.3      3.547      8.066
  Name = 
  4 active torsions:
  status: ('A' for Active; 'I' for Inactive)
    1  A    between atoms: C_1  and  C_36
    2  A    between atoms: C_6  and  C_31
    3  A    between atoms: C_11  and  C_26
    4  A    between atoms: C_17  and  C_26
                            x       y       z     vdW  Elec       q    Type
                         _______ _______ _______ _____ _____    ______ ____

>  <TORSDO>
F 4

$$$$
=
 OpenBabel11052415293D

 37 44  0  0  1  0  0  0  0  0999 V2000
  187.5870  174.2770  136.7340 C   0  0  1  0  0  3  0  0  0  0  0  0
  192.4240  174.3960  136.7890 C   0  0  0  0  0  0  0  0  0  0  0  0
  188.9900  176.5170  138.8010 C   0  0  1  0  0  3  0  0  0  0  0  0
  186.6160  178.2390  136.2300 C   0  0  0  0  0  2  0  0  0  0  0  0
  191.4520  176.4320  138.0330 C   0  0  1  0  0  3  0  0  0  0  0  0
  187.7640  176.5610  137.8620 C   0  0  1  0  0  3  0  0  0  0  0  0
  188.6840  172.2230  136.1330 O   0  0  0  0  0  0  0  0  0  0  0  0
  190.0780  175.7720  138.0290 C   0  0  2  0  0  3  0  0  0  0  0  0
  187.2730  178.0020  137.5910 C   0  0  2  0  0  3  0  0  0  0  0  0
  191.8330  176.8140  139.4530 C   0  0  0  0  0  2  0  0  0  0  0  0
  189.6200  175.6040  136.5920 C   0  0  1  0  0  3  0  0  0  0  0  0
  191.1660  173.5630  136.7970 C   0  0  0  0  0  2  0  0  0  0  0  0
  188.4860  178.6030  140.2900 C   0  0  0  0  0  2  0  0  0  0  0  0
  188.7380  173.4380  136.2580 C   0  0  0  0  0  0  0  0  0  0  0  0
  190.8290  177.7990  140.0690 C   0  0  0  0  0  2  0  0  0  0  0  0
  189.9870  174.2150  136.0510 C   0  0  1  0  0  3  0  0  0  0  0  0
  186.4690  176.9370  135.4720 C   0  0  0  0  0  2  0  0  0  0  0  0
  189.4730  177.8900  139.3490 C   0  0  1  0  0  3  0  0  0  0  0  0
  188.1010  175.7280  136.5990 C   0  0  1  0  0  0  0  0  0  0  0  0
  192.5400  175.6080  137.3730 C   0  0  0  0  0  3  0  0  0  0  0  0
  186.4280  178.5550  138.7580 C   0  0  2  0  0  3  0  0  0  0  0  0
  193.6430  173.7950  136.1810 C   0  0  0  0  0  1  0  0  0  0  0  0
  187.7270  176.3220  135.3600 O   0  0  0  0  0  0  0  0  0  0  0  0
  187.0150  178.2130  140.1310 C   0  0  0  0  0  2  0  0  0  0  0  0
  184.3190  177.8150  139.8910 C   0  0  0  0  0  3  0  0  0  0  0  0
  184.9960  178.0990  138.7000 C   0  0  0  0  0  0  0  0  0  0  0  0
  184.3240  177.9710  137.4740 C   0  0  0  0  0  3  0  0  0  0  0  0
  182.1550  177.4260  135.9100 Cl  0  0  0  0  0  0  0  0  0  0  0  0
  182.3150  177.2870  138.6350 C   0  0  0  0  0  3  0  0  0  0  0  0
  182.9870  177.5690  137.4420 C   0  0  0  0  0  0  0  0  0  0  0  0
  182.9810  177.4090  139.8580 C   0  0  0  0  0  3  0  0  0  0  0  0
  185.0840  174.3390  137.0900 C   0  0  0  0  0  2  0  0  0  0  0  0
  185.3950  172.9090  136.6890 C   0  0  2  0  0  3  0  0  0  0  0  0
  186.1940  174.0580  136.0960 C   0  0  2  0  0  3  0  0  0  0  0  0
  184.3830  172.4390  135.6650 C   0  0  0  0  0  2  0  0  0  0  0  0
  183.7870  171.1190  136.1110 C   0  0  0  0  0  2  0  0  0  0  0  0
  182.5880  171.3800  136.9980 C   0  0  0  0  0  1  0  0  0  0  0  0
  1 14  1  6  0  0  0
  2 12  1  0  0  0  0
  2 20  2  0  0  0  0
  3 18  1  0  0  0  0
  4  9  1  0  0  0  0
  5 10  1  0  0  0  0
  6  3  1  0  0  0  0
  7 14  2  0  0  0  0
  8  5  1  0  0  0  0
  8  3  1  0  0  0  0
  9  6  1  0  0  0  0
  9 21  1  0  0  0  0
 10 15  1  0  0  0  0
 11 19  1  0  0  0  0
 11  8  1  0  0  0  0
 16 14  1  0  0  0  0
 16 11  1  0  0  0  0
 16 12  1  0  0  0  0
 17  4  1  0  0  0  0
 18 15  1  0  0  0  0
 18 13  1  0  0  0  0
 19  1  1  0  0  0  0
 19  6  1  0  0  0  0
 20  5  1  0  0  0  0
 21 24  1  0  0  0  0
 22  2  1  0  0  0  0
 23 17  1  0  0  0  0
 23 19  1  0  0  0  0
 24 13  1  0  0  0  0
 26 21  1  0  0  0  0
 26 25  2  0  0  0  0
 27 26  1  0  0  0  0
 28 30  1  0  0  0  0
 29 31  2  0  0  0  0
 30 27  2  0  0  0  0
 30 29  1  0  0  0  0
 31 25  1  0  0  0  0
 33 32  1  0  0  0  0
 34 33  1  0  0  0  0
 34  1  1  0  0  0  0
 34 32  1  0  0  0  0
 35 36  1  0  0  0  0
 35 33  1  0  0  0  0
 36 37  1  0  0  0  0
M  END
>  <MODEL>
6

>  <REMARK>
 VINA RESULT:      -4.9      2.844      7.750
  Name = 
  4 active torsions:
  status: ('A' for Active; 'I' for Inactive)
    1  A    between atoms: C_1  and  C_36
    2  A    between atoms: C_6  and  C_31
    3  A    between atoms: C_11  and  C_26
    4  A    between atoms: C_17  and  C_26
                            x       y       z     vdW  Elec       q    Type
                         _______ _______ _______ _____ _____    ______ ____

>  <TORSDO>
F 4

$$$$
=
 OpenBabel11052415293D

 37 44  0  0  1  0  0  0  0  0999 V2000
  185.8710  177.7440  138.9650 C   0  0  1  0  0  3  0  0  0  0  0  0
  182.9820  176.3780  135.3310 C   0  0  0  0  0  0  0  0  0  0  0  0
  187.0710  175.3540  136.9370 C   0  0  1  0  0  3  0  0  0  0  0  0
  189.4310  178.4570  137.0360 C   0  0  0  0  0  2  0  0  0  0  0  0
  185.3550  175.4260  135.0110 C   0  0  1  0  0  3  0  0  0  0  0  0
  187.7050  176.5900  137.6130 C   0  0  1  0  0  3  0  0  0  0  0  0
  183.5150  178.0420  139.3420 O   0  0  0  0  0  0  0  0  0  0  0  0
  185.6970  175.8080  136.4460 C   0  0  2  0  0  3  0  0  0  0  0  0
  189.0700  176.9710  136.9940 C   0  0  2  0  0  3  0  0  0  0  0  0
  185.6500  173.9530  134.7890 C   0  0  0  0  0  2  0  0  0  0  0  0
  185.6110  177.3170  136.5850 C   0  0  1  0  0  3  0  0  0  0  0  0
  183.1220  176.7180  136.7940 C   0  0  0  0  0  2  0  0  0  0  0  0
  189.2330  174.0390  136.2910 C   0  0  0  0  0  2  0  0  0  0  0  0
  184.4360  177.8970  138.5510 C   0  0  0  0  0  0  0  0  0  0  0  0
  187.1300  173.6230  135.0310 C   0  0  0  0  0  2  0  0  0  0  0  0
  184.2260  177.7500  137.0870 C   0  0  1  0  0  3  0  0  0  0  0  0
  188.3950  179.2380  137.8170 C   0  0  0  0  0  2  0  0  0  0  0  0
  187.9180  174.6840  135.8190 C   0  0  1  0  0  3  0  0  0  0  0  0
  186.6460  177.7210  137.6270 C   0  0  1  0  0  0  0  0  0  0  0  0
  183.9390  175.7730  134.5940 C   0  0  0  0  0  3  0  0  0  0  0  0
  190.2120  176.0730  137.5140 C   0  0  2  0  0  3  0  0  0  0  0  0
  181.6650  176.6370  134.6860 C   0  0  0  0  0  1  0  0  0  0  0  0
  187.1260  179.0090  137.2580 O   0  0  0  0  0  0  0  0  0  0  0  0
  189.8160  174.5940  137.5930 C   0  0  0  0  0  2  0  0  0  0  0  0
  191.9830  177.1560  138.9180 C   0  0  0  0  0  3  0  0  0  0  0  0
  190.7370  176.5210  138.8490 C   0  0  0  0  0  0  0  0  0  0  0  0
  189.9930  176.3290  140.0240 C   0  0  0  0  0  3  0  0  0  0  0  0
  189.5450  176.5410  142.7080 Cl  0  0  0  0  0  0  0  0  0  0  0  0
  191.7320  177.4070  141.3140 C   0  0  0  0  0  3  0  0  0  0  0  0
  190.4880  176.7730  141.2520 C   0  0  0  0  0  0  0  0  0  0  0  0
  192.4790  177.5970  140.1480 C   0  0  0  0  0  3  0  0  0  0  0  0
  187.6560  178.1440  140.7100 C   0  0  0  0  0  2  0  0  0  0  0  0
  186.3370  178.2960  141.4460 C   0  0  2  0  0  3  0  0  0  0  0  0
  186.4570  178.7370  139.9960 C   0  0  2  0  0  3  0  0  0  0  0  0
  186.3920  179.5200  142.3350 C   0  0  0  0  0  2  0  0  0  0  0  0
  185.1920  179.5270  143.2620 C   0  0  0  0  0  2  0  0  0  0  0  0
  184.2490  178.4090  142.8730 C   0  0  0  0  0  1  0  0  0  0  0  0
  1 14  1  6  0  0  0
  1 34  1  0  0  0  0
  2 12  1  0  0  0  0
  3  6  1  0  0  0  0
  4 17  1  0  0  0  0
  5  8  1  0  0  0  0
  6 19  1  0  0  0  0
  8 11  1  0  0  0  0
  8  3  1  0  0  0  0
  9  4  1  0  0  0  0
  9 21  1  0  0  0  0
  9  6  1  0  0  0  0
 10  5  1  0  0  0  0
 10 15  1  0  0  0  0
 11 16  1  0  0  0  0
 11 19  1  0  0  0  0
 12 16  1  0  0  0  0
 13 24  1  0  0  0  0
 14  7  2  0  0  0  0
 15 18  1  0  0  0  0
 16 14  1  0  0  0  0
 18 13  1  0  0  0  0
 18  3  1  0  0  0  0
 19  1  1  0  0  0  0
 20  5  1  0  0  0  0
 20  2  2  0  0  0  0
 21 24  1  0  0  0  0
 21 26  1  0  0  0  0
 22  2  1  0  0  0  0
 23 19  1  0  0  0  0
 23 17  1  0  0  0  0
 25 31  1  0  0  0  0
 26 25  2  0  0  0  0
 26 27  1  0  0  0  0
 27 30  2  0  0  0  0
 30 29  1  0  0  0  0
 30 28  1  0  0  0  0
 31 29  2  0  0  0  0
 32 33  1  0  0  0  0
 33 35  1  0  0  0  0
 34 32  1  0  0  0  0
 34 33  1  0  0  0  0
 35 36  1  0  0  0  0
 37 36  1  0  0  0  0
M  END
>  <MODEL>
7

>  <REMARK>
 VINA RESULT:      -4.6      2.137      3.902
  Name = 
  4 active torsions:
  status: ('A' for Active; 'I' for Inactive)
    1  A    between atoms: C_1  and  C_36
    2  A    between atoms: C_6  and  C_31
    3  A    between atoms: C_11  and  C_26
    4  A    between atoms: C_17  and  C_26
                            x       y       z     vdW  Elec       q    Type
                         _______ _______ _______ _____ _____    ______ ____

>  <TORSDO>
F 4

$$$$
=
 OpenBabel11052415293D

 37 44  0  0  1  0  0  0  0  0999 V2000
  186.7180  177.8780  139.3790 C   0  0  1  0  0  3  0  0  0  0  0  0
  182.0100  178.6540  140.1840 C   0  0  0  0  0  0  0  0  0  0  0  0
  184.5830  176.1760  137.4280 C   0  0  1  0  0  3  0  0  0  0  0  0
  187.0080  178.3760  135.3080 C   0  0  0  0  0  2  0  0  0  0  0  0
  182.3530  177.3490  137.9880 C   0  0  1  0  0  3  0  0  0  0  0  0
  185.9240  176.8940  137.1600 C   0  0  1  0  0  3  0  0  0  0  0  0
  186.1460  178.5700  141.6090 O   0  0  0  0  0  0  0  0  0  0  0  0
  183.8040  177.0910  138.3740 C   0  0  2  0  0  3  0  0  0  0  0  0
  186.1770  177.1380  135.6540 C   0  0  2  0  0  3  0  0  0  0  0  0
  181.6640  176.0320  137.6730 C   0  0  0  0  0  2  0  0  0  0  0  0
  184.5310  178.4200  138.4640 C   0  0  1  0  0  3  0  0  0  0  0  0
  183.3800  178.3950  140.7610 C   0  0  0  0  0  2  0  0  0  0  0  0
  184.4200  174.7140  135.2710 C   0  0  0  0  0  2  0  0  0  0  0  0
  185.8450  178.5080  140.4260 C   0  0  0  0  0  0  0  0  0  0  0  0
  182.3430  175.2960  136.5100 C   0  0  0  0  0  2  0  0  0  0  0  0
  184.5290  178.9570  139.9030 C   0  0  1  0  0  3  0  0  0  0  0  0
  187.5250  179.0420  136.5650 C   0  0  0  0  0  2  0  0  0  0  0  0
  183.7640  175.7780  136.1680 C   0  0  1  0  0  3  0  0  0  0  0  0
  185.9740  178.1600  138.0530 C   0  0  1  0  0  0  0  0  0  0  0  0
  181.5700  178.1490  139.0110 C   0  0  0  0  0  3  0  0  0  0  0  0
  186.6870  175.8690  134.9400 C   0  0  2  0  0  3  0  0  0  0  0  0
  181.0500  179.4340  141.0120 C   0  0  0  0  0  1  0  0  0  0  0  0
  186.4430  179.3400  137.4100 O   0  0  0  0  0  0  0  0  0  0  0  0
  185.9420  174.6020  135.3750 C   0  0  0  0  0  2  0  0  0  0  0  0
  189.0560  176.6120  134.5990 C   0  0  0  0  0  3  0  0  0  0  0  0
  188.1670  175.6630  135.1140 C   0  0  0  0  0  0  0  0  0  0  0  0
  188.6680  174.5450  135.8000 C   0  0  0  0  0  3  0  0  0  0  0  0
  190.6580  172.9940  136.8400 Cl  0  0  0  0  0  0  0  0  0  0  0  0
  190.9280  175.3350  135.4550 C   0  0  0  0  0  3  0  0  0  0  0  0
  190.0440  174.3830  135.9720 C   0  0  0  0  0  0  0  0  0  0  0  0
  190.4340  176.4480  134.7680 C   0  0  0  0  0  3  0  0  0  0  0  0
  189.0290  177.2110  138.5990 C   0  0  0  0  0  2  0  0  0  0  0  0
  189.1360  177.3280  140.1080 C   0  0  2  0  0  3  0  0  0  0  0  0
  188.2170  178.2590  139.3330 C   0  0  2  0  0  3  0  0  0  0  0  0
  190.4000  178.0780  140.4690 C   0  0  0  0  0  2  0  0  0  0  0  0
  191.5220  177.0910  140.7170 C   0  0  0  0  0  2  0  0  0  0  0  0
  192.3570  176.9510  139.4620 C   0  0  0  0  0  1  0  0  0  0  0  0
  1 14  1  1  0  0  0
  2 12  1  0  0  0  0
  2 22  1  0  0  0  0
  3  8  1  0  0  0  0
  4  9  1  0  0  0  0
  4 17  1  0  0  0  0
  5  8  1  0  0  0  0
  5 20  1  0  0  0  0
  6  3  1  0  0  0  0
  6 19  1  0  0  0  0
  8 11  1  0  0  0  0
  9  6  1  0  0  0  0
 10  5  1  0  0  0  0
 11 16  1  0  0  0  0
 13 24  1  0  0  0  0
 13 18  1  0  0  0  0
 14  7  2  0  0  0  0
 15 10  1  0  0  0  0
 16 14  1  0  0  0  0
 16 12  1  0  0  0  0
 17 23  1  0  0  0  0
 18 15  1  0  0  0  0
 18  3  1  0  0  0  0
 19 11  1  0  0  0  0
 19  1  1  0  0  0  0
 20  2  2  0  0  0  0
 21 26  1  0  0  0  0
 21 24  1  0  0  0  0
 21  9  1  0  0  0  0
 23 19  1  0  0  0  0
 25 31  2  0  0  0  0
 25 26  1  0  0  0  0
 26 27  2  0  0  0  0
 27 30  1  0  0  0  0
 29 30  2  0  0  0  0
 30 28  1  0  0  0  0
 31 29  1  0  0  0  0
 32 34  1  0  0  0  0
 32 33  1  0  0  0  0
 33 35  1  0  0  0  0
 34  1  1  0  0  0  0
 34 33  1  0  0  0  0
 35 36  1  0  0  0  0
 37 36  1  0  0  0  0
M  END
>  <MODEL>
8

>  <REMARK>
 VINA RESULT:      -4.6      1.485      2.025
  Name = 
  4 active torsions:
  status: ('A' for Active; 'I' for Inactive)
    1  A    between atoms: C_1  and  C_36
    2  A    between atoms: C_6  and  C_31
    3  A    between atoms: C_11  and  C_26
    4  A    between atoms: C_17  and  C_26
                            x       y       z     vdW  Elec       q    Type
                         _______ _______ _______ _____ _____    ______ ____

>  <TORSDO>
F 4

$$$$
=
 OpenBabel11052415293D

 37 44  0  0  1  0  0  0  0  0999 V2000
  189.8950  177.9820  142.3690 C   0  0  1  0  0  3  0  0  0  0  0  0
  189.1620  177.4870  137.6120 C   0  0  0  0  0  0  0  0  0  0  0  0
  186.8370  178.7920  141.2500 C   0  0  1  0  0  3  0  0  0  0  0  0
  186.6670  175.9990  143.9670 C   0  0  0  0  0  2  0  0  0  0  0  0
  186.9300  177.8780  138.8380 C   0  0  1  0  0  3  0  0  0  0  0  0
  187.3460  178.0490  142.5050 C   0  0  1  0  0  3  0  0  0  0  0  0
  191.8560  178.1680  140.9910 O   0  0  0  0  0  0  0  0  0  0  0  0
  187.6950  178.2860  140.0910 C   0  0  2  0  0  3  0  0  0  0  0  0
  186.2250  177.2620  143.2250 C   0  0  2  0  0  3  0  0  0  0  0  0
  185.9420  178.9690  138.4630 C   0  0  0  0  0  2  0  0  0  0  0  0
  188.5080  177.1000  140.5760 C   0  0  1  0  0  3  0  0  0  0  0  0
  190.0630  177.9650  138.7230 C   0  0  0  0  0  2  0  0  0  0  0  0
  184.3990  179.3370  142.0110 C   0  0  0  0  0  2  0  0  0  0  0  0
  190.7060  177.7770  141.1220 C   0  0  0  0  0  0  0  0  0  0  0  0
  184.9220  179.2270  139.5820 C   0  0  0  0  0  2  0  0  0  0  0  0
  189.9390  177.1420  140.0190 C   0  0  1  0  0  3  0  0  0  0  0  0
  188.1750  175.8610  143.9400 C   0  0  0  0  0  2  0  0  0  0  0  0
  185.3130  178.6750  140.9650 C   0  0  1  0  0  3  0  0  0  0  0  0
  188.5830  177.2110  142.0940 C   0  0  1  0  0  0  0  0  0  0  0  0
  187.8120  177.5070  137.6620 C   0  0  0  0  0  3  0  0  0  0  0  0
  185.3430  178.1790  144.0980 C   0  0  2  0  0  3  0  0  0  0  0  0
  189.8060  177.0580  136.3400 C   0  0  0  0  0  1  0  0  0  0  0  0
  188.6180  175.8840  142.6060 O   0  0  0  0  0  0  0  0  0  0  0  0
  184.9990  179.5040  143.4080 C   0  0  0  0  0  2  0  0  0  0  0  0
  185.5300  179.5790  146.1670 C   0  0  0  0  0  3  0  0  0  0  0  0
  185.9550  178.4600  145.4420 C   0  0  0  0  0  0  0  0  0  0  0  0
  186.9310  177.6110  145.9880 C   0  0  0  0  0  3  0  0  0  0  0  0
  188.6760  176.8040  147.9250 Cl  0  0  0  0  0  0  0  0  0  0  0  0
  187.0420  178.9950  147.9690 C   0  0  0  0  0  3  0  0  0  0  0  0
  187.4710  177.8770  147.2480 C   0  0  0  0  0  0  0  0  0  0  0  0
  186.0740  179.8460  147.4280 C   0  0  0  0  0  3  0  0  0  0  0  0
  191.9660  178.1260  143.8130 C   0  0  0  0  0  2  0  0  0  0  0  0
  191.6800  176.6420  143.6710 C   0  0  2  0  0  3  0  0  0  0  0  0
  190.5330  177.6370  143.7360 C   0  0  2  0  0  3  0  0  0  0  0  0
  191.8200  175.9690  145.0200 C   0  0  0  0  0  2  0  0  0  0  0  0
  191.6810  177.0030  146.1200 C   0  0  0  0  0  2  0  0  0  0  0  0
  192.0490  176.3780  147.4480 C   0  0  0  0  0  1  0  0  0  0  0  0
  1 14  1  6  0  0  0
  1 34  1  0  0  0  0
  2 20  2  0  0  0  0
  2 12  1  0  0  0  0
  3  6  1  0  0  0  0
  5  8  1  0  0  0  0
  6  9  1  0  0  0  0
  7 14  2  0  0  0  0
  8 11  1  0  0  0  0
  8  3  1  0  0  0  0
  9  4  1  0  0  0  0
  9 21  1  0  0  0  0
 10  5  1  0  0  0  0
 10 15  1  0  0  0  0
 11 19  1  0  0  0  0
 12 16  1  0  0  0  0
 13 24  1  0  0  0  0
 15 18  1  0  0  0  0
 16 11  1  0  0  0  0
 16 14  1  0  0  0  0
 17  4  1  0  0  0  0
 18  3  1  0  0  0  0
 18 13  1  0  0  0  0
 19  1  1  0  0  0  0
 19  6  1  0  0  0  0
 19 23  1  0  0  0  0
 20  5  1  0  0  0  0
 21 26  1  0  0  0  0
 22  2  1  0  0  0  0
 23 17  1  0  0  0  0
 24 21  1  0  0  0  0
 25 31  1  0  0  0  0
 26 27  1  0  0  0  0
 26 25  2  0  0  0  0
 27 30  2  0  0  0  0
 30 28  1  0  0  0  0
 30 29  1  0  0  0  0
 31 29  2  0  0  0  0
 33 34  1  0  0  0  0
 33 32  1  0  0  0  0
 33 35  1  0  0  0  0
 34 32  1  0  0  0  0
 35 36  1  0  0  0  0
 36 37  1  0  0  0  0
M  END
>  <MODEL>
9

>  <REMARK>
 VINA RESULT:      -4.5      4.010      7.690
  Name = 
  4 active torsions:
  status: ('A' for Active; 'I' for Inactive)
    1  A    between atoms: C_1  and  C_36
    2  A    between atoms: C_6  and  C_31
    3  A    between atoms: C_11  and  C_26
    4  A    between atoms: C_17  and  C_26
                            x       y       z     vdW  Elec       q    Type
                         _______ _______ _______ _____ _____    ______ ____

>  <TORSDO>
F 4

$$$$
