=
 OpenBabel11052413113D

 31 36  0  0  1  0  0  0  0  0999 V2000
  188.0040  177.0360  143.9240 C   0  0  2  0  0  3  0  0  0  0  0  0
  186.8800  177.8120  144.5810 C   0  0  0  0  0  0  0  0  0  0  0  0
  185.7530  178.7190  146.5350 C   0  0  0  0  0  0  0  0  0  0  0  0
  189.3120  177.1000  144.6830 C   0  0  0  0  0  0  0  0  0  0  0  0
  191.0380  176.8460  146.1420 C   0  0  0  0  0  0  0  0  0  0  0  0
  186.8320  178.0380  145.9650 C   0  0  0  0  0  3  0  0  0  0  0  0
  189.5600  177.4440  141.8490 C   0  0  1  0  0  3  0  0  0  0  0  0
  185.8080  177.9270  142.3170 C   0  0  0  0  0  2  0  0  0  0  0  0
  185.7240  178.9440  147.8700 F   0  0  0  0  0  0  0  0  0  0  0  0
  190.5870  178.0850  142.7870 C   0  0  0  0  0  2  0  0  0  0  0  0
  188.1790  177.4940  142.4750 C   0  0  0  0  0  0  0  0  0  0  0  0
  189.5730  176.5600  146.0470 C   0  0  0  0  0  2  0  0  0  0  0  0
  184.6990  179.1590  145.7300 C   0  0  0  0  0  3  0  0  0  0  0  0
  190.4570  177.5180  144.1650 C   0  0  0  0  0  0  0  0  0  0  0  0
  191.5340  177.3850  145.0770 N   0  0  0  0  0  0  0  0  0  0  0  0
  187.1590  177.9010  141.7880 N   0  0  0  0  0  0  0  0  0  0  0  0
  185.8100  178.2510  143.7800 C   0  0  0  0  0  0  0  0  0  0  0  0
  184.7240  178.9190  144.3530 C   0  0  0  0  0  3  0  0  0  0  0  0
  191.8370  176.5490  147.2960 C   0  0  0  0  0  0  0  0  0  0  0  0
  192.4820  176.3090  148.2270 N   0  0  0  0  0  0  0  0  0  0  0  0
  189.6160  178.1080  140.4760 C   0  0  0  0  0  2  0  0  0  0  0  0
  187.6210  175.7130  136.1950 C   0  0  0  0  0  0  0  0  0  0  0  0
  187.6380  177.4000  137.9890 C   0  0  0  0  0  3  0  0  0  0  0  0
  190.5590  175.3650  138.2800 N   0  0  0  0  0  0  0  0  0  0  0  0
  190.7540  176.1810  139.3170 N   0  0  0  0  0  0  0  0  0  0  0  0
  186.9390  175.1230  135.0150 C   0  0  0  0  0  1  0  0  0  0  0  0
  189.7420  177.0820  139.3990 C   0  0  0  0  0  0  0  0  0  0  0  0
  187.0240  176.8140  136.8650 C   0  0  0  0  0  2  0  0  0  0  0  0
  189.4120  175.7440  137.6960 C   0  0  0  0  0  0  0  0  0  0  0  0
  188.8440  176.8470  138.3880 C   0  0  0  0  0  0  0  0  0  0  0  0
  188.8110  175.1850  136.6210 N   0  0  0  0  0  0  0  0  0  0  0  0
  1 11  1  6  0  0  0
  1  2  1  0  0  0  0
  1  4  1  0  0  0  0
  2  6  1  0  0  0  0
  3  9  1  0  0  0  0
  4 12  1  0  0  0  0
  5 19  1  0  0  0  0
  6  3  2  0  0  0  0
  7 21  1  6  0  0  0
  7 11  1  0  0  0  0
  7 10  1  0  0  0  0
  8 17  1  0  0  0  0
 10 14  1  0  0  0  0
 12  5  1  0  0  0  0
 13  3  1  0  0  0  0
 14  4  2  0  0  0  0
 14 15  1  0  0  0  0
 15  5  2  0  0  0  0
 16  8  1  0  0  0  0
 16 11  2  0  0  0  0
 17 18  1  0  0  0  0
 17  2  2  0  0  0  0
 18 13  2  0  0  0  0
 19 20  3  0  0  0  0
 22 31  2  0  0  0  0
 22 28  1  0  0  0  0
 23 30  2  0  0  0  0
 24 25  1  0  0  0  0
 25 27  2  0  0  0  0
 26 22  1  0  0  0  0
 27 21  1  0  0  0  0
 28 23  1  0  0  0  0
 29 24  2  0  0  0  0
 29 30  1  0  0  0  0
 30 27  1  0  0  0  0
 31 29  1  0  0  0  0
M  END
>  <MODEL>
1

>  <REMARK>
 VINA RESULT:     -10.2      0.000      0.000
  Name = 
  3 active torsions:
  status: ('A' for Active; 'I' for Inactive)
    1  A    between atoms: C_2  and  C_13
    2  A    between atoms: C_9  and  C_23
    3  A    between atoms: C_15  and  C_23
                            x       y       z     vdW  Elec       q    Type
                         _______ _______ _______ _____ _____    ______ ____

>  <TORSDO>
F 3

$$$$
=
 OpenBabel11052413113D

 31 36  0  0  1  0  0  0  0  0999 V2000
  187.3960  177.2360  143.5990 C   0  0  2  0  0  3  0  0  0  0  0  0
  186.2420  177.8880  144.3360 C   0  0  0  0  0  0  0  0  0  0  0  0
  185.1190  178.5920  146.3750 C   0  0  0  0  0  0  0  0  0  0  0  0
  188.7200  177.3480  144.3230 C   0  0  0  0  0  0  0  0  0  0  0  0
  190.5070  177.1310  145.7130 C   0  0  0  0  0  0  0  0  0  0  0  0
  186.2250  178.0260  145.7320 C   0  0  0  0  0  3  0  0  0  0  0  0
  188.8500  177.8800  141.5100 C   0  0  1  0  0  3  0  0  0  0  0  0
  185.0910  178.0620  142.1150 C   0  0  0  0  0  2  0  0  0  0  0  0
  185.1190  178.7330  147.7210 F   0  0  0  0  0  0  0  0  0  0  0  0
  189.8600  178.5350  142.4570 C   0  0  0  0  0  2  0  0  0  0  0  0
  187.4900  177.7930  142.1780 C   0  0  0  0  0  0  0  0  0  0  0  0
  189.0630  176.7470  145.6430 C   0  0  0  0  0  2  0  0  0  0  0  0
  184.0120  179.0030  145.6280 C   0  0  0  0  0  3  0  0  0  0  0  0
  189.8150  177.8790  143.8000 C   0  0  0  0  0  0  0  0  0  0  0  0
  190.9280  177.7680  144.6700 N   0  0  0  0  0  0  0  0  0  0  0  0
  186.4220  178.1660  141.5470 N   0  0  0  0  0  0  0  0  0  0  0  0
  185.1180  178.2960  143.5940 C   0  0  0  0  0  0  0  0  0  0  0  0
  184.0080  178.8480  144.2400 C   0  0  0  0  0  3  0  0  0  0  0  0
  191.3630  176.8230  146.8230 C   0  0  0  0  0  0  0  0  0  0  0  0
  192.0530  176.5750  147.7180 N   0  0  0  0  0  0  0  0  0  0  0  0
  188.8140  178.6270  140.1800 C   0  0  0  0  0  2  0  0  0  0  0  0
  191.4550  175.2050  137.1220 C   0  0  0  0  0  0  0  0  0  0  0  0
  191.2100  176.7520  139.0230 C   0  0  0  0  0  3  0  0  0  0  0  0
  188.1140  176.5890  137.2500 N   0  0  0  0  0  0  0  0  0  0  0  0
  187.7760  177.4580  138.2040 N   0  0  0  0  0  0  0  0  0  0  0  0
  192.3190  174.2850  136.3390 C   0  0  0  0  0  1  0  0  0  0  0  0
  188.8280  177.6700  139.0360 C   0  0  0  0  0  0  0  0  0  0  0  0
  191.9950  175.8690  138.2560 C   0  0  0  0  0  2  0  0  0  0  0  0
  189.3920  176.2450  137.4700 C   0  0  0  0  0  0  0  0  0  0  0  0
  189.8980  176.9230  138.6100 C   0  0  0  0  0  0  0  0  0  0  0  0
  190.1560  175.4040  136.7370 N   0  0  0  0  0  0  0  0  0  0  0  0
  1 11  1  6  0  0  0
  1  4  1  0  0  0  0
  1  2  1  0  0  0  0
  2  6  1  0  0  0  0
  3  9  1  0  0  0  0
  4 12  1  0  0  0  0
  5 19  1  0  0  0  0
  6  3  2  0  0  0  0
  7 21  1  6  0  0  0
  7 11  1  0  0  0  0
  7 10  1  0  0  0  0
  8 17  1  0  0  0  0
 10 14  1  0  0  0  0
 12  5  1  0  0  0  0
 13  3  1  0  0  0  0
 14  4  2  0  0  0  0
 14 15  1  0  0  0  0
 15  5  2  0  0  0  0
 16  8  1  0  0  0  0
 16 11  2  0  0  0  0
 17 18  1  0  0  0  0
 17  2  2  0  0  0  0
 18 13  2  0  0  0  0
 19 20  3  0  0  0  0
 22 28  1  0  0  0  0
 24 29  2  0  0  0  0
 24 25  1  0  0  0  0
 25 27  2  0  0  0  0
 26 22  1  0  0  0  0
 27 21  1  0  0  0  0
 28 23  1  0  0  0  0
 29 30  1  0  0  0  0
 30 23  2  0  0  0  0
 30 27  1  0  0  0  0
 31 22  2  0  0  0  0
 31 29  1  0  0  0  0
M  END
>  <MODEL>
2

>  <REMARK>
 VINA RESULT:     -10.1      1.326      2.018
  Name = 
  3 active torsions:
  status: ('A' for Active; 'I' for Inactive)
    1  A    between atoms: C_2  and  C_13
    2  A    between atoms: C_9  and  C_23
    3  A    between atoms: C_15  and  C_23
                            x       y       z     vdW  Elec       q    Type
                         _______ _______ _______ _____ _____    ______ ____

>  <TORSDO>
F 3

$$$$
=
 OpenBabel11052413113D

 31 36  0  0  1  0  0  0  0  0999 V2000
  187.2150  177.1300  144.3340 C   0  0  2  0  0  3  0  0  0  0  0  0
  188.1190  177.3370  145.5330 C   0  0  0  0  0  0  0  0  0  0  0  0
  190.2950  177.2850  146.6170 C   0  0  0  0  0  0  0  0  0  0  0  0
  187.9120  177.3260  143.0050 C   0  0  0  0  0  0  0  0  0  0  0  0
  189.1610  177.1420  141.1130 C   0  0  0  0  0  0  0  0  0  0  0  0
  189.5050  177.1260  145.4750 C   0  0  0  0  0  3  0  0  0  0  0  0
  185.3230  178.5400  143.1830 C   0  0  1  0  0  3  0  0  0  0  0  0
  186.0410  177.8100  146.8550 C   0  0  0  0  0  2  0  0  0  0  0  0
  191.6330  177.0920  146.5460 F   0  0  0  0  0  0  0  0  0  0  0  0
  186.3810  179.1350  142.2490 C   0  0  0  0  0  2  0  0  0  0  0  0
  185.9780  178.0220  144.4500 C   0  0  0  0  0  0  0  0  0  0  0  0
  189.0300  176.5050  142.4600 C   0  0  0  0  0  2  0  0  0  0  0  0
  189.7020  177.6330  147.8340 C   0  0  0  0  0  3  0  0  0  0  0  0
  187.5150  178.1770  142.0710 C   0  0  0  0  0  0  0  0  0  0  0  0
  188.3030  178.0840  140.8970 N   0  0  0  0  0  0  0  0  0  0  0  0
  185.4870  178.3140  145.6120 N   0  0  0  0  0  0  0  0  0  0  0  0
  187.5300  177.6790  146.7650 C   0  0  0  0  0  0  0  0  0  0  0  0
  188.3200  177.8230  147.9100 C   0  0  0  0  0  3  0  0  0  0  0  0
  190.1380  176.7520  140.1360 C   0  0  0  0  0  0  0  0  0  0  0  0
  190.9250  176.4380  139.3480 N   0  0  0  0  0  0  0  0  0  0  0  0
  184.2260  179.5650  143.4560 C   0  0  0  0  0  2  0  0  0  0  0  0
  181.1240  177.7120  139.5850 C   0  0  0  0  0  0  0  0  0  0  0  0
  183.2560  178.4960  140.5390 C   0  0  0  0  0  3  0  0  0  0  0  0
  180.7540  178.5450  143.0870 N   0  0  0  0  0  0  0  0  0  0  0  0
  181.7930  178.9990  143.7890 N   0  0  0  0  0  0  0  0  0  0  0  0
  180.3670  177.2200  138.4060 C   0  0  0  0  0  1  0  0  0  0  0  0
  182.9000  179.0510  143.0040 C   0  0  0  0  0  0  0  0  0  0  0  0
  182.5020  178.0240  139.4450 C   0  0  0  0  0  2  0  0  0  0  0  0
  181.1960  178.3100  141.8430 C   0  0  0  0  0  0  0  0  0  0  0  0
  182.5760  178.6280  141.7390 C   0  0  0  0  0  0  0  0  0  0  0  0
  180.4820  177.8630  140.7850 N   0  0  0  0  0  0  0  0  0  0  0  0
  1  4  1  6  0  0  0
  1 11  1  0  0  0  0
  1  2  1  0  0  0  0
  2 17  1  0  0  0  0
  3 13  2  0  0  0  0
  5 12  1  0  0  0  0
  6  2  2  0  0  0  0
  6  3  1  0  0  0  0
  7 21  1  1  0  0  0
  7 11  1  0  0  0  0
  9  3  1  0  0  0  0
 10  7  1  0  0  0  0
 11 16  2  0  0  0  0
 12  4  1  0  0  0  0
 13 18  1  0  0  0  0
 14 10  1  0  0  0  0
 14  4  2  0  0  0  0
 15  5  2  0  0  0  0
 15 14  1  0  0  0  0
 16  8  1  0  0  0  0
 17  8  1  0  0  0  0
 17 18  2  0  0  0  0
 19  5  1  0  0  0  0
 20 19  3  0  0  0  0
 22 31  2  0  0  0  0
 23 30  2  0  0  0  0
 24 25  1  0  0  0  0
 26 22  1  0  0  0  0
 27 21  1  0  0  0  0
 27 25  2  0  0  0  0
 28 22  1  0  0  0  0
 28 23  1  0  0  0  0
 29 24  2  0  0  0  0
 30 29  1  0  0  0  0
 30 27  1  0  0  0  0
 31 29  1  0  0  0  0
M  END
>  <MODEL>
3

>  <REMARK>
 VINA RESULT:     -10.0      3.353      6.245
  Name = 
  3 active torsions:
  status: ('A' for Active; 'I' for Inactive)
    1  A    between atoms: C_2  and  C_13
    2  A    between atoms: C_9  and  C_23
    3  A    between atoms: C_15  and  C_23
                            x       y       z     vdW  Elec       q    Type
                         _______ _______ _______ _____ _____    ______ ____

>  <TORSDO>
F 3

$$$$
=
 OpenBabel11052413113D

 31 36  0  0  1  0  0  0  0  0999 V2000
  187.9230  176.9090  143.4860 C   0  0  2  0  0  3  0  0  0  0  0  0
  188.6730  177.1230  144.7860 C   0  0  0  0  0  0  0  0  0  0  0  0
  190.7100  177.1330  146.1140 C   0  0  0  0  0  0  0  0  0  0  0  0
  188.7600  177.1660  142.2520 C   0  0  0  0  0  0  0  0  0  0  0  0
  190.2250  177.0800  140.5140 C   0  0  0  0  0  0  0  0  0  0  0  0
  190.0650  176.9700  144.8850 C   0  0  0  0  0  3  0  0  0  0  0  0
  186.1170  178.2690  142.1520 C   0  0  1  0  0  3  0  0  0  0  0  0
  186.4390  177.4790  145.8670 C   0  0  0  0  0  2  0  0  0  0  0  0
  192.0550  176.9970  146.1950 F   0  0  0  0  0  0  0  0  0  0  0  0
  187.2490  178.9290  141.3590 C   0  0  0  0  0  2  0  0  0  0  0  0
  186.6440  177.7470  143.4750 C   0  0  0  0  0  0  0  0  0  0  0  0
  189.9670  176.4040  141.8240 C   0  0  0  0  0  2  0  0  0  0  0  0
  189.9670  177.4270  147.2600 C   0  0  0  0  0  3  0  0  0  0  0  0
  188.4360  178.0230  141.2950 C   0  0  0  0  0  0  0  0  0  0  0  0
  189.3580  177.9910  140.2180 N   0  0  0  0  0  0  0  0  0  0  0  0
  186.0100  177.9900  144.5780 N   0  0  0  0  0  0  0  0  0  0  0  0
  187.9330  177.4100  145.9480 C   0  0  0  0  0  0  0  0  0  0  0  0
  188.5780  177.5580  147.1790 C   0  0  0  0  0  3  0  0  0  0  0  0
  191.3230  176.7540  139.6490 C   0  0  0  0  0  0  0  0  0  0  0  0
  192.2090  176.4920  138.9520 N   0  0  0  0  0  0  0  0  0  0  0  0
  184.9530  179.2410  142.3160 C   0  0  0  0  0  2  0  0  0  0  0  0
  180.2900  178.5260  139.9100 C   0  0  0  0  0  0  0  0  0  0  0  0
  181.7940  178.6010  141.8600 C   0  0  0  0  0  3  0  0  0  0  0  0
  183.6410  179.4800  138.9320 N   0  0  0  0  0  0  0  0  0  0  0  0
  184.6120  179.5710  139.8410 N   0  0  0  0  0  0  0  0  0  0  0  0
  178.9320  178.2710  139.3650 C   0  0  0  0  0  1  0  0  0  0  0  0
  184.1240  179.2860  141.0760 C   0  0  0  0  0  0  0  0  0  0  0  0
  180.5200  178.3710  141.3030 C   0  0  0  0  0  2  0  0  0  0  0  0
  182.5240  179.1290  139.5870 C   0  0  0  0  0  0  0  0  0  0  0  0
  182.7880  178.9860  140.9750 C   0  0  0  0  0  0  0  0  0  0  0  0
  181.2980  178.9010  139.0630 N   0  0  0  0  0  0  0  0  0  0  0  0
  1  4  1  6  0  0  0
  1  2  1  0  0  0  0
  2  6  2  0  0  0  0
  2 17  1  0  0  0  0
  3  9  1  0  0  0  0
  3 13  2  0  0  0  0
  5 12  1  0  0  0  0
  6  3  1  0  0  0  0
  7 21  1  1  0  0  0
  7 11  1  0  0  0  0
  8 17  1  0  0  0  0
 10  7  1  0  0  0  0
 11  1  1  0  0  0  0
 11 16  2  0  0  0  0
 12  4  1  0  0  0  0
 14 10  1  0  0  0  0
 14  4  2  0  0  0  0
 15  5  2  0  0  0  0
 15 14  1  0  0  0  0
 16  8  1  0  0  0  0
 17 18  2  0  0  0  0
 18 13  1  0  0  0  0
 19  5  1  0  0  0  0
 20 19  3  0  0  0  0
 22 28  1  0  0  0  0
 24 29  2  0  0  0  0
 24 25  1  0  0  0  0
 25 27  2  0  0  0  0
 26 22  1  0  0  0  0
 27 21  1  0  0  0  0
 28 23  1  0  0  0  0
 29 30  1  0  0  0  0
 30 27  1  0  0  0  0
 30 23  2  0  0  0  0
 31 29  1  0  0  0  0
 31 22  2  0  0  0  0
M  END
>  <MODEL>
4

>  <REMARK>
 VINA RESULT:      -9.7      3.314      5.967
  Name = 
  3 active torsions:
  status: ('A' for Active; 'I' for Inactive)
    1  A    between atoms: C_2  and  C_13
    2  A    between atoms: C_9  and  C_23
    3  A    between atoms: C_15  and  C_23
                            x       y       z     vdW  Elec       q    Type
                         _______ _______ _______ _____ _____    ______ ____

>  <TORSDO>
F 3

$$$$
=
 OpenBabel11052413113D

 31 36  0  0  1  0  0  0  0  0999 V2000
  188.8850  178.5560  144.0080 C   0  0  2  0  0  3  0  0  0  0  0  0
  189.4400  177.7620  145.1750 C   0  0  0  0  0  0  0  0  0  0  0  0
  189.2220  176.7210  147.3620 C   0  0  0  0  0  0  0  0  0  0  0  0
  187.3950  178.3840  143.8090 C   0  0  0  0  0  0  0  0  0  0  0  0
  185.1250  178.4540  143.9250 C   0  0  0  0  0  0  0  0  0  0  0  0
  188.6580  177.4160  146.2870 C   0  0  0  0  0  3  0  0  0  0  0  0
  188.9400  178.2840  141.3980 C   0  0  1  0  0  3  0  0  0  0  0  0
  191.6670  177.8810  144.0300 C   0  0  0  0  0  2  0  0  0  0  0  0
  188.4550  176.3810  148.4240 F   0  0  0  0  0  0  0  0  0  0  0  0
  187.6090  177.5300  141.4820 C   0  0  0  0  0  2  0  0  0  0  0  0
  189.6590  178.2220  142.7320 C   0  0  0  0  0  0  0  0  0  0  0  0
  186.3210  178.7930  144.7570 C   0  0  0  0  0  2  0  0  0  0  0  0
  190.5780  176.3880  147.3430 C   0  0  0  0  0  3  0  0  0  0  0  0
  186.8340  177.9770  142.6810 C   0  0  0  0  0  0  0  0  0  0  0  0
  185.4190  177.9960  142.7530 N   0  0  0  0  0  0  0  0  0  0  0  0
  190.9150  177.9100  142.7900 N   0  0  0  0  0  0  0  0  0  0  0  0
  190.8070  177.4290  145.1700 C   0  0  0  0  0  0  0  0  0  0  0  0
  191.3730  176.7480  146.2520 C   0  0  0  0  0  3  0  0  0  0  0  0
  183.7700  178.6230  144.3660 C   0  0  0  0  0  0  0  0  0  0  0  0
  182.6770  178.7590  144.7220 N   0  0  0  0  0  0  0  0  0  0  0  0
  189.7790  177.7420  140.2440 C   0  0  0  0  0  2  0  0  0  0  0  0
  187.4320  176.0820  135.7960 C   0  0  0  0  0  0  0  0  0  0  0  0
  188.4390  175.7750  138.0230 C   0  0  0  0  0  3  0  0  0  0  0  0
  188.4770  179.2500  137.2000 N   0  0  0  0  0  0  0  0  0  0  0  0
  189.0560  179.3010  138.4000 N   0  0  0  0  0  0  0  0  0  0  0  0
  186.8030  175.4770  134.5940 C   0  0  0  0  0  1  0  0  0  0  0  0
  189.1370  178.0550  138.9330 C   0  0  0  0  0  0  0  0  0  0  0  0
  187.8360  175.2410  136.8670 C   0  0  0  0  0  2  0  0  0  0  0  0
  188.1900  177.9620  136.9590 C   0  0  0  0  0  0  0  0  0  0  0  0
  188.6030  177.1500  138.0490 C   0  0  0  0  0  0  0  0  0  0  0  0
  187.6180  177.4380  135.8520 N   0  0  0  0  0  0  0  0  0  0  0  0
  1 11  1  6  0  0  0
  1  2  1  0  0  0  0
  2  6  1  0  0  0  0
  3  9  1  0  0  0  0
  4  1  1  0  0  0  0
  4 12  1  0  0  0  0
  5 19  1  0  0  0  0
  5 12  1  0  0  0  0
  6  3  2  0  0  0  0
  7 21  1  6  0  0  0
  7 10  1  0  0  0  0
  7 11  1  0  0  0  0
  8 17  1  0  0  0  0
 10 14  1  0  0  0  0
 11 16  2  0  0  0  0
 13  3  1  0  0  0  0
 14 15  1  0  0  0  0
 14  4  2  0  0  0  0
 15  5  2  0  0  0  0
 16  8  1  0  0  0  0
 17  2  2  0  0  0  0
 17 18  1  0  0  0  0
 18 13  2  0  0  0  0
 19 20  3  0  0  0  0
 22 31  2  0  0  0  0
 22 28  1  0  0  0  0
 23 30  2  0  0  0  0
 24 25  1  0  0  0  0
 25 27  2  0  0  0  0
 26 22  1  0  0  0  0
 27 21  1  0  0  0  0
 28 23  1  0  0  0  0
 29 24  2  0  0  0  0
 29 30  1  0  0  0  0
 30 27  1  0  0  0  0
 31 29  1  0  0  0  0
M  END
>  <MODEL>
5

>  <REMARK>
 VINA RESULT:      -8.6      2.017      4.440
  Name = 
  3 active torsions:
  status: ('A' for Active; 'I' for Inactive)
    1  A    between atoms: C_2  and  C_13
    2  A    between atoms: C_9  and  C_23
    3  A    between atoms: C_15  and  C_23
                            x       y       z     vdW  Elec       q    Type
                         _______ _______ _______ _____ _____    ______ ____

>  <TORSDO>
F 3

$$$$
=
 OpenBabel11052413113D

 31 36  0  0  1  0  0  0  0  0999 V2000
  187.5970  176.9860  143.1410 C   0  0  2  0  0  3  0  0  0  0  0  0
  188.1990  177.2980  144.4980 C   0  0  0  0  0  0  0  0  0  0  0  0
  190.0890  177.4990  146.0140 C   0  0  0  0  0  0  0  0  0  0  0  0
  188.5320  177.2590  141.9840 C   0  0  0  0  0  0  0  0  0  0  0  0
  190.1650  177.2170  140.4010 C   0  0  0  0  0  0  0  0  0  0  0  0
  189.5810  177.2490  144.7360 C   0  0  0  0  0  3  0  0  0  0  0  0
  185.8440  178.1660  141.5840 C   0  0  1  0  0  3  0  0  0  0  0  0
  185.8490  177.5300  145.3420 C   0  0  0  0  0  2  0  0  0  0  0  0
  191.4250  177.4620  146.2300 F   0  0  0  0  0  0  0  0  0  0  0  0
  187.0010  178.8780  140.8770 C   0  0  0  0  0  2  0  0  0  0  0  0
  186.2710  177.7290  142.9730 C   0  0  0  0  0  0  0  0  0  0  0  0
  189.8250  176.5710  141.7060 C   0  0  0  0  0  2  0  0  0  0  0  0
  189.2180  177.7790  147.0700 C   0  0  0  0  0  3  0  0  0  0  0  0
  188.2480  178.0570  140.9650 C   0  0  0  0  0  0  0  0  0  0  0  0
  189.2710  178.0540  139.9850 N   0  0  0  0  0  0  0  0  0  0  0  0
  185.5170  177.9640  143.9990 N   0  0  0  0  0  0  0  0  0  0  0  0
  187.3290  177.5720  145.5700 C   0  0  0  0  0  0  0  0  0  0  0  0
  187.8380  177.8080  146.8500 C   0  0  0  0  0  3  0  0  0  0  0  0
  191.3630  176.9420  139.6600 C   0  0  0  0  0  0  0  0  0  0  0  0
  192.3290  176.7200  139.0630 N   0  0  0  0  0  0  0  0  0  0  0  0
  184.6060  179.0580  141.5950 C   0  0  0  0  0  2  0  0  0  0  0  0
  181.0270  179.6680  137.7400 C   0  0  0  0  0  0  0  0  0  0  0  0
  182.8730  180.4080  139.1930 C   0  0  0  0  0  3  0  0  0  0  0  0
  182.0560  177.0230  139.9860 N   0  0  0  0  0  0  0  0  0  0  0  0
  183.0400  177.2240  140.8630 N   0  0  0  0  0  0  0  0  0  0  0  0
  180.0590  179.9840  136.6590 C   0  0  0  0  0  1  0  0  0  0  0  0
  183.5330  178.4820  140.7320 C   0  0  0  0  0  0  0  0  0  0  0  0
  181.9400  180.6670  138.1690 C   0  0  0  0  0  2  0  0  0  0  0  0
  181.9140  178.1610  139.2910 C   0  0  0  0  0  0  0  0  0  0  0  0
  182.8440  179.1360  139.7410 C   0  0  0  0  0  0  0  0  0  0  0  0
  181.0200  178.4230  138.3100 N   0  0  0  0  0  0  0  0  0  0  0  0
  1  4  1  6  0  0  0
  1  2  1  0  0  0  0
  2  6  2  0  0  0  0
  2 17  1  0  0  0  0
  3  9  1  0  0  0  0
  3 13  2  0  0  0  0
  5 12  1  0  0  0  0
  6  3  1  0  0  0  0
  7 21  1  1  0  0  0
  7 11  1  0  0  0  0
  8 17  1  0  0  0  0
 10 14  1  0  0  0  0
 10  7  1  0  0  0  0
 11  1  1  0  0  0  0
 11 16  2  0  0  0  0
 12  4  1  0  0  0  0
 14  4  2  0  0  0  0
 15  5  2  0  0  0  0
 15 14  1  0  0  0  0
 16  8  1  0  0  0  0
 17 18  2  0  0  0  0
 18 13  1  0  0  0  0
 19  5  1  0  0  0  0
 20 19  3  0  0  0  0
 22 28  1  0  0  0  0
 22 31  2  0  0  0  0
 23 30  2  0  0  0  0
 24 25  1  0  0  0  0
 26 22  1  0  0  0  0
 27 25  2  0  0  0  0
 27 21  1  0  0  0  0
 28 23  1  0  0  0  0
 29 30  1  0  0  0  0
 29 24  2  0  0  0  0
 30 27  1  0  0  0  0
 31 29  1  0  0  0  0
M  END
>  <MODEL>
6

>  <REMARK>
 VINA RESULT:      -8.6      3.568      5.746
  Name = 
  3 active torsions:
  status: ('A' for Active; 'I' for Inactive)
    1  A    between atoms: C_2  and  C_13
    2  A    between atoms: C_9  and  C_23
    3  A    between atoms: C_15  and  C_23
                            x       y       z     vdW  Elec       q    Type
                         _______ _______ _______ _____ _____    ______ ____

>  <TORSDO>
F 3

$$$$
=
 OpenBabel11052413113D

 31 36  0  0  1  0  0  0  0  0999 V2000
  187.1550  178.6270  141.4590 C   0  0  2  0  0  3  0  0  0  0  0  0
  186.0410  178.5090  140.4380 C   0  0  0  0  0  0  0  0  0  0  0  0
  185.2340  178.2130  138.1630 C   0  0  0  0  0  0  0  0  0  0  0  0
  188.4060  177.8610  141.0860 C   0  0  0  0  0  0  0  0  0  0  0  0
  190.3600  177.1170  140.1920 C   0  0  0  0  0  0  0  0  0  0  0  0
  186.2900  178.2690  139.0780 C   0  0  0  0  0  3  0  0  0  0  0  0
  187.6100  177.5820  143.8240 C   0  0  1  0  0  3  0  0  0  0  0  0
  184.4540  179.0760  142.2950 C   0  0  0  0  0  2  0  0  0  0  0  0
  185.4850  177.9680  136.8560 F   0  0  0  0  0  0  0  0  0  0  0  0
  188.3930  176.4580  143.1400 C   0  0  0  0  0  2  0  0  0  0  0  0
  186.6450  178.2180  142.8420 C   0  0  0  0  0  0  0  0  0  0  0  0
  189.2870  178.1200  139.9120 C   0  0  0  0  0  3  0  0  0  0  0  0
  183.9220  178.4200  138.5970 C   0  0  0  0  0  3  0  0  0  0  0  0
  188.9740  176.9400  141.8490 C   0  0  1  0  0  3  0  0  0  0  0  0
  190.1810  176.4540  141.2870 N   0  0  0  0  0  0  0  0  0  0  0  0
  185.4110  178.4300  143.1740 N   0  0  0  0  0  0  0  0  0  0  0  0
  184.7170  178.7240  140.8630 C   0  0  0  0  0  0  0  0  0  0  0  0
  183.6630  178.6830  139.9450 C   0  0  0  0  0  3  0  0  0  0  0  0
  191.4960  176.9020  139.3400 C   0  0  0  0  0  0  0  0  0  0  0  0
  192.4100  176.7270  138.6530 N   0  0  0  0  0  0  0  0  0  0  0  0
  186.9210  177.0550  145.0790 C   0  0  0  0  0  2  0  0  0  0  0  0
  191.2740  177.1880  148.0930 C   0  0  0  0  0  0  0  0  0  0  0  0
  189.9780  176.5750  146.0890 C   0  0  0  0  0  3  0  0  0  0  0  0
  187.8990  178.4820  148.2790 N   0  0  0  0  0  0  0  0  0  0  0  0
  187.0300  178.2530  147.2940 N   0  0  0  0  0  0  0  0  0  0  0  0
  192.5540  177.1270  148.8430 C   0  0  0  0  0  1  0  0  0  0  0  0
  187.6230  177.5330  146.3060 C   0  0  0  0  0  0  0  0  0  0  0  0
  191.1760  176.5430  146.8310 C   0  0  0  0  0  2  0  0  0  0  0  0
  189.0550  177.9010  147.9240 C   0  0  0  0  0  0  0  0  0  0  0  0
  188.9240  177.2700  146.6580 C   0  0  0  0  0  0  0  0  0  0  0  0
  190.2080  177.8590  148.6290 N   0  0  0  0  0  0  0  0  0  0  0  0
  1  2  1  6  0  0  0
  1 11  1  0  0  0  0
  2 17  1  0  0  0  0
  3 13  2  0  0  0  0
  3  6  1  0  0  0  0
  4  1  1  0  0  0  0
  4 14  1  0  0  0  0
  5 15  2  0  0  0  0
  6  2  2  0  0  0  0
  7 21  1  1  0  0  0
  8 16  1  0  0  0  0
  9  3  1  0  0  0  0
 10  7  1  0  0  0  0
 11 16  2  0  0  0  0
 11  7  1  0  0  0  0
 12  5  1  0  0  0  0
 12  4  2  0  0  0  0
 13 18  1  0  0  0  0
 14 10  1  6  0  0  0
 15 14  1  0  0  0  0
 17  8  1  0  0  0  0
 18 17  2  0  0  0  0
 19  5  1  0  0  0  0
 20 19  3  0  0  0  0
 21 27  1  0  0  0  0
 22 31  2  0  0  0  0
 22 26  1  0  0  0  0
 23 30  2  0  0  0  0
 23 28  1  0  0  0  0
 25 24  1  0  0  0  0
 27 30  1  0  0  0  0
 27 25  2  0  0  0  0
 28 22  1  0  0  0  0
 29 24  2  0  0  0  0
 29 31  1  0  0  0  0
 30 29  1  0  0  0  0
M  END
>  <MODEL>
7

>  <REMARK>
 VINA RESULT:      -8.4      3.009      7.688
  Name = 
  3 active torsions:
  status: ('A' for Active; 'I' for Inactive)
    1  A    between atoms: C_2  and  C_13
    2  A    between atoms: C_9  and  C_23
    3  A    between atoms: C_15  and  C_23
                            x       y       z     vdW  Elec       q    Type
                         _______ _______ _______ _____ _____    ______ ____

>  <TORSDO>
F 3

$$$$
=
 OpenBabel11052413113D

 31 36  0  0  1  0  0  0  0  0999 V2000
  189.1760  178.4500  140.7640 C   0  0  2  0  0  3  0  0  0  0  0  0
  189.8280  177.6830  139.6310 C   0  0  0  0  0  0  0  0  0  0  0  0
  191.6060  176.2970  138.7190 C   0  0  0  0  0  0  0  0  0  0  0  0
  189.4730  177.8810  142.1340 C   0  0  0  0  0  0  0  0  0  0  0  0
  190.3890  177.2610  144.1210 C   0  0  0  0  0  0  0  0  0  0  0  0
  191.0140  176.9530  139.8030 C   0  0  0  0  0  3  0  0  0  0  0  0
  186.7350  178.6160  141.7160 C   0  0  1  0  0  3  0  0  0  0  0  0
  188.0490  178.6280  138.1380 C   0  0  0  0  0  2  0  0  0  0  0  0
  192.7430  175.5850  138.8990 F   0  0  0  0  0  0  0  0  0  0  0  0
  187.0820  177.5010  142.7070 C   0  0  0  0  0  2  0  0  0  0  0  0
  187.6700  178.5620  140.5220 C   0  0  0  0  0  0  0  0  0  0  0  0
  190.8080  177.8030  142.7920 C   0  0  0  0  0  3  0  0  0  0  0  0
  191.0290  176.3850  137.4490 C   0  0  0  0  0  3  0  0  0  0  0  0
  188.5470  177.5080  143.0050 C   0  0  1  0  0  3  0  0  0  0  0  0
  189.1120  177.0980  144.2390 N   0  0  0  0  0  0  0  0  0  0  0  0
  187.2020  178.6280  139.3160 N   0  0  0  0  0  0  0  0  0  0  0  0
  189.2600  177.7720  138.3460 C   0  0  0  0  0  0  0  0  0  0  0  0
  189.8610  177.1280  137.2610 C   0  0  0  0  0  3  0  0  0  0  0  0
  191.3030  176.9530  145.1840 C   0  0  0  0  0  0  0  0  0  0  0  0
  192.0410  176.7040  146.0400 N   0  0  0  0  0  0  0  0  0  0  0  0
  185.2620  178.5320  141.3240 C   0  0  0  0  0  2  0  0  0  0  0  0
  180.4170  178.8970  143.4280 C   0  0  0  0  0  0  0  0  0  0  0  0
  182.0180  178.5850  141.5820 C   0  0  0  0  0  3  0  0  0  0  0  0
  183.8270  179.0080  144.6320 N   0  0  0  0  0  0  0  0  0  0  0  0
  184.8490  178.8680  143.7870 N   0  0  0  0  0  0  0  0  0  0  0  0
  179.0050  179.0020  143.8780 C   0  0  0  0  0  1  0  0  0  0  0  0
  184.3880  178.6710  142.5250 C   0  0  0  0  0  0  0  0  0  0  0  0
  180.6930  178.6880  142.0500 C   0  0  0  0  0  2  0  0  0  0  0  0
  182.7040  178.9070  143.9070 C   0  0  0  0  0  0  0  0  0  0  0  0
  183.0160  178.6940  142.5370 C   0  0  0  0  0  0  0  0  0  0  0  0
  181.4280  179.0090  144.3440 N   0  0  0  0  0  0  0  0  0  0  0  0
  1  2  1  6  0  0  0
  1  4  1  0  0  0  0
  2  6  1  0  0  0  0
  3  9  1  0  0  0  0
  3  6  2  0  0  0  0
  4 12  2  0  0  0  0
  4 14  1  0  0  0  0
  5 15  2  0  0  0  0
  5 19  1  0  0  0  0
  7 21  1  6  0  0  0
  7 10  1  0  0  0  0
  8 17  1  0  0  0  0
  8 16  1  0  0  0  0
 11  1  1  0  0  0  0
 11  7  1  0  0  0  0
 12  5  1  0  0  0  0
 13  3  1  0  0  0  0
 14 10  1  6  0  0  0
 14 15  1  0  0  0  0
 16 11  2  0  0  0  0
 17  2  2  0  0  0  0
 18 13  2  0  0  0  0
 18 17  1  0  0  0  0
 19 20  3  0  0  0  0
 21 27  1  0  0  0  0
 22 26  1  0  0  0  0
 22 31  2  0  0  0  0
 23 28  1  0  0  0  0
 23 30  2  0  0  0  0
 25 24  1  0  0  0  0
 27 30  1  0  0  0  0
 27 25  2  0  0  0  0
 28 22  1  0  0  0  0
 29 31  1  0  0  0  0
 29 24  2  0  0  0  0
 30 29  1  0  0  0  0
M  END
>  <MODEL>
8

>  <REMARK>
 VINA RESULT:      -8.0      3.385      7.124
  Name = 
  3 active torsions:
  status: ('A' for Active; 'I' for Inactive)
    1  A    between atoms: C_2  and  C_13
    2  A    between atoms: C_9  and  C_23
    3  A    between atoms: C_15  and  C_23
                            x       y       z     vdW  Elec       q    Type
                         _______ _______ _______ _____ _____    ______ ____

>  <TORSDO>
F 3

$$$$
=
 OpenBabel11052413113D

 31 36  0  0  1  0  0  0  0  0999 V2000
  184.8870  179.1030  142.3920 C   0  0  2  0  0  3  0  0  0  0  0  0
  183.6540  178.6520  141.6330 C   0  0  0  0  0  0  0  0  0  0  0  0
  182.5170  177.9660  139.5960 C   0  0  0  0  0  0  0  0  0  0  0  0
  186.1830  178.5800  141.8110 C   0  0  0  0  0  0  0  0  0  0  0  0
  188.0480  178.1730  140.5750 C   0  0  0  0  0  0  0  0  0  0  0  0
  183.6870  178.3340  140.2670 C   0  0  0  0  0  3  0  0  0  0  0  0
  186.0060  178.4200  144.6660 C   0  0  1  0  0  3  0  0  0  0  0  0
  182.3640  179.0620  143.7440 C   0  0  0  0  0  2  0  0  0  0  0  0
  182.5630  177.6480  138.2810 F   0  0  0  0  0  0  0  0  0  0  0  0
  186.8770  177.4200  143.8990 C   0  0  0  0  0  2  0  0  0  0  0  0
  184.7540  178.7380  143.8710 C   0  0  0  0  0  0  0  0  0  0  0  0
  186.7440  178.8970  140.4670 C   0  0  0  0  0  3  0  0  0  0  0  0
  181.2990  177.9380  140.2810 C   0  0  0  0  0  3  0  0  0  0  0  0
  187.0780  177.8800  142.4910 C   0  0  1  0  0  3  0  0  0  0  0  0
  188.2340  177.6020  141.7190 N   0  0  0  0  0  0  0  0  0  0  0  0
  183.5910  178.7210  144.4400 N   0  0  0  0  0  0  0  0  0  0  0  0
  182.4210  178.6290  142.3110 C   0  0  0  0  0  0  0  0  0  0  0  0
  181.2490  178.2760  141.6360 C   0  0  0  0  0  3  0  0  0  0  0  0
  189.0200  178.1140  139.5190 C   0  0  0  0  0  0  0  0  0  0  0  0
  189.8020  178.0660  138.6680 N   0  0  0  0  0  0  0  0  0  0  0  0
  185.7050  177.8910  146.0650 C   0  0  0  0  0  2  0  0  0  0  0  0
  190.7850  176.7780  147.0630 C   0  0  0  0  0  0  0  0  0  0  0  0
  188.7330  176.7530  145.7010 C   0  0  0  0  0  3  0  0  0  0  0  0
  188.0980  178.5410  148.7270 N   0  0  0  0  0  0  0  0  0  0  0  0
  186.8960  178.6360  148.1580 N   0  0  0  0  0  0  0  0  0  0  0  0
  192.2070  176.3780  147.2230 C   0  0  0  0  0  1  0  0  0  0  0  0
  186.9020  178.0210  146.9470 C   0  0  0  0  0  0  0  0  0  0  0  0
  190.0840  176.3960  145.8890 C   0  0  0  0  0  2  0  0  0  0  0  0
  188.8790  177.8560  147.8780 C   0  0  0  0  0  0  0  0  0  0  0  0
  188.1480  177.4930  146.7150 C   0  0  0  0  0  0  0  0  0  0  0  0
  190.1730  177.5030  148.0500 N   0  0  0  0  0  0  0  0  0  0  0  0
  1  2  1  6  0  0  0
  1 11  1  0  0  0  0
  2 17  1  0  0  0  0
  3  6  1  0  0  0  0
  3 13  2  0  0  0  0
  4  1  1  0  0  0  0
  4 14  1  0  0  0  0
  5 15  2  0  0  0  0
  6  2  2  0  0  0  0
  7 21  1  1  0  0  0
  8 16  1  0  0  0  0
  9  3  1  0  0  0  0
 10  7  1  0  0  0  0
 11 16  2  0  0  0  0
 11  7  1  0  0  0  0
 12  5  1  0  0  0  0
 12  4  2  0  0  0  0
 13 18  1  0  0  0  0
 14 10  1  6  0  0  0
 15 14  1  0  0  0  0
 17  8  1  0  0  0  0
 18 17  2  0  0  0  0
 19  5  1  0  0  0  0
 20 19  3  0  0  0  0
 21 27  1  0  0  0  0
 22 26  1  0  0  0  0
 22 31  2  0  0  0  0
 23 28  1  0  0  0  0
 23 30  2  0  0  0  0
 25 24  1  0  0  0  0
 27 25  2  0  0  0  0
 28 22  1  0  0  0  0
 29 31  1  0  0  0  0
 29 24  2  0  0  0  0
 30 27  1  0  0  0  0
 30 29  1  0  0  0  0
M  END
>  <MODEL>
9

>  <REMARK>
 VINA RESULT:      -7.9      3.183      7.692
  Name = 
  3 active torsions:
  status: ('A' for Active; 'I' for Inactive)
    1  A    between atoms: C_2  and  C_13
    2  A    between atoms: C_9  and  C_23
    3  A    between atoms: C_15  and  C_23
                            x       y       z     vdW  Elec       q    Type
                         _______ _______ _______ _____ _____    ______ ____

>  <TORSDO>
F 3

$$$$
