=
 OpenBabel11052414233D

 34 37  0  0  1  0  0  0  0  0999 V2000
  181.2050  180.5620  139.3070 C   0  0  2  0  0  3  0  0  0  0  0  0
  180.3020  178.2180  139.7010 C   0  0  1  0  0  3  0  0  0  0  0  0
  182.7700  178.5460  139.1710 C   0  0  1  0  0  3  0  0  0  0  0  0
  179.0980  180.3720  140.0890 C   0  0  0  0  0  2  0  0  0  0  0  0
  178.9310  178.8960  139.7390 C   0  0  0  0  0  2  0  0  0  0  0  0
  182.1080  178.1970  141.5300 C   0  0  0  0  0  3  0  0  0  0  0  0
  181.3410  179.0710  138.9300 C   0  0  2  0  0  3  0  0  0  0  0  0
  179.8810  180.9960  139.1060 O   0  0  0  0  0  0  0  0  0  0  0  0
  180.7230  177.7720  141.1140 C   0  0  0  0  0  2  0  0  0  0  0  0
  183.0710  178.5040  140.6470 C   0  0  0  0  0  0  0  0  0  0  0  0
  184.4020  177.0810  137.9520 N   0  0  0  0  0  0  0  0  0  0  0  0
  185.9740  175.7390  136.8520 O   0  0  0  0  0  0  0  0  0  0  0  0
  184.1000  174.5450  137.7040 C   0  0  0  0  0  2  0  0  0  0  0  0
  182.7500  174.7550  135.5650 C   0  0  0  0  0  1  0  0  0  0  0  0
  183.0490  177.1800  138.5140 C   0  0  2  0  0  3  0  0  0  0  0  0
  184.8780  175.8110  137.4710 C   0  0  0  0  0  0  0  0  0  0  0  0
  181.7520  175.5360  137.7610 C   0  0  0  0  0  2  0  0  0  0  0  0
  182.7030  174.5520  137.0750 C   0  0  2  0  0  3  0  0  0  0  0  0
  182.1170  176.8670  137.5150 O   0  0  0  0  0  0  0  0  0  0  0  0
  185.2310  178.2660  137.7480 C   0  0  0  0  0  1  0  0  0  0  0  0
  182.1280  181.4000  138.4800 C   0  0  0  0  0  3  0  0  0  0  0  0
  181.7490  182.4620  138.0160 O   0  0  0  0  0  0  0  0  0  0  0  0
  184.4020  178.9900  141.1410 C   0  0  0  0  0  2  0  0  0  0  0  0
  184.7210  178.4950  142.5520 C   0  0  2  0  0  3  0  0  0  0  0  0
  184.7030  179.6740  143.5030 C   0  0  0  0  0  1  0  0  0  0  0  0
  186.0890  177.8340  142.6180 C   0  0  0  0  0  2  0  0  0  0  0  0
  186.7100  177.9900  143.9950 C   0  0  0  0  0  2  0  0  0  0  0  0
  187.7480  177.5700  146.7790 C   0  0  0  0  0  1  0  0  0  0  0  0
  187.6120  176.8070  144.3500 C   0  0  2  0  0  3  0  0  0  0  0  0
  188.5170  177.1010  145.5580 C   0  0  1  0  0  3  0  0  0  0  0  0
  190.3900  177.5790  144.1350 O   0  0  0  0  0  0  0  0  0  0  0  0
  189.5870  177.5270  142.9770 C   0  0  0  0  0  2  0  0  0  0  0  0
  188.4880  176.4690  143.1400 C   0  0  0  0  0  2  0  0  0  0  0  0
  189.5950  178.1110  145.1660 C   0  0  0  0  0  2  0  0  0  0  0  0
  1 21  1  6  0  0  0
  2  5  1  1  0  0  0
  2  9  1  0  0  0  0
  3 10  1  1  0  0  0
  5  4  1  0  0  0  0
  7  3  1  0  0  0  0
  7  1  1  0  0  0  0
  7  2  1  0  0  0  0
  8  1  1  0  0  0  0
  8  4  1  0  0  0  0
  9  6  1  0  0  0  0
 10 23  1  0  0  0  0
 10  6  2  0  0  0  0
 11 15  1  0  0  0  0
 12 16  2  0  0  0  0
 14 18  1  0  0  0  0
 15  3  1  0  0  0  0
 16 13  1  0  0  0  0
 16 11  1  0  0  0  0
 18 13  1  0  0  0  0
 18 17  1  0  0  0  0
 19 17  1  0  0  0  0
 19 15  1  0  0  0  0
 20 11  1  0  0  0  0
 22 21  2  0  0  0  0
 23 24  1  0  0  0  0
 24 26  1  0  0  0  0
 24 25  1  0  0  0  0
 26 27  1  0  0  0  0
 27 29  1  0  0  0  0
 29 30  1  0  0  0  0
 30 28  1  0  0  0  0
 31 34  1  0  0  0  0
 32 33  1  0  0  0  0
 32 31  1  0  0  0  0
 33 29  1  0  0  0  0
 34 30  1  0  0  0  0
M  END
>  <MODEL>
1

>  <REMARK>
 VINA RESULT:      -6.7      0.000      0.000
  Name = 
  7 active torsions:
  status: ('A' for Active; 'I' for Inactive)
    1  A    between atoms: C_1  and  C_24
    2  A    between atoms: C_3  and  C_13
    3  A    between atoms: C_3  and  C_17
    4  A    between atoms: C_4  and  C_21
    5  A    between atoms: C_5  and  C_18
    6  A    between atoms: C_5  and  C_31
    7  A    between atoms: C_17  and  C_18
                            x       y       z     vdW  Elec       q    Type
                         _______ _______ _______ _____ _____    ______ ____

>  <TORSDO>
F 7

$$$$
=
 OpenBabel11052414233D

 34 37  0  0  1  0  0  0  0  0999 V2000
  190.1710  175.7990  136.7110 C   0  0  2  0  0  3  0  0  0  0  0  0
  188.5770  177.5450  135.7750 C   0  0  1  0  0  3  0  0  0  0  0  0
  187.9560  176.2780  137.8930 C   0  0  1  0  0  3  0  0  0  0  0  0
  190.9220  177.1060  135.0330 C   0  0  0  0  0  2  0  0  0  0  0  0
  189.5480  177.6070  134.5940 C   0  0  0  0  0  2  0  0  0  0  0  0
  188.8650  178.5690  138.1150 C   0  0  0  0  0  3  0  0  0  0  0  0
  188.6900  176.2030  136.5400 C   0  0  2  0  0  3  0  0  0  0  0  0
  190.8150  175.7730  135.4600 O   0  0  0  0  0  0  0  0  0  0  0  0
  188.6960  178.8160  136.6380 C   0  0  0  0  0  2  0  0  0  0  0  0
  188.4810  177.4300  138.7110 C   0  0  0  0  0  0  0  0  0  0  0  0
  185.8130  175.0590  137.4240 N   0  0  0  0  0  0  0  0  0  0  0  0
  183.8390  173.8680  137.0170 O   0  0  0  0  0  0  0  0  0  0  0  0
  183.5020  176.0080  138.0030 C   0  0  0  0  0  2  0  0  0  0  0  0
  183.2610  177.2070  135.7790 C   0  0  0  0  0  1  0  0  0  0  0  0
  186.4210  176.3510  137.7650 C   0  0  2  0  0  3  0  0  0  0  0  0
  184.3810  174.9210  137.4500 C   0  0  0  0  0  0  0  0  0  0  0  0
  184.9760  178.0160  137.4620 C   0  0  0  0  0  2  0  0  0  0  0  0
  183.6180  177.3390  137.2550 C   0  0  2  0  0  3  0  0  0  0  0  0
  186.0090  177.3090  136.8300 O   0  0  0  0  0  0  0  0  0  0  0  0
  186.6190  173.9440  136.9310 C   0  0  0  0  0  1  0  0  0  0  0  0
  190.2770  174.4490  137.3460 C   0  0  0  0  0  3  0  0  0  0  0  0
  191.2500  174.1590  138.0220 O   0  0  0  0  0  0  0  0  0  0  0  0
  188.7510  177.2310  140.1740 C   0  0  0  0  0  2  0  0  0  0  0  0
  188.2550  178.3990  141.0270 C   0  0  2  0  0  3  0  0  0  0  0  0
  188.7540  178.2180  142.4460 C   0  0  0  0  0  1  0  0  0  0  0  0
  186.7370  178.4730  141.0470 C   0  0  0  0  0  2  0  0  0  0  0  0
  186.2280  178.9840  142.3840 C   0  0  0  0  0  2  0  0  0  0  0  0
  183.3210  178.5520  141.7750 C   0  0  0  0  0  1  0  0  0  0  0  0
  185.3980  177.9300  143.1180 C   0  0  2  0  0  3  0  0  0  0  0  0
  183.9010  178.2800  143.1510 C   0  0  1  0  0  3  0  0  0  0  0  0
  184.0710  179.1200  145.3930 O   0  0  0  0  0  0  0  0  0  0  0  0
  185.4770  179.0200  145.3770 C   0  0  0  0  0  2  0  0  0  0  0  0
  185.9140  177.8020  144.5540 C   0  0  0  0  0  2  0  0  0  0  0  0
  183.6660  179.4620  144.0910 C   0  0  0  0  0  2  0  0  0  0  0  0
  1 21  1  6  0  0  0
  2  5  1  6  0  0  0
  2  7  1  0  0  0  0
  2  9  1  0  0  0  0
  3 10  1  6  0  0  0
  4  8  1  0  0  0  0
  5  4  1  0  0  0  0
  6 10  2  0  0  0  0
  7  1  1  0  0  0  0
  7  3  1  0  0  0  0
  8  1  1  0  0  0  0
  9  6  1  0  0  0  0
 10 23  1  0  0  0  0
 11 16  1  0  0  0  0
 11 15  1  0  0  0  0
 12 16  2  0  0  0  0
 14 18  1  0  0  0  0
 15  3  1  0  0  0  0
 16 13  1  0  0  0  0
 18 17  1  0  0  0  0
 18 13  1  0  0  0  0
 19 17  1  0  0  0  0
 19 15  1  0  0  0  0
 20 11  1  0  0  0  0
 21 22  2  0  0  0  0
 23 24  1  0  0  0  0
 24 26  1  0  0  0  0
 24 25  1  0  0  0  0
 26 27  1  0  0  0  0
 27 29  1  0  0  0  0
 28 30  1  0  0  0  0
 29 30  1  0  0  0  0
 29 33  1  0  0  0  0
 30 34  1  0  0  0  0
 32 31  1  0  0  0  0
 33 32  1  0  0  0  0
 34 31  1  0  0  0  0
M  END
>  <MODEL>
2

>  <REMARK>
 VINA RESULT:      -5.6      3.340      6.833
  Name = 
  7 active torsions:
  status: ('A' for Active; 'I' for Inactive)
    1  A    between atoms: C_1  and  C_24
    2  A    between atoms: C_3  and  C_13
    3  A    between atoms: C_3  and  C_17
    4  A    between atoms: C_4  and  C_21
    5  A    between atoms: C_5  and  C_18
    6  A    between atoms: C_5  and  C_31
    7  A    between atoms: C_17  and  C_18
                            x       y       z     vdW  Elec       q    Type
                         _______ _______ _______ _____ _____    ______ ____

>  <TORSDO>
F 7

$$$$
=
 OpenBabel11052414233D

 34 37  0  0  1  0  0  0  0  0999 V2000
  182.7900  178.4010  141.7840 C   0  0  2  0  0  3  0  0  0  0  0  0
  180.4080  179.2130  141.4240 C   0  0  1  0  0  3  0  0  0  0  0  0
  181.6870  178.1660  139.4900 C   0  0  1  0  0  3  0  0  0  0  0  0
  181.6090  179.0130  143.6050 C   0  0  0  0  0  2  0  0  0  0  0  0
  180.5240  179.7710  142.8440 C   0  0  0  0  0  2  0  0  0  0  0  0
  180.0440  176.7720  140.7070 C   0  0  0  0  0  3  0  0  0  0  0  0
  181.7990  179.0140  140.7710 C   0  0  2  0  0  3  0  0  0  0  0  0
  182.8400  179.1840  142.9510 O   0  0  0  0  0  0  0  0  0  0  0  0
  179.4790  177.9850  141.4010 C   0  0  0  0  0  2  0  0  0  0  0  0
  181.0210  176.8470  139.7900 C   0  0  0  0  0  0  0  0  0  0  0  0
  181.5830  178.5940  137.0190 N   0  0  0  0  0  0  0  0  0  0  0  0
  181.5030  178.9310  134.7040 O   0  0  0  0  0  0  0  0  0  0  0  0
  179.5430  179.6300  135.8590 C   0  0  0  0  0  2  0  0  0  0  0  0
  180.3590  182.0090  136.1980 C   0  0  0  0  0  1  0  0  0  0  0  0
  180.9790  178.8860  138.3250 C   0  0  2  0  0  3  0  0  0  0  0  0
  180.9260  179.0410  135.8200 C   0  0  0  0  0  0  0  0  0  0  0  0
  179.6160  180.6400  138.1990 C   0  0  0  0  0  2  0  0  0  0  0  0
  179.4370  180.9050  136.7010 C   0  0  2  0  0  3  0  0  0  0  0  0
  180.9340  180.2750  138.5060 O   0  0  0  0  0  0  0  0  0  0  0  0
  182.9010  177.9740  136.9110 C   0  0  0  0  0  1  0  0  0  0  0  0
  184.1610  178.3150  141.1910 C   0  0  0  0  0  3  0  0  0  0  0  0
  184.8050  179.3270  140.9720 O   0  0  0  0  0  0  0  0  0  0  0  0
  181.5810  175.5870  139.1990 C   0  0  0  0  0  2  0  0  0  0  0  0
  180.7260  175.0450  138.0530 C   0  0  2  0  0  3  0  0  0  0  0  0
  179.8660  173.9110  138.5740 C   0  0  0  0  0  1  0  0  0  0  0  0
  181.5840  174.5240  136.9120 C   0  0  0  0  0  2  0  0  0  0  0  0
  183.0380  174.3900  137.3320 C   0  0  0  0  0  2  0  0  0  0  0  0
  183.7240  171.4960  136.9360 C   0  0  0  0  0  1  0  0  0  0  0  0
  183.9240  173.9220  136.1770 C   0  0  2  0  0  3  0  0  0  0  0  0
  184.6570  172.6090  136.4950 C   0  0  1  0  0  3  0  0  0  0  0  0
  186.6810  173.7810  137.0350 O   0  0  0  0  0  0  0  0  0  0  0  0
  186.0330  175.0320  136.9620 C   0  0  0  0  0  2  0  0  0  0  0  0
  184.9560  175.0100  135.8700 C   0  0  0  0  0  2  0  0  0  0  0  0
  185.7450  172.8610  137.5390 C   0  0  0  0  0  2  0  0  0  0  0  0
  1 21  1  6  0  0  0
  1  8  1  0  0  0  0
  2  9  1  1  0  0  0
  2  5  1  0  0  0  0
  3 10  1  1  0  0  0
  3  7  1  0  0  0  0
  5  4  1  0  0  0  0
  6  9  1  0  0  0  0
  7  2  1  0  0  0  0
  7  1  1  0  0  0  0
  8  4  1  0  0  0  0
 10  6  2  0  0  0  0
 11 15  1  0  0  0  0
 12 16  2  0  0  0  0
 13 18  1  0  0  0  0
 14 18  1  0  0  0  0
 15 19  1  0  0  0  0
 15  3  1  0  0  0  0
 16 13  1  0  0  0  0
 16 11  1  0  0  0  0
 17 19  1  0  0  0  0
 18 17  1  0  0  0  0
 20 11  1  0  0  0  0
 22 21  2  0  0  0  0
 23 10  1  0  0  0  0
 24 25  1  0  0  0  0
 24 23  1  0  0  0  0
 26 27  1  0  0  0  0
 26 24  1  0  0  0  0
 29 30  1  0  0  0  0
 29 27  1  0  0  0  0
 30 28  1  0  0  0  0
 30 34  1  0  0  0  0
 31 34  1  0  0  0  0
 32 31  1  0  0  0  0
 33 29  1  0  0  0  0
 33 32  1  0  0  0  0
M  END
>  <MODEL>
3

>  <REMARK>
 VINA RESULT:      -5.4      3.283      6.383
  Name = 
  7 active torsions:
  status: ('A' for Active; 'I' for Inactive)
    1  A    between atoms: C_1  and  C_24
    2  A    between atoms: C_3  and  C_13
    3  A    between atoms: C_3  and  C_17
    4  A    between atoms: C_4  and  C_21
    5  A    between atoms: C_5  and  C_18
    6  A    between atoms: C_5  and  C_31
    7  A    between atoms: C_17  and  C_18
                            x       y       z     vdW  Elec       q    Type
                         _______ _______ _______ _____ _____    ______ ____

>  <TORSDO>
F 7

$$$$
=
 OpenBabel11052414233D

 34 37  0  0  1  0  0  0  0  0999 V2000
  186.7740  178.1790  137.9070 C   0  0  2  0  0  3  0  0  0  0  0  0
  188.2130  176.9780  136.1890 C   0  0  1  0  0  3  0  0  0  0  0  0
  185.7880  176.2780  136.5120 C   0  0  1  0  0  3  0  0  0  0  0  0
  188.7990  179.0580  137.4420 C   0  0  0  0  0  2  0  0  0  0  0  0
  189.3610  177.8120  136.7620 C   0  0  0  0  0  2  0  0  0  0  0  0
  186.3470  177.7380  134.5940 C   0  0  0  0  0  3  0  0  0  0  0  0
  187.0490  176.8340  137.2010 C   0  0  2  0  0  3  0  0  0  0  0  0
  187.9550  178.6700  138.4940 O   0  0  0  0  0  0  0  0  0  0  0  0
  187.8200  177.4900  134.7900 C   0  0  0  0  0  2  0  0  0  0  0  0
  185.4020  177.1480  135.3430 C   0  0  0  0  0  0  0  0  0  0  0  0
  184.9470  173.9260  136.7550 N   0  0  0  0  0  0  0  0  0  0  0  0
  184.1020  171.7550  136.9890 O   0  0  0  0  0  0  0  0  0  0  0  0
  185.4950  172.0590  135.0830 C   0  0  0  0  0  2  0  0  0  0  0  0
  187.6230  171.3840  136.2910 C   0  0  0  0  0  1  0  0  0  0  0  0
  185.9120  174.8030  136.0810 C   0  0  2  0  0  3  0  0  0  0  0  0
  184.8130  172.5590  136.3260 C   0  0  0  0  0  0  0  0  0  0  0  0
  187.5140  173.6160  135.0930 C   0  0  0  0  0  2  0  0  0  0  0  0
  187.0230  172.1660  135.1290 C   0  0  2  0  0  3  0  0  0  0  0  0
  187.2040  174.2970  136.2780 O   0  0  0  0  0  0  0  0  0  0  0  0
  184.2120  174.3690  137.9370 C   0  0  0  0  0  1  0  0  0  0  0  0
  185.7300  178.0140  138.9650 C   0  0  0  0  0  3  0  0  0  0  0  0
  185.2900  178.9860  139.5560 O   0  0  0  0  0  0  0  0  0  0  0  0
  183.9600  177.5050  135.1340 C   0  0  0  0  0  2  0  0  0  0  0  0
  183.0590  176.9860  136.2540 C   0  0  2  0  0  3  0  0  0  0  0  0
  181.9150  176.2020  135.6420 C   0  0  0  0  0  1  0  0  0  0  0  0
  182.4840  178.1230  137.0840 C   0  0  0  0  0  2  0  0  0  0  0  0
  181.3580  177.6360  137.9800 C   0  0  0  0  0  2  0  0  0  0  0  0
  180.5640  174.8620  138.8060 C   0  0  0  0  0  1  0  0  0  0  0  0
  181.8880  176.9940  139.2630 C   0  0  2  0  0  3  0  0  0  0  0  0
  180.9320  175.9270  139.8230 C   0  0  1  0  0  3  0  0  0  0  0  0
  180.0470  177.4630  141.4410 O   0  0  0  0  0  0  0  0  0  0  0  0
  180.7370  178.5480  140.8620 C   0  0  0  0  0  2  0  0  0  0  0  0
  182.0940  178.0850  140.3170 C   0  0  0  0  0  2  0  0  0  0  0  0
  179.6830  176.5980  140.3940 C   0  0  0  0  0  2  0  0  0  0  0  0
  1  8  1  0  0  0  0
  1 21  1  1  0  0  0
  2  9  1  6  0  0  0
  2  5  1  0  0  0  0
  2  7  1  0  0  0  0
  3 10  1  6  0  0  0
  3  7  1  0  0  0  0
  4  8  1  0  0  0  0
  5  4  1  0  0  0  0
  6  9  1  0  0  0  0
  6 10  2  0  0  0  0
  7  1  1  0  0  0  0
 11 20  1  0  0  0  0
 13 18  1  0  0  0  0
 13 16  1  0  0  0  0
 15 19  1  0  0  0  0
 15  3  1  0  0  0  0
 15 11  1  0  0  0  0
 16 11  1  0  0  0  0
 16 12  2  0  0  0  0
 17 18  1  0  0  0  0
 17 19  1  0  0  0  0
 18 14  1  0  0  0  0
 21 22  2  0  0  0  0
 23 10  1  0  0  0  0
 23 24  1  0  0  0  0
 24 26  1  0  0  0  0
 25 24  1  0  0  0  0
 26 27  1  0  0  0  0
 27 29  1  0  0  0  0
 28 30  1  0  0  0  0
 29 30  1  0  0  0  0
 29 33  1  0  0  0  0
 30 34  1  0  0  0  0
 32 31  1  0  0  0  0
 33 32  1  0  0  0  0
 34 31  1  0  0  0  0
M  END
>  <MODEL>
4

>  <REMARK>
 VINA RESULT:      -5.3      3.893      7.413
  Name = 
  7 active torsions:
  status: ('A' for Active; 'I' for Inactive)
    1  A    between atoms: C_1  and  C_24
    2  A    between atoms: C_3  and  C_13
    3  A    between atoms: C_3  and  C_17
    4  A    between atoms: C_4  and  C_21
    5  A    between atoms: C_5  and  C_18
    6  A    between atoms: C_5  and  C_31
    7  A    between atoms: C_17  and  C_18
                            x       y       z     vdW  Elec       q    Type
                         _______ _______ _______ _____ _____    ______ ____

>  <TORSDO>
F 7

$$$$
=
 OpenBabel11052414233D

 34 37  0  0  1  0  0  0  0  0999 V2000
  189.8720  175.8830  136.5110 C   0  0  2  0  0  3  0  0  0  0  0  0
  188.2620  177.7290  135.8330 C   0  0  1  0  0  3  0  0  0  0  0  0
  187.7580  176.3090  137.8830 C   0  0  1  0  0  3  0  0  0  0  0  0
  190.5370  177.3060  134.8920 C   0  0  0  0  0  2  0  0  0  0  0  0
  189.1490  177.8670  134.5940 C   0  0  0  0  0  2  0  0  0  0  0  0
  188.7370  178.5560  138.2190 C   0  0  0  0  0  3  0  0  0  0  0  0
  188.3940  176.3280  136.4800 C   0  0  2  0  0  3  0  0  0  0  0  0
  190.4270  175.9450  135.2190 O   0  0  0  0  0  0  0  0  0  0  0  0
  188.4730  178.9240  136.7820 C   0  0  0  0  0  2  0  0  0  0  0  0
  188.3680  177.3800  138.7500 C   0  0  0  0  0  0  0  0  0  0  0  0
  185.5580  175.1750  137.4650 N   0  0  0  0  0  0  0  0  0  0  0  0
  183.5310  174.0620  137.0990 O   0  0  0  0  0  0  0  0  0  0  0  0
  183.3170  176.1140  138.2870 C   0  0  0  0  0  2  0  0  0  0  0  0
  182.9530  177.5080  136.1970 C   0  0  0  0  0  1  0  0  0  0  0  0
  186.2210  176.4210  137.8710 C   0  0  2  0  0  3  0  0  0  0  0  0
  184.1290  175.0630  137.5810 C   0  0  0  0  0  0  0  0  0  0  0  0
  184.8000  178.1330  137.8170 C   0  0  0  0  0  2  0  0  0  0  0  0
  183.4140  177.5030  137.6490 C   0  0  2  0  0  3  0  0  0  0  0  0
  185.7680  177.4660  137.0540 O   0  0  0  0  0  0  0  0  0  0  0  0
  186.3000  174.0930  136.8220 C   0  0  0  0  0  1  0  0  0  0  0  0
  189.9890  174.4840  137.0290 C   0  0  0  0  0  3  0  0  0  0  0  0
  190.8540  174.1960  137.8390 O   0  0  0  0  0  0  0  0  0  0  0  0
  188.7350  177.0590  140.1690 C   0  0  0  0  0  2  0  0  0  0  0  0
  189.9550  177.8440  140.6520 C   0  0  2  0  0  3  0  0  0  0  0  0
  191.2080  177.0620  140.3150 C   0  0  0  0  0  1  0  0  0  0  0  0
  189.9120  178.0770  142.1540 C   0  0  0  0  0  2  0  0  0  0  0  0
  188.4830  178.2150  142.6500 C   0  0  0  0  0  2  0  0  0  0  0  0
  185.6420  177.8680  143.5530 C   0  0  0  0  0  1  0  0  0  0  0  0
  188.0320  176.9850  143.4380 C   0  0  2  0  0  3  0  0  0  0  0  0
  186.8070  177.2710  144.3220 C   0  0  1  0  0  3  0  0  0  0  0  0
  188.1800  177.5160  146.2760 O   0  0  0  0  0  0  0  0  0  0  0  0
  189.3630  177.4650  145.5100 C   0  0  0  0  0  2  0  0  0  0  0  0
  189.1870  176.5100  144.3230 C   0  0  0  0  0  2  0  0  0  0  0  0
  187.2100  178.1670  145.4930 C   0  0  0  0  0  2  0  0  0  0  0  0
  1 21  1  6  0  0  0
  2  5  1  6  0  0  0
  2  7  1  0  0  0  0
  2  9  1  0  0  0  0
  3 10  1  1  0  0  0
  4  8  1  0  0  0  0
  5  4  1  0  0  0  0
  6 10  2  0  0  0  0
  7  1  1  0  0  0  0
  7  3  1  0  0  0  0
  8  1  1  0  0  0  0
  9  6  1  0  0  0  0
 10 23  1  0  0  0  0
 11 16  1  0  0  0  0
 11 15  1  0  0  0  0
 12 16  2  0  0  0  0
 14 18  1  0  0  0  0
 15  3  1  0  0  0  0
 16 13  1  0  0  0  0
 18 17  1  0  0  0  0
 18 13  1  0  0  0  0
 19 17  1  0  0  0  0
 19 15  1  0  0  0  0
 20 11  1  0  0  0  0
 21 22  2  0  0  0  0
 23 24  1  0  0  0  0
 24 26  1  0  0  0  0
 25 24  1  0  0  0  0
 26 27  1  0  0  0  0
 27 29  1  0  0  0  0
 28 30  1  0  0  0  0
 29 30  1  0  0  0  0
 29 33  1  0  0  0  0
 30 34  1  0  0  0  0
 32 31  1  0  0  0  0
 33 32  1  0  0  0  0
 34 31  1  0  0  0  0
M  END
>  <MODEL>
5

>  <REMARK>
 VINA RESULT:      -5.3      3.081      6.497
  Name = 
  7 active torsions:
  status: ('A' for Active; 'I' for Inactive)
    1  A    between atoms: C_1  and  C_24
    2  A    between atoms: C_3  and  C_13
    3  A    between atoms: C_3  and  C_17
    4  A    between atoms: C_4  and  C_21
    5  A    between atoms: C_5  and  C_18
    6  A    between atoms: C_5  and  C_31
    7  A    between atoms: C_17  and  C_18
                            x       y       z     vdW  Elec       q    Type
                         _______ _______ _______ _____ _____    ______ ____

>  <TORSDO>
F 7

$$$$
=
 OpenBabel11052414233D

 34 37  0  0  1  0  0  0  0  0999 V2000
  184.9290  178.3350  137.9060 C   0  0  2  0  0  3  0  0  0  0  0  0
  185.4850  176.4560  136.2870 C   0  0  1  0  0  3  0  0  0  0  0  0
  183.0650  176.8640  136.9600 C   0  0  1  0  0  3  0  0  0  0  0  0
  187.0340  178.2370  137.1030 C   0  0  0  0  0  2  0  0  0  0  0  0
  186.9440  176.8010  136.5940 C   0  0  0  0  0  2  0  0  0  0  0  0
  183.8420  177.7290  134.7750 C   0  0  0  0  0  3  0  0  0  0  0  0
  184.5350  176.9250  137.4180 C   0  0  2  0  0  3  0  0  0  0  0  0
  186.2840  178.3590  138.2830 O   0  0  0  0  0  0  0  0  0  0  0  0
  185.1080  176.9190  134.8660 C   0  0  0  0  0  2  0  0  0  0  0  0
  182.8730  177.6740  135.7030 C   0  0  0  0  0  0  0  0  0  0  0  0
  181.5260  175.0620  137.7850 N   0  0  0  0  0  0  0  0  0  0  0  0
  180.0460  173.4270  138.5700 O   0  0  0  0  0  0  0  0  0  0  0  0
  180.8970  173.0050  136.3880 C   0  0  0  0  0  2  0  0  0  0  0  0
  182.8730  171.6430  137.2130 C   0  0  0  0  0  1  0  0  0  0  0  0
  182.5280  175.4310  136.7770 C   0  0  2  0  0  3  0  0  0  0  0  0
  180.7980  173.8300  137.6410 C   0  0  0  0  0  0  0  0  0  0  0  0
  183.2680  173.6340  135.6940 C   0  0  0  0  0  2  0  0  0  0  0  0
  182.3130  172.5030  136.0870 C   0  0  2  0  0  3  0  0  0  0  0  0
  183.5510  174.4740  136.7800 O   0  0  0  0  0  0  0  0  0  0  0  0
  181.3420  175.8510  139.0010 C   0  0  0  0  0  1  0  0  0  0  0  0
  184.0870  178.7410  139.0740 C   0  0  0  0  0  3  0  0  0  0  0  0
  184.0820  179.8980  139.4600 O   0  0  0  0  0  0  0  0  0  0  0  0
  181.6750  178.5690  135.5790 C   0  0  0  0  0  2  0  0  0  0  0  0
  181.0860  178.9540  136.9360 C   0  0  2  0  0  3  0  0  0  0  0  0
  179.6220  178.5670  136.9640 C   0  0  0  0  0  1  0  0  0  0  0  0
  181.2030  180.4470  137.1930 C   0  0  0  0  0  2  0  0  0  0  0  0
  180.3700  181.2440  136.2040 C   0  0  0  0  0  2  0  0  0  0  0  0
  178.9310  183.3280  134.5940 C   0  0  0  0  0  1  0  0  0  0  0  0
  179.7140  182.4590  136.8600 C   0  0  2  0  0  3  0  0  0  0  0  0
  179.6180  183.6610  135.9060 C   0  0  1  0  0  3  0  0  0  0  0  0
  181.5550  184.6880  136.8840 O   0  0  0  0  0  0  0  0  0  0  0  0
  181.8350  183.5400  137.6540 C   0  0  0  0  0  2  0  0  0  0  0  0
  180.5310  182.8610  138.0910 C   0  0  0  0  0  2  0  0  0  0  0  0
  181.0100  184.2450  135.6660 C   0  0  0  0  0  2  0  0  0  0  0  0
  1  8  1  0  0  0  0
  1 21  1  1  0  0  0
  2  9  1  6  0  0  0
  2  5  1  0  0  0  0
  2  7  1  0  0  0  0
  3 10  1  6  0  0  0
  3  7  1  0  0  0  0
  4  8  1  0  0  0  0
  5  4  1  0  0  0  0
  6  9  1  0  0  0  0
  6 10  2  0  0  0  0
  7  1  1  0  0  0  0
 11 20  1  0  0  0  0
 13 16  1  0  0  0  0
 15 19  1  0  0  0  0
 15  3  1  0  0  0  0
 15 11  1  0  0  0  0
 16 11  1  0  0  0  0
 16 12  2  0  0  0  0
 17 18  1  0  0  0  0
 17 19  1  0  0  0  0
 18 13  1  0  0  0  0
 18 14  1  0  0  0  0
 21 22  2  0  0  0  0
 23 10  1  0  0  0  0
 23 24  1  0  0  0  0
 24 25  1  0  0  0  0
 24 26  1  0  0  0  0
 27 29  1  0  0  0  0
 27 26  1  0  0  0  0
 28 30  1  0  0  0  0
 29 33  1  0  0  0  0
 30 29  1  0  0  0  0
 31 32  1  0  0  0  0
 32 33  1  0  0  0  0
 34 30  1  0  0  0  0
 34 31  1  0  0  0  0
M  END
>  <MODEL>
6

>  <REMARK>
 VINA RESULT:      -5.1      4.204      8.030
  Name = 
  7 active torsions:
  status: ('A' for Active; 'I' for Inactive)
    1  A    between atoms: C_1  and  C_24
    2  A    between atoms: C_3  and  C_13
    3  A    between atoms: C_3  and  C_17
    4  A    between atoms: C_4  and  C_21
    5  A    between atoms: C_5  and  C_18
    6  A    between atoms: C_5  and  C_31
    7  A    between atoms: C_17  and  C_18
                            x       y       z     vdW  Elec       q    Type
                         _______ _______ _______ _____ _____    ______ ____

>  <TORSDO>
F 7

$$$$
=
 OpenBabel11052414233D

 34 37  0  0  1  0  0  0  0  0999 V2000
  190.0040  176.5530  138.3060 C   0  0  2  0  0  3  0  0  0  0  0  0
  190.9740  174.9770  136.5620 C   0  0  1  0  0  3  0  0  0  0  0  0
  188.4680  175.4140  136.6100 C   0  0  1  0  0  3  0  0  0  0  0  0
  192.2500  176.4650  138.1110 C   0  0  0  0  0  2  0  0  0  0  0  0
  192.2900  175.1590  137.3220 C   0  0  0  0  0  2  0  0  0  0  0  0
  189.8420  176.6190  134.9410 C   0  0  0  0  0  3  0  0  0  0  0  0
  189.7490  175.2890  137.4570 C   0  0  2  0  0  3  0  0  0  0  0  0
  191.1970  176.4140  139.0390 O   0  0  0  0  0  0  0  0  0  0  0  0
  191.0220  175.7220  135.2150 C   0  0  0  0  0  2  0  0  0  0  0  0
  188.6500  176.4560  135.5350 C   0  0  0  0  0  0  0  0  0  0  0  0
  186.6420  173.7000  136.4530 N   0  0  0  0  0  0  0  0  0  0  0  0
  184.8940  172.1490  136.3090 O   0  0  0  0  0  0  0  0  0  0  0  0
  186.5520  171.9090  134.6180 C   0  0  0  0  0  2  0  0  0  0  0  0
  187.9420  170.2520  135.9470 C   0  0  0  0  0  1  0  0  0  0  0  0
  187.9880  174.0800  136.0050 C   0  0  2  0  0  3  0  0  0  0  0  0
  185.9810  172.5800  135.8370 C   0  0  0  0  0  0  0  0  0  0  0  0
  189.0240  172.3600  135.0470 C   0  0  0  0  0  2  0  0  0  0  0  0
  187.9400  171.2990  134.8400 C   0  0  2  0  0  3  0  0  0  0  0  0
  188.8710  173.0260  136.2710 O   0  0  0  0  0  0  0  0  0  0  0  0
  186.0080  174.3490  137.5980 C   0  0  0  0  0  1  0  0  0  0  0  0
  188.8700  176.7890  139.2520 C   0  0  0  0  0  3  0  0  0  0  0  0
  188.8590  177.7750  139.9700 O   0  0  0  0  0  0  0  0  0  0  0  0
  187.5470  177.4370  135.2660 C   0  0  0  0  0  2  0  0  0  0  0  0
  186.3460  177.2380  136.1900 C   0  0  2  0  0  3  0  0  0  0  0  0
  185.0920  177.1140  135.3480 C   0  0  0  0  0  1  0  0  0  0  0  0
  186.1770  178.4060  137.1490 C   0  0  0  0  0  2  0  0  0  0  0  0
  185.4850  177.9720  138.4290 C   0  0  0  0  0  2  0  0  0  0  0  0
  185.7660  178.9980  141.2360 C   0  0  0  0  0  1  0  0  0  0  0  0
  184.5730  179.0680  138.9830 C   0  0  2  0  0  3  0  0  0  0  0  0
  184.4320  178.9970  140.5120 C   0  0  1  0  0  3  0  0  0  0  0  0
  182.3120  177.8850  140.3400 O   0  0  0  0  0  0  0  0  0  0  0  0
  182.4530  177.7260  138.9460 C   0  0  0  0  0  2  0  0  0  0  0  0
  183.1870  178.9310  138.3450 C   0  0  0  0  0  2  0  0  0  0  0  0
  183.5970  177.7770  140.9000 C   0  0  0  0  0  2  0  0  0  0  0  0
  1  8  1  0  0  0  0
  1 21  1  1  0  0  0
  2  9  1  6  0  0  0
  2  5  1  0  0  0  0
  2  7  1  0  0  0  0
  3 10  1  6  0  0  0
  3  7  1  0  0  0  0
  4  8  1  0  0  0  0
  5  4  1  0  0  0  0
  6  9  1  0  0  0  0
  6 10  2  0  0  0  0
  7  1  1  0  0  0  0
 11 20  1  0  0  0  0
 13 18  1  0  0  0  0
 13 16  1  0  0  0  0
 15 19  1  0  0  0  0
 15 11  1  0  0  0  0
 15  3  1  0  0  0  0
 16 12  2  0  0  0  0
 16 11  1  0  0  0  0
 17 19  1  0  0  0  0
 18 17  1  0  0  0  0
 18 14  1  0  0  0  0
 21 22  2  0  0  0  0
 23 10  1  0  0  0  0
 23 24  1  0  0  0  0
 24 26  1  0  0  0  0
 25 24  1  0  0  0  0
 26 27  1  0  0  0  0
 27 29  1  0  0  0  0
 29 30  1  0  0  0  0
 30 34  1  0  0  0  0
 30 28  1  0  0  0  0
 31 34  1  0  0  0  0
 32 31  1  0  0  0  0
 33 32  1  0  0  0  0
 33 29  1  0  0  0  0
M  END
>  <MODEL>
7

>  <REMARK>
 VINA RESULT:      -5.0      4.127      8.261
  Name = 
  7 active torsions:
  status: ('A' for Active; 'I' for Inactive)
    1  A    between atoms: C_1  and  C_24
    2  A    between atoms: C_3  and  C_13
    3  A    between atoms: C_3  and  C_17
    4  A    between atoms: C_4  and  C_21
    5  A    between atoms: C_5  and  C_18
    6  A    between atoms: C_5  and  C_31
    7  A    between atoms: C_17  and  C_18
                            x       y       z     vdW  Elec       q    Type
                         _______ _______ _______ _____ _____    ______ ____

>  <TORSDO>
F 7

$$$$
=
 OpenBabel11052414233D

 34 37  0  0  1  0  0  0  0  0999 V2000
  191.1650  178.1920  144.1710 C   0  0  2  0  0  3  0  0  0  0  0  0
  189.3410  176.5410  144.8090 C   0  0  1  0  0  3  0  0  0  0  0  0
  189.0180  178.0540  142.7890 C   0  0  1  0  0  3  0  0  0  0  0  0
  191.6480  176.6660  145.7590 C   0  0  0  0  0  2  0  0  0  0  0  0
  190.2010  176.2710  146.0460 C   0  0  0  0  0  2  0  0  0  0  0  0
  189.7190  175.7120  142.4060 C   0  0  0  0  0  3  0  0  0  0  0  0
  189.6440  177.9290  144.1920 C   0  0  2  0  0  3  0  0  0  0  0  0
  191.7040  178.0360  145.4610 O   0  0  0  0  0  0  0  0  0  0  0  0
  189.4080  175.3490  143.8350 C   0  0  0  0  0  2  0  0  0  0  0  0
  189.4970  176.9340  141.9000 C   0  0  0  0  0  0  0  0  0  0  0  0
  186.9330  178.8280  141.6280 N   0  0  0  0  0  0  0  0  0  0  0  0
  185.0150  179.5360  140.4870 O   0  0  0  0  0  0  0  0  0  0  0  0
  184.5930  177.9530  142.2140 C   0  0  0  0  0  2  0  0  0  0  0  0
  184.2070  179.7160  143.9990 C   0  0  0  0  0  1  0  0  0  0  0  0
  187.4790  178.1290  142.7980 C   0  0  2  0  0  3  0  0  0  0  0  0
  185.5120  178.8190  141.3970 C   0  0  0  0  0  0  0  0  0  0  0  0
  185.9330  177.8990  144.3820 C   0  0  0  0  0  2  0  0  0  0  0  0
  184.6080  178.2740  143.7120 C   0  0  2  0  0  3  0  0  0  0  0  0
  186.9800  178.7300  143.9620 O   0  0  0  0  0  0  0  0  0  0  0  0
  187.7820  179.6430  140.7630 C   0  0  0  0  0  1  0  0  0  0  0  0
  191.4520  179.5760  143.6820 C   0  0  0  0  0  3  0  0  0  0  0  0
  191.2140  180.5420  144.3870 O   0  0  0  0  0  0  0  0  0  0  0  0
  189.9030  177.2380  140.4880 C   0  0  0  0  0  2  0  0  0  0  0  0
  191.2440  176.6040  140.1140 C   0  0  2  0  0  3  0  0  0  0  0  0
  192.3610  177.5520  140.4980 C   0  0  0  0  0  1  0  0  0  0  0  0
  191.3320  176.3220  138.6230 C   0  0  0  0  0  2  0  0  0  0  0  0
  189.9550  176.3070  137.9820 C   0  0  0  0  0  2  0  0  0  0  0  0
  189.0390  179.0770  137.2810 C   0  0  0  0  0  1  0  0  0  0  0  0
  189.9910  176.8290  136.5450 C   0  0  2  0  0  3  0  0  0  0  0  0
  188.9460  177.9280  136.2940 C   0  0  1  0  0  3  0  0  0  0  0  0
  187.4430  176.3680  135.2590 O   0  0  0  0  0  0  0  0  0  0  0  0
  188.2490  175.2720  135.6290 C   0  0  0  0  0  2  0  0  0  0  0  0
  189.7310  175.6630  135.5860 C   0  0  0  0  0  2  0  0  0  0  0  0
  187.5430  177.3200  136.2890 C   0  0  0  0  0  2  0  0  0  0  0  0
  1 21  1  1  0  0  0
  1  7  1  0  0  0  0
  1  8  1  0  0  0  0
  2  9  1  6  0  0  0
  2  5  1  0  0  0  0
  3 10  1  6  0  0  0
  3 15  1  0  0  0  0
  3  7  1  0  0  0  0
  4  5  1  0  0  0  0
  6  9  1  0  0  0  0
  7  2  1  0  0  0  0
  8  4  1  0  0  0  0
 10  6  2  0  0  0  0
 11 15  1  0  0  0  0
 12 16  2  0  0  0  0
 13 18  1  0  0  0  0
 15 19  1  0  0  0  0
 16 11  1  0  0  0  0
 16 13  1  0  0  0  0
 18 14  1  0  0  0  0
 18 17  1  0  0  0  0
 19 17  1  0  0  0  0
 20 11  1  0  0  0  0
 21 22  2  0  0  0  0
 23 10  1  0  0  0  0
 24 23  1  0  0  0  0
 24 25  1  0  0  0  0
 26 24  1  0  0  0  0
 27 26  1  0  0  0  0
 29 27  1  0  0  0  0
 30 29  1  0  0  0  0
 30 28  1  0  0  0  0
 31 32  1  0  0  0  0
 31 34  1  0  0  0  0
 33 32  1  0  0  0  0
 33 29  1  0  0  0  0
 34 30  1  0  0  0  0
M  END
>  <MODEL>
8

>  <REMARK>
 VINA RESULT:      -4.9      3.860      8.843
  Name = 
  7 active torsions:
  status: ('A' for Active; 'I' for Inactive)
    1  A    between atoms: C_1  and  C_24
    2  A    between atoms: C_3  and  C_13
    3  A    between atoms: C_3  and  C_17
    4  A    between atoms: C_4  and  C_21
    5  A    between atoms: C_5  and  C_18
    6  A    between atoms: C_5  and  C_31
    7  A    between atoms: C_17  and  C_18
                            x       y       z     vdW  Elec       q    Type
                         _______ _______ _______ _____ _____    ______ ____

>  <TORSDO>
F 7

$$$$
=
 OpenBabel11052414233D

 34 37  0  0  1  0  0  0  0  0999 V2000
  180.3600  174.2320  136.6890 C   0  0  2  0  0  3  0  0  0  0  0  0
  180.5630  176.4350  135.4360 C   0  0  1  0  0  3  0  0  0  0  0  0
  181.9870  176.0270  137.5050 C   0  0  1  0  0  3  0  0  0  0  0  0
  179.3210  174.3990  134.6940 C   0  0  0  0  0  2  0  0  0  0  0  0
  179.3820  175.9210  134.6090 C   0  0  0  0  0  2  0  0  0  0  0  0
  183.0290  175.7300  135.2800 C   0  0  0  0  0  3  0  0  0  0  0  0
  180.6350  175.7460  136.8210 C   0  0  2  0  0  3  0  0  0  0  0  0
  179.1350  174.0160  136.0310 O   0  0  0  0  0  0  0  0  0  0  0  0
  181.8600  176.3980  134.6050 C   0  0  0  0  0  2  0  0  0  0  0  0
  183.1240  175.6000  136.6120 C   0  0  0  0  0  0  0  0  0  0  0  0
  182.7010  177.6070  139.3190 N   0  0  0  0  0  0  0  0  0  0  0  0
  183.4160  179.0400  141.0270 O   0  0  0  0  0  0  0  0  0  0  0  0
  183.1510  180.1000  138.9120 C   0  0  0  0  0  2  0  0  0  0  0  0
  180.7390  180.7670  139.3330 C   0  0  0  0  0  1  0  0  0  0  0  0
  182.1630  177.4900  137.9570 C   0  0  2  0  0  3  0  0  0  0  0  0
  183.0950  178.8990  139.8150 C   0  0  0  0  0  0  0  0  0  0  0  0
  181.3280  179.4310  137.2610 C   0  0  0  0  0  2  0  0  0  0  0  0
  181.8030  180.4660  138.2850 C   0  0  2  0  0  3  0  0  0  0  0  0
  180.9710  178.2220  137.8730 O   0  0  0  0  0  0  0  0  0  0  0  0
  182.7240  176.4650  140.2290 C   0  0  0  0  0  1  0  0  0  0  0  0
  180.3150  173.5860  138.0370 C   0  0  0  0  0  3  0  0  0  0  0  0
  180.3300  172.3710  138.1410 O   0  0  0  0  0  0  0  0  0  0  0  0
  184.2850  174.8560  137.2040 C   0  0  0  0  0  2  0  0  0  0  0  0
  184.9470  173.9090  136.2030 C   0  0  2  0  0  3  0  0  0  0  0  0
  184.6640  172.4790  136.6150 C   0  0  0  0  0  1  0  0  0  0  0  0
  186.4530  174.1140  136.1500 C   0  0  0  0  0  2  0  0  0  0  0  0
  186.9060  175.1380  137.1770 C   0  0  0  0  0  2  0  0  0  0  0  0
  189.8080  175.8110  137.5350 C   0  0  0  0  0  1  0  0  0  0  0  0
  187.5360  176.3650  136.5170 C   0  0  2  0  0  3  0  0  0  0  0  0
  188.7610  176.8820  137.2890 C   0  0  1  0  0  3  0  0  0  0  0  0
  187.4660  178.6140  138.3310 O   0  0  0  0  0  0  0  0  0  0  0  0
  186.2610  178.0860  137.8240 C   0  0  0  0  0  2  0  0  0  0  0  0
  186.4890  177.4790  136.4340 C   0  0  0  0  0  2  0  0  0  0  0  0
  188.3130  177.5250  138.6020 C   0  0  0  0  0  2  0  0  0  0  0  0
  1  7  1  0  0  0  0
  1 21  1  1  0  0  0
  2  9  1  6  0  0  0
  2  7  1  0  0  0  0
  3 10  1  6  0  0  0
  3 15  1  0  0  0  0
  4  8  1  0  0  0  0
  5  4  1  0  0  0  0
  5  2  1  0  0  0  0
  6 10  2  0  0  0  0
  7  3  1  0  0  0  0
  8  1  1  0  0  0  0
  9  6  1  0  0  0  0
 10 23  1  0  0  0  0
 11 16  1  0  0  0  0
 11 20  1  0  0  0  0
 13 16  1  0  0  0  0
 15 11  1  0  0  0  0
 16 12  2  0  0  0  0
 17 19  1  0  0  0  0
 17 18  1  0  0  0  0
 18 13  1  0  0  0  0
 18 14  1  0  0  0  0
 19 15  1  0  0  0  0
 21 22  2  0  0  0  0
 24 25  1  0  0  0  0
 24 23  1  0  0  0  0
 26 24  1  0  0  0  0
 26 27  1  0  0  0  0
 29 27  1  0  0  0  0
 29 30  1  0  0  0  0
 30 28  1  0  0  0  0
 30 34  1  0  0  0  0
 31 34  1  0  0  0  0
 32 31  1  0  0  0  0
 33 29  1  0  0  0  0
 33 32  1  0  0  0  0
M  END
>  <MODEL>
9

>  <REMARK>
 VINA RESULT:      -4.8      3.642      6.553
  Name = 
  7 active torsions:
  status: ('A' for Active; 'I' for Inactive)
    1  A    between atoms: C_1  and  C_24
    2  A    between atoms: C_3  and  C_13
    3  A    between atoms: C_3  and  C_17
    4  A    between atoms: C_4  and  C_21
    5  A    between atoms: C_5  and  C_18
    6  A    between atoms: C_5  and  C_31
    7  A    between atoms: C_17  and  C_18
                            x       y       z     vdW  Elec       q    Type
                         _______ _______ _______ _____ _____    ______ ____

>  <TORSDO>
F 7

$$$$
