=
 OpenBabel11052413123D

 31 35  0  0  1  0  0  0  0  0999 V2000
  189.3630  177.9940  142.2730 C   0  0  0  0  0  0  0  0  0  0  0  0
  186.3410  177.6220  144.4820 C   0  0  2  0  0  3  0  0  0  0  0  0
  186.9820  177.6840  145.8450 C   0  0  0  0  0  0  0  0  0  0  0  0
  182.8660  178.7490  140.5860 O   0  0  0  0  0  0  0  0  0  0  0  0
  182.2800  178.8430  141.6990 C   0  0  0  0  0  0  0  0  0  0  0  0
  188.3880  176.5030  147.5480 C   0  0  0  0  0  2  0  0  0  0  0  0
  187.2230  177.9500  143.3040 C   0  0  0  0  0  0  0  0  0  0  0  0
  188.7890  178.3160  141.0400 C   0  0  0  0  0  3  0  0  0  0  0  0
  187.8830  176.7450  146.1580 C   0  0  0  0  0  3  0  0  0  0  0  0
  184.4150  178.4710  143.0480 C   0  0  0  0  0  0  0  0  0  0  0  0
  190.8370  177.8380  142.3860 C   0  0  0  0  0  1  0  0  0  0  0  0
  185.2310  179.1260  146.6710 N   0  0  0  0  0  0  0  0  0  0  0  0
  189.2200  177.6590  148.0890 C   0  0  0  0  0  2  0  0  0  0  0  0
  185.1810  178.4310  141.9920 N   0  0  0  0  0  0  0  0  0  0  0  0
  185.0290  178.3590  144.3850 C   0  0  0  0  0  0  0  0  0  0  0  0
  183.0040  178.7010  142.9260 N   0  0  0  0  0  2  0  0  0  0  0  0
  188.5760  177.8050  143.3660 N   0  0  0  0  0  0  0  0  0  0  0  0
  188.4930  179.0050  148.0890 C   0  0  0  0  0  2  0  0  0  0  0  0
  186.6080  178.2660  142.0760 C   0  0  0  0  0  0  0  0  0  0  0  0
  187.4030  178.4510  140.9440 C   0  0  0  0  0  3  0  0  0  0  0  0
  184.5190  179.0200  145.4290 C   0  0  0  0  0  3  0  0  0  0  0  0
  186.3920  178.5780  146.8760 C   0  0  0  0  0  0  0  0  0  0  0  0
  187.0740  178.8730  148.0610 O   0  0  0  0  0  0  0  0  0  0  0  0
  179.0480  177.6400  139.8270 C   0  0  1  0  0  3  0  0  0  0  0  0
  180.0390  177.8130  142.1000 C   0  0  0  0  0  2  0  0  0  0  0  0
  180.6390  180.9420  140.1990 N   0  0  0  0  0  2  0  0  0  0  0  0
  178.9390  176.7920  138.5770 C   0  0  0  0  0  1  0  0  0  0  0  0
  179.8760  176.9130  140.8780 C   0  0  0  0  0  2  0  0  0  0  0  0
  180.3040  179.7270  140.4840 C   0  0  0  0  0  0  0  0  0  0  0  0
  180.8050  179.0950  141.7550 C   0  0  2  0  0  3  0  0  0  0  0  0
  179.6470  178.9290  139.4960 N   0  0  0  0  0  2  0  0  0  0  0  0
  1 11  1  0  0  0  0
  1 17  1  0  0  0  0
  2  7  1  6  0  0  0
  2  3  1  0  0  0  0
  3  9  2  0  0  0  0
  3 22  1  0  0  0  0
  4  5  2  0  0  0  0
  5 16  1  0  0  0  0
  6 13  1  0  0  0  0
  7 17  2  0  0  0  0
  8  1  2  0  0  0  0
  9  6  1  0  0  0  0
 10 15  1  0  0  0  0
 12 22  2  0  0  0  0
 14 19  1  0  0  0  0
 14 10  2  0  0  0  0
 15  2  1  0  0  0  0
 15 21  2  0  0  0  0
 16 10  1  0  0  0  0
 18 13  1  0  0  0  0
 19  7  1  0  0  0  0
 20  8  1  0  0  0  0
 20 19  2  0  0  0  0
 21 12  1  0  0  0  0
 22 23  1  0  0  0  0
 23 18  1  0  0  0  0
 24 27  1  6  0  0  0
 24 28  1  0  0  0  0
 26 29  2  0  0  0  0
 28 25  1  0  0  0  0
 29 30  1  0  0  0  0
 30  5  1  6  0  0  0
 30 25  1  0  0  0  0
 31 24  1  0  0  0  0
 31 29  1  0  0  0  0
M  END
>  <MODEL>
1

>  <REMARK>
 VINA RESULT:      -9.4      0.000      0.000
  Name = 
  1 active torsions:
  status: ('A' for Active; 'I' for Inactive)
    1  A    between atoms: C_9  and  C_22
                            x       y       z     vdW  Elec       q    Type
                         _______ _______ _______ _____ _____    ______ ____

>  <TORSDO>
F 1

$$$$
=
 OpenBabel11052413123D

 31 35  0  0  1  0  0  0  0  0999 V2000
  189.1240  178.2350  142.2600 C   0  0  0  0  0  0  0  0  0  0  0  0
  185.8380  177.7440  144.0260 C   0  0  2  0  0  3  0  0  0  0  0  0
  186.2680  177.8940  145.4630 C   0  0  0  0  0  0  0  0  0  0  0  0
  182.9090  178.5110  139.6270 O   0  0  0  0  0  0  0  0  0  0  0  0
  182.1630  178.6050  140.6390 C   0  0  0  0  0  0  0  0  0  0  0  0
  187.4780  176.8640  147.3990 C   0  0  0  0  0  2  0  0  0  0  0  0
  186.8620  178.0880  142.9750 C   0  0  0  0  0  0  0  0  0  0  0  0
  188.7170  178.4770  140.9450 C   0  0  0  0  0  3  0  0  0  0  0  0
  187.1680  177.0260  145.9420 C   0  0  0  0  0  3  0  0  0  0  0  0
  184.0960  178.4170  142.2950 C   0  0  0  0  0  0  0  0  0  0  0  0
  190.5710  178.1780  142.5900 C   0  0  0  0  0  1  0  0  0  0  0  0
  184.3340  179.2460  145.9660 N   0  0  0  0  0  0  0  0  0  0  0  0
  188.1520  178.0890  148.0050 C   0  0  0  0  0  2  0  0  0  0  0  0
  185.0090  178.3920  141.3630 N   0  0  0  0  0  0  0  0  0  0  0  0
  184.5130  178.3910  143.7110 C   0  0  0  0  0  0  0  0  0  0  0  0
  182.7060  178.5520  141.9630 N   0  0  0  0  0  2  0  0  0  0  0  0
  188.1970  178.0330  143.2360 N   0  0  0  0  0  0  0  0  0  0  0  0
  187.3550  179.3850  147.8420 C   0  0  0  0  0  2  0  0  0  0  0  0
  186.4150  178.3220  141.6580 C   0  0  0  0  0  0  0  0  0  0  0  0
  187.3550  178.5190  140.6450 C   0  0  0  0  0  3  0  0  0  0  0  0
  183.8180  179.0530  144.6410 C   0  0  0  0  0  3  0  0  0  0  0  0
  185.4820  178.7820  146.3600 C   0  0  0  0  0  0  0  0  0  0  0  0
  185.9650  179.1610  147.6160 O   0  0  0  0  0  0  0  0  0  0  0  0
  179.0210  179.2020  142.9140 C   0  0  1  0  0  3  0  0  0  0  0  0
  180.2190  180.1440  140.9490 C   0  0  0  0  0  2  0  0  0  0  0  0
  179.9910  176.4520  140.6630 N   0  0  0  0  0  2  0  0  0  0  0  0
  178.9310  179.1840  144.4250 C   0  0  0  0  0  1  0  0  0  0  0  0
  180.0880  180.1940  142.4690 C   0  0  0  0  0  2  0  0  0  0  0  0
  179.9270  177.6490  141.1440 C   0  0  0  0  0  0  0  0  0  0  0  0
  180.6820  178.7630  140.4710 C   0  0  2  0  0  3  0  0  0  0  0  0
  179.3230  177.8620  142.4230 N   0  0  0  0  0  2  0  0  0  0  0  0
  1 11  1  0  0  0  0
  1 17  1  0  0  0  0
  2  7  1  6  0  0  0
  2  3  1  0  0  0  0
  3  9  2  0  0  0  0
  3 22  1  0  0  0  0
  4  5  2  0  0  0  0
  5 16  1  0  0  0  0
  6 13  1  0  0  0  0
  7 17  2  0  0  0  0
  8  1  2  0  0  0  0
  9  6  1  0  0  0  0
 10 15  1  0  0  0  0
 12 22  2  0  0  0  0
 14 19  1  0  0  0  0
 14 10  2  0  0  0  0
 15  2  1  0  0  0  0
 15 21  2  0  0  0  0
 16 10  1  0  0  0  0
 18 13  1  0  0  0  0
 19  7  1  0  0  0  0
 20  8  1  0  0  0  0
 20 19  2  0  0  0  0
 21 12  1  0  0  0  0
 22 23  1  0  0  0  0
 23 18  1  0  0  0  0
 24 27  1  1  0  0  0
 25 28  1  0  0  0  0
 26 29  2  0  0  0  0
 28 24  1  0  0  0  0
 29 31  1  0  0  0  0
 30  5  1  1  0  0  0
 30 25  1  0  0  0  0
 30 29  1  0  0  0  0
 31 24  1  0  0  0  0
M  END
>  <MODEL>
2

>  <REMARK>
 VINA RESULT:      -9.3      1.285      2.018
  Name = 
  1 active torsions:
  status: ('A' for Active; 'I' for Inactive)
    1  A    between atoms: C_9  and  C_22
                            x       y       z     vdW  Elec       q    Type
                         _______ _______ _______ _____ _____    ______ ____

>  <TORSDO>
F 1

$$$$
=
 OpenBabel11052413123D

 31 35  0  0  1  0  0  0  0  0999 V2000
  185.9840  178.2220  144.7330 C   0  0  0  0  0  0  0  0  0  0  0  0
  188.7790  178.3240  142.2160 C   0  0  2  0  0  3  0  0  0  0  0  0
  189.9280  177.8220  143.0540 C   0  0  0  0  0  0  0  0  0  0  0  0
  185.5070  178.6980  138.0120 O   0  0  0  0  0  0  0  0  0  0  0  0
  186.6580  178.3740  137.6100 C   0  0  0  0  0  0  0  0  0  0  0  0
  191.5480  178.3300  144.8940 C   0  0  0  0  0  2  0  0  0  0  0  0
  187.4040  178.2290  142.8270 C   0  0  0  0  0  0  0  0  0  0  0  0
  184.8520  178.3130  143.9190 C   0  0  0  0  0  3  0  0  0  0  0  0
  190.2730  178.5320  144.1350 C   0  0  0  0  0  3  0  0  0  0  0  0
  187.5980  178.1210  139.9690 C   0  0  0  0  0  0  0  0  0  0  0  0
  185.8330  178.1720  146.2100 C   0  0  0  0  0  1  0  0  0  0  0  0
  190.7100  176.4210  141.2520 N   0  0  0  0  0  0  0  0  0  0  0  0
  191.6120  176.9830  145.6040 C   0  0  0  0  0  2  0  0  0  0  0  0
  186.4520  178.3570  140.5470 N   0  0  0  0  0  0  0  0  0  0  0  0
  188.7710  177.7950  140.8040 C   0  0  0  0  0  0  0  0  0  0  0  0
  187.7110  178.0940  138.5380 N   0  0  0  0  0  2  0  0  0  0  0  0
  187.2260  178.1960  144.1770 N   0  0  0  0  0  0  0  0  0  0  0  0
  191.4290  175.7800  144.6780 C   0  0  0  0  0  2  0  0  0  0  0  0
  186.2850  178.3290  141.9760 C   0  0  0  0  0  0  0  0  0  0  0  0
  185.0070  178.3680  142.5330 C   0  0  0  0  0  3  0  0  0  0  0  0
  189.7020  176.9390  140.3720 C   0  0  0  0  0  3  0  0  0  0  0  0
  190.8060  176.7560  142.5040 C   0  0  0  0  0  0  0  0  0  0  0  0
  191.7200  176.0750  143.3140 O   0  0  0  0  0  0  0  0  0  0  0  0
  187.2570  175.5770  134.9220 C   0  0  1  0  0  3  0  0  0  0  0  0
  185.8220  177.5490  135.4040 C   0  0  0  0  0  2  0  0  0  0  0  0
  189.3650  178.3210  136.1890 N   0  0  0  0  0  2  0  0  0  0  0  0
  187.4380  174.0890  135.1310 C   0  0  0  0  0  1  0  0  0  0  0  0
  185.9510  176.0360  135.5560 C   0  0  0  0  0  2  0  0  0  0  0  0
  188.2930  177.6700  135.8790 C   0  0  0  0  0  0  0  0  0  0  0  0
  186.9450  178.2860  136.1420 C   0  0  2  0  0  3  0  0  0  0  0  0
  188.3910  176.2950  135.4950 N   0  0  0  0  0  2  0  0  0  0  0  0
  1 11  1  0  0  0  0
  2 15  1  6  0  0  0
  2  7  1  0  0  0  0
  2  3  1  0  0  0  0
  3  9  2  0  0  0  0
  5  4  2  0  0  0  0
  5 16  1  0  0  0  0
  6 13  1  0  0  0  0
  7 17  2  0  0  0  0
  8  1  2  0  0  0  0
  9  6  1  0  0  0  0
 10 14  2  0  0  0  0
 10 15  1  0  0  0  0
 12 22  2  0  0  0  0
 14 19  1  0  0  0  0
 16 10  1  0  0  0  0
 17  1  1  0  0  0  0
 18 13  1  0  0  0  0
 19 20  2  0  0  0  0
 19  7  1  0  0  0  0
 20  8  1  0  0  0  0
 21 15  2  0  0  0  0
 21 12  1  0  0  0  0
 22  3  1  0  0  0  0
 22 23  1  0  0  0  0
 23 18  1  0  0  0  0
 24 27  1  1  0  0  0
 24 31  1  0  0  0  0
 24 28  1  0  0  0  0
 25 28  1  0  0  0  0
 25 30  1  0  0  0  0
 29 30  1  0  0  0  0
 29 26  2  0  0  0  0
 30  5  1  1  0  0  0
 31 29  1  0  0  0  0
M  END
>  <MODEL>
3

>  <REMARK>
 VINA RESULT:      -9.0      3.945      6.338
  Name = 
  1 active torsions:
  status: ('A' for Active; 'I' for Inactive)
    1  A    between atoms: C_9  and  C_22
                            x       y       z     vdW  Elec       q    Type
                         _______ _______ _______ _____ _____    ______ ____

>  <TORSDO>
F 1

$$$$
=
 OpenBabel11052413123D

 31 35  0  0  1  0  0  0  0  0999 V2000
  189.2340  178.1790  142.2920 C   0  0  0  0  0  0  0  0  0  0  0  0
  186.1630  177.6120  144.3890 C   0  0  2  0  0  3  0  0  0  0  0  0
  186.7480  177.7140  145.7750 C   0  0  0  0  0  0  0  0  0  0  0  0
  182.7680  178.5180  140.3670 O   0  0  0  0  0  0  0  0  0  0  0  0
  182.1370  178.5730  141.4570 C   0  0  0  0  0  0  0  0  0  0  0  0
  188.1630  176.6240  147.5290 C   0  0  0  0  0  2  0  0  0  0  0  0
  187.0640  177.9970  143.2440 C   0  0  0  0  0  0  0  0  0  0  0  0
  188.6860  178.4650  141.0390 C   0  0  0  0  0  3  0  0  0  0  0  0
  187.6950  176.8340  146.1210 C   0  0  0  0  0  3  0  0  0  0  0  0
  184.2400  178.3370  142.8840 C   0  0  0  0  0  0  0  0  0  0  0  0
  190.7090  178.1180  142.4590 C   0  0  0  0  0  1  0  0  0  0  0  0
  184.8790  179.0390  146.5340 N   0  0  0  0  0  0  0  0  0  0  0  0
  188.8990  177.8300  148.0990 C   0  0  0  0  0  2  0  0  0  0  0  0
  185.0450  178.3480  141.8570 N   0  0  0  0  0  0  0  0  0  0  0  0
  184.8100  178.2640  144.2430 C   0  0  0  0  0  0  0  0  0  0  0  0
  182.8220  178.4770  142.7100 N   0  0  0  0  0  2  0  0  0  0  0  0
  188.4210  177.9390  143.3550 N   0  0  0  0  0  0  0  0  0  0  0  0
  188.0880  179.1260  148.0700 C   0  0  0  0  0  2  0  0  0  0  0  0
  186.4760  178.2740  141.9930 C   0  0  0  0  0  0  0  0  0  0  0  0
  187.2990  178.5110  140.8910 C   0  0  0  0  0  3  0  0  0  0  0  0
  184.2210  178.8900  145.2670 C   0  0  0  0  0  3  0  0  0  0  0  0
  186.0640  178.5670  146.7820 C   0  0  0  0  0  0  0  0  0  0  0  0
  186.6810  178.9040  147.9900 O   0  0  0  0  0  0  0  0  0  0  0  0
  179.4310  180.6860  139.5560 C   0  0  1  0  0  3  0  0  0  0  0  0
  180.0520  178.3410  140.1010 C   0  0  0  0  0  2  0  0  0  0  0  0
  180.4150  180.4920  143.1020 N   0  0  0  0  0  2  0  0  0  0  0  0
  179.6350  181.8360  138.5920 C   0  0  0  0  0  1  0  0  0  0  0  0
  180.2060  179.4650  139.0790 C   0  0  0  0  0  2  0  0  0  0  0  0
  180.2380  180.1160  141.8780 C   0  0  0  0  0  0  0  0  0  0  0  0
  180.6470  178.7300  141.4580 C   0  0  2  0  0  3  0  0  0  0  0  0
  179.8610  181.0830  140.8930 N   0  0  0  0  0  2  0  0  0  0  0  0
  1 11  1  0  0  0  0
  1 17  1  0  0  0  0
  2  7  1  6  0  0  0
  2  3  1  0  0  0  0
  3  9  2  0  0  0  0
  3 22  1  0  0  0  0
  4  5  2  0  0  0  0
  5 16  1  0  0  0  0
  6 13  1  0  0  0  0
  7 17  2  0  0  0  0
  8  1  2  0  0  0  0
  9  6  1  0  0  0  0
 10 15  1  0  0  0  0
 12 22  2  0  0  0  0
 14 19  1  0  0  0  0
 14 10  2  0  0  0  0
 15  2  1  0  0  0  0
 15 21  2  0  0  0  0
 16 10  1  0  0  0  0
 18 13  1  0  0  0  0
 19  7  1  0  0  0  0
 20  8  1  0  0  0  0
 20 19  2  0  0  0  0
 21 12  1  0  0  0  0
 22 23  1  0  0  0  0
 23 18  1  0  0  0  0
 24 27  1  6  0  0  0
 24 31  1  0  0  0  0
 25 30  1  0  0  0  0
 28 24  1  0  0  0  0
 28 25  1  0  0  0  0
 29 26  2  0  0  0  0
 30  5  1  6  0  0  0
 30 29  1  0  0  0  0
 31 29  1  0  0  0  0
M  END
>  <MODEL>
4

>  <REMARK>
 VINA RESULT:      -8.9      0.951      1.494
  Name = 
  1 active torsions:
  status: ('A' for Active; 'I' for Inactive)
    1  A    between atoms: C_9  and  C_22
                            x       y       z     vdW  Elec       q    Type
                         _______ _______ _______ _____ _____    ______ ____

>  <TORSDO>
F 1

$$$$
=
 OpenBabel11052413123D

 31 35  0  0  1  0  0  0  0  0999 V2000
  190.6110  177.1020  145.7750 C   0  0  0  0  0  0  0  0  0  0  0  0
  187.8550  177.1760  143.2160 C   0  0  2  0  0  3  0  0  0  0  0  0
  186.7210  177.7280  144.0430 C   0  0  0  0  0  0  0  0  0  0  0  0
  191.1660  176.6740  139.0570 O   0  0  0  0  0  0  0  0  0  0  0  0
  190.0410  177.0640  138.6410 C   0  0  0  0  0  0  0  0  0  0  0  0
  185.0480  177.2880  145.8530 C   0  0  0  0  0  2  0  0  0  0  0  0
  189.2230  177.1910  143.8490 C   0  0  0  0  0  0  0  0  0  0  0  0
  191.7500  176.9600  144.9770 C   0  0  0  0  0  3  0  0  0  0  0  0
  186.3220  177.0260  145.1100 C   0  0  0  0  0  3  0  0  0  0  0  0
  189.0790  177.3400  140.9890 C   0  0  0  0  0  0  0  0  0  0  0  0
  190.7420  177.1280  147.2550 C   0  0  0  0  0  1  0  0  0  0  0  0
  186.0410  179.1890  142.2460 N   0  0  0  0  0  0  0  0  0  0  0  0
  185.0450  178.6280  146.5770 C   0  0  0  0  0  2  0  0  0  0  0  0
  190.2010  177.0380  141.5810 N   0  0  0  0  0  0  0  0  0  0  0  0
  187.9120  177.7180  141.8100 C   0  0  0  0  0  0  0  0  0  0  0  0
  188.9890  177.3880  139.5570 N   0  0  0  0  0  2  0  0  0  0  0  0
  189.3820  177.1990  145.2010 N   0  0  0  0  0  0  0  0  0  0  0  0
  185.3050  179.8300  145.6680 C   0  0  0  0  0  2  0  0  0  0  0  0
  190.3480  177.0410  143.0120 C   0  0  0  0  0  0  0  0  0  0  0  0
  191.6140  176.9280  143.5880 C   0  0  0  0  0  3  0  0  0  0  0  0
  187.0350  178.6280  141.3750 C   0  0  0  0  0  3  0  0  0  0  0  0
  185.9090  178.8450  143.4920 C   0  0  0  0  0  0  0  0  0  0  0  0
  185.0200  179.5650  144.2960 O   0  0  0  0  0  0  0  0  0  0  0  0
  186.9450  177.3250  136.2430 C   0  0  1  0  0  3  0  0  0  0  0  0
  189.0560  178.4930  136.8440 C   0  0  0  0  0  2  0  0  0  0  0  0
  189.6440  174.8390  136.5810 N   0  0  0  0  0  2  0  0  0  0  0  0
  185.4770  177.1580  136.5730 C   0  0  0  0  0  1  0  0  0  0  0  0
  187.5610  178.3930  137.1370 C   0  0  0  0  0  2  0  0  0  0  0  0
  189.0440  175.9820  136.6400 C   0  0  0  0  0  0  0  0  0  0  0  0
  189.7800  177.1830  137.1700 C   0  0  2  0  0  3  0  0  0  0  0  0
  187.6340  176.0490  136.4100 N   0  0  0  0  0  2  0  0  0  0  0  0
  1 11  1  0  0  0  0
  2 15  1  6  0  0  0
  2  7  1  0  0  0  0
  2  3  1  0  0  0  0
  3  9  2  0  0  0  0
  5  4  2  0  0  0  0
  5 16  1  0  0  0  0
  6 13  1  0  0  0  0
  7 17  2  0  0  0  0
  8  1  2  0  0  0  0
  9  6  1  0  0  0  0
 10 14  2  0  0  0  0
 10 15  1  0  0  0  0
 12 22  2  0  0  0  0
 14 19  1  0  0  0  0
 16 10  1  0  0  0  0
 17  1  1  0  0  0  0
 18 13  1  0  0  0  0
 19 20  2  0  0  0  0
 19  7  1  0  0  0  0
 20  8  1  0  0  0  0
 21 15  2  0  0  0  0
 21 12  1  0  0  0  0
 22  3  1  0  0  0  0
 22 23  1  0  0  0  0
 23 18  1  0  0  0  0
 24 31  1  0  0  0  0
 24 27  1  1  0  0  0
 24 28  1  0  0  0  0
 25 28  1  0  0  0  0
 25 30  1  0  0  0  0
 26 29  2  0  0  0  0
 29 30  1  0  0  0  0
 30  5  1  1  0  0  0
 31 29  1  0  0  0  0
M  END
>  <MODEL>
5

>  <REMARK>
 VINA RESULT:      -8.8      3.882      6.355
  Name = 
  1 active torsions:
  status: ('A' for Active; 'I' for Inactive)
    1  A    between atoms: C_9  and  C_22
                            x       y       z     vdW  Elec       q    Type
                         _______ _______ _______ _____ _____    ______ ____

>  <TORSDO>
F 1

$$$$
=
 OpenBabel11052413123D

 31 35  0  0  1  0  0  0  0  0999 V2000
  188.1150  176.4840  136.0270 C   0  0  0  0  0  0  0  0  0  0  0  0
  190.7210  175.9670  138.6900 C   0  0  2  0  0  3  0  0  0  0  0  0
  191.9270  175.6490  137.8430 C   0  0  0  0  0  0  0  0  0  0  0  0
  187.8400  178.3190  142.5220 O   0  0  0  0  0  0  0  0  0  0  0  0
  189.0370  178.2260  142.9070 C   0  0  0  0  0  0  0  0  0  0  0  0
  193.0680  173.9670  136.3800 C   0  0  0  0  0  2  0  0  0  0  0  0
  189.4920  176.4490  137.9630 C   0  0  0  0  0  0  0  0  0  0  0  0
  187.1000  177.1370  136.7320 C   0  0  0  0  0  3  0  0  0  0  0  0
  191.8730  174.5690  137.0540 C   0  0  0  0  0  3  0  0  0  0  0  0
  189.8670  177.3250  140.6680 C   0  0  0  0  0  0  0  0  0  0  0  0
  187.9210  176.1430  134.5940 C   0  0  0  0  0  1  0  0  0  0  0  0
  193.3340  177.0550  139.2090 N   0  0  0  0  0  0  0  0  0  0  0  0
  193.6690  174.8720  135.3120 C   0  0  0  0  0  2  0  0  0  0  0  0
  188.7020  177.4380  140.0900 N   0  0  0  0  0  0  0  0  0  0  0  0
  191.0180  176.8480  139.8770 C   0  0  0  0  0  0  0  0  0  0  0  0
  190.0560  177.7330  142.0300 N   0  0  0  0  0  2  0  0  0  0  0  0
  189.2730  176.1440  136.6540 N   0  0  0  0  0  0  0  0  0  0  0  0
  194.0740  176.2560  135.8210 C   0  0  0  0  0  2  0  0  0  0  0  0
  188.4870  177.1000  138.7080 C   0  0  0  0  0  0  0  0  0  0  0  0
  187.2890  177.4430  138.0800 C   0  0  0  0  0  3  0  0  0  0  0  0
  192.2490  177.3110  140.1140 C   0  0  0  0  0  3  0  0  0  0  0  0
  193.2080  176.3490  138.1260 C   0  0  0  0  0  0  0  0  0  0  0  0
  194.2810  176.2930  137.2320 O   0  0  0  0  0  0  0  0  0  0  0  0
  191.3120  176.8760  145.8060 C   0  0  1  0  0  3  0  0  0  0  0  0
  190.9170  178.8950  144.4100 C   0  0  0  0  0  2  0  0  0  0  0  0
  187.6850  177.4680  145.5430 N   0  0  0  0  0  2  0  0  0  0  0  0
  192.0370  175.5500  145.8990 C   0  0  0  0  0  1  0  0  0  0  0  0
  191.7130  177.5980  144.5260 C   0  0  0  0  0  2  0  0  0  0  0  0
  188.9490  177.6060  145.3100 C   0  0  0  0  0  0  0  0  0  0  0  0
  189.4130  178.6230  144.3020 C   0  0  2  0  0  3  0  0  0  0  0  0
  189.8710  176.6520  145.8440 N   0  0  0  0  0  2  0  0  0  0  0  0
  1 17  2  0  0  0  0
  1  8  1  0  0  0  0
  2  3  1  6  0  0  0
  2 15  1  0  0  0  0
  3 22  1  0  0  0  0
  4  5  2  0  0  0  0
  6  9  1  0  0  0  0
  7  2  1  0  0  0  0
  7 19  2  0  0  0  0
  8 20  2  0  0  0  0
  9  3  2  0  0  0  0
 10 16  1  0  0  0  0
 11  1  1  0  0  0  0
 12 21  1  0  0  0  0
 13 18  1  0  0  0  0
 13  6  1  0  0  0  0
 14 10  2  0  0  0  0
 15 21  2  0  0  0  0
 15 10  1  0  0  0  0
 16  5  1  0  0  0  0
 17  7  1  0  0  0  0
 18 23  1  0  0  0  0
 19 14  1  0  0  0  0
 20 19  1  0  0  0  0
 22 12  2  0  0  0  0
 23 22  1  0  0  0  0
 24 31  1  0  0  0  0
 24 27  1  6  0  0  0
 25 28  1  0  0  0  0
 28 24  1  0  0  0  0
 29 26  2  0  0  0  0
 29 31  1  0  0  0  0
 30  5  1  6  0  0  0
 30 25  1  0  0  0  0
 30 29  1  0  0  0  0
M  END
>  <MODEL>
6

>  <REMARK>
 VINA RESULT:      -8.7      5.224      9.686
  Name = 
  1 active torsions:
  status: ('A' for Active; 'I' for Inactive)
    1  A    between atoms: C_9  and  C_22
                            x       y       z     vdW  Elec       q    Type
                         _______ _______ _______ _____ _____    ______ ____

>  <TORSDO>
F 1

$$$$
=
 OpenBabel11052413123D

 31 35  0  0  1  0  0  0  0  0999 V2000
  187.1390  177.9890  147.4840 C   0  0  0  0  0  0  0  0  0  0  0  0
  187.7950  178.4630  143.8100 C   0  0  2  0  0  3  0  0  0  0  0  0
  189.2150  177.9650  143.7130 C   0  0  0  0  0  0  0  0  0  0  0  0
  182.6310  178.9800  142.5520 O   0  0  0  0  0  0  0  0  0  0  0  0
  183.2900  178.7590  141.4990 C   0  0  0  0  0  0  0  0  0  0  0  0
  191.6260  178.4170  144.2160 C   0  0  0  0  0  2  0  0  0  0  0  0
  187.0870  178.2360  145.1210 C   0  0  0  0  0  0  0  0  0  0  0  0
  185.7460  178.0780  147.5470 C   0  0  0  0  0  3  0  0  0  0  0  0
  190.1540  178.6040  144.4210 C   0  0  0  0  0  3  0  0  0  0  0  0
  185.4820  178.3720  142.7490 C   0  0  0  0  0  0  0  0  0  0  0  0
  187.9280  177.8110  148.7300 C   0  0  0  0  0  1  0  0  0  0  0  0
  188.7210  176.7640  141.6790 N   0  0  0  0  0  0  0  0  0  0  0  0
  192.1090  177.0240  144.5980 C   0  0  0  0  0  2  0  0  0  0  0  0
  184.9340  178.4910  143.9270 N   0  0  0  0  0  0  0  0  0  0  0  0
  186.9190  178.0510  142.6530 C   0  0  0  0  0  0  0  0  0  0  0  0
  184.6910  178.4690  141.5550 N   0  0  0  0  0  2  0  0  0  0  0  0
  187.7760  178.0830  146.2860 N   0  0  0  0  0  0  0  0  0  0  0  0
  191.3920  175.8910  143.8630 C   0  0  0  0  0  2  0  0  0  0  0  0
  185.6810  178.3380  145.1480 C   0  0  0  0  0  0  0  0  0  0  0  0
  185.0160  178.2550  146.3710 C   0  0  0  0  0  3  0  0  0  0  0  0
  187.3860  177.2900  141.6590 C   0  0  0  0  0  3  0  0  0  0  0  0
  189.5660  177.0010  142.6370 C   0  0  0  0  0  0  0  0  0  0  0  0
  190.7840  176.3130  142.6440 O   0  0  0  0  0  0  0  0  0  0  0  0
  183.3140  176.7180  138.1470 C   0  0  1  0  0  3  0  0  0  0  0  0
  181.7810  177.5450  139.9210 C   0  0  0  0  0  2  0  0  0  0  0  0
  184.1780  180.2070  138.9560 N   0  0  0  0  0  2  0  0  0  0  0  0
  184.2450  175.5990  137.7280 C   0  0  0  0  0  1  0  0  0  0  0  0
  182.6550  176.3750  139.4760 C   0  0  0  0  0  2  0  0  0  0  0  0
  183.6010  179.0550  139.0530 C   0  0  0  0  0  0  0  0  0  0  0  0
  182.6140  178.8080  140.1630 C   0  0  2  0  0  3  0  0  0  0  0  0
  184.0610  177.9670  138.2470 N   0  0  0  0  0  2  0  0  0  0  0  0
  1  8  1  0  0  0  0
  1 11  1  0  0  0  0
  2 15  1  6  0  0  0
  2  7  1  0  0  0  0
  3  2  1  0  0  0  0
  3  9  2  0  0  0  0
  5 16  1  0  0  0  0
  5  4  2  0  0  0  0
  6  9  1  0  0  0  0
  6 13  1  0  0  0  0
  7 19  2  0  0  0  0
  7 17  1  0  0  0  0
 10 14  2  0  0  0  0
 12 22  2  0  0  0  0
 14 19  1  0  0  0  0
 15 10  1  0  0  0  0
 16 10  1  0  0  0  0
 17  1  2  0  0  0  0
 18 13  1  0  0  0  0
 19 20  1  0  0  0  0
 20  8  2  0  0  0  0
 21 12  1  0  0  0  0
 21 15  2  0  0  0  0
 22 23  1  0  0  0  0
 22  3  1  0  0  0  0
 23 18  1  0  0  0  0
 24 27  1  1  0  0  0
 24 31  1  0  0  0  0
 24 28  1  0  0  0  0
 25 30  1  0  0  0  0
 26 29  2  0  0  0  0
 28 25  1  0  0  0  0
 29 30  1  0  0  0  0
 30  5  1  1  0  0  0
 31 29  1  0  0  0  0
M  END
>  <MODEL>
7

>  <REMARK>
 VINA RESULT:      -8.6      2.608      4.373
  Name = 
  1 active torsions:
  status: ('A' for Active; 'I' for Inactive)
    1  A    between atoms: C_9  and  C_22
                            x       y       z     vdW  Elec       q    Type
                         _______ _______ _______ _____ _____    ______ ____

>  <TORSDO>
F 1

$$$$
=
 OpenBabel11052413123D

 31 35  0  0  1  0  0  0  0  0999 V2000
  190.7380  177.2410  144.9960 C   0  0  0  0  0  0  0  0  0  0  0  0
  187.6270  177.4440  142.8920 C   0  0  2  0  0  3  0  0  0  0  0  0
  186.6170  177.8700  143.9260 C   0  0  0  0  0  0  0  0  0  0  0  0
  190.2860  177.4690  138.2600 O   0  0  0  0  0  0  0  0  0  0  0  0
  189.1010  177.8500  138.0560 C   0  0  0  0  0  0  0  0  0  0  0  0
  185.2470  177.1940  145.9110 C   0  0  0  0  0  2  0  0  0  0  0  0
  189.0730  177.4550  143.3140 C   0  0  0  0  0  0  0  0  0  0  0  0
  191.7470  177.2210  144.0290 C   0  0  0  0  0  3  0  0  0  0  0  0
  186.4020  177.0550  144.9660 C   0  0  0  0  0  3  0  0  0  0  0  0
  188.4970  177.8660  140.5350 C   0  0  0  0  0  0  0  0  0  0  0  0
  191.0900  177.1330  146.4360 C   0  0  0  0  0  1  0  0  0  0  0  0
  185.6360  179.4640  142.4030 N   0  0  0  0  0  0  0  0  0  0  0  0
  185.3180  178.4590  146.7570 C   0  0  0  0  0  2  0  0  0  0  0  0
  189.7030  177.5540  140.9230 N   0  0  0  0  0  0  0  0  0  0  0  0
  187.4580  178.1180  141.5530 C   0  0  0  0  0  0  0  0  0  0  0  0
  188.1920  178.0440  139.1450 N   0  0  0  0  0  2  0  0  0  0  0  0
  189.4340  177.3420  144.6220 N   0  0  0  0  0  0  0  0  0  0  0  0
  185.4080  179.7500  145.9430 C   0  0  0  0  0  2  0  0  0  0  0  0
  190.0640  177.4290  142.3100 C   0  0  0  0  0  0  0  0  0  0  0  0
  191.4040  177.3140  142.6790 C   0  0  0  0  0  3  0  0  0  0  0  0
  186.5010  179.0280  141.3440 C   0  0  0  0  0  3  0  0  0  0  0  0
  185.7030  179.0000  143.6150 C   0  0  0  0  0  0  0  0  0  0  0  0
  184.9270  179.6050  144.6080 O   0  0  0  0  0  0  0  0  0  0  0  0
  186.2710  176.5320  135.6770 C   0  0  1  0  0  3  0  0  0  0  0  0
  187.1820  178.6270  136.6570 C   0  0  0  0  0  2  0  0  0  0  0  0
  189.9490  176.4620  135.4660 N   0  0  0  0  0  2  0  0  0  0  0  0
  185.3260  175.3680  135.8860 C   0  0  0  0  0  1  0  0  0  0  0  0
  186.1690  177.5020  136.8470 C   0  0  0  0  0  2  0  0  0  0  0  0
  188.7690  176.8700  135.7980 C   0  0  0  0  0  0  0  0  0  0  0  0
  188.6190  178.0960  136.6590 C   0  0  2  0  0  3  0  0  0  0  0  0
  187.6360  176.0370  135.5320 N   0  0  0  0  0  2  0  0  0  0  0  0
  1 11  1  0  0  0  0
  2 15  1  6  0  0  0
  2  7  1  0  0  0  0
  2  3  1  0  0  0  0
  3  9  2  0  0  0  0
  5  4  2  0  0  0  0
  5 16  1  0  0  0  0
  6 13  1  0  0  0  0
  7 17  2  0  0  0  0
  8  1  2  0  0  0  0
  9  6  1  0  0  0  0
 10 14  2  0  0  0  0
 10 15  1  0  0  0  0
 12 22  2  0  0  0  0
 14 19  1  0  0  0  0
 16 10  1  0  0  0  0
 17  1  1  0  0  0  0
 18 13  1  0  0  0  0
 19 20  2  0  0  0  0
 19  7  1  0  0  0  0
 20  8  1  0  0  0  0
 21 15  2  0  0  0  0
 21 12  1  0  0  0  0
 22  3  1  0  0  0  0
 22 23  1  0  0  0  0
 23 18  1  0  0  0  0
 24 27  1  1  0  0  0
 24 28  1  0  0  0  0
 25 30  1  0  0  0  0
 25 28  1  0  0  0  0
 26 29  2  0  0  0  0
 29 30  1  0  0  0  0
 30  5  1  1  0  0  0
 31 24  1  0  0  0  0
 31 29  1  0  0  0  0
M  END
>  <MODEL>
8

>  <REMARK>
 VINA RESULT:      -8.3      3.863      5.954
  Name = 
  1 active torsions:
  status: ('A' for Active; 'I' for Inactive)
    1  A    between atoms: C_9  and  C_22
                            x       y       z     vdW  Elec       q    Type
                         _______ _______ _______ _____ _____    ______ ____

>  <TORSDO>
F 1

$$$$
=
 OpenBabel11052413123D

 31 35  0  0  1  0  0  0  0  0999 V2000
  189.5580  178.0360  142.4800 C   0  0  0  0  0  0  0  0  0  0  0  0
  186.0020  177.8780  143.6980 C   0  0  2  0  0  3  0  0  0  0  0  0
  186.2090  178.0250  145.1840 C   0  0  0  0  0  0  0  0  0  0  0  0
  183.8950  178.7850  138.8750 O   0  0  0  0  0  0  0  0  0  0  0  0
  183.0080  178.9690  139.7520 C   0  0  0  0  0  0  0  0  0  0  0  0
  186.9960  176.9440  147.3010 C   0  0  0  0  0  2  0  0  0  0  0  0
  187.2070  178.1040  142.8210 C   0  0  0  0  0  0  0  0  0  0  0  0
  189.3910  178.2800  141.1140 C   0  0  0  0  0  3  0  0  0  0  0  0
  186.9380  177.0950  145.8110 C   0  0  0  0  0  3  0  0  0  0  0  0
  184.6270  178.6560  141.7010 C   0  0  0  0  0  0  0  0  0  0  0  0
  190.9240  177.8620  143.0400 C   0  0  0  0  0  1  0  0  0  0  0  0
  184.3480  179.5540  145.3530 N   0  0  0  0  0  0  0  0  0  0  0  0
  187.6720  178.1210  147.9940 C   0  0  0  0  0  2  0  0  0  0  0  0
  185.6710  178.5270  140.9290 N   0  0  0  0  0  0  0  0  0  0  0  0
  184.8080  178.6290  143.1650 C   0  0  0  0  0  0  0  0  0  0  0  0
  183.3260  178.9020  141.1470 N   0  0  0  0  0  2  0  0  0  0  0  0
  188.4740  177.9400  143.2960 N   0  0  0  0  0  0  0  0  0  0  0  0
  187.0310  179.4760  147.6900 C   0  0  0  0  0  2  0  0  0  0  0  0
  187.0000  178.3430  141.4470 C   0  0  0  0  0  0  0  0  0  0  0  0
  188.1040  178.4320  140.5980 C   0  0  0  0  0  3  0  0  0  0  0  0
  184.0360  179.3720  143.9640 C   0  0  0  0  0  3  0  0  0  0  0  0
  185.3730  179.0010  145.9310 C   0  0  0  0  0  0  0  0  0  0  0  0
  185.6800  179.3680  147.2450 O   0  0  0  0  0  0  0  0  0  0  0  0
  180.7200  178.4340  136.6090 C   0  0  1  0  0  3  0  0  0  0  0  0
  180.8380  177.9520  139.0450 C   0  0  0  0  0  2  0  0  0  0  0  0
  181.8700  181.4530  138.3800 N   0  0  0  0  0  2  0  0  0  0  0  0
  181.1100  177.9580  135.2260 C   0  0  0  0  0  1  0  0  0  0  0  0
  181.1700  177.4210  137.6530 C   0  0  0  0  0  2  0  0  0  0  0  0
  181.5320  180.2200  138.1950 C   0  0  0  0  0  0  0  0  0  0  0  0
  181.5940  179.2510  139.3450 C   0  0  2  0  0  3  0  0  0  0  0  0
  181.3150  179.7410  136.8650 N   0  0  0  0  0  2  0  0  0  0  0  0
  1 11  1  0  0  0  0
  1 17  1  0  0  0  0
  2  7  1  6  0  0  0
  2  3  1  0  0  0  0
  3  9  2  0  0  0  0
  3 22  1  0  0  0  0
  4  5  2  0  0  0  0
  5 16  1  0  0  0  0
  6 13  1  0  0  0  0
  7 17  2  0  0  0  0
  8  1  2  0  0  0  0
  9  6  1  0  0  0  0
 10 15  1  0  0  0  0
 12 22  2  0  0  0  0
 14 19  1  0  0  0  0
 14 10  2  0  0  0  0
 15  2  1  0  0  0  0
 15 21  2  0  0  0  0
 16 10  1  0  0  0  0
 18 13  1  0  0  0  0
 19  7  1  0  0  0  0
 20  8  1  0  0  0  0
 20 19  2  0  0  0  0
 21 12  1  0  0  0  0
 22 23  1  0  0  0  0
 23 18  1  0  0  0  0
 24 27  1  6  0  0  0
 24 31  1  0  0  0  0
 24 28  1  0  0  0  0
 25 30  1  0  0  0  0
 28 25  1  0  0  0  0
 29 26  2  0  0  0  0
 29 30  1  0  0  0  0
 30  5  1  6  0  0  0
 31 29  1  0  0  0  0
M  END
>  <MODEL>
9

>  <REMARK>
 VINA RESULT:      -8.3      1.757      1.982
  Name = 
  1 active torsions:
  status: ('A' for Active; 'I' for Inactive)
    1  A    between atoms: C_9  and  C_22
                            x       y       z     vdW  Elec       q    Type
                         _______ _______ _______ _____ _____    ______ ____

>  <TORSDO>
F 1

$$$$
