=
 OpenBabel11052412233D

 30 32  0  0  1  0  0  0  0  0999 V2000
  184.1560  178.4480  142.6410 C   0  0  0  0  0  0  0  0  0  0  0  0
  183.0020  178.8100  143.3410 C   0  0  0  0  0  3  0  0  0  0  0  0
  184.0630  178.2740  141.1620 C   0  0  0  0  0  1  0  0  0  0  0  0
  185.4140  178.4630  144.7340 C   0  0  0  0  0  0  0  0  0  0  0  0
  183.0440  178.9970  144.7220 C   0  0  0  0  0  3  0  0  0  0  0  0
  185.3730  178.2620  143.3310 C   0  0  0  0  0  0  0  0  0  0  0  0
  184.2450  178.8280  145.4120 C   0  0  0  0  0  3  0  0  0  0  0  0
  188.5270  177.6970  147.9450 C   0  0  0  0  0  3  0  0  0  0  0  0
  189.3090  177.9110  146.6850 C   0  0  0  0  0  2  0  0  0  0  0  0
  187.2480  178.0800  148.0680 C   0  0  0  0  0  3  0  0  0  0  0  0
  187.3030  176.9530  145.3900 C   0  0  0  0  0  2  0  0  0  0  0  0
  186.4610  178.8110  147.0040 C   0  0  0  0  0  2  0  0  0  0  0  0
  188.8290  176.9890  145.5550 C   0  0  1  0  0  3  0  0  0  0  0  0
  186.6660  178.3350  145.5500 C   0  0  2  0  0  3  0  0  0  0  0  0
  189.4830  177.3870  144.2440 C   0  0  0  0  0  2  0  0  0  0  0  0
  191.6370  177.8890  143.1410 C   0  0  0  0  0  2  0  0  0  0  0  0
  190.9230  177.8100  144.4770 C   0  0  0  0  0  3  0  0  0  0  0  0
  191.1580  179.1560  143.8190 C   0  0  0  0  0  2  0  0  0  0  0  0
  186.6080  177.8700  142.5720 C   0  0  0  0  0  2  0  0  0  0  0  0
  187.0060  178.9440  141.6780 N   0  0  0  0  0  2  0  0  0  0  0  0
  188.1890  178.4800  140.9710 C   0  0  0  0  0  2  0  0  0  0  0  0
  187.8120  177.9340  139.6010 C   0  0  1  0  0  3  0  0  0  0  0  0
  186.5580  178.4000  139.2520 F   0  0  0  0  0  0  0  0  0  0  0  0
  188.8080  178.3270  138.5530 C   0  0  0  0  0  0  0  0  0  0  0  0
  189.0730  179.5040  138.3560 O   0  0  0  0  0  0  0  0  0  0  0  0
  189.4720  177.2660  137.7360 C   0  0  0  0  0  2  0  0  0  0  0  0
  191.3080  176.9970  139.4390 C   0  0  0  0  0  1  0  0  0  0  0  0
  190.2440  176.2880  138.6150 C   0  0  2  0  0  3  0  0  0  0  0  0
  192.3700  175.1830  137.7780 C   0  0  0  0  0  1  0  0  0  0  0  0
  190.8480  175.1620  137.7810 C   0  0  0  0  0  2  0  0  0  0  0  0
  1  6  2  0  0  0  0
  1  2  1  0  0  0  0
  2  5  2  0  0  0  0
  3  1  1  0  0  0  0
  4  7  2  0  0  0  0
  5  7  1  0  0  0  0
  6  4  1  0  0  0  0
  8 10  2  0  0  0  0
  9  8  1  0  0  0  0
 11 14  1  0  0  0  0
 11 13  1  0  0  0  0
 12 10  1  0  0  0  0
 13 15  1  6  0  0  0
 13  9  1  0  0  0  0
 14  4  1  1  0  0  0
 14 12  1  0  0  0  0
 15 17  1  0  0  0  0
 16 18  1  0  0  0  0
 16 17  1  0  0  0  0
 18 17  1  0  0  0  0
 19  6  1  0  0  0  0
 20 19  1  0  0  0  0
 21 20  1  0  0  0  0
 22 23  1  6  0  0  0
 22 21  1  0  0  0  0
 24 22  1  0  0  0  0
 25 24  2  0  0  0  0
 26 24  1  0  0  0  0
 26 28  1  0  0  0  0
 28 27  1  6  0  0  0
 29 30  1  0  0  0  0
 30 28  1  0  0  0  0
M  END
>  <MODEL>
1

>  <REMARK>
 VINA RESULT:      -8.8      0.000      0.000
  Name = 
  11 active torsions:
  status: ('A' for Active; 'I' for Inactive)
    1  A    between atoms: C_1  and  N_4
    2  A    between atoms: C_1  and  C_27
    3  A    between atoms: N_4  and  C_5
    4  A    between atoms: C_5  and  C_22
    5  A    between atoms: C_8  and  C_12
    6  A    between atoms: C_8  and  C_27
    7  A    between atoms: C_9  and  C_12
    8  A    between atoms: C_9  and  C_21
    9  A    between atoms: C_15  and  C_16
   10  A    between atoms: C_16  and  C_25
   11  A    between atoms: C_19  and  C_29
                            x       y       z     vdW  Elec       q    Type
                         _______ _______ _______ _____ _____    ______ ____

>  <TORSDO>
F 11

$$$$
=
 OpenBabel11052412233D

 30 32  0  0  1  0  0  0  0  0999 V2000
  184.2290  178.3890  142.6960 C   0  0  0  0  0  0  0  0  0  0  0  0
  183.0680  178.8140  143.3480 C   0  0  0  0  0  3  0  0  0  0  0  0
  184.1650  178.1350  141.2270 C   0  0  0  0  0  1  0  0  0  0  0  0
  185.4380  178.4890  144.8150 C   0  0  0  0  0  0  0  0  0  0  0  0
  183.0830  179.0760  144.7180 C   0  0  0  0  0  3  0  0  0  0  0  0
  185.4250  178.2120  143.4240 C   0  0  0  0  0  0  0  0  0  0  0  0
  184.2650  178.9180  145.4440 C   0  0  0  0  0  3  0  0  0  0  0  0
  188.4600  177.8230  148.1350 C   0  0  0  0  0  3  0  0  0  0  0  0
  189.2760  177.9580  146.8840 C   0  0  0  0  0  2  0  0  0  0  0  0
  187.1870  178.2370  148.2080 C   0  0  0  0  0  3  0  0  0  0  0  0
  187.2800  176.9760  145.5910 C   0  0  0  0  0  2  0  0  0  0  0  0
  186.4400  178.9290  147.0890 C   0  0  0  0  0  2  0  0  0  0  0  0
  188.8010  176.9900  145.7910 C   0  0  1  0  0  3  0  0  0  0  0  0
  186.6690  178.3770  145.6660 C   0  0  2  0  0  3  0  0  0  0  0  0
  189.4950  177.3080  144.4780 C   0  0  0  0  0  2  0  0  0  0  0  0
  191.6830  177.8370  143.4590 C   0  0  0  0  0  2  0  0  0  0  0  0
  190.8640  177.9130  144.7330 C   0  0  0  0  0  3  0  0  0  0  0  0
  191.0330  179.1430  143.8640 C   0  0  0  0  0  2  0  0  0  0  0  0
  186.6670  177.7520  142.7180 C   0  0  0  0  0  2  0  0  0  0  0  0
  187.3020  178.8710  142.0440 N   0  0  0  0  0  2  0  0  0  0  0  0
  187.7100  178.3910  140.7340 C   0  0  0  0  0  2  0  0  0  0  0  0
  189.1420  177.8730  140.7770 C   0  0  1  0  0  3  0  0  0  0  0  0
  189.1510  176.6040  141.3250 F   0  0  0  0  0  0  0  0  0  0  0  0
  189.7610  177.8390  139.4130 C   0  0  0  0  0  0  0  0  0  0  0  0
  190.8870  177.3920  139.2520 O   0  0  0  0  0  0  0  0  0  0  0  0
  188.9940  178.3700  138.2440 C   0  0  0  0  0  2  0  0  0  0  0  0
  189.1740  177.6740  135.8310 C   0  0  0  0  0  1  0  0  0  0  0  0
  188.7100  177.2740  137.2230 C   0  0  2  0  0  3  0  0  0  0  0  0
  186.3160  178.0950  137.4280 C   0  0  0  0  0  1  0  0  0  0  0  0
  187.2310  176.8960  137.2260 C   0  0  0  0  0  2  0  0  0  0  0  0
  1  2  2  0  0  0  0
  1  6  1  0  0  0  0
  2  5  1  0  0  0  0
  3  1  1  0  0  0  0
  4  7  1  0  0  0  0
  5  7  2  0  0  0  0
  6  4  2  0  0  0  0
  8 10  2  0  0  0  0
  9  8  1  0  0  0  0
 11 14  1  0  0  0  0
 11 13  1  0  0  0  0
 12 10  1  0  0  0  0
 13 15  1  6  0  0  0
 13  9  1  0  0  0  0
 14  4  1  1  0  0  0
 14 12  1  0  0  0  0
 15 17  1  0  0  0  0
 16 18  1  0  0  0  0
 16 17  1  0  0  0  0
 18 17  1  0  0  0  0
 19  6  1  0  0  0  0
 20 19  1  0  0  0  0
 21 22  1  0  0  0  0
 21 20  1  0  0  0  0
 22 23  1  6  0  0  0
 24 22  1  0  0  0  0
 25 24  2  0  0  0  0
 26 24  1  0  0  0  0
 28 27  1  6  0  0  0
 28 30  1  0  0  0  0
 28 26  1  0  0  0  0
 30 29  1  0  0  0  0
M  END
>  <MODEL>
2

>  <REMARK>
 VINA RESULT:      -8.7      1.399      1.964
  Name = 
  11 active torsions:
  status: ('A' for Active; 'I' for Inactive)
    1  A    between atoms: C_1  and  N_4
    2  A    between atoms: C_1  and  C_27
    3  A    between atoms: N_4  and  C_5
    4  A    between atoms: C_5  and  C_22
    5  A    between atoms: C_8  and  C_12
    6  A    between atoms: C_8  and  C_27
    7  A    between atoms: C_9  and  C_12
    8  A    between atoms: C_9  and  C_21
    9  A    between atoms: C_15  and  C_16
   10  A    between atoms: C_16  and  C_25
   11  A    between atoms: C_19  and  C_29
                            x       y       z     vdW  Elec       q    Type
                         _______ _______ _______ _____ _____    ______ ____

>  <TORSDO>
F 11

$$$$
=
 OpenBabel11052412233D

 30 32  0  0  1  0  0  0  0  0999 V2000
  185.1840  178.5220  145.6870 C   0  0  0  0  0  0  0  0  0  0  0  0
  185.4310  178.6700  147.0550 C   0  0  0  0  0  3  0  0  0  0  0  0
  183.8480  178.9270  145.1600 C   0  0  0  0  0  1  0  0  0  0  0  0
  187.4470  177.6570  145.3870 C   0  0  0  0  0  0  0  0  0  0  0  0
  186.6690  178.3170  147.5910 C   0  0  0  0  0  3  0  0  0  0  0  0
  186.1860  178.0040  144.8390 C   0  0  0  0  0  0  0  0  0  0  0  0
  187.6720  177.8180  146.7580 C   0  0  0  0  0  3  0  0  0  0  0  0
  190.2980  176.4350  142.0730 C   0  0  0  0  0  3  0  0  0  0  0  0
  191.1110  176.3750  143.3310 C   0  0  0  0  0  2  0  0  0  0  0  0
  188.9570  176.4460  142.0870 C   0  0  0  0  0  3  0  0  0  0  0  0
  189.6150  178.2440  144.2730 C   0  0  0  0  0  2  0  0  0  0  0  0
  188.1070  176.3450  143.3330 C   0  0  0  0  0  2  0  0  0  0  0  0
  191.0380  177.6930  144.1170 C   0  0  1  0  0  3  0  0  0  0  0  0
  188.5910  177.1440  144.5620 C   0  0  2  0  0  3  0  0  0  0  0  0
  191.6820  177.5210  145.4810 C   0  0  0  0  0  2  0  0  0  0  0  0
  192.3500  175.9080  147.2310 C   0  0  0  0  0  2  0  0  0  0  0  0
  191.5550  176.0830  145.9510 C   0  0  0  0  0  3  0  0  0  0  0  0
  190.8440  176.0590  147.2910 C   0  0  0  0  0  2  0  0  0  0  0  0
  185.9120  177.8450  143.3720 C   0  0  0  0  0  2  0  0  0  0  0  0
  185.8910  179.1450  142.7240 N   0  0  0  0  0  2  0  0  0  0  0  0
  186.0870  178.9060  141.3040 C   0  0  0  0  0  2  0  0  0  0  0  0
  184.7650  178.5500  140.6350 C   0  0  1  0  0  3  0  0  0  0  0  0
  183.7290  179.1610  141.3180 F   0  0  0  0  0  0  0  0  0  0  0  0
  184.7400  178.9690  139.1970 C   0  0  0  0  0  0  0  0  0  0  0  0
  184.4980  180.1280  138.8900 O   0  0  0  0  0  0  0  0  0  0  0  0
  185.0030  177.9540  138.1310 C   0  0  0  0  0  2  0  0  0  0  0  0
  186.3260  177.5810  136.0210 C   0  0  0  0  0  1  0  0  0  0  0  0
  186.2970  178.2570  137.3830 C   0  0  2  0  0  3  0  0  0  0  0  0
  188.0810  176.5100  137.8400 C   0  0  0  0  0  1  0  0  0  0  0  0
  187.5140  177.8710  138.2190 C   0  0  0  0  0  2  0  0  0  0  0  0
  1  2  1  0  0  0  0
  2  5  2  0  0  0  0
  3  1  1  0  0  0  0
  4  7  2  0  0  0  0
  6  4  1  0  0  0  0
  6  1  2  0  0  0  0
  7  5  1  0  0  0  0
  8 10  2  0  0  0  0
  8  9  1  0  0  0  0
  9 13  1  0  0  0  0
 10 12  1  0  0  0  0
 11 14  1  0  0  0  0
 12 14  1  0  0  0  0
 13 11  1  0  0  0  0
 13 15  1  1  0  0  0
 14  4  1  6  0  0  0
 15 17  1  0  0  0  0
 16 18  1  0  0  0  0
 17 16  1  0  0  0  0
 17 18  1  0  0  0  0
 19  6  1  0  0  0  0
 20 19  1  0  0  0  0
 21 20  1  0  0  0  0
 22 21  1  0  0  0  0
 22 23  1  1  0  0  0
 24 22  1  0  0  0  0
 25 24  2  0  0  0  0
 26 24  1  0  0  0  0
 28 27  1  6  0  0  0
 28 26  1  0  0  0  0
 28 30  1  0  0  0  0
 29 30  1  0  0  0  0
M  END
>  <MODEL>
3

>  <REMARK>
 VINA RESULT:      -8.5      2.103      3.981
  Name = 
  11 active torsions:
  status: ('A' for Active; 'I' for Inactive)
    1  A    between atoms: C_1  and  N_4
    2  A    between atoms: C_1  and  C_27
    3  A    between atoms: N_4  and  C_5
    4  A    between atoms: C_5  and  C_22
    5  A    between atoms: C_8  and  C_12
    6  A    between atoms: C_8  and  C_27
    7  A    between atoms: C_9  and  C_12
    8  A    between atoms: C_9  and  C_21
    9  A    between atoms: C_15  and  C_16
   10  A    between atoms: C_16  and  C_25
   11  A    between atoms: C_19  and  C_29
                            x       y       z     vdW  Elec       q    Type
                         _______ _______ _______ _____ _____    ______ ____

>  <TORSDO>
F 11

$$$$
=
 OpenBabel11052412233D

 30 32  0  0  1  0  0  0  0  0999 V2000
  185.1800  178.5630  145.5990 C   0  0  0  0  0  0  0  0  0  0  0  0
  185.4010  178.7020  146.9720 C   0  0  0  0  0  3  0  0  0  0  0  0
  183.8590  178.9820  145.0460 C   0  0  0  0  0  1  0  0  0  0  0  0
  187.4420  177.6790  145.3400 C   0  0  0  0  0  0  0  0  0  0  0  0
  186.6240  178.3360  147.5310 C   0  0  0  0  0  3  0  0  0  0  0  0
  186.1960  178.0410  144.7690 C   0  0  0  0  0  0  0  0  0  0  0  0
  187.6400  177.8320  146.7170 C   0  0  0  0  0  3  0  0  0  0  0  0
  190.3430  176.4350  142.0790 C   0  0  0  0  0  3  0  0  0  0  0  0
  191.1360  176.3820  143.3500 C   0  0  0  0  0  2  0  0  0  0  0  0
  189.0020  176.4470  142.0720 C   0  0  0  0  0  3  0  0  0  0  0  0
  189.6270  178.2580  144.2570 C   0  0  0  0  0  2  0  0  0  0  0  0
  188.1320  176.3540  143.3050 C   0  0  0  0  0  2  0  0  0  0  0  0
  191.0530  177.7040  144.1260 C   0  0  1  0  0  3  0  0  0  0  0  0
  188.5980  177.1600  144.5370 C   0  0  2  0  0  3  0  0  0  0  0  0
  191.6740  177.5400  145.5020 C   0  0  0  0  0  2  0  0  0  0  0  0
  192.3090  175.9450  147.2800 C   0  0  0  0  0  2  0  0  0  0  0  0
  191.5830  176.0940  145.9570 C   0  0  0  0  0  3  0  0  0  0  0  0
  190.7970  176.0300  147.2520 C   0  0  0  0  0  2  0  0  0  0  0  0
  185.9510  177.8910  143.2950 C   0  0  0  0  0  2  0  0  0  0  0  0
  185.8640  179.1980  142.6680 N   0  0  0  0  0  2  0  0  0  0  0  0
  185.7650  178.9670  141.2370 C   0  0  0  0  0  2  0  0  0  0  0  0
  184.3460  178.5640  140.8570 C   0  0  1  0  0  3  0  0  0  0  0  0
  183.4630  179.0630  141.7970 F   0  0  0  0  0  0  0  0  0  0  0  0
  183.9720  179.0630  139.4950 C   0  0  0  0  0  0  0  0  0  0  0  0
  184.4320  180.1120  139.0680 O   0  0  0  0  0  0  0  0  0  0  0  0
  183.0160  178.2730  138.6600 C   0  0  0  0  0  2  0  0  0  0  0  0
  183.5140  175.9080  137.9540 C   0  0  0  0  0  1  0  0  0  0  0  0
  183.0020  176.8050  139.0700 C   0  0  2  0  0  3  0  0  0  0  0  0
  180.7350  177.5580  139.9270 C   0  0  0  0  0  1  0  0  0  0  0  0
  181.6100  176.3790  139.5290 C   0  0  0  0  0  2  0  0  0  0  0  0
  1  2  1  0  0  0  0
  2  5  2  0  0  0  0
  3  1  1  0  0  0  0
  4  7  2  0  0  0  0
  6  4  1  0  0  0  0
  6  1  2  0  0  0  0
  7  5  1  0  0  0  0
  8  9  1  0  0  0  0
  9 13  1  0  0  0  0
 10  8  2  0  0  0  0
 10 12  1  0  0  0  0
 11 14  1  0  0  0  0
 12 14  1  0  0  0  0
 13 11  1  0  0  0  0
 13 15  1  1  0  0  0
 14  4  1  6  0  0  0
 15 17  1  0  0  0  0
 17 18  1  0  0  0  0
 17 16  1  0  0  0  0
 18 16  1  0  0  0  0
 19  6  1  0  0  0  0
 20 19  1  0  0  0  0
 21 20  1  0  0  0  0
 22 21  1  0  0  0  0
 22 23  1  1  0  0  0
 24 22  1  0  0  0  0
 25 24  2  0  0  0  0
 26 28  1  0  0  0  0
 26 24  1  0  0  0  0
 28 27  1  6  0  0  0
 28 30  1  0  0  0  0
 30 29  1  0  0  0  0
M  END
>  <MODEL>
4

>  <REMARK>
 VINA RESULT:      -8.3      2.446      5.061
  Name = 
  11 active torsions:
  status: ('A' for Active; 'I' for Inactive)
    1  A    between atoms: C_1  and  N_4
    2  A    between atoms: C_1  and  C_27
    3  A    between atoms: N_4  and  C_5
    4  A    between atoms: C_5  and  C_22
    5  A    between atoms: C_8  and  C_12
    6  A    between atoms: C_8  and  C_27
    7  A    between atoms: C_9  and  C_12
    8  A    between atoms: C_9  and  C_21
    9  A    between atoms: C_15  and  C_16
   10  A    between atoms: C_16  and  C_25
   11  A    between atoms: C_19  and  C_29
                            x       y       z     vdW  Elec       q    Type
                         _______ _______ _______ _____ _____    ______ ____

>  <TORSDO>
F 11

$$$$
=
 OpenBabel11052412233D

 30 32  0  0  1  0  0  0  0  0999 V2000
  185.2220  178.4280  145.5480 C   0  0  0  0  0  0  0  0  0  0  0  0
  185.3980  178.5230  146.9320 C   0  0  0  0  0  3  0  0  0  0  0  0
  183.8610  178.6710  144.9880 C   0  0  0  0  0  1  0  0  0  0  0  0
  187.5950  177.9120  145.2970 C   0  0  0  0  0  0  0  0  0  0  0  0
  186.6550  178.3170  147.4990 C   0  0  0  0  0  3  0  0  0  0  0  0
  186.3180  178.1120  144.7160 C   0  0  0  0  0  0  0  0  0  0  0  0
  187.7470  178.0170  146.6840 C   0  0  0  0  0  3  0  0  0  0  0  0
  191.5870  176.4300  143.7250 C   0  0  0  0  0  3  0  0  0  0  0  0
  190.8880  177.0110  142.5330 C   0  0  0  0  0  2  0  0  0  0  0  0
  191.2140  176.7130  144.9820 C   0  0  0  0  0  3  0  0  0  0  0  0
  188.6600  176.3590  143.6420 C   0  0  0  0  0  2  0  0  0  0  0  0
  190.1080  177.6730  145.3580 C   0  0  0  0  0  2  0  0  0  0  0  0
  189.4870  176.4110  142.3500 C   0  0  1  0  0  3  0  0  0  0  0  0
  188.8290  177.6190  144.4940 C   0  0  2  0  0  3  0  0  0  0  0  0
  188.7290  177.1770  141.2800 C   0  0  0  0  0  2  0  0  0  0  0  0
  188.9730  177.0700  138.8230 C   0  0  0  0  0  2  0  0  0  0  0  0
  189.6430  177.5030  140.1130 C   0  0  0  0  0  3  0  0  0  0  0  0
  188.9680  178.5300  139.2250 C   0  0  0  0  0  2  0  0  0  0  0  0
  186.1200  178.0070  143.2310 C   0  0  0  0  0  2  0  0  0  0  0  0
  185.8020  179.3120  142.6770 N   0  0  0  0  0  2  0  0  0  0  0  0
  185.6790  179.1350  141.2400 C   0  0  0  0  0  2  0  0  0  0  0  0
  184.2920  178.6170  140.8820 C   0  0  1  0  0  3  0  0  0  0  0  0
  183.3900  179.0200  141.8500 F   0  0  0  0  0  0  0  0  0  0  0  0
  183.8450  179.1070  139.5380 C   0  0  0  0  0  0  0  0  0  0  0  0
  184.3080  180.1350  139.0650 O   0  0  0  0  0  0  0  0  0  0  0  0
  182.8160  178.3330  138.7790 C   0  0  0  0  0  2  0  0  0  0  0  0
  183.1600  175.8620  138.4350 C   0  0  0  0  0  1  0  0  0  0  0  0
  182.6240  176.9390  139.3660 C   0  0  2  0  0  3  0  0  0  0  0  0
  180.5120  177.8730  140.4220 C   0  0  0  0  0  1  0  0  0  0  0  0
  181.1590  176.6900  139.7150 C   0  0  0  0  0  2  0  0  0  0  0  0
  1  2  1  0  0  0  0
  2  5  2  0  0  0  0
  3  1  1  0  0  0  0
  4  7  2  0  0  0  0
  6  4  1  0  0  0  0
  6  1  2  0  0  0  0
  7  5  1  0  0  0  0
  8 10  2  0  0  0  0
  9  8  1  0  0  0  0
 10 12  1  0  0  0  0
 11 14  1  0  0  0  0
 13 15  1  6  0  0  0
 13  9  1  0  0  0  0
 13 11  1  0  0  0  0
 14  4  1  1  0  0  0
 14 12  1  0  0  0  0
 16 18  1  0  0  0  0
 16 17  1  0  0  0  0
 17 15  1  0  0  0  0
 18 17  1  0  0  0  0
 19  6  1  0  0  0  0
 20 19  1  0  0  0  0
 21 20  1  0  0  0  0
 22 21  1  0  0  0  0
 22 23  1  1  0  0  0
 24 22  1  0  0  0  0
 25 24  2  0  0  0  0
 26 28  1  0  0  0  0
 26 24  1  0  0  0  0
 28 27  1  6  0  0  0
 28 30  1  0  0  0  0
 30 29  1  0  0  0  0
M  END
>  <MODEL>
5

>  <REMARK>
 VINA RESULT:      -8.2      2.117      5.186
  Name = 
  11 active torsions:
  status: ('A' for Active; 'I' for Inactive)
    1  A    between atoms: C_1  and  N_4
    2  A    between atoms: C_1  and  C_27
    3  A    between atoms: N_4  and  C_5
    4  A    between atoms: C_5  and  C_22
    5  A    between atoms: C_8  and  C_12
    6  A    between atoms: C_8  and  C_27
    7  A    between atoms: C_9  and  C_12
    8  A    between atoms: C_9  and  C_21
    9  A    between atoms: C_15  and  C_16
   10  A    between atoms: C_16  and  C_25
   11  A    between atoms: C_19  and  C_29
                            x       y       z     vdW  Elec       q    Type
                         _______ _______ _______ _____ _____    ______ ____

>  <TORSDO>
F 11

$$$$
=
 OpenBabel11052412233D

 30 32  0  0  1  0  0  0  0  0999 V2000
  185.1850  178.5320  145.5980 C   0  0  0  0  0  0  0  0  0  0  0  0
  185.3970  178.6570  146.9730 C   0  0  0  0  0  3  0  0  0  0  0  0
  183.8650  178.9530  145.0420 C   0  0  0  0  0  1  0  0  0  0  0  0
  187.4510  177.6600  145.3420 C   0  0  0  0  0  0  0  0  0  0  0  0
  186.6180  178.2900  147.5360 C   0  0  0  0  0  3  0  0  0  0  0  0
  186.2060  178.0230  144.7680 C   0  0  0  0  0  0  0  0  0  0  0  0
  187.6400  177.7980  146.7220 C   0  0  0  0  0  3  0  0  0  0  0  0
  190.3810  176.4740  142.0850 C   0  0  0  0  0  3  0  0  0  0  0  0
  191.1610  176.3920  143.3630 C   0  0  0  0  0  2  0  0  0  0  0  0
  189.0400  176.4920  142.0650 C   0  0  0  0  0  3  0  0  0  0  0  0
  189.6490  178.2540  144.2940 C   0  0  0  0  0  2  0  0  0  0  0  0
  188.1570  176.3760  143.2870 C   0  0  0  0  0  2  0  0  0  0  0  0
  191.0730  177.6980  144.1650 C   0  0  1  0  0  3  0  0  0  0  0  0
  188.6130  177.1540  144.5400 C   0  0  2  0  0  3  0  0  0  0  0  0
  191.6810  177.5030  145.5440 C   0  0  0  0  0  2  0  0  0  0  0  0
  192.3400  175.8450  147.2540 C   0  0  0  0  0  2  0  0  0  0  0  0
  191.5270  176.0600  145.9920 C   0  0  0  0  0  3  0  0  0  0  0  0
  190.8400  176.0320  147.3440 C   0  0  0  0  0  2  0  0  0  0  0  0
  185.9700  177.8880  143.2910 C   0  0  0  0  0  2  0  0  0  0  0  0
  185.7370  179.1950  142.7020 N   0  0  0  0  0  2  0  0  0  0  0  0
  185.6970  179.0020  141.2620 C   0  0  0  0  0  2  0  0  0  0  0  0
  184.2950  178.6110  140.8140 C   0  0  1  0  0  3  0  0  0  0  0  0
  183.3850  178.9820  141.7860 F   0  0  0  0  0  0  0  0  0  0  0  0
  183.9300  179.2510  139.5090 C   0  0  0  0  0  0  0  0  0  0  0  0
  184.5550  180.2150  139.0920 O   0  0  0  0  0  0  0  0  0  0  0  0
  182.7830  178.7070  138.7200 C   0  0  0  0  0  2  0  0  0  0  0  0
  181.0540  180.3910  139.4410 C   0  0  0  0  0  1  0  0  0  0  0  0
  181.8410  179.8190  138.2710 C   0  0  2  0  0  3  0  0  0  0  0  0
  180.7330  177.8210  137.1630 C   0  0  0  0  0  1  0  0  0  0  0  0
  180.9100  179.3330  137.1640 C   0  0  0  0  0  2  0  0  0  0  0  0
  1  2  1  0  0  0  0
  2  5  2  0  0  0  0
  3  1  1  0  0  0  0
  4  7  2  0  0  0  0
  6  4  1  0  0  0  0
  6  1  2  0  0  0  0
  7  5  1  0  0  0  0
  8  9  1  0  0  0  0
  9 13  1  0  0  0  0
 10  8  2  0  0  0  0
 10 12  1  0  0  0  0
 11 14  1  0  0  0  0
 12 14  1  0  0  0  0
 13 11  1  0  0  0  0
 13 15  1  1  0  0  0
 14  4  1  6  0  0  0
 15 17  1  0  0  0  0
 16 18  1  0  0  0  0
 17 16  1  0  0  0  0
 17 18  1  0  0  0  0
 19  6  1  0  0  0  0
 20 19  1  0  0  0  0
 21 20  1  0  0  0  0
 22 21  1  0  0  0  0
 22 23  1  1  0  0  0
 24 22  1  0  0  0  0
 25 24  2  0  0  0  0
 26 24  1  0  0  0  0
 28 26  1  0  0  0  0
 28 27  1  1  0  0  0
 29 30  1  0  0  0  0
 30 28  1  0  0  0  0
M  END
>  <MODEL>
6

>  <REMARK>
 VINA RESULT:      -8.2      2.550      5.421
  Name = 
  11 active torsions:
  status: ('A' for Active; 'I' for Inactive)
    1  A    between atoms: C_1  and  N_4
    2  A    between atoms: C_1  and  C_27
    3  A    between atoms: N_4  and  C_5
    4  A    between atoms: C_5  and  C_22
    5  A    between atoms: C_8  and  C_12
    6  A    between atoms: C_8  and  C_27
    7  A    between atoms: C_9  and  C_12
    8  A    between atoms: C_9  and  C_21
    9  A    between atoms: C_15  and  C_16
   10  A    between atoms: C_16  and  C_25
   11  A    between atoms: C_19  and  C_29
                            x       y       z     vdW  Elec       q    Type
                         _______ _______ _______ _____ _____    ______ ____

>  <TORSDO>
F 11

$$$$
=
 OpenBabel11052412233D

 30 32  0  0  1  0  0  0  0  0999 V2000
  189.6210  177.3060  140.7470 C   0  0  0  0  0  0  0  0  0  0  0  0
  190.9390  177.5030  140.3260 C   0  0  0  0  0  3  0  0  0  0  0  0
  188.5430  177.2850  139.7160 C   0  0  0  0  0  1  0  0  0  0  0  0
  190.4000  177.1330  143.0540 C   0  0  0  0  0  0  0  0  0  0  0  0
  191.9820  177.5170  141.2520 C   0  0  0  0  0  3  0  0  0  0  0  0
  189.3360  177.1280  142.1180 C   0  0  0  0  0  0  0  0  0  0  0  0
  191.7110  177.3280  142.6080 C   0  0  0  0  0  3  0  0  0  0  0  0
  190.8370  176.7610  147.5570 C   0  0  0  0  0  3  0  0  0  0  0  0
  189.3620  176.6980  147.3000 C   0  0  0  0  0  2  0  0  0  0  0  0
  191.7420  176.5520  146.5890 C   0  0  0  0  0  3  0  0  0  0  0  0
  189.7540  178.1830  145.2370 C   0  0  0  0  0  2  0  0  0  0  0  0
  191.4080  176.1780  145.1630 C   0  0  0  0  0  2  0  0  0  0  0  0
  188.8800  177.8920  146.4640 C   0  0  1  0  0  3  0  0  0  0  0  0
  190.2050  176.9060  144.5250 C   0  0  2  0  0  3  0  0  0  0  0  0
  187.4380  177.6800  146.0360 C   0  0  0  0  0  2  0  0  0  0  0  0
  185.6460  179.3820  146.0570 C   0  0  0  0  0  2  0  0  0  0  0  0
  186.4980  178.4750  146.9240 C   0  0  0  0  0  3  0  0  0  0  0  0
  185.0670  178.0920  146.6000 C   0  0  0  0  0  2  0  0  0  0  0  0
  187.9170  176.9200  142.5630 C   0  0  0  0  0  2  0  0  0  0  0  0
  187.1840  178.1720  142.4970 N   0  0  0  0  0  2  0  0  0  0  0  0
  185.8090  177.8690  142.8560 C   0  0  0  0  0  2  0  0  0  0  0  0
  184.8890  179.0180  142.4640 C   0  0  1  0  0  3  0  0  0  0  0  0
  185.5340  180.2190  142.6960 F   0  0  0  0  0  0  0  0  0  0  0  0
  184.4770  178.9340  141.0260 C   0  0  0  0  0  0  0  0  0  0  0  0
  184.9220  179.7220  140.2040 O   0  0  0  0  0  0  0  0  0  0  0  0
  183.5030  177.8830  140.6010 C   0  0  0  0  0  2  0  0  0  0  0  0
  181.5700  179.0020  141.7660 C   0  0  0  0  0  1  0  0  0  0  0  0
  182.0980  178.4560  140.4480 C   0  0  2  0  0  3  0  0  0  0  0  0
  179.8580  177.2800  140.6550 C   0  0  0  0  0  1  0  0  0  0  0  0
  181.1460  177.4200  139.8560 C   0  0  0  0  0  2  0  0  0  0  0  0
  1  6  1  0  0  0  0
  2  1  2  0  0  0  0
  2  5  1  0  0  0  0
  3  1  1  0  0  0  0
  5  7  2  0  0  0  0
  6 19  1  0  0  0  0
  6  4  2  0  0  0  0
  7  4  1  0  0  0  0
  9  8  1  0  0  0  0
 10  8  2  0  0  0  0
 11 13  1  0  0  0  0
 12 10  1  0  0  0  0
 13 15  1  6  0  0  0
 13  9  1  0  0  0  0
 14  4  1  6  0  0  0
 14 12  1  0  0  0  0
 14 11  1  0  0  0  0
 15 17  1  0  0  0  0
 16 18  1  0  0  0  0
 16 17  1  0  0  0  0
 18 17  1  0  0  0  0
 20 19  1  0  0  0  0
 20 21  1  0  0  0  0
 22 23  1  6  0  0  0
 22 21  1  0  0  0  0
 24 22  1  0  0  0  0
 25 24  2  0  0  0  0
 26 24  1  0  0  0  0
 28 26  1  0  0  0  0
 28 27  1  1  0  0  0
 30 28  1  0  0  0  0
 30 29  1  0  0  0  0
M  END
>  <MODEL>
7

>  <REMARK>
 VINA RESULT:      -8.1      2.032      6.184
  Name = 
  11 active torsions:
  status: ('A' for Active; 'I' for Inactive)
    1  A    between atoms: C_1  and  N_4
    2  A    between atoms: C_1  and  C_27
    3  A    between atoms: N_4  and  C_5
    4  A    between atoms: C_5  and  C_22
    5  A    between atoms: C_8  and  C_12
    6  A    between atoms: C_8  and  C_27
    7  A    between atoms: C_9  and  C_12
    8  A    between atoms: C_9  and  C_21
    9  A    between atoms: C_15  and  C_16
   10  A    between atoms: C_16  and  C_25
   11  A    between atoms: C_19  and  C_29
                            x       y       z     vdW  Elec       q    Type
                         _______ _______ _______ _____ _____    ______ ____

>  <TORSDO>
F 11

$$$$
=
 OpenBabel11052412233D

 30 32  0  0  1  0  0  0  0  0999 V2000
  189.5750  177.4370  140.6180 C   0  0  0  0  0  0  0  0  0  0  0  0
  190.8970  177.5660  140.1830 C   0  0  0  0  0  3  0  0  0  0  0  0
  188.4850  177.4930  139.6010 C   0  0  0  0  0  1  0  0  0  0  0  0
  190.3700  177.1850  142.9130 C   0  0  0  0  0  0  0  0  0  0  0  0
  191.9500  177.5060  141.0950 C   0  0  0  0  0  3  0  0  0  0  0  0
  189.2970  177.2550  141.9900 C   0  0  0  0  0  0  0  0  0  0  0  0
  191.6850  177.3120  142.4520 C   0  0  0  0  0  3  0  0  0  0  0  0
  190.8280  176.7630  147.4090 C   0  0  0  0  0  3  0  0  0  0  0  0
  189.3500  176.7250  147.1600 C   0  0  0  0  0  2  0  0  0  0  0  0
  191.7240  176.5490  146.4340 C   0  0  0  0  0  3  0  0  0  0  0  0
  189.7530  178.2240  145.1090 C   0  0  0  0  0  2  0  0  0  0  0  0
  191.3760  176.1940  145.0060 C   0  0  0  0  0  2  0  0  0  0  0  0
  188.8820  177.9340  146.3380 C   0  0  1  0  0  3  0  0  0  0  0  0
  190.1810  176.9470  144.3820 C   0  0  2  0  0  3  0  0  0  0  0  0
  187.4350  177.7480  145.9170 C   0  0  0  0  0  2  0  0  0  0  0  0
  185.6580  179.3840  146.4400 C   0  0  0  0  0  2  0  0  0  0  0  0
  186.4980  178.2510  147.0000 C   0  0  0  0  0  3  0  0  0  0  0  0
  185.0650  177.9970  146.5740 C   0  0  0  0  0  2  0  0  0  0  0  0
  187.8740  177.1210  142.4500 C   0  0  0  0  0  2  0  0  0  0  0  0
  187.2700  178.4340  142.5940 N   0  0  0  0  0  2  0  0  0  0  0  0
  185.9800  178.3740  141.9270 C   0  0  0  0  0  2  0  0  0  0  0  0
  184.8660  178.7860  142.8800 C   0  0  1  0  0  3  0  0  0  0  0  0
  185.0380  180.1100  143.2400 F   0  0  0  0  0  0  0  0  0  0  0  0
  183.5120  178.6000  142.2660 C   0  0  0  0  0  0  0  0  0  0  0  0
  182.5090  179.0060  142.8340 O   0  0  0  0  0  0  0  0  0  0  0  0
  183.3920  177.9000  140.9500 C   0  0  0  0  0  2  0  0  0  0  0  0
  181.8970  178.1450  138.9390 C   0  0  0  0  0  1  0  0  0  0  0  0
  182.8830  178.8420  139.8650 C   0  0  2  0  0  3  0  0  0  0  0  0
  184.8700  178.4070  138.3460 C   0  0  0  0  0  1  0  0  0  0  0  0
  184.0420  179.4510  139.0810 C   0  0  0  0  0  2  0  0  0  0  0  0
  1  6  1  0  0  0  0
  2  1  2  0  0  0  0
  2  5  1  0  0  0  0
  3  1  1  0  0  0  0
  5  7  2  0  0  0  0
  6 19  1  0  0  0  0
  6  4  2  0  0  0  0
  7  4  1  0  0  0  0
  9  8  1  0  0  0  0
 10  8  2  0  0  0  0
 11 13  1  0  0  0  0
 12 10  1  0  0  0  0
 13 15  1  6  0  0  0
 13  9  1  0  0  0  0
 14  4  1  6  0  0  0
 14 12  1  0  0  0  0
 14 11  1  0  0  0  0
 15 17  1  0  0  0  0
 16 18  1  0  0  0  0
 16 17  1  0  0  0  0
 18 17  1  0  0  0  0
 19 20  1  0  0  0  0
 21 20  1  0  0  0  0
 21 22  1  0  0  0  0
 22 23  1  6  0  0  0
 24 25  2  0  0  0  0
 24 22  1  0  0  0  0
 26 24  1  0  0  0  0
 28 27  1  6  0  0  0
 28 26  1  0  0  0  0
 29 30  1  0  0  0  0
 30 28  1  0  0  0  0
M  END
>  <MODEL>
8

>  <REMARK>
 VINA RESULT:      -8.1      2.303      5.916
  Name = 
  11 active torsions:
  status: ('A' for Active; 'I' for Inactive)
    1  A    between atoms: C_1  and  N_4
    2  A    between atoms: C_1  and  C_27
    3  A    between atoms: N_4  and  C_5
    4  A    between atoms: C_5  and  C_22
    5  A    between atoms: C_8  and  C_12
    6  A    between atoms: C_8  and  C_27
    7  A    between atoms: C_9  and  C_12
    8  A    between atoms: C_9  and  C_21
    9  A    between atoms: C_15  and  C_16
   10  A    between atoms: C_16  and  C_25
   11  A    between atoms: C_19  and  C_29
                            x       y       z     vdW  Elec       q    Type
                         _______ _______ _______ _____ _____    ______ ____

>  <TORSDO>
F 11

$$$$
=
 OpenBabel11052412233D

 30 32  0  0  1  0  0  0  0  0999 V2000
  185.9820  178.0000  145.0460 C   0  0  0  0  0  0  0  0  0  0  0  0
  184.9500  178.5820  145.7870 C   0  0  0  0  0  3  0  0  0  0  0  0
  187.1930  177.5190  145.7720 C   0  0  0  0  0  1  0  0  0  0  0  0
  184.6800  178.3280  143.0060 C   0  0  0  0  0  0  0  0  0  0  0  0
  183.7930  179.0350  145.1540 C   0  0  0  0  0  3  0  0  0  0  0  0
  185.8620  177.8760  143.6450 C   0  0  0  0  0  0  0  0  0  0  0  0
  183.6600  178.9030  143.7710 C   0  0  0  0  0  3  0  0  0  0  0  0
  183.0900  178.5420  138.7600 C   0  0  0  0  0  3  0  0  0  0  0  0
  184.4890  178.0180  138.6290 C   0  0  0  0  0  2  0  0  0  0  0  0
  182.4230  178.5190  139.9230 C   0  0  0  0  0  3  0  0  0  0  0  0
  185.0830  179.3450  140.7500 C   0  0  0  0  0  2  0  0  0  0  0  0
  182.9530  177.9260  141.2090 C   0  0  0  0  0  2  0  0  0  0  0  0
  185.5040  178.9270  139.3350 C   0  0  1  0  0  3  0  0  0  0  0  0
  184.4380  178.1970  141.5310 C   0  0  2  0  0  3  0  0  0  0  0  0
  186.8650  178.2550  139.3750 C   0  0  0  0  0  2  0  0  0  0  0  0
  188.5460  178.5310  137.5840 C   0  0  0  0  0  2  0  0  0  0  0  0
  187.2750  177.8050  137.9850 C   0  0  0  0  0  3  0  0  0  0  0  0
  188.6140  177.0970  138.0670 C   0  0  0  0  0  2  0  0  0  0  0  0
  186.9760  177.2530  142.8540 C   0  0  0  0  0  2  0  0  0  0  0  0
  188.0090  178.2380  142.5850 N   0  0  0  0  0  2  0  0  0  0  0  0
  189.1740  177.5040  142.1210 C   0  0  0  0  0  2  0  0  0  0  0  0
  189.7950  176.7100  143.2620 C   0  0  1  0  0  3  0  0  0  0  0  0
  190.2070  175.4770  142.7900 F   0  0  0  0  0  0  0  0  0  0  0  0
  190.9570  177.4310  143.8740 C   0  0  0  0  0  0  0  0  0  0  0  0
  191.9820  177.6150  143.2340 O   0  0  0  0  0  0  0  0  0  0  0  0
  190.8590  177.9180  145.2840 C   0  0  0  0  0  2  0  0  0  0  0  0
  190.2930  177.2330  147.6400 C   0  0  0  0  0  1  0  0  0  0  0  0
  190.7360  176.7580  146.2650 C   0  0  2  0  0  3  0  0  0  0  0  0
  192.4300  175.6180  147.7740 C   0  0  0  0  0  1  0  0  0  0  0  0
  192.0400  175.9690  146.3450 C   0  0  0  0  0  2  0  0  0  0  0  0
  1  3  1  0  0  0  0
  1  2  1  0  0  0  0
  4  6  1  0  0  0  0
  4  7  2  0  0  0  0
  5  2  2  0  0  0  0
  6  1  2  0  0  0  0
  7  5  1  0  0  0  0
  8 10  2  0  0  0  0
  9  8  1  0  0  0  0
  9 13  1  0  0  0  0
 10 12  1  0  0  0  0
 11 14  1  0  0  0  0
 12 14  1  0  0  0  0
 13 15  1  1  0  0  0
 13 11  1  0  0  0  0
 14  4  1  1  0  0  0
 16 17  1  0  0  0  0
 16 18  1  0  0  0  0
 17 18  1  0  0  0  0
 17 15  1  0  0  0  0
 19  6  1  0  0  0  0
 20 19  1  0  0  0  0
 21 20  1  0  0  0  0
 21 22  1  0  0  0  0
 22 23  1  6  0  0  0
 22 24  1  0  0  0  0
 24 26  1  0  0  0  0
 25 24  2  0  0  0  0
 26 28  1  0  0  0  0
 28 30  1  0  0  0  0
 28 27  1  1  0  0  0
 30 29  1  0  0  0  0
M  END
>  <MODEL>
9

>  <REMARK>
 VINA RESULT:      -8.1      2.221      6.238
  Name = 
  11 active torsions:
  status: ('A' for Active; 'I' for Inactive)
    1  A    between atoms: C_1  and  N_4
    2  A    between atoms: C_1  and  C_27
    3  A    between atoms: N_4  and  C_5
    4  A    between atoms: C_5  and  C_22
    5  A    between atoms: C_8  and  C_12
    6  A    between atoms: C_8  and  C_27
    7  A    between atoms: C_9  and  C_12
    8  A    between atoms: C_9  and  C_21
    9  A    between atoms: C_15  and  C_16
   10  A    between atoms: C_16  and  C_25
   11  A    between atoms: C_19  and  C_29
                            x       y       z     vdW  Elec       q    Type
                         _______ _______ _______ _____ _____    ______ ____

>  <TORSDO>
F 11

$$$$
