=
 OpenBabel11052415423D

 34 39  0  0  1  0  0  0  0  0999 V2000
  187.0300  177.7550  144.1930 C   0  0  1  0  0  3  0  0  0  0  0  0
  183.6610  178.9410  145.1700 C   0  0  0  0  0  3  0  0  0  0  0  0
  185.4880  178.3310  146.5360 C   0  0  0  0  0  3  0  0  0  0  0  0
  188.9660  177.2850  145.7690 C   0  0  0  0  0  3  0  0  0  0  0  0
  188.5760  177.4270  148.1880 C   0  0  0  0  0  3  0  0  0  0  0  0
  189.3780  177.0220  147.0150 C   0  0  0  0  0  3  0  0  0  0  0  0
  186.7840  178.0900  146.6920 C   0  0  0  0  0  0  0  0  0  0  0  0
  187.7170  178.0940  145.5030 C   0  0  2  0  0  3  0  0  0  0  0  0
  187.3440  177.9200  148.0400 C   0  0  0  0  0  3  0  0  0  0  0  0
  182.7560  179.2040  144.0480 C   0  0  0  0  0  3  0  0  0  0  0  0
  182.8700  178.8710  142.7670 C   0  0  0  0  0  0  0  0  0  0  0  0
  183.9530  178.0870  142.1710 C   0  0  0  0  0  3  0  0  0  0  0  0
  184.8990  178.4490  145.1950 C   0  0  1  0  0  3  0  0  0  0  0  0
  185.1250  177.7390  142.6870 C   0  0  0  0  0  3  0  0  0  0  0  0
  185.7060  178.0140  144.0170 C   0  0  0  0  0  0  0  0  0  0  0  0
  181.7490  179.2530  141.8650 C   0  0  0  0  0  2  0  0  0  0  0  0
  180.8300  180.0390  142.5600 O   0  0  0  0  0  1  0  0  0  0  0  0
  187.9040  177.3290  143.0410 C   0  0  0  0  0  2  0  0  0  0  0  0
  192.4720  177.5780  140.9730 C   0  0  0  0  0  2  0  0  0  0  0  0
  189.6100  177.0910  140.8420 N   0  0  0  0  0  0  0  0  0  0  0  0
  191.9080  175.8470  137.5670 C   0  0  2  0  0  0  0  0  0  0  0  0
  189.3570  177.7040  143.3070 C   0  0  2  0  0  3  0  0  0  0  0  0
  191.8620  174.4660  137.7850 O   0  0  0  0  0  1  0  0  0  0  0  0
  192.5250  176.5130  138.7700 C   0  0  0  0  0  3  0  0  0  0  0  0
  191.7980  176.8900  139.8240 C   0  0  0  0  0  0  0  0  0  0  0  0
  189.7140  178.9530  142.5010 C   0  0  0  0  0  2  0  0  0  0  0  0
  189.6260  176.1950  138.5980 C   0  0  0  0  0  2  0  0  0  0  0  0
  190.3150  176.7750  139.7970 C   0  0  0  0  0  0  0  0  0  0  0  0
  190.4820  176.3670  137.3410 C   0  0  0  0  0  2  0  0  0  0  0  0
  190.2280  177.6050  142.0660 C   0  0  2  0  0  0  0  0  0  0  0  0
  191.7140  177.3410  142.2770 C   0  0  0  0  0  2  0  0  0  0  0  0
  192.7460  176.1470  136.3600 C   0  0  0  0  0  0  0  0  0  0  0  0
  194.0000  176.7310  136.5110 O   0  0  0  0  0  1  0  0  0  0  0  0
  192.3420  175.8460  135.2050 O   0  0  0  0  0  0  0  0  0  0  0  0
  1 18  1  6  0  0  0
  1  8  1  0  0  0  0
  3  7  2  0  0  0  0
  4  6  2  0  0  0  0
  6  5  1  0  0  0  0
  7  9  1  0  0  0  0
  8  4  1  1  0  0  0
  8  7  1  0  0  0  0
  9  5  2  0  0  0  0
 10  2  2  0  0  0  0
 11 10  1  0  0  0  0
 12 14  1  0  0  0  0
 12 11  2  0  0  0  0
 13  2  1  1  0  0  0
 13  3  1  0  0  0  0
 14 15  2  0  0  0  0
 15  1  1  0  0  0  0
 15 13  1  0  0  0  0
 16 17  1  0  0  0  0
 16 11  1  0  0  0  0
 19 31  1  0  0  0  0
 20 30  1  0  0  0  0
 21 23  1  1  0  0  0
 21 24  1  0  0  0  0
 22 18  1  6  0  0  0
 24 25  2  0  0  0  0
 25 19  1  0  0  0  0
 26 22  1  0  0  0  0
 27 28  1  0  0  0  0
 28 25  1  0  0  0  0
 28 20  2  0  0  0  0
 29 21  1  0  0  0  0
 29 27  1  0  0  0  0
 30 31  1  1  0  0  0
 30 26  1  0  0  0  0
 30 22  1  0  0  0  0
 32 33  1  0  0  0  0
 32 21  1  0  0  0  0
 34 32  2  0  0  0  0
M  END
>  <MODEL>
1

>  <REMARK>
 VINA RESULT:     -11.1      0.000      0.000
  Name = 
  4 active torsions:
  status: ('A' for Active; 'I' for Inactive)
    1  A    between atoms: C_1  and  C_9
    2  A    between atoms: C_3  and  C_25
    3  A    between atoms: C_7  and  C_11
    4  A    between atoms: C_8  and  C_9
                            x       y       z     vdW  Elec       q    Type
                         _______ _______ _______ _____ _____    ______ ____

>  <TORSDO>
F 4

$$$$
=
 OpenBabel11052415423D

 34 39  0  0  1  0  0  0  0  0999 V2000
  186.0340  178.4970  142.0810 C   0  0  1  0  0  3  0  0  0  0  0  0
  189.3190  176.9280  142.7580 C   0  0  0  0  0  3  0  0  0  0  0  0
  187.6060  177.5250  144.2680 C   0  0  0  0  0  3  0  0  0  0  0  0
  184.2080  178.9400  143.7910 C   0  0  0  0  0  3  0  0  0  0  0  0
  184.6750  178.4860  146.1570 C   0  0  0  0  0  3  0  0  0  0  0  0
  183.8680  179.0900  145.0770 C   0  0  0  0  0  3  0  0  0  0  0  0
  186.3430  177.8540  144.5120 C   0  0  0  0  0  0  0  0  0  0  0  0
  185.3700  178.0670  143.3760 C   0  0  2  0  0  3  0  0  0  0  0  0
  185.8520  177.9130  145.8960 C   0  0  0  0  0  3  0  0  0  0  0  0
  190.1550  176.7230  141.5710 C   0  0  0  0  0  3  0  0  0  0  0  0
  190.0220  177.2110  140.3430 C   0  0  0  0  0  0  0  0  0  0  0  0
  188.9900  178.1460  139.8900 C   0  0  0  0  0  3  0  0  0  0  0  0
  188.1320  177.5150  142.8960 C   0  0  1  0  0  3  0  0  0  0  0  0
  187.8750  178.5280  140.4980 C   0  0  0  0  0  3  0  0  0  0  0  0
  187.3220  178.1500  141.8150 C   0  0  0  0  0  0  0  0  0  0  0  0
  191.0700  176.8440  139.3510 C   0  0  0  0  0  2  0  0  0  0  0  0
  190.8660  175.5360  138.9090 O   0  0  0  0  0  1  0  0  0  0  0  0
  185.1580  179.1250  141.0270 C   0  0  0  0  0  2  0  0  0  0  0  0
  181.7740  178.3050  137.4100 C   0  0  0  0  0  2  0  0  0  0  0  0
  183.2700  180.0500  139.1890 N   0  0  0  0  0  0  0  0  0  0  0  0
  179.9910  181.7230  137.1890 C   0  0  2  0  0  0  0  0  0  0  0  0
  184.5440  178.0510  140.1370 C   0  0  2  0  0  3  0  0  0  0  0  0
  179.1080  181.8220  138.2700 O   0  0  0  0  0  1  0  0  0  0  0  0
  180.3850  180.2800  137.0100 C   0  0  0  0  0  3  0  0  0  0  0  0
  181.4160  179.7400  137.6620 C   0  0  0  0  0  0  0  0  0  0  0  0
  184.9680  178.2900  138.6880 C   0  0  0  0  0  2  0  0  0  0  0  0
  182.0130  182.0480  138.6710 C   0  0  0  0  0  2  0  0  0  0  0  0
  182.2990  180.5840  138.5100 C   0  0  0  0  0  0  0  0  0  0  0  0
  181.2280  182.5850  137.4720 C   0  0  0  0  0  2  0  0  0  0  0  0
  183.5630  178.6170  139.1230 C   0  0  2  0  0  0  0  0  0  0  0  0
  182.4620  177.6880  138.6260 C   0  0  0  0  0  2  0  0  0  0  0  0
  179.3210  182.2060  135.9360 C   0  0  0  0  0  0  0  0  0  0  0  0
  179.1590  183.5700  135.7160 O   0  0  0  0  0  1  0  0  0  0  0  0
  178.9310  181.3890  135.0590 O   0  0  0  0  0  0  0  0  0  0  0  0
  1 18  1  6  0  0  0
  1  8  1  0  0  0  0
  3  7  2  0  0  0  0
  4  6  2  0  0  0  0
  6  5  1  0  0  0  0
  7  9  1  0  0  0  0
  8  4  1  1  0  0  0
  8  7  1  0  0  0  0
  9  5  2  0  0  0  0
 10  2  2  0  0  0  0
 11 10  1  0  0  0  0
 12 11  2  0  0  0  0
 12 14  1  0  0  0  0
 13  2  1  1  0  0  0
 13  3  1  0  0  0  0
 14 15  2  0  0  0  0
 15  1  1  0  0  0  0
 15 13  1  0  0  0  0
 16 11  1  0  0  0  0
 17 16  1  0  0  0  0
 19 25  1  0  0  0  0
 19 31  1  0  0  0  0
 21 29  1  0  0  0  0
 21 23  1  1  0  0  0
 22 18  1  1  0  0  0
 24 21  1  0  0  0  0
 24 25  2  0  0  0  0
 25 28  1  0  0  0  0
 26 30  1  0  0  0  0
 26 22  1  0  0  0  0
 28 27  1  0  0  0  0
 28 20  2  0  0  0  0
 29 27  1  0  0  0  0
 30 31  1  6  0  0  0
 30 20  1  0  0  0  0
 30 22  1  0  0  0  0
 32 21  1  0  0  0  0
 33 32  1  0  0  0  0
 34 32  2  0  0  0  0
M  END
>  <MODEL>
2

>  <REMARK>
 VINA RESULT:     -10.6      3.759      8.887
  Name = 
  4 active torsions:
  status: ('A' for Active; 'I' for Inactive)
    1  A    between atoms: C_1  and  C_9
    2  A    between atoms: C_3  and  C_25
    3  A    between atoms: C_7  and  C_11
    4  A    between atoms: C_8  and  C_9
                            x       y       z     vdW  Elec       q    Type
                         _______ _______ _______ _____ _____    ______ ____

>  <TORSDO>
F 4

$$$$
=
 OpenBabel11052415423D

 34 39  0  0  1  0  0  0  0  0999 V2000
  187.2430  177.6140  143.8740 C   0  0  1  0  0  3  0  0  0  0  0  0
  187.9930  177.6360  147.5000 C   0  0  0  0  0  3  0  0  0  0  0  0
  186.0480  178.3510  146.3690 C   0  0  0  0  0  3  0  0  0  0  0  0
  185.0360  178.2670  142.8000 C   0  0  0  0  0  3  0  0  0  0  0  0
  183.2600  179.1870  144.2210 C   0  0  0  0  0  3  0  0  0  0  0  0
  183.8700  178.9150  142.9030 C   0  0  0  0  0  3  0  0  0  0  0  0
  185.2790  178.3630  145.2880 C   0  0  0  0  0  0  0  0  0  0  0  0
  185.7340  177.6940  144.0120 C   0  0  2  0  0  3  0  0  0  0  0  0
  183.9290  178.9400  145.3500 C   0  0  0  0  0  3  0  0  0  0  0  0
  189.3250  177.1380  147.8530 C   0  0  0  0  0  2  0  0  0  0  0  0
  190.3770  176.9000  147.0760 C   0  0  0  0  0  0  0  0  0  0  0  0
  190.4590  177.1400  145.6340 C   0  0  0  0  0  3  0  0  0  0  0  0
  187.4210  177.8310  146.3130 C   0  0  0  0  0  0  0  0  0  0  0  0
  189.4920  177.4170  144.7700 C   0  0  0  0  0  3  0  0  0  0  0  0
  188.0390  177.5840  144.9770 C   0  0  0  0  0  0  0  0  0  0  0  0
  191.6200  176.4280  147.7460 C   0  0  0  0  0  2  0  0  0  0  0  0
  192.3820  175.6740  146.8520 O   0  0  0  0  0  1  0  0  0  0  0  0
  187.8020  177.3540  142.4990 C   0  0  0  0  0  2  0  0  0  0  0  0
  191.8950  177.3730  139.5900 C   0  0  0  0  0  2  0  0  0  0  0  0
  189.0930  176.7850  140.0880 N   0  0  0  0  0  0  0  0  0  0  0  0
  190.8310  175.0540  136.6920 C   0  0  2  0  0  0  0  0  0  0  0  0
  189.2530  177.8150  142.4190 C   0  0  2  0  0  3  0  0  0  0  0  0
  190.9120  173.7320  137.1420 O   0  0  0  0  0  1  0  0  0  0  0  0
  191.6130  175.9390  137.6270 C   0  0  0  0  0  3  0  0  0  0  0  0
  191.0670  176.4730  138.7210 C   0  0  0  0  0  0  0  0  0  0  0  0
  189.3800  178.9120  141.3620 C   0  0  0  0  0  2  0  0  0  0  0  0
  188.7570  175.5090  138.0630 C   0  0  0  0  0  2  0  0  0  0  0  0
  189.6150  176.3110  138.9960 C   0  0  0  0  0  0  0  0  0  0  0  0
  189.3580  175.4820  136.6570 C   0  0  0  0  0  2  0  0  0  0  0  0
  189.8890  177.5250  141.0680 C   0  0  2  0  0  0  0  0  0  0  0  0
  191.4030  177.3470  141.0360 C   0  0  0  0  0  2  0  0  0  0  0  0
  191.4160  175.1620  135.3140 C   0  0  0  0  0  0  0  0  0  0  0  0
  191.9360  174.0330  134.6890 O   0  0  0  0  0  0  0  0  0  0  0  0
  191.4130  176.2610  134.6980 O   0  0  0  0  0  1  0  0  0  0  0  0
  1 18  1  1  0  0  0
  1  8  1  0  0  0  0
  1 15  1  0  0  0  0
  2 10  1  0  0  0  0
  4  6  2  0  0  0  0
  5  9  2  0  0  0  0
  6  5  1  0  0  0  0
  7  9  1  0  0  0  0
  7  3  2  0  0  0  0
  8  4  1  6  0  0  0
  8  7  1  0  0  0  0
 11 16  1  0  0  0  0
 11 10  1  0  0  0  0
 12 11  2  0  0  0  0
 13  3  1  0  0  0  0
 13  2  2  0  0  0  0
 14 15  2  0  0  0  0
 14 12  1  0  0  0  0
 15 13  1  0  0  0  0
 17 16  1  0  0  0  0
 19 31  1  0  0  0  0
 20 30  1  0  0  0  0
 21 23  1  1  0  0  0
 21 24  1  0  0  0  0
 22 18  1  6  0  0  0
 24 25  2  0  0  0  0
 25 28  1  0  0  0  0
 25 19  1  0  0  0  0
 26 22  1  0  0  0  0
 27 28  1  0  0  0  0
 28 20  2  0  0  0  0
 29 21  1  0  0  0  0
 29 27  1  0  0  0  0
 30 31  1  6  0  0  0
 30 26  1  0  0  0  0
 30 22  1  0  0  0  0
 32 21  1  0  0  0  0
 33 32  2  0  0  0  0
 34 32  1  0  0  0  0
M  END
>  <MODEL>
3

>  <REMARK>
 VINA RESULT:     -10.5      2.509      4.752
  Name = 
  4 active torsions:
  status: ('A' for Active; 'I' for Inactive)
    1  A    between atoms: C_1  and  C_9
    2  A    between atoms: C_3  and  C_25
    3  A    between atoms: C_7  and  C_11
    4  A    between atoms: C_8  and  C_9
                            x       y       z     vdW  Elec       q    Type
                         _______ _______ _______ _____ _____    ______ ____

>  <TORSDO>
F 4

$$$$
=
 OpenBabel11052415423D

 34 39  0  0  1  0  0  0  0  0999 V2000
  185.8850  178.0700  143.3150 C   0  0  1  0  0  3  0  0  0  0  0  0
  182.3740  179.1470  143.7840 C   0  0  0  0  0  3  0  0  0  0  0  0
  184.0340  178.7060  145.4040 C   0  0  0  0  0  3  0  0  0  0  0  0
  187.6200  177.7860  145.1480 C   0  0  0  0  0  3  0  0  0  0  0  0
  186.9180  178.0490  147.4850 C   0  0  0  0  0  3  0  0  0  0  0  0
  187.8790  177.6160  146.4500 C   0  0  0  0  0  3  0  0  0  0  0  0
  185.3070  178.5370  145.7370 C   0  0  0  0  0  0  0  0  0  0  0  0
  186.3840  178.5170  144.6760 C   0  0  2  0  0  3  0  0  0  0  0  0
  185.6970  178.4720  147.1520 C   0  0  0  0  0  3  0  0  0  0  0  0
  181.6090  179.3010  142.5430 C   0  0  0  0  0  3  0  0  0  0  0  0
  181.9010  178.9000  141.3100 C   0  0  0  0  0  0  0  0  0  0  0  0
  183.0820  178.1360  140.9060 C   0  0  0  0  0  3  0  0  0  0  0  0
  183.6170  178.7180  143.9950 C   0  0  1  0  0  3  0  0  0  0  0  0
  184.1910  177.8750  141.5860 C   0  0  0  0  0  3  0  0  0  0  0  0
  184.5860  178.2540  142.9580 C   0  0  0  0  0  0  0  0  0  0  0  0
  180.8900  179.1740  140.2530 C   0  0  0  0  0  2  0  0  0  0  0  0
  180.0480  180.2100  140.6600 O   0  0  0  0  0  1  0  0  0  0  0  0
  186.9160  177.6210  142.3110 C   0  0  0  0  0  2  0  0  0  0  0  0
  191.7740  177.6030  141.0430 C   0  0  0  0  0  2  0  0  0  0  0  0
  188.9540  177.2490  140.4370 N   0  0  0  0  0  0  0  0  0  0  0  0
  191.7040  175.8170  137.6200 C   0  0  2  0  0  0  0  0  0  0  0  0
  188.3200  177.9340  142.8140 C   0  0  2  0  0  3  0  0  0  0  0  0
  191.5530  174.4460  137.8500 O   0  0  0  0  0  1  0  0  0  0  0  0
  192.1430  176.4820  138.8990 C   0  0  0  0  0  3  0  0  0  0  0  0
  191.2690  176.9190  139.8070 C   0  0  0  0  0  0  0  0  0  0  0  0
  188.8710  179.1450  142.0600 C   0  0  0  0  0  2  0  0  0  0  0  0
  189.3020  176.2980  138.2430 C   0  0  0  0  0  2  0  0  0  0  0  0
  189.8080  176.8740  139.5320 C   0  0  0  0  0  0  0  0  0  0  0  0
  190.3650  176.3970  137.1470 C   0  0  0  0  0  2  0  0  0  0  0  0
  189.3820  177.7630  141.7390 C   0  0  2  0  0  0  0  0  0  0  0  0
  190.7960  177.4350  142.2040 C   0  0  0  0  0  2  0  0  0  0  0  0
  192.7480  176.0470  136.5670 C   0  0  0  0  0  0  0  0  0  0  0  0
  192.5770  175.5200  135.2910 O   0  0  0  0  0  0  0  0  0  0  0  0
  193.7690  176.7440  136.8140 O   0  0  0  0  0  1  0  0  0  0  0  0
  1 18  1  6  0  0  0
  1  8  1  0  0  0  0
  3  7  2  0  0  0  0
  4  6  2  0  0  0  0
  6  5  1  0  0  0  0
  7  9  1  0  0  0  0
  8  4  1  1  0  0  0
  8  7  1  0  0  0  0
  9  5  2  0  0  0  0
 10  2  2  0  0  0  0
 11 10  1  0  0  0  0
 12 11  2  0  0  0  0
 12 14  1  0  0  0  0
 13  2  1  1  0  0  0
 13  3  1  0  0  0  0
 14 15  2  0  0  0  0
 15  1  1  0  0  0  0
 15 13  1  0  0  0  0
 16 17  1  0  0  0  0
 16 11  1  0  0  0  0
 19 31  1  0  0  0  0
 20 30  1  0  0  0  0
 21 23  1  1  0  0  0
 21 24  1  0  0  0  0
 22 18  1  6  0  0  0
 24 25  2  0  0  0  0
 25 19  1  0  0  0  0
 26 22  1  0  0  0  0
 27 28  1  0  0  0  0
 28 25  1  0  0  0  0
 28 20  2  0  0  0  0
 29 21  1  0  0  0  0
 29 27  1  0  0  0  0
 30 26  1  6  0  0  0
 30 31  1  0  0  0  0
 30 22  1  0  0  0  0
 32 34  1  0  0  0  0
 32 21  1  0  0  0  0
 33 32  2  0  0  0  0
M  END
>  <MODEL>
4

>  <REMARK>
 VINA RESULT:     -10.2      0.886      1.443
  Name = 
  4 active torsions:
  status: ('A' for Active; 'I' for Inactive)
    1  A    between atoms: C_1  and  C_9
    2  A    between atoms: C_3  and  C_25
    3  A    between atoms: C_7  and  C_11
    4  A    between atoms: C_8  and  C_9
                            x       y       z     vdW  Elec       q    Type
                         _______ _______ _______ _____ _____    ______ ____

>  <TORSDO>
F 4

$$$$
=
 OpenBabel11052415423D

 34 39  0  0  1  0  0  0  0  0999 V2000
  187.0540  177.5820  143.5650 C   0  0  1  0  0  3  0  0  0  0  0  0
  190.7220  177.3710  143.0960 C   0  0  0  0  0  3  0  0  0  0  0  0
  189.4870  177.8260  145.0560 C   0  0  0  0  0  3  0  0  0  0  0  0
  185.8470  177.9200  145.7740 C   0  0  0  0  0  3  0  0  0  0  0  0
  187.1780  178.3450  147.7910 C   0  0  0  0  0  3  0  0  0  0  0  0
  185.9020  178.3270  147.0480 C   0  0  0  0  0  3  0  0  0  0  0  0
  188.3460  177.8060  145.7340 C   0  0  0  0  0  0  0  0  0  0  0  0
  187.0630  177.3660  145.0670 C   0  0  2  0  0  3  0  0  0  0  0  0
  188.3370  178.1120  147.1710 C   0  0  0  0  0  3  0  0  0  0  0  0
  191.1480  177.0960  141.7210 C   0  0  0  0  0  3  0  0  0  0  0  0
  190.4510  177.1370  140.5900 C   0  0  0  0  0  0  0  0  0  0  0  0
  189.0480  177.5340  140.4530 C   0  0  0  0  0  3  0  0  0  0  0  0
  189.5100  177.5770  143.6080 C   0  0  1  0  0  3  0  0  0  0  0  0
  188.1280  177.7140  141.3910 C   0  0  0  0  0  3  0  0  0  0  0  0
  188.2180  177.5870  142.8600 C   0  0  0  0  0  0  0  0  0  0  0  0
  191.1860  176.8390  139.3310 C   0  0  0  0  0  2  0  0  0  0  0  0
  190.7610  175.6140  138.8150 O   0  0  0  0  0  1  0  0  0  0  0  0
  185.7170  177.5720  142.8700 C   0  0  0  0  0  2  0  0  0  0  0  0
  183.2010  179.6700  139.0650 C   0  0  0  0  0  2  0  0  0  0  0  0
  183.7930  177.4530  140.8480 N   0  0  0  0  0  0  0  0  0  0  0  0
  181.4580  176.6140  137.4730 C   0  0  2  0  0  0  0  0  0  0  0  0
  185.5100  178.8710  142.0990 C   0  0  2  0  0  3  0  0  0  0  0  0
  182.4090  175.9150  136.7220 O   0  0  0  0  0  1  0  0  0  0  0  0
  181.9810  177.9980  137.7590 C   0  0  0  0  0  3  0  0  0  0  0  0
  182.7430  178.2630  138.8220 C   0  0  0  0  0  0  0  0  0  0  0  0
  184.1030  179.4040  142.3740 C   0  0  0  0  0  2  0  0  0  0  0  0
  182.4510  175.8310  139.6620 C   0  0  0  0  0  2  0  0  0  0  0  0
  183.0080  177.2130  139.8410 C   0  0  0  0  0  0  0  0  0  0  0  0
  181.1990  175.8580  138.7830 C   0  0  0  0  0  2  0  0  0  0  0  0
  184.4170  178.7620  141.0470 C   0  0  2  0  0  0  0  0  0  0  0  0
  184.5140  179.6950  139.8450 C   0  0  0  0  0  2  0  0  0  0  0  0
  180.1770  176.7270  136.6990 C   0  0  0  0  0  0  0  0  0  0  0  0
  179.7900  177.9530  136.1710 O   0  0  0  0  0  0  0  0  0  0  0  0
  179.4590  175.7120  136.4920 O   0  0  0  0  0  1  0  0  0  0  0  0
  1 18  1  6  0  0  0
  1  8  1  0  0  0  0
  3  7  2  0  0  0  0
  4  6  2  0  0  0  0
  6  5  1  0  0  0  0
  7  9  1  0  0  0  0
  8  7  1  0  0  0  0
  8  4  1  1  0  0  0
  9  5  2  0  0  0  0
 10  2  2  0  0  0  0
 11 10  1  0  0  0  0
 12 11  2  0  0  0  0
 12 14  1  0  0  0  0
 13  2  1  6  0  0  0
 13  3  1  0  0  0  0
 14 15  2  0  0  0  0
 15  1  1  0  0  0  0
 15 13  1  0  0  0  0
 16 11  1  0  0  0  0
 17 16  1  0  0  0  0
 19 31  1  0  0  0  0
 20 30  1  0  0  0  0
 21 23  1  6  0  0  0
 21 24  1  0  0  0  0
 21 29  1  0  0  0  0
 22 26  1  0  0  0  0
 22 18  1  1  0  0  0
 24 25  2  0  0  0  0
 25 19  1  0  0  0  0
 25 28  1  0  0  0  0
 27 28  1  0  0  0  0
 28 20  2  0  0  0  0
 29 27  1  0  0  0  0
 30 31  1  6  0  0  0
 30 22  1  0  0  0  0
 30 26  1  0  0  0  0
 32 21  1  0  0  0  0
 33 32  2  0  0  0  0
 34 32  1  0  0  0  0
M  END
>  <MODEL>
5

>  <REMARK>
 VINA RESULT:     -10.1      3.291      7.608
  Name = 
  4 active torsions:
  status: ('A' for Active; 'I' for Inactive)
    1  A    between atoms: C_1  and  C_9
    2  A    between atoms: C_3  and  C_25
    3  A    between atoms: C_7  and  C_11
    4  A    between atoms: C_8  and  C_9
                            x       y       z     vdW  Elec       q    Type
                         _______ _______ _______ _____ _____    ______ ____

>  <TORSDO>
F 4

$$$$
=
 OpenBabel11052415423D

 34 39  0  0  1  0  0  0  0  0999 V2000
  189.2270  177.0600  144.8320 C   0  0  1  0  0  3  0  0  0  0  0  0
  186.5380  178.4800  146.9460 C   0  0  0  0  0  3  0  0  0  0  0  0
  188.6480  177.6290  147.5780 C   0  0  0  0  0  3  0  0  0  0  0  0
  191.5240  176.3260  145.6290 C   0  0  0  0  0  3  0  0  0  0  0  0
  192.0020  176.3560  148.0350 C   0  0  0  0  0  3  0  0  0  0  0  0
  192.3080  175.9530  146.6470 C   0  0  0  0  0  3  0  0  0  0  0  0
  189.8860  177.2650  147.2700 C   0  0  0  0  0  0  0  0  0  0  0  0
  190.3510  177.2570  145.8320 C   0  0  2  0  0  3  0  0  0  0  0  0
  190.8530  176.9650  148.3350 C   0  0  0  0  0  3  0  0  0  0  0  0
  185.3360  178.8890  146.2150 C   0  0  0  0  0  3  0  0  0  0  0  0
  184.9700  178.6250  144.9650 C   0  0  0  0  0  0  0  0  0  0  0  0
  185.6960  177.7850  144.0100 C   0  0  0  0  0  3  0  0  0  0  0  0
  187.6510  177.8800  146.5280 C   0  0  1  0  0  3  0  0  0  0  0  0
  186.9310  177.3040  144.0800 C   0  0  0  0  0  3  0  0  0  0  0  0
  187.9570  177.4460  145.1330 C   0  0  0  0  0  0  0  0  0  0  0  0
  183.6550  179.1590  144.5170 C   0  0  0  0  0  2  0  0  0  0  0  0
  183.2410  178.4910  143.3640 O   0  0  0  0  0  1  0  0  0  0  0  0
  189.6040  176.6280  143.4380 C   0  0  0  0  0  2  0  0  0  0  0  0
  192.7690  177.4490  139.6280 C   0  0  0  0  0  2  0  0  0  0  0  0
  190.1830  176.6760  140.7060 N   0  0  0  0  0  0  0  0  0  0  0  0
  190.8900  175.8380  136.6630 C   0  0  2  0  0  0  0  0  0  0  0  0
  190.9960  177.1380  143.0820 C   0  0  2  0  0  3  0  0  0  0  0  0
  191.0440  174.4510  136.7550 O   0  0  0  0  0  1  0  0  0  0  0  0
  191.9230  176.5040  137.5340 C   0  0  0  0  0  3  0  0  0  0  0  0
  191.7080  176.7520  138.8270 C   0  0  0  0  0  0  0  0  0  0  0  0
  190.8720  178.4560  142.3160 C   0  0  0  0  0  2  0  0  0  0  0  0
  189.2740  175.8980  138.6070 C   0  0  0  0  0  2  0  0  0  0  0  0
  190.3780  176.4860  139.4360 C   0  0  0  0  0  0  0  0  0  0  0  0
  189.4770  176.2180  137.1240 C   0  0  0  0  0  2  0  0  0  0  0  0
  191.2370  177.1910  141.5820 C   0  0  2  0  0  0  0  0  0  0  0  0
  192.6800  177.0720  141.1050 C   0  0  0  0  0  2  0  0  0  0  0  0
  191.0890  176.2820  135.2430 C   0  0  0  0  0  0  0  0  0  0  0  0
  190.1620  177.1280  134.6430 O   0  0  0  0  0  1  0  0  0  0  0  0
  192.1070  175.9230  134.5940 O   0  0  0  0  0  0  0  0  0  0  0  0
  1 18  1  6  0  0  0
  1 15  1  0  0  0  0
  1  8  1  0  0  0  0
  4  6  2  0  0  0  0
  5  9  2  0  0  0  0
  6  5  1  0  0  0  0
  7  3  2  0  0  0  0
  7  9  1  0  0  0  0
  8  4  1  1  0  0  0
  8  7  1  0  0  0  0
 10  2  2  0  0  0  0
 11 10  1  0  0  0  0
 12 14  1  0  0  0  0
 12 11  2  0  0  0  0
 13  2  1  1  0  0  0
 13  3  1  0  0  0  0
 14 15  2  0  0  0  0
 15 13  1  0  0  0  0
 16 11  1  0  0  0  0
 17 16  1  0  0  0  0
 19 31  1  0  0  0  0
 20 30  1  0  0  0  0
 21 23  1  1  0  0  0
 21 29  1  0  0  0  0
 21 24  1  0  0  0  0
 22 18  1  6  0  0  0
 24 25  2  0  0  0  0
 25 28  1  0  0  0  0
 25 19  1  0  0  0  0
 26 22  1  0  0  0  0
 27 28  1  0  0  0  0
 28 20  2  0  0  0  0
 29 27  1  0  0  0  0
 30 31  1  6  0  0  0
 30 26  1  0  0  0  0
 30 22  1  0  0  0  0
 32 21  1  0  0  0  0
 33 32  1  0  0  0  0
 34 32  2  0  0  0  0
M  END
>  <MODEL>
6

>  <REMARK>
 VINA RESULT:      -9.8      1.411      2.454
  Name = 
  4 active torsions:
  status: ('A' for Active; 'I' for Inactive)
    1  A    between atoms: C_1  and  C_9
    2  A    between atoms: C_3  and  C_25
    3  A    between atoms: C_7  and  C_11
    4  A    between atoms: C_8  and  C_9
                            x       y       z     vdW  Elec       q    Type
                         _______ _______ _______ _____ _____    ______ ____

>  <TORSDO>
F 4

$$$$
=
 OpenBabel11052415423D

 34 39  0  0  1  0  0  0  0  0999 V2000
  188.2440  178.4280  142.0610 C   0  0  1  0  0  3  0  0  0  0  0  0
  185.9420  177.7100  144.8700 C   0  0  0  0  0  3  0  0  0  0  0  0
  188.2050  177.0960  144.5950 C   0  0  0  0  0  3  0  0  0  0  0  0
  190.7140  177.8430  141.9640 C   0  0  0  0  0  3  0  0  0  0  0  0
  191.6810  176.5110  143.7850 C   0  0  0  0  0  3  0  0  0  0  0  0
  191.7240  177.0980  142.4300 C   0  0  0  0  0  3  0  0  0  0  0  0
  189.3790  177.2490  143.9950 C   0  0  0  0  0  0  0  0  0  0  0  0
  189.5310  178.2040  142.8330 C   0  0  2  0  0  3  0  0  0  0  0  0
  190.5700  176.5690  144.5220 C   0  0  0  0  0  3  0  0  0  0  0  0
  184.5810  178.2260  144.6940 C   0  0  0  0  0  2  0  0  0  0  0  0
  183.9870  178.7020  143.6050 C   0  0  0  0  0  0  0  0  0  0  0  0
  184.5700  178.7750  142.2640 C   0  0  0  0  0  3  0  0  0  0  0  0
  186.9920  177.7220  144.0510 C   0  0  0  0  0  0  0  0  0  0  0  0
  185.8290  178.6100  141.8820 C   0  0  0  0  0  3  0  0  0  0  0  0
  187.0360  178.2900  142.6710 C   0  0  0  0  0  0  0  0  0  0  0  0
  182.5640  179.1200  143.7370 C   0  0  0  0  0  2  0  0  0  0  0  0
  181.9110  178.9690  142.5140 O   0  0  0  0  0  1  0  0  0  0  0  0
  188.3590  179.0120  140.6750 C   0  0  0  0  0  2  0  0  0  0  0  0
  187.2800  176.0470  136.7690 C   0  0  0  0  0  2  0  0  0  0  0  0
  186.5980  178.1030  138.7070 N   0  0  0  0  0  0  0  0  0  0  0  0
  183.4520  176.4640  136.4790 C   0  0  2  0  0  0  0  0  0  0  0  0
  188.9420  177.9850  139.7120 C   0  0  2  0  0  3  0  0  0  0  0  0
  182.8550  175.6950  137.4840 O   0  0  0  0  0  1  0  0  0  0  0  0
  184.8780  176.0130  136.3000 C   0  0  0  0  0  3  0  0  0  0  0  0
  185.8790  176.5180  137.0240 C   0  0  0  0  0  0  0  0  0  0  0  0
  189.0140  178.5880  138.3090 C   0  0  0  0  0  2  0  0  0  0  0  0
  184.2530  178.2010  138.1320 C   0  0  0  0  0  2  0  0  0  0  0  0
  185.6360  177.6460  137.9620 C   0  0  0  0  0  0  0  0  0  0  0  0
  183.4050  177.9430  136.8840 C   0  0  0  0  0  2  0  0  0  0  0  0
  187.9570  177.5640  138.6330 C   0  0  2  0  0  0  0  0  0  0  0  0
  188.1410  176.1790  138.0240 C   0  0  0  0  0  2  0  0  0  0  0  0
  182.7150  176.2770  135.1850 C   0  0  0  0  0  0  0  0  0  0  0  0
  182.0640  177.3540  134.5940 O   0  0  0  0  0  0  0  0  0  0  0  0
  182.7040  175.1570  134.6070 O   0  0  0  0  0  1  0  0  0  0  0  0
  1 18  1  1  0  0  0
  1 15  1  0  0  0  0
  1  8  1  0  0  0  0
  4  6  2  0  0  0  0
  5  9  2  0  0  0  0
  6  5  1  0  0  0  0
  7  9  1  0  0  0  0
  7  3  2  0  0  0  0
  8  4  1  6  0  0  0
  8  7  1  0  0  0  0
 10  2  1  0  0  0  0
 11 16  1  0  0  0  0
 11 10  1  0  0  0  0
 12 11  2  0  0  0  0
 13  3  1  0  0  0  0
 13  2  2  0  0  0  0
 14 12  1  0  0  0  0
 14 15  2  0  0  0  0
 15 13  1  0  0  0  0
 17 16  1  0  0  0  0
 19 25  1  0  0  0  0
 19 31  1  0  0  0  0
 21 29  1  0  0  0  0
 21 23  1  1  0  0  0
 22 18  1  1  0  0  0
 24 21  1  0  0  0  0
 24 25  2  0  0  0  0
 25 28  1  0  0  0  0
 26 30  1  0  0  0  0
 26 22  1  0  0  0  0
 28 27  1  0  0  0  0
 28 20  2  0  0  0  0
 29 27  1  0  0  0  0
 30 31  1  6  0  0  0
 30 20  1  0  0  0  0
 30 22  1  0  0  0  0
 32 21  1  0  0  0  0
 33 32  2  0  0  0  0
 34 32  1  0  0  0  0
M  END
>  <MODEL>
7

>  <REMARK>
 VINA RESULT:      -9.5      3.745      5.542
  Name = 
  4 active torsions:
  status: ('A' for Active; 'I' for Inactive)
    1  A    between atoms: C_1  and  C_9
    2  A    between atoms: C_3  and  C_25
    3  A    between atoms: C_7  and  C_11
    4  A    between atoms: C_8  and  C_9
                            x       y       z     vdW  Elec       q    Type
                         _______ _______ _______ _____ _____    ______ ____

>  <TORSDO>
F 4

$$$$
=
 OpenBabel11052415423D

 34 39  0  0  1  0  0  0  0  0999 V2000
  188.4710  178.3390  142.2990 C   0  0  1  0  0  3  0  0  0  0  0  0
  186.4310  177.5080  145.2750 C   0  0  0  0  0  3  0  0  0  0  0  0
  188.6360  176.8560  144.7420 C   0  0  0  0  0  3  0  0  0  0  0  0
  190.9010  177.7000  141.9260 C   0  0  0  0  0  3  0  0  0  0  0  0
  191.9980  176.2360  143.5610 C   0  0  0  0  0  3  0  0  0  0  0  0
  191.9280  176.9030  142.2450 C   0  0  0  0  0  3  0  0  0  0  0  0
  189.7510  177.0160  144.0400 C   0  0  0  0  0  0  0  0  0  0  0  0
  189.8190  178.0360  142.9260 C   0  0  2  0  0  3  0  0  0  0  0  0
  190.9660  176.2760  144.4060 C   0  0  0  0  0  3  0  0  0  0  0  0
  185.0760  178.0670  145.2640 C   0  0  0  0  0  2  0  0  0  0  0  0
  184.3940  178.6240  144.2690 C   0  0  0  0  0  0  0  0  0  0  0  0
  184.8460  178.7640  142.8830 C   0  0  0  0  0  3  0  0  0  0  0  0
  187.3960  177.5440  144.3580 C   0  0  0  0  0  0  0  0  0  0  0  0
  186.0570  178.5910  142.3700 C   0  0  0  0  0  3  0  0  0  0  0  0
  187.3240  178.1940  143.0160 C   0  0  0  0  0  0  0  0  0  0  0  0
  183.0040  179.0680  144.5650 C   0  0  0  0  0  2  0  0  0  0  0  0
  182.3280  179.3330  143.3740 O   0  0  0  0  0  1  0  0  0  0  0  0
  188.4690  179.0030  140.9460 C   0  0  0  0  0  2  0  0  0  0  0  0
  186.2580  176.6560  137.0970 C   0  0  0  0  0  2  0  0  0  0  0  0
  186.2960  178.6280  139.2310 N   0  0  0  0  0  0  0  0  0  0  0  0
  182.5950  177.8300  137.4380 C   0  0  2  0  0  0  0  0  0  0  0  0
  188.6850  177.9700  139.8460 C   0  0  2  0  0  3  0  0  0  0  0  0
  182.0030  177.1070  138.4790 O   0  0  0  0  0  1  0  0  0  0  0  0
  183.8580  177.1280  137.0110 C   0  0  0  0  0  3  0  0  0  0  0  0
  185.0340  177.3650  137.5950 C   0  0  0  0  0  0  0  0  0  0  0  0
  188.6780  178.6690  138.4860 C   0  0  0  0  0  2  0  0  0  0  0  0
  183.9630  179.2280  139.0390 C   0  0  0  0  0  2  0  0  0  0  0  0
  185.1650  178.4330  138.6220 C   0  0  0  0  0  0  0  0  0  0  0  0
  182.9110  179.2490  137.9280 C   0  0  0  0  0  2  0  0  0  0  0  0
  187.4910  177.8450  138.9130 C   0  0  2  0  0  0  0  0  0  0  0  0
  187.2980  176.5080  138.2050 C   0  0  0  0  0  2  0  0  0  0  0  0
  181.6580  177.9020  136.2680 C   0  0  0  0  0  0  0  0  0  0  0  0
  180.3130  178.1910  136.4720 O   0  0  0  0  0  1  0  0  0  0  0  0
  182.0810  177.7370  135.0930 O   0  0  0  0  0  0  0  0  0  0  0  0
  1 18  1  1  0  0  0
  1  8  1  0  0  0  0
  1 15  1  0  0  0  0
  4  6  2  0  0  0  0
  5  9  2  0  0  0  0
  6  5  1  0  0  0  0
  7  9  1  0  0  0  0
  7  3  2  0  0  0  0
  8  4  1  6  0  0  0
  8  7  1  0  0  0  0
 10  2  1  0  0  0  0
 11 16  1  0  0  0  0
 11 10  1  0  0  0  0
 12 11  2  0  0  0  0
 13  3  1  0  0  0  0
 13  2  2  0  0  0  0
 14 12  1  0  0  0  0
 14 15  2  0  0  0  0
 15 13  1  0  0  0  0
 17 16  1  0  0  0  0
 19 25  1  0  0  0  0
 19 31  1  0  0  0  0
 21 29  1  0  0  0  0
 21 23  1  1  0  0  0
 22 18  1  1  0  0  0
 24 21  1  0  0  0  0
 24 25  2  0  0  0  0
 25 28  1  0  0  0  0
 26 30  1  0  0  0  0
 26 22  1  0  0  0  0
 28 27  1  0  0  0  0
 28 20  2  0  0  0  0
 29 27  1  0  0  0  0
 30 31  1  6  0  0  0
 30 20  1  0  0  0  0
 30 22  1  0  0  0  0
 32 33  1  0  0  0  0
 32 21  1  0  0  0  0
 34 32  2  0  0  0  0
M  END
>  <MODEL>
8

>  <REMARK>
 VINA RESULT:      -9.4      3.914      6.087
  Name = 
  4 active torsions:
  status: ('A' for Active; 'I' for Inactive)
    1  A    between atoms: C_1  and  C_9
    2  A    between atoms: C_3  and  C_25
    3  A    between atoms: C_7  and  C_11
    4  A    between atoms: C_8  and  C_9
                            x       y       z     vdW  Elec       q    Type
                         _______ _______ _______ _____ _____    ______ ____

>  <TORSDO>
F 4

$$$$
=
 OpenBabel11052415423D

 34 39  0  0  1  0  0  0  0  0999 V2000
  188.4330  177.4300  144.1580 C   0  0  1  0  0  3  0  0  0  0  0  0
  185.5750  178.6460  146.1740 C   0  0  0  0  0  3  0  0  0  0  0  0
  187.7080  177.9230  146.8840 C   0  0  0  0  0  3  0  0  0  0  0  0
  190.7380  176.8320  145.0400 C   0  0  0  0  0  3  0  0  0  0  0  0
  191.1150  176.8590  147.4650 C   0  0  0  0  0  3  0  0  0  0  0  0
  191.5020  176.4950  146.0860 C   0  0  0  0  0  3  0  0  0  0  0  0
  188.9780  177.6420  146.6230 C   0  0  0  0  0  0  0  0  0  0  0  0
  189.5000  177.6840  145.2060 C   0  0  2  0  0  3  0  0  0  0  0  0
  189.9170  177.3890  147.7240 C   0  0  0  0  0  3  0  0  0  0  0  0
  184.3800  178.9890  145.3980 C   0  0  0  0  0  3  0  0  0  0  0  0
  184.0830  178.7190  144.1310 C   0  0  0  0  0  0  0  0  0  0  0  0
  184.8990  177.9410  143.1980 C   0  0  0  0  0  3  0  0  0  0  0  0
  186.7400  178.1240  145.7960 C   0  0  1  0  0  3  0  0  0  0  0  0
  186.1580  177.5380  143.3140 C   0  0  0  0  0  3  0  0  0  0  0  0
  187.1300  177.7300  144.4100 C   0  0  0  0  0  0  0  0  0  0  0  0
  182.7550  179.1750  143.6360 C   0  0  0  0  0  2  0  0  0  0  0  0
  181.7410  178.5800  144.3870 O   0  0  0  0  0  1  0  0  0  0  0  0
  188.8930  177.0430  142.7760 C   0  0  0  0  0  2  0  0  0  0  0  0
  189.3390  178.4630  137.9810 C   0  0  0  0  0  2  0  0  0  0  0  0
  189.8260  176.6230  140.1770 N   0  0  0  0  0  0  0  0  0  0  0  0
  192.0570  176.0490  136.6780 C   0  0  2  0  0  0  0  0  0  0  0  0
  188.4610  178.0910  141.7580 C   0  0  2  0  0  3  0  0  0  0  0  0
  193.2970  176.5050  137.1370 O   0  0  0  0  0  1  0  0  0  0  0  0
  191.0480  177.1600  136.8090 C   0  0  0  0  0  3  0  0  0  0  0  0
  190.3520  177.3580  137.9310 C   0  0  0  0  0  0  0  0  0  0  0  0
  187.5340  177.4460  140.7270 C   0  0  0  0  0  2  0  0  0  0  0  0
  191.3870  175.2260  138.9720 C   0  0  0  0  0  2  0  0  0  0  0  0
  190.4610  176.4020  139.0650 C   0  0  0  0  0  0  0  0  0  0  0  0
  191.6280  174.8360  137.5120 C   0  0  0  0  0  2  0  0  0  0  0  0
  188.9540  177.7850  140.3530 C   0  0  2  0  0  0  0  0  0  0  0  0
  189.1450  178.9670  139.4090 C   0  0  0  0  0  2  0  0  0  0  0  0
  192.1600  175.6520  135.2340 C   0  0  0  0  0  0  0  0  0  0  0  0
  193.3940  175.6750  134.5940 O   0  0  0  0  0  0  0  0  0  0  0  0
  191.1430  175.2640  134.5990 O   0  0  0  0  0  1  0  0  0  0  0  0
  1 18  1  6  0  0  0
  1 15  1  0  0  0  0
  1  8  1  0  0  0  0
  4  6  2  0  0  0  0
  5  9  2  0  0  0  0
  6  5  1  0  0  0  0
  7  3  2  0  0  0  0
  7  9  1  0  0  0  0
  8  4  1  1  0  0  0
  8  7  1  0  0  0  0
 10  2  2  0  0  0  0
 11 10  1  0  0  0  0
 12 14  1  0  0  0  0
 12 11  2  0  0  0  0
 13  2  1  1  0  0  0
 13  3  1  0  0  0  0
 14 15  2  0  0  0  0
 15 13  1  0  0  0  0
 16 11  1  0  0  0  0
 16 17  1  0  0  0  0
 19 31  1  0  0  0  0
 20 30  1  0  0  0  0
 21 24  1  0  0  0  0
 21 23  1  1  0  0  0
 21 29  1  0  0  0  0
 22 18  1  1  0  0  0
 24 25  2  0  0  0  0
 25 19  1  0  0  0  0
 25 28  1  0  0  0  0
 26 22  1  0  0  0  0
 27 28  1  0  0  0  0
 28 20  2  0  0  0  0
 29 27  1  0  0  0  0
 30 31  1  6  0  0  0
 30 26  1  0  0  0  0
 30 22  1  0  0  0  0
 32 21  1  0  0  0  0
 33 32  2  0  0  0  0
 34 32  1  0  0  0  0
M  END
>  <MODEL>
9

>  <REMARK>
 VINA RESULT:      -9.3      1.410      2.215
  Name = 
  4 active torsions:
  status: ('A' for Active; 'I' for Inactive)
    1  A    between atoms: C_1  and  C_9
    2  A    between atoms: C_3  and  C_25
    3  A    between atoms: C_7  and  C_11
    4  A    between atoms: C_8  and  C_9
                            x       y       z     vdW  Elec       q    Type
                         _______ _______ _______ _____ _____    ______ ____

>  <TORSDO>
F 4

$$$$
