=
 OpenBabel11052413533D

 27 31  0  0  0  0  0  0  0  0999 V2000
  187.8990  177.5330  145.0250 N   0  0  0  0  0  0  0  0  0  0  0  0
  187.9880  177.7290  142.6190 C   0  0  0  0  0  0  0  0  0  0  0  0
  190.3260  177.0390  143.2580 N   0  0  0  0  0  0  0  0  0  0  0  0
  187.4220  177.9490  141.4130 N   0  0  0  0  0  0  0  0  0  0  0  0
  192.7710  176.0140  147.1420 F   0  0  0  0  0  0  0  0  0  0  0  0
  191.5920  176.3830  146.5890 C   0  0  0  0  0  0  0  0  0  0  0  0
  187.3090  177.8150  143.8350 C   0  0  0  0  0  0  0  0  0  0  0  0
  189.5070  177.4310  141.0060 C   0  0  0  0  0  0  0  0  0  0  0  0
  189.1380  177.1520  145.4310 C   0  0  0  0  0  0  0  0  0  0  0  0
  189.3640  177.3760  142.3810 C   0  0  0  0  0  0  0  0  0  0  0  0
  191.4870  176.5470  145.2100 C   0  0  0  0  0  3  0  0  0  0  0  0
  188.3240  177.7760  140.4560 N   0  0  0  0  0  0  0  0  0  0  0  0
  190.4810  176.5980  147.3950 C   0  0  0  0  0  3  0  0  0  0  0  0
  189.2720  176.9780  146.8170 C   0  0  0  0  0  3  0  0  0  0  0  0
  190.2820  176.9270  144.6050 C   0  0  0  0  0  0  0  0  0  0  0  0
  190.6150  176.4730  138.9900 C   0  0  0  0  0  3  0  0  0  0  0  0
  193.0080  176.6240  138.6680 C   0  0  0  0  0  3  0  0  0  0  0  0
  193.1270  177.3080  139.8810 C   0  0  0  0  0  3  0  0  0  0  0  0
  191.9890  177.5740  140.6470 C   0  0  0  0  0  3  0  0  0  0  0  0
  190.7220  177.1590  140.2090 C   0  0  0  0  0  0  0  0  0  0  0  0
  191.7510  176.2070  138.2220 C   0  0  0  0  0  3  0  0  0  0  0  0
  183.1890  179.0400  144.0380 C   0  0  0  0  0  3  0  0  0  0  0  0
  185.8750  178.2150  143.8880 C   0  0  0  0  0  0  0  0  0  0  0  0
  185.0850  178.3050  142.7280 C   0  0  0  0  0  3  0  0  0  0  0  0
  183.7510  178.7110  142.8020 C   0  0  0  0  0  3  0  0  0  0  0  0
  183.9640  178.9660  145.1980 C   0  0  0  0  0  3  0  0  0  0  0  0
  185.2990  178.5600  145.1210 C   0  0  0  0  0  3  0  0  0  0  0  0
  1  9  1  0  0  0  0
  2  7  1  0  0  0  0
  3 15  1  0  0  0  0
  4  2  2  0  0  0  0
  6  5  1  0  0  0  0
  6 13  1  0  0  0  0
  7 23  1  0  0  0  0
  7  1  2  0  0  0  0
  8 10  1  0  0  0  0
  9 14  1  0  0  0  0
 10  2  1  0  0  0  0
 10  3  2  0  0  0  0
 11  6  2  0  0  0  0
 12  8  2  0  0  0  0
 12  4  1  0  0  0  0
 14 13  2  0  0  0  0
 15 11  1  0  0  0  0
 15  9  2  0  0  0  0
 16 20  1  0  0  0  0
 17 18  2  0  0  0  0
 18 19  1  0  0  0  0
 20 19  2  0  0  0  0
 20  8  1  0  0  0  0
 21 17  1  0  0  0  0
 21 16  2  0  0  0  0
 22 26  1  0  0  0  0
 23 27  1  0  0  0  0
 24 25  1  0  0  0  0
 24 23  2  0  0  0  0
 25 22  2  0  0  0  0
 27 26  2  0  0  0  0
M  END
>  <MODEL>
1

>  <REMARK>
 VINA RESULT:     -11.2      0.000      0.000
  Name = 
  2 active torsions:
  status: ('A' for Active; 'I' for Inactive)
    1  A    between atoms: C_9  and  C_15
    2  A    between atoms: C_14  and  C_17
                            x       y       z     vdW  Elec       q    Type
                         _______ _______ _______ _____ _____    ______ ____

>  <TORSDO>
F 2

$$$$
=
 OpenBabel11052413533D

 27 31  0  0  0  0  0  0  0  0999 V2000
  187.2150  177.9510  144.8330 N   0  0  0  0  0  0  0  0  0  0  0  0
  188.7150  177.7200  142.9540 C   0  0  0  0  0  0  0  0  0  0  0  0
  186.5190  178.3740  141.9010 N   0  0  0  0  0  0  0  0  0  0  0  0
  189.9300  177.4940  142.4110 N   0  0  0  0  0  0  0  0  0  0  0  0
  182.1290  179.4050  143.2340 F   0  0  0  0  0  0  0  0  0  0  0  0
  183.3870  179.0510  143.5900 C   0  0  0  0  0  0  0  0  0  0  0  0
  188.4380  177.6640  144.3200 C   0  0  0  0  0  0  0  0  0  0  0  0
  188.6100  177.9660  140.7340 C   0  0  0  0  0  0  0  0  0  0  0  0
  186.0070  178.3130  144.3260 C   0  0  0  0  0  0  0  0  0  0  0  0
  187.8230  178.0430  141.8690 C   0  0  0  0  0  0  0  0  0  0  0  0
  184.3650  178.8710  142.6160 C   0  0  0  0  0  3  0  0  0  0  0  0
  189.8670  177.6370  141.0940 N   0  0  0  0  0  0  0  0  0  0  0  0
  183.7070  178.8680  144.9290 C   0  0  0  0  0  3  0  0  0  0  0  0
  185.0020  178.5030  145.2860 C   0  0  0  0  0  3  0  0  0  0  0  0
  185.6760  178.5050  142.9490 C   0  0  0  0  0  0  0  0  0  0  0  0
  189.1440  178.6910  138.4100 C   0  0  0  0  0  3  0  0  0  0  0  0
  187.4720  178.6690  136.6610 C   0  0  0  0  0  3  0  0  0  0  0  0
  186.5280  178.1850  137.5710 C   0  0  0  0  0  3  0  0  0  0  0  0
  186.8940  177.9540  138.8990 C   0  0  0  0  0  3  0  0  0  0  0  0
  188.2050  178.2050  139.3320 C   0  0  0  0  0  0  0  0  0  0  0  0
  188.7810  178.9210  137.0810 C   0  0  0  0  0  3  0  0  0  0  0  0
  191.4300  176.5400  147.2020 C   0  0  0  0  0  3  0  0  0  0  0  0
  189.4950  177.2920  145.3020 C   0  0  0  0  0  0  0  0  0  0  0  0
  190.7590  176.8290  144.8960 C   0  0  0  0  0  3  0  0  0  0  0  0
  191.7210  176.4590  145.8380 C   0  0  0  0  0  3  0  0  0  0  0  0
  190.1750  176.9870  147.6220 C   0  0  0  0  0  3  0  0  0  0  0  0
  189.2140  177.3560  146.6770 C   0  0  0  0  0  3  0  0  0  0  0  0
  2  7  2  0  0  0  0
  3 15  2  0  0  0  0
  4  2  1  0  0  0  0
  5  6  1  0  0  0  0
  6 13  1  0  0  0  0
  7  1  1  0  0  0  0
  7 23  1  0  0  0  0
  8 12  1  0  0  0  0
  8 10  2  0  0  0  0
  9  1  2  0  0  0  0
  9 14  1  0  0  0  0
 10  3  1  0  0  0  0
 10  2  1  0  0  0  0
 11 15  1  0  0  0  0
 11  6  2  0  0  0  0
 12  4  2  0  0  0  0
 13 14  2  0  0  0  0
 15  9  1  0  0  0  0
 16 20  1  0  0  0  0
 17 21  1  0  0  0  0
 17 18  2  0  0  0  0
 18 19  1  0  0  0  0
 19 20  2  0  0  0  0
 20  8  1  0  0  0  0
 21 16  2  0  0  0  0
 22 26  1  0  0  0  0
 23 27  1  0  0  0  0
 24 23  2  0  0  0  0
 24 25  1  0  0  0  0
 25 22  2  0  0  0  0
 27 26  2  0  0  0  0
M  END
>  <MODEL>
2

>  <REMARK>
 VINA RESULT:     -10.9      2.929      5.696
  Name = 
  2 active torsions:
  status: ('A' for Active; 'I' for Inactive)
    1  A    between atoms: C_9  and  C_15
    2  A    between atoms: C_14  and  C_17
                            x       y       z     vdW  Elec       q    Type
                         _______ _______ _______ _____ _____    ______ ____

>  <TORSDO>
F 2

$$$$
=
 OpenBabel11052413533D

 27 31  0  0  0  0  0  0  0  0999 V2000
  186.7560  178.2390  140.9310 N   0  0  0  0  0  0  0  0  0  0  0  0
  188.9870  177.5970  141.5990 C   0  0  0  0  0  0  0  0  0  0  0  0
  187.7300  177.7760  143.7760 N   0  0  0  0  0  0  0  0  0  0  0  0
  190.2590  177.2340  141.3320 N   0  0  0  0  0  0  0  0  0  0  0  0
  183.3960  178.8120  145.2810 F   0  0  0  0  0  0  0  0  0  0  0  0
  184.2470  178.6610  144.2380 C   0  0  0  0  0  0  0  0  0  0  0  0
  188.0430  177.9320  140.6280 C   0  0  0  0  0  0  0  0  0  0  0  0
  190.0580  177.1400  143.5070 C   0  0  0  0  0  0  0  0  0  0  0  0
  186.0230  178.3440  142.0700 C   0  0  0  0  0  0  0  0  0  0  0  0
  188.8220  177.5360  143.0280 C   0  0  0  0  0  0  0  0  0  0  0  0
  185.5730  178.3000  144.4640 C   0  0  0  0  0  3  0  0  0  0  0  0
  190.8960  176.9660  142.4650 N   0  0  0  0  0  0  0  0  0  0  0  0
  183.8000  178.8620  142.9380 C   0  0  0  0  0  3  0  0  0  0  0  0
  184.6820  178.7040  141.8730 C   0  0  0  0  0  3  0  0  0  0  0  0
  186.4800  178.1350  143.4080 C   0  0  0  0  0  0  0  0  0  0  0  0
  191.6670  176.2660  145.1970 C   0  0  0  0  0  3  0  0  0  0  0  0
  191.2470  176.4730  147.5710 C   0  0  0  0  0  3  0  0  0  0  0  0
  190.0390  177.1210  147.3000 C   0  0  0  0  0  3  0  0  0  0  0  0
  189.6470  177.3410  145.9770 C   0  0  0  0  0  3  0  0  0  0  0  0
  190.4570  176.9160  144.9130 C   0  0  0  0  0  0  0  0  0  0  0  0
  192.0620  176.0460  146.5200 C   0  0  0  0  0  3  0  0  0  0  0  0
  189.0060  177.9660  136.4330 C   0  0  0  0  0  3  0  0  0  0  0  0
  188.4040  177.9570  139.1820 C   0  0  0  0  0  0  0  0  0  0  0  0
  188.9090  179.1130  138.5620 C   0  0  0  0  0  3  0  0  0  0  0  0
  189.2120  179.1170  137.1980 C   0  0  0  0  0  3  0  0  0  0  0  0
  188.4940  176.8130  137.0330 C   0  0  0  0  0  3  0  0  0  0  0  0
  188.1910  176.8120  138.3970 C   0  0  0  0  0  3  0  0  0  0  0  0
  1  9  1  0  0  0  0
  2 10  1  0  0  0  0
  4  2  2  0  0  0  0
  4 12  1  0  0  0  0
  6 11  1  0  0  0  0
  6  5  1  0  0  0  0
  7  1  2  0  0  0  0
  7  2  1  0  0  0  0
  8 20  1  0  0  0  0
  9 15  1  0  0  0  0
 10  8  1  0  0  0  0
 10  3  2  0  0  0  0
 12  8  2  0  0  0  0
 13  6  2  0  0  0  0
 14  9  2  0  0  0  0
 14 13  1  0  0  0  0
 15  3  1  0  0  0  0
 15 11  2  0  0  0  0
 16 21  1  0  0  0  0
 18 17  1  0  0  0  0
 19 18  2  0  0  0  0
 20 16  2  0  0  0  0
 20 19  1  0  0  0  0
 21 17  2  0  0  0  0
 22 26  2  0  0  0  0
 22 25  1  0  0  0  0
 23  7  1  0  0  0  0
 24 23  1  0  0  0  0
 25 24  2  0  0  0  0
 26 27  1  0  0  0  0
 27 23  2  0  0  0  0
M  END
>  <MODEL>
3

>  <REMARK>
 VINA RESULT:     -10.5      2.670      6.390
  Name = 
  2 active torsions:
  status: ('A' for Active; 'I' for Inactive)
    1  A    between atoms: C_9  and  C_15
    2  A    between atoms: C_14  and  C_17
                            x       y       z     vdW  Elec       q    Type
                         _______ _______ _______ _____ _____    ______ ____

>  <TORSDO>
F 2

$$$$
=
 OpenBabel11052413533D

 27 31  0  0  0  0  0  0  0  0999 V2000
  190.3240  177.0880  143.0400 N   0  0  0  0  0  0  0  0  0  0  0  0
  188.3660  177.3530  144.4300 C   0  0  0  0  0  0  0  0  0  0  0  0
  187.5420  177.8970  142.1100 N   0  0  0  0  0  0  0  0  0  0  0  0
  187.7190  177.2910  145.6130 N   0  0  0  0  0  0  0  0  0  0  0  0
  189.2270  178.1330  137.7260 F   0  0  0  0  0  0  0  0  0  0  0  0
  189.4590  177.8830  139.0370 C   0  0  0  0  0  0  0  0  0  0  0  0
  189.7200  177.0670  144.2560 C   0  0  0  0  0  0  0  0  0  0  0  0
  186.2120  177.8800  144.1420 C   0  0  0  0  0  0  0  0  0  0  0  0
  189.9380  177.3610  141.7660 C   0  0  0  0  0  0  0  0  0  0  0  0
  187.3930  177.7330  143.4370 C   0  0  0  0  0  0  0  0  0  0  0  0
  188.4290  178.0020  139.9650 C   0  0  0  0  0  3  0  0  0  0  0  0
  186.4420  177.6060  145.4430 N   0  0  0  0  0  0  0  0  0  0  0  0
  190.7270  177.5030  139.4590 C   0  0  0  0  0  3  0  0  0  0  0  0
  190.9570  177.2480  140.8090 C   0  0  0  0  0  3  0  0  0  0  0  0
  188.6350  177.7490  141.3280 C   0  0  0  0  0  0  0  0  0  0  0  0
  183.8670  178.6400  144.5060 C   0  0  0  0  0  3  0  0  0  0  0  0
  182.3480  178.9920  142.6550 C   0  0  0  0  0  3  0  0  0  0  0  0
  183.3540  178.6150  141.7600 C   0  0  0  0  0  3  0  0  0  0  0  0
  184.6150  178.2530  142.2400 C   0  0  0  0  0  3  0  0  0  0  0  0
  184.8840  178.2610  143.6170 C   0  0  0  0  0  0  0  0  0  0  0  0
  182.6050  179.0040  144.0280 C   0  0  0  0  0  3  0  0  0  0  0  0
  192.1390  176.0030  147.6530 C   0  0  0  0  0  3  0  0  0  0  0  0
  190.5830  176.7040  145.4150 C   0  0  0  0  0  0  0  0  0  0  0  0
  191.6550  175.8030  145.2910 C   0  0  0  0  0  3  0  0  0  0  0  0
  192.4310  175.4580  146.4000 C   0  0  0  0  0  3  0  0  0  0  0  0
  191.0690  176.8900  147.7950 C   0  0  0  0  0  3  0  0  0  0  0  0
  190.2950  177.2340  146.6840 C   0  0  0  0  0  3  0  0  0  0  0  0
  1  7  1  0  0  0  0
  2  4  1  0  0  0  0
  3 10  1  0  0  0  0
  5  6  1  0  0  0  0
  6 13  1  0  0  0  0
  6 11  2  0  0  0  0
  7  2  2  0  0  0  0
  7 23  1  0  0  0  0
  8 12  1  0  0  0  0
  9  1  2  0  0  0  0
 10  8  2  0  0  0  0
 10  2  1  0  0  0  0
 11 15  1  0  0  0  0
 12  4  2  0  0  0  0
 13 14  2  0  0  0  0
 14  9  1  0  0  0  0
 15  9  1  0  0  0  0
 15  3  2  0  0  0  0
 17 21  2  0  0  0  0
 18 19  2  0  0  0  0
 18 17  1  0  0  0  0
 19 20  1  0  0  0  0
 20  8  1  0  0  0  0
 20 16  2  0  0  0  0
 21 16  1  0  0  0  0
 22 26  1  0  0  0  0
 23 27  1  0  0  0  0
 24 23  2  0  0  0  0
 24 25  1  0  0  0  0
 25 22  2  0  0  0  0
 27 26  2  0  0  0  0
M  END
>  <MODEL>
4

>  <REMARK>
 VINA RESULT:     -10.3      2.304      7.105
  Name = 
  2 active torsions:
  status: ('A' for Active; 'I' for Inactive)
    1  A    between atoms: C_9  and  C_15
    2  A    between atoms: C_14  and  C_17
                            x       y       z     vdW  Elec       q    Type
                         _______ _______ _______ _____ _____    ______ ____

>  <TORSDO>
F 2

$$$$
=
 OpenBabel11052413533D

 27 31  0  0  0  0  0  0  0  0999 V2000
  190.4600  177.1290  143.1780 N   0  0  0  0  0  0  0  0  0  0  0  0
  188.6030  177.6950  141.7410 C   0  0  0  0  0  0  0  0  0  0  0  0
  187.6220  177.7800  144.0610 N   0  0  0  0  0  0  0  0  0  0  0  0
  188.0590  177.9580  140.5340 N   0  0  0  0  0  0  0  0  0  0  0  0
  189.0050  177.1330  148.5090 F   0  0  0  0  0  0  0  0  0  0  0  0
  189.3260  177.1430  147.1940 C   0  0  0  0  0  0  0  0  0  0  0  0
  189.9350  177.3330  141.9430 C   0  0  0  0  0  0  0  0  0  0  0  0
  186.4520  178.2530  141.9860 C   0  0  0  0  0  0  0  0  0  0  0  0
  189.9920  177.1670  144.4530 C   0  0  0  0  0  0  0  0  0  0  0  0
  187.5660  177.8900  142.7210 C   0  0  0  0  0  0  0  0  0  0  0  0
  188.3590  177.4440  146.2390 C   0  0  0  0  0  3  0  0  0  0  0  0
  186.7820  178.2860  140.6790 N   0  0  0  0  0  0  0  0  0  0  0  0
  190.6250  176.8560  146.7920 C   0  0  0  0  0  3  0  0  0  0  0  0
  190.9460  176.8690  145.4370 C   0  0  0  0  0  3  0  0  0  0  0  0
  188.6580  177.4640  144.8700 C   0  0  0  0  0  0  0  0  0  0  0  0
  184.9450  179.1090  143.7770 C   0  0  0  0  0  3  0  0  0  0  0  0
  182.5450  179.1990  143.4760 C   0  0  0  0  0  3  0  0  0  0  0  0
  182.6870  178.6670  142.1910 C   0  0  0  0  0  3  0  0  0  0  0  0
  183.9580  178.3570  141.7010 C   0  0  0  0  0  3  0  0  0  0  0  0
  185.0990  178.5750  142.4880 C   0  0  0  0  0  0  0  0  0  0  0  0
  183.6740  179.4200  144.2680 C   0  0  0  0  0  3  0  0  0  0  0  0
  192.6880  176.8020  138.6780 C   0  0  0  0  0  3  0  0  0  0  0  0
  190.8670  177.1620  140.7940 C   0  0  0  0  0  0  0  0  0  0  0  0
  190.4580  176.5700  139.5860 C   0  0  0  0  0  3  0  0  0  0  0  0
  191.3600  176.3950  138.5340 C   0  0  0  0  0  3  0  0  0  0  0  0
  193.1130  177.3820  139.8760 C   0  0  0  0  0  3  0  0  0  0  0  0
  192.2090  177.5550  140.9270 C   0  0  0  0  0  3  0  0  0  0  0  0
  1  9  1  0  0  0  0
  2  7  1  0  0  0  0
  2 10  1  0  0  0  0
  3 15  1  0  0  0  0
  4 12  1  0  0  0  0
  4  2  2  0  0  0  0
  6  5  1  0  0  0  0
  7  1  2  0  0  0  0
  8 20  1  0  0  0  0
  8 10  1  0  0  0  0
  9 15  2  0  0  0  0
  9 14  1  0  0  0  0
 10  3  2  0  0  0  0
 11  6  2  0  0  0  0
 12  8  2  0  0  0  0
 13  6  1  0  0  0  0
 14 13  2  0  0  0  0
 15 11  1  0  0  0  0
 16 21  1  0  0  0  0
 17 21  2  0  0  0  0
 18 17  1  0  0  0  0
 19 18  2  0  0  0  0
 19 20  1  0  0  0  0
 20 16  2  0  0  0  0
 22 26  1  0  0  0  0
 23 27  1  0  0  0  0
 23  7  1  0  0  0  0
 24 23  2  0  0  0  0
 25 22  2  0  0  0  0
 25 24  1  0  0  0  0
 26 27  2  0  0  0  0
M  END
>  <MODEL>
5

>  <REMARK>
 VINA RESULT:     -10.2      1.126      6.360
  Name = 
  2 active torsions:
  status: ('A' for Active; 'I' for Inactive)
    1  A    between atoms: C_9  and  C_15
    2  A    between atoms: C_14  and  C_17
                            x       y       z     vdW  Elec       q    Type
                         _______ _______ _______ _____ _____    ______ ____

>  <TORSDO>
F 2

$$$$
=
 OpenBabel11052413533D

 27 31  0  0  0  0  0  0  0  0999 V2000
  186.3250  178.4700  139.8880 N   0  0  0  0  0  0  0  0  0  0  0  0
  185.5240  178.4500  142.1660 C   0  0  0  0  0  0  0  0  0  0  0  0
  187.9640  177.8560  142.3770 N   0  0  0  0  0  0  0  0  0  0  0  0
  184.5670  178.6310  143.1020 N   0  0  0  0  0  0  0  0  0  0  0  0
  191.7040  177.2400  139.5930 F   0  0  0  0  0  0  0  0  0  0  0  0
  190.3880  177.5390  139.7030 C   0  0  0  0  0  0  0  0  0  0  0  0
  185.3250  178.6080  140.7950 C   0  0  0  0  0  0  0  0  0  0  0  0
  186.3800  178.0960  144.2010 C   0  0  0  0  0  0  0  0  0  0  0  0
  187.6480  178.1630  139.9370 C   0  0  0  0  0  0  0  0  0  0  0  0
  186.7350  178.1030  142.8640 C   0  0  0  0  0  0  0  0  0  0  0  0
  189.7770  177.5600  140.9540 C   0  0  0  0  0  3  0  0  0  0  0  0
  185.0740  178.4180  144.3090 N   0  0  0  0  0  0  0  0  0  0  0  0
  189.6430  177.8300  138.5680 C   0  0  0  0  0  3  0  0  0  0  0  0
  188.2900  178.1370  138.6900 C   0  0  0  0  0  3  0  0  0  0  0  0
  188.4180  177.8660  141.1030 C   0  0  0  0  0  0  0  0  0  0  0  0
  186.7300  177.9590  146.6650 C   0  0  0  0  0  3  0  0  0  0  0  0
  188.8460  177.2570  147.6050 C   0  0  0  0  0  3  0  0  0  0  0  0
  189.3650  177.0980  146.3170 C   0  0  0  0  0  3  0  0  0  0  0  0
  188.5650  177.3700  145.2050 C   0  0  0  0  0  3  0  0  0  0  0  0
  187.2400  177.8040  145.3670 C   0  0  0  0  0  0  0  0  0  0  0  0
  187.5280  177.6870  147.7790 C   0  0  0  0  0  3  0  0  0  0  0  0
  181.4820  179.6060  139.1340 C   0  0  0  0  0  3  0  0  0  0  0  0
  183.9830  178.9570  140.2490 C   0  0  0  0  0  0  0  0  0  0  0  0
  182.8070  178.3470  140.7200 C   0  0  0  0  0  3  0  0  0  0  0  0
  181.5650  178.6720  140.1700 C   0  0  0  0  0  3  0  0  0  0  0  0
  182.6420  180.2120  138.6480 C   0  0  0  0  0  3  0  0  0  0  0  0
  183.8840  179.8850  139.1990 C   0  0  0  0  0  3  0  0  0  0  0  0
  1  9  2  0  0  0  0
  1  7  1  0  0  0  0
  2 10  1  0  0  0  0
  2  4  1  0  0  0  0
  3 10  1  0  0  0  0
  4 12  2  0  0  0  0
  5  6  1  0  0  0  0
  6 11  2  0  0  0  0
  7  2  2  0  0  0  0
  8 12  1  0  0  0  0
  8 20  1  0  0  0  0
  9 15  1  0  0  0  0
 10  8  2  0  0  0  0
 11 15  1  0  0  0  0
 13 14  2  0  0  0  0
 13  6  1  0  0  0  0
 14  9  1  0  0  0  0
 15  3  2  0  0  0  0
 16 21  1  0  0  0  0
 17 21  2  0  0  0  0
 18 17  1  0  0  0  0
 19 20  1  0  0  0  0
 19 18  2  0  0  0  0
 20 16  2  0  0  0  0
 22 25  1  0  0  0  0
 23 24  1  0  0  0  0
 23  7  1  0  0  0  0
 25 24  2  0  0  0  0
 26 22  2  0  0  0  0
 26 27  1  0  0  0  0
 27 23  2  0  0  0  0
M  END
>  <MODEL>
6

>  <REMARK>
 VINA RESULT:      -9.9      2.724      6.135
  Name = 
  2 active torsions:
  status: ('A' for Active; 'I' for Inactive)
    1  A    between atoms: C_9  and  C_15
    2  A    between atoms: C_14  and  C_17
                            x       y       z     vdW  Elec       q    Type
                         _______ _______ _______ _____ _____    ______ ____

>  <TORSDO>
F 2

$$$$
=
 OpenBabel11052413533D

 27 31  0  0  0  0  0  0  0  0999 V2000
  186.1750  178.2980  141.2400 N   0  0  0  0  0  0  0  0  0  0  0  0
  186.4200  177.9650  143.6200 C   0  0  0  0  0  0  0  0  0  0  0  0
  188.7320  177.5430  142.7070 N   0  0  0  0  0  0  0  0  0  0  0  0
  185.9490  177.9670  144.8850 N   0  0  0  0  0  0  0  0  0  0  0  0
  190.9450  177.5310  138.5580 F   0  0  0  0  0  0  0  0  0  0  0  0
  189.7940  177.7130  139.2480 C   0  0  0  0  0  0  0  0  0  0  0  0
  185.6530  178.2580  142.4920 C   0  0  0  0  0  0  0  0  0  0  0  0
  188.0690  177.4570  145.0420 C   0  0  0  0  0  0  0  0  0  0  0  0
  187.4000  178.0920  140.6890 C   0  0  0  0  0  0  0  0  0  0  0  0
  187.8210  177.6390  143.6930 C   0  0  0  0  0  0  0  0  0  0  0  0
  189.7730  177.5480  140.6300 C   0  0  0  0  0  3  0  0  0  0  0  0
  186.9260  177.6630  145.7280 N   0  0  0  0  0  0  0  0  0  0  0  0
  188.6290  178.0680  138.5790 C   0  0  0  0  0  3  0  0  0  0  0  0
  187.4510  178.2530  139.2970 C   0  0  0  0  0  3  0  0  0  0  0  0
  188.6000  177.7290  141.3750 C   0  0  0  0  0  0  0  0  0  0  0  0
  189.4510  177.1240  147.0890 C   0  0  0  0  0  3  0  0  0  0  0  0
  191.7690  176.4440  146.9540 C   0  0  0  0  0  3  0  0  0  0  0  0
  191.6810  176.4230  145.5590 C   0  0  0  0  0  3  0  0  0  0  0  0
  190.4770  176.7520  144.9310 C   0  0  0  0  0  3  0  0  0  0  0  0
  189.3510  177.1060  145.6890 C   0  0  0  0  0  0  0  0  0  0  0  0
  190.6540  176.7940  147.7190 C   0  0  0  0  0  3  0  0  0  0  0  0
  181.4330  179.0500  142.7930 C   0  0  0  0  0  3  0  0  0  0  0  0
  184.1980  178.5590  142.6100 C   0  0  0  0  0  0  0  0  0  0  0  0
  183.6210  178.9730  143.8240 C   0  0  0  0  0  3  0  0  0  0  0  0
  182.2490  179.2210  143.9140 C   0  0  0  0  0  3  0  0  0  0  0  0
  181.9900  178.6280  141.5830 C   0  0  0  0  0  3  0  0  0  0  0  0
  183.3630  178.3800  141.4960 C   0  0  0  0  0  3  0  0  0  0  0  0
  1  7  1  0  0  0  0
  2 10  1  0  0  0  0
  2  4  1  0  0  0  0
  3 10  1  0  0  0  0
  4 12  2  0  0  0  0
  5  6  1  0  0  0  0
  6 11  2  0  0  0  0
  7 23  1  0  0  0  0
  7  2  2  0  0  0  0
  8 20  1  0  0  0  0
  8 12  1  0  0  0  0
  9  1  2  0  0  0  0
  9 15  1  0  0  0  0
 10  8  2  0  0  0  0
 11 15  1  0  0  0  0
 13  6  1  0  0  0  0
 13 14  2  0  0  0  0
 14  9  1  0  0  0  0
 15  3  2  0  0  0  0
 16 21  1  0  0  0  0
 17 21  2  0  0  0  0
 18 17  1  0  0  0  0
 19 18  2  0  0  0  0
 19 20  1  0  0  0  0
 20 16  2  0  0  0  0
 22 25  1  0  0  0  0
 23 24  1  0  0  0  0
 24 25  2  0  0  0  0
 26 22  2  0  0  0  0
 27 26  1  0  0  0  0
 27 23  2  0  0  0  0
M  END
>  <MODEL>
7

>  <REMARK>
 VINA RESULT:      -9.8      2.290      5.485
  Name = 
  2 active torsions:
  status: ('A' for Active; 'I' for Inactive)
    1  A    between atoms: C_9  and  C_15
    2  A    between atoms: C_14  and  C_17
                            x       y       z     vdW  Elec       q    Type
                         _______ _______ _______ _____ _____    ______ ____

>  <TORSDO>
F 2

$$$$
=
 OpenBabel11052413533D

 27 31  0  0  0  0  0  0  0  0999 V2000
  187.2760  178.0660  142.0770 N   0  0  0  0  0  0  0  0  0  0  0  0
  187.4680  177.7040  144.4570 C   0  0  0  0  0  0  0  0  0  0  0  0
  189.7770  177.2050  143.5800 N   0  0  0  0  0  0  0  0  0  0  0  0
  186.9750  177.7130  145.7140 N   0  0  0  0  0  0  0  0  0  0  0  0
  192.0600  177.1460  139.4690 F   0  0  0  0  0  0  0  0  0  0  0  0
  190.9040  177.3640  140.1410 C   0  0  0  0  0  0  0  0  0  0  0  0
  186.7310  178.0340  143.3200 C   0  0  0  0  0  0  0  0  0  0  0  0
  189.0720  177.1240  145.9020 C   0  0  0  0  0  0  0  0  0  0  0  0
  188.5010  177.8190  141.5450 C   0  0  0  0  0  0  0  0  0  0  0  0
  188.8540  177.3260  144.5510 C   0  0  0  0  0  0  0  0  0  0  0  0
  190.8540  177.1890  141.5210 C   0  0  0  0  0  3  0  0  0  0  0  0
  187.9260  177.3660  146.5710 N   0  0  0  0  0  0  0  0  0  0  0  0
  189.7650  177.7680  139.4560 C   0  0  0  0  0  3  0  0  0  0  0  0
  188.5820  177.9900  140.1550 C   0  0  0  0  0  3  0  0  0  0  0  0
  189.6750  177.4070  142.2470 C   0  0  0  0  0  0  0  0  0  0  0  0
  191.1480  175.7470  145.9770 C   0  0  0  0  0  3  0  0  0  0  0  0
  192.7240  175.9300  147.8040 C   0  0  0  0  0  3  0  0  0  0  0  0
  191.9160  176.9010  148.4020 C   0  0  0  0  0  3  0  0  0  0  0  0
  190.7250  177.2940  147.7860 C   0  0  0  0  0  3  0  0  0  0  0  0
  190.3290  176.7210  146.5680 C   0  0  0  0  0  0  0  0  0  0  0  0
  192.3400  175.3530  146.5900 C   0  0  0  0  0  3  0  0  0  0  0  0
  182.5390  178.9800  143.5530 C   0  0  0  0  0  3  0  0  0  0  0  0
  185.2870  178.3880  143.4160 C   0  0  0  0  0  0  0  0  0  0  0  0
  184.6910  178.7590  144.6350 C   0  0  0  0  0  3  0  0  0  0  0  0
  183.3290  179.0570  144.7030 C   0  0  0  0  0  3  0  0  0  0  0  0
  183.1130  178.6020  142.3370 C   0  0  0  0  0  3  0  0  0  0  0  0
  184.4770  178.3040  142.2720 C   0  0  0  0  0  3  0  0  0  0  0  0
  1  7  1  0  0  0  0
  2 10  1  0  0  0  0
  2  4  1  0  0  0  0
  3 10  1  0  0  0  0
  4 12  2  0  0  0  0
  5  6  1  0  0  0  0
  6 11  2  0  0  0  0
  7 23  1  0  0  0  0
  7  2  2  0  0  0  0
  8 20  1  0  0  0  0
  8 12  1  0  0  0  0
  9  1  2  0  0  0  0
  9 15  1  0  0  0  0
 10  8  2  0  0  0  0
 11 15  1  0  0  0  0
 13  6  1  0  0  0  0
 13 14  2  0  0  0  0
 14  9  1  0  0  0  0
 15  3  2  0  0  0  0
 16 20  2  0  0  0  0
 16 21  1  0  0  0  0
 17 18  1  0  0  0  0
 19 18  2  0  0  0  0
 20 19  1  0  0  0  0
 21 17  2  0  0  0  0
 22 25  1  0  0  0  0
 23 24  1  0  0  0  0
 24 25  2  0  0  0  0
 26 22  2  0  0  0  0
 27 26  1  0  0  0  0
 27 23  2  0  0  0  0
M  END
>  <MODEL>
8

>  <REMARK>
 VINA RESULT:      -9.8      1.941      5.271
  Name = 
  2 active torsions:
  status: ('A' for Active; 'I' for Inactive)
    1  A    between atoms: C_9  and  C_15
    2  A    between atoms: C_14  and  C_17
                            x       y       z     vdW  Elec       q    Type
                         _______ _______ _______ _____ _____    ______ ____

>  <TORSDO>
F 2

$$$$
=
 OpenBabel11052413533D

 27 31  0  0  0  0  0  0  0  0999 V2000
  189.0950  177.5980  143.4430 N   0  0  0  0  0  0  0  0  0  0  0  0
  186.7460  178.0870  143.7210 C   0  0  0  0  0  0  0  0  0  0  0  0
  187.0810  178.1220  141.2230 N   0  0  0  0  0  0  0  0  0  0  0  0
  185.6360  178.2500  144.4730 N   0  0  0  0  0  0  0  0  0  0  0  0
  190.5560  177.5030  138.1150 F   0  0  0  0  0  0  0  0  0  0  0  0
  190.1620  177.5330  139.4100 C   0  0  0  0  0  0  0  0  0  0  0  0
  188.0120  177.8090  144.2350 C   0  0  0  0  0  0  0  0  0  0  0  0
  184.9870  178.4840  142.3980 C   0  0  0  0  0  0  0  0  0  0  0  0
  189.3370  177.5940  142.1060 C   0  0  0  0  0  0  0  0  0  0  0  0
  186.3460  178.2280  142.3440 C   0  0  0  0  0  0  0  0  0  0  0  0
  188.8370  177.8100  139.7320 C   0  0  0  0  0  3  0  0  0  0  0  0
  184.5940  178.4890  143.6880 N   0  0  0  0  0  0  0  0  0  0  0  0
  191.0790  177.2830  140.4230 C   0  0  0  0  0  3  0  0  0  0  0  0
  190.6650  177.3160  141.7530 C   0  0  0  0  0  3  0  0  0  0  0  0
  188.3950  177.8480  141.0620 C   0  0  0  0  0  0  0  0  0  0  0  0
  182.7370  178.2590  141.3520 C   0  0  0  0  0  3  0  0  0  0  0  0
  182.2750  179.1290  139.1410 C   0  0  0  0  0  3  0  0  0  0  0  0
  183.5930  179.5850  139.0470 C   0  0  0  0  0  3  0  0  0  0  0  0
  184.4810  179.3780  140.1050 C   0  0  0  0  0  3  0  0  0  0  0  0
  184.0620  178.7130  141.2680 C   0  0  0  0  0  0  0  0  0  0  0  0
  181.8470  178.4670  140.2940 C   0  0  0  0  0  3  0  0  0  0  0  0
  188.7540  177.5740  148.4670 C   0  0  0  0  0  3  0  0  0  0  0  0
  188.2410  177.7150  145.7040 C   0  0  0  0  0  0  0  0  0  0  0  0
  187.2910  178.1710  146.6350 C   0  0  0  0  0  3  0  0  0  0  0  0
  187.5430  178.0970  148.0070 C   0  0  0  0  0  3  0  0  0  0  0  0
  189.7130  177.1280  147.5550 C   0  0  0  0  0  3  0  0  0  0  0  0
  189.4580  177.2030  146.1830 C   0  0  0  0  0  3  0  0  0  0  0  0
  1  7  1  0  0  0  0
  2  7  2  0  0  0  0
  2  4  1  0  0  0  0
  3 10  1  0  0  0  0
  5  6  1  0  0  0  0
  6 11  2  0  0  0  0
  6 13  1  0  0  0  0
  7 23  1  0  0  0  0
  8 12  1  0  0  0  0
  9  1  2  0  0  0  0
 10  8  2  0  0  0  0
 10  2  1  0  0  0  0
 11 15  1  0  0  0  0
 12  4  2  0  0  0  0
 13 14  2  0  0  0  0
 14  9  1  0  0  0  0
 15  3  2  0  0  0  0
 15  9  1  0  0  0  0
 17 21  1  0  0  0  0
 18 17  2  0  0  0  0
 18 19  1  0  0  0  0
 19 20  2  0  0  0  0
 20 16  1  0  0  0  0
 20  8  1  0  0  0  0
 21 16  2  0  0  0  0
 23 27  2  0  0  0  0
 23 24  1  0  0  0  0
 24 25  2  0  0  0  0
 25 22  1  0  0  0  0
 26 22  2  0  0  0  0
 27 26  1  0  0  0  0
M  END
>  <MODEL>
9

>  <REMARK>
 VINA RESULT:      -9.7      2.663      6.302
  Name = 
  2 active torsions:
  status: ('A' for Active; 'I' for Inactive)
    1  A    between atoms: C_9  and  C_15
    2  A    between atoms: C_14  and  C_17
                            x       y       z     vdW  Elec       q    Type
                         _______ _______ _______ _____ _____    ______ ____

>  <TORSDO>
F 2

$$$$
