=
 OpenBabel11052416593D

 32 35  0  0  1  0  0  0  0  0999 V2000
  188.7250  177.4310  140.2230 C   0  0  0  0  0  0  0  0  0  0  0  0
  193.6520  175.9210  138.1440 O   0  0  0  0  0  0  0  0  0  0  0  0
  193.2400  176.6880  137.0440 C   0  0  0  0  0  2  0  0  0  0  0  0
  188.4640  176.9850  142.9700 C   0  0  0  0  0  0  0  0  0  0  0  0
  189.8120  176.8580  140.9690 N   0  0  0  0  0  0  0  0  0  0  0  0
  193.1540  176.5770  139.2810 C   0  0  0  0  0  2  0  0  0  0  0  0
  191.1770  177.1980  140.5840 C   0  0  0  0  0  2  0  0  0  0  0  0
  191.6320  176.4330  139.3600 C   0  0  1  0  0  3  0  0  0  0  0  0
  189.4980  176.5730  138.0340 C   0  0  1  0  0  3  0  0  0  0  0  0
  189.5750  176.5200  142.3510 C   0  0  0  0  0  0  0  0  0  0  0  0
  187.5210  177.7990  142.2510 N   0  0  0  0  0  0  0  0  0  0  0  0
  191.7390  176.5170  136.8460 C   0  0  0  0  0  2  0  0  0  0  0  0
  190.9770  177.0050  138.0920 C   0  0  2  0  0  3  0  0  0  0  0  0
  187.6140  178.0180  140.9730 C   0  0  0  0  0  3  0  0  0  0  0  0
  188.6370  177.3470  138.9300 N   0  0  0  0  0  0  0  0  0  0  0  0
  187.1450  177.6640  135.1540 C   0  0  0  0  0  0  0  0  0  0  0  0
  186.8460  176.4930  134.5940 C   0  0  0  0  0  3  0  0  0  0  0  0
  188.3120  175.2940  136.2420 N   0  0  0  0  0  0  0  0  0  0  0  0
  186.9430  174.1400  134.7240 O   0  0  0  0  0  0  0  0  0  0  0  0
  187.3480  175.2440  135.1780 C   0  0  0  0  0  0  0  0  0  0  0  0
  187.8760  177.7310  136.4640 C   0  0  0  0  0  2  0  0  0  0  0  0
  186.6840  178.8070  134.5940 F   0  0  0  0  0  0  0  0  0  0  0  0
  188.9420  174.0530  136.6820 C   0  0  0  0  0  1  0  0  0  0  0  0
  188.9000  176.5920  136.6140 C   0  0  1  0  0  3  0  0  0  0  0  0
  191.5320  176.5800  143.8770 C   0  0  0  0  0  1  0  0  0  0  0  0
  190.5830  175.6900  143.0950 C   0  0  0  0  0  2  0  0  0  0  0  0
  188.1990  176.7060  144.4190 C   0  0  0  0  0  2  0  0  0  0  0  0
  186.6830  178.1930  145.7150 C   0  0  0  0  0  1  0  0  0  0  0  0
  188.1040  178.0000  145.2120 C   0  0  1  0  0  3  0  0  0  0  0  0
  189.0680  177.9350  146.3850 C   0  0  0  0  0  2  0  0  0  0  0  0
  188.4500  177.2020  147.5650 C   0  0  0  0  0  2  0  0  0  0  0  0
  188.4640  178.0730  148.8060 C   0  0  0  0  0  1  0  0  0  0  0  0
  1  5  1  0  0  0  0
  1 14  1  0  0  0  0
  2  6  1  0  0  0  0
  3  2  1  0  0  0  0
  4 27  1  0  0  0  0
  5 10  1  0  0  0  0
  7  5  1  0  0  0  0
  8  6  1  6  0  0  0
  8  7  1  0  0  0  0
  9 13  1  0  0  0  0
  9 15  1  1  0  0  0
 10  4  2  0  0  0  0
 10 26  1  0  0  0  0
 11  4  1  0  0  0  0
 12  3  1  0  0  0  0
 13 12  1  6  0  0  0
 13  8  1  0  0  0  0
 14 11  2  0  0  0  0
 15  1  2  0  0  0  0
 16 21  1  0  0  0  0
 17 16  2  0  0  0  0
 17 20  1  0  0  0  0
 18 24  1  0  0  0  0
 18 23  1  0  0  0  0
 19 20  2  0  0  0  0
 20 18  1  0  0  0  0
 22 16  1  0  0  0  0
 24 21  1  1  0  0  0
 24  9  1  0  0  0  0
 26 25  1  0  0  0  0
 27 29  1  0  0  0  0
 29 28  1  1  0  0  0
 29 30  1  0  0  0  0
 30 31  1  0  0  0  0
 31 32  1  0  0  0  0
M  END
>  <MODEL>
1

>  <REMARK>
 VINA RESULT:      -7.7      0.000      0.000
  Name = 
  6 active torsions:
  status: ('A' for Active; 'I' for Inactive)
    1  A    between atoms: C_1  and  C_10
    2  A    between atoms: C_8  and  C_19
    3  A    between atoms: C_10  and  C_24
    4  A    between atoms: C_12  and  C_21
    5  A    between atoms: C_16  and  C_32
    6  A    between atoms: C_19  and  C_24
                            x       y       z     vdW  Elec       q    Type
                         _______ _______ _______ _____ _____    ______ ____

>  <TORSDO>
F 6

$$$$
=
 OpenBabel11052416593D

 32 35  0  0  1  0  0  0  0  0999 V2000
  185.5090  178.7960  141.7090 C   0  0  0  0  0  0  0  0  0  0  0  0
  188.8490  177.5340  137.4520 O   0  0  0  0  0  0  0  0  0  0  0  0
  188.0890  178.5010  136.7790 C   0  0  0  0  0  2  0  0  0  0  0  0
  186.4170  177.8650  144.1830 C   0  0  0  0  0  0  0  0  0  0  0  0
  186.7410  178.0620  141.7970 N   0  0  0  0  0  0  0  0  0  0  0  0
  188.9680  177.9860  138.7760 C   0  0  0  0  0  2  0  0  0  0  0  0
  187.8330  178.4220  140.9000 C   0  0  0  0  0  2  0  0  0  0  0  0
  187.6250  177.8790  139.5030 C   0  0  1  0  0  3  0  0  0  0  0  0
  185.1570  178.3280  139.3040 C   0  0  1  0  0  3  0  0  0  0  0  0
  187.0910  177.4850  143.0730 C   0  0  0  0  0  0  0  0  0  0  0  0
  185.3500  178.8270  144.0900 N   0  0  0  0  0  0  0  0  0  0  0  0
  186.6410  178.4180  137.2480 C   0  0  0  0  0  2  0  0  0  0  0  0
  186.5530  178.6950  138.7610 C   0  0  2  0  0  3  0  0  0  0  0  0
  184.9040  179.2720  142.9540 C   0  0  0  0  0  3  0  0  0  0  0  0
  184.8600  178.9530  140.5950 N   0  0  0  0  0  0  0  0  0  0  0  0
  181.9000  179.9680  137.9940 C   0  0  0  0  0  0  0  0  0  0  0  0
  181.2840  178.9300  137.4300 C   0  0  0  0  0  3  0  0  0  0  0  0
  183.2050  177.4270  138.0280 N   0  0  0  0  0  0  0  0  0  0  0  0
  181.2170  176.5970  137.0950 O   0  0  0  0  0  0  0  0  0  0  0  0
  181.8750  177.5890  137.5070 C   0  0  0  0  0  0  0  0  0  0  0  0
  183.1270  179.7760  138.8360 C   0  0  0  0  0  2  0  0  0  0  0  0
  181.3460  181.2010  137.9000 F   0  0  0  0  0  0  0  0  0  0  0  0
  183.8490  176.1210  137.9240 C   0  0  0  0  0  1  0  0  0  0  0  0
  184.0090  178.6250  138.3200 C   0  0  1  0  0  3  0  0  0  0  0  0
  189.5020  177.1970  143.5880 C   0  0  0  0  0  1  0  0  0  0  0  0
  188.2240  176.5010  143.1550 C   0  0  0  0  0  2  0  0  0  0  0  0
  186.7760  177.3350  145.5380 C   0  0  0  0  0  2  0  0  0  0  0  0
  185.4370  178.5540  147.2430 C   0  0  0  0  0  1  0  0  0  0  0  0
  186.7950  178.4510  146.5700 C   0  0  1  0  0  3  0  0  0  0  0  0
  187.8680  178.1530  147.6050 C   0  0  0  0  0  2  0  0  0  0  0  0
  188.6060  176.8650  147.2750 C   0  0  0  0  0  2  0  0  0  0  0  0
  190.1070  177.0700  147.3570 C   0  0  0  0  0  1  0  0  0  0  0  0
  1  5  1  0  0  0  0
  1 14  1  0  0  0  0
  2  6  1  0  0  0  0
  3 12  1  0  0  0  0
  3  2  1  0  0  0  0
  4 27  1  0  0  0  0
  5 10  1  0  0  0  0
  7  5  1  0  0  0  0
  8  6  1  6  0  0  0
  8  7  1  0  0  0  0
  9 15  1  1  0  0  0
 10 26  1  0  0  0  0
 10  4  2  0  0  0  0
 11  4  1  0  0  0  0
 13 12  1  6  0  0  0
 13  9  1  0  0  0  0
 13  8  1  0  0  0  0
 14 11  2  0  0  0  0
 15  1  2  0  0  0  0
 16 21  1  0  0  0  0
 17 20  1  0  0  0  0
 17 16  2  0  0  0  0
 18 24  1  0  0  0  0
 19 20  2  0  0  0  0
 20 18  1  0  0  0  0
 22 16  1  0  0  0  0
 23 18  1  0  0  0  0
 24 21  1  1  0  0  0
 24  9  1  0  0  0  0
 26 25  1  0  0  0  0
 27 29  1  0  0  0  0
 29 28  1  1  0  0  0
 29 30  1  0  0  0  0
 31 32  1  0  0  0  0
 31 30  1  0  0  0  0
M  END
>  <MODEL>
2

>  <REMARK>
 VINA RESULT:      -7.7      3.551      4.476
  Name = 
  6 active torsions:
  status: ('A' for Active; 'I' for Inactive)
    1  A    between atoms: C_1  and  C_10
    2  A    between atoms: C_8  and  C_19
    3  A    between atoms: C_10  and  C_24
    4  A    between atoms: C_12  and  C_21
    5  A    between atoms: C_16  and  C_32
    6  A    between atoms: C_19  and  C_24
                            x       y       z     vdW  Elec       q    Type
                         _______ _______ _______ _____ _____    ______ ____

>  <TORSDO>
F 6

$$$$
=
 OpenBabel11052416593D

 32 35  0  0  1  0  0  0  0  0999 V2000
  184.9780  178.5590  143.1890 C   0  0  0  0  0  0  0  0  0  0  0  0
  187.0490  177.8910  138.0760 O   0  0  0  0  0  0  0  0  0  0  0  0
  186.0560  178.8180  137.7280 C   0  0  0  0  0  2  0  0  0  0  0  0
  186.6240  177.5730  145.2210 C   0  0  0  0  0  0  0  0  0  0  0  0
  186.2370  177.9450  142.8660 N   0  0  0  0  0  0  0  0  0  0  0  0
  187.5060  178.2720  139.3480 C   0  0  0  0  0  2  0  0  0  0  0  0
  186.9960  178.4640  141.7340 C   0  0  0  0  0  2  0  0  0  0  0  0
  186.4400  177.9890  140.4090 C   0  0  1  0  0  3  0  0  0  0  0  0
  183.9910  178.2050  140.9470 C   0  0  1  0  0  3  0  0  0  0  0  0
  186.9800  177.3290  143.9380 C   0  0  0  0  0  0  0  0  0  0  0  0
  185.5050  178.4300  145.5130 N   0  0  0  0  0  0  0  0  0  0  0  0
  184.8140  178.5650  138.5740 C   0  0  0  0  0  2  0  0  0  0  0  0
  185.1400  178.7390  140.0690 C   0  0  2  0  0  3  0  0  0  0  0  0
  184.7200  178.8960  144.5890 C   0  0  0  0  0  3  0  0  0  0  0  0
  184.0280  178.7190  142.3180 N   0  0  0  0  0  0  0  0  0  0  0  0
  180.3310  179.4700  140.8070 C   0  0  0  0  0  0  0  0  0  0  0  0
  179.7100  178.4340  140.2470 C   0  0  0  0  0  3  0  0  0  0  0  0
  181.8820  177.1880  140.0700 N   0  0  0  0  0  0  0  0  0  0  0  0
  179.8250  176.1870  139.5400 O   0  0  0  0  0  0  0  0  0  0  0  0
  180.4510  177.2060  139.9380 C   0  0  0  0  0  0  0  0  0  0  0  0
  181.7560  179.3630  141.2650 C   0  0  0  0  0  2  0  0  0  0  0  0
  179.6330  180.6010  141.0720 F   0  0  0  0  0  0  0  0  0  0  0  0
  182.6200  176.0270  139.5810 C   0  0  0  0  0  1  0  0  0  0  0  0
  182.5900  178.4470  140.3520 C   0  0  1  0  0  3  0  0  0  0  0  0
  189.4070  177.3030  143.4150 C   0  0  0  0  0  1  0  0  0  0  0  0
  188.1610  176.4580  143.6160 C   0  0  0  0  0  2  0  0  0  0  0  0
  187.3960  177.0000  146.3710 C   0  0  0  0  0  2  0  0  0  0  0  0
  188.0010  177.9210  148.6010 C   0  0  0  0  0  1  0  0  0  0  0  0
  188.1700  178.0860  147.1000 C   0  0  1  0  0  3  0  0  0  0  0  0
  189.6400  177.9830  146.7270 C   0  0  0  0  0  2  0  0  0  0  0  0
  190.2390  176.6700  147.2080 C   0  0  0  0  0  2  0  0  0  0  0  0
  191.6130  176.4530  146.6040 C   0  0  0  0  0  1  0  0  0  0  0  0
  1 14  1  0  0  0  0
  2  6  1  0  0  0  0
  3  2  1  0  0  0  0
  3 12  1  0  0  0  0
  4 11  1  0  0  0  0
  4 27  1  0  0  0  0
  5  1  1  0  0  0  0
  5 10  1  0  0  0  0
  7  5  1  0  0  0  0
  8  6  1  6  0  0  0
  8  7  1  0  0  0  0
  9 15  1  1  0  0  0
 10  4  2  0  0  0  0
 13 12  1  6  0  0  0
 13  8  1  0  0  0  0
 13  9  1  0  0  0  0
 14 11  2  0  0  0  0
 15  1  2  0  0  0  0
 16 22  1  0  0  0  0
 16 21  1  0  0  0  0
 17 16  2  0  0  0  0
 18 24  1  0  0  0  0
 19 20  2  0  0  0  0
 20 18  1  0  0  0  0
 20 17  1  0  0  0  0
 23 18  1  0  0  0  0
 24  9  1  0  0  0  0
 24 21  1  1  0  0  0
 25 26  1  0  0  0  0
 26 10  1  0  0  0  0
 27 29  1  0  0  0  0
 29 28  1  1  0  0  0
 30 29  1  0  0  0  0
 30 31  1  0  0  0  0
 32 31  1  0  0  0  0
M  END
>  <MODEL>
3

>  <REMARK>
 VINA RESULT:      -7.4      4.369      6.018
  Name = 
  6 active torsions:
  status: ('A' for Active; 'I' for Inactive)
    1  A    between atoms: C_1  and  C_10
    2  A    between atoms: C_8  and  C_19
    3  A    between atoms: C_10  and  C_24
    4  A    between atoms: C_12  and  C_21
    5  A    between atoms: C_16  and  C_32
    6  A    between atoms: C_19  and  C_24
                            x       y       z     vdW  Elec       q    Type
                         _______ _______ _______ _____ _____    ______ ____

>  <TORSDO>
F 6

$$$$
=
 OpenBabel11052416593D

 32 35  0  0  1  0  0  0  0  0999 V2000
  187.2830  178.3180  141.6910 C   0  0  0  0  0  0  0  0  0  0  0  0
  184.1290  178.6280  146.2550 O   0  0  0  0  0  0  0  0  0  0  0  0
  185.3600  178.8310  146.8950 C   0  0  0  0  0  2  0  0  0  0  0  0
  185.8480  178.5170  139.3000 C   0  0  0  0  0  0  0  0  0  0  0  0
  185.8560  178.4850  141.7160 N   0  0  0  0  0  0  0  0  0  0  0  0
  184.2300  179.2660  145.0090 C   0  0  0  0  0  2  0  0  0  0  0  0
  185.2650  179.2740  142.7910 C   0  0  0  0  0  2  0  0  0  0  0  0
  185.1840  178.5000  144.0880 C   0  0  1  0  0  3  0  0  0  0  0  0
  187.4220  177.3560  143.9670 C   0  0  1  0  0  3  0  0  0  0  0  0
  185.1510  178.4410  140.4580 C   0  0  0  0  0  0  0  0  0  0  0  0
  187.2830  178.6280  139.3240 N   0  0  0  0  0  0  0  0  0  0  0  0
  186.4270  177.9810  146.2160 C   0  0  0  0  0  2  0  0  0  0  0  0
  186.5740  178.3880  144.7380 C   0  0  2  0  0  3  0  0  0  0  0  0
  187.9750  178.5320  140.4190 C   0  0  0  0  0  3  0  0  0  0  0  0
  187.9590  177.8790  142.7090 N   0  0  0  0  0  0  0  0  0  0  0  0
  190.2020  177.2160  146.6630 C   0  0  0  0  0  0  0  0  0  0  0  0
  191.1840  176.6040  146.0040 C   0  0  0  0  0  3  0  0  0  0  0  0
  189.7350  176.4060  143.9640 N   0  0  0  0  0  0  0  0  0  0  0  0
  192.0040  175.8060  143.9420 O   0  0  0  0  0  0  0  0  0  0  0  0
  191.0200  176.2550  144.5890 C   0  0  0  0  0  0  0  0  0  0  0  0
  188.9700  177.6910  145.9500 C   0  0  0  0  0  2  0  0  0  0  0  0
  190.3670  177.5180  147.9740 F   0  0  0  0  0  0  0  0  0  0  0  0
  189.5390  175.8800  142.6170 C   0  0  0  0  0  1  0  0  0  0  0  0
  188.5710  176.7520  144.7970 C   0  0  1  0  0  3  0  0  0  0  0  0
  183.2050  176.9160  140.2400 C   0  0  0  0  0  1  0  0  0  0  0  0
  183.6510  178.3510  140.4520 C   0  0  0  0  0  2  0  0  0  0  0  0
  185.1590  178.5290  137.9690 C   0  0  0  0  0  2  0  0  0  0  0  0
  184.0950  176.6760  136.6940 C   0  0  0  0  0  1  0  0  0  0  0  0
  185.4090  177.2320  137.2170 C   0  0  1  0  0  3  0  0  0  0  0  0
  186.3570  177.5040  136.0600 C   0  0  0  0  0  2  0  0  0  0  0  0
  187.6960  176.8140  136.2720 C   0  0  0  0  0  2  0  0  0  0  0  0
  187.5490  175.6350  137.2150 C   0  0  0  0  0  1  0  0  0  0  0  0
  1  5  1  0  0  0  0
  1 15  2  0  0  0  0
  2  3  1  0  0  0  0
  4 11  1  0  0  0  0
  4 10  2  0  0  0  0
  5  7  1  0  0  0  0
  6  2  1  0  0  0  0
  8  7  1  6  0  0  0
  8 13  1  0  0  0  0
  8  6  1  0  0  0  0
  9 15  1  6  0  0  0
  9 13  1  0  0  0  0
  9 24  1  0  0  0  0
 10  5  1  0  0  0  0
 11 14  2  0  0  0  0
 12  3  1  0  0  0  0
 13 12  1  1  0  0  0
 14  1  1  0  0  0  0
 16 22  1  0  0  0  0
 17 16  2  0  0  0  0
 18 20  1  0  0  0  0
 18 24  1  0  0  0  0
 19 20  2  0  0  0  0
 20 17  1  0  0  0  0
 21 16  1  0  0  0  0
 23 18  1  0  0  0  0
 24 21  1  1  0  0  0
 25 26  1  0  0  0  0
 26 10  1  0  0  0  0
 27  4  1  0  0  0  0
 29 28  1  6  0  0  0
 29 27  1  0  0  0  0
 30 31  1  0  0  0  0
 30 29  1  0  0  0  0
 31 32  1  0  0  0  0
M  END
>  <MODEL>
4

>  <REMARK>
 VINA RESULT:      -7.1      4.078      8.993
  Name = 
  6 active torsions:
  status: ('A' for Active; 'I' for Inactive)
    1  A    between atoms: C_1  and  C_10
    2  A    between atoms: C_8  and  C_19
    3  A    between atoms: C_10  and  C_24
    4  A    between atoms: C_12  and  C_21
    5  A    between atoms: C_16  and  C_32
    6  A    between atoms: C_19  and  C_24
                            x       y       z     vdW  Elec       q    Type
                         _______ _______ _______ _____ _____    ______ ____

>  <TORSDO>
F 6

$$$$
=
 OpenBabel11052416593D

 32 35  0  0  1  0  0  0  0  0999 V2000
  187.8720  178.3600  140.6900 C   0  0  0  0  0  0  0  0  0  0  0  0
  183.2910  178.3740  143.8340 O   0  0  0  0  0  0  0  0  0  0  0  0
  184.1870  178.7290  144.8530 C   0  0  0  0  0  2  0  0  0  0  0  0
  187.3660  178.3530  137.9410 C   0  0  0  0  0  0  0  0  0  0  0  0
  186.5200  178.3600  140.2040 N   0  0  0  0  0  0  0  0  0  0  0  0
  183.7610  179.0000  142.6690 C   0  0  0  0  0  2  0  0  0  0  0  0
  185.5080  179.0930  140.9570 C   0  0  0  0  0  2  0  0  0  0  0  0
  185.0520  178.3350  142.1850 C   0  0  1  0  0  3  0  0  0  0  0  0
  187.2930  177.4570  142.9200 C   0  0  1  0  0  3  0  0  0  0  0  0
  186.3150  178.2160  138.7830 C   0  0  0  0  0  0  0  0  0  0  0  0
  188.6800  178.6300  138.4600 N   0  0  0  0  0  0  0  0  0  0  0  0
  185.5060  177.9970  144.6390 C   0  0  0  0  0  2  0  0  0  0  0  0
  186.1250  178.3950  143.2860 C   0  0  2  0  0  3  0  0  0  0  0  0
  188.9440  178.6330  139.7320 C   0  0  0  0  0  3  0  0  0  0  0  0
  188.1850  178.0180  141.9030 N   0  0  0  0  0  0  0  0  0  0  0  0
  189.0510  177.7340  146.3630 C   0  0  0  0  0  0  0  0  0  0  0  0
  190.2120  177.1280  146.1200 C   0  0  0  0  0  3  0  0  0  0  0  0
  189.5100  176.6580  143.7570 N   0  0  0  0  0  0  0  0  0  0  0  0
  191.6800  176.2010  144.5250 O   0  0  0  0  0  0  0  0  0  0  0  0
  190.5270  176.6440  144.7720 C   0  0  0  0  0  0  0  0  0  0  0  0
  188.1030  178.0640  145.2470 C   0  0  0  0  0  2  0  0  0  0  0  0
  188.7720  178.1620  147.6180 F   0  0  0  0  0  0  0  0  0  0  0  0
  189.7780  176.0020  142.4810 C   0  0  0  0  0  1  0  0  0  0  0  0
  188.1290  177.0020  144.1330 C   0  0  1  0  0  3  0  0  0  0  0  0
  184.7010  176.4610  138.0910 C   0  0  0  0  0  1  0  0  0  0  0  0
  184.9330  177.9530  138.2560 C   0  0  0  0  0  2  0  0  0  0  0  0
  187.1960  178.2650  136.4550 C   0  0  0  0  0  2  0  0  0  0  0  0
  186.6860  176.4060  134.8800 C   0  0  0  0  0  1  0  0  0  0  0  0
  187.6560  176.9110  135.9360 C   0  0  1  0  0  3  0  0  0  0  0  0
  189.0470  177.0550  135.3390 C   0  0  0  0  0  2  0  0  0  0  0  0
  189.9520  175.9130  135.7760 C   0  0  0  0  0  2  0  0  0  0  0  0
  190.9270  176.3780  136.8400 C   0  0  0  0  0  1  0  0  0  0  0  0
  1 15  2  0  0  0  0
  2  3  1  0  0  0  0
  4 11  1  0  0  0  0
  4 10  2  0  0  0  0
  5  1  1  0  0  0  0
  5  7  1  0  0  0  0
  6  2  1  0  0  0  0
  8  7  1  6  0  0  0
  8  6  1  0  0  0  0
  8 13  1  0  0  0  0
  9 15  1  6  0  0  0
  9 13  1  0  0  0  0
  9 24  1  0  0  0  0
 10  5  1  0  0  0  0
 11 14  2  0  0  0  0
 12  3  1  0  0  0  0
 13 12  1  1  0  0  0
 14  1  1  0  0  0  0
 16 22  1  0  0  0  0
 17 16  2  0  0  0  0
 18 24  1  0  0  0  0
 18 20  1  0  0  0  0
 19 20  2  0  0  0  0
 20 17  1  0  0  0  0
 21 16  1  0  0  0  0
 23 18  1  0  0  0  0
 24 21  1  1  0  0  0
 25 26  1  0  0  0  0
 26 10  1  0  0  0  0
 27  4  1  0  0  0  0
 29 28  1  6  0  0  0
 29 27  1  0  0  0  0
 30 31  1  0  0  0  0
 30 29  1  0  0  0  0
 31 32  1  0  0  0  0
M  END
>  <MODEL>
5

>  <REMARK>
 VINA RESULT:      -6.6      3.739      8.863
  Name = 
  6 active torsions:
  status: ('A' for Active; 'I' for Inactive)
    1  A    between atoms: C_1  and  C_10
    2  A    between atoms: C_8  and  C_19
    3  A    between atoms: C_10  and  C_24
    4  A    between atoms: C_12  and  C_21
    5  A    between atoms: C_16  and  C_32
    6  A    between atoms: C_19  and  C_24
                            x       y       z     vdW  Elec       q    Type
                         _______ _______ _______ _____ _____    ______ ____

>  <TORSDO>
F 6

$$$$
=
 OpenBabel11052416593D

 32 35  0  0  1  0  0  0  0  0999 V2000
  186.8750  178.3600  140.0610 C   0  0  0  0  0  0  0  0  0  0  0  0
  188.9790  176.8610  135.1420 O   0  0  0  0  0  0  0  0  0  0  0  0
  187.9190  177.6290  134.6370 C   0  0  0  0  0  2  0  0  0  0  0  0
  188.5930  177.9090  142.2190 C   0  0  0  0  0  0  0  0  0  0  0  0
  188.1740  177.7880  139.8430 N   0  0  0  0  0  0  0  0  0  0  0  0
  189.4090  177.5140  136.3080 C   0  0  0  0  0  2  0  0  0  0  0  0
  188.8910  178.1300  138.6200 C   0  0  0  0  0  2  0  0  0  0  0  0
  188.3690  177.3670  137.4210 C   0  0  1  0  0  3  0  0  0  0  0  0
  185.9120  177.5070  137.9470 C   0  0  1  0  0  3  0  0  0  0  0  0
  188.9630  177.4470  141.0020 C   0  0  0  0  0  0  0  0  0  0  0  0
  187.4140  178.7240  142.3580 N   0  0  0  0  0  0  0  0  0  0  0  0
  186.7010  177.4570  135.5360 C   0  0  0  0  0  2  0  0  0  0  0  0
  187.0170  177.9420  136.9630 C   0  0  2  0  0  3  0  0  0  0  0  0
  186.5950  178.9450  141.3740 C   0  0  0  0  0  3  0  0  0  0  0  0
  185.9130  178.2790  139.1910 N   0  0  0  0  0  0  0  0  0  0  0  0
  182.1950  178.5380  137.5620 C   0  0  0  0  0  0  0  0  0  0  0  0
  181.6180  177.3660  137.3010 C   0  0  0  0  0  3  0  0  0  0  0  0
  183.8440  176.2100  137.4060 N   0  0  0  0  0  0  0  0  0  0  0  0
  181.8310  175.0200  137.1960 O   0  0  0  0  0  0  0  0  0  0  0  0
  182.4120  176.1330  137.3040 C   0  0  0  0  0  0  0  0  0  0  0  0
  183.6280  178.6130  138.0030 C   0  0  0  0  0  2  0  0  0  0  0  0
  181.4490  179.6680  137.5410 F   0  0  0  0  0  0  0  0  0  0  0  0
  184.6300  174.9950  137.2180 C   0  0  0  0  0  1  0  0  0  0  0  0
  184.4950  177.5280  137.3390 C   0  0  1  0  0  3  0  0  0  0  0  0
  191.4370  177.5030  140.8010 C   0  0  0  0  0  1  0  0  0  0  0  0
  190.2040  176.6170  140.8360 C   0  0  0  0  0  2  0  0  0  0  0  0
  189.4070  177.6280  143.4460 C   0  0  0  0  0  2  0  0  0  0  0  0
  187.4270  176.8990  144.7650 C   0  0  0  0  0  1  0  0  0  0  0  0
  188.5920  177.8730  144.7060 C   0  0  1  0  0  3  0  0  0  0  0  0
  189.4880  177.6870  145.9200 C   0  0  0  0  0  2  0  0  0  0  0  0
  188.6740  177.3470  147.1580 C   0  0  0  0  0  2  0  0  0  0  0  0
  189.0490  178.2520  148.3140 C   0  0  0  0  0  1  0  0  0  0  0  0
  1 14  1  0  0  0  0
  2  6  1  0  0  0  0
  3  2  1  0  0  0  0
  3 12  1  0  0  0  0
  4 11  1  0  0  0  0
  4 27  1  0  0  0  0
  5  1  1  0  0  0  0
  5 10  1  0  0  0  0
  7  5  1  0  0  0  0
  8  6  1  6  0  0  0
  8  7  1  0  0  0  0
  9 15  1  1  0  0  0
 10  4  2  0  0  0  0
 13 12  1  6  0  0  0
 13  8  1  0  0  0  0
 13  9  1  0  0  0  0
 14 11  2  0  0  0  0
 15  1  2  0  0  0  0
 16 21  1  0  0  0  0
 17 20  1  0  0  0  0
 17 16  2  0  0  0  0
 19 20  2  0  0  0  0
 20 18  1  0  0  0  0
 22 16  1  0  0  0  0
 23 18  1  0  0  0  0
 24 18  1  0  0  0  0
 24  9  1  0  0  0  0
 24 21  1  1  0  0  0
 25 26  1  0  0  0  0
 26 10  1  0  0  0  0
 27 29  1  0  0  0  0
 29 28  1  1  0  0  0
 29 30  1  0  0  0  0
 30 31  1  0  0  0  0
 31 32  1  0  0  0  0
M  END
>  <MODEL>
6

>  <REMARK>
 VINA RESULT:      -6.6      2.945      3.852
  Name = 
  6 active torsions:
  status: ('A' for Active; 'I' for Inactive)
    1  A    between atoms: C_1  and  C_10
    2  A    between atoms: C_8  and  C_19
    3  A    between atoms: C_10  and  C_24
    4  A    between atoms: C_12  and  C_21
    5  A    between atoms: C_16  and  C_32
    6  A    between atoms: C_19  and  C_24
                            x       y       z     vdW  Elec       q    Type
                         _______ _______ _______ _____ _____    ______ ____

>  <TORSDO>
F 6

$$$$
=
 OpenBabel11052416593D

 32 35  0  0  1  0  0  0  0  0999 V2000
  190.3520  177.5540  141.9640 C   0  0  0  0  0  0  0  0  0  0  0  0
  184.9590  178.0720  143.1960 O   0  0  0  0  0  0  0  0  0  0  0  0
  185.4500  178.5920  144.4030 C   0  0  0  0  0  2  0  0  0  0  0  0
  190.8610  177.0950  139.2550 C   0  0  0  0  0  0  0  0  0  0  0  0
  189.2650  177.4710  141.0280 N   0  0  0  0  0  0  0  0  0  0  0  0
  185.8490  178.4990  142.1990 C   0  0  0  0  0  2  0  0  0  0  0  0
  188.0950  178.3150  141.2420 C   0  0  0  0  0  2  0  0  0  0  0  0
  187.1880  177.7680  142.3230 C   0  0  1  0  0  3  0  0  0  0  0  0
  188.9640  177.0280  143.9450 C   0  0  1  0  0  3  0  0  0  0  0  0
  189.5740  177.0950  139.6700 C   0  0  0  0  0  0  0  0  0  0  0  0
  191.9170  177.4570  140.1640 N   0  0  0  0  0  0  0  0  0  0  0  0
  186.7150  177.8390  144.7960 C   0  0  0  0  0  2  0  0  0  0  0  0
  187.7980  178.0100  143.7140 C   0  0  2  0  0  3  0  0  0  0  0  0
  191.7100  177.6690  141.4290 C   0  0  0  0  0  3  0  0  0  0  0  0
  190.1910  177.4170  143.2460 N   0  0  0  0  0  0  0  0  0  0  0  0
  189.3080  177.8480  147.7170 C   0  0  0  0  0  0  0  0  0  0  0  0
  190.4740  177.2760  148.0110 C   0  0  0  0  0  3  0  0  0  0  0  0
  190.7050  176.4610  145.6480 N   0  0  0  0  0  0  0  0  0  0  0  0
  192.4300  176.2220  147.2220 O   0  0  0  0  0  0  0  0  0  0  0  0
  191.2690  176.6340  146.9580 C   0  0  0  0  0  0  0  0  0  0  0  0
  188.8470  177.9790  146.2950 C   0  0  0  0  0  2  0  0  0  0  0  0
  188.5810  178.4240  148.7050 F   0  0  0  0  0  0  0  0  0  0  0  0
  191.4300  175.6570  144.6690 C   0  0  0  0  0  1  0  0  0  0  0  0
  189.2850  176.7820  145.4320 C   0  0  1  0  0  3  0  0  0  0  0  0
  188.0560  177.9560  137.9050 C   0  0  0  0  0  1  0  0  0  0  0  0
  188.4570  176.7440  138.7270 C   0  0  0  0  0  2  0  0  0  0  0  0
  191.2290  176.7630  137.8400 C   0  0  0  0  0  2  0  0  0  0  0  0
  191.5200  174.4650  136.9310 C   0  0  0  0  0  1  0  0  0  0  0  0
  192.1470  175.5520  137.7880 C   0  0  1  0  0  3  0  0  0  0  0  0
  193.4860  175.9690  137.2030 C   0  0  0  0  0  2  0  0  0  0  0  0
  194.4100  174.7730  137.0350 C   0  0  0  0  0  2  0  0  0  0  0  0
  195.0580  174.4040  138.3550 C   0  0  0  0  0  1  0  0  0  0  0  0
  1 15  2  0  0  0  0
  2  3  1  0  0  0  0
  3 12  1  0  0  0  0
  4 10  2  0  0  0  0
  4 11  1  0  0  0  0
  5  7  1  0  0  0  0
  5  1  1  0  0  0  0
  6  8  1  0  0  0  0
  6  2  1  0  0  0  0
  8  7  1  6  0  0  0
  8 13  1  0  0  0  0
  9 15  1  6  0  0  0
  9 24  1  0  0  0  0
 10  5  1  0  0  0  0
 11 14  2  0  0  0  0
 13  9  1  0  0  0  0
 13 12  1  1  0  0  0
 14  1  1  0  0  0  0
 16 17  2  0  0  0  0
 16 22  1  0  0  0  0
 18 20  1  0  0  0  0
 20 19  2  0  0  0  0
 20 17  1  0  0  0  0
 21 16  1  0  0  0  0
 23 18  1  0  0  0  0
 24 18  1  0  0  0  0
 24 21  1  1  0  0  0
 25 26  1  0  0  0  0
 26 10  1  0  0  0  0
 27  4  1  0  0  0  0
 29 28  1  6  0  0  0
 29 27  1  0  0  0  0
 30 29  1  0  0  0  0
 31 30  1  0  0  0  0
 31 32  1  0  0  0  0
M  END
>  <MODEL>
7

>  <REMARK>
 VINA RESULT:      -6.6      3.932      8.996
  Name = 
  6 active torsions:
  status: ('A' for Active; 'I' for Inactive)
    1  A    between atoms: C_1  and  C_10
    2  A    between atoms: C_8  and  C_19
    3  A    between atoms: C_10  and  C_24
    4  A    between atoms: C_12  and  C_21
    5  A    between atoms: C_16  and  C_32
    6  A    between atoms: C_19  and  C_24
                            x       y       z     vdW  Elec       q    Type
                         _______ _______ _______ _____ _____    ______ ____

>  <TORSDO>
F 6

$$$$
=
 OpenBabel11052416593D

 32 35  0  0  1  0  0  0  0  0999 V2000
  187.6860  177.8620  139.7800 C   0  0  0  0  0  0  0  0  0  0  0  0
  191.5570  175.8410  136.3440 O   0  0  0  0  0  0  0  0  0  0  0  0
  190.6950  176.3250  135.3490 C   0  0  0  0  0  2  0  0  0  0  0  0
  188.5290  178.0920  142.4350 C   0  0  0  0  0  0  0  0  0  0  0  0
  189.0180  177.4730  140.1520 N   0  0  0  0  0  0  0  0  0  0  0  0
  191.4760  176.7560  137.4060 C   0  0  0  0  0  2  0  0  0  0  0  0
  190.1010  177.6940  139.2000 C   0  0  0  0  0  2  0  0  0  0  0  0
  190.1170  176.6530  138.1020 C   0  0  1  0  0  3  0  0  0  0  0  0
  187.6360  176.4940  137.7170 C   0  0  1  0  0  3  0  0  0  0  0  0
  189.3540  177.4800  141.5540 C   0  0  0  0  0  0  0  0  0  0  0  0
  187.3180  178.7200  141.9760 N   0  0  0  0  0  0  0  0  0  0  0  0
  189.2520  176.1300  135.7950 C   0  0  0  0  0  2  0  0  0  0  0  0
  188.9830  176.9110  137.0950 C   0  0  2  0  0  3  0  0  0  0  0  0
  186.8990  178.6240  140.7500 C   0  0  0  0  0  3  0  0  0  0  0  0
  187.1190  177.4710  138.6780 N   0  0  0  0  0  0  0  0  0  0  0  0
  184.2480  176.8390  135.8670 C   0  0  0  0  0  0  0  0  0  0  0  0
  183.9000  175.5630  135.7040 C   0  0  0  0  0  3  0  0  0  0  0  0
  186.0180  174.8110  136.8230 N   0  0  0  0  0  0  0  0  0  0  0  0
  184.3220  173.3020  136.2230 O   0  0  0  0  0  0  0  0  0  0  0  0
  184.7340  174.4920  136.2620 C   0  0  0  0  0  0  0  0  0  0  0  0
  185.4100  177.2190  136.7370 C   0  0  0  0  0  2  0  0  0  0  0  0
  183.4730  177.8140  135.3320 F   0  0  0  0  0  0  0  0  0  0  0  0
  186.9120  173.7200  137.1990 C   0  0  0  0  0  1  0  0  0  0  0  0
  186.5420  176.1790  136.6780 C   0  0  1  0  0  3  0  0  0  0  0  0
  190.3450  175.6200  142.8670 C   0  0  0  0  0  1  0  0  0  0  0  0
  190.6350  176.8410  142.0130 C   0  0  0  0  0  2  0  0  0  0  0  0
  188.8590  178.1720  143.8940 C   0  0  0  0  0  2  0  0  0  0  0  0
  186.8390  176.7450  144.1630 C   0  0  0  0  0  1  0  0  0  0  0  0
  187.6280  177.9050  144.7450 C   0  0  1  0  0  3  0  0  0  0  0  0
  188.0660  177.5770  146.1630 C   0  0  0  0  0  2  0  0  0  0  0  0
  189.5390  177.2010  146.2100 C   0  0  0  0  0  2  0  0  0  0  0  0
  190.0210  177.0920  147.6440 C   0  0  0  0  0  1  0  0  0  0  0  0
  1  5  1  0  0  0  0
  1 14  1  0  0  0  0
  2  6  1  0  0  0  0
  3 12  1  0  0  0  0
  3  2  1  0  0  0  0
  4 27  1  0  0  0  0
  5 10  1  0  0  0  0
  7  5  1  0  0  0  0
  8  6  1  6  0  0  0
  8  7  1  0  0  0  0
  9 15  1  1  0  0  0
 10 26  1  0  0  0  0
 10  4  2  0  0  0  0
 11  4  1  0  0  0  0
 13 12  1  6  0  0  0
 13  9  1  0  0  0  0
 13  8  1  0  0  0  0
 14 11  2  0  0  0  0
 15  1  2  0  0  0  0
 16 21  1  0  0  0  0
 17 16  2  0  0  0  0
 17 20  1  0  0  0  0
 18 23  1  0  0  0  0
 19 20  2  0  0  0  0
 20 18  1  0  0  0  0
 22 16  1  0  0  0  0
 24 21  1  1  0  0  0
 24 18  1  0  0  0  0
 24  9  1  0  0  0  0
 26 25  1  0  0  0  0
 27 29  1  0  0  0  0
 29 28  1  6  0  0  0
 29 30  1  0  0  0  0
 30 31  1  0  0  0  0
 31 32  1  0  0  0  0
M  END
>  <MODEL>
8

>  <REMARK>
 VINA RESULT:      -6.4      1.844      2.186
  Name = 
  6 active torsions:
  status: ('A' for Active; 'I' for Inactive)
    1  A    between atoms: C_1  and  C_10
    2  A    between atoms: C_8  and  C_19
    3  A    between atoms: C_10  and  C_24
    4  A    between atoms: C_12  and  C_21
    5  A    between atoms: C_16  and  C_32
    6  A    between atoms: C_19  and  C_24
                            x       y       z     vdW  Elec       q    Type
                         _______ _______ _______ _____ _____    ______ ____

>  <TORSDO>
F 6

$$$$
=
 OpenBabel11052416593D

 32 35  0  0  1  0  0  0  0  0999 V2000
  189.8910  176.5580  140.8100 C   0  0  0  0  0  0  0  0  0  0  0  0
  187.6340  178.4790  136.1100 O   0  0  0  0  0  0  0  0  0  0  0  0
  188.2540  177.3560  135.5440 C   0  0  0  0  0  2  0  0  0  0  0  0
  188.8360  177.7050  143.1310 C   0  0  0  0  0  0  0  0  0  0  0  0
  188.8570  177.5510  140.7200 N   0  0  0  0  0  0  0  0  0  0  0  0
  187.2090  178.0830  137.3880 C   0  0  0  0  0  2  0  0  0  0  0  0
  187.8680  177.4340  139.6550 C   0  0  0  0  0  2  0  0  0  0  0  0
  188.4090  177.8960  138.3190 C   0  0  1  0  0  3  0  0  0  0  0  0
  190.7130  176.9010  138.5010 C   0  0  1  0  0  3  0  0  0  0  0  0
  188.4480  178.2100  141.9370 C   0  0  0  0  0  0  0  0  0  0  0  0
  189.6610  176.5260  143.1850 N   0  0  0  0  0  0  0  0  0  0  0  0
  189.5910  177.1170  136.2360 C   0  0  0  0  0  2  0  0  0  0  0  0
  189.3750  176.8500  137.7370 C   0  0  2  0  0  3  0  0  0  0  0  0
  190.1690  175.9760  142.1240 C   0  0  0  0  0  3  0  0  0  0  0  0
  190.6550  176.2430  139.8080 N   0  0  0  0  0  0  0  0  0  0  0  0
  192.7410  174.3310  136.4260 C   0  0  0  0  0  0  0  0  0  0  0  0
  193.9540  174.4510  136.9630 C   0  0  0  0  0  3  0  0  0  0  0  0
  193.1220  176.2290  138.5270 N   0  0  0  0  0  0  0  0  0  0  0  0
  195.2890  175.3420  138.6910 O   0  0  0  0  0  0  0  0  0  0  0  0
  194.1730  175.3450  138.1050 C   0  0  0  0  0  0  0  0  0  0  0  0
  191.5480  174.9900  137.0560 C   0  0  0  0  0  2  0  0  0  0  0  0
  192.5610  173.5120  135.3630 F   0  0  0  0  0  0  0  0  0  0  0  0
  193.4150  177.2420  139.5370 C   0  0  0  0  0  1  0  0  0  0  0  0
  191.9070  176.3390  137.7030 C   0  0  1  0  0  3  0  0  0  0  0  0
  186.1030  179.0200  141.8450 C   0  0  0  0  0  1  0  0  0  0  0  0
  187.5670  179.4250  141.8620 C   0  0  0  0  0  2  0  0  0  0  0  0
  188.3960  178.3210  144.4240 C   0  0  0  0  0  2  0  0  0  0  0  0
  188.3590  177.4920  146.7690 C   0  0  0  0  0  1  0  0  0  0  0  0
  187.8310  177.2670  145.3630 C   0  0  1  0  0  3  0  0  0  0  0  0
  186.3140  177.3570  145.3550 C   0  0  0  0  0  2  0  0  0  0  0  0
  185.8450  178.7720  145.6570 C   0  0  0  0  0  2  0  0  0  0  0  0
  184.4080  178.9680  145.2140 C   0  0  0  0  0  1  0  0  0  0  0  0
  1 14  1  0  0  0  0
  2  6  1  0  0  0  0
  3  2  1  0  0  0  0
  3 12  1  0  0  0  0
  4 11  1  0  0  0  0
  4 27  1  0  0  0  0
  5  1  1  0  0  0  0
  5 10  1  0  0  0  0
  7  5  1  0  0  0  0
  8  6  1  6  0  0  0
  8  7  1  0  0  0  0
  9 15  1  1  0  0  0
 10  4  2  0  0  0  0
 13 12  1  6  0  0  0
 13  8  1  0  0  0  0
 13  9  1  0  0  0  0
 14 11  2  0  0  0  0
 15  1  2  0  0  0  0
 16 17  2  0  0  0  0
 16 21  1  0  0  0  0
 17 20  1  0  0  0  0
 18 23  1  0  0  0  0
 20 18  1  0  0  0  0
 20 19  2  0  0  0  0
 22 16  1  0  0  0  0
 24 21  1  1  0  0  0
 24  9  1  0  0  0  0
 24 18  1  0  0  0  0
 25 26  1  0  0  0  0
 26 10  1  0  0  0  0
 27 29  1  0  0  0  0
 29 28  1  1  0  0  0
 30 29  1  0  0  0  0
 30 31  1  0  0  0  0
 32 31  1  0  0  0  0
M  END
>  <MODEL>
9

>  <REMARK>
 VINA RESULT:      -6.3      2.262      4.736
  Name = 
  6 active torsions:
  status: ('A' for Active; 'I' for Inactive)
    1  A    between atoms: C_1  and  C_10
    2  A    between atoms: C_8  and  C_19
    3  A    between atoms: C_10  and  C_24
    4  A    between atoms: C_12  and  C_21
    5  A    between atoms: C_16  and  C_32
    6  A    between atoms: C_19  and  C_24
                            x       y       z     vdW  Elec       q    Type
                         _______ _______ _______ _____ _____    ______ ____

>  <TORSDO>
F 6

$$$$
