=
 OpenBabel11052413243D

 28 31  0  0  0  0  0  0  0  0999 V2000
  187.6960  177.5980  145.3530 C   0  0  0  0  0  0  0  0  0  0  0  0
  191.3200  176.6430  147.4760 C   0  0  0  0  0  1  0  0  0  0  0  0
  189.9660  177.3260  142.4790 C   0  0  0  0  0  0  0  0  0  0  0  0
  190.0810  177.0570  145.3090 C   0  0  0  0  0  0  0  0  0  0  0  0
  188.8810  177.4270  143.1890 N   0  0  0  0  0  0  0  0  0  0  0  0
  188.9070  177.2130  147.4250 C   0  0  0  0  0  3  0  0  0  0  0  0
  191.3190  176.7070  144.5280 C   0  0  0  0  0  2  0  0  0  0  0  0
  190.0840  176.9820  146.7140 C   0  0  0  0  0  0  0  0  0  0  0  0
  191.2240  177.1330  143.1360 N   0  0  0  0  0  2  0  0  0  0  0  0
  187.7250  177.5170  146.7520 C   0  0  0  0  0  3  0  0  0  0  0  0
  188.8850  177.3640  144.6250 C   0  0  0  0  0  0  0  0  0  0  0  0
  190.8950  176.8590  140.2970 C   0  0  0  0  0  3  0  0  0  0  0  0
  188.1920  177.7860  139.2070 C   0  0  0  0  0  3  0  0  0  0  0  0
  189.8350  176.2250  138.1760 C   0  0  0  0  0  0  0  0  0  0  0  0
  189.9070  177.4260  141.0010 C   0  0  0  0  0  0  0  0  0  0  0  0
  188.2490  179.2230  140.9990 F   0  0  0  0  0  0  0  0  0  0  0  0
  188.5890  176.6720  138.3250 C   0  0  0  0  0  3  0  0  0  0  0  0
  188.7860  178.1620  140.3490 C   0  0  0  0  0  0  0  0  0  0  0  0
  190.0880  175.0810  137.2630 C   0  0  0  0  0  1  0  0  0  0  0  0
  190.9970  176.9140  138.8110 C   0  0  0  0  0  2  0  0  0  0  0  0
  186.4210  177.9480  144.6840 C   0  0  0  0  0  0  0  0  0  0  0  0
  186.3140  177.8410  143.2900 C   0  0  0  0  0  3  0  0  0  0  0  0
  184.1310  178.7730  144.7620 C   0  0  0  0  0  0  0  0  0  0  0  0
  185.1290  178.1890  142.6380 C   0  0  0  0  0  3  0  0  0  0  0  0
  185.3800  178.5320  146.7730 F   0  0  0  0  0  0  0  0  0  0  0  0
  185.3180  178.4260  145.4210 C   0  0  0  0  0  0  0  0  0  0  0  0
  183.0660  179.2230  145.4690 F   0  0  0  0  0  0  0  0  0  0  0  0
  184.0390  178.6540  143.3730 C   0  0  0  0  0  3  0  0  0  0  0  0
  1 10  1  0  0  0  0
  3  9  1  0  0  0  0
  3  5  2  0  0  0  0
  4  8  2  0  0  0  0
  5 11  1  0  0  0  0
  7  4  1  0  0  0  0
  8  6  1  0  0  0  0
  8  2  1  0  0  0  0
  9  7  1  0  0  0  0
 10  6  2  0  0  0  0
 11  4  1  0  0  0  0
 11  1  2  0  0  0  0
 12 15  2  0  0  0  0
 13 18  2  0  0  0  0
 14 17  2  0  0  0  0
 14 20  1  0  0  0  0
 15  3  1  0  0  0  0
 17 13  1  0  0  0  0
 18 16  1  0  0  0  0
 18 15  1  0  0  0  0
 19 14  1  0  0  0  0
 20 12  1  0  0  0  0
 21  1  1  0  0  0  0
 21 26  1  0  0  0  0
 22 21  2  0  0  0  0
 23 26  2  0  0  0  0
 23 27  1  0  0  0  0
 24 22  1  0  0  0  0
 24 28  2  0  0  0  0
 26 25  1  0  0  0  0
 28 23  1  0  0  0  0
M  END
>  <MODEL>
1

>  <REMARK>
 VINA RESULT:     -11.7      0.000      0.000
  Name = 
  2 active torsions:
  status: ('A' for Active; 'I' for Inactive)
    1  A    between atoms: C_1  and  C_2
    2  A    between atoms: C_10  and  C_13
                            x       y       z     vdW  Elec       q    Type
                         _______ _______ _______ _____ _____    ______ ____

>  <TORSDO>
F 2

$$$$
=
 OpenBabel11052413243D

 28 31  0  0  0  0  0  0  0  0999 V2000
  187.4650  177.5760  144.3030 C   0  0  0  0  0  0  0  0  0  0  0  0
  183.4690  179.0830  144.8600 C   0  0  0  0  0  1  0  0  0  0  0  0
  186.6870  178.3850  140.8070 C   0  0  0  0  0  0  0  0  0  0  0  0
  185.4300  178.5450  143.3540 C   0  0  0  0  0  0  0  0  0  0  0  0
  187.3430  178.0560  141.8800 N   0  0  0  0  0  0  0  0  0  0  0  0
  185.5650  178.0840  145.7310 C   0  0  0  0  0  3  0  0  0  0  0  0
  184.7030  179.1510  142.1830 C   0  0  0  0  0  2  0  0  0  0  0  0
  184.8460  178.5580  144.6340 C   0  0  0  0  0  0  0  0  0  0  0  0
  185.3120  178.7760  140.9110 N   0  0  0  0  0  2  0  0  0  0  0  0
  186.8610  177.5990  145.5670 C   0  0  0  0  0  3  0  0  0  0  0  0
  186.7430  178.0550  143.1850 C   0  0  0  0  0  0  0  0  0  0  0  0
  188.6750  178.5140  139.4380 C   0  0  0  0  0  3  0  0  0  0  0  0
  186.9160  177.4010  137.1950 C   0  0  0  0  0  3  0  0  0  0  0  0
  189.3850  177.2280  137.4720 C   0  0  0  0  0  0  0  0  0  0  0  0
  187.3470  178.3410  139.4800 C   0  0  0  0  0  0  0  0  0  0  0  0
  185.2680  178.6270  138.2240 F   0  0  0  0  0  0  0  0  0  0  0  0
  188.2320  176.7660  136.9900 C   0  0  0  0  0  3  0  0  0  0  0  0
  186.5310  178.1350  138.2500 C   0  0  0  0  0  0  0  0  0  0  0  0
  190.6360  176.4740  137.1990 C   0  0  0  0  0  1  0  0  0  0  0  0
  189.4720  178.5400  138.1780 C   0  0  0  0  0  2  0  0  0  0  0  0
  188.8360  177.0290  144.1760 C   0  0  0  0  0  0  0  0  0  0  0  0
  189.1330  176.1280  143.1430 C   0  0  0  0  0  3  0  0  0  0  0  0
  191.1270  176.8160  144.9730 C   0  0  0  0  0  0  0  0  0  0  0  0
  190.4120  175.5820  143.0200 C   0  0  0  0  0  3  0  0  0  0  0  0
  189.5990  178.2450  146.1060 F   0  0  0  0  0  0  0  0  0  0  0  0
  189.8460  177.3670  145.1010 C   0  0  0  0  0  0  0  0  0  0  0  0
  192.1030  177.1480  145.8540 F   0  0  0  0  0  0  0  0  0  0  0  0
  191.4090  175.9260  143.9340 C   0  0  0  0  0  3  0  0  0  0  0  0
  1 10  1  0  0  0  0
  3  9  1  0  0  0  0
  3  5  2  0  0  0  0
  4  8  2  0  0  0  0
  5 11  1  0  0  0  0
  7  4  1  0  0  0  0
  8  2  1  0  0  0  0
  8  6  1  0  0  0  0
  9  7  1  0  0  0  0
 10  6  2  0  0  0  0
 11  4  1  0  0  0  0
 11  1  2  0  0  0  0
 12 15  2  0  0  0  0
 13 18  2  0  0  0  0
 14 20  1  0  0  0  0
 15  3  1  0  0  0  0
 16 18  1  0  0  0  0
 17 13  1  0  0  0  0
 17 14  2  0  0  0  0
 18 15  1  0  0  0  0
 19 14  1  0  0  0  0
 20 12  1  0  0  0  0
 21  1  1  0  0  0  0
 21 26  1  0  0  0  0
 22 21  2  0  0  0  0
 23 26  2  0  0  0  0
 23 27  1  0  0  0  0
 24 22  1  0  0  0  0
 24 28  2  0  0  0  0
 26 25  1  0  0  0  0
 28 23  1  0  0  0  0
M  END
>  <MODEL>
2

>  <REMARK>
 VINA RESULT:     -11.2      2.327      4.758
  Name = 
  2 active torsions:
  status: ('A' for Active; 'I' for Inactive)
    1  A    between atoms: C_1  and  C_2
    2  A    between atoms: C_10  and  C_13
                            x       y       z     vdW  Elec       q    Type
                         _______ _______ _______ _____ _____    ______ ____

>  <TORSDO>
F 2

$$$$
=
 OpenBabel11052413243D

 28 31  0  0  0  0  0  0  0  0999 V2000
  187.9870  177.6320  144.1360 C   0  0  0  0  0  0  0  0  0  0  0  0
  184.0430  179.0100  143.0880 C   0  0  0  0  0  1  0  0  0  0  0  0
  188.4510  177.9290  140.5050 C   0  0  0  0  0  0  0  0  0  0  0  0
  186.3990  178.3690  142.4270 C   0  0  0  0  0  0  0  0  0  0  0  0
  188.7010  177.7780  141.7720 N   0  0  0  0  0  0  0  0  0  0  0  0
  185.7130  178.2350  144.7490 C   0  0  0  0  0  3  0  0  0  0  0  0
  186.1180  178.7770  141.0060 C   0  0  0  0  0  2  0  0  0  0  0  0
  185.4130  178.5240  143.4180 C   0  0  0  0  0  0  0  0  0  0  0  0
  187.1240  178.2660  140.0820 N   0  0  0  0  0  2  0  0  0  0  0  0
  186.9870  177.7940  145.1040 C   0  0  0  0  0  3  0  0  0  0  0  0
  187.6900  177.9230  142.7840 C   0  0  0  0  0  0  0  0  0  0  0  0
  190.6270  177.0810  139.8820 C   0  0  0  0  0  3  0  0  0  0  0  0
  189.7800  177.6900  137.0070 C   0  0  0  0  0  3  0  0  0  0  0  0
  191.4320  176.0150  137.8230 C   0  0  0  0  0  0  0  0  0  0  0  0
  189.5250  177.7400  139.5020 C   0  0  0  0  0  0  0  0  0  0  0  0
  188.6620  179.4470  137.9770 F   0  0  0  0  0  0  0  0  0  0  0  0
  190.5580  176.4410  136.9110 C   0  0  0  0  0  3  0  0  0  0  0  0
  189.3660  178.2980  138.1280 C   0  0  0  0  0  0  0  0  0  0  0  0
  192.1350  174.7250  137.6030 C   0  0  0  0  0  1  0  0  0  0  0  0
  191.8070  176.8510  139.0010 C   0  0  0  0  0  2  0  0  0  0  0  0
  189.3180  177.1370  144.5590 C   0  0  0  0  0  0  0  0  0  0  0  0
  190.0990  176.3900  143.6670 C   0  0  0  0  0  3  0  0  0  0  0  0
  191.0540  176.8720  146.2460 C   0  0  0  0  0  0  0  0  0  0  0  0
  191.3460  175.8940  144.0540 C   0  0  0  0  0  3  0  0  0  0  0  0
  189.0800  178.1010  146.7500 F   0  0  0  0  0  0  0  0  0  0  0  0
  189.8020  177.3710  145.8630 C   0  0  0  0  0  0  0  0  0  0  0  0
  191.5270  177.1050  147.4950 F   0  0  0  0  0  0  0  0  0  0  0  0
  191.8230  176.1360  145.3420 C   0  0  0  0  0  3  0  0  0  0  0  0
  1 21  1  0  0  0  0
  1 10  1  0  0  0  0
  2  8  1  0  0  0  0
  3  5  2  0  0  0  0
  4 11  1  0  0  0  0
  4  8  2  0  0  0  0
  5 11  1  0  0  0  0
  6 10  2  0  0  0  0
  7  4  1  0  0  0  0
  8  6  1  0  0  0  0
  9  3  1  0  0  0  0
  9  7  1  0  0  0  0
 11  1  2  0  0  0  0
 13 18  2  0  0  0  0
 14 20  1  0  0  0  0
 15 12  2  0  0  0  0
 15  3  1  0  0  0  0
 16 18  1  0  0  0  0
 17 13  1  0  0  0  0
 17 14  2  0  0  0  0
 18 15  1  0  0  0  0
 19 14  1  0  0  0  0
 20 12  1  0  0  0  0
 21 26  1  0  0  0  0
 22 24  1  0  0  0  0
 22 21  2  0  0  0  0
 23 27  1  0  0  0  0
 24 28  2  0  0  0  0
 26 23  2  0  0  0  0
 26 25  1  0  0  0  0
 28 23  1  0  0  0  0
M  END
>  <MODEL>
3

>  <REMARK>
 VINA RESULT:     -10.9      2.013      4.610
  Name = 
  2 active torsions:
  status: ('A' for Active; 'I' for Inactive)
    1  A    between atoms: C_1  and  C_2
    2  A    between atoms: C_10  and  C_13
                            x       y       z     vdW  Elec       q    Type
                         _______ _______ _______ _____ _____    ______ ____

>  <TORSDO>
F 2

$$$$
=
 OpenBabel11052413243D

 28 31  0  0  0  0  0  0  0  0999 V2000
  189.2070  177.3770  144.6990 C   0  0  0  0  0  0  0  0  0  0  0  0
  188.0130  177.6060  148.8310 C   0  0  0  0  0  1  0  0  0  0  0  0
  185.7150  178.4010  144.2100 C   0  0  0  0  0  0  0  0  0  0  0  0
  187.4850  177.8530  146.3690 C   0  0  0  0  0  0  0  0  0  0  0  0
  186.9640  178.1280  143.9760 N   0  0  0  0  0  0  0  0  0  0  0  0
  189.6910  177.1300  147.0680 C   0  0  0  0  0  3  0  0  0  0  0  0
  186.1170  178.3820  146.7100 C   0  0  0  0  0  2  0  0  0  0  0  0
  188.3940  177.5260  147.3920 C   0  0  0  0  0  0  0  0  0  0  0  0
  185.2250  178.3700  145.5560 N   0  0  0  0  0  2  0  0  0  0  0  0
  190.0940  177.0570  145.7360 C   0  0  0  0  0  3  0  0  0  0  0  0
  187.8900  177.7800  145.0190 C   0  0  0  0  0  0  0  0  0  0  0  0
  185.2710  178.6250  141.8440 C   0  0  0  0  0  3  0  0  0  0  0  0
  182.3290  178.8280  142.6570 C   0  0  0  0  0  3  0  0  0  0  0  0
  183.2990  178.0590  140.4960 C   0  0  0  0  0  0  0  0  0  0  0  0
  184.7970  178.7260  143.0930 C   0  0  0  0  0  0  0  0  0  0  0  0
  183.1770  179.8860  144.5110 F   0  0  0  0  0  0  0  0  0  0  0  0
  182.3170  178.0610  141.3970 C   0  0  0  0  0  3  0  0  0  0  0  0
  183.4030  179.1720  143.3810 C   0  0  0  0  0  0  0  0  0  0  0  0
  183.1590  177.2230  139.2760 C   0  0  0  0  0  1  0  0  0  0  0  0
  184.4830  178.9590  140.6240 C   0  0  0  0  0  2  0  0  0  0  0  0
  189.6750  177.2610  143.2980 C   0  0  0  0  0  0  0  0  0  0  0  0
  188.7780  176.8670  142.2950 C   0  0  0  0  0  3  0  0  0  0  0  0
  191.4440  177.3640  141.6270 C   0  0  0  0  0  0  0  0  0  0  0  0
  189.2040  176.7270  140.9730 C   0  0  0  0  0  3  0  0  0  0  0  0
  191.9160  177.9000  143.8970 F   0  0  0  0  0  0  0  0  0  0  0  0
  191.0210  177.5040  142.9550 C   0  0  0  0  0  0  0  0  0  0  0  0
  192.7350  177.6060  141.2930 F   0  0  0  0  0  0  0  0  0  0  0  0
  190.5360  176.9770  140.6390 C   0  0  0  0  0  3  0  0  0  0  0  0
  1 11  2  0  0  0  0
  1 10  1  0  0  0  0
  3  9  1  0  0  0  0
  4  7  1  0  0  0  0
  4  8  2  0  0  0  0
  5  3  2  0  0  0  0
  5 11  1  0  0  0  0
  6  8  1  0  0  0  0
  8  2  1  0  0  0  0
  9  7  1  0  0  0  0
 10  6  2  0  0  0  0
 11  4  1  0  0  0  0
 12 15  2  0  0  0  0
 13 18  2  0  0  0  0
 14 20  1  0  0  0  0
 14 17  2  0  0  0  0
 15 18  1  0  0  0  0
 15  3  1  0  0  0  0
 17 13  1  0  0  0  0
 18 16  1  0  0  0  0
 19 14  1  0  0  0  0
 20 12  1  0  0  0  0
 21  1  1  0  0  0  0
 22 21  2  0  0  0  0
 23 26  2  0  0  0  0
 24 22  1  0  0  0  0
 26 21  1  0  0  0  0
 26 25  1  0  0  0  0
 27 23  1  0  0  0  0
 28 24  2  0  0  0  0
 28 23  1  0  0  0  0
M  END
>  <MODEL>
4

>  <REMARK>
 VINA RESULT:     -10.8      2.149      5.702
  Name = 
  2 active torsions:
  status: ('A' for Active; 'I' for Inactive)
    1  A    between atoms: C_1  and  C_2
    2  A    between atoms: C_10  and  C_13
                            x       y       z     vdW  Elec       q    Type
                         _______ _______ _______ _____ _____    ______ ____

>  <TORSDO>
F 2

$$$$
=
 OpenBabel11052413243D

 28 31  0  0  0  0  0  0  0  0999 V2000
  185.5400  178.3220  144.9000 C   0  0  0  0  0  0  0  0  0  0  0  0
  188.4920  178.0440  148.0250 C   0  0  0  0  0  1  0  0  0  0  0  0
  188.4690  177.5490  142.8260 C   0  0  0  0  0  0  0  0  0  0  0  0
  187.8530  177.9100  145.5800 C   0  0  0  0  0  0  0  0  0  0  0  0
  187.2400  177.7460  143.1990 N   0  0  0  0  0  0  0  0  0  0  0  0
  186.1760  178.4620  147.2420 C   0  0  0  0  0  3  0  0  0  0  0  0
  189.2480  177.4630  145.2340 C   0  0  0  0  0  2  0  0  0  0  0  0
  187.4940  178.1430  146.9200 C   0  0  0  0  0  0  0  0  0  0  0  0
  189.5160  177.5700  143.8040 N   0  0  0  0  0  2  0  0  0  0  0  0
  185.2080  178.5500  146.2430 C   0  0  0  0  0  3  0  0  0  0  0  0
  186.8750  177.9980  144.5660 C   0  0  0  0  0  0  0  0  0  0  0  0
  187.9090  177.7390  140.4820 C   0  0  0  0  0  3  0  0  0  0  0  0
  190.8170  176.9440  139.9650 C   0  0  0  0  0  3  0  0  0  0  0  0
  189.2810  178.2650  138.5160 C   0  0  0  0  0  0  0  0  0  0  0  0
  188.7930  177.3220  141.3980 C   0  0  0  0  0  0  0  0  0  0  0  0
  190.5410  175.6750  141.8590 F   0  0  0  0  0  0  0  0  0  0  0  0
  190.5080  177.9380  138.9180 C   0  0  0  0  0  3  0  0  0  0  0  0
  190.0570  176.6260  141.0230 C   0  0  0  0  0  0  0  0  0  0  0  0
  189.1170  179.2970  137.4600 C   0  0  0  0  0  1  0  0  0  0  0  0
  188.0730  177.5420  139.0140 C   0  0  0  0  0  2  0  0  0  0  0  0
  184.4810  178.4510  143.8720 C   0  0  0  0  0  0  0  0  0  0  0  0
  184.7810  178.1870  142.5280 C   0  0  0  0  0  3  0  0  0  0  0  0
  182.2030  179.0100  143.2180 C   0  0  0  0  0  0  0  0  0  0  0  0
  183.8040  178.3260  141.5390 C   0  0  0  0  0  3  0  0  0  0  0  0
  182.8480  179.1250  145.5050 F   0  0  0  0  0  0  0  0  0  0  0  0
  183.1790  178.8720  144.2130 C   0  0  0  0  0  0  0  0  0  0  0  0
  180.9480  179.4050  143.5440 F   0  0  0  0  0  0  0  0  0  0  0  0
  182.5160  178.7360  141.8840 C   0  0  0  0  0  3  0  0  0  0  0  0
  1 10  1  0  0  0  0
  3  5  2  0  0  0  0
  3  9  1  0  0  0  0
  4  8  2  0  0  0  0
  5 11  1  0  0  0  0
  7  4  1  0  0  0  0
  8  6  1  0  0  0  0
  8  2  1  0  0  0  0
  9  7  1  0  0  0  0
 10  6  2  0  0  0  0
 11  1  2  0  0  0  0
 11  4  1  0  0  0  0
 12 15  2  0  0  0  0
 13 18  2  0  0  0  0
 14 17  2  0  0  0  0
 14 20  1  0  0  0  0
 15  3  1  0  0  0  0
 17 13  1  0  0  0  0
 18 15  1  0  0  0  0
 18 16  1  0  0  0  0
 19 14  1  0  0  0  0
 20 12  1  0  0  0  0
 21 26  1  0  0  0  0
 21  1  1  0  0  0  0
 22 21  2  0  0  0  0
 23 27  1  0  0  0  0
 23 26  2  0  0  0  0
 24 28  2  0  0  0  0
 24 22  1  0  0  0  0
 26 25  1  0  0  0  0
 28 23  1  0  0  0  0
M  END
>  <MODEL>
5

>  <REMARK>
 VINA RESULT:     -10.7      1.683      2.600
  Name = 
  2 active torsions:
  status: ('A' for Active; 'I' for Inactive)
    1  A    between atoms: C_1  and  C_2
    2  A    between atoms: C_10  and  C_13
                            x       y       z     vdW  Elec       q    Type
                         _______ _______ _______ _____ _____    ______ ____

>  <TORSDO>
F 2

$$$$
=
 OpenBabel11052413243D

 28 31  0  0  0  0  0  0  0  0999 V2000
  189.4090  177.5030  143.8470 C   0  0  0  0  0  0  0  0  0  0  0  0
  191.9760  177.2840  140.3950 C   0  0  0  0  0  1  0  0  0  0  0  0
  186.9790  178.5110  141.2870 C   0  0  0  0  0  0  0  0  0  0  0  0
  189.7110  177.7290  141.4310 C   0  0  0  0  0  0  0  0  0  0  0  0
  187.4900  178.1350  142.4210 N   0  0  0  0  0  0  0  0  0  0  0  0
  191.5820  177.0960  142.8370 C   0  0  0  0  0  3  0  0  0  0  0  0
  189.1190  177.9330  140.0610 C   0  0  0  0  0  2  0  0  0  0  0  0
  191.0650  177.3790  141.5730 C   0  0  0  0  0  0  0  0  0  0  0  0
  187.8130  178.5800  140.1230 N   0  0  0  0  0  2  0  0  0  0  0  0
  190.7620  177.1570  143.9620 C   0  0  0  0  0  3  0  0  0  0  0  0
  188.8780  177.7910  142.5690 C   0  0  0  0  0  0  0  0  0  0  0  0
  184.9870  178.9210  139.9800 C   0  0  0  0  0  3  0  0  0  0  0  0
  183.5080  178.8850  142.6580 C   0  0  0  0  0  3  0  0  0  0  0  0
  182.6300  178.3680  140.3860 C   0  0  0  0  0  0  0  0  0  0  0  0
  185.5470  178.8830  141.1960 C   0  0  0  0  0  0  0  0  0  0  0  0
  185.4500  179.8180  143.4540 F   0  0  0  0  0  0  0  0  0  0  0  0
  182.5830  178.2340  141.7110 C   0  0  0  0  0  3  0  0  0  0  0  0
  184.7870  179.2220  142.4330 C   0  0  0  0  0  0  0  0  0  0  0  0
  181.6410  177.6390  139.5500 C   0  0  0  0  0  1  0  0  0  0  0  0
  183.5720  179.3190  139.7260 C   0  0  0  0  0  2  0  0  0  0  0  0
  188.5840  177.5780  145.0760 C   0  0  0  0  0  0  0  0  0  0  0  0
  187.1880  177.5050  144.9820 C   0  0  0  0  0  3  0  0  0  0  0  0
  188.3730  177.8510  147.4870 C   0  0  0  0  0  0  0  0  0  0  0  0
  186.3910  177.5980  146.1260 C   0  0  0  0  0  3  0  0  0  0  0  0
  190.5270  177.8210  146.4750 F   0  0  0  0  0  0  0  0  0  0  0  0
  189.1770  177.7590  146.3430 C   0  0  0  0  0  0  0  0  0  0  0  0
  188.9410  178.0150  148.7070 F   0  0  0  0  0  0  0  0  0  0  0  0
  186.9830  177.7700  147.3770 C   0  0  0  0  0  3  0  0  0  0  0  0
  1 10  1  0  0  0  0
  1 21  1  0  0  0  0
  2  8  1  0  0  0  0
  3  5  2  0  0  0  0
  4  8  2  0  0  0  0
  4 11  1  0  0  0  0
  5 11  1  0  0  0  0
  6 10  2  0  0  0  0
  7  9  1  0  0  0  0
  7  4  1  0  0  0  0
  8  6  1  0  0  0  0
  9  3  1  0  0  0  0
 11  1  2  0  0  0  0
 12 15  2  0  0  0  0
 14 17  2  0  0  0  0
 15  3  1  0  0  0  0
 15 18  1  0  0  0  0
 17 13  1  0  0  0  0
 18 13  2  0  0  0  0
 18 16  1  0  0  0  0
 19 14  1  0  0  0  0
 20 12  1  0  0  0  0
 20 14  1  0  0  0  0
 21 26  1  0  0  0  0
 22 21  2  0  0  0  0
 22 24  1  0  0  0  0
 23 27  1  0  0  0  0
 24 28  2  0  0  0  0
 26 25  1  0  0  0  0
 26 23  2  0  0  0  0
 28 23  1  0  0  0  0
M  END
>  <MODEL>
6

>  <REMARK>
 VINA RESULT:     -10.6      2.321      5.226
  Name = 
  2 active torsions:
  status: ('A' for Active; 'I' for Inactive)
    1  A    between atoms: C_1  and  C_2
    2  A    between atoms: C_10  and  C_13
                            x       y       z     vdW  Elec       q    Type
                         _______ _______ _______ _____ _____    ______ ____

>  <TORSDO>
F 2

$$$$
=
 OpenBabel11052413243D

 28 31  0  0  0  0  0  0  0  0999 V2000
  188.7370  177.6450  143.6600 C   0  0  0  0  0  0  0  0  0  0  0  0
  188.1380  177.4330  147.9200 C   0  0  0  0  0  1  0  0  0  0  0  0
  185.1310  178.3280  143.7470 C   0  0  0  0  0  0  0  0  0  0  0  0
  187.2380  177.8080  145.5860 C   0  0  0  0  0  0  0  0  0  0  0  0
  186.3530  178.2070  143.3210 N   0  0  0  0  0  0  0  0  0  0  0  0
  189.5810  177.2710  145.9090 C   0  0  0  0  0  3  0  0  0  0  0  0
  185.8910  178.1620  146.1570 C   0  0  0  0  0  2  0  0  0  0  0  0
  188.3130  177.5030  146.4410 C   0  0  0  0  0  0  0  0  0  0  0  0
  184.8460  178.1440  145.1390 N   0  0  0  0  0  2  0  0  0  0  0  0
  189.7910  177.3420  144.5330 C   0  0  0  0  0  3  0  0  0  0  0  0
  187.4480  177.8810  144.1920 C   0  0  0  0  0  0  0  0  0  0  0  0
  184.2230  178.3450  141.5060 C   0  0  0  0  0  3  0  0  0  0  0  0
  181.5500  178.9890  142.8470 C   0  0  0  0  0  3  0  0  0  0  0  0
  181.9680  177.8780  140.6580 C   0  0  0  0  0  0  0  0  0  0  0  0
  184.0340  178.6380  142.7990 C   0  0  0  0  0  0  0  0  0  0  0  0
  182.8660  180.1330  144.3430 F   0  0  0  0  0  0  0  0  0  0  0  0
  181.2010  178.0960  141.7260 C   0  0  0  0  0  3  0  0  0  0  0  0
  182.7810  179.2780  143.2950 C   0  0  0  0  0  0  0  0  0  0  0  0
  181.4950  176.9370  139.6100 C   0  0  0  0  0  1  0  0  0  0  0  0
  183.2320  178.6370  140.4310 C   0  0  0  0  0  2  0  0  0  0  0  0
  189.0060  177.6850  142.2040 C   0  0  0  0  0  0  0  0  0  0  0  0
  188.3080  178.5900  141.3920 C   0  0  0  0  0  3  0  0  0  0  0  0
  190.1460  176.8420  140.2240 C   0  0  0  0  0  0  0  0  0  0  0  0
  188.5280  178.6280  140.0130 C   0  0  0  0  0  3  0  0  0  0  0  0
  190.6320  175.9190  142.3620 F   0  0  0  0  0  0  0  0  0  0  0  0
  189.9280  176.8010  141.6070 C   0  0  0  0  0  0  0  0  0  0  0  0
  191.0390  176.0000  139.6490 F   0  0  0  0  0  0  0  0  0  0  0  0
  189.4470  177.7550  139.4300 C   0  0  0  0  0  3  0  0  0  0  0  0
  1 11  2  0  0  0  0
  1 10  1  0  0  0  0
  3  9  1  0  0  0  0
  4  7  1  0  0  0  0
  4  8  2  0  0  0  0
  5  3  2  0  0  0  0
  5 11  1  0  0  0  0
  6  8  1  0  0  0  0
  8  2  1  0  0  0  0
  9  7  1  0  0  0  0
 10  6  2  0  0  0  0
 11  4  1  0  0  0  0
 12 15  2  0  0  0  0
 13 18  2  0  0  0  0
 14 17  2  0  0  0  0
 15 18  1  0  0  0  0
 15  3  1  0  0  0  0
 17 13  1  0  0  0  0
 18 16  1  0  0  0  0
 19 14  1  0  0  0  0
 20 14  1  0  0  0  0
 20 12  1  0  0  0  0
 21  1  1  0  0  0  0
 22 21  2  0  0  0  0
 23 26  2  0  0  0  0
 24 22  1  0  0  0  0
 26 21  1  0  0  0  0
 26 25  1  0  0  0  0
 27 23  1  0  0  0  0
 28 24  2  0  0  0  0
 28 23  1  0  0  0  0
M  END
>  <MODEL>
7

>  <REMARK>
 VINA RESULT:     -10.4      2.300      6.039
  Name = 
  2 active torsions:
  status: ('A' for Active; 'I' for Inactive)
    1  A    between atoms: C_1  and  C_2
    2  A    between atoms: C_10  and  C_13
                            x       y       z     vdW  Elec       q    Type
                         _______ _______ _______ _____ _____    ______ ____

>  <TORSDO>
F 2

$$$$
=
 OpenBabel11052413243D

 28 31  0  0  0  0  0  0  0  0999 V2000
  185.8840  178.2240  144.5130 C   0  0  0  0  0  0  0  0  0  0  0  0
  181.8070  179.2540  143.5770 C   0  0  0  0  0  1  0  0  0  0  0  0
  186.1850  178.4100  140.8580 C   0  0  0  0  0  0  0  0  0  0  0  0
  184.1800  178.7690  142.8450 C   0  0  0  0  0  0  0  0  0  0  0  0
  186.4940  178.3300  142.1180 N   0  0  0  0  0  0  0  0  0  0  0  0
  183.5960  178.6770  145.1960 C   0  0  0  0  0  3  0  0  0  0  0  0
  183.8130  179.0970  141.4220 C   0  0  0  0  0  2  0  0  0  0  0  0
  183.2240  178.8880  143.8690 C   0  0  0  0  0  0  0  0  0  0  0  0
  184.8210  178.6270  140.4770 N   0  0  0  0  0  2  0  0  0  0  0  0
  184.9120  178.3490  145.5150 C   0  0  0  0  0  3  0  0  0  0  0  0
  185.5140  178.4370  143.1640 C   0  0  0  0  0  0  0  0  0  0  0  0
  188.5110  178.3020  140.2110 C   0  0  0  0  0  3  0  0  0  0  0  0
  187.4700  177.3070  137.5120 C   0  0  0  0  0  3  0  0  0  0  0  0
  189.6840  176.8970  138.5750 C   0  0  0  0  0  0  0  0  0  0  0  0
  187.2310  178.2640  139.8180 C   0  0  0  0  0  0  0  0  0  0  0  0
  185.7130  178.7190  137.9560 F   0  0  0  0  0  0  0  0  0  0  0  0
  188.7080  176.5380  137.7420 C   0  0  0  0  0  3  0  0  0  0  0  0
  186.8420  178.1050  138.3880 C   0  0  0  0  0  0  0  0  0  0  0  0
  190.8710  176.0150  138.7210 C   0  0  0  0  0  1  0  0  0  0  0  0
  189.6720  178.2130  139.2790 C   0  0  0  0  0  2  0  0  0  0  0  0
  187.2650  177.8500  144.8990 C   0  0  0  0  0  0  0  0  0  0  0  0
  188.1190  177.2690  143.9520 C   0  0  0  0  0  3  0  0  0  0  0  0
  189.0300  177.6490  146.5640 C   0  0  0  0  0  0  0  0  0  0  0  0
  189.4160  176.8870  144.3020 C   0  0  0  0  0  3  0  0  0  0  0  0
  186.9340  178.6040  147.1600 F   0  0  0  0  0  0  0  0  0  0  0  0
  187.7280  178.0330  146.2180 C   0  0  0  0  0  0  0  0  0  0  0  0
  189.4810  177.8330  147.8290 F   0  0  0  0  0  0  0  0  0  0  0  0
  189.8710  177.0780  145.6070 C   0  0  0  0  0  3  0  0  0  0  0  0
  1 21  1  0  0  0  0
  1 10  1  0  0  0  0
  2  8  1  0  0  0  0
  3  5  2  0  0  0  0
  4 11  1  0  0  0  0
  4  8  2  0  0  0  0
  5 11  1  0  0  0  0
  6 10  2  0  0  0  0
  7  4  1  0  0  0  0
  8  6  1  0  0  0  0
  9  3  1  0  0  0  0
  9  7  1  0  0  0  0
 11  1  2  0  0  0  0
 13 17  1  0  0  0  0
 13 18  2  0  0  0  0
 14 19  1  0  0  0  0
 14 20  1  0  0  0  0
 15 12  2  0  0  0  0
 15  3  1  0  0  0  0
 16 18  1  0  0  0  0
 17 14  2  0  0  0  0
 18 15  1  0  0  0  0
 20 12  1  0  0  0  0
 21 26  1  0  0  0  0
 22 24  1  0  0  0  0
 22 21  2  0  0  0  0
 23 27  1  0  0  0  0
 24 28  2  0  0  0  0
 26 23  2  0  0  0  0
 26 25  1  0  0  0  0
 28 23  1  0  0  0  0
M  END
>  <MODEL>
8

>  <REMARK>
 VINA RESULT:     -10.2      1.914      4.764
  Name = 
  2 active torsions:
  status: ('A' for Active; 'I' for Inactive)
    1  A    between atoms: C_1  and  C_2
    2  A    between atoms: C_10  and  C_13
                            x       y       z     vdW  Elec       q    Type
                         _______ _______ _______ _____ _____    ______ ____

>  <TORSDO>
F 2

$$$$
=
 OpenBabel11052413243D

 28 31  0  0  0  0  0  0  0  0999 V2000
  187.7260  177.6650  144.4940 C   0  0  0  0  0  0  0  0  0  0  0  0
  191.6730  176.7380  145.9500 C   0  0  0  0  0  1  0  0  0  0  0  0
  189.3950  177.1330  141.2670 C   0  0  0  0  0  0  0  0  0  0  0  0
  190.0480  177.0470  144.0350 C   0  0  0  0  0  0  0  0  0  0  0  0
  188.4700  177.3140  142.1610 N   0  0  0  0  0  0  0  0  0  0  0  0
  189.3060  177.3790  146.3190 C   0  0  0  0  0  3  0  0  0  0  0  0
  191.1060  176.6070  143.0590 C   0  0  0  0  0  2  0  0  0  0  0  0
  190.3190  177.0650  145.4150 C   0  0  0  0  0  0  0  0  0  0  0  0
  190.7530  176.9430  141.6840 N   0  0  0  0  0  2  0  0  0  0  0  0
  188.0220  177.6760  145.8640 C   0  0  0  0  0  3  0  0  0  0  0  0
  188.7490  177.3470  143.5710 C   0  0  0  0  0  0  0  0  0  0  0  0
  187.8370  177.5660  139.4700 C   0  0  0  0  0  3  0  0  0  0  0  0
  190.2400  177.1940  137.6130 C   0  0  0  0  0  3  0  0  0  0  0  0
  188.1590  178.5060  137.2260 C   0  0  0  0  0  0  0  0  0  0  0  0
  189.0560  177.1370  139.8240 C   0  0  0  0  0  0  0  0  0  0  0  0
  190.9000  175.6600  139.1910 F   0  0  0  0  0  0  0  0  0  0  0  0
  189.4500  178.2750  136.9920 C   0  0  0  0  0  3  0  0  0  0  0  0
  190.0500  176.6510  138.8240 C   0  0  0  0  0  0  0  0  0  0  0  0
  187.4930  179.6440  136.5400 C   0  0  0  0  0  1  0  0  0  0  0  0
  187.3360  177.5880  138.0660 C   0  0  0  0  0  2  0  0  0  0  0  0
  186.3530  178.0100  144.0570 C   0  0  0  0  0  0  0  0  0  0  0  0
  186.0260  177.9750  142.6940 C   0  0  0  0  0  3  0  0  0  0  0  0
  184.0880  178.7580  144.5450 C   0  0  0  0  0  0  0  0  0  0  0  0
  184.7450  178.3200  142.2590 C   0  0  0  0  0  3  0  0  0  0  0  0
  185.6470  178.4480  146.3150 F   0  0  0  0  0  0  0  0  0  0  0  0
  185.3720  178.4140  144.9860 C   0  0  0  0  0  0  0  0  0  0  0  0
  183.1390  179.1360  145.4370 F   0  0  0  0  0  0  0  0  0  0  0  0
  183.7760  178.7110  143.1840 C   0  0  0  0  0  3  0  0  0  0  0  0
  1 10  1  0  0  0  0
  3  9  1  0  0  0  0
  3  5  2  0  0  0  0
  4  8  2  0  0  0  0
  5 11  1  0  0  0  0
  7  4  1  0  0  0  0
  8  2  1  0  0  0  0
  8  6  1  0  0  0  0
  9  7  1  0  0  0  0
 10  6  2  0  0  0  0
 11  4  1  0  0  0  0
 11  1  2  0  0  0  0
 12 15  2  0  0  0  0
 13 18  2  0  0  0  0
 14 20  1  0  0  0  0
 15  3  1  0  0  0  0
 17 14  2  0  0  0  0
 17 13  1  0  0  0  0
 18 16  1  0  0  0  0
 18 15  1  0  0  0  0
 19 14  1  0  0  0  0
 20 12  1  0  0  0  0
 21  1  1  0  0  0  0
 21 26  1  0  0  0  0
 22 21  2  0  0  0  0
 23 26  2  0  0  0  0
 23 27  1  0  0  0  0
 24 22  1  0  0  0  0
 24 28  2  0  0  0  0
 26 25  1  0  0  0  0
 28 23  1  0  0  0  0
M  END
>  <MODEL>
9

>  <REMARK>
 VINA RESULT:     -10.1      1.516      2.113
  Name = 
  2 active torsions:
  status: ('A' for Active; 'I' for Inactive)
    1  A    between atoms: C_1  and  C_2
    2  A    between atoms: C_10  and  C_13
                            x       y       z     vdW  Elec       q    Type
                         _______ _______ _______ _____ _____    ______ ____

>  <TORSDO>
F 2

$$$$
