=
 OpenBabel11052413353D

 28 32  0  0  1  0  0  0  0  0999 V2000
  186.8620  177.5100  146.0920 C   0  0  2  0  0  3  0  0  0  0  0  0
  188.4060  177.2280  141.1170 C   0  0  0  0  0  3  0  0  0  0  0  0
  191.7480  177.1900  146.1920 O   0  0  0  0  0  0  0  0  0  0  0  0
  190.8230  177.4490  141.2480 C   0  0  0  0  0  0  0  0  0  0  0  0
  189.5210  177.2180  143.3010 C   0  0  0  0  0  0  0  0  0  0  0  0
  189.7170  177.4630  139.0940 C   0  0  0  0  0  0  0  0  0  0  0  0
  189.5730  177.2960  141.8950 C   0  0  0  0  0  0  0  0  0  0  0  0
  191.9450  177.4300  143.3890 C   0  0  0  0  0  3  0  0  0  0  0  0
  190.8860  177.5320  139.8540 C   0  0  0  0  0  3  0  0  0  0  0  0
  189.3490  177.0800  146.2350 C   0  0  1  0  0  3  0  0  0  0  0  0
  188.2080  177.0000  144.0100 C   0  0  0  0  0  2  0  0  0  0  0  0
  191.9980  177.5140  141.9980 C   0  0  0  0  0  3  0  0  0  0  0  0
  188.0420  177.5240  148.3140 C   0  0  0  0  0  2  0  0  0  0  0  0
  190.6750  177.2110  145.5280 C   0  0  0  0  0  0  0  0  0  0  0  0
  189.3740  177.7480  147.6090 C   0  0  0  0  0  2  0  0  0  0  0  0
  189.7820  177.5450  137.7430 F   0  0  0  0  0  0  0  0  0  0  0  0
  188.4780  177.3110  139.7240 C   0  0  0  0  0  3  0  0  0  0  0  0
  190.7180  177.2790  144.0490 C   0  0  0  0  0  0  0  0  0  0  0  0
  186.9060  178.1260  147.4940 C   0  0  0  0  0  2  0  0  0  0  0  0
  188.2170  177.6740  145.3820 C   0  0  1  0  0  3  0  0  0  0  0  0
  185.7390  178.1170  145.3040 C   0  0  0  0  0  0  0  0  0  0  0  0
  185.8500  178.3220  143.9200 C   0  0  0  0  0  3  0  0  0  0  0  0
  183.6090  179.2400  143.8700 C   0  0  0  0  0  0  0  0  0  0  0  0
  184.5600  178.4780  145.9640 C   0  0  0  0  0  3  0  0  0  0  0  0
  184.9570  179.1200  141.4740 Cl  0  0  0  0  0  0  0  0  0  0  0  0
  184.7890  178.8810  143.2030 C   0  0  0  0  0  0  0  0  0  0  0  0
  182.5440  179.7960  143.1710 O   0  0  0  0  0  1  0  0  0  0  0  0
  183.4980  179.0380  145.2490 C   0  0  0  0  0  3  0  0  0  0  0  0
  1 21  1  6  0  0  0
  1 19  1  0  0  0  0
  2  7  1  0  0  0  0
  4  7  2  0  0  0  0
  4 12  1  0  0  0  0
  5 11  1  0  0  0  0
  5 18  2  0  0  0  0
  6 17  1  0  0  0  0
  6  9  2  0  0  0  0
  7  5  1  0  0  0  0
  8 18  1  0  0  0  0
  9  4  1  0  0  0  0
 10 15  1  1  0  0  0
 12  8  2  0  0  0  0
 14  3  2  0  0  0  0
 14 10  1  0  0  0  0
 15 13  1  0  0  0  0
 16  6  1  0  0  0  0
 17  2  2  0  0  0  0
 18 14  1  0  0  0  0
 19 13  1  0  0  0  0
 20 11  1  6  0  0  0
 20  1  1  0  0  0  0
 20 10  1  0  0  0  0
 21 24  1  0  0  0  0
 22 21  2  0  0  0  0
 23 28  1  0  0  0  0
 25 26  1  0  0  0  0
 26 23  2  0  0  0  0
 26 22  1  0  0  0  0
 27 23  1  0  0  0  0
 28 24  2  0  0  0  0
M  END
>  <MODEL>
1

>  <REMARK>
 VINA RESULT:     -12.2      0.000      0.000
  Name = 
  1 active torsions:
  status: ('A' for Active; 'I' for Inactive)
    1  A    between atoms: C_1  and  C_2
                            x       y       z     vdW  Elec       q    Type
                         _______ _______ _______ _____ _____    ______ ____

>  <TORSDO>
F 1

$$$$
=
 OpenBabel11052413353D

 28 32  0  0  1  0  0  0  0  0999 V2000
  186.1410  178.0080  142.4600 C   0  0  2  0  0  3  0  0  0  0  0  0
  190.2470  176.4100  145.2520 C   0  0  0  0  0  3  0  0  0  0  0  0
  185.0860  179.0040  147.1370 O   0  0  0  0  0  0  0  0  0  0  0  0
  189.8030  177.2730  147.4810 C   0  0  0  0  0  0  0  0  0  0  0  0
  188.0840  177.4490  145.7540 C   0  0  0  0  0  0  0  0  0  0  0  0
  191.9400  176.2500  146.9770 C   0  0  0  0  0  0  0  0  0  0  0  0
  189.3730  177.0420  146.1510 C   0  0  0  0  0  0  0  0  0  0  0  0
  187.6740  178.2910  148.0020 C   0  0  0  0  0  3  0  0  0  0  0  0
  191.0820  176.8760  147.8830 C   0  0  0  0  0  3  0  0  0  0  0  0
  185.4150  178.3060  144.8630 C   0  0  1  0  0  3  0  0  0  0  0  0
  187.5830  177.1650  144.3610 C   0  0  0  0  0  2  0  0  0  0  0  0
  188.9520  177.8940  148.3950 C   0  0  0  0  0  3  0  0  0  0  0  0
  183.9410  179.0990  143.0110 C   0  0  0  0  0  2  0  0  0  0  0  0
  185.8770  178.5160  146.2830 C   0  0  0  0  0  0  0  0  0  0  0  0
  184.4380  179.3950  144.4210 C   0  0  0  0  0  2  0  0  0  0  0  0
  193.1780  175.8680  147.3710 F   0  0  0  0  0  0  0  0  0  0  0  0
  191.5240  176.0160  145.6630 C   0  0  0  0  0  3  0  0  0  0  0  0
  187.2290  178.0710  146.6920 C   0  0  0  0  0  0  0  0  0  0  0  0
  185.1140  179.0640  142.0380 C   0  0  0  0  0  2  0  0  0  0  0  0
  186.6130  178.2540  143.9030 C   0  0  1  0  0  3  0  0  0  0  0  0
  187.2840  177.9920  141.4900 C   0  0  0  0  0  0  0  0  0  0  0  0
  188.5860  177.6690  141.9060 C   0  0  0  0  0  3  0  0  0  0  0  0
  189.3890  177.9610  139.6390 C   0  0  0  0  0  0  0  0  0  0  0  0
  187.0450  178.3000  140.1470 C   0  0  0  0  0  3  0  0  0  0  0  0
  191.2500  177.2410  141.5340 Cl  0  0  0  0  0  0  0  0  0  0  0  0
  189.6360  177.6530  140.9840 C   0  0  0  0  0  0  0  0  0  0  0  0
  190.4230  177.9480  138.7090 O   0  0  0  0  0  1  0  0  0  0  0  0
  188.0940  178.2850  139.2250 C   0  0  0  0  0  3  0  0  0  0  0  0
  1 21  1  6  0  0  0
  1 20  1  0  0  0  0
  2 17  2  0  0  0  0
  2  7  1  0  0  0  0
  4  9  1  0  0  0  0
  4 12  1  0  0  0  0
  5  7  1  0  0  0  0
  5 18  2  0  0  0  0
  6 16  1  0  0  0  0
  6  9  2  0  0  0  0
  7  4  2  0  0  0  0
  8 12  2  0  0  0  0
 10 15  1  6  0  0  0
 10 14  1  0  0  0  0
 11  5  1  0  0  0  0
 13 15  1  0  0  0  0
 14 18  1  0  0  0  0
 14  3  2  0  0  0  0
 17  6  1  0  0  0  0
 18  8  1  0  0  0  0
 19  1  1  0  0  0  0
 19 13  1  0  0  0  0
 20 11  1  1  0  0  0
 20 10  1  0  0  0  0
 21 22  1  0  0  0  0
 23 26  1  0  0  0  0
 24 21  2  0  0  0  0
 26 25  1  0  0  0  0
 26 22  2  0  0  0  0
 27 23  1  0  0  0  0
 28 23  2  0  0  0  0
 28 24  1  0  0  0  0
M  END
>  <MODEL>
2

>  <REMARK>
 VINA RESULT:     -12.1      3.065      6.135
  Name = 
  1 active torsions:
  status: ('A' for Active; 'I' for Inactive)
    1  A    between atoms: C_1  and  C_2
                            x       y       z     vdW  Elec       q    Type
                         _______ _______ _______ _____ _____    ______ ____

>  <TORSDO>
F 1

$$$$
=
 OpenBabel11052413353D

 28 32  0  0  1  0  0  0  0  0999 V2000
  185.1280  177.9650  144.2720 C   0  0  2  0  0  3  0  0  0  0  0  0
  189.2100  177.1220  141.1370 C   0  0  0  0  0  3  0  0  0  0  0  0
  189.0920  178.0010  147.1470 O   0  0  0  0  0  0  0  0  0  0  0  0
  191.1330  177.5260  142.5680 C   0  0  0  0  0  0  0  0  0  0  0  0
  188.8930  177.4840  143.5410 C   0  0  0  0  0  0  0  0  0  0  0  0
  191.4410  177.1720  140.1920 C   0  0  0  0  0  0  0  0  0  0  0  0
  189.7330  177.3750  142.4150 C   0  0  0  0  0  0  0  0  0  0  0  0
  190.8450  177.8740  144.9430 C   0  0  0  0  0  3  0  0  0  0  0  0
  191.9750  177.4240  141.4570 C   0  0  0  0  0  3  0  0  0  0  0  0
  187.0880  177.7320  145.8510 C   0  0  1  0  0  3  0  0  0  0  0  0
  187.4060  177.2730  143.4120 C   0  0  0  0  0  2  0  0  0  0  0  0
  191.6780  177.7730  143.8290 C   0  0  0  0  0  3  0  0  0  0  0  0
  184.8430  178.3600  146.7410 C   0  0  0  0  0  2  0  0  0  0  0  0
  188.5830  177.8580  146.0020 C   0  0  0  0  0  0  0  0  0  0  0  0
  186.3440  178.5790  146.8820 C   0  0  0  0  0  2  0  0  0  0  0  0
  192.2600  177.0750  139.1180 F   0  0  0  0  0  0  0  0  0  0  0  0
  190.0600  177.0210  140.0310 C   0  0  0  0  0  3  0  0  0  0  0  0
  189.4580  177.7280  144.8130 C   0  0  0  0  0  0  0  0  0  0  0  0
  184.3820  178.7660  145.3450 C   0  0  0  0  0  2  0  0  0  0  0  0
  186.6490  178.1250  144.4320 C   0  0  1  0  0  3  0  0  0  0  0  0
  184.6600  178.3810  142.9090 C   0  0  0  0  0  0  0  0  0  0  0  0
  183.2930  178.4490  142.6000 C   0  0  0  0  0  3  0  0  0  0  0  0
  183.8300  179.1780  140.3530 C   0  0  0  0  0  0  0  0  0  0  0  0
  185.6060  178.7110  141.9340 C   0  0  0  0  0  3  0  0  0  0  0  0
  181.1610  178.9250  140.9720 Cl  0  0  0  0  0  0  0  0  0  0  0  0
  182.8770  178.8460  141.3260 C   0  0  0  0  0  0  0  0  0  0  0  0
  183.4340  179.5760  139.0810 O   0  0  0  0  0  1  0  0  0  0  0  0
  185.1930  179.1080  140.6600 C   0  0  0  0  0  3  0  0  0  0  0  0
  1 21  1  6  0  0  0
  1 20  1  0  0  0  0
  1 19  1  0  0  0  0
  2  7  1  0  0  0  0
  4 12  1  0  0  0  0
  5 18  2  0  0  0  0
  6  9  2  0  0  0  0
  7  4  2  0  0  0  0
  7  5  1  0  0  0  0
  9  4  1  0  0  0  0
 10 14  1  0  0  0  0
 10 15  1  1  0  0  0
 11  5  1  0  0  0  0
 12  8  2  0  0  0  0
 13 15  1  0  0  0  0
 14  3  2  0  0  0  0
 16  6  1  0  0  0  0
 17  6  1  0  0  0  0
 17  2  2  0  0  0  0
 18  8  1  0  0  0  0
 18 14  1  0  0  0  0
 19 13  1  0  0  0  0
 20 11  1  6  0  0  0
 20 10  1  0  0  0  0
 22 21  1  0  0  0  0
 23 28  2  0  0  0  0
 23 26  1  0  0  0  0
 24 21  2  0  0  0  0
 25 26  1  0  0  0  0
 26 22  2  0  0  0  0
 27 23  1  0  0  0  0
 28 24  1  0  0  0  0
M  END
>  <MODEL>
3

>  <REMARK>
 VINA RESULT:     -11.8      1.794      2.714
  Name = 
  1 active torsions:
  status: ('A' for Active; 'I' for Inactive)
    1  A    between atoms: C_1  and  C_2
                            x       y       z     vdW  Elec       q    Type
                         _______ _______ _______ _____ _____    ______ ____

>  <TORSDO>
F 1

$$$$
=
 OpenBabel11052413353D

 28 32  0  0  1  0  0  0  0  0999 V2000
  188.4570  178.1080  144.6100 C   0  0  2  0  0  3  0  0  0  0  0  0
  184.8510  178.9900  140.9460 C   0  0  0  0  0  3  0  0  0  0  0  0
  184.1880  178.5450  146.9690 O   0  0  0  0  0  0  0  0  0  0  0  0
  182.7470  178.8210  142.1510 C   0  0  0  0  0  0  0  0  0  0  0  0
  184.8520  178.7840  143.3890 C   0  0  0  0  0  0  0  0  0  0  0  0
  182.7510  179.0200  139.7380 C   0  0  0  0  0  0  0  0  0  0  0  0
  184.1620  178.8660  142.1630 C   0  0  0  0  0  0  0  0  0  0  0  0
  182.7230  178.6280  144.5600 C   0  0  0  0  0  3  0  0  0  0  0  0
  182.0530  178.8970  140.9400 C   0  0  0  0  0  3  0  0  0  0  0  0
  186.3460  178.5850  145.9160 C   0  0  1  0  0  3  0  0  0  0  0  0
  186.3550  178.8850  143.4320 C   0  0  0  0  0  2  0  0  0  0  0  0
  182.0390  178.7030  143.3480 C   0  0  0  0  0  3  0  0  0  0  0  0
  188.4160  177.8760  147.1150 C   0  0  0  0  0  2  0  0  0  0  0  0
  184.8380  178.5700  145.8880 C   0  0  0  0  0  0  0  0  0  0  0  0
  186.8960  177.7680  147.0830 C   0  0  0  0  0  2  0  0  0  0  0  0
  182.0750  179.0930  138.5660 F   0  0  0  0  0  0  0  0  0  0  0  0
  184.1480  179.0670  139.7390 C   0  0  0  0  0  3  0  0  0  0  0  0
  184.1230  178.6710  144.5950 C   0  0  0  0  0  0  0  0  0  0  0  0
  189.0080  177.3400  145.8160 C   0  0  0  0  0  2  0  0  0  0  0  0
  186.9200  178.0620  144.5900 C   0  0  1  0  0  3  0  0  0  0  0  0
  189.0510  177.5650  143.3450 C   0  0  0  0  0  0  0  0  0  0  0  0
  188.6940  178.0860  142.0920 C   0  0  0  0  0  3  0  0  0  0  0  0
  190.1990  176.5280  141.0070 C   0  0  0  0  0  0  0  0  0  0  0  0
  189.9810  176.5230  143.4200 C   0  0  0  0  0  3  0  0  0  0  0  0
  188.8030  178.2470  139.3740 Cl  0  0  0  0  0  0  0  0  0  0  0  0
  189.2660  177.5710  140.9250 C   0  0  0  0  0  0  0  0  0  0  0  0
  190.7780  176.0050  139.8570 O   0  0  0  0  0  1  0  0  0  0  0  0
  190.5530  176.0060  142.2550 C   0  0  0  0  0  3  0  0  0  0  0  0
  1 21  1  6  0  0  0
  1 19  1  0  0  0  0
  2  7  1  0  0  0  0
  4  7  2  0  0  0  0
  4 12  1  0  0  0  0
  5 11  1  0  0  0  0
  5 18  2  0  0  0  0
  6 17  1  0  0  0  0
  6  9  2  0  0  0  0
  7  5  1  0  0  0  0
  8 18  1  0  0  0  0
  9  4  1  0  0  0  0
 10 15  1  1  0  0  0
 12  8  2  0  0  0  0
 14 10  1  0  0  0  0
 14  3  2  0  0  0  0
 15 13  1  0  0  0  0
 16  6  1  0  0  0  0
 17  2  2  0  0  0  0
 18 14  1  0  0  0  0
 19 13  1  0  0  0  0
 20 11  1  6  0  0  0
 20  1  1  0  0  0  0
 20 10  1  0  0  0  0
 21 24  1  0  0  0  0
 22 21  2  0  0  0  0
 23 28  1  0  0  0  0
 25 26  1  0  0  0  0
 26 23  2  0  0  0  0
 26 22  1  0  0  0  0
 27 23  1  0  0  0  0
 28 24  2  0  0  0  0
M  END
>  <MODEL>
4

>  <REMARK>
 VINA RESULT:     -10.9      2.756      6.163
  Name = 
  1 active torsions:
  status: ('A' for Active; 'I' for Inactive)
    1  A    between atoms: C_1  and  C_2
                            x       y       z     vdW  Elec       q    Type
                         _______ _______ _______ _____ _____    ______ ____

>  <TORSDO>
F 1

$$$$
=
 OpenBabel11052413353D

 28 32  0  0  1  0  0  0  0  0999 V2000
  184.1830  178.2530  142.4740 C   0  0  2  0  0  3  0  0  0  0  0  0
  189.0090  176.4180  143.2180 C   0  0  0  0  0  3  0  0  0  0  0  0
  185.0850  178.6800  147.2690 O   0  0  0  0  0  0  0  0  0  0  0  0
  189.5040  177.0080  145.5240 C   0  0  0  0  0  0  0  0  0  0  0  0
  187.2500  177.3520  144.6480 C   0  0  0  0  0  0  0  0  0  0  0  0
  191.2390  176.0900  144.1060 C   0  0  0  0  0  0  0  0  0  0  0  0
  188.5790  176.9250  144.4550 C   0  0  0  0  0  0  0  0  0  0  0  0
  187.7830  177.9190  146.9560 C   0  0  0  0  0  3  0  0  0  0  0  0
  190.8260  176.5910  145.3410 C   0  0  0  0  0  3  0  0  0  0  0  0
  184.4710  178.2570  144.9860 C   0  0  1  0  0  3  0  0  0  0  0  0
  186.2330  177.2220  143.5430 C   0  0  0  0  0  2  0  0  0  0  0  0
  189.0990  177.5030  146.7640 C   0  0  0  0  0  3  0  0  0  0  0  0
  182.4110  179.2310  143.9680 C   0  0  0  0  0  2  0  0  0  0  0  0
  185.4610  178.3090  146.1220 C   0  0  0  0  0  0  0  0  0  0  0  0
  183.4310  179.3720  145.0920 C   0  0  0  0  0  2  0  0  0  0  0  0
  192.5210  175.6880  143.9330 F   0  0  0  0  0  0  0  0  0  0  0  0
  190.3330  176.0030  143.0450 C   0  0  0  0  0  3  0  0  0  0  0  0
  186.8510  177.8450  145.9110 C   0  0  0  0  0  0  0  0  0  0  0  0
  183.1040  179.3320  142.6140 C   0  0  0  0  0  2  0  0  0  0  0  0
  185.1920  178.3390  143.6310 C   0  0  1  0  0  3  0  0  0  0  0  0
  184.8510  178.3710  141.1370 C   0  0  0  0  0  0  0  0  0  0  0  0
  186.2490  178.4430  141.0270 C   0  0  0  0  0  3  0  0  0  0  0  0
  186.0580  178.5760  138.6150 C   0  0  0  0  0  0  0  0  0  0  0  0
  184.0650  178.4050  139.9810 C   0  0  0  0  0  3  0  0  0  0  0  0
  188.6010  178.6280  139.6660 Cl  0  0  0  0  0  0  0  0  0  0  0  0
  186.8520  178.5450  139.7700 C   0  0  0  0  0  0  0  0  0  0  0  0
  186.6430  178.6760  137.3580 O   0  0  0  0  0  1  0  0  0  0  0  0
  184.6660  178.5070  138.7240 C   0  0  0  0  0  3  0  0  0  0  0  0
  1 21  1  6  0  0  0
  1 19  1  0  0  0  0
  1 20  1  0  0  0  0
  2  7  1  0  0  0  0
  4 12  1  0  0  0  0
  5 18  2  0  0  0  0
  6  9  2  0  0  0  0
  7  5  1  0  0  0  0
  7  4  2  0  0  0  0
  9  4  1  0  0  0  0
 10 15  1  1  0  0  0
 10 14  1  0  0  0  0
 11  5  1  0  0  0  0
 12  8  2  0  0  0  0
 13 15  1  0  0  0  0
 14  3  2  0  0  0  0
 16  6  1  0  0  0  0
 17  2  2  0  0  0  0
 17  6  1  0  0  0  0
 18 14  1  0  0  0  0
 18  8  1  0  0  0  0
 19 13  1  0  0  0  0
 20 11  1  6  0  0  0
 20 10  1  0  0  0  0
 22 21  1  0  0  0  0
 23 28  2  0  0  0  0
 23 26  1  0  0  0  0
 24 21  2  0  0  0  0
 25 26  1  0  0  0  0
 26 22  2  0  0  0  0
 27 23  1  0  0  0  0
 28 24  1  0  0  0  0
M  END
>  <MODEL>
5

>  <REMARK>
 VINA RESULT:     -10.9      2.751      5.177
  Name = 
  1 active torsions:
  status: ('A' for Active; 'I' for Inactive)
    1  A    between atoms: C_1  and  C_2
                            x       y       z     vdW  Elec       q    Type
                         _______ _______ _______ _____ _____    ______ ____

>  <TORSDO>
F 1

$$$$
=
 OpenBabel11052413353D

 28 32  0  0  1  0  0  0  0  0999 V2000
  190.6180  177.5460  144.5360 C   0  0  2  0  0  3  0  0  0  0  0  0
  185.8310  178.8620  142.9350 C   0  0  0  0  0  3  0  0  0  0  0  0
  187.7640  177.4310  148.5140 O   0  0  0  0  0  0  0  0  0  0  0  0
  184.4300  178.4190  144.8710 C   0  0  0  0  0  0  0  0  0  0  0  0
  186.8590  178.2670  145.0800 C   0  0  0  0  0  0  0  0  0  0  0  0
  183.4200  179.0030  142.7490 C   0  0  0  0  0  0  0  0  0  0  0  0
  185.7180  178.5170  144.2910 C   0  0  0  0  0  0  0  0  0  0  0  0
  185.4220  177.8420  146.9990 C   0  0  0  0  0  3  0  0  0  0  0  0
  183.2920  178.6620  144.0970 C   0  0  0  0  0  3  0  0  0  0  0  0
  189.2740  177.7250  146.6700 C   0  0  1  0  0  3  0  0  0  0  0  0
  188.2420  178.4190  144.5000 C   0  0  0  0  0  2  0  0  0  0  0  0
  184.2920  178.0840  146.2190 C   0  0  0  0  0  3  0  0  0  0  0  0
  191.6330  176.9130  146.7500 C   0  0  0  0  0  2  0  0  0  0  0  0
  187.8970  177.6550  147.2800 C   0  0  0  0  0  0  0  0  0  0  0  0
  190.2400  176.7520  147.3470 C   0  0  0  0  0  2  0  0  0  0  0  0
  182.3140  179.2360  142.0020 F   0  0  0  0  0  0  0  0  0  0  0  0
  184.6870  179.1040  142.1680 C   0  0  0  0  0  3  0  0  0  0  0  0
  186.7060  177.9340  146.4450 C   0  0  0  0  0  0  0  0  0  0  0  0
  191.6010  176.6170  145.2550 C   0  0  0  0  0  2  0  0  0  0  0  0
  189.2160  177.4430  145.1610 C   0  0  1  0  0  3  0  0  0  0  0  0
  190.6030  177.2360  143.0690 C   0  0  0  0  0  0  0  0  0  0  0  0
  191.7230  177.4860  142.2620 C   0  0  0  0  0  3  0  0  0  0  0  0
  190.5360  176.6250  140.3340 C   0  0  0  0  0  0  0  0  0  0  0  0
  189.4520  176.6820  142.5000 C   0  0  0  0  0  3  0  0  0  0  0  0
  193.1100  177.5030  139.9170 Cl  0  0  0  0  0  0  0  0  0  0  0  0
  191.6920  177.1820  140.8980 C   0  0  0  0  0  0  0  0  0  0  0  0
  190.4880  176.3160  138.9800 O   0  0  0  0  0  1  0  0  0  0  0  0
  189.4180  176.3780  141.1370 C   0  0  0  0  0  3  0  0  0  0  0  0
  1 21  1  6  0  0  0
  1 20  1  0  0  0  0
  1 19  1  0  0  0  0
  2  7  1  0  0  0  0
  4 12  1  0  0  0  0
  5 18  2  0  0  0  0
  6  9  2  0  0  0  0
  7  4  2  0  0  0  0
  7  5  1  0  0  0  0
  9  4  1  0  0  0  0
 10 14  1  0  0  0  0
 10 15  1  1  0  0  0
 11  5  1  0  0  0  0
 12  8  2  0  0  0  0
 13 15  1  0  0  0  0
 14  3  2  0  0  0  0
 16  6  1  0  0  0  0
 17  6  1  0  0  0  0
 17  2  2  0  0  0  0
 18  8  1  0  0  0  0
 18 14  1  0  0  0  0
 19 13  1  0  0  0  0
 20 11  1  6  0  0  0
 20 10  1  0  0  0  0
 22 21  2  0  0  0  0
 23 26  2  0  0  0  0
 23 28  1  0  0  0  0
 24 21  1  0  0  0  0
 25 26  1  0  0  0  0
 26 22  1  0  0  0  0
 27 23  1  0  0  0  0
 28 24  2  0  0  0  0
M  END
>  <MODEL>
6

>  <REMARK>
 VINA RESULT:     -10.8      3.037      6.100
  Name = 
  1 active torsions:
  status: ('A' for Active; 'I' for Inactive)
    1  A    between atoms: C_1  and  C_2
                            x       y       z     vdW  Elec       q    Type
                         _______ _______ _______ _____ _____    ______ ____

>  <TORSDO>
F 1

$$$$
=
 OpenBabel11052413353D

 28 32  0  0  1  0  0  0  0  0999 V2000
  186.8700  178.3050  144.8840 C   0  0  2  0  0  3  0  0  0  0  0  0
  187.1070  178.2530  139.6740 C   0  0  0  0  0  3  0  0  0  0  0  0
  182.3100  179.1220  143.2990 O   0  0  0  0  0  0  0  0  0  0  0  0
  184.7750  178.2900  138.9880 C   0  0  0  0  0  0  0  0  0  0  0  0
  185.3440  178.5880  141.3450 C   0  0  0  0  0  0  0  0  0  0  0  0
  186.5200  177.9540  137.3430 C   0  0  0  0  0  0  0  0  0  0  0  0
  185.7500  178.3790  140.0110 C   0  0  0  0  0  0  0  0  0  0  0  0
  183.0210  178.6310  140.6150 C   0  0  0  0  0  3  0  0  0  0  0  0
  185.1670  178.0780  137.6630 C   0  0  0  0  0  3  0  0  0  0  0  0
  184.5520  178.9940  144.1490 C   0  0  1  0  0  3  0  0  0  0  0  0
  186.3650  178.7410  142.4430 C   0  0  0  0  0  2  0  0  0  0  0  0
  183.4210  178.4170  139.2970 C   0  0  0  0  0  3  0  0  0  0  0  0
  185.0310  178.6270  146.5700 C   0  0  0  0  0  2  0  0  0  0  0  0
  183.5300  178.9290  143.0420 C   0  0  0  0  0  0  0  0  0  0  0  0
  183.9890  178.4700  145.4690 C   0  0  0  0  0  2  0  0  0  0  0  0
  186.8960  177.7480  136.0570 F   0  0  0  0  0  0  0  0  0  0  0  0
  187.4900  178.0420  138.3460 C   0  0  0  0  0  3  0  0  0  0  0  0
  183.9690  178.7220  141.6430 C   0  0  0  0  0  0  0  0  0  0  0  0
  186.2870  177.8370  146.2220 C   0  0  0  0  0  2  0  0  0  0  0  0
  185.8170  178.2090  143.7680 C   0  0  1  0  0  3  0  0  0  0  0  0
  188.1030  177.5140  144.5620 C   0  0  0  0  0  0  0  0  0  0  0  0
  189.2070  177.5030  145.4290 C   0  0  0  0  0  3  0  0  0  0  0  0
  190.3810  176.0100  143.9260 C   0  0  0  0  0  0  0  0  0  0  0  0
  188.1480  176.7720  143.3780 C   0  0  0  0  0  3  0  0  0  0  0  0
  191.7040  176.7570  146.2210 Cl  0  0  0  0  0  0  0  0  0  0  0  0
  190.3430  176.7530  145.1140 C   0  0  0  0  0  0  0  0  0  0  0  0
  191.5040  175.2580  143.5990 O   0  0  0  0  0  1  0  0  0  0  0  0
  189.2830  176.0220  143.0610 C   0  0  0  0  0  3  0  0  0  0  0  0
  1 21  1  6  0  0  0
  1 19  1  0  0  0  0
  2  7  1  0  0  0  0
  4 12  2  0  0  0  0
  4  7  1  0  0  0  0
  5 18  1  0  0  0  0
  5 11  1  0  0  0  0
  6  9  2  0  0  0  0
  6 17  1  0  0  0  0
  7  5  2  0  0  0  0
  8 18  2  0  0  0  0
  9  4  1  0  0  0  0
 10 15  1  1  0  0  0
 12  8  1  0  0  0  0
 14  3  2  0  0  0  0
 14 10  1  0  0  0  0
 15 13  1  0  0  0  0
 16  6  1  0  0  0  0
 17  2  2  0  0  0  0
 18 14  1  0  0  0  0
 19 13  1  0  0  0  0
 20 11  1  6  0  0  0
 20 10  1  0  0  0  0
 20  1  1  0  0  0  0
 21 22  1  0  0  0  0
 23 26  1  0  0  0  0
 24 21  2  0  0  0  0
 26 22  2  0  0  0  0
 26 25  1  0  0  0  0
 27 23  1  0  0  0  0
 28 24  1  0  0  0  0
 28 23  2  0  0  0  0
M  END
>  <MODEL>
7

>  <REMARK>
 VINA RESULT:     -10.6      2.667      5.981
  Name = 
  1 active torsions:
  status: ('A' for Active; 'I' for Inactive)
    1  A    between atoms: C_1  and  C_2
                            x       y       z     vdW  Elec       q    Type
                         _______ _______ _______ _____ _____    ______ ____

>  <TORSDO>
F 1

$$$$
=
 OpenBabel11052413353D

 28 32  0  0  1  0  0  0  0  0999 V2000
  185.5590  178.7250  138.8040 C   0  0  2  0  0  3  0  0  0  0  0  0
  184.8810  178.8150  143.9750 C   0  0  0  0  0  3  0  0  0  0  0  0
  189.7990  177.2580  140.7660 O   0  0  0  0  0  0  0  0  0  0  0  0
  186.8770  177.7310  144.8400 C   0  0  0  0  0  0  0  0  0  0  0  0
  186.7250  178.2560  142.4590 C   0  0  0  0  0  0  0  0  0  0  0  0
  185.0500  178.2810  146.3320 C   0  0  0  0  0  0  0  0  0  0  0  0
  186.1560  178.2720  143.7480 C   0  0  0  0  0  0  0  0  0  0  0  0
  188.7120  177.1800  143.3660 C   0  0  0  0  0  3  0  0  0  0  0  0
  186.3190  177.7380  146.1220 C   0  0  0  0  0  3  0  0  0  0  0  0
  187.8510  178.2190  139.7420 C   0  0  1  0  0  3  0  0  0  0  0  0
  186.0000  178.8750  141.2920 C   0  0  0  0  0  2  0  0  0  0  0  0
  188.1480  177.1900  144.6410 C   0  0  0  0  0  3  0  0  0  0  0  0
  187.4650  178.1170  137.2780 C   0  0  0  0  0  2  0  0  0  0  0  0
  188.6180  177.6760  140.9200 C   0  0  0  0  0  0  0  0  0  0  0  0
  188.2050  177.4830  138.4500 C   0  0  0  0  0  2  0  0  0  0  0  0
  184.5140  178.2860  147.5750 F   0  0  0  0  0  0  0  0  0  0  0  0
  184.3310  178.8190  145.2610 C   0  0  0  0  0  3  0  0  0  0  0  0
  188.0160  177.7110  142.2730 C   0  0  0  0  0  0  0  0  0  0  0  0
  185.9590  178.0290  137.4990 C   0  0  0  0  0  2  0  0  0  0  0  0
  186.3370  178.1400  139.9940 C   0  0  1  0  0  3  0  0  0  0  0  0
  184.0750  178.6250  139.0000 C   0  0  0  0  0  0  0  0  0  0  0  0
  183.4490  177.3830  139.1880 C   0  0  0  0  0  3  0  0  0  0  0  0
  181.3010  178.4870  139.3790 C   0  0  0  0  0  0  0  0  0  0  0  0
  183.3070  179.7930  139.0010 C   0  0  0  0  0  3  0  0  0  0  0  0
  181.3140  175.7450  139.6140 Cl  0  0  0  0  0  0  0  0  0  0  0  0
  182.0660  177.3130  139.3780 C   0  0  0  0  0  0  0  0  0  0  0  0
  179.9250  178.4350  139.5670 O   0  0  0  0  0  1  0  0  0  0  0  0
  181.9240  179.7250  139.1900 C   0  0  0  0  0  3  0  0  0  0  0  0
  1 21  1  1  0  0  0
  1 20  1  0  0  0  0
  2 17  1  0  0  0  0
  3 14  2  0  0  0  0
  4  9  2  0  0  0  0
  5  7  1  0  0  0  0
  6 16  1  0  0  0  0
  7  2  2  0  0  0  0
  7  4  1  0  0  0  0
  8 12  2  0  0  0  0
  9  6  1  0  0  0  0
 10 15  1  6  0  0  0
 10 20  1  0  0  0  0
 10 14  1  0  0  0  0
 11  5  1  0  0  0  0
 12  4  1  0  0  0  0
 13 19  1  0  0  0  0
 13 15  1  0  0  0  0
 14 18  1  0  0  0  0
 17  6  2  0  0  0  0
 18  5  2  0  0  0  0
 18  8  1  0  0  0  0
 19  1  1  0  0  0  0
 20 11  1  1  0  0  0
 21 24  2  0  0  0  0
 21 22  1  0  0  0  0
 22 26  2  0  0  0  0
 23 27  1  0  0  0  0
 24 28  1  0  0  0  0
 26 23  1  0  0  0  0
 26 25  1  0  0  0  0
 28 23  2  0  0  0  0
M  END
>  <MODEL>
8

>  <REMARK>
 VINA RESULT:     -10.5      3.764      6.580
  Name = 
  1 active torsions:
  status: ('A' for Active; 'I' for Inactive)
    1  A    between atoms: C_1  and  C_2
                            x       y       z     vdW  Elec       q    Type
                         _______ _______ _______ _____ _____    ______ ____

>  <TORSDO>
F 1

$$$$
=
 OpenBabel11052413353D

 28 32  0  0  1  0  0  0  0  0999 V2000
  186.5180  178.5650  144.7910 C   0  0  2  0  0  3  0  0  0  0  0  0
  188.4430  178.4290  139.9450 C   0  0  0  0  0  3  0  0  0  0  0  0
  182.6660  178.8450  141.7800 O   0  0  0  0  0  0  0  0  0  0  0  0
  186.4700  178.1970  138.5440 C   0  0  0  0  0  0  0  0  0  0  0  0
  186.2090  178.6050  140.9380 C   0  0  0  0  0  0  0  0  0  0  0  0
  188.6800  178.0190  137.5690 C   0  0  0  0  0  0  0  0  0  0  0  0
  187.0450  178.4130  139.8200 C   0  0  0  0  0  0  0  0  0  0  0  0
  184.2570  178.3780  139.4990 C   0  0  0  0  0  3  0  0  0  0  0  0
  187.2910  178.0010  137.4290 C   0  0  0  0  0  3  0  0  0  0  0  0
  184.5110  178.9810  143.3110 C   0  0  1  0  0  3  0  0  0  0  0  0
  186.7960  178.8920  142.2960 C   0  0  0  0  0  2  0  0  0  0  0  0
  185.0830  178.1810  138.3930 C   0  0  0  0  0  3  0  0  0  0  0  0
  184.2080  178.7190  145.7750 C   0  0  0  0  0  2  0  0  0  0  0  0
  183.9160  178.7810  141.9400 C   0  0  0  0  0  0  0  0  0  0  0  0
  183.6020  178.4260  144.4070 C   0  0  0  0  0  2  0  0  0  0  0  0
  189.4710  177.8280  136.4860 F   0  0  0  0  0  0  0  0  0  0  0  0
  189.2560  178.2330  138.8240 C   0  0  0  0  0  3  0  0  0  0  0  0
  184.8050  178.5940  140.7710 C   0  0  0  0  0  0  0  0  0  0  0  0
  185.5790  178.0640  145.8930 C   0  0  0  0  0  2  0  0  0  0  0  0
  185.9010  178.3310  143.4020 C   0  0  1  0  0  3  0  0  0  0  0  0
  187.8590  177.9070  144.9260 C   0  0  0  0  0  0  0  0  0  0  0  0
  188.4680  177.2650  143.8360 C   0  0  0  0  0  3  0  0  0  0  0  0
  190.3740  176.7040  145.2220 C   0  0  0  0  0  0  0  0  0  0  0  0
  188.5140  177.9410  146.1610 C   0  0  0  0  0  3  0  0  0  0  0  0
  190.4570  175.8750  142.5990 Cl  0  0  0  0  0  0  0  0  0  0  0  0
  189.7220  176.6660  143.9820 C   0  0  0  0  0  0  0  0  0  0  0  0
  191.6220  176.1130  145.3830 O   0  0  0  0  0  1  0  0  0  0  0  0
  189.7680  177.3410  146.3090 C   0  0  0  0  0  3  0  0  0  0  0  0
  1 21  1  6  0  0  0
  1 19  1  0  0  0  0
  3 14  2  0  0  0  0
  4  7  1  0  0  0  0
  5 11  1  0  0  0  0
  6 17  1  0  0  0  0
  7  2  1  0  0  0  0
  7  5  2  0  0  0  0
  8 18  2  0  0  0  0
  9  6  2  0  0  0  0
  9  4  1  0  0  0  0
 10 20  1  0  0  0  0
 10 15  1  1  0  0  0
 12  4  2  0  0  0  0
 12  8  1  0  0  0  0
 13 19  1  0  0  0  0
 14 10  1  0  0  0  0
 15 13  1  0  0  0  0
 16  6  1  0  0  0  0
 17  2  2  0  0  0  0
 18  5  1  0  0  0  0
 18 14  1  0  0  0  0
 20 11  1  6  0  0  0
 20  1  1  0  0  0  0
 21 24  1  0  0  0  0
 22 26  1  0  0  0  0
 22 21  2  0  0  0  0
 23 27  1  0  0  0  0
 23 28  1  0  0  0  0
 24 28  2  0  0  0  0
 25 26  1  0  0  0  0
 26 23  2  0  0  0  0
M  END
>  <MODEL>
9

>  <REMARK>
 VINA RESULT:     -10.4      2.105      5.551
  Name = 
  1 active torsions:
  status: ('A' for Active; 'I' for Inactive)
    1  A    between atoms: C_1  and  C_2
                            x       y       z     vdW  Elec       q    Type
                         _______ _______ _______ _____ _____    ______ ____

>  <TORSDO>
F 1

$$$$
