=
 OpenBabel11052415333D

 37 37  0  0  1  0  0  0  0  0999 V2000
  188.4180  177.7300  141.7660 C   0  0  2  0  0  3  0  0  0  0  0  0
  187.4110  177.8630  142.9120 C   0  0  2  0  0  3  0  0  0  0  0  0
  187.0510  176.6000  143.3840 O   0  0  0  0  0  1  0  0  0  0  0  0
  186.1720  178.6500  142.4930 C   0  0  0  0  0  2  0  0  0  0  0  0
  183.9270  177.9930  141.9760 O   0  0  0  0  0  1  0  0  0  0  0  0
  184.9000  177.9690  142.9780 C   0  0  2  0  0  3  0  0  0  0  0  0
  184.3800  178.6460  144.2080 C   0  0  0  0  0  0  0  0  0  0  0  0
  183.6510  179.7520  144.0760 C   0  0  0  0  0  2  0  0  0  0  0  0
  185.7010  179.3110  146.1950 C   0  0  0  0  0  1  0  0  0  0  0  0
  184.8520  178.2240  145.5660 C   0  0  0  0  0  2  0  0  0  0  0  0
  189.6470  178.2960  142.1270 O   0  0  0  0  0  0  0  0  0  0  0  0
  190.6170  177.0250  142.7110 P   0  0  2  0  0  0  0  0  0  0  0  0
  192.2300  177.2860  142.2730 O   0  0  0  0  0  1  0  0  0  0  0  0
  190.1500  175.7390  142.0680 O   0  0  0  0  0  0  0  0  0  0  0  0
  190.4910  176.8410  144.5300 C   0  0  1  0  0  3  0  0  0  0  0  0
  192.1050  176.1200  146.4780 C   0  0  0  0  0  1  0  0  0  0  0  0
  191.5910  175.9690  145.0810 C   0  0  0  0  0  0  0  0  0  0  0  0
  192.0190  174.9330  144.3630 C   0  0  0  0  0  2  0  0  0  0  0  0
  190.4210  178.2040  145.2070 C   0  0  0  0  0  2  0  0  0  0  0  0
  189.1370  178.3360  146.0060 C   0  0  0  0  0  2  0  0  0  0  0  0
  188.6310  176.9670  146.4270 C   0  0  0  0  0  2  0  0  0  0  0  0
  188.2110  176.9810  147.8850 C   0  0  0  0  0  2  0  0  0  0  0  0
  188.6160  178.2990  148.5120 C   0  0  0  0  0  1  0  0  0  0  0  0
  187.8960  178.3840  140.4900 C   0  0  0  0  0  2  0  0  0  0  0  0
  188.9220  178.4820  139.5460 O   0  0  0  0  0  0  0  0  0  0  0  0
  188.9180  177.0340  137.5790 C   0  0  0  0  0  0  0  0  0  0  0  0
  189.0080  177.2480  138.9930 N   0  0  0  0  0  2  0  0  0  0  0  0
  188.9510  175.8560  137.1370 O   0  0  0  0  0  0  0  0  0  0  0  0
  187.2110  178.5190  136.3410 C   0  0  2  0  0  3  0  0  0  0  0  0
  188.0110  177.7060  135.3470 C   0  0  0  0  0  2  0  0  0  0  0  0
  188.6850  178.1770  136.6240 C   0  0  2  0  0  3  0  0  0  0  0  0
  186.1690  177.6190  137.0270 C   0  0  2  0  0  3  0  0  0  0  0  0
  185.3470  176.8120  136.0270 C   0  0  0  0  0  1  0  0  0  0  0  0
  185.3650  178.3120  137.9620 O   0  0  0  0  0  0  0  0  0  0  0  0
  184.1690  177.6000  138.1610 C   0  0  0  0  0  2  0  0  0  0  0  0
  182.3200  178.7040  137.6920 C   0  0  0  0  0  1  0  0  0  0  0  0
  183.2150  178.4440  138.7290 O   0  0  0  0  0  0  0  0  0  0  0  0
  1 24  1  6  0  0  0
  1 11  1  0  0  0  0
  1  2  1  0  0  0  0
  2  3  1  6  0  0  0
  4  2  1  0  0  0  0
  4  6  1  0  0  0  0
  6  5  1  6  0  0  0
  6  7  1  0  0  0  0
  7 10  1  0  0  0  0
  8  7  2  0  0  0  0
 10  9  1  0  0  0  0
 11 12  1  0  0  0  0
 12 14  2  6  0  0  0
 12 15  1  0  0  0  0
 13 12  1  0  0  0  0
 15 17  1  0  0  0  0
 15 19  1  1  0  0  0
 17 16  1  0  0  0  0
 18 17  2  0  0  0  0
 19 20  1  0  0  0  0
 20 21  1  0  0  0  0
 21 22  1  0  0  0  0
 22 23  1  0  0  0  0
 25 24  1  0  0  0  0
 26 27  1  0  0  0  0
 27 25  1  0  0  0  0
 28 26  2  0  0  0  0
 29 31  1  0  0  0  0
 29 32  1  1  0  0  0
 30 29  1  0  0  0  0
 30 31  1  0  0  0  0
 31 26  1  1  0  0  0
 32 33  1  6  0  0  0
 32 34  1  0  0  0  0
 34 35  1  0  0  0  0
 35 37  1  0  0  0  0
 36 37  1  0  0  0  0
M  END
>  <MODEL>
1

>  <REMARK>
 VINA RESULT:      -6.1      0.000      0.000
  Name = 
  21 active torsions:
  status: ('A' for Active; 'I' for Inactive)
    1  A    between atoms: C_1  and  O_17
    2  A    between atoms: C_1  and  C_26
    3  A    between atoms: C_2  and  C_19
    4  A    between atoms: C_2  and  C_35
    5  A    between atoms: C_3  and  C_32
    6  A    between atoms: P_4  and  O_10
    7  A    between atoms: P_4  and  C_13
    8  A    between atoms: C_5  and  O_17
    9  A    between atoms: C_5  and  O_23
   10  A    between atoms: C_6  and  C_31
   11  A    between atoms: C_6  and  C_35
   12  A    between atoms: C_7  and  C_14
   13  A    between atoms: C_7  and  O_27
   14  A    between atoms: O_10  and  C_14
   15  A    between atoms: C_11  and  C_36
   16  A    between atoms: C_13  and  C_16
   17  A    between atoms: C_13  and  C_20
   18  A    between atoms: C_14  and  C_31
   19  A    between atoms: C_20  and  C_25
   20  A    between atoms: C_25  and  C_32
   21  A    between atoms: O_27  and  N_33
                            x       y       z     vdW  Elec       q    Type
                         _______ _______ _______ _____ _____    ______ ____

>  <TORSDO>
F 21

$$$$
=
 OpenBabel11052415333D

 37 37  0  0  1  0  0  0  0  0999 V2000
  187.9450  178.2110  140.5010 C   0  0  2  0  0  3  0  0  0  0  0  0
  187.1420  178.6190  141.7390 C   0  0  2  0  0  3  0  0  0  0  0  0
  187.1160  177.5710  142.6620 O   0  0  0  0  0  1  0  0  0  0  0  0
  185.7220  179.0500  141.3810 C   0  0  0  0  0  2  0  0  0  0  0  0
  183.8270  177.6220  141.0470 O   0  0  0  0  0  1  0  0  0  0  0  0
  184.6910  178.1310  142.0200 C   0  0  2  0  0  3  0  0  0  0  0  0
  183.9070  178.8670  143.0610 C   0  0  0  0  0  0  0  0  0  0  0  0
  182.5820  178.9260  142.9490 C   0  0  0  0  0  2  0  0  0  0  0  0
  185.0000  178.8730  145.2850 C   0  0  0  0  0  1  0  0  0  0  0  0
  184.6040  179.7110  144.0840 C   0  0  0  0  0  2  0  0  0  0  0  0
  187.0840  177.8840  139.4450 O   0  0  0  0  0  0  0  0  0  0  0  0
  187.8790  178.3320  138.0100 P   0  0  2  0  0  0  0  0  0  0  0  0
  189.1480  179.3940  138.3640 O   0  0  0  0  0  1  0  0  0  0  0  0
  186.8890  179.0530  137.1240 O   0  0  0  0  0  0  0  0  0  0  0  0
  188.5240  176.8810  137.0940 C   0  0  1  0  0  3  0  0  0  0  0  0
  186.5850  175.1140  137.2790 C   0  0  0  0  0  1  0  0  0  0  0  0
  187.4120  176.0700  136.4790 C   0  0  0  0  0  0  0  0  0  0  0  0
  187.0480  176.3140  135.2220 C   0  0  0  0  0  2  0  0  0  0  0  0
  189.5760  177.3080  136.0790 C   0  0  0  0  0  2  0  0  0  0  0  0
  190.7310  176.3220  136.0630 C   0  0  0  0  0  2  0  0  0  0  0  0
  191.2720  176.1170  137.4670 C   0  0  0  0  0  2  0  0  0  0  0  0
  191.6280  174.6590  137.6910 C   0  0  0  0  0  2  0  0  0  0  0  0
  190.6430  173.7820  136.9480 C   0  0  0  0  0  1  0  0  0  0  0  0
  188.8730  177.0380  140.8020 C   0  0  0  0  0  2  0  0  0  0  0  0
  190.1150  177.5070  141.2360 O   0  0  0  0  0  0  0  0  0  0  0  0
  191.3600  176.6500  143.1540 C   0  0  0  0  0  0  0  0  0  0  0  0
  190.6620  176.4700  141.9170 N   0  0  0  0  0  2  0  0  0  0  0  0
  191.8910  175.6500  143.7060 O   0  0  0  0  0  0  0  0  0  0  0  0
  190.7650  178.3000  145.0450 C   0  0  2  0  0  3  0  0  0  0  0  0
  190.2760  178.8330  143.7160 C   0  0  0  0  0  2  0  0  0  0  0  0
  191.5580  178.0180  143.7550 C   0  0  2  0  0  3  0  0  0  0  0  0
  189.8370  177.1710  145.5240 C   0  0  2  0  0  3  0  0  0  0  0  0
  188.4260  177.6660  145.8260 C   0  0  0  0  0  1  0  0  0  0  0  0
  190.3870  176.4090  146.5810 O   0  0  0  0  0  0  0  0  0  0  0  0
  191.0250  177.2710  147.4890 C   0  0  0  0  0  2  0  0  0  0  0  0
  192.3490  175.5330  147.1990 C   0  0  0  0  0  1  0  0  0  0  0  0
  192.1420  176.6340  148.0290 O   0  0  0  0  0  0  0  0  0  0  0  0
  1 24  1  1  0  0  0
  1  2  1  0  0  0  0
  2  3  1  1  0  0  0
  4  2  1  0  0  0  0
  4  6  1  0  0  0  0
  6  5  1  6  0  0  0
  6  7  1  0  0  0  0
  7 10  1  0  0  0  0
  8  7  2  0  0  0  0
 10  9  1  0  0  0  0
 11  1  1  0  0  0  0
 12 14  2  6  0  0  0
 12 13  1  0  0  0  0
 12 11  1  0  0  0  0
 15 19  1  6  0  0  0
 15 12  1  0  0  0  0
 17 15  1  0  0  0  0
 17 16  1  0  0  0  0
 18 17  2  0  0  0  0
 20 19  1  0  0  0  0
 20 21  1  0  0  0  0
 21 22  1  0  0  0  0
 23 22  1  0  0  0  0
 24 25  1  0  0  0  0
 25 27  1  0  0  0  0
 26 28  2  0  0  0  0
 27 26  1  0  0  0  0
 29 32  1  6  0  0  0
 30 31  1  0  0  0  0
 30 29  1  0  0  0  0
 31 26  1  6  0  0  0
 31 29  1  0  0  0  0
 32 33  1  1  0  0  0
 32 34  1  0  0  0  0
 34 35  1  0  0  0  0
 35 37  1  0  0  0  0
 36 37  1  0  0  0  0
M  END
>  <MODEL>
2

>  <REMARK>
 VINA RESULT:      -5.9      2.315      7.724
  Name = 
  21 active torsions:
  status: ('A' for Active; 'I' for Inactive)
    1  A    between atoms: C_1  and  O_17
    2  A    between atoms: C_1  and  C_26
    3  A    between atoms: C_2  and  C_19
    4  A    between atoms: C_2  and  C_35
    5  A    between atoms: C_3  and  C_32
    6  A    between atoms: P_4  and  O_10
    7  A    between atoms: P_4  and  C_13
    8  A    between atoms: C_5  and  O_17
    9  A    between atoms: C_5  and  O_23
   10  A    between atoms: C_6  and  C_31
   11  A    between atoms: C_6  and  C_35
   12  A    between atoms: C_7  and  C_14
   13  A    between atoms: C_7  and  O_27
   14  A    between atoms: O_10  and  C_14
   15  A    between atoms: C_11  and  C_36
   16  A    between atoms: C_13  and  C_16
   17  A    between atoms: C_13  and  C_20
   18  A    between atoms: C_14  and  C_31
   19  A    between atoms: C_20  and  C_25
   20  A    between atoms: C_25  and  C_32
   21  A    between atoms: O_27  and  N_33
                            x       y       z     vdW  Elec       q    Type
                         _______ _______ _______ _____ _____    ______ ____

>  <TORSDO>
F 21

$$$$
=
 OpenBabel11052415333D

 37 37  0  0  1  0  0  0  0  0999 V2000
  190.1260  176.1830  137.9560 C   0  0  2  0  0  3  0  0  0  0  0  0
  191.3640  176.2280  137.0570 C   0  0  2  0  0  3  0  0  0  0  0  0
  190.9830  176.2620  135.7140 O   0  0  0  0  0  1  0  0  0  0  0  0
  192.3000  175.0510  137.3170 C   0  0  0  0  0  2  0  0  0  0  0  0
  194.2110  176.4420  136.9250 O   0  0  0  0  0  1  0  0  0  0  0  0
  193.6550  175.5270  137.8220 C   0  0  2  0  0  3  0  0  0  0  0  0
  194.5830  174.3670  138.0050 C   0  0  0  0  0  0  0  0  0  0  0  0
  195.5210  174.4340  138.9470 C   0  0  0  0  0  2  0  0  0  0  0  0
  195.3870  172.0670  137.5560 C   0  0  0  0  0  1  0  0  0  0  0  0
  194.6090  173.2480  137.0090 C   0  0  0  0  0  2  0  0  0  0  0  0
  190.4640  175.7130  139.2320 O   0  0  0  0  0  0  0  0  0  0  0  0
  190.5070  177.0700  140.2570 P   0  0  2  0  0  0  0  0  0  0  0  0
  189.5730  178.3170  139.5970 O   0  0  0  0  0  0  0  0  0  0  0  0
  191.9390  177.5460  140.3520 O   0  0  0  0  0  1  0  0  0  0  0  0
  189.9140  176.6790  141.9460 C   0  0  1  0  0  3  0  0  0  0  0  0
  190.9100  178.6050  143.4350 C   0  0  0  0  0  1  0  0  0  0  0  0
  190.8700  177.1730  143.0030 C   0  0  0  0  0  0  0  0  0  0  0  0
  191.5980  176.2910  143.6830 C   0  0  0  0  0  2  0  0  0  0  0  0
  188.4920  177.1880  142.1500 C   0  0  0  0  0  2  0  0  0  0  0  0
  187.8800  176.5700  143.3950 C   0  0  0  0  0  2  0  0  0  0  0  0
  186.8830  177.5260  144.0250 C   0  0  0  0  0  2  0  0  0  0  0  0
  187.1150  177.6260  145.5210 C   0  0  0  0  0  2  0  0  0  0  0  0
  188.5300  177.1900  145.8390 C   0  0  0  0  0  1  0  0  0  0  0  0
  189.0310  175.3090  137.3510 C   0  0  0  0  0  2  0  0  0  0  0  0
  187.7960  175.9560  137.4400 O   0  0  0  0  0  0  0  0  0  0  0  0
  185.6670  175.1550  136.5510 C   0  0  0  0  0  0  0  0  0  0  0  0
  186.8750  174.9720  137.2980 N   0  0  0  0  0  2  0  0  0  0  0  0
  184.8290  174.2170  136.5050 O   0  0  0  0  0  0  0  0  0  0  0  0
  184.3830  177.3870  136.7020 C   0  0  2  0  0  3  0  0  0  0  0  0
  183.8610  176.5640  135.5450 C   0  0  0  0  0  2  0  0  0  0  0  0
  185.3340  176.4760  135.9050 C   0  0  2  0  0  3  0  0  0  0  0  0
  183.8540  176.8110  138.0260 C   0  0  2  0  0  3  0  0  0  0  0  0
  182.3900  176.3930  137.9370 C   0  0  0  0  0  1  0  0  0  0  0  0
  184.1170  177.6430  139.1390 O   0  0  0  0  0  0  0  0  0  0  0  0
  184.6320  178.8700  138.6870 C   0  0  0  0  0  2  0  0  0  0  0  0
  185.3170  178.9680  140.7800 C   0  0  0  0  0  1  0  0  0  0  0  0
  184.7610  179.7460  139.7650 O   0  0  0  0  0  0  0  0  0  0  0  0
  1 24  1  6  0  0  0
  1 11  1  0  0  0  0
  2  3  1  6  0  0  0
  2  4  1  0  0  0  0
  2  1  1  0  0  0  0
  4  6  1  0  0  0  0
  6  5  1  6  0  0  0
  6  7  1  0  0  0  0
  7  8  2  0  0  0  0
 10  9  1  0  0  0  0
 10  7  1  0  0  0  0
 11 12  1  0  0  0  0
 12 13  2  6  0  0  0
 12 14  1  0  0  0  0
 12 15  1  0  0  0  0
 15 19  1  1  0  0  0
 15 17  1  0  0  0  0
 17 16  1  0  0  0  0
 17 18  2  0  0  0  0
 19 20  1  0  0  0  0
 20 21  1  0  0  0  0
 21 22  1  0  0  0  0
 22 23  1  0  0  0  0
 24 25  1  0  0  0  0
 26 27  1  0  0  0  0
 27 25  1  0  0  0  0
 28 26  2  0  0  0  0
 29 32  1  1  0  0  0
 30 31  1  0  0  0  0
 30 29  1  0  0  0  0
 31 26  1  1  0  0  0
 31 29  1  0  0  0  0
 32 33  1  6  0  0  0
 32 34  1  0  0  0  0
 35 34  1  0  0  0  0
 35 37  1  0  0  0  0
 37 36  1  0  0  0  0
M  END
>  <MODEL>
3

>  <REMARK>
 VINA RESULT:      -5.6      3.190      6.449
  Name = 
  21 active torsions:
  status: ('A' for Active; 'I' for Inactive)
    1  A    between atoms: C_1  and  O_17
    2  A    between atoms: C_1  and  C_26
    3  A    between atoms: C_2  and  C_19
    4  A    between atoms: C_2  and  C_35
    5  A    between atoms: C_3  and  C_32
    6  A    between atoms: P_4  and  O_10
    7  A    between atoms: P_4  and  C_13
    8  A    between atoms: C_5  and  O_17
    9  A    between atoms: C_5  and  O_23
   10  A    between atoms: C_6  and  C_31
   11  A    between atoms: C_6  and  C_35
   12  A    between atoms: C_7  and  C_14
   13  A    between atoms: C_7  and  O_27
   14  A    between atoms: O_10  and  C_14
   15  A    between atoms: C_11  and  C_36
   16  A    between atoms: C_13  and  C_16
   17  A    between atoms: C_13  and  C_20
   18  A    between atoms: C_14  and  C_31
   19  A    between atoms: C_20  and  C_25
   20  A    between atoms: C_25  and  C_32
   21  A    between atoms: O_27  and  N_33
                            x       y       z     vdW  Elec       q    Type
                         _______ _______ _______ _____ _____    ______ ____

>  <TORSDO>
F 21

$$$$
=
 OpenBabel11052415333D

 37 37  0  0  1  0  0  0  0  0999 V2000
  188.2450  177.9750  141.7110 C   0  0  2  0  0  3  0  0  0  0  0  0
  187.0670  178.1490  142.6730 C   0  0  2  0  0  3  0  0  0  0  0  0
  186.6930  176.9130  143.2040 O   0  0  0  0  0  1  0  0  0  0  0  0
  185.8750  178.8230  141.9980 C   0  0  0  0  0  2  0  0  0  0  0  0
  184.0000  177.8760  140.8460 O   0  0  0  0  0  1  0  0  0  0  0  0
  184.6280  177.9550  142.0900 C   0  0  2  0  0  3  0  0  0  0  0  0
  183.6780  178.5090  143.1050 C   0  0  0  0  0  0  0  0  0  0  0  0
  182.5440  179.0690  142.6880 C   0  0  0  0  0  2  0  0  0  0  0  0
  184.6460  180.0220  144.8120 C   0  0  0  0  0  1  0  0  0  0  0  0
  184.0860  178.6390  144.5400 C   0  0  0  0  0  2  0  0  0  0  0  0
  189.4060  178.5430  142.2520 O   0  0  0  0  0  0  0  0  0  0  0  0
  190.4410  177.2520  142.6490 P   0  0  2  0  0  0  0  0  0  0  0  0
  192.0530  177.7320  142.4680 O   0  0  0  0  0  1  0  0  0  0  0  0
  190.1720  176.1160  141.6890 O   0  0  0  0  0  0  0  0  0  0  0  0
  190.1630  176.6430  144.3560 C   0  0  1  0  0  3  0  0  0  0  0  0
  191.9280  176.4500  146.2960 C   0  0  0  0  0  1  0  0  0  0  0  0
  191.4170  176.0500  144.9490 C   0  0  0  0  0  0  0  0  0  0  0  0
  192.0090  175.0320  144.3290 C   0  0  0  0  0  2  0  0  0  0  0  0
  189.5570  177.7370  145.2260 C   0  0  0  0  0  2  0  0  0  0  0  0
  188.5500  177.1460  146.1980 C   0  0  0  0  0  2  0  0  0  0  0  0
  187.3870  178.1010  146.4010 C   0  0  0  0  0  2  0  0  0  0  0  0
  187.1500  178.3420  147.8800 C   0  0  0  0  0  2  0  0  0  0  0  0
  188.4180  178.0340  148.6490 C   0  0  0  0  0  1  0  0  0  0  0  0
  187.9470  178.5950  140.3490 C   0  0  0  0  0  2  0  0  0  0  0  0
  187.8340  177.5950  139.3800 O   0  0  0  0  0  0  0  0  0  0  0  0
  188.5080  178.2520  137.1270 C   0  0  0  0  0  0  0  0  0  0  0  0
  188.8040  177.8740  138.4750 N   0  0  0  0  0  2  0  0  0  0  0  0
  189.4580  178.4440  136.3230 O   0  0  0  0  0  0  0  0  0  0  0  0
  186.4920  177.0030  136.1120 C   0  0  2  0  0  3  0  0  0  0  0  0
  187.0090  178.0370  135.1360 C   0  0  0  0  0  2  0  0  0  0  0  0
  187.0880  178.3270  136.6240 C   0  0  2  0  0  3  0  0  0  0  0  0
  187.4370  175.7900  136.1290 C   0  0  2  0  0  3  0  0  0  0  0  0
  187.4520  175.0440  134.7980 C   0  0  0  0  0  1  0  0  0  0  0  0
  187.2210  174.9320  137.2330 O   0  0  0  0  0  0  0  0  0  0  0  0
  185.9360  174.3700  137.1370 C   0  0  0  0  0  2  0  0  0  0  0  0
  184.6640  172.6110  137.5210 C   0  0  0  0  0  1  0  0  0  0  0  0
  185.9000  173.1680  137.8440 O   0  0  0  0  0  0  0  0  0  0  0  0
  1 24  1  6  0  0  0
  1 11  1  0  0  0  0
  1  2  1  0  0  0  0
  2  3  1  6  0  0  0
  4  6  1  0  0  0  0
  4  2  1  0  0  0  0
  6  5  1  6  0  0  0
  6  7  1  0  0  0  0
  7 10  1  0  0  0  0
  8  7  2  0  0  0  0
 10  9  1  0  0  0  0
 11 12  1  0  0  0  0
 12 14  2  6  0  0  0
 12 15  1  0  0  0  0
 13 12  1  0  0  0  0
 15 17  1  0  0  0  0
 15 19  1  1  0  0  0
 17 16  1  0  0  0  0
 18 17  2  0  0  0  0
 19 20  1  0  0  0  0
 20 21  1  0  0  0  0
 21 22  1  0  0  0  0
 22 23  1  0  0  0  0
 25 24  1  0  0  0  0
 26 27  1  0  0  0  0
 27 25  1  0  0  0  0
 28 26  2  0  0  0  0
 29 32  1  1  0  0  0
 29 31  1  0  0  0  0
 30 29  1  0  0  0  0
 30 31  1  0  0  0  0
 31 26  1  1  0  0  0
 32 33  1  6  0  0  0
 32 34  1  0  0  0  0
 35 34  1  0  0  0  0
 35 37  1  0  0  0  0
 36 37  1  0  0  0  0
M  END
>  <MODEL>
4

>  <REMARK>
 VINA RESULT:      -5.6      1.580      2.117
  Name = 
  21 active torsions:
  status: ('A' for Active; 'I' for Inactive)
    1  A    between atoms: C_1  and  O_17
    2  A    between atoms: C_1  and  C_26
    3  A    between atoms: C_2  and  C_19
    4  A    between atoms: C_2  and  C_35
    5  A    between atoms: C_3  and  C_32
    6  A    between atoms: P_4  and  O_10
    7  A    between atoms: P_4  and  C_13
    8  A    between atoms: C_5  and  O_17
    9  A    between atoms: C_5  and  O_23
   10  A    between atoms: C_6  and  C_31
   11  A    between atoms: C_6  and  C_35
   12  A    between atoms: C_7  and  C_14
   13  A    between atoms: C_7  and  O_27
   14  A    between atoms: O_10  and  C_14
   15  A    between atoms: C_11  and  C_36
   16  A    between atoms: C_13  and  C_16
   17  A    between atoms: C_13  and  C_20
   18  A    between atoms: C_14  and  C_31
   19  A    between atoms: C_20  and  C_25
   20  A    between atoms: C_25  and  C_32
   21  A    between atoms: O_27  and  N_33
                            x       y       z     vdW  Elec       q    Type
                         _______ _______ _______ _____ _____    ______ ____

>  <TORSDO>
F 21

$$$$
=
 OpenBabel11052415333D

 37 37  0  0  1  0  0  0  0  0999 V2000
  188.8340  178.1950  141.1600 C   0  0  2  0  0  3  0  0  0  0  0  0
  189.4840  178.1550  139.7750 C   0  0  2  0  0  3  0  0  0  0  0  0
  188.9400  179.1490  138.9590 O   0  0  0  0  0  1  0  0  0  0  0  0
  189.3410  176.7860  139.1170 C   0  0  0  0  0  2  0  0  0  0  0  0
  191.7130  176.8880  139.4340 O   0  0  0  0  0  1  0  0  0  0  0  0
  190.7010  176.2030  138.7590 C   0  0  2  0  0  3  0  0  0  0  0  0
  190.9310  176.2800  137.2830 C   0  0  0  0  0  0  0  0  0  0  0  0
  192.1290  175.9560  136.7990 C   0  0  0  0  0  2  0  0  0  0  0  0
  190.1120  176.4670  134.9510 C   0  0  0  0  0  1  0  0  0  0  0  0
  189.9160  176.9210  136.3860 C   0  0  0  0  0  2  0  0  0  0  0  0
  188.6750  176.8970  141.6640 O   0  0  0  0  0  0  0  0  0  0  0  0
  189.8080  176.7200  142.9210 P   0  0  2  0  0  0  0  0  0  0  0  0
  191.0140  177.8980  142.7770 O   0  0  0  0  0  0  0  0  0  0  0  0
  190.4520  175.3590  142.7900 O   0  0  0  0  0  1  0  0  0  0  0  0
  189.0260  176.8320  144.5760 C   0  0  1  0  0  3  0  0  0  0  0  0
  189.6750  177.3620  147.0690 C   0  0  0  0  0  1  0  0  0  0  0  0
  190.0520  176.9960  145.6680 C   0  0  0  0  0  0  0  0  0  0  0  0
  191.3170  176.6600  145.4270 C   0  0  0  0  0  2  0  0  0  0  0  0
  187.9610  177.9220  144.5960 C   0  0  0  0  0  2  0  0  0  0  0  0
  186.5840  177.3150  144.7980 C   0  0  0  0  0  2  0  0  0  0  0  0
  185.7180  178.2340  145.6400 C   0  0  0  0  0  2  0  0  0  0  0  0
  184.9700  179.2150  144.7570 C   0  0  0  0  0  2  0  0  0  0  0  0
  183.4920  178.8830  144.7770 C   0  0  0  0  0  1  0  0  0  0  0  0
  187.4850  178.9080  141.1210 C   0  0  0  0  0  2  0  0  0  0  0  0
  186.5540  178.1360  140.4200 O   0  0  0  0  0  0  0  0  0  0  0  0
  184.4280  179.2510  139.9760 C   0  0  0  0  0  0  0  0  0  0  0  0
  185.8180  179.0300  139.7160 N   0  0  0  0  0  2  0  0  0  0  0  0
  183.7900  180.0560  139.2480 O   0  0  0  0  0  0  0  0  0  0  0  0
  182.8780  177.2640  140.5270 C   0  0  2  0  0  3  0  0  0  0  0  0
  182.1860  178.5700  140.8530 C   0  0  0  0  0  2  0  0  0  0  0  0
  183.6910  178.4700  141.0340 C   0  0  2  0  0  3  0  0  0  0  0  0
  182.8800  177.0460  139.0040 C   0  0  2  0  0  3  0  0  0  0  0  0
  181.4710  176.9680  138.4250 C   0  0  0  0  0  1  0  0  0  0  0  0
  183.6970  175.9650  138.5990 O   0  0  0  0  0  0  0  0  0  0  0  0
  182.9170  175.0350  137.8900 C   0  0  0  0  0  2  0  0  0  0  0  0
  182.8510  173.1230  136.7960 C   0  0  0  0  0  1  0  0  0  0  0  0
  183.7080  173.9450  137.5270 O   0  0  0  0  0  0  0  0  0  0  0  0
  1 24  1  6  0  0  0
  1 11  1  0  0  0  0
  2  3  1  6  0  0  0
  2  1  1  0  0  0  0
  4  2  1  0  0  0  0
  6  4  1  0  0  0  0
  6  5  1  1  0  0  0
  7  6  1  0  0  0  0
  8  7  2  0  0  0  0
  9 10  1  0  0  0  0
 10  7  1  0  0  0  0
 11 12  1  0  0  0  0
 12 13  2  6  0  0  0
 12 15  1  0  0  0  0
 14 12  1  0  0  0  0
 15 19  1  6  0  0  0
 15 17  1  0  0  0  0
 17 16  1  0  0  0  0
 18 17  2  0  0  0  0
 19 20  1  0  0  0  0
 20 21  1  0  0  0  0
 22 23  1  0  0  0  0
 22 21  1  0  0  0  0
 25 24  1  0  0  0  0
 27 26  1  0  0  0  0
 27 25  1  0  0  0  0
 28 26  2  0  0  0  0
 29 32  1  6  0  0  0
 29 30  1  0  0  0  0
 29 31  1  0  0  0  0
 30 31  1  0  0  0  0
 31 26  1  6  0  0  0
 32 33  1  1  0  0  0
 34 32  1  0  0  0  0
 35 34  1  0  0  0  0
 36 37  1  0  0  0  0
 37 35  1  0  0  0  0
M  END
>  <MODEL>
5

>  <REMARK>
 VINA RESULT:      -5.6      2.247      5.613
  Name = 
  21 active torsions:
  status: ('A' for Active; 'I' for Inactive)
    1  A    between atoms: C_1  and  O_17
    2  A    between atoms: C_1  and  C_26
    3  A    between atoms: C_2  and  C_19
    4  A    between atoms: C_2  and  C_35
    5  A    between atoms: C_3  and  C_32
    6  A    between atoms: P_4  and  O_10
    7  A    between atoms: P_4  and  C_13
    8  A    between atoms: C_5  and  O_17
    9  A    between atoms: C_5  and  O_23
   10  A    between atoms: C_6  and  C_31
   11  A    between atoms: C_6  and  C_35
   12  A    between atoms: C_7  and  C_14
   13  A    between atoms: C_7  and  O_27
   14  A    between atoms: O_10  and  C_14
   15  A    between atoms: C_11  and  C_36
   16  A    between atoms: C_13  and  C_16
   17  A    between atoms: C_13  and  C_20
   18  A    between atoms: C_14  and  C_31
   19  A    between atoms: C_20  and  C_25
   20  A    between atoms: C_25  and  C_32
   21  A    between atoms: O_27  and  N_33
                            x       y       z     vdW  Elec       q    Type
                         _______ _______ _______ _____ _____    ______ ____

>  <TORSDO>
F 21

$$$$
=
 OpenBabel11052415333D

 37 37  0  0  1  0  0  0  0  0999 V2000
  186.6920  178.0160  142.6510 C   0  0  2  0  0  3  0  0  0  0  0  0
  186.0830  177.7560  144.0320 C   0  0  2  0  0  3  0  0  0  0  0  0
  184.7720  178.2360  144.0780 O   0  0  0  0  0  1  0  0  0  0  0  0
  186.9180  178.3760  145.1490 C   0  0  0  0  0  2  0  0  0  0  0  0
  185.6710  178.3850  147.1950 O   0  0  0  0  0  1  0  0  0  0  0  0
  186.6500  177.6900  146.4810 C   0  0  2  0  0  3  0  0  0  0  0  0
  187.9070  177.6080  147.2890 C   0  0  0  0  0  0  0  0  0  0  0  0
  187.8310  177.7310  148.6130 C   0  0  0  0  0  2  0  0  0  0  0  0
  190.2300  176.7530  147.3870 C   0  0  0  0  0  1  0  0  0  0  0  0
  189.2460  177.6140  146.6180 C   0  0  0  0  0  2  0  0  0  0  0  0
  188.0120  178.4670  142.7760 O   0  0  0  0  0  0  0  0  0  0  0  0
  188.9920  177.3370  141.9660 P   0  0  2  0  0  0  0  0  0  0  0  0
  188.4560  177.1510  140.3710 O   0  0  0  0  0  0  0  0  0  0  0  0
  188.8620  176.0050  142.6700 O   0  0  0  0  0  1  0  0  0  0  0  0
  190.7590  177.8240  141.9720 C   0  0  1  0  0  3  0  0  0  0  0  0
  191.1820  179.3570  144.0660 C   0  0  0  0  0  1  0  0  0  0  0  0
  191.2760  178.0350  143.3730 C   0  0  0  0  0  0  0  0  0  0  0  0
  191.6920  176.9850  144.0770 C   0  0  0  0  0  2  0  0  0  0  0  0
  191.5960  176.8290  141.1760 C   0  0  0  0  0  2  0  0  0  0  0  0
  191.7810  177.3130  139.7490 C   0  0  0  0  0  2  0  0  0  0  0  0
  193.1890  177.0130  139.2660 C   0  0  0  0  0  2  0  0  0  0  0  0
  193.1500  176.1410  138.0240 C   0  0  0  0  0  2  0  0  0  0  0  0
  191.8180  176.3210  137.3260 C   0  0  0  0  0  1  0  0  0  0  0  0
  185.8670  179.0280  141.8620 C   0  0  0  0  0  2  0  0  0  0  0  0
  185.5640  178.5190  140.5960 O   0  0  0  0  0  0  0  0  0  0  0  0
  183.7030  179.6040  139.4470 C   0  0  0  0  0  0  0  0  0  0  0  0
  185.0590  179.5710  139.9070 N   0  0  0  0  0  2  0  0  0  0  0  0
  183.3140  180.5890  138.7650 O   0  0  0  0  0  0  0  0  0  0  0  0
  182.8280  177.3220  138.6240 C   0  0  2  0  0  3  0  0  0  0  0  0
  181.7200  178.3520  138.5770 C   0  0  0  0  0  2  0  0  0  0  0  0
  182.7660  178.4460  139.6750 C   0  0  2  0  0  3  0  0  0  0  0  0
  183.7970  177.5510  137.4520 C   0  0  2  0  0  3  0  0  0  0  0  0
  183.1490  177.2800  136.0980 C   0  0  0  0  0  1  0  0  0  0  0  0
  185.0310  176.8770  137.6120 O   0  0  0  0  0  0  0  0  0  0  0  0
  185.8500  177.1410  136.5010 C   0  0  0  0  0  2  0  0  0  0  0  0
  187.8300  177.9590  137.0180 C   0  0  0  0  0  1  0  0  0  0  0  0
  186.5290  178.3440  136.6990 O   0  0  0  0  0  0  0  0  0  0  0  0
  1 24  1  1  0  0  0
  1 11  1  0  0  0  0
  1  2  1  0  0  0  0
  2  3  1  6  0  0  0
  2  4  1  0  0  0  0
  4  6  1  0  0  0  0
  6  5  1  1  0  0  0
  6  7  1  0  0  0  0
  7  8  2  0  0  0  0
 10  7  1  0  0  0  0
 10  9  1  0  0  0  0
 12 13  2  6  0  0  0
 12 15  1  0  0  0  0
 12 14  1  0  0  0  0
 12 11  1  0  0  0  0
 15 19  1  1  0  0  0
 15 17  1  0  0  0  0
 17 16  1  0  0  0  0
 17 18  2  0  0  0  0
 20 19  1  0  0  0  0
 21 20  1  0  0  0  0
 22 21  1  0  0  0  0
 23 22  1  0  0  0  0
 25 24  1  0  0  0  0
 26 27  1  0  0  0  0
 27 25  1  0  0  0  0
 28 26  2  0  0  0  0
 29 32  1  6  0  0  0
 29 31  1  0  0  0  0
 30 29  1  0  0  0  0
 30 31  1  0  0  0  0
 31 26  1  6  0  0  0
 32 33  1  6  0  0  0
 32 34  1  0  0  0  0
 35 37  1  0  0  0  0
 35 34  1  0  0  0  0
 37 36  1  0  0  0  0
M  END
>  <MODEL>
6

>  <REMARK>
 VINA RESULT:      -5.6      2.308      5.113
  Name = 
  21 active torsions:
  status: ('A' for Active; 'I' for Inactive)
    1  A    between atoms: C_1  and  O_17
    2  A    between atoms: C_1  and  C_26
    3  A    between atoms: C_2  and  C_19
    4  A    between atoms: C_2  and  C_35
    5  A    between atoms: C_3  and  C_32
    6  A    between atoms: P_4  and  O_10
    7  A    between atoms: P_4  and  C_13
    8  A    between atoms: C_5  and  O_17
    9  A    between atoms: C_5  and  O_23
   10  A    between atoms: C_6  and  C_31
   11  A    between atoms: C_6  and  C_35
   12  A    between atoms: C_7  and  C_14
   13  A    between atoms: C_7  and  O_27
   14  A    between atoms: O_10  and  C_14
   15  A    between atoms: C_11  and  C_36
   16  A    between atoms: C_13  and  C_16
   17  A    between atoms: C_13  and  C_20
   18  A    between atoms: C_14  and  C_31
   19  A    between atoms: C_20  and  C_25
   20  A    between atoms: C_25  and  C_32
   21  A    between atoms: O_27  and  N_33
                            x       y       z     vdW  Elec       q    Type
                         _______ _______ _______ _____ _____    ______ ____

>  <TORSDO>
F 21

$$$$
=
 OpenBabel11052415333D

 37 37  0  0  1  0  0  0  0  0999 V2000
  189.0430  177.3790  141.1590 C   0  0  2  0  0  3  0  0  0  0  0  0
  189.6000  176.8580  142.4870 C   0  0  2  0  0  3  0  0  0  0  0  0
  190.2330  175.6290  142.2940 O   0  0  0  0  0  1  0  0  0  0  0  0
  188.5130  176.7380  143.5520 C   0  0  0  0  0  2  0  0  0  0  0  0
  189.8760  177.0360  145.5000 O   0  0  0  0  0  1  0  0  0  0  0  0
  188.8340  177.6030  144.7630 C   0  0  2  0  0  3  0  0  0  0  0  0
  187.6240  177.7580  145.6310 C   0  0  0  0  0  0  0  0  0  0  0  0
  187.7470  177.5860  146.9460 C   0  0  0  0  0  2  0  0  0  0  0  0
  185.4050  178.8420  145.8230 C   0  0  0  0  0  1  0  0  0  0  0  0
  186.2610  177.8800  145.0220 C   0  0  0  0  0  2  0  0  0  0  0  0
  190.0870  177.7590  140.3060 O   0  0  0  0  0  0  0  0  0  0  0  0
  189.6900  177.1770  138.7580 P   0  0  2  0  0  0  0  0  0  0  0  0
  189.5820  178.4680  137.6690 O   0  0  0  0  0  0  0  0  0  0  0  0
  188.3370  176.5060  138.8360 O   0  0  0  0  0  1  0  0  0  0  0  0
  190.9080  175.9510  138.1470 C   0  0  1  0  0  3  0  0  0  0  0  0
  190.3860  175.7810  135.5750 C   0  0  0  0  0  1  0  0  0  0  0  0
  190.3880  175.1940  136.9510 C   0  0  0  0  0  0  0  0  0  0  0  0
  190.0580  173.9120  137.0870 C   0  0  0  0  0  2  0  0  0  0  0  0
  192.2550  176.6130  137.8880 C   0  0  0  0  0  2  0  0  0  0  0  0
  193.3540  175.5670  137.8020 C   0  0  0  0  0  2  0  0  0  0  0  0
  194.1090  175.6980  136.4920 C   0  0  0  0  0  2  0  0  0  0  0  0
  194.0710  174.3900  135.7240 C   0  0  0  0  0  2  0  0  0  0  0  0
  193.7320  173.2600  136.6730 C   0  0  0  0  0  1  0  0  0  0  0  0
  188.0930  178.5530  141.3770 C   0  0  0  0  0  2  0  0  0  0  0  0
  186.7690  178.1370  141.2100 O   0  0  0  0  0  0  0  0  0  0  0  0
  184.7910  179.1760  140.2260 C   0  0  0  0  0  0  0  0  0  0  0  0
  186.2080  179.0710  140.4040 N   0  0  0  0  0  2  0  0  0  0  0  0
  184.3390  180.0310  139.4190 O   0  0  0  0  0  0  0  0  0  0  0  0
  183.1170  177.2310  139.9720 C   0  0  2  0  0  3  0  0  0  0  0  0
  182.4040  178.4690  140.4700 C   0  0  0  0  0  2  0  0  0  0  0  0
  183.8390  178.2230  140.9020 C   0  0  2  0  0  3  0  0  0  0  0  0
  183.4180  177.3760  138.4710 C   0  0  2  0  0  3  0  0  0  0  0  0
  182.1700  177.6930  137.6540 C   0  0  0  0  0  1  0  0  0  0  0  0
  184.1540  176.2890  137.9440 O   0  0  0  0  0  0  0  0  0  0  0  0
  185.2260  176.7820  137.1800 C   0  0  0  0  0  2  0  0  0  0  0  0
  186.4850  175.4060  136.0050 C   0  0  0  0  0  1  0  0  0  0  0  0
  185.2800  176.1050  135.9620 O   0  0  0  0  0  0  0  0  0  0  0  0
  1 24  1  1  0  0  0
  1  2  1  0  0  0  0
  2  3  1  6  0  0  0
  2  4  1  0  0  0  0
  4  6  1  0  0  0  0
  6  5  1  1  0  0  0
  6  7  1  0  0  0  0
  7  8  2  0  0  0  0
 10  7  1  0  0  0  0
 10  9  1  0  0  0  0
 11  1  1  0  0  0  0
 12 13  2  6  0  0  0
 12 14  1  0  0  0  0
 12 11  1  0  0  0  0
 15 19  1  6  0  0  0
 15 12  1  0  0  0  0
 16 17  1  0  0  0  0
 17 18  2  0  0  0  0
 17 15  1  0  0  0  0
 20 19  1  0  0  0  0
 21 20  1  0  0  0  0
 22 21  1  0  0  0  0
 22 23  1  0  0  0  0
 25 24  1  0  0  0  0
 26 27  1  0  0  0  0
 27 25  1  0  0  0  0
 28 26  2  0  0  0  0
 29 32  1  6  0  0  0
 29 30  1  0  0  0  0
 29 31  1  0  0  0  0
 30 31  1  0  0  0  0
 31 26  1  6  0  0  0
 32 33  1  6  0  0  0
 34 32  1  0  0  0  0
 35 34  1  0  0  0  0
 37 36  1  0  0  0  0
 37 35  1  0  0  0  0
M  END
>  <MODEL>
7

>  <REMARK>
 VINA RESULT:      -5.5      2.821      6.294
  Name = 
  21 active torsions:
  status: ('A' for Active; 'I' for Inactive)
    1  A    between atoms: C_1  and  O_17
    2  A    between atoms: C_1  and  C_26
    3  A    between atoms: C_2  and  C_19
    4  A    between atoms: C_2  and  C_35
    5  A    between atoms: C_3  and  C_32
    6  A    between atoms: P_4  and  O_10
    7  A    between atoms: P_4  and  C_13
    8  A    between atoms: C_5  and  O_17
    9  A    between atoms: C_5  and  O_23
   10  A    between atoms: C_6  and  C_31
   11  A    between atoms: C_6  and  C_35
   12  A    between atoms: C_7  and  C_14
   13  A    between atoms: C_7  and  O_27
   14  A    between atoms: O_10  and  C_14
   15  A    between atoms: C_11  and  C_36
   16  A    between atoms: C_13  and  C_16
   17  A    between atoms: C_13  and  C_20
   18  A    between atoms: C_14  and  C_31
   19  A    between atoms: C_20  and  C_25
   20  A    between atoms: C_25  and  C_32
   21  A    between atoms: O_27  and  N_33
                            x       y       z     vdW  Elec       q    Type
                         _______ _______ _______ _____ _____    ______ ____

>  <TORSDO>
F 21

$$$$
=
 OpenBabel11052415333D

 37 37  0  0  1  0  0  0  0  0999 V2000
  186.2780  178.2520  139.3350 C   0  0  2  0  0  3  0  0  0  0  0  0
  187.5190  178.1670  138.4430 C   0  0  2  0  0  3  0  0  0  0  0  0
  187.3990  179.0470  137.3660 O   0  0  0  0  0  1  0  0  0  0  0  0
  187.7670  176.7450  137.9450 C   0  0  0  0  0  2  0  0  0  0  0  0
  188.5440  176.2990  135.7230 O   0  0  0  0  0  1  0  0  0  0  0  0
  188.9560  176.6940  136.9980 C   0  0  2  0  0  3  0  0  0  0  0  0
  189.9950  175.7470  137.5120 C   0  0  0  0  0  0  0  0  0  0  0  0
  189.9020  174.4560  137.1990 C   0  0  0  0  0  2  0  0  0  0  0  0
  192.3640  176.3500  137.9160 C   0  0  0  0  0  1  0  0  0  0  0  0
  190.9900  176.1930  138.5390 C   0  0  0  0  0  2  0  0  0  0  0  0
  185.3290  179.1150  138.7720 O   0  0  0  0  0  0  0  0  0  0  0  0
  183.8120  178.3730  138.9780 P   0  0  2  0  0  0  0  0  0  0  0  0
  184.0040  176.6950  139.0890 O   0  0  0  0  0  1  0  0  0  0  0  0
  182.9670  178.6760  137.7610 O   0  0  0  0  0  0  0  0  0  0  0  0
  182.9340  178.9960  140.4610 C   0  0  1  0  0  3  0  0  0  0  0  0
  180.7610  180.3010  139.7600 C   0  0  0  0  0  1  0  0  0  0  0  0
  181.4430  179.0600  140.2420 C   0  0  0  0  0  0  0  0  0  0  0  0
  180.7250  177.9430  140.3330 C   0  0  0  0  0  2  0  0  0  0  0  0
  183.3170  178.1860  141.6940 C   0  0  0  0  0  2  0  0  0  0  0  0
  183.0900  179.0000  142.9560 C   0  0  0  0  0  2  0  0  0  0  0  0
  184.4060  179.2410  143.6740 C   0  0  0  0  0  2  0  0  0  0  0  0
  184.3330  178.7290  145.1010 C   0  0  0  0  0  2  0  0  0  0  0  0
  185.6770  178.9210  145.7720 C   0  0  0  0  0  1  0  0  0  0  0  0
  186.6370  178.7180  140.7430 C   0  0  0  0  0  2  0  0  0  0  0  0
  187.8210  178.1070  141.1650 O   0  0  0  0  0  0  0  0  0  0  0  0
  188.4880  176.9320  143.1990 C   0  0  0  0  0  0  0  0  0  0  0  0
  187.6080  177.7910  142.4650 N   0  0  0  0  0  2  0  0  0  0  0  0
  188.2010  176.6360  144.3880 O   0  0  0  0  0  0  0  0  0  0  0  0
  191.0490  176.6270  143.1940 C   0  0  2  0  0  3  0  0  0  0  0  0
  190.6070  177.3410  141.9350 C   0  0  0  0  0  2  0  0  0  0  0  0
  189.6900  176.2970  142.5490 C   0  0  2  0  0  3  0  0  0  0  0  0
  191.0090  177.6020  144.3830 C   0  0  2  0  0  3  0  0  0  0  0  0
  191.2950  179.0410  143.9660 C   0  0  0  0  0  1  0  0  0  0  0  0
  191.8040  177.1810  145.4740 O   0  0  0  0  0  0  0  0  0  0  0  0
  190.9660  176.7760  146.5270 C   0  0  0  0  0  2  0  0  0  0  0  0
  192.4340  175.6250  147.7010 C   0  0  0  0  0  1  0  0  0  0  0  0
  191.6810  176.7980  147.7250 O   0  0  0  0  0  0  0  0  0  0  0  0
  1 24  1  1  0  0  0
  2  3  1  6  0  0  0
  2  1  1  0  0  0  0
  4  2  1  0  0  0  0
  6  5  1  6  0  0  0
  6  7  1  0  0  0  0
  6  4  1  0  0  0  0
  7 10  1  0  0  0  0
  8  7  2  0  0  0  0
  9 10  1  0  0  0  0
 11 12  1  0  0  0  0
 11  1  1  0  0  0  0
 12 14  2  6  0  0  0
 12 13  1  0  0  0  0
 12 15  1  0  0  0  0
 15 19  1  1  0  0  0
 16 17  1  0  0  0  0
 17 18  2  0  0  0  0
 17 15  1  0  0  0  0
 19 20  1  0  0  0  0
 20 21  1  0  0  0  0
 21 22  1  0  0  0  0
 22 23  1  0  0  0  0
 24 25  1  0  0  0  0
 25 27  1  0  0  0  0
 26 28  2  0  0  0  0
 27 26  1  0  0  0  0
 29 32  1  1  0  0  0
 30 31  1  0  0  0  0
 30 29  1  0  0  0  0
 31 29  1  0  0  0  0
 31 26  1  1  0  0  0
 32 33  1  6  0  0  0
 32 34  1  0  0  0  0
 34 35  1  0  0  0  0
 35 37  1  0  0  0  0
 36 37  1  0  0  0  0
M  END
>  <MODEL>
8

>  <REMARK>
 VINA RESULT:      -5.3      2.555      8.454
  Name = 
  21 active torsions:
  status: ('A' for Active; 'I' for Inactive)
    1  A    between atoms: C_1  and  O_17
    2  A    between atoms: C_1  and  C_26
    3  A    between atoms: C_2  and  C_19
    4  A    between atoms: C_2  and  C_35
    5  A    between atoms: C_3  and  C_32
    6  A    between atoms: P_4  and  O_10
    7  A    between atoms: P_4  and  C_13
    8  A    between atoms: C_5  and  O_17
    9  A    between atoms: C_5  and  O_23
   10  A    between atoms: C_6  and  C_31
   11  A    between atoms: C_6  and  C_35
   12  A    between atoms: C_7  and  C_14
   13  A    between atoms: C_7  and  O_27
   14  A    between atoms: O_10  and  C_14
   15  A    between atoms: C_11  and  C_36
   16  A    between atoms: C_13  and  C_16
   17  A    between atoms: C_13  and  C_20
   18  A    between atoms: C_14  and  C_31
   19  A    between atoms: C_20  and  C_25
   20  A    between atoms: C_25  and  C_32
   21  A    between atoms: O_27  and  N_33
                            x       y       z     vdW  Elec       q    Type
                         _______ _______ _______ _____ _____    ______ ____

>  <TORSDO>
F 21

$$$$
=
 OpenBabel11052415333D

 37 37  0  0  1  0  0  0  0  0999 V2000
  187.8550  178.0570  138.9700 C   0  0  2  0  0  3  0  0  0  0  0  0
  189.2150  178.5450  138.4630 C   0  0  2  0  0  3  0  0  0  0  0  0
  189.0520  179.6760  137.6600 O   0  0  0  0  0  1  0  0  0  0  0  0
  189.9630  177.4530  137.7020 C   0  0  0  0  0  2  0  0  0  0  0  0
  191.3210  177.1360  139.6510 O   0  0  0  0  0  1  0  0  0  0  0  0
  190.6070  176.4600  138.6600 C   0  0  2  0  0  3  0  0  0  0  0  0
  191.5190  175.5340  137.9180 C   0  0  0  0  0  0  0  0  0  0  0  0
  192.7840  175.8990  137.7170 C   0  0  0  0  0  2  0  0  0  0  0  0
  191.9750  173.8020  136.2060 C   0  0  0  0  0  1  0  0  0  0  0  0
  190.9740  174.3270  137.2180 C   0  0  0  0  0  2  0  0  0  0  0  0
  186.8190  178.6270  138.2170 O   0  0  0  0  0  0  0  0  0  0  0  0
  186.0100  177.3420  137.4500 P   0  0  2  0  0  0  0  0  0  0  0  0
  186.9290  175.9270  137.5780 O   0  0  0  0  0  1  0  0  0  0  0  0
  185.8630  177.6820  135.9840 O   0  0  0  0  0  0  0  0  0  0  0  0
  184.3390  177.0610  138.1490 C   0  0  1  0  0  3  0  0  0  0  0  0
  183.0250  179.3310  138.3470 C   0  0  0  0  0  1  0  0  0  0  0  0
  183.8620  178.2470  138.9490 C   0  0  0  0  0  0  0  0  0  0  0  0
  184.0580  178.2630  140.2650 C   0  0  0  0  0  2  0  0  0  0  0  0
  183.3600  176.6510  137.0570 C   0  0  0  0  0  2  0  0  0  0  0  0
  182.5340  175.4580  137.5040 C   0  0  0  0  0  2  0  0  0  0  0  0
  183.0300  174.1880  136.8350 C   0  0  0  0  0  2  0  0  0  0  0  0
  184.2110  173.6150  137.5940 C   0  0  0  0  0  2  0  0  0  0  0  0
  184.5570  172.2530  137.0290 C   0  0  0  0  0  1  0  0  0  0  0  0
  187.6640  178.3820  140.4480 C   0  0  0  0  0  2  0  0  0  0  0  0
  188.4490  177.5310  141.2320 O   0  0  0  0  0  0  0  0  0  0  0  0
  189.5340  178.0300  143.3620 C   0  0  0  0  0  0  0  0  0  0  0  0
  189.1900  178.3570  142.0100 N   0  0  0  0  0  2  0  0  0  0  0  0
  190.1790  178.8670  144.0460 O   0  0  0  0  0  0  0  0  0  0  0  0
  187.6490  176.8130  144.6330 C   0  0  2  0  0  3  0  0  0  0  0  0
  188.8780  176.9270  145.5080 C   0  0  0  0  0  2  0  0  0  0  0  0
  189.0560  176.7560  144.0100 C   0  0  2  0  0  3  0  0  0  0  0  0
  186.9370  178.1740  144.5610 C   0  0  2  0  0  3  0  0  0  0  0  0
  186.3870  178.6160  145.9130 C   0  0  0  0  0  1  0  0  0  0  0  0
  185.9710  178.2420  143.5300 O   0  0  0  0  0  0  0  0  0  0  0  0
  184.8740  179.0010  143.9730 C   0  0  0  0  0  2  0  0  0  0  0  0
  182.7050  179.2070  143.6370 C   0  0  0  0  0  1  0  0  0  0  0  0
  183.7040  178.2540  143.8310 O   0  0  0  0  0  0  0  0  0  0  0  0
  1 24  1  1  0  0  0
  2  3  1  6  0  0  0
  2  1  1  0  0  0  0
  4  2  1  0  0  0  0
  4  6  1  0  0  0  0
  6  5  1  1  0  0  0
  7  6  1  0  0  0  0
  8  7  2  0  0  0  0
  9 10  1  0  0  0  0
 10  7  1  0  0  0  0
 11  1  1  0  0  0  0
 12 14  2  6  0  0  0
 12 13  1  0  0  0  0
 12 15  1  0  0  0  0
 12 11  1  0  0  0  0
 15 19  1  6  0  0  0
 15 17  1  0  0  0  0
 16 17  1  0  0  0  0
 17 18  2  0  0  0  0
 19 20  1  0  0  0  0
 21 20  1  0  0  0  0
 21 22  1  0  0  0  0
 23 22  1  0  0  0  0
 24 25  1  0  0  0  0
 25 27  1  0  0  0  0
 26 28  2  0  0  0  0
 27 26  1  0  0  0  0
 29 32  1  6  0  0  0
 29 30  1  0  0  0  0
 31 26  1  6  0  0  0
 31 29  1  0  0  0  0
 31 30  1  0  0  0  0
 32 33  1  1  0  0  0
 34 35  1  0  0  0  0
 34 32  1  0  0  0  0
 36 37  1  0  0  0  0
 37 35  1  0  0  0  0
M  END
>  <MODEL>
9

>  <REMARK>
 VINA RESULT:      -5.3      2.610      8.540
  Name = 
  21 active torsions:
  status: ('A' for Active; 'I' for Inactive)
    1  A    between atoms: C_1  and  O_17
    2  A    between atoms: C_1  and  C_26
    3  A    between atoms: C_2  and  C_19
    4  A    between atoms: C_2  and  C_35
    5  A    between atoms: C_3  and  C_32
    6  A    between atoms: P_4  and  O_10
    7  A    between atoms: P_4  and  C_13
    8  A    between atoms: C_5  and  O_17
    9  A    between atoms: C_5  and  O_23
   10  A    between atoms: C_6  and  C_31
   11  A    between atoms: C_6  and  C_35
   12  A    between atoms: C_7  and  C_14
   13  A    between atoms: C_7  and  O_27
   14  A    between atoms: O_10  and  C_14
   15  A    between atoms: C_11  and  C_36
   16  A    between atoms: C_13  and  C_16
   17  A    between atoms: C_13  and  C_20
   18  A    between atoms: C_14  and  C_31
   19  A    between atoms: C_20  and  C_25
   20  A    between atoms: C_25  and  C_32
   21  A    between atoms: O_27  and  N_33
                            x       y       z     vdW  Elec       q    Type
                         _______ _______ _______ _____ _____    ______ ____

>  <TORSDO>
F 21

$$$$
