=
 OpenBabel11052415563D

 34 38  0  0  1  0  0  0  0  0999 V2000
  187.2480  178.1340  144.3880 C   0  0  0  0  0  0  0  0  0  0  0  0
  188.7120  177.3890  147.6920 C   0  0  0  0  0  2  0  0  0  0  0  0
  186.5150  177.5200  146.9930 C   0  0  0  0  0  3  0  0  0  0  0  0
  186.4590  178.1970  142.0010 C   0  0  1  0  0  3  0  0  0  0  0  0
  187.5900  178.5530  142.9740 C   0  0  0  0  0  2  0  0  0  0  0  0
  184.8420  178.5500  143.8360 C   0  0  0  0  0  0  0  0  0  0  0  0
  185.1060  178.5920  142.5290 C   0  0  0  0  0  3  0  0  0  0  0  0
  185.5730  177.8450  146.0740 N   0  0  0  0  0  0  0  0  0  0  0  0
  185.9020  178.1800  144.8010 C   0  0  0  0  0  0  0  0  0  0  0  0
  190.1770  177.6580  147.6530 C   0  0  0  0  0  2  0  0  0  0  0  0
  190.9070  176.7590  146.7180 C   0  0  0  0  0  0  0  0  0  0  0  0
  190.6100  176.7480  145.4220 C   0  0  0  0  0  3  0  0  0  0  0  0
  187.8710  177.4990  146.6580 C   0  0  0  0  0  0  0  0  0  0  0  0
  189.4540  177.4030  144.7810 C   0  0  0  0  0  2  0  0  0  0  0  0
  188.2490  177.7210  145.3010 C   0  0  0  0  0  0  0  0  0  0  0  0
  192.0450  176.0240  147.1910 N   0  0  0  0  0  0  0  0  0  0  0  0
  192.4880  175.0580  146.5370 O   0  0  0  0  0  0  0  0  0  0  0  0
  192.6760  176.3870  148.3600 O   0  0  0  0  0  0  0  0  0  0  0  0
  183.4620  178.8700  144.3040 C   0  0  0  0  0  2  0  0  0  0  0  0
  182.5890  178.8920  143.2160 O   0  0  0  0  0  1  0  0  0  0  0  0
  186.6940  178.7350  140.7000 O   0  0  0  0  0  0  0  0  0  0  0  0
  188.0830  177.5020  137.5460 O   0  0  0  0  0  0  0  0  0  0  0  0
  189.0070  177.8870  140.1530 C   0  0  0  0  0  3  0  0  0  0  0  0
  191.6360  176.3470  137.2790 C   0  0  0  0  0  0  0  0  0  0  0  0
  190.2320  176.6930  136.9550 C   0  0  0  0  0  3  0  0  0  0  0  0
  189.4040  177.1830  137.8750 C   0  0  2  0  0  3  0  0  0  0  0  0
  191.2730  177.0700  139.6640 C   0  0  0  0  0  3  0  0  0  0  0  0
  189.8660  177.3960  139.2590 C   0  0  0  0  0  0  0  0  0  0  0  0
  192.1010  176.5240  138.5270 C   0  0  0  0  0  3  0  0  0  0  0  0
  187.6100  178.2170  139.7730 C   0  0  0  0  0  0  0  0  0  0  0  0
  187.2060  178.0170  138.5120 C   0  0  0  0  0  3  0  0  0  0  0  0
  192.4980  175.8190  136.2510 N   0  0  0  0  0  0  0  0  0  0  0  0
  191.9650  175.1060  135.0990 C   0  0  0  0  0  1  0  0  0  0  0  0
  193.9420  175.9810  136.3310 C   0  0  0  0  0  1  0  0  0  0  0  0
  1  9  2  0  0  0  0
  1 15  1  0  0  0  0
  4 21  1  6  0  0  0
  4  7  1  0  0  0  0
  4  5  1  0  0  0  0
  5  1  1  0  0  0  0
  6 19  1  0  0  0  0
  6  9  1  0  0  0  0
  7  6  2  0  0  0  0
  8  3  2  0  0  0  0
  9  8  1  0  0  0  0
 10  2  1  0  0  0  0
 11 16  1  0  0  0  0
 11 10  1  0  0  0  0
 12 11  2  0  0  0  0
 13  3  1  0  0  0  0
 13  2  1  0  0  0  0
 14 15  1  0  0  0  0
 14 12  1  0  0  0  0
 15 13  2  0  0  0  0
 16 18  2  0  0  0  0
 17 16  2  0  0  0  0
 20 19  1  0  0  0  0
 22 26  1  0  0  0  0
 22 31  1  0  0  0  0
 24 29  1  0  0  0  0
 25 24  2  0  0  0  0
 26 25  1  1  0  0  0
 26 28  1  0  0  0  0
 28 27  1  0  0  0  0
 28 23  2  0  0  0  0
 29 27  2  0  0  0  0
 30 23  1  0  0  0  0
 30 21  1  0  0  0  0
 31 30  2  0  0  0  0
 32 34  1  0  0  0  0
 32 24  1  0  0  0  0
 33 32  1  0  0  0  0
M  END
>  <MODEL>
1

>  <REMARK>
 VINA RESULT:     -10.0      0.000      0.000
  Name = 
  5 active torsions:
  status: ('A' for Active; 'I' for Inactive)
    1  A    between atoms: N_3  and  C_25
    2  A    between atoms: C_7  and  N_11
    3  A    between atoms: C_8  and  O_18
    4  A    between atoms: C_10  and  C_12
    5  A    between atoms: O_18  and  C_30
                            x       y       z     vdW  Elec       q    Type
                         _______ _______ _______ _____ _____    ______ ____

>  <TORSDO>
F 5

$$$$
=
 OpenBabel11052415563D

 34 38  0  0  1  0  0  0  0  0999 V2000
  184.3090  178.6340  141.8160 C   0  0  0  0  0  0  0  0  0  0  0  0
  185.3450  178.2640  138.2940 C   0  0  0  0  0  2  0  0  0  0  0  0
  183.3610  178.9820  139.2310 C   0  0  0  0  0  3  0  0  0  0  0  0
  183.9530  179.2550  144.2260 C   0  0  1  0  0  3  0  0  0  0  0  0
  184.7450  178.3840  143.2430 C   0  0  0  0  0  2  0  0  0  0  0  0
  182.0170  179.1290  142.6950 C   0  0  0  0  0  0  0  0  0  0  0  0
  182.4750  179.2350  143.9440 C   0  0  0  0  0  3  0  0  0  0  0  0
  182.5350  179.1500  140.2920 N   0  0  0  0  0  0  0  0  0  0  0  0
  182.9600  178.9570  141.5660 C   0  0  0  0  0  0  0  0  0  0  0  0
  186.6490  177.5440  138.2380 C   0  0  0  0  0  2  0  0  0  0  0  0
  187.7610  178.3050  138.8680 C   0  0  0  0  0  0  0  0  0  0  0  0
  187.7040  178.6420  140.1540 C   0  0  0  0  0  3  0  0  0  0  0  0
  184.6980  178.6190  139.4090 C   0  0  0  0  0  0  0  0  0  0  0  0
  186.5320  178.5240  141.0410 C   0  0  0  0  0  2  0  0  0  0  0  0
  185.2180  178.5300  140.7340 C   0  0  0  0  0  0  0  0  0  0  0  0
  188.9680  178.5340  138.1280 N   0  0  0  0  0  0  0  0  0  0  0  0
  189.0960  179.5630  137.4320 O   0  0  0  0  0  0  0  0  0  0  0  0
  190.0090  177.6350  138.1920 O   0  0  0  0  0  0  0  0  0  0  0  0
  180.5470  179.1990  142.4570 C   0  0  0  0  0  2  0  0  0  0  0  0
  180.0740  180.4660  142.8010 O   0  0  0  0  0  1  0  0  0  0  0  0
  184.2340  178.9080  145.5820 O   0  0  0  0  0  0  0  0  0  0  0  0
  186.9740  178.2290  147.9140 O   0  0  0  0  0  0  0  0  0  0  0  0
  186.5610  178.0260  145.1590 C   0  0  0  0  0  3  0  0  0  0  0  0
  190.2740  176.9040  146.7400 C   0  0  0  0  0  0  0  0  0  0  0  0
  189.1740  177.4050  147.5960 C   0  0  0  0  0  3  0  0  0  0  0  0
  187.9970  177.7590  147.0850 C   0  0  0  0  0  0  0  0  0  0  0  0
  188.8170  177.1630  144.7020 C   0  0  0  0  0  2  0  0  0  0  0  0
  187.7530  177.6610  145.6340 C   0  0  0  0  0  0  0  0  0  0  0  0
  190.0970  176.7980  145.4120 C   0  0  0  0  0  3  0  0  0  0  0  0
  185.4940  178.5220  146.0650 C   0  0  0  0  0  0  0  0  0  0  0  0
  185.7320  178.6040  147.3800 C   0  0  0  0  0  3  0  0  0  0  0  0
  191.5330  176.5320  147.3360 N   0  0  0  0  0  0  0  0  0  0  0  0
  192.3830  175.5090  146.7450 C   0  0  0  0  0  1  0  0  0  0  0  0
  192.0000  177.1700  148.5570 C   0  0  0  0  0  1  0  0  0  0  0  0
  1  5  1  0  0  0  0
  2 13  1  0  0  0  0
  3 13  2  0  0  0  0
  3  8  1  0  0  0  0
  4 21  1  1  0  0  0
  5  4  1  0  0  0  0
  6  7  2  0  0  0  0
  7  4  1  0  0  0  0
  8  9  2  0  0  0  0
  9  1  1  0  0  0  0
  9  6  1  0  0  0  0
 10  2  1  0  0  0  0
 10 11  1  0  0  0  0
 11 12  2  0  0  0  0
 12 14  1  0  0  0  0
 13 15  1  0  0  0  0
 15 14  1  0  0  0  0
 15  1  2  0  0  0  0
 16 18  2  0  0  0  0
 16 11  1  0  0  0  0
 17 16  2  0  0  0  0
 19  6  1  0  0  0  0
 19 20  1  0  0  0  0
 21 30  1  0  0  0  0
 23 28  2  0  0  0  0
 23 30  1  0  0  0  0
 24 32  1  0  0  0  0
 24 25  1  0  0  0  0
 26 25  2  0  0  0  0
 26 22  1  0  0  0  0
 27 29  1  0  0  0  0
 27 28  1  0  0  0  0
 28 26  1  0  0  0  0
 29 24  2  0  0  0  0
 30 31  2  0  0  0  0
 31 22  1  0  0  0  0
 32 34  1  0  0  0  0
 33 32  1  0  0  0  0
M  END
>  <MODEL>
2

>  <REMARK>
 VINA RESULT:      -9.7      3.258      7.864
  Name = 
  5 active torsions:
  status: ('A' for Active; 'I' for Inactive)
    1  A    between atoms: N_3  and  C_25
    2  A    between atoms: C_7  and  N_11
    3  A    between atoms: C_8  and  O_18
    4  A    between atoms: C_10  and  C_12
    5  A    between atoms: O_18  and  C_30
                            x       y       z     vdW  Elec       q    Type
                         _______ _______ _______ _____ _____    ______ ____

>  <TORSDO>
F 5

$$$$
=
 OpenBabel11052415563D

 34 38  0  0  1  0  0  0  0  0999 V2000
  188.4310  177.7040  144.5640 C   0  0  0  0  0  0  0  0  0  0  0  0
  191.6720  176.9400  142.9760 C   0  0  0  0  0  2  0  0  0  0  0  0
  190.9160  176.6100  145.1330 C   0  0  0  0  0  3  0  0  0  0  0  0
  186.0420  177.8670  145.3330 C   0  0  1  0  0  3  0  0  0  0  0  0
  187.0900  178.3670  144.3320 C   0  0  0  0  0  2  0  0  0  0  0  0
  187.8480  177.5790  146.9960 C   0  0  0  0  0  0  0  0  0  0  0  0
  186.5650  177.8470  146.7440 C   0  0  0  0  0  3  0  0  0  0  0  0
  190.0110  176.8040  146.1220 N   0  0  0  0  0  0  0  0  0  0  0  0
  188.7990  177.3650  145.8810 C   0  0  0  0  0  0  0  0  0  0  0  0
  191.7170  177.5640  141.6240 C   0  0  0  0  0  2  0  0  0  0  0  0
  190.7090  176.9970  140.6880 C   0  0  0  0  0  0  0  0  0  0  0  0
  189.4100  177.0740  140.9680 C   0  0  0  0  0  3  0  0  0  0  0  0
  190.6300  176.9660  143.8130 C   0  0  0  0  0  0  0  0  0  0  0  0
  188.8120  177.4980  142.2480 C   0  0  0  0  0  2  0  0  0  0  0  0
  189.3230  177.4410  143.4960 C   0  0  0  0  0  0  0  0  0  0  0  0
  191.1300  176.5120  139.4060 N   0  0  0  0  0  0  0  0  0  0  0  0
  192.2490  176.8270  138.9480 O   0  0  0  0  0  0  0  0  0  0  0  0
  190.3190  175.6740  138.6730 O   0  0  0  0  0  0  0  0  0  0  0  0
  188.3010  177.4880  148.4140 C   0  0  0  0  0  2  0  0  0  0  0  0
  189.0420  178.6230  148.7460 O   0  0  0  0  0  1  0  0  0  0  0  0
  184.8240  178.6040  145.2340 O   0  0  0  0  0  0  0  0  0  0  0  0
  181.8310  178.8800  143.1440 O   0  0  0  0  0  0  0  0  0  0  0  0
  184.5680  178.5210  142.7250 C   0  0  0  0  0  3  0  0  0  0  0  0
  182.0150  178.6870  139.4090 C   0  0  0  0  0  0  0  0  0  0  0  0
  181.5110  178.8130  140.7960 C   0  0  0  0  0  3  0  0  0  0  0  0
  182.3310  178.7590  141.8440 C   0  0  0  0  0  0  0  0  0  0  0  0
  184.3660  178.4350  140.2760 C   0  0  0  0  0  2  0  0  0  0  0  0
  183.7800  178.5700  141.6500 C   0  0  0  0  0  0  0  0  0  0  0  0
  183.3280  178.5140  139.1840 C   0  0  0  0  0  3  0  0  0  0  0  0
  184.0080  178.6520  144.0940 C   0  0  0  0  0  0  0  0  0  0  0  0
  182.6900  178.8230  144.2520 C   0  0  0  0  0  3  0  0  0  0  0  0
  181.0920  178.7510  138.3030 N   0  0  0  0  0  0  0  0  0  0  0  0
  179.6540  178.8260  138.5130 C   0  0  0  0  0  1  0  0  0  0  0  0
  181.5700  178.7420  136.9290 C   0  0  0  0  0  1  0  0  0  0  0  0
  1  9  1  0  0  0  0
  2 13  1  0  0  0  0
  3  8  1  0  0  0  0
  4 21  1  1  0  0  0
  4  7  1  0  0  0  0
  5  1  1  0  0  0  0
  5  4  1  0  0  0  0
  6 19  1  0  0  0  0
  7  6  2  0  0  0  0
  9  8  2  0  0  0  0
  9  6  1  0  0  0  0
 10  2  1  0  0  0  0
 11 12  2  0  0  0  0
 11 10  1  0  0  0  0
 12 14  1  0  0  0  0
 13  3  2  0  0  0  0
 14 15  1  0  0  0  0
 15 13  1  0  0  0  0
 15  1  2  0  0  0  0
 16 11  1  0  0  0  0
 17 16  2  0  0  0  0
 18 16  2  0  0  0  0
 19 20  1  0  0  0  0
 22 31  1  0  0  0  0
 23 30  1  0  0  0  0
 24 25  1  0  0  0  0
 25 26  2  0  0  0  0
 26 22  1  0  0  0  0
 27 28  1  0  0  0  0
 28 26  1  0  0  0  0
 28 23  2  0  0  0  0
 29 24  2  0  0  0  0
 29 27  1  0  0  0  0
 30 31  2  0  0  0  0
 30 21  1  0  0  0  0
 32 33  1  0  0  0  0
 32 24  1  0  0  0  0
 34 32  1  0  0  0  0
M  END
>  <MODEL>
3

>  <REMARK>
 VINA RESULT:      -9.5      3.110      7.141
  Name = 
  5 active torsions:
  status: ('A' for Active; 'I' for Inactive)
    1  A    between atoms: N_3  and  C_25
    2  A    between atoms: C_7  and  N_11
    3  A    between atoms: C_8  and  O_18
    4  A    between atoms: C_10  and  C_12
    5  A    between atoms: O_18  and  C_30
                            x       y       z     vdW  Elec       q    Type
                         _______ _______ _______ _____ _____    ______ ____

>  <TORSDO>
F 5

$$$$
=
 OpenBabel11052415563D

 34 38  0  0  1  0  0  0  0  0999 V2000
  189.4370  177.4620  142.4000 C   0  0  0  0  0  0  0  0  0  0  0  0
  190.9160  176.7490  145.7030 C   0  0  0  0  0  2  0  0  0  0  0  0
  191.8910  177.0740  143.6360 C   0  0  0  0  0  3  0  0  0  0  0  0
  188.2980  178.3910  140.3600 C   0  0  1  0  0  3  0  0  0  0  0  0
  188.1240  177.5970  141.6600 C   0  0  0  0  0  2  0  0  0  0  0  0
  190.5900  177.4850  140.1770 C   0  0  0  0  0  0  0  0  0  0  0  0
  189.4920  177.9320  139.5660 C   0  0  0  0  0  3  0  0  0  0  0  0
  191.8160  177.2070  142.2900 N   0  0  0  0  0  0  0  0  0  0  0  0
  190.6280  177.3670  141.6530 C   0  0  0  0  0  0  0  0  0  0  0  0
  189.8310  176.4000  146.6630 C   0  0  0  0  0  2  0  0  0  0  0  0
  188.8960  177.5290  146.9170 C   0  0  0  0  0  0  0  0  0  0  0  0
  188.1980  178.0650  145.9190 C   0  0  0  0  0  3  0  0  0  0  0  0
  190.7430  177.1160  144.4290 C   0  0  0  0  0  0  0  0  0  0  0  0
  188.3850  177.8040  144.4800 C   0  0  0  0  0  2  0  0  0  0  0  0
  189.4890  177.4070  143.8140 C   0  0  0  0  0  0  0  0  0  0  0  0
  188.6250  177.9310  148.2680 N   0  0  0  0  0  0  0  0  0  0  0  0
  187.5640  177.5860  148.8280 O   0  0  0  0  0  0  0  0  0  0  0  0
  189.5410  178.6800  148.9720 O   0  0  0  0  0  0  0  0  0  0  0  0
  191.7770  177.1200  139.3510 C   0  0  0  0  0  2  0  0  0  0  0  0
  191.3660  176.7630  138.0670 O   0  0  0  0  0  1  0  0  0  0  0  0
  187.1070  178.3820  139.5720 O   0  0  0  0  0  0  0  0  0  0  0  0
  183.4600  178.6720  139.6890 O   0  0  0  0  0  0  0  0  0  0  0  0
  185.5510  178.6600  141.5400 C   0  0  0  0  0  3  0  0  0  0  0  0
  181.6210  179.0740  142.9270 C   0  0  0  0  0  0  0  0  0  0  0  0
  181.9350  178.9340  141.4860 C   0  0  0  0  0  3  0  0  0  0  0  0
  183.1880  178.8020  141.0550 C   0  0  2  0  0  3  0  0  0  0  0  0
  184.0730  178.9300  143.4850 C   0  0  0  0  0  3  0  0  0  0  0  0
  184.3100  178.7930  142.0100 C   0  0  0  0  0  0  0  0  0  0  0  0
  182.6120  179.0710  143.8340 C   0  0  0  0  0  3  0  0  0  0  0  0
  185.8090  178.5230  140.0840 C   0  0  0  0  0  0  0  0  0  0  0  0
  184.7780  178.5340  139.2290 C   0  0  0  0  0  3  0  0  0  0  0  0
  180.2500  179.2140  143.3500 N   0  0  0  0  0  0  0  0  0  0  0  0
  179.6690  178.3360  144.3560 C   0  0  0  0  0  1  0  0  0  0  0  0
  179.3940  180.2440  142.7830 C   0  0  0  0  0  1  0  0  0  0  0  0
  1 15  1  0  0  0  0
  2 10  1  0  0  0  0
  3 13  1  0  0  0  0
  4 21  1  6  0  0  0
  4  5  1  0  0  0  0
  5  1  1  0  0  0  0
  6  9  1  0  0  0  0
  7  6  2  0  0  0  0
  7  4  1  0  0  0  0
  8  3  2  0  0  0  0
  9  8  1  0  0  0  0
  9  1  2  0  0  0  0
 10 11  1  0  0  0  0
 11 16  1  0  0  0  0
 12 11  2  0  0  0  0
 13  2  1  0  0  0  0
 14 12  1  0  0  0  0
 15 13  2  0  0  0  0
 15 14  1  0  0  0  0
 16 17  2  0  0  0  0
 16 18  2  0  0  0  0
 19  6  1  0  0  0  0
 20 19  1  0  0  0  0
 21 30  1  0  0  0  0
 22 26  1  0  0  0  0
 23 28  2  0  0  0  0
 24 32  1  0  0  0  0
 24 29  1  0  0  0  0
 25 24  2  0  0  0  0
 26 25  1  6  0  0  0
 26 28  1  0  0  0  0
 27 29  2  0  0  0  0
 28 27  1  0  0  0  0
 30 23  1  0  0  0  0
 31 22  1  0  0  0  0
 31 30  2  0  0  0  0
 32 33  1  0  0  0  0
 34 32  1  0  0  0  0
M  END
>  <MODEL>
4

>  <REMARK>
 VINA RESULT:      -9.5      2.665      7.359
  Name = 
  5 active torsions:
  status: ('A' for Active; 'I' for Inactive)
    1  A    between atoms: N_3  and  C_25
    2  A    between atoms: C_7  and  N_11
    3  A    between atoms: C_8  and  O_18
    4  A    between atoms: C_10  and  C_12
    5  A    between atoms: O_18  and  C_30
                            x       y       z     vdW  Elec       q    Type
                         _______ _______ _______ _____ _____    ______ ____

>  <TORSDO>
F 5

$$$$
=
 OpenBabel11052415563D

 34 38  0  0  1  0  0  0  0  0999 V2000
  184.7030  178.8280  142.8700 C   0  0  0  0  0  0  0  0  0  0  0  0
  184.8480  178.6330  146.5510 C   0  0  0  0  0  2  0  0  0  0  0  0
  183.0620  178.5450  145.0900 C   0  0  0  0  0  3  0  0  0  0  0  0
  184.8470  178.5150  140.3790 C   0  0  1  0  0  3  0  0  0  0  0  0
  185.5400  179.0650  141.6320 C   0  0  0  0  0  2  0  0  0  0  0  0
  182.6680  179.0320  141.4250 C   0  0  0  0  0  0  0  0  0  0  0  0
  183.3950  178.9050  140.3130 C   0  0  0  0  0  3  0  0  0  0  0  0
  182.5250  178.6860  143.8540 N   0  0  0  0  0  0  0  0  0  0  0  0
  183.2990  178.8580  142.7530 C   0  0  0  0  0  0  0  0  0  0  0  0
  186.2240  178.9740  147.0080 C   0  0  0  0  0  2  0  0  0  0  0  0
  187.2470  177.9950  146.5500 C   0  0  0  0  0  0  0  0  0  0  0  0
  187.4480  177.7870  145.2510 C   0  0  0  0  0  3  0  0  0  0  0  0
  184.4460  178.5510  145.2780 C   0  0  0  0  0  0  0  0  0  0  0  0
  186.6080  178.2820  144.1430 C   0  0  0  0  0  2  0  0  0  0  0  0
  185.2970  178.6020  144.1350 C   0  0  0  0  0  0  0  0  0  0  0  0
  188.1300  177.3960  147.5080 N   0  0  0  0  0  0  0  0  0  0  0  0
  189.0910  176.6950  147.1290 O   0  0  0  0  0  0  0  0  0  0  0  0
  187.9440  177.6040  148.8570 O   0  0  0  0  0  0  0  0  0  0  0  0
  181.2130  179.3370  141.3050 C   0  0  0  0  0  2  0  0  0  0  0  0
  180.7860  179.0920  139.9990 O   0  0  0  0  0  1  0  0  0  0  0  0
  185.5440  178.8790  139.1880 O   0  0  0  0  0  0  0  0  0  0  0  0
  187.7170  176.9560  136.9560 O   0  0  0  0  0  0  0  0  0  0  0  0
  187.9520  178.1720  139.4590 C   0  0  0  0  0  3  0  0  0  0  0  0
  191.2670  176.1740  137.8580 C   0  0  0  0  0  0  0  0  0  0  0  0
  189.9750  176.2550  137.1380 C   0  0  0  0  0  3  0  0  0  0  0  0
  188.9270  176.8930  137.6550 C   0  0  2  0  0  3  0  0  0  0  0  0
  190.2980  177.5040  139.7650 C   0  0  0  0  0  3  0  0  0  0  0  0
  189.0230  177.5430  138.9740 C   0  0  0  0  0  0  0  0  0  0  0  0
  191.4020  176.7510  139.0640 C   0  0  0  0  0  3  0  0  0  0  0  0
  186.6810  178.2220  138.6930 C   0  0  0  0  0  0  0  0  0  0  0  0
  186.6090  177.6260  137.4960 C   0  0  0  0  0  3  0  0  0  0  0  0
  192.3760  175.4730  137.2610 N   0  0  0  0  0  0  0  0  0  0  0  0
  193.5840  176.1710  136.8450 C   0  0  0  0  0  1  0  0  0  0  0  0
  192.3270  174.0340  137.0530 C   0  0  0  0  0  1  0  0  0  0  0  0
  1 15  1  0  0  0  0
  2 10  1  0  0  0  0
  3 13  1  0  0  0  0
  4 21  1  6  0  0  0
  4  5  1  0  0  0  0
  5  1  1  0  0  0  0
  6  9  1  0  0  0  0
  7  4  1  0  0  0  0
  7  6  2  0  0  0  0
  8  3  2  0  0  0  0
  9  1  2  0  0  0  0
  9  8  1  0  0  0  0
 11 10  1  0  0  0  0
 11 16  1  0  0  0  0
 12 11  2  0  0  0  0
 13  2  1  0  0  0  0
 14 12  1  0  0  0  0
 15 14  1  0  0  0  0
 15 13  2  0  0  0  0
 16 18  2  0  0  0  0
 17 16  2  0  0  0  0
 19  6  1  0  0  0  0
 20 19  1  0  0  0  0
 22 31  1  0  0  0  0
 22 26  1  0  0  0  0
 24 29  1  0  0  0  0
 25 24  2  0  0  0  0
 26 25  1  1  0  0  0
 26 28  1  0  0  0  0
 28 23  2  0  0  0  0
 28 27  1  0  0  0  0
 29 27  2  0  0  0  0
 30 21  1  0  0  0  0
 30 23  1  0  0  0  0
 31 30  2  0  0  0  0
 32 24  1  0  0  0  0
 33 32  1  0  0  0  0
 34 32  1  0  0  0  0
M  END
>  <MODEL>
5

>  <REMARK>
 VINA RESULT:      -9.4      2.041      2.927
  Name = 
  5 active torsions:
  status: ('A' for Active; 'I' for Inactive)
    1  A    between atoms: N_3  and  C_25
    2  A    between atoms: C_7  and  N_11
    3  A    between atoms: C_8  and  O_18
    4  A    between atoms: C_10  and  C_12
    5  A    between atoms: O_18  and  C_30
                            x       y       z     vdW  Elec       q    Type
                         _______ _______ _______ _____ _____    ______ ____

>  <TORSDO>
F 5

$$$$
=
 OpenBabel11052415563D

 34 38  0  0  1  0  0  0  0  0999 V2000
  189.6270  177.4780  143.9040 C   0  0  0  0  0  0  0  0  0  0  0  0
  191.8150  176.9940  140.9730 C   0  0  0  0  0  2  0  0  0  0  0  0
  192.0980  176.4320  143.1940 C   0  0  0  0  0  3  0  0  0  0  0  0
  187.8340  177.4740  145.6660 C   0  0  1  0  0  3  0  0  0  0  0  0
  188.3290  178.1070  144.3610 C   0  0  0  0  0  2  0  0  0  0  0  0
  190.1890  177.1000  146.3150 C   0  0  0  0  0  0  0  0  0  0  0  0
  188.9310  177.3400  146.6880 C   0  0  0  0  0  3  0  0  0  0  0  0
  191.7290  176.4950  144.4970 N   0  0  0  0  0  0  0  0  0  0  0  0
  190.5420  177.0300  144.8780 C   0  0  0  0  0  0  0  0  0  0  0  0
  191.2580  177.7450  139.8140 C   0  0  0  0  0  2  0  0  0  0  0  0
  189.9340  177.2300  139.3700 C   0  0  0  0  0  0  0  0  0  0  0  0
  188.8960  177.2310  140.2040 C   0  0  0  0  0  3  0  0  0  0  0  0
  191.2550  176.9000  142.1840 C   0  0  0  0  0  0  0  0  0  0  0  0
  188.9350  177.5070  141.6520 C   0  0  0  0  0  2  0  0  0  0  0  0
  189.9480  177.3520  142.5300 C   0  0  0  0  0  0  0  0  0  0  0  0
  189.7360  176.8860  137.9920 N   0  0  0  0  0  0  0  0  0  0  0  0
  189.6420  177.7800  137.1250 O   0  0  0  0  0  0  0  0  0  0  0  0
  189.6690  175.5670  137.6030 O   0  0  0  0  0  0  0  0  0  0  0  0
  191.2260  176.8920  147.3660 C   0  0  0  0  0  2  0  0  0  0  0  0
  191.5830  175.5440  147.4160 O   0  0  0  0  0  1  0  0  0  0  0  0
  186.7050  178.1690  146.1950 O   0  0  0  0  0  0  0  0  0  0  0  0
  183.2190  179.0680  145.5290 O   0  0  0  0  0  0  0  0  0  0  0  0
  185.4100  178.2060  144.0280 C   0  0  0  0  0  3  0  0  0  0  0  0
  181.7810  178.9470  142.0730 C   0  0  0  0  0  0  0  0  0  0  0  0
  181.9380  179.1280  143.5350 C   0  0  0  0  0  3  0  0  0  0  0  0
  183.0960  178.8910  144.1480 C   0  0  0  0  0  0  0  0  0  0  0  0
  184.1890  178.2280  141.8950 C   0  0  0  0  0  2  0  0  0  0  0  0
  184.2680  178.4340  143.3790 C   0  0  0  0  0  0  0  0  0  0  0  0
  182.8230  178.5330  141.3320 C   0  0  0  0  0  3  0  0  0  0  0  0
  185.5110  178.4040  145.4970 C   0  0  0  0  0  0  0  0  0  0  0  0
  184.4370  178.8180  146.1800 C   0  0  0  0  0  3  0  0  0  0  0  0
  180.5090  179.2160  141.4500 N   0  0  0  0  0  0  0  0  0  0  0  0
  180.1510  178.6350  140.1650 C   0  0  0  0  0  1  0  0  0  0  0  0
  179.5320  180.0840  142.0890 C   0  0  0  0  0  1  0  0  0  0  0  0
  1  5  1  0  0  0  0
  1  9  1  0  0  0  0
  2 13  1  0  0  0  0
  3  8  1  0  0  0  0
  4 21  1  1  0  0  0
  4  7  1  0  0  0  0
  5  4  1  0  0  0  0
  6  7  2  0  0  0  0
  6 19  1  0  0  0  0
  8  9  2  0  0  0  0
  9  6  1  0  0  0  0
 10  2  1  0  0  0  0
 11 10  1  0  0  0  0
 11 12  2  0  0  0  0
 12 14  1  0  0  0  0
 13 15  1  0  0  0  0
 13  3  2  0  0  0  0
 14 15  1  0  0  0  0
 15  1  2  0  0  0  0
 16 11  1  0  0  0  0
 17 16  2  0  0  0  0
 18 16  2  0  0  0  0
 19 20  1  0  0  0  0
 22 31  1  0  0  0  0
 23 30  1  0  0  0  0
 24 25  1  0  0  0  0
 25 26  2  0  0  0  0
 26 22  1  0  0  0  0
 27 28  1  0  0  0  0
 28 23  2  0  0  0  0
 28 26  1  0  0  0  0
 29 27  1  0  0  0  0
 29 24  2  0  0  0  0
 30 31  2  0  0  0  0
 30 21  1  0  0  0  0
 32 24  1  0  0  0  0
 32 34  1  0  0  0  0
 33 32  1  0  0  0  0
M  END
>  <MODEL>
6

>  <REMARK>
 VINA RESULT:      -9.4      2.518      8.344
  Name = 
  5 active torsions:
  status: ('A' for Active; 'I' for Inactive)
    1  A    between atoms: N_3  and  C_25
    2  A    between atoms: C_7  and  N_11
    3  A    between atoms: C_8  and  O_18
    4  A    between atoms: C_10  and  C_12
    5  A    between atoms: O_18  and  C_30
                            x       y       z     vdW  Elec       q    Type
                         _______ _______ _______ _____ _____    ______ ____

>  <TORSDO>
F 5

$$$$
=
 OpenBabel11052415563D

 34 38  0  0  1  0  0  0  0  0999 V2000
  185.9400  178.0120  144.3800 C   0  0  0  0  0  0  0  0  0  0  0  0
  182.3340  178.7670  144.1970 C   0  0  0  0  0  2  0  0  0  0  0  0
  183.8500  178.9870  145.9240 C   0  0  0  0  0  3  0  0  0  0  0  0
  188.4420  177.8800  144.1730 C   0  0  1  0  0  3  0  0  0  0  0  0
  187.0960  177.4080  143.6110 C   0  0  0  0  0  2  0  0  0  0  0  0
  187.4030  178.0060  146.4120 C   0  0  0  0  0  0  0  0  0  0  0  0
  188.4960  177.7960  145.6750 C   0  0  0  0  0  3  0  0  0  0  0  0
  185.0660  178.7620  146.4790 N   0  0  0  0  0  0  0  0  0  0  0  0
  186.0980  178.2570  145.7590 C   0  0  0  0  0  0  0  0  0  0  0  0
  181.7810  178.2250  142.9240 C   0  0  0  0  0  2  0  0  0  0  0  0
  182.3540  178.8820  141.7170 C   0  0  0  0  0  0  0  0  0  0  0  0
  183.6620  178.8300  141.4770 C   0  0  0  0  0  3  0  0  0  0  0  0
  183.6160  178.7230  144.5730 C   0  0  0  0  0  0  0  0  0  0  0  0
  184.7050  178.3480  142.4020 C   0  0  0  0  0  2  0  0  0  0  0  0
  184.7070  178.3110  143.7510 C   0  0  0  0  0  0  0  0  0  0  0  0
  181.4730  179.4310  140.7270 N   0  0  0  0  0  0  0  0  0  0  0  0
  180.3100  179.7670  141.0340 O   0  0  0  0  0  0  0  0  0  0  0  0
  181.9040  179.6170  139.4330 O   0  0  0  0  0  0  0  0  0  0  0  0
  187.5230  177.9940  147.8980 C   0  0  0  0  0  2  0  0  0  0  0  0
  188.8440  178.2510  148.2670 O   0  0  0  0  0  1  0  0  0  0  0  0
  189.5370  177.1900  143.5680 O   0  0  0  0  0  0  0  0  0  0  0  0
  191.0380  176.2080  140.3770 O   0  0  0  0  0  0  0  0  0  0  0  0
  188.7870  177.6410  141.2010 C   0  0  0  0  0  3  0  0  0  0  0  0
  189.4910  177.1540  137.1010 C   0  0  0  0  0  0  0  0  0  0  0  0
  190.3980  176.5910  138.1260 C   0  0  0  0  0  3  0  0  0  0  0  0
  190.1660  176.7500  139.4280 C   0  0  0  0  0  0  0  0  0  0  0  0
  188.0190  178.1030  138.9120 C   0  0  0  0  0  2  0  0  0  0  0  0
  188.9850  177.5020  139.8890 C   0  0  0  0  0  0  0  0  0  0  0  0
  188.4020  177.8470  137.4750 C   0  0  0  0  0  3  0  0  0  0  0  0
  189.7310  177.0540  142.1860 C   0  0  0  0  0  0  0  0  0  0  0  0
  190.7980  176.3740  141.7500 C   0  0  0  0  0  3  0  0  0  0  0  0
  189.7800  176.9580  135.7020 N   0  0  0  0  0  0  0  0  0  0  0  0
  188.9120  177.4890  134.6620 C   0  0  0  0  0  1  0  0  0  0  0  0
  190.9580  176.2160  135.2790 C   0  0  0  0  0  1  0  0  0  0  0  0
  1  9  1  0  0  0  0
  2 13  1  0  0  0  0
  3  8  1  0  0  0  0
  4 21  1  6  0  0  0
  4  7  1  0  0  0  0
  5  4  1  0  0  0  0
  5  1  1  0  0  0  0
  6 19  1  0  0  0  0
  7  6  2  0  0  0  0
  9  6  1  0  0  0  0
  9  8  2  0  0  0  0
 10  2  1  0  0  0  0
 11 10  1  0  0  0  0
 12 11  2  0  0  0  0
 12 14  1  0  0  0  0
 13  3  2  0  0  0  0
 14 15  1  0  0  0  0
 15  1  2  0  0  0  0
 15 13  1  0  0  0  0
 16 17  2  0  0  0  0
 16 11  1  0  0  0  0
 18 16  2  0  0  0  0
 19 20  1  0  0  0  0
 22 31  1  0  0  0  0
 23 30  1  0  0  0  0
 24 29  2  0  0  0  0
 24 25  1  0  0  0  0
 25 26  2  0  0  0  0
 26 28  1  0  0  0  0
 26 22  1  0  0  0  0
 27 28  1  0  0  0  0
 28 23  2  0  0  0  0
 29 27  1  0  0  0  0
 30 21  1  0  0  0  0
 31 30  2  0  0  0  0
 32 24  1  0  0  0  0
 33 32  1  0  0  0  0
 34 32  1  0  0  0  0
M  END
>  <MODEL>
7

>  <REMARK>
 VINA RESULT:      -9.3      2.491      6.100
  Name = 
  5 active torsions:
  status: ('A' for Active; 'I' for Inactive)
    1  A    between atoms: N_3  and  C_25
    2  A    between atoms: C_7  and  N_11
    3  A    between atoms: C_8  and  O_18
    4  A    between atoms: C_10  and  C_12
    5  A    between atoms: O_18  and  C_30
                            x       y       z     vdW  Elec       q    Type
                         _______ _______ _______ _____ _____    ______ ____

>  <TORSDO>
F 5

$$$$
=
 OpenBabel11052415563D

 34 38  0  0  1  0  0  0  0  0999 V2000
  188.8000  177.4450  145.4380 C   0  0  0  0  0  0  0  0  0  0  0  0
  185.4830  178.0520  146.9350 C   0  0  0  0  0  2  0  0  0  0  0  0
  187.5940  178.0160  147.8700 C   0  0  0  0  0  3  0  0  0  0  0  0
  190.9750  177.4710  144.1760 C   0  0  1  0  0  3  0  0  0  0  0  0
  189.5000  177.0500  144.1550 C   0  0  0  0  0  2  0  0  0  0  0  0
  190.9820  177.1270  146.6240 C   0  0  0  0  0  0  0  0  0  0  0  0
  191.6530  177.1100  145.4710 C   0  0  0  0  0  3  0  0  0  0  0  0
  188.9200  177.7480  147.8100 N   0  0  0  0  0  0  0  0  0  0  0  0
  189.5330  177.4350  146.6410 C   0  0  0  0  0  0  0  0  0  0  0  0
  184.4260  177.7330  145.9350 C   0  0  0  0  0  2  0  0  0  0  0  0
  184.4610  178.6300  144.7480 C   0  0  0  0  0  0  0  0  0  0  0  0
  185.5420  178.6850  143.9750 C   0  0  0  0  0  3  0  0  0  0  0  0
  186.8020  177.9990  146.7200 C   0  0  0  0  0  0  0  0  0  0  0  0
  186.8590  178.0870  144.2660 C   0  0  0  0  0  2  0  0  0  0  0  0
  187.4290  177.7990  145.4550 C   0  0  0  0  0  0  0  0  0  0  0  0
  183.2650  179.3130  144.3440 N   0  0  0  0  0  0  0  0  0  0  0  0
  183.3140  180.5030  143.9680 O   0  0  0  0  0  0  0  0  0  0  0  0
  182.0530  178.6600  144.3420 O   0  0  0  0  0  0  0  0  0  0  0  0
  191.7170  176.8440  147.8900 C   0  0  0  0  0  2  0  0  0  0  0  0
  192.6800  175.8600  147.6670 O   0  0  0  0  0  1  0  0  0  0  0  0
  191.6860  176.9570  143.0490 O   0  0  0  0  0  0  0  0  0  0  0  0
  191.8270  177.1140  139.3950 O   0  0  0  0  0  0  0  0  0  0  0  0
  189.8510  177.3290  141.3560 C   0  0  0  0  0  3  0  0  0  0  0  0
  188.7580  177.6980  137.3300 C   0  0  0  0  0  0  0  0  0  0  0  0
  190.1590  177.4570  137.7450 C   0  0  0  0  0  3  0  0  0  0  0  0
  190.4970  177.3410  139.0270 C   0  0  2  0  0  3  0  0  0  0  0  0
  188.0330  177.6930  139.7420 C   0  0  0  0  0  3  0  0  0  0  0  0
  189.4740  177.4510  140.0830 C   0  0  0  0  0  0  0  0  0  0  0  0
  187.7910  177.8050  138.2570 C   0  0  0  0  0  3  0  0  0  0  0  0
  191.2720  177.0890  141.7150 C   0  0  0  0  0  0  0  0  0  0  0  0
  192.1890  176.9920  140.7450 C   0  0  0  0  0  3  0  0  0  0  0  0
  188.4360  177.8180  135.9300 N   0  0  0  0  0  0  0  0  0  0  0  0
  187.1210  178.2530  135.4840 C   0  0  0  0  0  1  0  0  0  0  0  0
  189.4220  177.5050  134.9060 C   0  0  0  0  0  1  0  0  0  0  0  0
  1 15  2  0  0  0  0
  1  9  1  0  0  0  0
  4 21  1  6  0  0  0
  4  7  1  0  0  0  0
  5  4  1  0  0  0  0
  5  1  1  0  0  0  0
  6  9  1  0  0  0  0
  6 19  1  0  0  0  0
  7  6  2  0  0  0  0
  8  3  1  0  0  0  0
  9  8  2  0  0  0  0
 10  2  1  0  0  0  0
 11 10  1  0  0  0  0
 12 14  1  0  0  0  0
 12 11  2  0  0  0  0
 13  2  1  0  0  0  0
 13  3  2  0  0  0  0
 14 15  1  0  0  0  0
 15 13  1  0  0  0  0
 16 11  1  0  0  0  0
 17 16  2  0  0  0  0
 18 16  2  0  0  0  0
 20 19  1  0  0  0  0
 22 31  1  0  0  0  0
 23 30  1  0  0  0  0
 24 25  2  0  0  0  0
 24 29  1  0  0  0  0
 26 25  1  1  0  0  0
 26 22  1  0  0  0  0
 26 28  1  0  0  0  0
 27 28  1  0  0  0  0
 28 23  2  0  0  0  0
 29 27  2  0  0  0  0
 30 21  1  0  0  0  0
 31 30  2  0  0  0  0
 32 24  1  0  0  0  0
 33 32  1  0  0  0  0
 34 32  1  0  0  0  0
M  END
>  <MODEL>
8

>  <REMARK>
 VINA RESULT:      -9.2      2.127      5.697
  Name = 
  5 active torsions:
  status: ('A' for Active; 'I' for Inactive)
    1  A    between atoms: N_3  and  C_25
    2  A    between atoms: C_7  and  N_11
    3  A    between atoms: C_8  and  O_18
    4  A    between atoms: C_10  and  C_12
    5  A    between atoms: O_18  and  C_30
                            x       y       z     vdW  Elec       q    Type
                         _______ _______ _______ _____ _____    ______ ____

>  <TORSDO>
F 5

$$$$
=
 OpenBabel11052415563D

 34 38  0  0  1  0  0  0  0  0999 V2000
  183.0360  178.4390  141.2110 C   0  0  0  0  0  0  0  0  0  0  0  0
  183.7670  177.8720  137.6400 C   0  0  0  0  0  2  0  0  0  0  0  0
  181.8200  178.4860  138.7180 C   0  0  0  0  0  3  0  0  0  0  0  0
  182.8510  179.2230  143.5930 C   0  0  1  0  0  3  0  0  0  0  0  0
  183.6260  178.3480  142.6020 C   0  0  0  0  0  2  0  0  0  0  0  0
  180.8000  178.8000  142.2800 C   0  0  0  0  0  0  0  0  0  0  0  0
  181.3610  179.0490  143.4640 C   0  0  0  0  0  3  0  0  0  0  0  0
  181.0850  178.6670  139.8420 N   0  0  0  0  0  0  0  0  0  0  0  0
  181.6450  178.6190  141.0770 C   0  0  0  0  0  0  0  0  0  0  0  0
  185.1220  177.2690  137.5050 C   0  0  0  0  0  2  0  0  0  0  0  0
  186.2100  178.1760  137.9610 C   0  0  0  0  0  0  0  0  0  0  0  0
  186.2430  178.6120  139.2180 C   0  0  0  0  0  3  0  0  0  0  0  0
  183.1960  178.2590  138.7850 C   0  0  0  0  0  0  0  0  0  0  0  0
  185.1760  178.4630  140.2250 C   0  0  0  0  0  2  0  0  0  0  0  0
  183.8440  178.3270  140.0540 C   0  0  0  0  0  0  0  0  0  0  0  0
  187.3140  178.4490  137.0860 N   0  0  0  0  0  0  0  0  0  0  0  0
  188.2600  179.1680  137.4700 O   0  0  0  0  0  0  0  0  0  0  0  0
  187.3570  177.9040  135.8230 O   0  0  0  0  0  0  0  0  0  0  0  0
  179.3140  178.7180  142.1880 C   0  0  0  0  0  2  0  0  0  0  0  0
  178.9310  177.4130  141.8770 O   0  0  0  0  0  1  0  0  0  0  0  0
  183.2900  179.0170  144.9360 O   0  0  0  0  0  0  0  0  0  0  0  0
  186.2010  178.2540  147.0190 O   0  0  0  0  0  0  0  0  0  0  0  0
  185.6020  178.2360  144.2920 C   0  0  0  0  0  3  0  0  0  0  0  0
  189.4430  177.1130  145.5310 C   0  0  0  0  0  0  0  0  0  0  0  0
  188.3940  177.5190  146.4940 C   0  0  0  0  0  3  0  0  0  0  0  0
  187.1750  177.8740  146.0910 C   0  0  0  0  0  0  0  0  0  0  0  0
  187.8410  177.4750  143.6210 C   0  0  0  0  0  2  0  0  0  0  0  0
  186.8330  177.8730  144.6570 C   0  0  0  0  0  0  0  0  0  0  0  0
  189.1770  177.0980  144.2140 C   0  0  0  0  0  3  0  0  0  0  0  0
  184.5890  178.6340  145.3020 C   0  0  0  0  0  0  0  0  0  0  0  0
  184.9160  178.6290  146.6000 C   0  0  0  0  0  3  0  0  0  0  0  0
  190.7490  176.7370  146.0110 N   0  0  0  0  0  0  0  0  0  0  0  0
  191.0690  176.7370  147.4310 C   0  0  0  0  0  1  0  0  0  0  0  0
  191.8000  176.3420  145.0860 C   0  0  0  0  0  1  0  0  0  0  0  0
  1  5  1  0  0  0  0
  2 13  1  0  0  0  0
  3 13  2  0  0  0  0
  3  8  1  0  0  0  0
  4 21  1  1  0  0  0
  5  4  1  0  0  0  0
  6  7  2  0  0  0  0
  7  4  1  0  0  0  0
  8  9  2  0  0  0  0
  9  1  1  0  0  0  0
  9  6  1  0  0  0  0
 10  2  1  0  0  0  0
 10 11  1  0  0  0  0
 11 12  2  0  0  0  0
 12 14  1  0  0  0  0
 13 15  1  0  0  0  0
 15 14  1  0  0  0  0
 15  1  2  0  0  0  0
 16 17  2  0  0  0  0
 16 11  1  0  0  0  0
 18 16  2  0  0  0  0
 19  6  1  0  0  0  0
 20 19  1  0  0  0  0
 21 30  1  0  0  0  0
 23 28  2  0  0  0  0
 23 30  1  0  0  0  0
 24 32  1  0  0  0  0
 24 25  1  0  0  0  0
 26 25  2  0  0  0  0
 26 22  1  0  0  0  0
 27 29  1  0  0  0  0
 27 28  1  0  0  0  0
 28 26  1  0  0  0  0
 29 24  2  0  0  0  0
 30 31  2  0  0  0  0
 31 22  1  0  0  0  0
 32 33  1  0  0  0  0
 34 32  1  0  0  0  0
M  END
>  <MODEL>
9

>  <REMARK>
 VINA RESULT:      -9.1      3.737      8.203
  Name = 
  5 active torsions:
  status: ('A' for Active; 'I' for Inactive)
    1  A    between atoms: N_3  and  C_25
    2  A    between atoms: C_7  and  N_11
    3  A    between atoms: C_8  and  O_18
    4  A    between atoms: C_10  and  C_12
    5  A    between atoms: O_18  and  C_30
                            x       y       z     vdW  Elec       q    Type
                         _______ _______ _______ _____ _____    ______ ____

>  <TORSDO>
F 5

$$$$
