=
 OpenBabel11052416263D

 43 48  0  0  1  0  0  0  0  0999 V2000
  181.5930  179.0720  142.3360 C   0  0  0  0  0  0  0  0  0  0  0  0
  185.7900  178.0920  144.9890 C   0  0  0  0  0  0  0  0  0  0  0  0
  187.7570  177.5550  143.0860 C   0  0  0  0  0  0  0  0  0  0  0  0
  183.1930  178.7240  144.1210 C   0  0  0  0  0  0  0  0  0  0  0  0
  182.5820  178.7930  141.3890 C   0  0  0  0  0  3  0  0  0  0  0  0
  180.3360  179.3750  141.9310 F   0  0  0  0  0  0  0  0  0  0  0  0
  184.2000  178.4410  143.1670 C   0  0  0  0  0  0  0  0  0  0  0  0
  181.8970  179.0370  143.7000 C   0  0  0  0  0  3  0  0  0  0  0  0
  183.8800  178.4790  141.8020 C   0  0  0  0  0  3  0  0  0  0  0  0
  186.4880  177.8590  142.7030 N   0  0  0  0  0  0  0  0  0  0  0  0
  185.5010  178.1270  143.6030 C   0  0  0  0  0  0  0  0  0  0  0  0
  184.7780  178.3810  145.9160 C   0  0  0  0  0  3  0  0  0  0  0  0
  187.0930  177.7700  145.4070 C   0  0  0  0  0  0  0  0  0  0  0  0
  188.0750  177.5060  144.4490 C   0  0  0  0  0  3  0  0  0  0  0  0
  183.4890  178.6940  145.4840 C   0  0  0  0  0  3  0  0  0  0  0  0
  188.7640  177.2810  142.0520 C   0  0  0  0  0  3  0  0  0  0  0  0
  188.6850  177.7820  140.8200 C   0  0  0  0  0  3  0  0  0  0  0  0
  189.9960  178.6480  139.0710 F   0  0  0  0  0  0  0  0  0  0  0  0
  189.7210  177.4910  139.7820 C   0  0  1  0  0  0  0  0  0  0  0  0
  190.9920  176.9900  140.4510 C   0  0  0  0  0  1  0  0  0  0  0  0
  189.1670  176.4170  138.8470 C   0  0  0  0  0  2  0  0  0  0  0  0
  188.7750  176.9630  137.4780 C   0  0  2  0  0  3  0  0  0  0  0  0
  186.1580  177.2160  135.9880 C   0  0  0  0  0  2  0  0  0  0  0  0
  186.6500  175.8810  136.5770 C   0  0  2  0  0  3  0  0  0  0  0  0
  187.8280  178.1610  137.6380 C   0  0  0  0  0  2  0  0  0  0  0  0
  188.1860  175.8290  136.6250 C   0  0  1  0  0  3  0  0  0  0  0  0
  188.7140  175.8900  135.3450 F   0  0  0  0  0  0  0  0  0  0  0  0
  187.0480  178.4120  136.3530 C   0  0  0  0  0  2  0  0  0  0  0  0
  186.0540  174.6800  135.8280 C   0  0  0  0  0  3  0  0  0  0  0  0
  186.1860  172.9190  137.6150 C   0  0  0  0  0  2  0  0  0  0  0  0
  184.2260  174.0150  137.4190 C   0  0  0  0  0  2  0  0  0  0  0  0
  184.7940  172.7350  137.5500 O   0  0  0  0  0  0  0  0  0  0  0  0
  184.5350  174.5840  136.0320 C   0  0  0  0  0  2  0  0  0  0  0  0
  186.7190  173.3610  136.2500 C   0  0  0  0  0  2  0  0  0  0  0  0
  187.4580  177.6930  146.8600 C   0  0  0  0  0  2  0  0  0  0  0  0
  188.9400  177.9790  147.0800 C   0  0  1  0  0  3  0  0  0  0  0  0
  189.1470  178.6390  148.4300 C   0  0  0  0  0  1  0  0  0  0  0  0
  189.8000  176.7230  146.9530 C   0  0  0  0  0  2  0  0  0  0  0  0
  191.2580  174.6840  147.8060 O   0  0  0  0  0  1  0  0  0  0  0  0
  193.1660  176.0860  148.1580 O   0  0  0  0  0  1  0  0  0  0  0  0
  191.2160  177.0310  147.1320 N   0  0  0  0  0  0  0  0  0  0  0  0
  191.9980  175.8180  147.4480 C   0  0  0  0  0  0  0  0  0  0  0  0
  191.9320  176.2750  146.0760 C   0  0  0  0  0  2  0  0  0  0  0  0
  1  8  1  0  0  0  0
  2 13  1  0  0  0  0
  2 12  1  0  0  0  0
  3 14  1  0  0  0  0
  4 15  1  0  0  0  0
  5  9  1  0  0  0  0
  5  1  2  0  0  0  0
  6  1  1  0  0  0  0
  7 11  1  0  0  0  0
  7  4  1  0  0  0  0
  8  4  2  0  0  0  0
  9  7  2  0  0  0  0
 10  3  2  0  0  0  0
 10 11  1  0  0  0  0
 11  2  2  0  0  0  0
 13 35  1  0  0  0  0
 14 13  2  0  0  0  0
 15 12  2  0  0  0  0
 16  3  1  0  0  0  0
 17 16  2  0  0  0  0
 18 19  1  0  0  0  0
 19 20  1  1  0  0  0
 19 17  1  0  0  0  0
 21 19  1  0  0  0  0
 22 25  1  0  0  0  0
 22 21  1  1  0  0  0
 23 28  1  0  0  0  0
 23 24  1  0  0  0  0
 24 29  1  6  0  0  0
 24 26  1  0  0  0  0
 26 27  1  6  0  0  0
 26 22  1  0  0  0  0
 28 25  1  0  0  0  0
 29 33  1  0  0  0  0
 29 34  1  0  0  0  0
 31 32  1  0  0  0  0
 32 30  1  0  0  0  0
 33 31  1  0  0  0  0
 34 30  1  0  0  0  0
 35 36  1  0  0  0  0
 36 37  1  1  0  0  0
 38 36  1  0  0  0  0
 38 41  1  0  0  0  0
 41 42  1  0  0  0  0
 42 39  1  0  0  0  0
 42 40  1  0  0  0  0
 43 41  1  0  0  0  0
 43 42  1  0  0  0  0
M  END
>  <MODEL>
1

>  <REMARK>
 VINA RESULT:     -10.5      0.000      0.000
  Name = 
  9 active torsions:
  status: ('A' for Active; 'I' for Inactive)
    1  A    between atoms: C_1  and  C_9
    2  A    between atoms: C_1  and  C_35
    3  A    between atoms: C_2  and  C_13
    4  A    between atoms: C_3  and  C_4
    5  A    between atoms: C_3  and  C_12
    6  A    between atoms: C_6  and  C_12
    7  A    between atoms: C_9  and  N_32
    8  A    between atoms: C_11  and  C_14
    9  A    between atoms: C_34  and  C_35
                            x       y       z     vdW  Elec       q    Type
                         _______ _______ _______ _____ _____    ______ ____

>  <TORSDO>
F 9

$$$$
=
 OpenBabel11052416263D

 43 48  0  0  1  0  0  0  0  0999 V2000
  191.5200  176.4410  147.2370 C   0  0  0  0  0  0  0  0  0  0  0  0
  187.1580  177.8890  145.1180 C   0  0  0  0  0  0  0  0  0  0  0  0
  187.6190  177.8280  142.3680 C   0  0  0  0  0  0  0  0  0  0  0  0
  189.2400  177.1690  146.8630 C   0  0  0  0  0  0  0  0  0  0  0  0
  191.7450  176.4210  145.8580 C   0  0  0  0  0  3  0  0  0  0  0  0
  192.5160  176.0980  148.0900 F   0  0  0  0  0  0  0  0  0  0  0  0
  189.4610  177.1500  145.4640 C   0  0  0  0  0  0  0  0  0  0  0  0
  190.2700  176.8140  147.7390 C   0  0  0  0  0  3  0  0  0  0  0  0
  190.7200  176.7740  144.9750 C   0  0  0  0  0  3  0  0  0  0  0  0
  188.6040  177.4910  143.2420 N   0  0  0  0  0  0  0  0  0  0  0  0
  188.4160  177.5090  144.5920 C   0  0  0  0  0  0  0  0  0  0  0  0
  186.9610  177.8950  146.5070 C   0  0  0  0  0  3  0  0  0  0  0  0
  186.1290  178.2510  144.2320 C   0  0  0  0  0  0  0  0  0  0  0  0
  186.3640  178.2140  142.8550 C   0  0  0  0  0  3  0  0  0  0  0  0
  187.9950  177.5380  147.3720 C   0  0  0  0  0  3  0  0  0  0  0  0
  187.9010  177.7800  140.9280 C   0  0  0  0  0  3  0  0  0  0  0  0
  189.1350  177.8640  140.4330 C   0  0  0  0  0  3  0  0  0  0  0  0
  189.4850  179.1030  138.4660 F   0  0  0  0  0  0  0  0  0  0  0  0
  189.4020  177.8130  138.9630 C   0  0  1  0  0  0  0  0  0  0  0  0
  190.7100  177.0820  138.7030 C   0  0  0  0  0  1  0  0  0  0  0  0
  188.2470  177.0650  138.2980 C   0  0  0  0  0  2  0  0  0  0  0  0
  188.2700  177.1650  136.7760 C   0  0  2  0  0  3  0  0  0  0  0  0
  186.2450  176.6040  134.6040 C   0  0  0  0  0  2  0  0  0  0  0  0
  186.6190  175.5640  135.6770 C   0  0  2  0  0  3  0  0  0  0  0  0
  187.2390  178.1980  136.3000 C   0  0  0  0  0  2  0  0  0  0  0  0
  188.0620  175.7690  136.1690 C   0  0  1  0  0  3  0  0  0  0  0  0
  188.9600  175.5760  135.1320 F   0  0  0  0  0  0  0  0  0  0  0  0
  186.8880  177.9790  134.8320 C   0  0  0  0  0  2  0  0  0  0  0  0
  186.3750  174.1300  135.1820 C   0  0  0  0  0  3  0  0  0  0  0  0
  186.0360  172.9460  137.3720 C   0  0  0  0  0  2  0  0  0  0  0  0
  184.1780  173.6340  136.2960 C   0  0  0  0  0  2  0  0  0  0  0  0
  184.7540  172.5380  136.9630 O   0  0  0  0  0  0  0  0  0  0  0  0
  184.8810  173.8570  134.9540 C   0  0  0  0  0  2  0  0  0  0  0  0
  186.9520  173.0890  136.1540 C   0  0  0  0  0  2  0  0  0  0  0  0
  184.7810  178.6860  144.7260 C   0  0  0  0  0  2  0  0  0  0  0  0
  183.6930  178.4150  143.6930 C   0  0  1  0  0  3  0  0  0  0  0  0
  182.3620  178.9550  144.1860 C   0  0  0  0  0  1  0  0  0  0  0  0
  184.0370  178.9920  142.3210 C   0  0  0  0  0  2  0  0  0  0  0  0
  184.5940  179.7690  139.8520 O   0  0  0  0  0  1  0  0  0  0  0  0
  182.3550  179.3430  139.1210 O   0  0  0  0  0  1  0  0  0  0  0  0
  182.9750  178.7270  141.3540 N   0  0  0  0  0  0  0  0  0  0  0  0
  183.4100  179.0310  139.9750 C   0  0  0  0  0  0  0  0  0  0  0  0
  183.4970  177.6690  140.4570 C   0  0  0  0  0  2  0  0  0  0  0  0
  1  8  1  0  0  0  0
  1  6  1  0  0  0  0
  2 12  1  0  0  0  0
  3 14  2  0  0  0  0
  3 10  1  0  0  0  0
  4 15  1  0  0  0  0
  4  8  2  0  0  0  0
  5  1  2  0  0  0  0
  7  4  1  0  0  0  0
  9  7  2  0  0  0  0
  9  5  1  0  0  0  0
 10 11  2  0  0  0  0
 11  2  1  0  0  0  0
 11  7  1  0  0  0  0
 12 15  2  0  0  0  0
 13 35  1  0  0  0  0
 13  2  2  0  0  0  0
 14 13  1  0  0  0  0
 16  3  1  0  0  0  0
 17 16  2  0  0  0  0
 18 19  1  0  0  0  0
 19 20  1  6  0  0  0
 19 17  1  0  0  0  0
 21 19  1  0  0  0  0
 22 21  1  1  0  0  0
 23 28  1  0  0  0  0
 23 24  1  0  0  0  0
 24 29  1  6  0  0  0
 24 26  1  0  0  0  0
 25 22  1  0  0  0  0
 26 27  1  6  0  0  0
 26 22  1  0  0  0  0
 28 25  1  0  0  0  0
 29 34  1  0  0  0  0
 31 32  1  0  0  0  0
 32 30  1  0  0  0  0
 33 29  1  0  0  0  0
 33 31  1  0  0  0  0
 34 30  1  0  0  0  0
 36 37  1  1  0  0  0
 36 35  1  0  0  0  0
 38 36  1  0  0  0  0
 39 42  1  0  0  0  0
 40 42  1  0  0  0  0
 41 38  1  0  0  0  0
 42 43  1  0  0  0  0
 42 41  1  0  0  0  0
 43 41  1  0  0  0  0
M  END
>  <MODEL>
2

>  <REMARK>
 VINA RESULT:     -10.5      3.243      6.128
  Name = 
  9 active torsions:
  status: ('A' for Active; 'I' for Inactive)
    1  A    between atoms: C_1  and  C_9
    2  A    between atoms: C_1  and  C_35
    3  A    between atoms: C_2  and  C_13
    4  A    between atoms: C_3  and  C_4
    5  A    between atoms: C_3  and  C_12
    6  A    between atoms: C_6  and  C_12
    7  A    between atoms: C_9  and  N_32
    8  A    between atoms: C_11  and  C_14
    9  A    between atoms: C_34  and  C_35
                            x       y       z     vdW  Elec       q    Type
                         _______ _______ _______ _____ _____    ______ ____

>  <TORSDO>
F 9

$$$$
=
 OpenBabel11052416263D

 43 48  0  0  1  0  0  0  0  0999 V2000
  188.6550  177.4410  145.8910 C   0  0  0  0  0  0  0  0  0  0  0  0
  184.0430  178.6660  144.2030 C   0  0  0  0  0  0  0  0  0  0  0  0
  184.1150  178.1960  141.4550 C   0  0  0  0  0  0  0  0  0  0  0  0
  186.3470  178.1590  145.7320 C   0  0  0  0  0  0  0  0  0  0  0  0
  188.6840  177.2160  144.5120 C   0  0  0  0  0  3  0  0  0  0  0  0
  189.7590  177.2030  146.6400 F   0  0  0  0  0  0  0  0  0  0  0  0
  186.3700  177.9330  144.3340 C   0  0  0  0  0  0  0  0  0  0  0  0
  187.4880  177.9120  146.5000 C   0  0  0  0  0  3  0  0  0  0  0  0
  187.5480  177.4600  143.7360 C   0  0  0  0  0  3  0  0  0  0  0  0
  185.2120  177.9670  142.2250 N   0  0  0  0  0  0  0  0  0  0  0  0
  185.2150  178.1850  143.5700 C   0  0  0  0  0  0  0  0  0  0  0  0
  184.0410  178.8770  145.5900 C   0  0  0  0  0  3  0  0  0  0  0  0
  182.9010  178.9190  143.4240 C   0  0  0  0  0  0  0  0  0  0  0  0
  182.9410  178.6770  142.0480 C   0  0  0  0  0  3  0  0  0  0  0  0
  185.1850  178.6260  146.3470 C   0  0  0  0  0  3  0  0  0  0  0  0
  184.1940  177.9330  140.0120 C   0  0  0  0  0  3  0  0  0  0  0  0
  183.4240  177.0340  139.4010 C   0  0  0  0  0  3  0  0  0  0  0  0
  182.5800  175.8300  137.5660 F   0  0  0  0  0  0  0  0  0  0  0  0
  183.5180  176.7810  137.9310 C   0  0  1  0  0  0  0  0  0  0  0  0
  183.2560  178.0720  137.1710 C   0  0  0  0  0  1  0  0  0  0  0  0
  184.9280  176.2760  137.6270 C   0  0  0  0  0  2  0  0  0  0  0  0
  185.6660  177.1410  136.6110 C   0  0  2  0  0  3  0  0  0  0  0  0
  188.5380  177.3050  135.6850 C   0  0  0  0  0  2  0  0  0  0  0  0
  188.1400  177.3910  137.1710 C   0  0  2  0  0  3  0  0  0  0  0  0
  186.2400  176.2650  135.4890 C   0  0  0  0  0  2  0  0  0  0  0  0
  186.7300  177.9820  137.3340 C   0  0  1  0  0  3  0  0  0  0  0  0
  186.6910  179.2830  136.8600 F   0  0  0  0  0  0  0  0  0  0  0  0
  187.3610  176.9890  134.7530 C   0  0  0  0  0  2  0  0  0  0  0  0
  189.1870  178.1590  137.9920 C   0  0  0  0  0  3  0  0  0  0  0  0
  188.8090  177.1540  140.2640 C   0  0  0  0  0  2  0  0  0  0  0  0
  190.4530  176.2450  139.0170 C   0  0  0  0  0  2  0  0  0  0  0  0
  190.1460  176.7210  140.3040 O   0  0  0  0  0  0  0  0  0  0  0  0
  190.5300  177.4150  138.0330 C   0  0  0  0  0  2  0  0  0  0  0  0
  188.6990  178.4280  139.4230 C   0  0  0  0  0  2  0  0  0  0  0  0
  181.6360  179.4520  144.0300 C   0  0  0  0  0  2  0  0  0  0  0  0
  180.4020  178.8690  143.3490 C   0  0  1  0  0  3  0  0  0  0  0  0
  179.7090  177.8900  144.2790 C   0  0  0  0  0  1  0  0  0  0  0  0
  179.4310  179.9510  142.8790 C   0  0  0  0  0  2  0  0  0  0  0  0
  178.9320  179.2460  140.3760 O   0  0  0  0  0  1  0  0  0  0  0  0
  180.5130  180.8310  139.5260 O   0  0  0  0  0  1  0  0  0  0  0  0
  180.0470  180.8170  141.8770 N   0  0  0  0  0  0  0  0  0  0  0  0
  179.5980  180.4710  140.5130 C   0  0  0  0  0  0  0  0  0  0  0  0
  178.9310  181.5400  141.2240 C   0  0  0  0  0  2  0  0  0  0  0  0
  1  8  1  0  0  0  0
  1  6  1  0  0  0  0
  2 12  1  0  0  0  0
  3 14  2  0  0  0  0
  3 10  1  0  0  0  0
  4 15  1  0  0  0  0
  4  8  2  0  0  0  0
  5  1  2  0  0  0  0
  7  4  1  0  0  0  0
  9  7  2  0  0  0  0
  9  5  1  0  0  0  0
 10 11  2  0  0  0  0
 11  2  1  0  0  0  0
 11  7  1  0  0  0  0
 12 15  2  0  0  0  0
 13 35  1  0  0  0  0
 13  2  2  0  0  0  0
 14 13  1  0  0  0  0
 16  3  1  0  0  0  0
 17 16  2  0  0  0  0
 18 19  1  0  0  0  0
 19 20  1  6  0  0  0
 19 17  1  0  0  0  0
 21 19  1  0  0  0  0
 22 26  1  0  0  0  0
 22 21  1  1  0  0  0
 23 24  1  0  0  0  0
 24 26  1  0  0  0  0
 24 29  1  1  0  0  0
 25 22  1  0  0  0  0
 26 27  1  6  0  0  0
 28 25  1  0  0  0  0
 28 23  1  0  0  0  0
 29 33  1  0  0  0  0
 29 34  1  0  0  0  0
 30 32  1  0  0  0  0
 31 32  1  0  0  0  0
 33 31  1  0  0  0  0
 34 30  1  0  0  0  0
 36 35  1  0  0  0  0
 36 37  1  1  0  0  0
 38 36  1  0  0  0  0
 39 42  1  0  0  0  0
 40 42  1  0  0  0  0
 41 38  1  0  0  0  0
 42 43  1  0  0  0  0
 42 41  1  0  0  0  0
 43 41  1  0  0  0  0
M  END
>  <MODEL>
3

>  <REMARK>
 VINA RESULT:     -10.3      3.376      7.504
  Name = 
  9 active torsions:
  status: ('A' for Active; 'I' for Inactive)
    1  A    between atoms: C_1  and  C_9
    2  A    between atoms: C_1  and  C_35
    3  A    between atoms: C_2  and  C_13
    4  A    between atoms: C_3  and  C_4
    5  A    between atoms: C_3  and  C_12
    6  A    between atoms: C_6  and  C_12
    7  A    between atoms: C_9  and  N_32
    8  A    between atoms: C_11  and  C_14
    9  A    between atoms: C_34  and  C_35
                            x       y       z     vdW  Elec       q    Type
                         _______ _______ _______ _____ _____    ______ ____

>  <TORSDO>
F 9

$$$$
=
 OpenBabel11052416263D

 43 48  0  0  1  0  0  0  0  0999 V2000
  183.7600  178.8920  144.6420 C   0  0  0  0  0  0  0  0  0  0  0  0
  188.4190  177.3260  143.4360 C   0  0  0  0  0  0  0  0  0  0  0  0
  188.7030  177.8810  140.7170 C   0  0  0  0  0  0  0  0  0  0  0  0
  186.0050  177.9840  144.7150 C   0  0  0  0  0  0  0  0  0  0  0  0
  183.9080  179.1600  143.2790 C   0  0  0  0  0  3  0  0  0  0  0  0
  182.6010  179.2030  145.2710 F   0  0  0  0  0  0  0  0  0  0  0  0
  186.1610  178.2520  143.3330 C   0  0  0  0  0  0  0  0  0  0  0  0
  184.8070  178.3060  145.3590 C   0  0  0  0  0  3  0  0  0  0  0  0
  185.1020  178.8420  142.6260 C   0  0  0  0  0  3  0  0  0  0  0  0
  187.5470  178.1810  141.3680 N   0  0  0  0  0  0  0  0  0  0  0  0
  187.3720  177.9240  142.6950 C   0  0  0  0  0  0  0  0  0  0  0  0
  188.2440  177.0750  144.8050 C   0  0  0  0  0  3  0  0  0  0  0  0
  189.6190  176.9990  142.7800 C   0  0  0  0  0  0  0  0  0  0  0  0
  189.7570  177.2830  141.4190 C   0  0  0  0  0  3  0  0  0  0  0  0
  187.0450  177.4010  145.4380 C   0  0  0  0  0  3  0  0  0  0  0  0
  188.8130  178.1920  139.2860 C   0  0  0  0  0  3  0  0  0  0  0  0
  188.2940  177.4120  138.3380 C   0  0  0  0  0  3  0  0  0  0  0  0
  189.3710  178.7350  136.7210 F   0  0  0  0  0  0  0  0  0  0  0  0
  188.4160  177.7450  136.8860 C   0  0  1  0  0  0  0  0  0  0  0  0
  188.8270  176.5050  136.1070 C   0  0  0  0  0  1  0  0  0  0  0  0
  187.0550  178.2390  136.3980 C   0  0  0  0  0  2  0  0  0  0  0  0
  186.0850  177.1050  136.0870 C   0  0  2  0  0  3  0  0  0  0  0  0
  183.0850  176.9360  135.7700 C   0  0  0  0  0  2  0  0  0  0  0  0
  183.7530  177.5450  137.0170 C   0  0  2  0  0  3  0  0  0  0  0  0
  185.3620  177.3780  134.7600 C   0  0  0  0  0  2  0  0  0  0  0  0
  185.1300  176.9090  137.2740 C   0  0  1  0  0  3  0  0  0  0  0  0
  184.9970  175.5570  137.5440 F   0  0  0  0  0  0  0  0  0  0  0  0
  184.0780  176.5610  134.6630 C   0  0  0  0  0  2  0  0  0  0  0  0
  182.8370  177.4580  138.2480 C   0  0  0  0  0  3  0  0  0  0  0  0
  182.7120  179.8840  138.8910 C   0  0  0  0  0  2  0  0  0  0  0  0
  181.0440  179.0940  137.5950 C   0  0  0  0  0  2  0  0  0  0  0  0
  181.3140  179.8600  138.7430 O   0  0  0  0  0  0  0  0  0  0  0  0
  181.3590  177.6200  137.8650 C   0  0  0  0  0  2  0  0  0  0  0  0
  183.2160  178.5010  139.3100 C   0  0  0  0  0  2  0  0  0  0  0  0
  190.7580  176.3420  143.5030 C   0  0  0  0  0  2  0  0  0  0  0  0
  191.6310  177.3670  144.2190 C   0  0  1  0  0  3  0  0  0  0  0  0
  191.3390  178.7590  143.6880 C   0  0  0  0  0  1  0  0  0  0  0  0
  191.4610  177.3180  145.7360 C   0  0  0  0  0  2  0  0  0  0  0  0
  192.0600  177.4620  148.3110 O   0  0  0  0  0  1  0  0  0  0  0  0
  193.1690  175.3410  148.2580 O   0  0  0  0  0  1  0  0  0  0  0  0
  192.0190  176.0890  146.2920 N   0  0  0  0  0  0  0  0  0  0  0  0
  192.1760  176.1800  147.7580 C   0  0  0  0  0  0  0  0  0  0  0  0
  190.9880  175.5560  147.2150 C   0  0  0  0  0  2  0  0  0  0  0  0
  1  6  1  0  0  0  0
  1  8  1  0  0  0  0
  2 12  1  0  0  0  0
  3 10  2  0  0  0  0
  3 14  1  0  0  0  0
  4  8  2  0  0  0  0
  4 15  1  0  0  0  0
  5  1  2  0  0  0  0
  7  4  1  0  0  0  0
  9  5  1  0  0  0  0
  9  7  2  0  0  0  0
 10 11  1  0  0  0  0
 11  7  1  0  0  0  0
 11  2  2  0  0  0  0
 12 15  2  0  0  0  0
 13  2  1  0  0  0  0
 13 35  1  0  0  0  0
 14 13  2  0  0  0  0
 16  3  1  0  0  0  0
 17 16  2  0  0  0  0
 18 19  1  0  0  0  0
 19 20  1  6  0  0  0
 19 17  1  0  0  0  0
 21 19  1  0  0  0  0
 22 21  1  1  0  0  0
 22 26  1  0  0  0  0
 23 24  1  0  0  0  0
 24 26  1  0  0  0  0
 24 29  1  1  0  0  0
 25 22  1  0  0  0  0
 26 27  1  6  0  0  0
 28 25  1  0  0  0  0
 28 23  1  0  0  0  0
 29 34  1  0  0  0  0
 30 34  1  0  0  0  0
 31 33  1  0  0  0  0
 31 32  1  0  0  0  0
 32 30  1  0  0  0  0
 33 29  1  0  0  0  0
 35 36  1  0  0  0  0
 36 37  1  6  0  0  0
 36 38  1  0  0  0  0
 38 41  1  0  0  0  0
 41 43  1  0  0  0  0
 41 42  1  0  0  0  0
 42 40  1  0  0  0  0
 42 39  1  0  0  0  0
 43 42  1  0  0  0  0
M  END
>  <MODEL>
4

>  <REMARK>
 VINA RESULT:     -10.3      2.337      3.856
  Name = 
  9 active torsions:
  status: ('A' for Active; 'I' for Inactive)
    1  A    between atoms: C_1  and  C_9
    2  A    between atoms: C_1  and  C_35
    3  A    between atoms: C_2  and  C_13
    4  A    between atoms: C_3  and  C_4
    5  A    between atoms: C_3  and  C_12
    6  A    between atoms: C_6  and  C_12
    7  A    between atoms: C_9  and  N_32
    8  A    between atoms: C_11  and  C_14
    9  A    between atoms: C_34  and  C_35
                            x       y       z     vdW  Elec       q    Type
                         _______ _______ _______ _____ _____    ______ ____

>  <TORSDO>
F 9

$$$$
=
 OpenBabel11052416263D

 43 48  0  0  1  0  0  0  0  0999 V2000
  191.4810  176.4080  147.1200 C   0  0  0  0  0  0  0  0  0  0  0  0
  187.2020  177.8940  144.8620 C   0  0  0  0  0  0  0  0  0  0  0  0
  187.7530  177.8370  142.1280 C   0  0  0  0  0  0  0  0  0  0  0  0
  189.2200  177.1530  146.6720 C   0  0  0  0  0  0  0  0  0  0  0  0
  191.7500  176.3900  145.7490 C   0  0  0  0  0  3  0  0  0  0  0  0
  192.4450  176.0550  148.0040 F   0  0  0  0  0  0  0  0  0  0  0  0
  189.4860  177.1370  145.2820 C   0  0  0  0  0  0  0  0  0  0  0  0
  190.2170  176.7890  147.5810 C   0  0  0  0  0  3  0  0  0  0  0  0
  190.7590  176.7530  144.8330 C   0  0  0  0  0  3  0  0  0  0  0  0
  188.7060  177.4900  143.0330 N   0  0  0  0  0  0  0  0  0  0  0  0
  188.4740  177.5060  144.3760 C   0  0  0  0  0  0  0  0  0  0  0  0
  186.9580  177.8970  146.2430 C   0  0  0  0  0  3  0  0  0  0  0  0
  186.2050  178.2660  143.9430 C   0  0  0  0  0  0  0  0  0  0  0  0
  186.4850  178.2310  142.5750 C   0  0  0  0  0  3  0  0  0  0  0  0
  187.9610  177.5300  147.1410 C   0  0  0  0  0  3  0  0  0  0  0  0
  188.0830  177.7910  140.6980 C   0  0  0  0  0  3  0  0  0  0  0  0
  189.0810  177.0550  140.2120 C   0  0  0  0  0  3  0  0  0  0  0  0
  188.3340  176.4700  138.0610 F   0  0  0  0  0  0  0  0  0  0  0  0
  189.4010  177.0210  138.7520 C   0  0  1  0  0  0  0  0  0  0  0  0
  189.6570  178.4340  138.2500 C   0  0  0  0  0  1  0  0  0  0  0  0
  190.6520  176.1660  138.5610 C   0  0  0  0  0  2  0  0  0  0  0  0
  190.7360  175.5340  137.1750 C   0  0  2  0  0  3  0  0  0  0  0  0
  192.0140  173.0210  136.0880 C   0  0  0  0  0  2  0  0  0  0  0  0
  192.8000  174.0630  136.9070 C   0  0  2  0  0  3  0  0  0  0  0  0
  190.0380  174.1660  137.1770 C   0  0  0  0  0  2  0  0  0  0  0  0
  192.2050  175.4700  136.7310 C   0  0  1  0  0  3  0  0  0  0  0  0
  192.3070  175.8770  135.4110 F   0  0  0  0  0  0  0  0  0  0  0  0
  190.5100  173.3130  136.0040 C   0  0  0  0  0  2  0  0  0  0  0  0
  194.3000  174.0240  136.5790 C   0  0  0  0  0  3  0  0  0  0  0  0
  195.2750  174.2820  138.8810 C   0  0  0  0  0  2  0  0  0  0  0  0
  195.0510  172.1760  138.1080 C   0  0  0  0  0  2  0  0  0  0  0  0
  195.9460  173.0550  138.7440 O   0  0  0  0  0  0  0  0  0  0  0  0
  194.8570  172.5940  136.6480 C   0  0  0  0  0  2  0  0  0  0  0  0
  195.1080  174.9410  137.5100 C   0  0  0  0  0  2  0  0  0  0  0  0
  184.8440  178.7090  144.3930 C   0  0  0  0  0  2  0  0  0  0  0  0
  183.7800  178.3930  143.3490 C   0  0  1  0  0  3  0  0  0  0  0  0
  182.4180  178.8500  143.8400 C   0  0  0  0  0  1  0  0  0  0  0  0
  184.0990  179.0070  141.9870 C   0  0  0  0  0  2  0  0  0  0  0  0
  184.5860  179.9100  139.5460 O   0  0  0  0  0  1  0  0  0  0  0  0
  182.3370  179.4820  138.8470 O   0  0  0  0  0  1  0  0  0  0  0  0
  183.0190  178.7710  141.0330 N   0  0  0  0  0  0  0  0  0  0  0  0
  183.4170  179.1470  139.6610 C   0  0  0  0  0  0  0  0  0  0  0  0
  183.5360  177.7650  140.0750 C   0  0  0  0  0  2  0  0  0  0  0  0
  1  8  1  0  0  0  0
  1  6  1  0  0  0  0
  2 12  1  0  0  0  0
  3 14  2  0  0  0  0
  3 10  1  0  0  0  0
  4 15  1  0  0  0  0
  4  8  2  0  0  0  0
  5  1  2  0  0  0  0
  7  4  1  0  0  0  0
  9  7  2  0  0  0  0
  9  5  1  0  0  0  0
 10 11  2  0  0  0  0
 11  2  1  0  0  0  0
 11  7  1  0  0  0  0
 12 15  2  0  0  0  0
 13 35  1  0  0  0  0
 13  2  2  0  0  0  0
 14 13  1  0  0  0  0
 16  3  1  0  0  0  0
 17 16  2  0  0  0  0
 18 19  1  0  0  0  0
 19 20  1  6  0  0  0
 19 17  1  0  0  0  0
 21 19  1  0  0  0  0
 22 25  1  0  0  0  0
 22 21  1  1  0  0  0
 23 24  1  0  0  0  0
 24 29  1  6  0  0  0
 26 27  1  6  0  0  0
 26 24  1  0  0  0  0
 26 22  1  0  0  0  0
 28 23  1  0  0  0  0
 28 25  1  0  0  0  0
 29 33  1  0  0  0  0
 29 34  1  0  0  0  0
 31 32  1  0  0  0  0
 32 30  1  0  0  0  0
 33 31  1  0  0  0  0
 34 30  1  0  0  0  0
 36 37  1  1  0  0  0
 36 35  1  0  0  0  0
 38 36  1  0  0  0  0
 39 42  1  0  0  0  0
 40 42  1  0  0  0  0
 41 38  1  0  0  0  0
 42 43  1  0  0  0  0
 42 41  1  0  0  0  0
 43 41  1  0  0  0  0
M  END
>  <MODEL>
5

>  <REMARK>
 VINA RESULT:     -10.3      3.887      7.496
  Name = 
  9 active torsions:
  status: ('A' for Active; 'I' for Inactive)
    1  A    between atoms: C_1  and  C_9
    2  A    between atoms: C_1  and  C_35
    3  A    between atoms: C_2  and  C_13
    4  A    between atoms: C_3  and  C_4
    5  A    between atoms: C_3  and  C_12
    6  A    between atoms: C_6  and  C_12
    7  A    between atoms: C_9  and  N_32
    8  A    between atoms: C_11  and  C_14
    9  A    between atoms: C_34  and  C_35
                            x       y       z     vdW  Elec       q    Type
                         _______ _______ _______ _____ _____    ______ ____

>  <TORSDO>
F 9

$$$$
=
 OpenBabel11052416263D

 43 48  0  0  1  0  0  0  0  0999 V2000
  190.7760  176.8900  137.7260 C   0  0  0  0  0  0  0  0  0  0  0  0
  185.8410  177.9580  138.0750 C   0  0  0  0  0  0  0  0  0  0  0  0
  185.4660  178.8690  140.6840 C   0  0  0  0  0  0  0  0  0  0  0  0
  188.4200  177.2010  137.2540 C   0  0  0  0  0  0  0  0  0  0  0  0
  190.5780  177.3410  139.0340 C   0  0  0  0  0  3  0  0  0  0  0  0
  192.0140  176.5210  137.3180 F   0  0  0  0  0  0  0  0  0  0  0  0
  188.2120  177.6590  138.5780 C   0  0  0  0  0  0  0  0  0  0  0  0
  189.6990  176.8210  136.8370 C   0  0  0  0  0  3  0  0  0  0  0  0
  189.3020  177.7240  139.4590 C   0  0  0  0  0  3  0  0  0  0  0  0
  186.6990  178.4900  140.2540 N   0  0  0  0  0  0  0  0  0  0  0  0
  186.9210  178.0390  138.9870 C   0  0  0  0  0  0  0  0  0  0  0  0
  186.0710  177.5070  136.7660 C   0  0  0  0  0  3  0  0  0  0  0  0
  184.5560  178.3360  138.5020 C   0  0  0  0  0  0  0  0  0  0  0  0
  184.3750  178.7950  139.8090 C   0  0  0  0  0  3  0  0  0  0  0  0
  187.3510  177.1310  136.3600 C   0  0  0  0  0  3  0  0  0  0  0  0
  185.3120  179.3460  142.0640 C   0  0  0  0  0  3  0  0  0  0  0  0
  184.3140  178.9510  142.8550 C   0  0  0  0  0  3  0  0  0  0  0  0
  183.5020  180.6580  144.2520 F   0  0  0  0  0  0  0  0  0  0  0  0
  184.1740  179.4470  144.2570 C   0  0  1  0  0  0  0  0  0  0  0  0
  183.3950  178.4360  145.0850 C   0  0  0  0  0  1  0  0  0  0  0  0
  185.5760  179.6260  144.8390 C   0  0  0  0  0  2  0  0  0  0  0  0
  185.9290  178.5670  145.8790 C   0  0  2  0  0  3  0  0  0  0  0  0
  188.4910  177.7560  147.2610 C   0  0  0  0  0  2  0  0  0  0  0  0
  188.3680  177.8400  145.7280 C   0  0  2  0  0  3  0  0  0  0  0  0
  186.4430  179.2390  147.1610 C   0  0  0  0  0  2  0  0  0  0  0  0
  186.9250  177.5670  145.2720 C   0  0  1  0  0  3  0  0  0  0  0  0
  186.5470  176.2770  145.6070 F   0  0  0  0  0  0  0  0  0  0  0  0
  187.2450  178.2550  148.0050 C   0  0  0  0  0  2  0  0  0  0  0  0
  189.3800  176.9200  145.0290 C   0  0  0  0  0  3  0  0  0  0  0  0
  189.4500  177.9720  142.7480 C   0  0  0  0  0  2  0  0  0  0  0  0
  191.0430  178.6160  144.2080 C   0  0  0  0  0  2  0  0  0  0  0  0
  190.8310  178.1940  142.8830 O   0  0  0  0  0  0  0  0  0  0  0  0
  190.8150  177.4470  145.1710 C   0  0  0  0  0  2  0  0  0  0  0  0
  189.0400  176.7300  143.5430 C   0  0  0  0  0  2  0  0  0  0  0  0
  183.3660  178.2500  137.5920 C   0  0  0  0  0  2  0  0  0  0  0  0
  182.0810  178.6350  138.3160 C   0  0  1  0  0  3  0  0  0  0  0  0
  181.4270  179.8160  137.6220 C   0  0  0  0  0  1  0  0  0  0  0  0
  181.1040  177.4660  138.4300 C   0  0  0  0  0  2  0  0  0  0  0  0
  179.1520  175.7180  138.8090 O   0  0  0  0  0  1  0  0  0  0  0  0
  179.3070  175.9310  141.1880 O   0  0  0  0  0  1  0  0  0  0  0  0
  180.9190  177.0640  139.8220 N   0  0  0  0  0  0  0  0  0  0  0  0
  179.9330  175.9720  139.9440 C   0  0  0  0  0  0  0  0  0  0  0  0
  181.3420  175.6450  139.8950 C   0  0  0  0  0  2  0  0  0  0  0  0
  1  5  1  0  0  0  0
  2 13  2  0  0  0  0
  2 11  1  0  0  0  0
  3 16  1  0  0  0  0
  4  7  2  0  0  0  0
  5  9  2  0  0  0  0
  6  1  1  0  0  0  0
  7 11  1  0  0  0  0
  7  9  1  0  0  0  0
  8  4  1  0  0  0  0
  8  1  2  0  0  0  0
 10  3  1  0  0  0  0
 11 10  2  0  0  0  0
 12  2  1  0  0  0  0
 13 14  1  0  0  0  0
 14  3  2  0  0  0  0
 15 12  2  0  0  0  0
 15  4  1  0  0  0  0
 16 17  2  0  0  0  0
 17 19  1  0  0  0  0
 18 19  1  0  0  0  0
 19 21  1  0  0  0  0
 19 20  1  1  0  0  0
 22 21  1  6  0  0  0
 22 25  1  0  0  0  0
 23 28  1  0  0  0  0
 24 29  1  6  0  0  0
 24 23  1  0  0  0  0
 25 28  1  0  0  0  0
 26 27  1  1  0  0  0
 26 24  1  0  0  0  0
 26 22  1  0  0  0  0
 29 33  1  0  0  0  0
 30 32  1  0  0  0  0
 30 34  1  0  0  0  0
 31 33  1  0  0  0  0
 32 31  1  0  0  0  0
 34 29  1  0  0  0  0
 35 36  1  0  0  0  0
 35 13  1  0  0  0  0
 36 37  1  6  0  0  0
 36 38  1  0  0  0  0
 38 41  1  0  0  0  0
 39 42  1  0  0  0  0
 41 43  1  0  0  0  0
 41 42  1  0  0  0  0
 42 40  1  0  0  0  0
 43 42  1  0  0  0  0
M  END
>  <MODEL>
6

>  <REMARK>
 VINA RESULT:     -10.2      3.126      9.788
  Name = 
  9 active torsions:
  status: ('A' for Active; 'I' for Inactive)
    1  A    between atoms: C_1  and  C_9
    2  A    between atoms: C_1  and  C_35
    3  A    between atoms: C_2  and  C_13
    4  A    between atoms: C_3  and  C_4
    5  A    between atoms: C_3  and  C_12
    6  A    between atoms: C_6  and  C_12
    7  A    between atoms: C_9  and  N_32
    8  A    between atoms: C_11  and  C_14
    9  A    between atoms: C_34  and  C_35
                            x       y       z     vdW  Elec       q    Type
                         _______ _______ _______ _____ _____    ______ ____

>  <TORSDO>
F 9

$$$$
=
 OpenBabel11052416263D

 43 48  0  0  1  0  0  0  0  0999 V2000
  191.3240  176.6330  147.1350 C   0  0  0  0  0  0  0  0  0  0  0  0
  187.0200  177.8190  144.7510 C   0  0  0  0  0  0  0  0  0  0  0  0
  187.6920  177.9720  142.0480 C   0  0  0  0  0  0  0  0  0  0  0  0
  189.0210  177.1770  146.6170 C   0  0  0  0  0  0  0  0  0  0  0  0
  191.6540  176.7200  145.7800 C   0  0  0  0  0  3  0  0  0  0  0  0
  192.2790  176.3270  148.0450 F   0  0  0  0  0  0  0  0  0  0  0  0
  189.3480  177.2670  145.2420 C   0  0  0  0  0  0  0  0  0  0  0  0
  190.0100  176.8610  147.5530 C   0  0  0  0  0  3  0  0  0  0  0  0
  190.6710  177.0360  144.8370 C   0  0  0  0  0  3  0  0  0  0  0  0
  188.6350  177.6700  142.9800 N   0  0  0  0  0  0  0  0  0  0  0  0
  188.3450  177.5860  144.3090 C   0  0  0  0  0  0  0  0  0  0  0  0
  186.7170  177.7190  146.1170 C   0  0  0  0  0  3  0  0  0  0  0  0
  186.0310  178.1420  143.8050 C   0  0  0  0  0  0  0  0  0  0  0  0
  186.3730  178.2140  142.4520 C   0  0  0  0  0  3  0  0  0  0  0  0
  187.7110  177.4010  147.0420 C   0  0  0  0  0  3  0  0  0  0  0  0
  188.0870  178.0410  140.6350 C   0  0  0  0  0  3  0  0  0  0  0  0
  188.8970  177.1470  140.0690 C   0  0  0  0  0  3  0  0  0  0  0  0
  188.2930  176.6660  137.8490 F   0  0  0  0  0  0  0  0  0  0  0  0
  189.2860  177.2340  138.6290 C   0  0  1  0  0  0  0  0  0  0  0  0
  189.4710  178.6920  138.2350 C   0  0  0  0  0  1  0  0  0  0  0  0
  190.5990  176.4750  138.4460 C   0  0  0  0  0  2  0  0  0  0  0  0
  190.6750  175.7250  137.1210 C   0  0  2  0  0  3  0  0  0  0  0  0
  191.9700  173.1390  136.2440 C   0  0  0  0  0  2  0  0  0  0  0  0
  192.7530  174.2570  136.9580 C   0  0  2  0  0  3  0  0  0  0  0  0
  189.9930  174.3550  137.2510 C   0  0  0  0  0  2  0  0  0  0  0  0
  192.1400  175.6370  136.6660 C   0  0  1  0  0  3  0  0  0  0  0  0
  192.2220  175.9280  135.3140 F   0  0  0  0  0  0  0  0  0  0  0  0
  190.4620  173.4070  136.1530 C   0  0  0  0  0  2  0  0  0  0  0  0
  194.2500  174.2050  136.6170 C   0  0  0  0  0  3  0  0  0  0  0  0
  195.2470  174.4370  138.9120 C   0  0  0  0  0  2  0  0  0  0  0  0
  194.9940  172.3380  138.1250 C   0  0  0  0  0  2  0  0  0  0  0  0
  195.9040  173.2030  138.7600 O   0  0  0  0  0  0  0  0  0  0  0  0
  194.7920  172.7690  136.6710 C   0  0  0  0  0  2  0  0  0  0  0  0
  195.0740  175.1080  137.5470 C   0  0  0  0  0  2  0  0  0  0  0  0
  184.6150  178.4240  144.2110 C   0  0  0  0  0  2  0  0  0  0  0  0
  183.7880  178.9330  143.0350 C   0  0  1  0  0  3  0  0  0  0  0  0
  183.8660  177.9510  141.8810 C   0  0  0  0  0  1  0  0  0  0  0  0
  182.3340  179.2030  143.4200 C   0  0  0  0  0  2  0  0  0  0  0  0
  179.9840  178.3280  144.2690 O   0  0  0  0  0  1  0  0  0  0  0  0
  179.3680  177.5960  142.0740 O   0  0  0  0  0  1  0  0  0  0  0  0
  181.4210  178.8020  142.3520 N   0  0  0  0  0  0  0  0  0  0  0  0
  180.0790  178.4830  142.8800 C   0  0  0  0  0  0  0  0  0  0  0  0
  180.3310  179.8070  142.3520 C   0  0  0  0  0  2  0  0  0  0  0  0
  1  8  1  0  0  0  0
  1  6  1  0  0  0  0
  2 12  1  0  0  0  0
  3 14  2  0  0  0  0
  3 10  1  0  0  0  0
  4 15  1  0  0  0  0
  4  8  2  0  0  0  0
  5  1  2  0  0  0  0
  7  4  1  0  0  0  0
  9  7  2  0  0  0  0
  9  5  1  0  0  0  0
 10 11  2  0  0  0  0
 11  2  1  0  0  0  0
 11  7  1  0  0  0  0
 12 15  2  0  0  0  0
 13 35  1  0  0  0  0
 13  2  2  0  0  0  0
 14 13  1  0  0  0  0
 16  3  1  0  0  0  0
 17 16  2  0  0  0  0
 18 19  1  0  0  0  0
 19 20  1  6  0  0  0
 19 17  1  0  0  0  0
 21 19  1  0  0  0  0
 22 25  1  0  0  0  0
 22 21  1  1  0  0  0
 23 24  1  0  0  0  0
 24 29  1  6  0  0  0
 26 27  1  6  0  0  0
 26 24  1  0  0  0  0
 26 22  1  0  0  0  0
 28 23  1  0  0  0  0
 28 25  1  0  0  0  0
 29 33  1  0  0  0  0
 29 34  1  0  0  0  0
 31 32  1  0  0  0  0
 32 30  1  0  0  0  0
 33 31  1  0  0  0  0
 34 30  1  0  0  0  0
 36 37  1  6  0  0  0
 36 38  1  0  0  0  0
 36 35  1  0  0  0  0
 40 42  1  0  0  0  0
 41 43  1  0  0  0  0
 41 42  1  0  0  0  0
 41 38  1  0  0  0  0
 42 39  1  0  0  0  0
 43 42  1  0  0  0  0
M  END
>  <MODEL>
7

>  <REMARK>
 VINA RESULT:     -10.1      4.050      7.654
  Name = 
  9 active torsions:
  status: ('A' for Active; 'I' for Inactive)
    1  A    between atoms: C_1  and  C_9
    2  A    between atoms: C_1  and  C_35
    3  A    between atoms: C_2  and  C_13
    4  A    between atoms: C_3  and  C_4
    5  A    between atoms: C_3  and  C_12
    6  A    between atoms: C_6  and  C_12
    7  A    between atoms: C_9  and  N_32
    8  A    between atoms: C_11  and  C_14
    9  A    between atoms: C_34  and  C_35
                            x       y       z     vdW  Elec       q    Type
                         _______ _______ _______ _____ _____    ______ ____

>  <TORSDO>
F 9

$$$$
=
 OpenBabel11052416263D

 43 48  0  0  1  0  0  0  0  0999 V2000
  184.5650  178.6110  145.5030 C   0  0  0  0  0  0  0  0  0  0  0  0
  182.4580  178.9590  140.9140 C   0  0  0  0  0  0  0  0  0  0  0  0
  184.5250  178.4480  139.1130 C   0  0  0  0  0  0  0  0  0  0  0  0
  183.0090  178.9030  143.6690 C   0  0  0  0  0  0  0  0  0  0  0  0
  185.5970  178.3650  144.5930 C   0  0  0  0  0  3  0  0  0  0  0  0
  184.8170  178.5900  146.8330 F   0  0  0  0  0  0  0  0  0  0  0  0
  184.0490  178.6540  142.7420 C   0  0  0  0  0  0  0  0  0  0  0  0
  183.2730  178.8800  145.0420 C   0  0  0  0  0  3  0  0  0  0  0  0
  185.3410  178.3850  143.2190 C   0  0  0  0  0  3  0  0  0  0  0  0
  184.7560  178.4350  140.4520 N   0  0  0  0  0  0  0  0  0  0  0  0
  183.7720  178.6800  141.3630 C   0  0  0  0  0  0  0  0  0  0  0  0
  181.4410  179.1970  141.8500 C   0  0  0  0  0  3  0  0  0  0  0  0
  182.2000  178.9870  139.5320 C   0  0  0  0  0  0  0  0  0  0  0  0
  183.2390  178.7260  138.6350 C   0  0  0  0  0  3  0  0  0  0  0  0
  181.7160  179.1700  143.2180 C   0  0  0  0  0  3  0  0  0  0  0  0
  185.6410  178.1710  138.1980 C   0  0  0  0  0  3  0  0  0  0  0  0
  185.8180  176.9850  137.6180 C   0  0  0  0  0  3  0  0  0  0  0  0
  186.5340  175.9050  135.6560 F   0  0  0  0  0  0  0  0  0  0  0  0
  186.9600  176.7240  136.6890 C   0  0  1  0  0  0  0  0  0  0  0  0
  187.4690  178.0380  136.1180 C   0  0  0  0  0  1  0  0  0  0  0  0
  188.0690  176.0370  137.4830 C   0  0  0  0  0  2  0  0  0  0  0  0
  189.2820  176.9320  137.7110 C   0  0  2  0  0  3  0  0  0  0  0  0
  191.4090  177.0820  139.8520 C   0  0  0  0  0  2  0  0  0  0  0  0
  189.9030  177.1110  140.1760 C   0  0  2  0  0  3  0  0  0  0  0  0
  190.5690  176.0950  137.6790 C   0  0  0  0  0  2  0  0  0  0  0  0
  189.0980  177.7200  139.0170 C   0  0  1  0  0  3  0  0  0  0  0  0
  189.4620  179.0410  138.8160 F   0  0  0  0  0  0  0  0  0  0  0  0
  191.7130  176.8300  138.3690 C   0  0  0  0  0  2  0  0  0  0  0  0
  189.6260  177.8220  141.5100 C   0  0  0  0  0  3  0  0  0  0  0  0
  189.0340  175.8550  142.9580 C   0  0  0  0  0  2  0  0  0  0  0  0
  191.1770  176.5550  143.0290 C   0  0  0  0  0  2  0  0  0  0  0  0
  190.0880  176.1710  143.8330 O   0  0  0  0  0  0  0  0  0  0  0  0
  190.8910  177.9100  142.3770 C   0  0  0  0  0  2  0  0  0  0  0  0
  188.5040  177.1300  142.2980 C   0  0  0  0  0  2  0  0  0  0  0  0
  180.8360  179.3000  138.9920 C   0  0  0  0  0  2  0  0  0  0  0  0
  180.9140  180.2220  137.7800 C   0  0  1  0  0  3  0  0  0  0  0  0
  179.8100  179.8800  136.7950 C   0  0  0  0  0  1  0  0  0  0  0  0
  180.8570  181.6980  138.1670 C   0  0  0  0  0  2  0  0  0  0  0  0
  179.0720  183.6480  138.3140 O   0  0  0  0  0  1  0  0  0  0  0  0
  179.3840  184.2220  136.0110 O   0  0  0  0  0  1  0  0  0  0  0  0
  180.8040  182.5540  136.9850 N   0  0  0  0  0  0  0  0  0  0  0  0
  179.9120  183.7130  137.1950 C   0  0  0  0  0  0  0  0  0  0  0  0
  181.3340  183.8710  137.4120 C   0  0  0  0  0  2  0  0  0  0  0  0
  1  6  1  0  0  0  0
  2 11  1  0  0  0  0
  2 12  1  0  0  0  0
  3 10  1  0  0  0  0
  4  8  2  0  0  0  0
  5  1  2  0  0  0  0
  7  9  2  0  0  0  0
  7  4  1  0  0  0  0
  8  1  1  0  0  0  0
  9  5  1  0  0  0  0
 10 11  2  0  0  0  0
 11  7  1  0  0  0  0
 12 15  2  0  0  0  0
 13  2  2  0  0  0  0
 14  3  2  0  0  0  0
 14 13  1  0  0  0  0
 15  4  1  0  0  0  0
 16  3  1  0  0  0  0
 17 16  2  0  0  0  0
 18 19  1  0  0  0  0
 19 20  1  6  0  0  0
 19 21  1  0  0  0  0
 19 17  1  0  0  0  0
 22 21  1  1  0  0  0
 22 26  1  0  0  0  0
 23 24  1  0  0  0  0
 24 29  1  1  0  0  0
 25 22  1  0  0  0  0
 25 28  1  0  0  0  0
 26 27  1  6  0  0  0
 26 24  1  0  0  0  0
 28 23  1  0  0  0  0
 29 34  1  0  0  0  0
 29 33  1  0  0  0  0
 30 32  1  0  0  0  0
 31 32  1  0  0  0  0
 33 31  1  0  0  0  0
 34 30  1  0  0  0  0
 35 13  1  0  0  0  0
 36 37  1  6  0  0  0
 36 38  1  0  0  0  0
 36 35  1  0  0  0  0
 40 42  1  0  0  0  0
 41 42  1  0  0  0  0
 41 43  1  0  0  0  0
 41 38  1  0  0  0  0
 42 43  1  0  0  0  0
 42 39  1  0  0  0  0
M  END
>  <MODEL>
8

>  <REMARK>
 VINA RESULT:      -9.9      4.063      8.618
  Name = 
  9 active torsions:
  status: ('A' for Active; 'I' for Inactive)
    1  A    between atoms: C_1  and  C_9
    2  A    between atoms: C_1  and  C_35
    3  A    between atoms: C_2  and  C_13
    4  A    between atoms: C_3  and  C_4
    5  A    between atoms: C_3  and  C_12
    6  A    between atoms: C_6  and  C_12
    7  A    between atoms: C_9  and  N_32
    8  A    between atoms: C_11  and  C_14
    9  A    between atoms: C_34  and  C_35
                            x       y       z     vdW  Elec       q    Type
                         _______ _______ _______ _____ _____    ______ ____

>  <TORSDO>
F 9

$$$$
=
 OpenBabel11052416263D

 43 48  0  0  1  0  0  0  0  0999 V2000
  187.9520  178.0110  148.3780 C   0  0  0  0  0  0  0  0  0  0  0  0
  189.1650  177.1990  143.5320 C   0  0  0  0  0  0  0  0  0  0  0  0
  186.9770  178.1110  142.0620 C   0  0  0  0  0  0  0  0  0  0  0  0
  189.0950  177.3890  146.3360 C   0  0  0  0  0  0  0  0  0  0  0  0
  186.8570  178.4580  147.6340 C   0  0  0  0  0  3  0  0  0  0  0  0
  187.9300  178.0950  149.7300 F   0  0  0  0  0  0  0  0  0  0  0  0
  187.9890  177.8400  145.5750 C   0  0  0  0  0  0  0  0  0  0  0  0
  189.0690  177.4770  147.7300 C   0  0  0  0  0  3  0  0  0  0  0  0
  186.8740  178.3740  146.2390 C   0  0  0  0  0  3  0  0  0  0  0  0
  186.9770  178.1820  143.4190 N   0  0  0  0  0  0  0  0  0  0  0  0
  188.0270  177.7470  144.1720 C   0  0  0  0  0  0  0  0  0  0  0  0
  190.2510  176.7630  144.3050 C   0  0  0  0  0  3  0  0  0  0  0  0
  189.1820  177.1060  142.1300 C   0  0  0  0  0  0  0  0  0  0  0  0
  188.0850  177.5690  141.3980 C   0  0  0  0  0  3  0  0  0  0  0  0
  190.2150  176.8570  145.6960 C   0  0  0  0  0  3  0  0  0  0  0  0
  185.8070  178.6040  141.3240 C   0  0  0  0  0  3  0  0  0  0  0  0
  184.7000  177.8800  141.1640 C   0  0  0  0  0  3  0  0  0  0  0  0
  182.4890  178.6700  141.2970 F   0  0  0  0  0  0  0  0  0  0  0  0
  183.5190  178.4010  140.4100 C   0  0  1  0  0  0  0  0  0  0  0  0
  183.9010  179.6750  139.6720 C   0  0  0  0  0  1  0  0  0  0  0  0
  183.0860  177.3300  139.4100 C   0  0  0  0  0  2  0  0  0  0  0  0
  183.3580  177.7220  137.9620 C   0  0  2  0  0  3  0  0  0  0  0  0
  183.1230  176.2800  135.3170 C   0  0  0  0  0  2  0  0  0  0  0  0
  183.9210  175.7090  136.5040 C   0  0  2  0  0  3  0  0  0  0  0  0
  182.0570  177.6640  137.1470 C   0  0  0  0  0  2  0  0  0  0  0  0
  184.4750  176.8350  137.3920 C   0  0  1  0  0  3  0  0  0  0  0  0
  185.3700  177.6170  136.6820 F   0  0  0  0  0  0  0  0  0  0  0  0
  182.3550  177.5640  135.6550 C   0  0  0  0  0  2  0  0  0  0  0  0
  185.0230  174.7480  136.0330 C   0  0  0  0  0  3  0  0  0  0  0  0
  184.9320  173.0230  137.8590 C   0  0  0  0  0  2  0  0  0  0  0  0
  183.7490  172.5820  135.9900 C   0  0  0  0  0  2  0  0  0  0  0  0
  184.6530  172.0230  136.9110 O   0  0  0  0  0  0  0  0  0  0  0  0
  184.4590  173.6360  135.1360 C   0  0  0  0  0  2  0  0  0  0  0  0
  185.7770  174.1260  137.2180 C   0  0  0  0  0  2  0  0  0  0  0  0
  190.3470  176.5140  141.3930 C   0  0  0  0  0  2  0  0  0  0  0  0
  190.9330  177.5010  140.3890 C   0  0  1  0  0  3  0  0  0  0  0  0
  192.4090  177.7160  140.6720 C   0  0  0  0  0  1  0  0  0  0  0  0
  190.7180  177.0570  138.9440 C   0  0  0  0  0  2  0  0  0  0  0  0
  189.4670  175.9760  136.8750 O   0  0  0  0  0  1  0  0  0  0  0  0
  190.0250  173.7600  137.5870 O   0  0  0  0  0  1  0  0  0  0  0  0
  190.9370  175.6210  138.7920 N   0  0  0  0  0  0  0  0  0  0  0  0
  190.3510  175.1130  137.5350 C   0  0  0  0  0  0  0  0  0  0  0  0
  191.7560  175.4620  137.5660 C   0  0  0  0  0  2  0  0  0  0  0  0
  1  6  1  0  0  0  0
  2 11  1  0  0  0  0
  2 12  1  0  0  0  0
  3 10  1  0  0  0  0
  4  8  2  0  0  0  0
  5  1  2  0  0  0  0
  7  9  2  0  0  0  0
  7  4  1  0  0  0  0
  8  1  1  0  0  0  0
  9  5  1  0  0  0  0
 10 11  2  0  0  0  0
 11  7  1  0  0  0  0
 12 15  2  0  0  0  0
 13  2  2  0  0  0  0
 14  3  2  0  0  0  0
 14 13  1  0  0  0  0
 15  4  1  0  0  0  0
 16  3  1  0  0  0  0
 17 16  2  0  0  0  0
 19 20  1  6  0  0  0
 19 17  1  0  0  0  0
 19 18  1  0  0  0  0
 21 19  1  0  0  0  0
 22 21  1  1  0  0  0
 23 28  1  0  0  0  0
 23 24  1  0  0  0  0
 24 29  1  6  0  0  0
 24 26  1  0  0  0  0
 25 22  1  0  0  0  0
 26 27  1  6  0  0  0
 26 22  1  0  0  0  0
 28 25  1  0  0  0  0
 29 34  1  0  0  0  0
 31 32  1  0  0  0  0
 32 30  1  0  0  0  0
 33 31  1  0  0  0  0
 33 29  1  0  0  0  0
 34 30  1  0  0  0  0
 35 13  1  0  0  0  0
 36 37  1  1  0  0  0
 36 35  1  0  0  0  0
 38 36  1  0  0  0  0
 39 42  1  0  0  0  0
 41 38  1  0  0  0  0
 42 43  1  0  0  0  0
 42 40  1  0  0  0  0
 42 41  1  0  0  0  0
 43 41  1  0  0  0  0
M  END
>  <MODEL>
9

>  <REMARK>
 VINA RESULT:      -9.8      3.262      6.185
  Name = 
  9 active torsions:
  status: ('A' for Active; 'I' for Inactive)
    1  A    between atoms: C_1  and  C_9
    2  A    between atoms: C_1  and  C_35
    3  A    between atoms: C_2  and  C_13
    4  A    between atoms: C_3  and  C_4
    5  A    between atoms: C_3  and  C_12
    6  A    between atoms: C_6  and  C_12
    7  A    between atoms: C_9  and  N_32
    8  A    between atoms: C_11  and  C_14
    9  A    between atoms: C_34  and  C_35
                            x       y       z     vdW  Elec       q    Type
                         _______ _______ _______ _____ _____    ______ ____

>  <TORSDO>
F 9

$$$$
