=
 OpenBabel11052415433D

 34 38  0  0  1  0  0  0  0  0999 V2000
  183.9550  178.8660  139.0420 C   0  0  1  0  0  0  0  0  0  0  0  0
  185.7260  176.0900  136.9020 C   0  0  0  0  0  2  0  0  0  0  0  0
  183.5500  177.1210  136.7340 O   0  0  0  0  0  0  0  0  0  0  0  0
  184.2480  180.1960  139.3610 O   0  0  0  0  0  1  0  0  0  0  0  0
  181.4280  179.2420  139.0510 C   0  0  0  0  0  2  0  0  0  0  0  0
  180.0090  178.1050  137.3330 C   0  0  0  0  0  3  0  0  0  0  0  0
  180.1140  178.9200  138.3900 C   0  0  0  0  0  3  0  0  0  0  0  0
  182.4390  177.4610  137.5350 C   0  0  1  0  0  3  0  0  0  0  0  0
  182.6510  178.8380  138.2100 C   0  0  2  0  0  3  0  0  0  0  0  0
  181.2070  177.5200  136.6370 C   0  0  0  0  0  2  0  0  0  0  0  0
  186.8230  176.8990  136.2200 C   0  0  0  0  0  2  0  0  0  0  0  0
  187.8290  177.3760  137.2670 C   0  0  2  0  0  3  0  0  0  0  0  0
  187.4190  178.5930  137.8300 O   0  0  0  0  0  0  0  0  0  0  0  0
  184.6420  176.9290  137.5950 C   0  0  2  0  0  3  0  0  0  0  0  0
  186.4640  178.2800  138.8050 C   0  0  0  0  0  2  0  0  0  0  0  0
  185.0790  178.2940  138.1600 C   0  0  2  0  0  3  0  0  0  0  0  0
  189.1690  177.5450  136.6360 C   0  0  0  0  0  0  0  0  0  0  0  0
  189.2790  177.7490  135.2660 O   0  0  0  0  0  0  0  0  0  0  0  0
  190.2050  177.4880  137.3460 O   0  0  0  0  0  1  0  0  0  0  0  0
  183.7730  178.0390  140.3330 C   0  0  0  0  0  2  0  0  0  0  0  0
  183.1670  178.8340  141.4820 C   0  0  0  0  0  2  0  0  0  0  0  0
  184.8320  178.8780  144.9260 C   0  0  0  0  0  2  0  0  0  0  0  0
  185.5220  178.4580  142.1810 C   0  0  0  0  0  3  0  0  0  0  0  0
  188.0760  176.8760  145.1480 C   0  0  1  0  0  3  0  0  0  0  0  0
  186.6440  177.2650  145.5220 C   0  0  0  0  0  2  0  0  0  0  0  0
  186.0220  178.1320  144.5210 N   0  0  0  0  0  0  0  0  0  0  0  0
  187.6800  177.4480  142.7030 C   0  0  0  0  0  2  0  0  0  0  0  0
  186.3620  178.0160  143.1220 C   0  0  0  0  0  0  0  0  0  0  0  0
  188.1740  176.3980  143.6930 C   0  0  0  0  0  2  0  0  0  0  0  0
  184.2200  179.1260  142.5360 C   0  0  2  0  0  3  0  0  0  0  0  0
  183.7190  178.6730  143.9050 C   0  0  0  0  0  2  0  0  0  0  0  0
  189.1210  177.9150  145.5820 C   0  0  0  0  0  3  0  0  0  0  0  0
  189.2690  177.9410  147.0920 C   0  0  0  0  0  1  0  0  0  0  0  0
  190.4810  177.7320  144.9280 C   0  0  0  0  0  1  0  0  0  0  0  0
  1  4  1  1  0  0  0
  1 20  1  0  0  0  0
  3  8  1  0  0  0  0
  3 14  1  0  0  0  0
  6  7  2  0  0  0  0
  7  5  1  0  0  0  0
  8 10  1  6  0  0  0
  8  9  1  0  0  0  0
  9  1  1  0  0  0  0
  9  5  1  1  0  0  0
 10  6  1  0  0  0  0
 11  2  1  0  0  0  0
 11 12  1  0  0  0  0
 12 17  1  6  0  0  0
 12 13  1  0  0  0  0
 13 15  1  0  0  0  0
 14  2  1  6  0  0  0
 14 16  1  0  0  0  0
 16 15  1  1  0  0  0
 16  1  1  0  0  0  0
 17 19  1  0  0  0  0
 18 17  2  0  0  0  0
 20 21  1  0  0  0  0
 23 30  1  0  0  0  0
 23 28  2  0  0  0  0
 24 25  1  0  0  0  0
 24 32  1  6  0  0  0
 26 22  1  0  0  0  0
 26 25  1  0  0  0  0
 27 28  1  0  0  0  0
 27 29  1  0  0  0  0
 28 26  1  0  0  0  0
 29 24  1  0  0  0  0
 30 21  1  6  0  0  0
 30 31  1  0  0  0  0
 31 22  1  0  0  0  0
 32 33  1  0  0  0  0
 34 32  1  0  0  0  0
M  END
>  <MODEL>
1

>  <REMARK>
 VINA RESULT:      -8.8      0.000      0.000
  Name = 
  5 active torsions:
  status: ('A' for Active; 'I' for Inactive)
    1  A    between atoms: C_1  and  C_8
    2  A    between atoms: C_3  and  C_25
    3  A    between atoms: C_7  and  C_11
    4  A    between atoms: C_8  and  C_18
    5  A    between atoms: C_18  and  C_30
                            x       y       z     vdW  Elec       q    Type
                         _______ _______ _______ _____ _____    ______ ____

>  <TORSDO>
F 5

$$$$
=
 OpenBabel11052415433D

 34 38  0  0  1  0  0  0  0  0999 V2000
  187.8960  177.2980  144.4320 C   0  0  1  0  0  0  0  0  0  0  0  0
  191.3010  178.6180  142.9900 C   0  0  0  0  0  2  0  0  0  0  0  0
  190.6410  177.9290  145.2070 O   0  0  0  0  0  0  0  0  0  0  0  0
  187.0690  176.2050  144.1530 O   0  0  0  0  0  1  0  0  0  0  0  0
  187.3150  177.3190  146.9200 C   0  0  0  0  0  2  0  0  0  0  0  0
  189.1080  177.8000  148.5970 C   0  0  0  0  0  3  0  0  0  0  0  0
  187.8300  177.5080  148.3220 C   0  0  0  0  0  3  0  0  0  0  0  0
  189.6060  178.1220  146.1460 C   0  0  1  0  0  3  0  0  0  0  0  0
  188.4320  177.1500  145.8760 C   0  0  2  0  0  3  0  0  0  0  0  0
  190.1730  177.8590  147.5380 C   0  0  0  0  0  2  0  0  0  0  0  0
  191.7180  177.4510  142.1020 C   0  0  0  0  0  2  0  0  0  0  0  0
  190.7450  177.3310  140.9300 C   0  0  2  0  0  3  0  0  0  0  0  0
  189.6410  176.5410  141.2820 O   0  0  0  0  0  0  0  0  0  0  0  0
  190.1440  178.3150  143.9530 C   0  0  2  0  0  3  0  0  0  0  0  0
  188.7680  177.3700  141.9970 C   0  0  0  0  0  2  0  0  0  0  0  0
  189.1080  177.2760  143.4840 C   0  0  2  0  0  3  0  0  0  0  0  0
  191.4400  176.7240  139.7600 C   0  0  0  0  0  0  0  0  0  0  0  0
  190.8100  175.7480  138.9970 O   0  0  0  0  0  0  0  0  0  0  0  0
  192.6080  177.0870  139.4700 O   0  0  0  0  0  1  0  0  0  0  0  0
  187.0980  178.6130  144.2990 C   0  0  0  0  0  2  0  0  0  0  0  0
  185.6110  178.4520  144.5900 C   0  0  0  0  0  2  0  0  0  0  0  0
  184.0690  178.7930  141.1060 C   0  0  0  0  0  2  0  0  0  0  0  0
  183.3310  179.1120  143.8520 C   0  0  0  0  0  3  0  0  0  0  0  0
  180.2630  178.4990  141.0180 C   0  0  1  0  0  3  0  0  0  0  0  0
  181.7030  178.1310  140.6540 C   0  0  0  0  0  2  0  0  0  0  0  0
  182.6790  178.7400  141.5570 N   0  0  0  0  0  0  0  0  0  0  0  0
  180.9380  179.1480  143.3810 C   0  0  0  0  0  2  0  0  0  0  0  0
  182.3590  178.9840  142.9440 C   0  0  0  0  0  0  0  0  0  0  0  0
  179.9910  178.3200  142.5170 C   0  0  0  0  0  2  0  0  0  0  0  0
  184.7860  179.0510  143.4660 C   0  0  2  0  0  3  0  0  0  0  0  0
  184.9860  178.2380  142.1890 C   0  0  0  0  0  2  0  0  0  0  0  0
  179.8040  179.8330  140.4100 C   0  0  0  0  0  3  0  0  0  0  0  0
  179.0960  179.6140  139.0860 C   0  0  0  0  0  1  0  0  0  0  0  0
  178.9330  180.6650  141.3360 C   0  0  0  0  0  1  0  0  0  0  0  0
  1  4  1  6  0  0  0
  1  9  1  0  0  0  0
  3  8  1  0  0  0  0
  5  7  1  0  0  0  0
  7  6  2  0  0  0  0
  8 10  1  1  0  0  0
  9  8  1  0  0  0  0
  9  5  1  1  0  0  0
 10  6  1  0  0  0  0
 11  2  1  0  0  0  0
 12 17  1  6  0  0  0
 12 13  1  0  0  0  0
 12 11  1  0  0  0  0
 13 15  1  0  0  0  0
 14  2  1  6  0  0  0
 14  3  1  0  0  0  0
 16 15  1  6  0  0  0
 16 14  1  0  0  0  0
 16  1  1  0  0  0  0
 18 17  2  0  0  0  0
 19 17  1  0  0  0  0
 20  1  1  0  0  0  0
 20 21  1  0  0  0  0
 22 26  1  0  0  0  0
 22 31  1  0  0  0  0
 24 32  1  1  0  0  0
 24 29  1  0  0  0  0
 25 24  1  0  0  0  0
 25 26  1  0  0  0  0
 26 28  1  0  0  0  0
 28 27  1  0  0  0  0
 28 23  2  0  0  0  0
 29 27  1  0  0  0  0
 30 23  1  0  0  0  0
 30 21  1  1  0  0  0
 31 30  1  0  0  0  0
 32 34  1  0  0  0  0
 33 32  1  0  0  0  0
M  END
>  <MODEL>
2

>  <REMARK>
 VINA RESULT:      -8.8      3.308      8.165
  Name = 
  5 active torsions:
  status: ('A' for Active; 'I' for Inactive)
    1  A    between atoms: C_1  and  C_8
    2  A    between atoms: C_3  and  C_25
    3  A    between atoms: C_7  and  C_11
    4  A    between atoms: C_8  and  C_18
    5  A    between atoms: C_18  and  C_30
                            x       y       z     vdW  Elec       q    Type
                         _______ _______ _______ _____ _____    ______ ____

>  <TORSDO>
F 5

$$$$
=
 OpenBabel11052415433D

 34 38  0  0  1  0  0  0  0  0999 V2000
  187.8900  177.3550  143.8030 C   0  0  1  0  0  0  0  0  0  0  0  0
  189.5160  178.4380  147.2090 C   0  0  0  0  0  2  0  0  0  0  0  0
  187.2160  178.1990  146.5170 O   0  0  0  0  0  0  0  0  0  0  0  0
  187.9520  176.2080  143.0050 O   0  0  0  0  0  1  0  0  0  0  0  0
  185.4680  177.8690  143.1700 C   0  0  0  0  0  2  0  0  0  0  0  0
  183.8960  178.7260  144.9170 C   0  0  0  0  0  3  0  0  0  0  0  0
  184.1260  178.3530  143.6510 C   0  0  0  0  0  3  0  0  0  0  0  0
  186.3530  178.5540  145.4590 C   0  0  1  0  0  3  0  0  0  0  0  0
  186.4370  177.5180  144.3120 C   0  0  2  0  0  3  0  0  0  0  0  0
  184.9280  178.5950  146.0020 C   0  0  0  0  0  2  0  0  0  0  0  0
  190.1390  177.1250  147.6680 C   0  0  0  0  0  2  0  0  0  0  0  0
  191.2780  176.7440  146.7220 C   0  0  2  0  0  3  0  0  0  0  0  0
  190.7900  176.0150  145.6280 O   0  0  0  0  0  0  0  0  0  0  0  0
  188.5300  178.3090  146.0380 C   0  0  2  0  0  3  0  0  0  0  0  0
  190.2730  176.9510  144.7230 C   0  0  0  0  0  2  0  0  0  0  0  0
  188.7940  177.1700  145.0340 C   0  0  2  0  0  3  0  0  0  0  0  0
  192.2880  175.9280  147.4550 C   0  0  0  0  0  0  0  0  0  0  0  0
  192.8030  176.3700  148.6680 O   0  0  0  0  0  1  0  0  0  0  0  0
  192.6860  174.8410  146.9640 O   0  0  0  0  0  0  0  0  0  0  0  0
  188.3010  178.5950  142.9810 C   0  0  0  0  0  2  0  0  0  0  0  0
  189.4940  178.3480  142.0660 C   0  0  0  0  0  2  0  0  0  0  0  0
  188.0100  177.6350  138.6120 C   0  0  0  0  0  2  0  0  0  0  0  0
  190.2650  176.8880  140.2070 C   0  0  0  0  0  3  0  0  0  0  0  0
  190.5320  176.4090  136.0210 C   0  0  1  0  0  3  0  0  0  0  0  0
  189.4620  177.3360  136.6020 C   0  0  0  0  0  2  0  0  0  0  0  0
  189.2430  177.1090  138.0300 N   0  0  0  0  0  0  0  0  0  0  0  0
  191.4950  175.9390  138.3260 C   0  0  0  0  0  2  0  0  0  0  0  0
  190.3210  176.6760  138.8890 C   0  0  0  0  0  0  0  0  0  0  0  0
  191.7930  176.3770  136.8950 C   0  0  0  0  0  2  0  0  0  0  0  0
  189.0700  177.5410  140.8520 C   0  0  2  0  0  3  0  0  0  0  0  0
  188.3310  178.4410  139.8660 C   0  0  0  0  0  2  0  0  0  0  0  0
  189.9820  175.0410  135.5900 C   0  0  0  0  0  3  0  0  0  0  0  0
  188.7490  175.1990  134.7200 C   0  0  0  0  0  1  0  0  0  0  0  0
  191.0030  174.1590  134.8920 C   0  0  0  0  0  1  0  0  0  0  0  0
  1  4  1  6  0  0  0
  1  9  1  0  0  0  0
  1 16  1  0  0  0  0
  2 11  1  0  0  0  0
  5  7  1  0  0  0  0
  6 10  1  0  0  0  0
  7  6  2  0  0  0  0
  8 10  1  1  0  0  0
  8  3  1  0  0  0  0
  9  5  1  6  0  0  0
  9  8  1  0  0  0  0
 12 17  1  1  0  0  0
 12 11  1  0  0  0  0
 13 12  1  0  0  0  0
 14  3  1  0  0  0  0
 14  2  1  1  0  0  0
 15 13  1  0  0  0  0
 16 15  1  6  0  0  0
 16 14  1  0  0  0  0
 17 18  1  0  0  0  0
 19 17  2  0  0  0  0
 20  1  1  0  0  0  0
 21 20  1  0  0  0  0
 22 31  1  0  0  0  0
 23 30  1  0  0  0  0
 24 32  1  1  0  0  0
 24 25  1  0  0  0  0
 24 29  1  0  0  0  0
 25 26  1  0  0  0  0
 26 22  1  0  0  0  0
 26 28  1  0  0  0  0
 27 28  1  0  0  0  0
 28 23  2  0  0  0  0
 29 27  1  0  0  0  0
 30 21  1  1  0  0  0
 31 30  1  0  0  0  0
 33 32  1  0  0  0  0
 34 32  1  0  0  0  0
M  END
>  <MODEL>
3

>  <REMARK>
 VINA RESULT:      -8.5      4.290      8.780
  Name = 
  5 active torsions:
  status: ('A' for Active; 'I' for Inactive)
    1  A    between atoms: C_1  and  C_8
    2  A    between atoms: C_3  and  C_25
    3  A    between atoms: C_7  and  C_11
    4  A    between atoms: C_8  and  C_18
    5  A    between atoms: C_18  and  C_30
                            x       y       z     vdW  Elec       q    Type
                         _______ _______ _______ _____ _____    ______ ____

>  <TORSDO>
F 5

$$$$
=
 OpenBabel11052415433D

 34 38  0  0  1  0  0  0  0  0999 V2000
  183.9730  178.8210  139.3480 C   0  0  1  0  0  0  0  0  0  0  0  0
  184.4670  175.8050  136.8820 C   0  0  0  0  0  2  0  0  0  0  0  0
  182.5310  177.1290  137.4510 O   0  0  0  0  0  0  0  0  0  0  0  0
  184.5280  180.1000  139.4590 O   0  0  0  0  0  1  0  0  0  0  0  0
  181.6950  179.5470  140.2480 C   0  0  0  0  0  2  0  0  0  0  0  0
  179.6120  178.6040  139.2310 C   0  0  0  0  0  3  0  0  0  0  0  0
  180.2000  179.4070  140.1290 C   0  0  0  0  0  3  0  0  0  0  0  0
  181.8450  177.6280  138.5780 C   0  0  1  0  0  3  0  0  0  0  0  0
  182.4620  178.9690  139.0470 C   0  0  2  0  0  3  0  0  0  0  0  0
  180.3870  177.8510  138.1860 C   0  0  0  0  0  2  0  0  0  0  0  0
  185.3310  176.4470  135.8020 C   0  0  0  0  0  2  0  0  0  0  0  0
  186.7020  176.7870  136.3830 C   0  0  2  0  0  3  0  0  0  0  0  0
  186.6860  178.0550  136.9830 O   0  0  0  0  0  0  0  0  0  0  0  0
  183.8290  176.7940  137.8680 C   0  0  2  0  0  3  0  0  0  0  0  0
  186.1230  177.8880  138.2550 C   0  0  0  0  0  2  0  0  0  0  0  0
  184.6120  178.0890  138.1550 C   0  0  2  0  0  3  0  0  0  0  0  0
  187.7270  176.7610  135.3010 C   0  0  0  0  0  0  0  0  0  0  0  0
  188.2850  175.5560  134.8900 O   0  0  0  0  0  1  0  0  0  0  0  0
  188.0990  177.8370  134.7670 O   0  0  0  0  0  0  0  0  0  0  0  0
  184.1730  178.0400  140.6640 C   0  0  0  0  0  2  0  0  0  0  0  0
  185.0330  178.7780  141.6820 C   0  0  0  0  0  2  0  0  0  0  0  0
  188.7910  178.0610  141.6840 C   0  0  0  0  0  2  0  0  0  0  0  0
  186.5230  177.7870  143.4080 C   0  0  0  0  0  3  0  0  0  0  0  0
  190.3650  177.8450  145.1560 C   0  0  1  0  0  3  0  0  0  0  0  0
  190.1810  178.3810  143.7350 C   0  0  0  0  0  2  0  0  0  0  0  0
  188.9170  177.9530  143.1370 N   0  0  0  0  0  0  0  0  0  0  0  0
  187.8730  177.4110  145.4040 C   0  0  0  0  0  2  0  0  0  0  0  0
  187.7430  177.7390  143.9510 C   0  0  0  0  0  0  0  0  0  0  0  0
  189.1110  178.0610  146.0130 C   0  0  0  0  0  2  0  0  0  0  0  0
  186.3230  178.0200  141.9330 C   0  0  2  0  0  3  0  0  0  0  0  0
  187.4980  178.7860  141.3290 C   0  0  0  0  0  2  0  0  0  0  0  0
  190.9690  176.4330  145.1990 C   0  0  0  0  0  3  0  0  0  0  0  0
  191.7220  176.1230  143.9190 C   0  0  0  0  0  1  0  0  0  0  0  0
  191.8610  176.1810  146.4040 C   0  0  0  0  0  1  0  0  0  0  0  0
  1  4  1  1  0  0  0
  1 20  1  0  0  0  0
  3 14  1  0  0  0  0
  3  8  1  0  0  0  0
  6  7  2  0  0  0  0
  7  5  1  0  0  0  0
  8 10  1  6  0  0  0
  8  9  1  0  0  0  0
  9  1  1  0  0  0  0
  9  5  1  1  0  0  0
 10  6  1  0  0  0  0
 11 12  1  0  0  0  0
 11  2  1  0  0  0  0
 12 17  1  6  0  0  0
 12 13  1  0  0  0  0
 13 15  1  0  0  0  0
 14  2  1  6  0  0  0
 14 16  1  0  0  0  0
 16 15  1  1  0  0  0
 16  1  1  0  0  0  0
 18 17  1  0  0  0  0
 19 17  2  0  0  0  0
 20 21  1  0  0  0  0
 22 26  1  0  0  0  0
 23 28  2  0  0  0  0
 24 32  1  6  0  0  0
 24 29  1  0  0  0  0
 25 24  1  0  0  0  0
 26 25  1  0  0  0  0
 26 28  1  0  0  0  0
 27 29  1  0  0  0  0
 28 27  1  0  0  0  0
 30 21  1  1  0  0  0
 30 23  1  0  0  0  0
 31 22  1  0  0  0  0
 31 30  1  0  0  0  0
 32 34  1  0  0  0  0
 33 32  1  0  0  0  0
M  END
>  <MODEL>
4

>  <REMARK>
 VINA RESULT:      -8.4      1.435      2.377
  Name = 
  5 active torsions:
  status: ('A' for Active; 'I' for Inactive)
    1  A    between atoms: C_1  and  C_8
    2  A    between atoms: C_3  and  C_25
    3  A    between atoms: C_7  and  C_11
    4  A    between atoms: C_8  and  C_18
    5  A    between atoms: C_18  and  C_30
                            x       y       z     vdW  Elec       q    Type
                         _______ _______ _______ _____ _____    ______ ____

>  <TORSDO>
F 5

$$$$
=
 OpenBabel11052415433D

 34 38  0  0  1  0  0  0  0  0999 V2000
  190.6080  176.0610  137.2920 C   0  0  1  0  0  0  0  0  0  0  0  0
  193.5140  173.5250  136.5540 C   0  0  0  0  0  2  0  0  0  0  0  0
  191.1830  173.5430  135.9260 O   0  0  0  0  0  0  0  0  0  0  0  0
  190.3980  177.4180  137.0260 O   0  0  0  0  0  1  0  0  0  0  0  0
  188.1320  175.4640  137.0950 C   0  0  0  0  0  2  0  0  0  0  0  0
  187.4670  173.3210  135.9900 C   0  0  0  0  0  3  0  0  0  0  0  0
  187.1230  174.4590  136.6070 C   0  0  0  0  0  3  0  0  0  0  0  0
  189.9040  173.7370  136.4890 C   0  0  1  0  0  3  0  0  0  0  0  0
  189.5430  175.2420  136.5250 C   0  0  2  0  0  3  0  0  0  0  0  0
  188.8890  172.9910  135.6280 C   0  0  0  0  0  2  0  0  0  0  0  0
  194.3900  174.3450  135.6140 C   0  0  0  0  0  2  0  0  0  0  0  0
  194.9970  175.5190  136.3810 C   0  0  2  0  0  3  0  0  0  0  0  0
  194.1270  176.6200  136.3710 O   0  0  0  0  0  0  0  0  0  0  0  0
  192.1170  174.1090  136.8080 C   0  0  2  0  0  3  0  0  0  0  0  0
  193.1740  176.3850  137.3700 C   0  0  0  0  0  2  0  0  0  0  0  0
  191.9890  175.6440  136.7540 C   0  0  2  0  0  3  0  0  0  0  0  0
  196.2970  175.9060  135.7620 C   0  0  0  0  0  0  0  0  0  0  0  0
  197.4820  175.7700  136.4750 O   0  0  0  0  0  1  0  0  0  0  0  0
  196.3190  176.3700  134.5940 O   0  0  0  0  0  0  0  0  0  0  0  0
  190.4880  175.7930  138.8070 C   0  0  0  0  0  2  0  0  0  0  0  0
  190.3870  177.0640  139.6420 C   0  0  0  0  0  2  0  0  0  0  0  0
  191.6850  177.5110  143.2120 C   0  0  0  0  0  2  0  0  0  0  0  0
  189.3010  176.7070  141.8490 C   0  0  0  0  0  3  0  0  0  0  0  0
  188.9650  178.0570  145.8350 C   0  0  1  0  0  3  0  0  0  0  0  0
  190.2220  178.3960  145.0330 C   0  0  0  0  0  2  0  0  0  0  0  0
  190.3660  177.5620  143.8410 N   0  0  0  0  0  0  0  0  0  0  0  0
  187.8950  176.9160  143.8310 C   0  0  0  0  0  2  0  0  0  0  0  0
  189.2070  177.0720  143.1310 C   0  0  0  0  0  0  0  0  0  0  0  0
  187.7260  177.9550  144.9350 C   0  0  0  0  0  2  0  0  0  0  0  0
  190.6130  176.7510  141.1090 C   0  0  2  0  0  3  0  0  0  0  0  0
  191.5580  177.7830  141.7180 C   0  0  0  0  0  2  0  0  0  0  0  0
  189.1690  176.8990  146.8240 C   0  0  0  0  0  3  0  0  0  0  0  0
  190.6280  176.7750  147.2240 C   0  0  0  0  0  1  0  0  0  0  0  0
  188.2940  176.9870  148.0640 C   0  0  0  0  0  1  0  0  0  0  0  0
  1  4  1  6  0  0  0
  1 20  1  0  0  0  0
  3  8  1  0  0  0  0
  3 14  1  0  0  0  0
  6  7  2  0  0  0  0
  7  5  1  0  0  0  0
  8 10  1  6  0  0  0
  8  9  1  0  0  0  0
  9  5  1  1  0  0  0
  9  1  1  0  0  0  0
 10  6  1  0  0  0  0
 11 12  1  0  0  0  0
 11  2  1  0  0  0  0
 12 17  1  6  0  0  0
 13 12  1  0  0  0  0
 13 15  1  0  0  0  0
 14  2  1  6  0  0  0
 16 14  1  0  0  0  0
 16  1  1  0  0  0  0
 16 15  1  1  0  0  0
 17 18  1  0  0  0  0
 19 17  2  0  0  0  0
 20 21  1  0  0  0  0
 22 26  1  0  0  0  0
 23 28  2  0  0  0  0
 24 32  1  6  0  0  0
 25 24  1  0  0  0  0
 26 25  1  0  0  0  0
 27 29  1  0  0  0  0
 28 27  1  0  0  0  0
 28 26  1  0  0  0  0
 29 24  1  0  0  0  0
 30 21  1  6  0  0  0
 30 31  1  0  0  0  0
 30 23  1  0  0  0  0
 31 22  1  0  0  0  0
 32 33  1  0  0  0  0
 32 34  1  0  0  0  0
M  END
>  <MODEL>
5

>  <REMARK>
 VINA RESULT:      -8.4      4.456      6.772
  Name = 
  5 active torsions:
  status: ('A' for Active; 'I' for Inactive)
    1  A    between atoms: C_1  and  C_8
    2  A    between atoms: C_3  and  C_25
    3  A    between atoms: C_7  and  C_11
    4  A    between atoms: C_8  and  C_18
    5  A    between atoms: C_18  and  C_30
                            x       y       z     vdW  Elec       q    Type
                         _______ _______ _______ _____ _____    ______ ____

>  <TORSDO>
F 5

$$$$
=
 OpenBabel11052415433D

 34 38  0  0  1  0  0  0  0  0999 V2000
  184.4760  178.8730  141.9990 C   0  0  1  0  0  0  0  0  0  0  0  0
  184.0670  176.9410  138.6040 C   0  0  0  0  0  2  0  0  0  0  0  0
  182.4660  178.0060  140.0640 O   0  0  0  0  0  0  0  0  0  0  0  0
  185.1760  180.0150  142.4000 O   0  0  0  0  0  1  0  0  0  0  0  0
  182.5560  179.2660  143.6370 C   0  0  0  0  0  2  0  0  0  0  0  0
  180.2080  178.7920  142.9180 C   0  0  0  0  0  3  0  0  0  0  0  0
  181.0680  179.2060  143.8570 C   0  0  0  0  0  3  0  0  0  0  0  0
  182.1130  178.0770  141.4280 C   0  0  1  0  0  3  0  0  0  0  0  0
  182.9610  179.1460  142.1590 C   0  0  2  0  0  3  0  0  0  0  0  0
  180.6370  178.4520  141.5170 C   0  0  0  0  0  2  0  0  0  0  0  0
  184.7240  177.9130  137.6310 C   0  0  0  0  0  2  0  0  0  0  0  0
  186.2210  177.9960  137.9280 C   0  0  2  0  0  3  0  0  0  0  0  0
  186.4780  178.9620  138.9120 O   0  0  0  0  0  0  0  0  0  0  0  0
  183.7810  177.5190  139.9980 C   0  0  2  0  0  3  0  0  0  0  0  0
  186.2070  178.3580  140.1460 C   0  0  0  0  0  2  0  0  0  0  0  0
  184.7430  178.6090  140.5060 C   0  0  2  0  0  3  0  0  0  0  0  0
  186.9620  178.3440  136.6830 C   0  0  0  0  0  0  0  0  0  0  0  0
  187.9040  179.3660  136.6880 O   0  0  0  0  0  1  0  0  0  0  0  0
  186.7230  177.7180  135.6190 O   0  0  0  0  0  0  0  0  0  0  0  0
  184.8880  177.6660  142.8680 C   0  0  0  0  0  2  0  0  0  0  0  0
  185.5660  178.0620  144.1730 C   0  0  0  0  0  2  0  0  0  0  0  0
  189.1460  176.7630  143.8060 C   0  0  0  0  0  2  0  0  0  0  0  0
  187.2250  177.2950  145.8590 C   0  0  0  0  0  3  0  0  0  0  0  0
  191.3060  177.1520  146.9300 C   0  0  1  0  0  3  0  0  0  0  0  0
  190.9230  177.3450  145.4620 C   0  0  0  0  0  2  0  0  0  0  0  0
  189.5280  176.9960  145.1980 N   0  0  0  0  0  0  0  0  0  0  0  0
  188.8700  177.2060  147.6570 C   0  0  0  0  0  2  0  0  0  0  0  0
  188.5100  177.1840  146.2060 C   0  0  0  0  0  0  0  0  0  0  0  0
  190.2690  177.7750  147.8750 C   0  0  0  0  0  2  0  0  0  0  0  0
  186.7820  177.1880  144.4230 C   0  0  2  0  0  3  0  0  0  0  0  0
  187.9040  177.5800  143.4660 C   0  0  0  0  0  2  0  0  0  0  0  0
  191.7350  175.7150  147.2630 C   0  0  0  0  0  3  0  0  0  0  0  0
  192.1900  174.9800  146.0160 C   0  0  0  0  0  1  0  0  0  0  0  0
  192.8020  175.6250  148.3410 C   0  0  0  0  0  1  0  0  0  0  0  0
  1  9  1  0  0  0  0
  1  4  1  1  0  0  0
  1 20  1  0  0  0  0
  3  8  1  0  0  0  0
  5  7  1  0  0  0  0
  6  7  2  0  0  0  0
  8 10  1  6  0  0  0
  8  9  1  0  0  0  0
  9  5  1  1  0  0  0
 10  6  1  0  0  0  0
 11 12  1  0  0  0  0
 11  2  1  0  0  0  0
 12 17  1  6  0  0  0
 12 13  1  0  0  0  0
 13 15  1  0  0  0  0
 14  2  1  6  0  0  0
 14  3  1  0  0  0  0
 14 16  1  0  0  0  0
 16 15  1  1  0  0  0
 16  1  1  0  0  0  0
 17 18  1  0  0  0  0
 19 17  2  0  0  0  0
 20 21  1  0  0  0  0
 22 26  1  0  0  0  0
 23 28  2  0  0  0  0
 24 32  1  1  0  0  0
 24 29  1  0  0  0  0
 25 24  1  0  0  0  0
 26 25  1  0  0  0  0
 26 28  1  0  0  0  0
 27 29  1  0  0  0  0
 28 27  1  0  0  0  0
 30 21  1  1  0  0  0
 30 23  1  0  0  0  0
 31 22  1  0  0  0  0
 31 30  1  0  0  0  0
 32 34  1  0  0  0  0
 33 32  1  0  0  0  0
M  END
>  <MODEL>
6

>  <REMARK>
 VINA RESULT:      -8.4      2.046      3.819
  Name = 
  5 active torsions:
  status: ('A' for Active; 'I' for Inactive)
    1  A    between atoms: C_1  and  C_8
    2  A    between atoms: C_3  and  C_25
    3  A    between atoms: C_7  and  C_11
    4  A    between atoms: C_8  and  C_18
    5  A    between atoms: C_18  and  C_30
                            x       y       z     vdW  Elec       q    Type
                         _______ _______ _______ _____ _____    ______ ____

>  <TORSDO>
F 5

$$$$
=
 OpenBabel11052415433D

 34 38  0  0  1  0  0  0  0  0999 V2000
  189.2970  177.3240  138.0200 C   0  0  1  0  0  0  0  0  0  0  0  0
  190.7630  173.8710  136.8580 C   0  0  0  0  0  2  0  0  0  0  0  0
  188.6570  174.9650  136.4180 O   0  0  0  0  0  0  0  0  0  0  0  0
  189.6960  178.6570  137.8800 O   0  0  0  0  0  1  0  0  0  0  0  0
  186.8060  177.8860  137.9710 C   0  0  0  0  0  2  0  0  0  0  0  0
  185.2270  176.3740  136.7550 C   0  0  0  0  0  3  0  0  0  0  0  0
  185.4410  177.4760  137.4850 C   0  0  0  0  0  3  0  0  0  0  0  0
  187.6150  175.6350  137.0930 C   0  0  1  0  0  3  0  0  0  0  0  0
  187.9540  177.1340  137.2760 C   0  0  2  0  0  3  0  0  0  0  0  0
  186.3450  175.5000  136.2580 C   0  0  0  0  0  2  0  0  0  0  0  0
  191.8770  174.3240  135.9210 C   0  0  0  0  0  2  0  0  0  0  0  0
  192.9650  175.0300  136.7290 C   0  0  2  0  0  3  0  0  0  0  0  0
  192.6680  176.3930  136.8740 O   0  0  0  0  0  0  0  0  0  0  0  0
  189.7750  174.9740  137.2660 C   0  0  2  0  0  3  0  0  0  0  0  0
  191.7450  176.4910  137.9230 C   0  0  0  0  0  2  0  0  0  0  0  0
  190.3330  176.4080  137.3440 C   0  0  2  0  0  3  0  0  0  0  0  0
  194.2800  174.8770  136.0430 C   0  0  0  0  0  0  0  0  0  0  0  0
  195.3880  175.5930  136.4800 O   0  0  0  0  0  1  0  0  0  0  0  0
  194.3820  174.1050  135.0550 O   0  0  0  0  0  0  0  0  0  0  0  0
  189.1250  176.9760  139.5140 C   0  0  0  0  0  2  0  0  0  0  0  0
  189.9570  177.8540  140.4410 C   0  0  0  0  0  2  0  0  0  0  0  0
  187.0620  177.9000  142.9410 C   0  0  0  0  0  2  0  0  0  0  0  0
  189.9100  178.1780  142.9050 C   0  0  0  0  0  3  0  0  0  0  0  0
  188.0550  177.0860  146.5370 C   0  0  1  0  0  3  0  0  0  0  0  0
  187.2910  176.9110  145.2230 C   0  0  0  0  0  2  0  0  0  0  0  0
  187.8890  177.6680  144.1250 N   0  0  0  0  0  0  0  0  0  0  0  0
  190.1390  177.8750  145.3140 C   0  0  0  0  0  2  0  0  0  0  0  0
  189.3140  177.8970  144.0670 C   0  0  0  0  0  0  0  0  0  0  0  0
  189.5670  176.9060  146.3440 C   0  0  0  0  0  2  0  0  0  0  0  0
  189.1240  178.3080  141.6260 C   0  0  2  0  0  3  0  0  0  0  0  0
  187.8300  177.5020  141.6860 C   0  0  0  0  0  2  0  0  0  0  0  0
  187.6260  178.3300  147.3290 C   0  0  0  0  0  3  0  0  0  0  0  0
  186.1520  178.6280  147.1200 C   0  0  0  0  0  1  0  0  0  0  0  0
  187.9360  178.2530  148.8140 C   0  0  0  0  0  1  0  0  0  0  0  0
  1  4  1  6  0  0  0
  1 20  1  0  0  0  0
  3  8  1  0  0  0  0
  3 14  1  0  0  0  0
  6  7  2  0  0  0  0
  7  5  1  0  0  0  0
  8 10  1  6  0  0  0
  8  9  1  0  0  0  0
  9  5  1  1  0  0  0
  9  1  1  0  0  0  0
 10  6  1  0  0  0  0
 11 12  1  0  0  0  0
 11  2  1  0  0  0  0
 12 17  1  6  0  0  0
 12 13  1  0  0  0  0
 13 15  1  0  0  0  0
 14  2  1  6  0  0  0
 14 16  1  0  0  0  0
 16 15  1  1  0  0  0
 16  1  1  0  0  0  0
 17 18  1  0  0  0  0
 19 17  2  0  0  0  0
 20 21  1  0  0  0  0
 22 26  1  0  0  0  0
 23 28  2  0  0  0  0
 24 32  1  6  0  0  0
 25 24  1  0  0  0  0
 26 25  1  0  0  0  0
 27 29  1  0  0  0  0
 28 26  1  0  0  0  0
 28 27  1  0  0  0  0
 29 24  1  0  0  0  0
 30 21  1  6  0  0  0
 30 31  1  0  0  0  0
 30 23  1  0  0  0  0
 31 22  1  0  0  0  0
 32 34  1  0  0  0  0
 33 32  1  0  0  0  0
M  END
>  <MODEL>
7

>  <REMARK>
 VINA RESULT:      -8.3      2.912      4.999
  Name = 
  5 active torsions:
  status: ('A' for Active; 'I' for Inactive)
    1  A    between atoms: C_1  and  C_8
    2  A    between atoms: C_3  and  C_25
    3  A    between atoms: C_7  and  C_11
    4  A    between atoms: C_8  and  C_18
    5  A    between atoms: C_18  and  C_30
                            x       y       z     vdW  Elec       q    Type
                         _______ _______ _______ _____ _____    ______ ____

>  <TORSDO>
F 5

$$$$
=
 OpenBabel11052415433D

 34 38  0  0  1  0  0  0  0  0999 V2000
  187.6650  177.4020  144.2970 C   0  0  1  0  0  0  0  0  0  0  0  0
  191.1720  178.6540  143.0490 C   0  0  0  0  0  2  0  0  0  0  0  0
  190.3750  177.9800  145.2250 O   0  0  0  0  0  0  0  0  0  0  0  0
  186.8350  176.3250  143.9720 O   0  0  0  0  0  1  0  0  0  0  0  0
  186.9470  177.4380  146.7480 C   0  0  0  0  0  2  0  0  0  0  0  0
  188.6510  177.8850  148.5240 C   0  0  0  0  0  3  0  0  0  0  0  0
  187.3850  177.6170  148.1770 C   0  0  0  0  0  3  0  0  0  0  0  0
  189.2930  178.1950  146.1040 C   0  0  1  0  0  3  0  0  0  0  0  0
  188.1170  177.2450  145.7690 C   0  0  2  0  0  3  0  0  0  0  0  0
  189.7750  177.9220  147.5260 C   0  0  0  0  0  2  0  0  0  0  0  0
  191.6150  177.4780  142.1860 C   0  0  0  0  0  2  0  0  0  0  0  0
  190.7070  177.3760  140.9610 C   0  0  2  0  0  3  0  0  0  0  0  0
  189.5700  176.6080  141.2500 O   0  0  0  0  0  0  0  0  0  0  0  0
  189.9560  178.3750  143.9450 C   0  0  2  0  0  3  0  0  0  0  0  0
  188.6740  177.4550  141.9150 C   0  0  0  0  0  2  0  0  0  0  0  0
  188.9280  177.3550  143.4180 C   0  0  2  0  0  3  0  0  0  0  0  0
  191.4550  176.7540  139.8310 C   0  0  0  0  0  0  0  0  0  0  0  0
  192.7670  177.1260  139.5680 O   0  0  0  0  0  1  0  0  0  0  0  0
  190.8890  175.8970  139.1050 O   0  0  0  0  0  0  0  0  0  0  0  0
  186.9030  178.7320  144.1200 C   0  0  0  0  0  2  0  0  0  0  0  0
  185.5170  178.7250  144.7520 C   0  0  0  0  0  2  0  0  0  0  0  0
  182.1790  178.5900  142.8880 C   0  0  0  0  0  2  0  0  0  0  0  0
  184.9840  178.4410  142.3410 C   0  0  0  0  0  3  0  0  0  0  0  0
  182.3880  179.5090  139.1880 C   0  0  1  0  0  3  0  0  0  0  0  0
  181.8990  179.6270  140.6330 C   0  0  0  0  0  2  0  0  0  0  0  0
  182.7380  178.8790  141.5680 N   0  0  0  0  0  0  0  0  0  0  0  0
  184.7070  178.7940  139.9430 C   0  0  0  0  0  2  0  0  0  0  0  0
  184.1540  178.7140  141.3310 C   0  0  0  0  0  0  0  0  0  0  0  0
  183.8990  179.7530  139.0760 C   0  0  0  0  0  2  0  0  0  0  0  0
  184.4800  178.2540  143.7490 C   0  0  2  0  0  3  0  0  0  0  0  0
  183.1690  179.0020  143.9710 C   0  0  0  0  0  2  0  0  0  0  0  0
  181.8580  178.2590  138.4670 C   0  0  0  0  0  3  0  0  0  0  0  0
  180.6080  177.7290  139.1440 C   0  0  0  0  0  1  0  0  0  0  0  0
  181.6000  178.4660  136.9840 C   0  0  0  0  0  1  0  0  0  0  0  0
  1  4  1  6  0  0  0
  1  9  1  0  0  0  0
  3  8  1  0  0  0  0
  5  7  1  0  0  0  0
  7  6  2  0  0  0  0
  8 10  1  1  0  0  0
  9  8  1  0  0  0  0
  9  5  1  1  0  0  0
 10  6  1  0  0  0  0
 11  2  1  0  0  0  0
 12 17  1  6  0  0  0
 12 13  1  0  0  0  0
 12 11  1  0  0  0  0
 13 15  1  0  0  0  0
 14  2  1  6  0  0  0
 14  3  1  0  0  0  0
 16 15  1  6  0  0  0
 16 14  1  0  0  0  0
 16  1  1  0  0  0  0
 18 17  1  0  0  0  0
 19 17  2  0  0  0  0
 20  1  1  0  0  0  0
 20 21  1  0  0  0  0
 22 31  1  0  0  0  0
 23 30  1  0  0  0  0
 24 32  1  1  0  0  0
 24 25  1  0  0  0  0
 25 26  1  0  0  0  0
 26 22  1  0  0  0  0
 27 28  1  0  0  0  0
 28 26  1  0  0  0  0
 28 23  2  0  0  0  0
 29 24  1  0  0  0  0
 29 27  1  0  0  0  0
 30 31  1  0  0  0  0
 30 21  1  1  0  0  0
 32 33  1  0  0  0  0
 34 32  1  0  0  0  0
M  END
>  <MODEL>
8

>  <REMARK>
 VINA RESULT:      -8.2      2.891      7.809
  Name = 
  5 active torsions:
  status: ('A' for Active; 'I' for Inactive)
    1  A    between atoms: C_1  and  C_8
    2  A    between atoms: C_3  and  C_25
    3  A    between atoms: C_7  and  C_11
    4  A    between atoms: C_8  and  C_18
    5  A    between atoms: C_18  and  C_30
                            x       y       z     vdW  Elec       q    Type
                         _______ _______ _______ _____ _____    ______ ____

>  <TORSDO>
F 5

$$$$
=
 OpenBabel11052415433D

 34 38  0  0  1  0  0  0  0  0999 V2000
  190.3660  175.9260  136.2040 C   0  0  1  0  0  0  0  0  0  0  0  0
  193.2840  173.5020  137.2180 C   0  0  0  0  0  2  0  0  0  0  0  0
  191.0700  173.0940  136.3480 O   0  0  0  0  0  0  0  0  0  0  0  0
  190.2300  176.9670  135.2790 O   0  0  0  0  0  1  0  0  0  0  0  0
  187.9310  175.1860  135.9860 C   0  0  0  0  0  2  0  0  0  0  0  0
  187.3800  172.7460  135.9970 C   0  0  0  0  0  3  0  0  0  0  0  0
  186.9790  174.0210  135.9200 C   0  0  0  0  0  3  0  0  0  0  0  0
  189.7290  173.4740  136.5590 C   0  0  1  0  0  3  0  0  0  0  0  0
  189.4030  174.7840  135.8000 C   0  0  2  0  0  3  0  0  0  0  0  0
  188.8310  172.3530  136.0450 C   0  0  0  0  0  2  0  0  0  0  0  0
  194.3070  173.8010  136.1290 C   0  0  0  0  0  2  0  0  0  0  0  0
  194.8250  175.2290  136.2950 C   0  0  2  0  0  3  0  0  0  0  0  0
  193.9940  176.1380  135.6250 O   0  0  0  0  0  0  0  0  0  0  0  0
  191.8800  174.0660  136.9560 C   0  0  2  0  0  3  0  0  0  0  0  0
  192.9000  176.3750  136.4680 C   0  0  0  0  0  2  0  0  0  0  0  0
  191.7990  175.3680  136.1380 C   0  0  2  0  0  3  0  0  0  0  0  0
  196.2100  175.3280  135.7530 C   0  0  0  0  0  0  0  0  0  0  0  0
  197.1980  175.9970  136.4660 O   0  0  0  0  0  1  0  0  0  0  0  0
  196.4830  174.8140  134.6380 O   0  0  0  0  0  0  0  0  0  0  0  0
  190.0200  176.4280  137.6220 C   0  0  0  0  0  2  0  0  0  0  0  0
  189.6210  177.8980  137.6640 C   0  0  0  0  0  2  0  0  0  0  0  0
  187.7560  178.5820  140.9340 C   0  0  0  0  0  2  0  0  0  0  0  0
  190.2670  177.5410  140.0380 C   0  0  0  0  0  3  0  0  0  0  0  0
  188.9310  176.4860  143.9010 C   0  0  1  0  0  3  0  0  0  0  0  0
  187.9260  177.0310  142.8840 C   0  0  0  0  0  2  0  0  0  0  0  0
  188.5780  177.6970  141.7570 N   0  0  0  0  0  0  0  0  0  0  0  0
  190.8130  176.5410  142.1940 C   0  0  0  0  0  2  0  0  0  0  0  0
  189.8720  177.2630  141.2840 C   0  0  0  0  0  0  0  0  0  0  0  0
  190.0600  175.7010  143.2210 C   0  0  0  0  0  2  0  0  0  0  0  0
  189.4080  178.3460  139.0980 C   0  0  2  0  0  3  0  0  0  0  0  0
  187.9300  178.2290  139.4610 C   0  0  0  0  0  2  0  0  0  0  0  0
  189.3720  177.5300  144.9380 C   0  0  0  0  0  3  0  0  0  0  0  0
  188.2350  177.8770  145.8800 C   0  0  0  0  0  1  0  0  0  0  0  0
  190.6040  177.1270  145.7330 C   0  0  0  0  0  1  0  0  0  0  0  0
  1  4  1  6  0  0  0
  1 20  1  0  0  0  0
  3  8  1  0  0  0  0
  3 14  1  0  0  0  0
  6 10  1  0  0  0  0
  7  5  1  0  0  0  0
  7  6  2  0  0  0  0
  8 10  1  6  0  0  0
  9  5  1  1  0  0  0
  9  1  1  0  0  0  0
  9  8  1  0  0  0  0
 11 12  1  0  0  0  0
 11  2  1  0  0  0  0
 12 17  1  6  0  0  0
 13 12  1  0  0  0  0
 13 15  1  0  0  0  0
 14  2  1  6  0  0  0
 16  1  1  0  0  0  0
 16 15  1  1  0  0  0
 16 14  1  0  0  0  0
 17 18  1  0  0  0  0
 19 17  2  0  0  0  0
 20 21  1  0  0  0  0
 22 26  1  0  0  0  0
 23 28  2  0  0  0  0
 24 32  1  6  0  0  0
 25 24  1  0  0  0  0
 26 25  1  0  0  0  0
 27 29  1  0  0  0  0
 28 26  1  0  0  0  0
 28 27  1  0  0  0  0
 29 24  1  0  0  0  0
 30 21  1  6  0  0  0
 30 31  1  0  0  0  0
 30 23  1  0  0  0  0
 31 22  1  0  0  0  0
 32 34  1  0  0  0  0
 32 33  1  0  0  0  0
M  END
>  <MODEL>
9

>  <REMARK>
 VINA RESULT:      -8.1      4.199      6.702
  Name = 
  5 active torsions:
  status: ('A' for Active; 'I' for Inactive)
    1  A    between atoms: C_1  and  C_8
    2  A    between atoms: C_3  and  C_25
    3  A    between atoms: C_7  and  C_11
    4  A    between atoms: C_8  and  C_18
    5  A    between atoms: C_18  and  C_30
                            x       y       z     vdW  Elec       q    Type
                         _______ _______ _______ _____ _____    ______ ____

>  <TORSDO>
F 5

$$$$
