=
 OpenBabel11052413073D

 31 34  0  0  1  0  0  0  0  0999 V2000
  184.3700  178.5830  145.5310 C   0  0  0  0  0  0  0  0  0  0  0  0
  186.2050  178.1890  142.3520 C   0  0  1  0  0  3  0  0  0  0  0  0
  187.5540  177.6280  142.7100 C   0  0  0  0  0  0  0  0  0  0  0  0
  189.2250  176.7430  144.3980 C   0  0  0  0  0  2  0  0  0  0  0  0
  185.2080  178.4410  143.2420 C   0  0  0  0  0  0  0  0  0  0  0  0
  183.1830  179.1520  145.0750 C   0  0  0  0  0  3  0  0  0  0  0  0
  187.7610  176.8580  143.9990 C   0  0  0  0  0  2  0  0  0  0  0  0
  184.6470  178.7550  140.4570 C   0  0  1  0  0  3  0  0  0  0  0  0
  184.5590  178.3650  146.8880 O   0  0  0  0  0  1  0  0  0  0  0  0
  188.3080  178.2360  140.4430 C   0  0  0  0  0  3  0  0  0  0  0  0
  190.0080  176.2010  143.2200 C   0  0  2  0  0  3  0  0  0  0  0  0
  183.7480  179.1920  141.5240 N   0  0  0  0  0  2  0  0  0  0  0  0
  185.9970  178.5720  140.9770 N   0  0  0  0  0  0  0  0  0  0  0  0
  185.3720  178.2400  144.6230 C   0  0  0  0  0  3  0  0  0  0  0  0
  191.7030  175.9480  143.6920 Cl  0  0  0  0  0  0  0  0  0  0  0  0
  183.9820  179.0030  142.7890 C   0  0  0  0  0  0  0  0  0  0  0  0
  182.9930  179.3640  143.7100 C   0  0  0  0  0  3  0  0  0  0  0  0
  187.1000  178.6470  140.0690 C   0  0  0  0  0  3  0  0  0  0  0  0
  188.5420  177.6640  141.7800 C   0  0  0  0  0  0  0  0  0  0  0  0
  189.9450  177.2070  142.0780 C   0  0  0  0  0  2  0  0  0  0  0  0
  182.8750  177.1240  139.9040 C   0  0  0  0  0  3  0  0  0  0  0  0
  184.1640  177.4520  139.9060 C   0  0  0  0  0  3  0  0  0  0  0  0
  182.4600  175.7920  139.3650 C   0  0  0  0  0  2  0  0  0  0  0  0
  182.9890  175.5680  137.9500 C   0  0  0  0  0  2  0  0  0  0  0  0
  183.5090  174.1510  137.7150 C   0  0  0  0  0  2  0  0  0  0  0  0
  185.7170  173.0560  137.5820 C   0  0  0  0  0  1  0  0  0  0  0  0
  184.8480  174.1540  136.9990 C   0  0  2  0  0  3  0  0  0  0  0  0
  186.3550  176.0410  136.2260 C   0  0  0  0  0  0  0  0  0  0  0  0
  186.5810  175.4710  135.1270 O   0  0  0  0  0  0  0  0  0  0  0  0
  186.9910  177.3520  136.5210 C   0  0  0  0  0  1  0  0  0  0  0  0
  185.4930  175.4440  137.1960 N   0  0  0  0  0  2  0  0  0  0  0  0
  1  9  1  0  0  0  0
  2  3  1  1  0  0  0
  2  5  1  0  0  0  0
  3  7  1  0  0  0  0
  5 14  1  0  0  0  0
  6  1  1  0  0  0  0
  7  4  1  0  0  0  0
  8 22  1  1  0  0  0
  8 13  1  0  0  0  0
  8 12  1  0  0  0  0
 10 19  1  0  0  0  0
 11 15  1  1  0  0  0
 11  4  1  0  0  0  0
 12 16  1  0  0  0  0
 13  2  1  0  0  0  0
 14  1  2  0  0  0  0
 16  5  2  0  0  0  0
 16 17  1  0  0  0  0
 17  6  2  0  0  0  0
 18 10  2  0  0  0  0
 18 13  1  0  0  0  0
 19 20  1  0  0  0  0
 19  3  2  0  0  0  0
 20 11  1  0  0  0  0
 21 22  2  0  0  0  0
 23 21  1  0  0  0  0
 24 23  1  0  0  0  0
 25 24  1  0  0  0  0
 27 31  1  0  0  0  0
 27 26  1  1  0  0  0
 27 25  1  0  0  0  0
 28 30  1  0  0  0  0
 28 31  1  0  0  0  0
 29 28  2  0  0  0  0
M  END
>  <MODEL>
1

>  <REMARK>
 VINA RESULT:      -7.7      0.000      0.000
  Name = 
  6 active torsions:
  status: ('A' for Active; 'I' for Inactive)
    1  A    between atoms: C_3  and  C_19
    2  A    between atoms: C_3  and  C_22
    3  A    between atoms: C_7  and  C_9
    4  A    between atoms: C_7  and  C_22
    5  A    between atoms: C_15  and  C_23
    6  A    between atoms: C_19  and  N_24
                            x       y       z     vdW  Elec       q    Type
                         _______ _______ _______ _____ _____    ______ ____

>  <TORSDO>
F 6

$$$$
=
 OpenBabel11052413073D

 31 34  0  0  1  0  0  0  0  0999 V2000
  184.4370  178.5780  145.5840 C   0  0  0  0  0  0  0  0  0  0  0  0
  186.2140  178.1770  142.3730 C   0  0  1  0  0  3  0  0  0  0  0  0
  187.5590  177.5950  142.7050 C   0  0  0  0  0  0  0  0  0  0  0  0
  189.2450  176.6740  144.3600 C   0  0  0  0  0  2  0  0  0  0  0  0
  185.2350  178.4390  143.2800 C   0  0  0  0  0  0  0  0  0  0  0  0
  183.2510  179.1680  145.1510 C   0  0  0  0  0  3  0  0  0  0  0  0
  187.7760  176.8130  143.9850 C   0  0  0  0  0  2  0  0  0  0  0  0
  184.6330  178.7790  140.5070 C   0  0  1  0  0  3  0  0  0  0  0  0
  184.6450  178.3480  146.9370 O   0  0  0  0  0  1  0  0  0  0  0  0
  188.2860  178.2060  140.4290 C   0  0  0  0  0  3  0  0  0  0  0  0
  190.0000  176.1280  143.1660 C   0  0  2  0  0  3  0  0  0  0  0  0
  183.7580  179.2230  141.5920 N   0  0  0  0  0  2  0  0  0  0  0  0
  185.9890  178.5730  141.0040 N   0  0  0  0  0  0  0  0  0  0  0  0
  185.4190  178.2260  144.6570 C   0  0  0  0  0  3  0  0  0  0  0  0
  191.6990  175.8470  143.6080 Cl  0  0  0  0  0  0  0  0  0  0  0  0
  184.0110  179.0210  142.8520 C   0  0  0  0  0  0  0  0  0  0  0  0
  183.0420  179.3910  143.7910 C   0  0  0  0  0  3  0  0  0  0  0  0
  187.0780  178.6370  140.0790 C   0  0  0  0  0  3  0  0  0  0  0  0
  188.5320  177.6220  141.7590 C   0  0  0  0  0  0  0  0  0  0  0  0
  189.9340  177.1420  142.0320 C   0  0  0  0  0  2  0  0  0  0  0  0
  182.8390  177.1460  140.0370 C   0  0  0  0  0  3  0  0  0  0  0  0
  184.1210  177.4870  139.9560 C   0  0  0  0  0  3  0  0  0  0  0  0
  182.3960  175.8260  139.4930 C   0  0  0  0  0  2  0  0  0  0  0  0
  181.4530  175.9950  138.3040 C   0  0  0  0  0  2  0  0  0  0  0  0
  182.1140  175.6990  136.9590 C   0  0  0  0  0  2  0  0  0  0  0  0
  184.5130  175.8830  136.4100 C   0  0  0  0  0  1  0  0  0  0  0  0
  183.4740  175.0470  137.1320 C   0  0  2  0  0  3  0  0  0  0  0  0
  184.2450  172.6330  137.0450 C   0  0  0  0  0  0  0  0  0  0  0  0
  185.0210  172.7990  138.0220 O   0  0  0  0  0  0  0  0  0  0  0  0
  184.1630  171.3040  136.3850 C   0  0  0  0  0  1  0  0  0  0  0  0
  183.4400  173.7090  136.5610 N   0  0  0  0  0  2  0  0  0  0  0  0
  1  9  1  0  0  0  0
  2  3  1  1  0  0  0
  2  5  1  0  0  0  0
  3  7  1  0  0  0  0
  5 14  1  0  0  0  0
  6  1  1  0  0  0  0
  7  4  1  0  0  0  0
  8 22  1  1  0  0  0
  8 13  1  0  0  0  0
  8 12  1  0  0  0  0
 10 19  1  0  0  0  0
 11 15  1  1  0  0  0
 11  4  1  0  0  0  0
 12 16  1  0  0  0  0
 13  2  1  0  0  0  0
 14  1  2  0  0  0  0
 16  5  2  0  0  0  0
 16 17  1  0  0  0  0
 17  6  2  0  0  0  0
 18 10  2  0  0  0  0
 18 13  1  0  0  0  0
 19 20  1  0  0  0  0
 19  3  2  0  0  0  0
 20 11  1  0  0  0  0
 22 21  2  0  0  0  0
 23 21  1  0  0  0  0
 24 23  1  0  0  0  0
 25 27  1  0  0  0  0
 25 24  1  0  0  0  0
 27 26  1  6  0  0  0
 28 29  2  0  0  0  0
 30 28  1  0  0  0  0
 31 28  1  0  0  0  0
 31 27  1  0  0  0  0
M  END
>  <MODEL>
2

>  <REMARK>
 VINA RESULT:      -7.6      1.206      1.868
  Name = 
  6 active torsions:
  status: ('A' for Active; 'I' for Inactive)
    1  A    between atoms: C_3  and  C_19
    2  A    between atoms: C_3  and  C_22
    3  A    between atoms: C_7  and  C_9
    4  A    between atoms: C_7  and  C_22
    5  A    between atoms: C_15  and  C_23
    6  A    between atoms: C_19  and  N_24
                            x       y       z     vdW  Elec       q    Type
                         _______ _______ _______ _____ _____    ______ ____

>  <TORSDO>
F 6

$$$$
=
 OpenBabel11052413073D

 31 34  0  0  1  0  0  0  0  0999 V2000
  184.7120  178.6220  145.5660 C   0  0  0  0  0  0  0  0  0  0  0  0
  186.5000  178.1840  142.3660 C   0  0  1  0  0  3  0  0  0  0  0  0
  187.8320  177.5760  142.7070 C   0  0  0  0  0  0  0  0  0  0  0  0
  189.4890  176.6240  144.3720 C   0  0  0  0  0  2  0  0  0  0  0  0
  185.5210  178.4650  143.2670 C   0  0  0  0  0  0  0  0  0  0  0  0
  183.5400  179.2340  145.1260 C   0  0  0  0  0  3  0  0  0  0  0  0
  188.0260  176.7920  143.9890 C   0  0  0  0  0  2  0  0  0  0  0  0
  184.9420  178.8140  140.4900 C   0  0  1  0  0  3  0  0  0  0  0  0
  184.9070  178.3900  146.9200 O   0  0  0  0  0  1  0  0  0  0  0  0
  188.5830  178.1710  140.4350 C   0  0  0  0  0  3  0  0  0  0  0  0
  190.2410  176.0630  143.1830 C   0  0  2  0  0  3  0  0  0  0  0  0
  184.0690  179.2750  141.5690 N   0  0  0  0  0  2  0  0  0  0  0  0
  186.2910  178.5820  140.9950 N   0  0  0  0  0  0  0  0  0  0  0  0
  185.6920  178.2500  144.6450 C   0  0  0  0  0  3  0  0  0  0  0  0
  191.9310  175.7500  143.6360 Cl  0  0  0  0  0  0  0  0  0  0  0  0
  184.3100  179.0700  142.8310 C   0  0  0  0  0  0  0  0  0  0  0  0
  183.3440  179.4590  143.7630 C   0  0  0  0  0  3  0  0  0  0  0  0
  187.3860  178.6240  140.0760 C   0  0  0  0  0  3  0  0  0  0  0  0
  188.8100  177.5830  141.7660 C   0  0  0  0  0  0  0  0  0  0  0  0
  190.2010  177.0760  142.0480 C   0  0  0  0  0  2  0  0  0  0  0  0
  183.4620  177.5070  139.0040 C   0  0  0  0  0  3  0  0  0  0  0  0
  184.4090  177.5310  139.9370 C   0  0  0  0  0  3  0  0  0  0  0  0
  182.9500  176.1910  138.5140 C   0  0  0  0  0  2  0  0  0  0  0  0
  181.5260  175.9250  138.9980 C   0  0  0  0  0  2  0  0  0  0  0  0
  180.7870  177.1900  139.4290 C   0  0  0  0  0  2  0  0  0  0  0  0
  178.9320  176.0600  140.6020 C   0  0  0  0  0  1  0  0  0  0  0  0
  180.1010  177.0110  140.7720 C   0  0  2  0  0  3  0  0  0  0  0  0
  179.4550  178.6230  142.6200 C   0  0  0  0  0  0  0  0  0  0  0  0
  179.7520  177.7870  143.5140 O   0  0  0  0  0  0  0  0  0  0  0  0
  178.9310  179.9590  143.0050 C   0  0  0  0  0  1  0  0  0  0  0  0
  179.6160  178.3020  141.2380 N   0  0  0  0  0  2  0  0  0  0  0  0
  1  9  1  0  0  0  0
  2  3  1  1  0  0  0
  2  5  1  0  0  0  0
  3  7  1  0  0  0  0
  5 14  1  0  0  0  0
  6  1  1  0  0  0  0
  7  4  1  0  0  0  0
  8 22  1  1  0  0  0
  8 13  1  0  0  0  0
  8 12  1  0  0  0  0
 10 19  1  0  0  0  0
 11 15  1  1  0  0  0
 11  4  1  0  0  0  0
 12 16  1  0  0  0  0
 13  2  1  0  0  0  0
 14  1  2  0  0  0  0
 16  5  2  0  0  0  0
 16 17  1  0  0  0  0
 17  6  2  0  0  0  0
 18 10  2  0  0  0  0
 18 13  1  0  0  0  0
 19 20  1  0  0  0  0
 19  3  2  0  0  0  0
 20 11  1  0  0  0  0
 21 22  2  0  0  0  0
 23 24  1  0  0  0  0
 23 21  1  0  0  0  0
 24 25  1  0  0  0  0
 25 27  1  0  0  0  0
 27 26  1  6  0  0  0
 27 31  1  0  0  0  0
 28 30  1  0  0  0  0
 28 29  2  0  0  0  0
 31 28  1  0  0  0  0
M  END
>  <MODEL>
3

>  <REMARK>
 VINA RESULT:      -7.4      2.646      4.122
  Name = 
  6 active torsions:
  status: ('A' for Active; 'I' for Inactive)
    1  A    between atoms: C_3  and  C_19
    2  A    between atoms: C_3  and  C_22
    3  A    between atoms: C_7  and  C_9
    4  A    between atoms: C_7  and  C_22
    5  A    between atoms: C_15  and  C_23
    6  A    between atoms: C_19  and  N_24
                            x       y       z     vdW  Elec       q    Type
                         _______ _______ _______ _____ _____    ______ ____

>  <TORSDO>
F 6

$$$$
=
 OpenBabel11052413073D

 31 34  0  0  1  0  0  0  0  0999 V2000
  191.4000  174.6140  137.2420 C   0  0  0  0  0  0  0  0  0  0  0  0
  188.2590  176.4280  137.9300 C   0  0  1  0  0  3  0  0  0  0  0  0
  187.1830  175.7140  137.1600 C   0  0  0  0  0  0  0  0  0  0  0  0
  186.3890  173.8360  135.6530 C   0  0  0  0  0  2  0  0  0  0  0  0
  189.5630  176.0460  137.9770 C   0  0  0  0  0  0  0  0  0  0  0  0
  192.3100  175.3950  137.9520 C   0  0  0  0  0  3  0  0  0  0  0  0
  187.3420  174.2610  136.7610 C   0  0  0  0  0  2  0  0  0  0  0  0
  188.7280  178.2110  139.6440 C   0  0  1  0  0  3  0  0  0  0  0  0
  191.8430  173.5150  136.5200 O   0  0  0  0  0  1  0  0  0  0  0  0
  185.7390  177.6780  137.5330 C   0  0  0  0  0  3  0  0  0  0  0  0
  184.9790  174.2170  136.0550 C   0  0  2  0  0  3  0  0  0  0  0  0
  190.1260  177.8370  139.4340 N   0  0  0  0  0  2  0  0  0  0  0  0
  187.8920  177.6600  138.5840 N   0  0  0  0  0  0  0  0  0  0  0  0
  190.0440  174.9440  137.2500 C   0  0  0  0  0  3  0  0  0  0  0  0
  183.8290  173.6310  134.8320 Cl  0  0  0  0  0  0  0  0  0  0  0  0
  190.5010  176.8200  138.7150 C   0  0  0  0  0  0  0  0  0  0  0  0
  191.8610  176.4940  138.6820 C   0  0  0  0  0  3  0  0  0  0  0  0
  186.6380  178.2870  138.3000 C   0  0  0  0  0  3  0  0  0  0  0  0
  185.9880  176.3340  136.9850 C   0  0  0  0  0  0  0  0  0  0  0  0
  184.8840  175.7330  136.1550 C   0  0  0  0  0  2  0  0  0  0  0  0
  189.1040  177.1300  141.8340 C   0  0  0  0  0  3  0  0  0  0  0  0
  188.2620  177.6670  140.9560 C   0  0  0  0  0  3  0  0  0  0  0  0
  188.5700  176.5760  143.1160 C   0  0  0  0  0  2  0  0  0  0  0  0
  188.0200  177.6770  144.0190 C   0  0  0  0  0  2  0  0  0  0  0  0
  186.6760  177.3250  144.6540 C   0  0  0  0  0  2  0  0  0  0  0  0
  184.9490  178.6200  145.8500 C   0  0  0  0  0  1  0  0  0  0  0  0
  185.6790  178.4640  144.5310 C   0  0  2  0  0  3  0  0  0  0  0  0
  184.7360  178.7900  142.1990 C   0  0  0  0  0  0  0  0  0  0  0  0
  185.6080  179.6540  141.9190 O   0  0  0  0  0  0  0  0  0  0  0  0
  183.7070  178.4270  141.1900 C   0  0  0  0  0  1  0  0  0  0  0  0
  184.7240  178.1530  143.4770 N   0  0  0  0  0  2  0  0  0  0  0  0
  1 14  2  0  0  0  0
  1  6  1  0  0  0  0
  2  3  1  6  0  0  0
  2  5  1  0  0  0  0
  2 13  1  0  0  0  0
  4 11  1  0  0  0  0
  4  7  1  0  0  0  0
  5 16  2  0  0  0  0
  6 17  2  0  0  0  0
  7  3  1  0  0  0  0
  8 22  1  1  0  0  0
  9  1  1  0  0  0  0
 10 18  2  0  0  0  0
 11 15  1  6  0  0  0
 11 20  1  0  0  0  0
 12  8  1  0  0  0  0
 13  8  1  0  0  0  0
 14  5  1  0  0  0  0
 16 12  1  0  0  0  0
 17 16  1  0  0  0  0
 18 13  1  0  0  0  0
 19  3  2  0  0  0  0
 19 10  1  0  0  0  0
 20 19  1  0  0  0  0
 21 23  1  0  0  0  0
 22 21  2  0  0  0  0
 23 24  1  0  0  0  0
 24 25  1  0  0  0  0
 27 25  1  0  0  0  0
 27 26  1  1  0  0  0
 28 31  1  0  0  0  0
 29 28  2  0  0  0  0
 30 28  1  0  0  0  0
 31 27  1  0  0  0  0
M  END
>  <MODEL>
4

>  <REMARK>
 VINA RESULT:      -7.4      3.510      8.081
  Name = 
  6 active torsions:
  status: ('A' for Active; 'I' for Inactive)
    1  A    between atoms: C_3  and  C_19
    2  A    between atoms: C_3  and  C_22
    3  A    between atoms: C_7  and  C_9
    4  A    between atoms: C_7  and  C_22
    5  A    between atoms: C_15  and  C_23
    6  A    between atoms: C_19  and  N_24
                            x       y       z     vdW  Elec       q    Type
                         _______ _______ _______ _____ _____    ______ ____

>  <TORSDO>
F 6

$$$$
=
 OpenBabel11052413073D

 31 34  0  0  1  0  0  0  0  0999 V2000
  191.2720  174.5070  137.2010 C   0  0  0  0  0  0  0  0  0  0  0  0
  188.1940  176.4110  137.9270 C   0  0  1  0  0  3  0  0  0  0  0  0
  187.0800  175.7030  137.2070 C   0  0  0  0  0  0  0  0  0  0  0  0
  186.2030  173.8060  135.7720 C   0  0  0  0  0  2  0  0  0  0  0  0
  189.4900  175.9990  137.9490 C   0  0  0  0  0  0  0  0  0  0  0  0
  192.2190  175.2840  137.8650 C   0  0  0  0  0  3  0  0  0  0  0  0
  187.1960  174.2370  136.8420 C   0  0  0  0  0  2  0  0  0  0  0  0
  188.7520  178.2260  139.5810 C   0  0  1  0  0  3  0  0  0  0  0  0
  191.6700  173.3800  136.4960 O   0  0  0  0  0  1  0  0  0  0  0  0
  185.6930  177.7090  137.5680 C   0  0  0  0  0  3  0  0  0  0  0  0
  184.8130  174.2290  136.2020 C   0  0  2  0  0  3  0  0  0  0  0  0
  190.1340  177.8140  139.3420 N   0  0  0  0  0  2  0  0  0  0  0  0
  187.8740  177.6670  138.5590 N   0  0  0  0  0  0  0  0  0  0  0  0
  189.9250  174.8680  137.2380 C   0  0  0  0  0  3  0  0  0  0  0  0
  183.6170  173.6400  135.0270 Cl  0  0  0  0  0  0  0  0  0  0  0  0
  190.4650  176.7700  138.6400 C   0  0  0  0  0  0  0  0  0  0  0  0
  191.8160  176.4120  138.5790 C   0  0  0  0  0  3  0  0  0  0  0  0
  186.6260  178.3160  138.2930 C   0  0  0  0  0  3  0  0  0  0  0  0
  185.8950  176.3460  137.0480 C   0  0  0  0  0  0  0  0  0  0  0  0
  184.7550  175.7490  136.2650 C   0  0  0  0  0  2  0  0  0  0  0  0
  189.1400  177.6680  141.9570 C   0  0  0  0  0  3  0  0  0  0  0  0
  188.3100  177.7260  140.9190 C   0  0  0  0  0  3  0  0  0  0  0  0
  188.6440  177.1290  143.2600 C   0  0  0  0  0  2  0  0  0  0  0  0
  189.2390  177.8880  144.4450 C   0  0  0  0  0  2  0  0  0  0  0  0
  189.0410  177.1750  145.7810 C   0  0  0  0  0  2  0  0  0  0  0  0
  188.0520  177.2570  148.0410 C   0  0  0  0  0  1  0  0  0  0  0  0
  188.0640  177.9170  146.6760 C   0  0  2  0  0  3  0  0  0  0  0  0
  185.6760  178.7410  146.4510 C   0  0  0  0  0  0  0  0  0  0  0  0
  185.8640  179.6540  147.2980 O   0  0  0  0  0  0  0  0  0  0  0  0
  184.3400  178.5860  145.8180 C   0  0  0  0  0  1  0  0  0  0  0  0
  186.7330  177.8510  146.0900 N   0  0  0  0  0  2  0  0  0  0  0  0
  1 14  2  0  0  0  0
  1  6  1  0  0  0  0
  2  3  1  6  0  0  0
  2  5  1  0  0  0  0
  2 13  1  0  0  0  0
  4 11  1  0  0  0  0
  4  7  1  0  0  0  0
  5 16  2  0  0  0  0
  6 17  2  0  0  0  0
  7  3  1  0  0  0  0
  8 22  1  1  0  0  0
  9  1  1  0  0  0  0
 10 18  2  0  0  0  0
 11 15  1  6  0  0  0
 11 20  1  0  0  0  0
 12  8  1  0  0  0  0
 13  8  1  0  0  0  0
 14  5  1  0  0  0  0
 16 12  1  0  0  0  0
 17 16  1  0  0  0  0
 18 13  1  0  0  0  0
 19  3  2  0  0  0  0
 19 10  1  0  0  0  0
 20 19  1  0  0  0  0
 21 23  1  0  0  0  0
 22 21  2  0  0  0  0
 23 24  1  0  0  0  0
 24 25  1  0  0  0  0
 25 27  1  0  0  0  0
 27 26  1  1  0  0  0
 28 29  2  0  0  0  0
 30 28  1  0  0  0  0
 31 28  1  0  0  0  0
 31 27  1  0  0  0  0
M  END
>  <MODEL>
5

>  <REMARK>
 VINA RESULT:      -7.3      3.595      8.848
  Name = 
  6 active torsions:
  status: ('A' for Active; 'I' for Inactive)
    1  A    between atoms: C_3  and  C_19
    2  A    between atoms: C_3  and  C_22
    3  A    between atoms: C_7  and  C_9
    4  A    between atoms: C_7  and  C_22
    5  A    between atoms: C_15  and  C_23
    6  A    between atoms: C_19  and  N_24
                            x       y       z     vdW  Elec       q    Type
                         _______ _______ _______ _____ _____    ______ ____

>  <TORSDO>
F 6

$$$$
=
 OpenBabel11052413073D

 31 34  0  0  1  0  0  0  0  0999 V2000
  191.1430  174.5870  137.2240 C   0  0  0  0  0  0  0  0  0  0  0  0
  187.9560  176.4060  137.6260 C   0  0  1  0  0  3  0  0  0  0  0  0
  186.8880  175.5180  137.0500 C   0  0  0  0  0  0  0  0  0  0  0  0
  186.1270  173.3500  135.9790 C   0  0  0  0  0  2  0  0  0  0  0  0
  189.2730  176.0810  137.7100 C   0  0  0  0  0  0  0  0  0  0  0  0
  192.0400  175.5230  137.7340 C   0  0  0  0  0  3  0  0  0  0  0  0
  187.0900  174.0200  136.9480 C   0  0  0  0  0  2  0  0  0  0  0  0
  188.4010  178.5150  138.9290 C   0  0  1  0  0  3  0  0  0  0  0  0
  191.6080  173.3780  136.7260 O   0  0  0  0  0  1  0  0  0  0  0  0
  185.3840  177.4730  137.0610 C   0  0  0  0  0  3  0  0  0  0  0  0
  184.7140  173.7610  136.3380 C   0  0  2  0  0  3  0  0  0  0  0  0
  189.8060  178.1470  138.7570 N   0  0  0  0  0  2  0  0  0  0  0  0
  187.5600  177.7340  138.0280 N   0  0  0  0  0  0  0  0  0  0  0  0
  189.7770  174.8690  137.2070 C   0  0  0  0  0  3  0  0  0  0  0  0
  183.5570  172.9050  135.2940 Cl  0  0  0  0  0  0  0  0  0  0  0  0
  190.2000  177.0170  138.2470 C   0  0  0  0  0  0  0  0  0  0  0  0
  191.5690  176.7340  138.2400 C   0  0  0  0  0  3  0  0  0  0  0  0
  186.2780  178.2520  137.6610 C   0  0  0  0  0  3  0  0  0  0  0  0
  185.6680  176.0530  136.7890 C   0  0  0  0  0  0  0  0  0  0  0  0
  184.5670  175.2630  136.1310 C   0  0  0  0  0  2  0  0  0  0  0  0
  188.7180  177.4770  141.1490 C   0  0  0  0  0  3  0  0  0  0  0  0
  187.9850  178.2340  140.3370 C   0  0  0  0  0  3  0  0  0  0  0  0
  188.2310  177.2100  142.5370 C   0  0  0  0  0  2  0  0  0  0  0  0
  189.0440  176.1100  143.2170 C   0  0  0  0  0  2  0  0  0  0  0  0
  190.5290  176.4440  143.3430 C   0  0  0  0  0  2  0  0  0  0  0  0
  191.4610  178.6400  143.9750 C   0  0  0  0  0  1  0  0  0  0  0  0
  190.7970  177.3840  144.5050 C   0  0  2  0  0  3  0  0  0  0  0  0
  191.3050  176.4500  146.8070 C   0  0  0  0  0  0  0  0  0  0  0  0
  190.1580  176.7510  147.2310 O   0  0  0  0  0  0  0  0  0  0  0  0
  192.2810  175.7970  147.7190 C   0  0  0  0  0  1  0  0  0  0  0  0
  191.6810  176.7290  145.4580 N   0  0  0  0  0  2  0  0  0  0  0  0
  1  6  1  0  0  0  0
  2  3  1  6  0  0  0
  2  5  1  0  0  0  0
  2 13  1  0  0  0  0
  4 11  1  0  0  0  0
  4  7  1  0  0  0  0
  5 16  2  0  0  0  0
  6 17  2  0  0  0  0
  7  3  1  0  0  0  0
  8 22  1  1  0  0  0
  9  1  1  0  0  0  0
 10 18  2  0  0  0  0
 11 15  1  6  0  0  0
 12  8  1  0  0  0  0
 13  8  1  0  0  0  0
 14  1  2  0  0  0  0
 14  5  1  0  0  0  0
 16 12  1  0  0  0  0
 17 16  1  0  0  0  0
 18 13  1  0  0  0  0
 19  3  2  0  0  0  0
 19 10  1  0  0  0  0
 20 11  1  0  0  0  0
 20 19  1  0  0  0  0
 21 23  1  0  0  0  0
 22 21  2  0  0  0  0
 23 24  1  0  0  0  0
 24 25  1  0  0  0  0
 25 27  1  0  0  0  0
 27 26  1  6  0  0  0
 27 31  1  0  0  0  0
 28 29  2  0  0  0  0
 28 30  1  0  0  0  0
 31 28  1  0  0  0  0
M  END
>  <MODEL>
6

>  <REMARK>
 VINA RESULT:      -7.3      3.955      8.855
  Name = 
  6 active torsions:
  status: ('A' for Active; 'I' for Inactive)
    1  A    between atoms: C_3  and  C_19
    2  A    between atoms: C_3  and  C_22
    3  A    between atoms: C_7  and  C_9
    4  A    between atoms: C_7  and  C_22
    5  A    between atoms: C_15  and  C_23
    6  A    between atoms: C_19  and  N_24
                            x       y       z     vdW  Elec       q    Type
                         _______ _______ _______ _____ _____    ______ ____

>  <TORSDO>
F 6

$$$$
=
 OpenBabel11052413073D

 31 34  0  0  1  0  0  0  0  0999 V2000
  184.3500  178.6280  145.3890 C   0  0  0  0  0  0  0  0  0  0  0  0
  186.1550  178.1960  142.1980 C   0  0  1  0  0  3  0  0  0  0  0  0
  187.5070  177.6420  142.5500 C   0  0  0  0  0  0  0  0  0  0  0  0
  189.1960  176.7800  144.2320 C   0  0  0  0  0  2  0  0  0  0  0  0
  185.1660  178.4590  143.0940 C   0  0  0  0  0  0  0  0  0  0  0  0
  183.1580  179.1900  144.9380 C   0  0  0  0  0  3  0  0  0  0  0  0
  187.7280  176.8880  143.8460 C   0  0  0  0  0  2  0  0  0  0  0  0
  184.5770  178.7380  140.3110 C   0  0  1  0  0  3  0  0  0  0  0  0
  184.5530  178.4260  146.7470 O   0  0  0  0  0  1  0  0  0  0  0  0
  188.2390  178.2230  140.2680 C   0  0  0  0  0  3  0  0  0  0  0  0
  189.9690  176.2240  143.0530 C   0  0  2  0  0  3  0  0  0  0  0  0
  183.6880  179.1870  141.3810 N   0  0  0  0  0  2  0  0  0  0  0  0
  185.9330  178.5630  140.8210 N   0  0  0  0  0  0  0  0  0  0  0  0
  185.3440  178.2750  144.4760 C   0  0  0  0  0  3  0  0  0  0  0  0
  191.6680  175.9790  143.5120 Cl  0  0  0  0  0  0  0  0  0  0  0  0
  183.9350  179.0130  142.6460 C   0  0  0  0  0  0  0  0  0  0  0  0
  182.9550  179.3840  143.5720 C   0  0  0  0  0  3  0  0  0  0  0  0
  187.0270  178.6280  139.9010 C   0  0  0  0  0  3  0  0  0  0  0  0
  188.4860  177.6670  141.6090 C   0  0  0  0  0  0  0  0  0  0  0  0
  189.8930  177.2150  141.9000 C   0  0  0  0  0  2  0  0  0  0  0  0
  182.8360  177.0210  139.9540 C   0  0  0  0  0  3  0  0  0  0  0  0
  184.0900  177.4280  139.7810 C   0  0  0  0  0  3  0  0  0  0  0  0
  182.4200  175.6860  139.4250 C   0  0  0  0  0  2  0  0  0  0  0  0
  182.1240  175.7420  137.9280 C   0  0  0  0  0  2  0  0  0  0  0  0
  181.0220  176.7340  137.5650 C   0  0  0  0  0  2  0  0  0  0  0  0
  182.7090  177.2550  135.8410 C   0  0  0  0  0  1  0  0  0  0  0  0
  181.5180  177.8000  136.6040 C   0  0  2  0  0  3  0  0  0  0  0  0
  181.0610  180.1010  137.5690 C   0  0  0  0  0  0  0  0  0  0  0  0
  179.8880  180.1090  137.1120 O   0  0  0  0  0  0  0  0  0  0  0  0
  181.5620  181.2720  138.3350 C   0  0  0  0  0  1  0  0  0  0  0  0
  181.9190  178.9780  137.3610 N   0  0  0  0  0  2  0  0  0  0  0  0
  1  9  1  0  0  0  0
  2  3  1  1  0  0  0
  2  5  1  0  0  0  0
  3  7  1  0  0  0  0
  5 14  1  0  0  0  0
  6  1  1  0  0  0  0
  7  4  1  0  0  0  0
  8 22  1  1  0  0  0
  8 13  1  0  0  0  0
  8 12  1  0  0  0  0
 10 19  1  0  0  0  0
 11 15  1  1  0  0  0
 11  4  1  0  0  0  0
 12 16  1  0  0  0  0
 13  2  1  0  0  0  0
 14  1  2  0  0  0  0
 16  5  2  0  0  0  0
 16 17  1  0  0  0  0
 17  6  2  0  0  0  0
 18 10  2  0  0  0  0
 18 13  1  0  0  0  0
 19 20  1  0  0  0  0
 19  3  2  0  0  0  0
 20 11  1  0  0  0  0
 22 21  2  0  0  0  0
 23 21  1  0  0  0  0
 24 23  1  0  0  0  0
 25 24  1  0  0  0  0
 27 26  1  1  0  0  0
 27 31  1  0  0  0  0
 27 25  1  0  0  0  0
 28 30  1  0  0  0  0
 29 28  2  0  0  0  0
 31 28  1  0  0  0  0
M  END
>  <MODEL>
7

>  <REMARK>
 VINA RESULT:      -7.3      2.259      2.888
  Name = 
  6 active torsions:
  status: ('A' for Active; 'I' for Inactive)
    1  A    between atoms: C_3  and  C_19
    2  A    between atoms: C_3  and  C_22
    3  A    between atoms: C_7  and  C_9
    4  A    between atoms: C_7  and  C_22
    5  A    between atoms: C_15  and  C_23
    6  A    between atoms: C_19  and  N_24
                            x       y       z     vdW  Elec       q    Type
                         _______ _______ _______ _____ _____    ______ ____

>  <TORSDO>
F 6

$$$$
=
 OpenBabel11052413073D

 31 34  0  0  1  0  0  0  0  0999 V2000
  185.2050  178.4240  143.1170 C   0  0  0  0  0  0  0  0  0  0  0  0
  188.7530  177.8570  142.2720 C   0  0  1  0  0  3  0  0  0  0  0  0
  189.4370  177.4730  143.5540 C   0  0  0  0  0  0  0  0  0  0  0  0
  189.3950  176.9480  146.0340 C   0  0  0  0  0  2  0  0  0  0  0  0
  187.4230  178.1100  142.1460 C   0  0  0  0  0  0  0  0  0  0  0  0
  184.7050  178.8220  141.8800 C   0  0  0  0  0  3  0  0  0  0  0  0
  188.6550  176.8750  144.7060 C   0  0  0  0  0  2  0  0  0  0  0  0
  189.0190  178.0560  139.7750 C   0  0  1  0  0  3  0  0  0  0  0  0
  184.3670  178.3770  144.2230 O   0  0  0  0  0  1  0  0  0  0  0  0
  191.5900  177.8950  142.4280 C   0  0  0  0  0  3  0  0  0  0  0  0
  190.7780  176.3560  145.8510 C   0  0  2  0  0  3  0  0  0  0  0  0
  187.6330  178.5200  139.8140 N   0  0  0  0  0  2  0  0  0  0  0  0
  189.5930  178.0640  141.1160 N   0  0  0  0  0  0  0  0  0  0  0  0
  186.5510  178.0800  143.2470 C   0  0  0  0  0  3  0  0  0  0  0  0
  191.6260  176.3220  147.4130 Cl  0  0  0  0  0  0  0  0  0  0  0  0
  186.8930  178.4960  140.8840 C   0  0  0  0  0  0  0  0  0  0  0  0
  185.5480  178.8600  140.7690 C   0  0  0  0  0  3  0  0  0  0  0  0
  191.0140  178.1430  141.2560 C   0  0  0  0  0  3  0  0  0  0  0  0
  190.7940  177.5010  143.6030 C   0  0  0  0  0  0  0  0  0  0  0  0
  191.5590  177.2170  144.8690 C   0  0  0  0  0  2  0  0  0  0  0  0
  189.7490  176.3410  138.1530 C   0  0  0  0  0  3  0  0  0  0  0  0
  189.0580  176.6590  139.2440 C   0  0  0  0  0  3  0  0  0  0  0  0
  189.7230  174.9310  137.6560 C   0  0  0  0  0  2  0  0  0  0  0  0
  190.8220  174.6770  136.6270 C   0  0  0  0  0  2  0  0  0  0  0  0
  191.8280  175.8210  136.5200 C   0  0  0  0  0  2  0  0  0  0  0  0
  193.1580  174.4020  135.0000 C   0  0  0  0  0  1  0  0  0  0  0  0
  193.2260  175.3150  136.2090 C   0  0  2  0  0  3  0  0  0  0  0  0
  195.1150  174.5360  137.7100 C   0  0  0  0  0  0  0  0  0  0  0  0
  195.9690  175.1750  137.0420 O   0  0  0  0  0  0  0  0  0  0  0  0
  195.5470  173.7330  138.8840 C   0  0  0  0  0  1  0  0  0  0  0  0
  193.7320  174.5730  137.3540 N   0  0  0  0  0  2  0  0  0  0  0  0
  1 14  1  0  0  0  0
  1  9  1  0  0  0  0
  2  5  1  1  0  0  0
  2  3  1  0  0  0  0
  3 19  2  0  0  0  0
  3  7  1  0  0  0  0
  5 14  2  0  0  0  0
  6  1  2  0  0  0  0
  7  4  1  0  0  0  0
  8 22  1  1  0  0  0
  8 12  1  0  0  0  0
  8 13  1  0  0  0  0
 10 19  1  0  0  0  0
 11  4  1  0  0  0  0
 11 15  1  1  0  0  0
 12 16  1  0  0  0  0
 13 18  1  0  0  0  0
 13  2  1  0  0  0  0
 16  5  1  0  0  0  0
 17 16  2  0  0  0  0
 17  6  1  0  0  0  0
 18 10  2  0  0  0  0
 19 20  1  0  0  0  0
 20 11  1  0  0  0  0
 21 22  2  0  0  0  0
 23 21  1  0  0  0  0
 24 23  1  0  0  0  0
 25 24  1  0  0  0  0
 27 26  1  6  0  0  0
 27 25  1  0  0  0  0
 27 31  1  0  0  0  0
 28 30  1  0  0  0  0
 29 28  2  0  0  0  0
 31 28  1  0  0  0  0
M  END
>  <MODEL>
8

>  <REMARK>
 VINA RESULT:      -7.1      4.035      5.512
  Name = 
  6 active torsions:
  status: ('A' for Active; 'I' for Inactive)
    1  A    between atoms: C_3  and  C_19
    2  A    between atoms: C_3  and  C_22
    3  A    between atoms: C_7  and  C_9
    4  A    between atoms: C_7  and  C_22
    5  A    between atoms: C_15  and  C_23
    6  A    between atoms: C_19  and  N_24
                            x       y       z     vdW  Elec       q    Type
                         _______ _______ _______ _____ _____    ______ ____

>  <TORSDO>
F 6

$$$$
=
 OpenBabel11052413073D

 31 34  0  0  1  0  0  0  0  0999 V2000
  184.8700  178.4870  142.8110 C   0  0  0  0  0  0  0  0  0  0  0  0
  188.4540  177.9080  142.1460 C   0  0  1  0  0  3  0  0  0  0  0  0
  189.0790  177.5650  143.4690 C   0  0  0  0  0  0  0  0  0  0  0  0
  188.9250  177.1130  145.9590 C   0  0  0  0  0  2  0  0  0  0  0  0
  187.1310  178.1520  141.9510 C   0  0  0  0  0  0  0  0  0  0  0  0
  184.4260  178.8460  141.5400 C   0  0  0  0  0  3  0  0  0  0  0  0
  188.2460  176.9990  144.6020 C   0  0  0  0  0  2  0  0  0  0  0  0
  188.8330  178.0320  139.6590 C   0  0  1  0  0  3  0  0  0  0  0  0
  183.9820  178.4710  143.8780 O   0  0  0  0  0  1  0  0  0  0  0  0
  191.2810  177.9600  142.4300 C   0  0  0  0  0  3  0  0  0  0  0  0
  190.3160  176.5210  145.8570 C   0  0  2  0  0  3  0  0  0  0  0  0
  187.4460  178.4930  139.6210 N   0  0  0  0  0  2  0  0  0  0  0  0
  189.3450  178.0820  141.0240 N   0  0  0  0  0  0  0  0  0  0  0  0
  186.2090  178.1520  143.0120 C   0  0  0  0  0  3  0  0  0  0  0  0
  191.0920  176.5370  147.4560 Cl  0  0  0  0  0  0  0  0  0  0  0  0
  186.6580  178.4980  140.6560 C   0  0  0  0  0  0  0  0  0  0  0  0
  185.3180  178.8540  140.4690 C   0  0  0  0  0  3  0  0  0  0  0  0
  190.7580  178.1700  141.2260 C   0  0  0  0  0  3  0  0  0  0  0  0
  190.4320  177.5980  143.5790 C   0  0  0  0  0  0  0  0  0  0  0  0
  191.1400  177.3550  144.8860 C   0  0  0  0  0  2  0  0  0  0  0  0
  189.0900  176.3260  137.8890 C   0  0  0  0  0  3  0  0  0  0  0  0
  188.8990  176.6200  139.1720 C   0  0  0  0  0  3  0  0  0  0  0  0
  189.1160  174.8940  137.4630 C   0  0  0  0  0  2  0  0  0  0  0  0
  188.0420  174.5980  136.4180 C   0  0  0  0  0  2  0  0  0  0  0  0
  186.6710  174.3080  137.0240 C   0  0  0  0  0  2  0  0  0  0  0  0
  186.2240  176.1650  135.4610 C   0  0  0  0  0  1  0  0  0  0  0  0
  185.5790  175.1370  136.3700 C   0  0  2  0  0  3  0  0  0  0  0  0
  183.5940  175.2850  137.9400 C   0  0  0  0  0  0  0  0  0  0  0  0
  183.1420  174.1780  137.5470 O   0  0  0  0  0  0  0  0  0  0  0  0
  182.8570  176.0550  138.9770 C   0  0  0  0  0  1  0  0  0  0  0  0
  184.8070  175.8130  137.4020 N   0  0  0  0  0  2  0  0  0  0  0  0
  1 14  1  0  0  0  0
  1  9  1  0  0  0  0
  2  5  1  1  0  0  0
  2  3  1  0  0  0  0
  3 19  2  0  0  0  0
  3  7  1  0  0  0  0
  5 14  2  0  0  0  0
  6  1  2  0  0  0  0
  7  4  1  0  0  0  0
  8 22  1  1  0  0  0
  8 13  1  0  0  0  0
 10 19  1  0  0  0  0
 11  4  1  0  0  0  0
 11 15  1  1  0  0  0
 12  8  1  0  0  0  0
 12 16  1  0  0  0  0
 13 18  1  0  0  0  0
 13  2  1  0  0  0  0
 16  5  1  0  0  0  0
 17 16  2  0  0  0  0
 17  6  1  0  0  0  0
 18 10  2  0  0  0  0
 19 20  1  0  0  0  0
 20 11  1  0  0  0  0
 21 22  2  0  0  0  0
 23 21  1  0  0  0  0
 24 25  1  0  0  0  0
 24 23  1  0  0  0  0
 27 26  1  6  0  0  0
 27 25  1  0  0  0  0
 27 31  1  0  0  0  0
 28 30  1  0  0  0  0
 29 28  2  0  0  0  0
 31 28  1  0  0  0  0
M  END
>  <MODEL>
9

>  <REMARK>
 VINA RESULT:      -7.0      1.950      3.684
  Name = 
  6 active torsions:
  status: ('A' for Active; 'I' for Inactive)
    1  A    between atoms: C_3  and  C_19
    2  A    between atoms: C_3  and  C_22
    3  A    between atoms: C_7  and  C_9
    4  A    between atoms: C_7  and  C_22
    5  A    between atoms: C_15  and  C_23
    6  A    between atoms: C_19  and  N_24
                            x       y       z     vdW  Elec       q    Type
                         _______ _______ _______ _____ _____    ______ ____

>  <TORSDO>
F 6

$$$$
