=
 OpenBabel11052412193D

 30 32  0  0  1  0  0  0  0  0999 V2000
  183.4240  178.4910  139.6050 C   0  0  1  0  0  3  0  0  0  0  0  0
  182.0920  179.2420  139.7670 C   0  0  1  0  0  3  0  0  0  0  0  0
  183.9860  177.6920  141.1610 S   0  0  0  0  0  0  0  0  0  0  0  0
  180.6750  180.0160  142.2670 C   0  0  1  0  0  3  0  0  0  0  0  0
  183.7210  179.0240  143.5410 C   0  0  2  0  0  3  0  0  0  0  0  0
  185.5520  179.6320  142.0220 O   0  0  0  0  0  1  0  0  0  0  0  0
  179.9870  179.2410  141.1430 C   0  0  2  0  0  3  0  0  0  0  0  0
  184.2110  179.2450  142.0880 C   0  0  1  0  0  3  0  0  0  0  0  0
  182.5150  179.7000  143.7920 O   0  0  0  0  0  0  0  0  0  0  0  0
  179.0080  178.3970  141.9510 C   0  0  0  0  0  2  0  0  0  0  0  0
  179.6140  180.2800  143.1350 O   0  0  0  0  0  0  0  0  0  0  0  0
  181.6830  179.9790  138.5030 C   0  0  0  0  0  1  0  0  0  0  0  0
  180.9480  178.3860  140.3070 C   0  0  0  0  0  2  0  0  0  0  0  0
  179.2280  178.9590  143.3650 C   0  0  2  0  0  3  0  0  0  0  0  0
  180.5040  178.3400  143.9210 C   0  0  0  0  0  2  0  0  0  0  0  0
  181.5400  179.0250  143.0510 C   0  0  1  0  0  3  0  0  0  0  0  0
  184.7420  179.4000  144.6110 C   0  0  0  0  0  2  0  0  0  0  0  0
  186.0160  177.9080  146.1510 C   0  0  0  0  0  1  0  0  0  0  0  0
  184.6490  178.4690  145.8100 C   0  0  0  0  0  2  0  0  0  0  0  0
  183.4680  177.5480  138.3800 C   0  0  2  0  0  3  0  0  0  0  0  0
  182.2320  175.4290  138.5920 C   0  0  0  0  0  2  0  0  0  0  0  0
  183.3820  176.0870  138.7120 C   0  0  0  0  0  3  0  0  0  0  0  0
  184.6330  177.8330  137.4220 C   0  0  2  0  0  3  0  0  0  0  0  0
  184.8480  176.7390  136.4220 C   0  0  0  0  0  3  0  0  0  0  0  0
  184.3290  176.7990  135.3190 O   0  0  0  0  0  0  0  0  0  0  0  0
  185.9140  178.1130  138.1930 C   0  0  0  0  0  2  0  0  0  0  0  0
  187.3590  177.6770  137.1800 S   0  0  0  0  0  0  0  0  0  0  0  0
  188.5420  178.2730  138.4200 C   0  0  0  0  0  3  0  0  0  0  0  0
  187.9020  178.2230  139.7910 C   0  0  0  0  0  1  0  0  0  0  0  0
  189.7730  177.3930  138.4100 C   0  0  0  0  0  1  0  0  0  0  0  0
  1 20  1  6  0  0  0
  1  2  1  0  0  0  0
  1  3  1  0  0  0  0
  2 12  1  6  0  0  0
  2 13  1  0  0  0  0
  3  8  1  0  0  0  0
  4 16  1  0  0  0  0
  4 11  1  1  0  0  0
  5  9  1  0  0  0  0
  5 17  1  1  0  0  0
  7 13  1  1  0  0  0
  7 10  1  0  0  0  0
  7  4  1  0  0  0  0
  8  6  1  1  0  0  0
  8  5  1  0  0  0  0
 11 14  1  0  0  0  0
 14 10  1  6  0  0  0
 14 15  1  0  0  0  0
 16  9  1  0  0  0  0
 16 15  1  1  0  0  0
 17 19  1  0  0  0  0
 19 18  1  0  0  0  0
 20 22  1  1  0  0  0
 21 22  2  0  0  0  0
 23 24  1  6  0  0  0
 23 26  1  0  0  0  0
 23 20  1  0  0  0  0
 25 24  2  0  0  0  0
 27 26  1  0  0  0  0
 27 28  1  0  0  0  0
 28 29  1  0  0  0  0
 30 28  1  0  0  0  0
M  END
>  <MODEL>
1

>  <REMARK>
 VINA RESULT:      -5.4      0.000      0.000
  Name = 
  9 active torsions:
  status: ('A' for Active; 'I' for Inactive)
    1  A    between atoms: C_1  and  C_22
    2  A    between atoms: C_2  and  C_14
    3  A    between atoms: C_3  and  S_28
    4  A    between atoms: C_6  and  C_8
    5  A    between atoms: C_6  and  C_21
    6  A    between atoms: C_14  and  C_20
    7  A    between atoms: C_14  and  C_22
    8  A    between atoms: C_20  and  S_28
    9  A    between atoms: C_22  and  C_29
                            x       y       z     vdW  Elec       q    Type
                         _______ _______ _______ _____ _____    ______ ____

>  <TORSDO>
F 9

$$$$
=
 OpenBabel11052412193D

 30 32  0  0  1  0  0  0  0  0999 V2000
  187.7240  177.4800  141.9730 C   0  0  1  0  0  3  0  0  0  0  0  0
  187.8730  176.7820  143.3350 C   0  0  1  0  0  3  0  0  0  0  0  0
  186.6990  179.0020  142.0600 S   0  0  0  0  0  0  0  0  0  0  0  0
  186.3310  177.2260  145.8410 C   0  0  1  0  0  3  0  0  0  0  0  0
  184.4290  179.0210  143.5940 C   0  0  2  0  0  3  0  0  0  0  0  0
  184.3850  177.9210  141.4000 O   0  0  0  0  0  1  0  0  0  0  0  0
  187.8600  177.2620  145.8040 C   0  0  2  0  0  3  0  0  0  0  0  0
  185.1590  178.1530  142.5390 C   0  0  1  0  0  3  0  0  0  0  0  0
  184.4890  178.4450  144.8750 O   0  0  0  0  0  0  0  0  0  0  0  0
  188.1370  178.2940  146.8900 C   0  0  0  0  0  2  0  0  0  0  0  0
  186.0670  177.3280  147.2090 O   0  0  0  0  0  0  0  0  0  0  0  0
  188.6410  175.4750  143.2370 C   0  0  0  0  0  1  0  0  0  0  0  0
  188.4320  177.6750  144.4420 C   0  0  0  0  0  2  0  0  0  0  0  0
  186.7200  178.5400  147.4340 C   0  0  2  0  0  3  0  0  0  0  0  0
  186.0050  179.4790  146.4700 C   0  0  0  0  0  2  0  0  0  0  0  0
  185.8240  178.5570  145.2800 C   0  0  1  0  0  3  0  0  0  0  0  0
  182.9760  179.3360  143.2510 C   0  0  0  0  0  2  0  0  0  0  0  0
  180.6070  178.6880  143.6870 C   0  0  0  0  0  1  0  0  0  0  0  0
  182.0240  178.6650  144.2290 C   0  0  0  0  0  2  0  0  0  0  0  0
  189.0600  177.6820  141.2210 C   0  0  2  0  0  3  0  0  0  0  0  0
  191.2930  177.8240  142.2490 C   0  0  0  0  0  2  0  0  0  0  0  0
  190.1180  178.3990  142.0070 C   0  0  0  0  0  3  0  0  0  0  0  0
  188.8970  178.2920  139.8220 C   0  0  2  0  0  3  0  0  0  0  0  0
  187.6090  177.9040  139.1640 C   0  0  0  0  0  3  0  0  0  0  0  0
  187.0810  178.6470  138.3510 O   0  0  0  0  0  0  0  0  0  0  0  0
  190.0800  177.9380  138.9340 C   0  0  0  0  0  2  0  0  0  0  0  0
  189.8220  176.3080  138.1720 S   0  0  0  0  0  0  0  0  0  0  0  0
  191.5690  176.1290  137.7130 C   0  0  0  0  0  3  0  0  0  0  0  0
  192.4380  176.7390  138.7910 C   0  0  0  0  0  1  0  0  0  0  0  0
  191.9070  174.6610  137.5670 C   0  0  0  0  0  1  0  0  0  0  0  0
  1 20  1  1  0  0  0
  1  3  1  0  0  0  0
  1  2  1  0  0  0  0
  2 12  1  6  0  0  0
  2 13  1  0  0  0  0
  3  8  1  0  0  0  0
  4 11  1  1  0  0  0
  5 17  1  6  0  0  0
  5  9  1  0  0  0  0
  7 13  1  6  0  0  0
  7  4  1  0  0  0  0
  7 10  1  0  0  0  0
  8  6  1  6  0  0  0
  8  5  1  0  0  0  0
  9 16  1  0  0  0  0
 10 14  1  0  0  0  0
 11 14  1  0  0  0  0
 14 15  1  6  0  0  0
 16  4  1  0  0  0  0
 16 15  1  1  0  0  0
 17 19  1  0  0  0  0
 18 19  1  0  0  0  0
 20 22  1  1  0  0  0
 22 21  2  0  0  0  0
 23 26  1  6  0  0  0
 23 20  1  0  0  0  0
 24 23  1  0  0  0  0
 25 24  2  0  0  0  0
 27 26  1  0  0  0  0
 28 27  1  0  0  0  0
 28 29  1  0  0  0  0
 30 28  1  0  0  0  0
M  END
>  <MODEL>
2

>  <REMARK>
 VINA RESULT:      -5.3      3.022      6.073
  Name = 
  9 active torsions:
  status: ('A' for Active; 'I' for Inactive)
    1  A    between atoms: C_1  and  C_22
    2  A    between atoms: C_2  and  C_14
    3  A    between atoms: C_3  and  S_28
    4  A    between atoms: C_6  and  C_8
    5  A    between atoms: C_6  and  C_21
    6  A    between atoms: C_14  and  C_20
    7  A    between atoms: C_14  and  C_22
    8  A    between atoms: C_20  and  S_28
    9  A    between atoms: C_22  and  C_29
                            x       y       z     vdW  Elec       q    Type
                         _______ _______ _______ _____ _____    ______ ____

>  <TORSDO>
F 9

$$$$
=
 OpenBabel11052412193D

 30 32  0  0  1  0  0  0  0  0999 V2000
  187.6940  177.7660  141.7540 C   0  0  1  0  0  3  0  0  0  0  0  0
  187.9160  177.0240  143.0820 C   0  0  1  0  0  3  0  0  0  0  0  0
  186.5130  179.1650  141.9070 S   0  0  0  0  0  0  0  0  0  0  0  0
  186.3340  177.1820  145.5980 C   0  0  1  0  0  3  0  0  0  0  0  0
  184.2530  178.8700  143.4270 C   0  0  2  0  0  3  0  0  0  0  0  0
  184.3270  177.8760  141.1840 O   0  0  0  0  0  1  0  0  0  0  0  0
  187.8500  177.3810  145.5710 C   0  0  2  0  0  3  0  0  0  0  0  0
  185.0720  178.1350  142.3370 C   0  0  1  0  0  3  0  0  0  0  0  0
  184.3730  178.2430  144.6800 O   0  0  0  0  0  0  0  0  0  0  0  0
  188.0150  178.3840  146.7060 C   0  0  0  0  0  2  0  0  0  0  0  0
  186.0600  177.1900  146.9670 O   0  0  0  0  0  0  0  0  0  0  0  0
  188.8190  175.8120  142.9270 C   0  0  0  0  0  1  0  0  0  0  0  0
  188.3760  177.9170  144.2340 C   0  0  0  0  0  2  0  0  0  0  0  0
  186.5800  178.4530  147.2540 C   0  0  2  0  0  3  0  0  0  0  0  0
  185.7690  179.3550  146.3310 C   0  0  0  0  0  2  0  0  0  0  0  0
  185.6880  178.4770  145.0970 C   0  0  1  0  0  3  0  0  0  0  0  0
  182.7750  179.0440  143.0910 C   0  0  0  0  0  2  0  0  0  0  0  0
  180.4410  178.6080  143.8540 C   0  0  0  0  0  1  0  0  0  0  0  0
  181.8960  178.6790  144.2770 C   0  0  0  0  0  2  0  0  0  0  0  0
  189.0020  178.1440  141.0200 C   0  0  2  0  0  3  0  0  0  0  0  0
  187.7710  177.9800  138.8940 C   0  0  0  0  0  2  0  0  0  0  0  0
  188.8390  178.4200  139.5540 C   0  0  0  0  0  3  0  0  0  0  0  0
  190.1600  177.1710  141.2780 C   0  0  2  0  0  3  0  0  0  0  0  0
  191.3190  177.8140  141.9740 C   0  0  0  0  0  3  0  0  0  0  0  0
  191.8000  177.3070  142.9750 O   0  0  0  0  0  0  0  0  0  0  0  0
  190.6110  176.5090  139.9850 C   0  0  0  0  0  2  0  0  0  0  0  0
  192.2650  177.1070  139.5230 S   0  0  0  0  0  0  0  0  0  0  0  0
  192.1890  176.3610  137.8700 C   0  0  0  0  0  3  0  0  0  0  0  0
  193.3400  175.3910  137.7020 C   0  0  0  0  0  1  0  0  0  0  0  0
  190.8800  175.6180  137.7090 C   0  0  0  0  0  1  0  0  0  0  0  0
  1 20  1  1  0  0  0
  1  3  1  0  0  0  0
  1  2  1  0  0  0  0
  2 12  1  6  0  0  0
  2 13  1  0  0  0  0
  3  8  1  0  0  0  0
  4 11  1  1  0  0  0
  5 17  1  6  0  0  0
  5  9  1  0  0  0  0
  7 13  1  6  0  0  0
  7  4  1  0  0  0  0
  7 10  1  0  0  0  0
  8  6  1  6  0  0  0
  8  5  1  0  0  0  0
  9 16  1  0  0  0  0
 10 14  1  0  0  0  0
 11 14  1  0  0  0  0
 14 15  1  6  0  0  0
 16  4  1  0  0  0  0
 16 15  1  1  0  0  0
 17 19  1  0  0  0  0
 18 19  1  0  0  0  0
 20 22  1  6  0  0  0
 20 23  1  0  0  0  0
 21 22  2  0  0  0  0
 23 26  1  6  0  0  0
 23 24  1  0  0  0  0
 24 25  2  0  0  0  0
 27 26  1  0  0  0  0
 28 27  1  0  0  0  0
 29 28  1  0  0  0  0
 30 28  1  0  0  0  0
M  END
>  <MODEL>
3

>  <REMARK>
 VINA RESULT:      -5.3      3.168      6.342
  Name = 
  9 active torsions:
  status: ('A' for Active; 'I' for Inactive)
    1  A    between atoms: C_1  and  C_22
    2  A    between atoms: C_2  and  C_14
    3  A    between atoms: C_3  and  S_28
    4  A    between atoms: C_6  and  C_8
    5  A    between atoms: C_6  and  C_21
    6  A    between atoms: C_14  and  C_20
    7  A    between atoms: C_14  and  C_22
    8  A    between atoms: C_20  and  S_28
    9  A    between atoms: C_22  and  C_29
                            x       y       z     vdW  Elec       q    Type
                         _______ _______ _______ _____ _____    ______ ____

>  <TORSDO>
F 9

$$$$
=
 OpenBabel11052412193D

 30 32  0  0  1  0  0  0  0  0999 V2000
  187.9340  177.2890  142.0630 C   0  0  1  0  0  3  0  0  0  0  0  0
  187.9560  176.6370  143.4560 C   0  0  1  0  0  3  0  0  0  0  0  0
  186.9390  178.8330  142.0130 S   0  0  0  0  0  0  0  0  0  0  0  0
  186.2240  177.2020  145.8100 C   0  0  1  0  0  3  0  0  0  0  0  0
  184.5530  178.9520  143.3530 C   0  0  2  0  0  3  0  0  0  0  0  0
  184.6640  177.7740  141.2020 O   0  0  0  0  0  1  0  0  0  0  0  0
  187.7510  177.2050  145.8970 C   0  0  2  0  0  3  0  0  0  0  0  0
  185.3470  178.0320  142.3930 C   0  0  1  0  0  3  0  0  0  0  0  0
  184.4950  178.4210  144.6530 O   0  0  0  0  0  0  0  0  0  0  0  0
  187.9610  178.2700  146.9670 C   0  0  0  0  0  2  0  0  0  0  0  0
  185.8510  177.3570  147.1470 O   0  0  0  0  0  0  0  0  0  0  0  0
  188.6990  175.3130  143.4670 C   0  0  0  0  0  1  0  0  0  0  0  0
  188.4420  177.5580  144.5740 C   0  0  0  0  0  2  0  0  0  0  0  0
  186.5110  178.5640  147.3840 C   0  0  2  0  0  3  0  0  0  0  0  0
  185.8980  179.4810  146.3320 C   0  0  0  0  0  2  0  0  0  0  0  0
  185.7940  178.5210  145.1630 C   0  0  1  0  0  3  0  0  0  0  0  0
  183.1400  179.2820  142.8810 C   0  0  0  0  0  2  0  0  0  0  0  0
  180.7330  178.7780  143.2980 C   0  0  0  0  0  1  0  0  0  0  0  0
  182.1070  178.8980  143.9290 C   0  0  0  0  0  2  0  0  0  0  0  0
  189.3320  177.4370  141.4180 C   0  0  2  0  0  3  0  0  0  0  0  0
  191.1560  178.4840  142.6970 C   0  0  0  0  0  2  0  0  0  0  0  0
  190.1130  178.6300  141.8850 C   0  0  0  0  0  3  0  0  0  0  0  0
  189.3180  177.3460  139.8860 C   0  0  2  0  0  3  0  0  0  0  0  0
  190.5370  176.6760  139.3300 C   0  0  0  0  0  3  0  0  0  0  0  0
  190.4460  175.5980  138.7650 O   0  0  0  0  0  0  0  0  0  0  0  0
  189.1320  178.7210  139.2620 C   0  0  0  0  0  2  0  0  0  0  0  0
  188.6620  178.5540  137.5130 S   0  0  0  0  0  0  0  0  0  0  0  0
  187.3060  177.4040  137.8780 C   0  0  0  0  0  3  0  0  0  0  0  0
  185.9830  178.1270  137.7420 C   0  0  0  0  0  1  0  0  0  0  0  0
  187.3480  176.2470  136.9040 C   0  0  0  0  0  1  0  0  0  0  0  0
  1 20  1  1  0  0  0
  1  2  1  0  0  0  0
  2 12  1  6  0  0  0
  2 13  1  0  0  0  0
  3  1  1  0  0  0  0
  3  8  1  0  0  0  0
  4  7  1  0  0  0  0
  4 11  1  1  0  0  0
  5 17  1  6  0  0  0
  5  9  1  0  0  0  0
  7 13  1  6  0  0  0
  7 10  1  0  0  0  0
  8  6  1  6  0  0  0
  8  5  1  0  0  0  0
  9 16  1  0  0  0  0
 10 14  1  0  0  0  0
 11 14  1  0  0  0  0
 14 15  1  6  0  0  0
 16  4  1  0  0  0  0
 16 15  1  1  0  0  0
 17 19  1  0  0  0  0
 18 19  1  0  0  0  0
 20 22  1  6  0  0  0
 22 21  2  0  0  0  0
 23 26  1  6  0  0  0
 23 20  1  0  0  0  0
 24 23  1  0  0  0  0
 25 24  2  0  0  0  0
 27 28  1  0  0  0  0
 27 26  1  0  0  0  0
 29 28  1  0  0  0  0
 30 28  1  0  0  0  0
M  END
>  <MODEL>
4

>  <REMARK>
 VINA RESULT:      -5.0      2.717      6.144
  Name = 
  9 active torsions:
  status: ('A' for Active; 'I' for Inactive)
    1  A    between atoms: C_1  and  C_22
    2  A    between atoms: C_2  and  C_14
    3  A    between atoms: C_3  and  S_28
    4  A    between atoms: C_6  and  C_8
    5  A    between atoms: C_6  and  C_21
    6  A    between atoms: C_14  and  C_20
    7  A    between atoms: C_14  and  C_22
    8  A    between atoms: C_20  and  S_28
    9  A    between atoms: C_22  and  C_29
                            x       y       z     vdW  Elec       q    Type
                         _______ _______ _______ _____ _____    ______ ____

>  <TORSDO>
F 9

$$$$
=
 OpenBabel11052412193D

 30 32  0  0  1  0  0  0  0  0999 V2000
  190.4950  177.7030  140.2070 C   0  0  1  0  0  3  0  0  0  0  0  0
  191.7450  177.2230  139.4510 C   0  0  1  0  0  3  0  0  0  0  0  0
  188.9290  177.2250  139.3740 S   0  0  0  0  0  0  0  0  0  0  0  0
  191.9600  176.1820  136.6710 C   0  0  1  0  0  3  0  0  0  0  0  0
  188.7350  177.4020  136.6480 C   0  0  2  0  0  3  0  0  0  0  0  0
  188.5560  179.4440  137.9980 O   0  0  0  0  0  1  0  0  0  0  0  0
  192.5200  175.4230  137.8750 C   0  0  2  0  0  3  0  0  0  0  0  0
  189.2140  178.2180  137.8740 C   0  0  1  0  0  3  0  0  0  0  0  0
  189.8150  176.9410  135.8740 O   0  0  0  0  0  0  0  0  0  0  0  0
  192.3260  173.9860  137.4070 C   0  0  0  0  0  2  0  0  0  0  0  0
  192.4180  175.4130  135.5980 O   0  0  0  0  0  0  0  0  0  0  0  0
  193.0340  177.7040  140.0940 C   0  0  0  0  0  1  0  0  0  0  0  0
  191.7810  175.7190  139.1860 C   0  0  0  0  0  2  0  0  0  0  0  0
  191.8250  174.2050  135.9700 C   0  0  2  0  0  3  0  0  0  0  0  0
  190.3490  174.5750  136.0390 C   0  0  0  0  0  2  0  0  0  0  0  0
  190.4450  175.9610  136.6480 C   0  0  1  0  0  3  0  0  0  0  0  0
  187.7500  178.1420  135.7470 C   0  0  0  0  0  2  0  0  0  0  0  0
  186.3770  176.1730  136.4220 C   0  0  0  0  0  1  0  0  0  0  0  0
  186.3390  177.6030  135.9170 C   0  0  0  0  0  2  0  0  0  0  0  0
  190.5120  177.3750  141.7190 C   0  0  2  0  0  3  0  0  0  0  0  0
  190.6710  175.3210  143.0680 C   0  0  0  0  0  2  0  0  0  0  0  0
  190.0990  175.9730  142.0590 C   0  0  0  0  0  3  0  0  0  0  0  0
  189.7650  178.4000  142.5820 C   0  0  2  0  0  3  0  0  0  0  0  0
  190.5700  178.8750  143.7520 C   0  0  0  0  0  3  0  0  0  0  0  0
  191.7830  178.7370  143.7660 O   0  0  0  0  0  0  0  0  0  0  0  0
  188.4250  177.8480  143.0440 C   0  0  0  0  0  2  0  0  0  0  0  0
  188.3740  177.7710  144.8600 S   0  0  0  0  0  0  0  0  0  0  0  0
  186.5680  177.6000  144.9080 C   0  0  0  0  0  3  0  0  0  0  0  0
  186.0120  178.4500  146.0310 C   0  0  0  0  0  1  0  0  0  0  0  0
  185.9800  178.0620  143.5920 C   0  0  0  0  0  1  0  0  0  0  0  0
  1 20  1  1  0  0  0
  2 12  1  1  0  0  0
  2  1  1  0  0  0  0
  3  1  1  0  0  0  0
  4 11  1  6  0  0  0
  4  7  1  0  0  0  0
  5 17  1  6  0  0  0
  5  8  1  0  0  0  0
  7 10  1  6  0  0  0
  7 13  1  0  0  0  0
  8  6  1  1  0  0  0
  8  3  1  0  0  0  0
  9  5  1  0  0  0  0
  9 16  1  0  0  0  0
 11 14  1  0  0  0  0
 13  2  1  0  0  0  0
 14 15  1  1  0  0  0
 14 10  1  0  0  0  0
 16 15  1  6  0  0  0
 16  4  1  0  0  0  0
 17 19  1  0  0  0  0
 19 18  1  0  0  0  0
 20 22  1  6  0  0  0
 20 23  1  0  0  0  0
 22 21  2  0  0  0  0
 23 26  1  1  0  0  0
 23 24  1  0  0  0  0
 24 25  2  0  0  0  0
 26 27  1  0  0  0  0
 27 28  1  0  0  0  0
 28 29  1  0  0  0  0
 30 28  1  0  0  0  0
M  END
>  <MODEL>
5

>  <REMARK>
 VINA RESULT:      -5.0      4.863     10.092
  Name = 
  9 active torsions:
  status: ('A' for Active; 'I' for Inactive)
    1  A    between atoms: C_1  and  C_22
    2  A    between atoms: C_2  and  C_14
    3  A    between atoms: C_3  and  S_28
    4  A    between atoms: C_6  and  C_8
    5  A    between atoms: C_6  and  C_21
    6  A    between atoms: C_14  and  C_20
    7  A    between atoms: C_14  and  C_22
    8  A    between atoms: C_20  and  S_28
    9  A    between atoms: C_22  and  C_29
                            x       y       z     vdW  Elec       q    Type
                         _______ _______ _______ _____ _____    ______ ____

>  <TORSDO>
F 9

$$$$
=
 OpenBabel11052412193D

 30 32  0  0  1  0  0  0  0  0999 V2000
  187.3510  176.9680  138.0020 C   0  0  1  0  0  3  0  0  0  0  0  0
  188.0480  175.6920  137.5020 C   0  0  1  0  0  3  0  0  0  0  0  0
  188.5280  178.2080  138.6740 S   0  0  0  0  0  0  0  0  0  0  0  0
  190.8400  174.7790  137.9830 C   0  0  1  0  0  3  0  0  0  0  0  0
  190.6230  177.3820  140.2330 C   0  0  2  0  0  3  0  0  0  0  0  0
  188.3770  177.5140  141.2150 O   0  0  0  0  0  1  0  0  0  0  0  0
  190.2430  174.8830  136.5780 C   0  0  2  0  0  3  0  0  0  0  0  0
  189.0970  177.1780  140.0650 C   0  0  1  0  0  3  0  0  0  0  0  0
  191.3480  176.2490  139.8250 O   0  0  0  0  0  0  0  0  0  0  0  0
  191.4880  175.2500  135.7790 C   0  0  0  0  0  2  0  0  0  0  0  0
  192.0760  174.1790  137.7340 O   0  0  0  0  0  0  0  0  0  0  0  0
  187.0620  174.6350  137.0360 C   0  0  0  0  0  1  0  0  0  0  0  0
  189.1360  175.9380  136.4570 C   0  0  0  0  0  2  0  0  0  0  0  0
  192.5770  175.1430  136.8580 C   0  0  2  0  0  3  0  0  0  0  0  0
  192.5250  176.4090  137.7040 C   0  0  0  0  0  2  0  0  0  0  0  0
  191.2140  176.1940  138.4330 C   0  0  1  0  0  3  0  0  0  0  0  0
  191.0530  177.7720  141.6450 C   0  0  0  0  0  2  0  0  0  0  0  0
  191.3600  176.9250  143.9700 C   0  0  0  0  0  1  0  0  0  0  0  0
  191.2960  176.5420  142.5040 C   0  0  0  0  0  2  0  0  0  0  0  0
  186.3380  177.5650  136.9970 C   0  0  2  0  0  3  0  0  0  0  0  0
  186.9630  178.3270  134.7410 C   0  0  0  0  0  2  0  0  0  0  0  0
  186.9180  178.5720  136.0480 C   0  0  0  0  0  3  0  0  0  0  0  0
  185.0540  178.0920  137.6520 C   0  0  2  0  0  3  0  0  0  0  0  0
  185.2640  178.5500  139.0620 C   0  0  0  0  0  3  0  0  0  0  0  0
  184.8850  179.6540  139.4170 O   0  0  0  0  0  0  0  0  0  0  0  0
  183.9450  177.0530  137.5870 C   0  0  0  0  0  2  0  0  0  0  0  0
  182.3270  177.8740  137.4750 S   0  0  0  0  0  0  0  0  0  0  0  0
  181.7010  177.0800  138.9820 C   0  0  0  0  0  3  0  0  0  0  0  0
  182.5780  175.8960  139.3290 C   0  0  0  0  0  1  0  0  0  0  0  0
  181.7220  178.0720  140.1240 C   0  0  0  0  0  1  0  0  0  0  0  0
  1 20  1  6  0  0  0
  1  3  1  0  0  0  0
  2 12  1  6  0  0  0
  2  1  1  0  0  0  0
  3  8  1  0  0  0  0
  4 11  1  6  0  0  0
  4 16  1  0  0  0  0
  5 17  1  1  0  0  0
  7 10  1  6  0  0  0
  7  4  1  0  0  0  0
  8  5  1  0  0  0  0
  8  6  1  1  0  0  0
  9  5  1  0  0  0  0
 13  7  1  0  0  0  0
 13  2  1  0  0  0  0
 14 10  1  6  0  0  0
 14 15  1  0  0  0  0
 14 11  1  0  0  0  0
 16 15  1  6  0  0  0
 16  9  1  0  0  0  0
 17 19  1  0  0  0  0
 19 18  1  0  0  0  0
 20 22  1  1  0  0  0
 20 23  1  0  0  0  0
 21 22  2  0  0  0  0
 23 26  1  1  0  0  0
 23 24  1  0  0  0  0
 24 25  2  0  0  0  0
 27 26  1  0  0  0  0
 27 28  1  0  0  0  0
 28 29  1  0  0  0  0
 28 30  1  0  0  0  0
M  END
>  <MODEL>
6

>  <REMARK>
 VINA RESULT:      -4.9      3.414      8.502
  Name = 
  9 active torsions:
  status: ('A' for Active; 'I' for Inactive)
    1  A    between atoms: C_1  and  C_22
    2  A    between atoms: C_2  and  C_14
    3  A    between atoms: C_3  and  S_28
    4  A    between atoms: C_6  and  C_8
    5  A    between atoms: C_6  and  C_21
    6  A    between atoms: C_14  and  C_20
    7  A    between atoms: C_14  and  C_22
    8  A    between atoms: C_20  and  S_28
    9  A    between atoms: C_22  and  C_29
                            x       y       z     vdW  Elec       q    Type
                         _______ _______ _______ _____ _____    ______ ____

>  <TORSDO>
F 9

$$$$
=
 OpenBabel11052412193D

 30 32  0  0  1  0  0  0  0  0999 V2000
  188.6490  177.4540  141.8400 C   0  0  1  0  0  3  0  0  0  0  0  0
  187.8180  176.9570  143.0340 C   0  0  1  0  0  3  0  0  0  0  0  0
  187.9880  179.0020  141.1050 S   0  0  0  0  0  0  0  0  0  0  0  0
  185.1000  177.8070  143.9000 C   0  0  1  0  0  3  0  0  0  0  0  0
  185.2820  179.3110  140.8040 C   0  0  2  0  0  3  0  0  0  0  0  0
  186.5140  177.9050  139.2120 O   0  0  0  0  0  1  0  0  0  0  0  0
  186.2950  177.7910  144.8540 C   0  0  2  0  0  3  0  0  0  0  0  0
  186.4090  178.2770  140.5540 C   0  0  1  0  0  3  0  0  0  0  0  0
  184.4480  178.9260  141.8670 O   0  0  0  0  0  0  0  0  0  0  0  0
  185.9370  178.9610  145.7620 C   0  0  0  0  0  2  0  0  0  0  0  0
  184.0420  178.1140  144.7590 O   0  0  0  0  0  0  0  0  0  0  0  0
  188.3140  175.6280  143.5760 C   0  0  0  0  0  1  0  0  0  0  0  0
  187.6450  177.9840  144.1520 C   0  0  0  0  0  2  0  0  0  0  0  0
  184.5380  179.3260  145.2390 C   0  0  2  0  0  3  0  0  0  0  0  0
  184.7130  180.1350  143.9590 C   0  0  0  0  0  2  0  0  0  0  0  0
  185.2230  179.0560  143.0240 C   0  0  1  0  0  3  0  0  0  0  0  0
  184.4270  179.6150  139.5770 C   0  0  0  0  0  2  0  0  0  0  0  0
  181.9830  179.7730  139.1030 C   0  0  0  0  0  1  0  0  0  0  0  0
  183.0910  178.8910  139.6470 C   0  0  0  0  0  2  0  0  0  0  0  0
  190.1710  177.5050  142.1130 C   0  0  2  0  0  3  0  0  0  0  0  0
  191.0700  178.8520  143.9670 C   0  0  0  0  0  2  0  0  0  0  0  0
  190.6570  178.7950  142.7040 C   0  0  0  0  0  3  0  0  0  0  0  0
  191.0280  177.0840  140.9120 C   0  0  2  0  0  3  0  0  0  0  0  0
  192.4310  177.6050  140.9850 C   0  0  0  0  0  3  0  0  0  0  0  0
  193.2590  177.2720  140.1520 O   0  0  0  0  0  0  0  0  0  0  0  0
  190.3710  177.4980  139.6040 C   0  0  0  0  0  2  0  0  0  0  0  0
  190.4060  176.1150  138.4240 S   0  0  0  0  0  0  0  0  0  0  0  0
  189.7270  177.1150  137.0700 C   0  0  0  0  0  3  0  0  0  0  0  0
  188.4480  176.4790  136.5670 C   0  0  0  0  0  1  0  0  0  0  0  0
  189.4300  178.5110  137.5700 C   0  0  0  0  0  1  0  0  0  0  0  0
  1 20  1  1  0  0  0
  1  2  1  0  0  0  0
  2 12  1  1  0  0  0
  2 13  1  0  0  0  0
  3  1  1  0  0  0  0
  4 11  1  1  0  0  0
  4  7  1  0  0  0  0
  5 17  1  6  0  0  0
  5  9  1  0  0  0  0
  7 13  1  6  0  0  0
  7 10  1  0  0  0  0
  8  6  1  6  0  0  0
  8  5  1  0  0  0  0
  8  3  1  0  0  0  0
  9 16  1  0  0  0  0
 11 14  1  0  0  0  0
 14 15  1  6  0  0  0
 14 10  1  0  0  0  0
 16  4  1  0  0  0  0
 16 15  1  1  0  0  0
 17 19  1  0  0  0  0
 18 19  1  0  0  0  0
 20 22  1  6  0  0  0
 22 21  2  0  0  0  0
 23 26  1  6  0  0  0
 23 24  1  0  0  0  0
 23 20  1  0  0  0  0
 25 24  2  0  0  0  0
 27 26  1  0  0  0  0
 28 30  1  0  0  0  0
 28 27  1  0  0  0  0
 29 28  1  0  0  0  0
M  END
>  <MODEL>
7

>  <REMARK>
 VINA RESULT:      -4.8      2.979      6.341
  Name = 
  9 active torsions:
  status: ('A' for Active; 'I' for Inactive)
    1  A    between atoms: C_1  and  C_22
    2  A    between atoms: C_2  and  C_14
    3  A    between atoms: C_3  and  S_28
    4  A    between atoms: C_6  and  C_8
    5  A    between atoms: C_6  and  C_21
    6  A    between atoms: C_14  and  C_20
    7  A    between atoms: C_14  and  C_22
    8  A    between atoms: C_20  and  S_28
    9  A    between atoms: C_22  and  C_29
                            x       y       z     vdW  Elec       q    Type
                         _______ _______ _______ _____ _____    ______ ____

>  <TORSDO>
F 9

$$$$
=
 OpenBabel11052412193D

 30 32  0  0  1  0  0  0  0  0999 V2000
  188.5820  177.7410  141.6370 C   0  0  1  0  0  3  0  0  0  0  0  0
  187.8210  177.1700  142.8450 C   0  0  1  0  0  3  0  0  0  0  0  0
  187.7940  179.2510  140.9470 S   0  0  0  0  0  0  0  0  0  0  0  0
  185.0780  177.8180  143.8020 C   0  0  1  0  0  3  0  0  0  0  0  0
  185.0670  179.3780  140.7280 C   0  0  2  0  0  3  0  0  0  0  0  0
  186.3440  178.0840  139.0780 O   0  0  0  0  0  1  0  0  0  0  0  0
  186.2990  177.8700  144.7220 C   0  0  2  0  0  3  0  0  0  0  0  0
  186.2530  178.4280  140.4290 C   0  0  1  0  0  3  0  0  0  0  0  0
  184.2920  178.9200  141.8070 O   0  0  0  0  0  0  0  0  0  0  0  0
  185.8890  178.9990  145.6590 C   0  0  0  0  0  2  0  0  0  0  0  0
  184.0270  178.0380  144.6950 O   0  0  0  0  0  0  0  0  0  0  0  0
  188.4230  175.8700  143.3500 C   0  0  0  0  0  1  0  0  0  0  0  0
  187.6110  178.1660  143.9850 C   0  0  0  0  0  2  0  0  0  0  0  0
  184.4530  179.2750  145.1820 C   0  0  2  0  0  3  0  0  0  0  0  0
  184.5350  180.1130  143.9120 C   0  0  0  0  0  2  0  0  0  0  0  0
  185.0900  179.0860  142.9440 C   0  0  1  0  0  3  0  0  0  0  0  0
  184.1570  179.6400  139.5310 C   0  0  0  0  0  2  0  0  0  0  0  0
  181.6650  179.7260  139.4600 C   0  0  0  0  0  1  0  0  0  0  0  0
  182.8760  178.8270  139.6270 C   0  0  0  0  0  2  0  0  0  0  0  0
  190.1030  177.8920  141.8670 C   0  0  2  0  0  3  0  0  0  0  0  0
  190.6070  176.6130  139.8250 C   0  0  0  0  0  2  0  0  0  0  0  0
  190.9540  176.9530  141.0630 C   0  0  0  0  0  3  0  0  0  0  0  0
  190.5090  177.8820  143.3470 C   0  0  2  0  0  3  0  0  0  0  0  0
  190.5880  179.2550  143.9400 C   0  0  0  0  0  3  0  0  0  0  0  0
  191.6530  179.6950  144.3440 O   0  0  0  0  0  0  0  0  0  0  0  0
  191.8210  177.1370  143.5460 C   0  0  0  0  0  2  0  0  0  0  0  0
  191.5400  175.6270  144.5180 S   0  0  0  0  0  0  0  0  0  0  0  0
  191.6800  176.4950  146.1050 C   0  0  0  0  0  3  0  0  0  0  0  0
  190.2950  176.7860  146.6440 C   0  0  0  0  0  1  0  0  0  0  0  0
  192.4300  175.6280  147.0920 C   0  0  0  0  0  1  0  0  0  0  0  0
  1 20  1  1  0  0  0
  1  2  1  0  0  0  0
  2 12  1  1  0  0  0
  2 13  1  0  0  0  0
  3  1  1  0  0  0  0
  4 11  1  1  0  0  0
  4  7  1  0  0  0  0
  5 17  1  6  0  0  0
  5  9  1  0  0  0  0
  7 13  1  6  0  0  0
  7 10  1  0  0  0  0
  8  6  1  6  0  0  0
  8  5  1  0  0  0  0
  8  3  1  0  0  0  0
  9 16  1  0  0  0  0
 11 14  1  0  0  0  0
 14 15  1  6  0  0  0
 14 10  1  0  0  0  0
 16  4  1  0  0  0  0
 16 15  1  1  0  0  0
 17 19  1  0  0  0  0
 18 19  1  0  0  0  0
 20 22  1  6  0  0  0
 20 23  1  0  0  0  0
 21 22  2  0  0  0  0
 23 26  1  6  0  0  0
 23 24  1  0  0  0  0
 24 25  2  0  0  0  0
 26 27  1  0  0  0  0
 27 28  1  0  0  0  0
 28 29  1  0  0  0  0
 28 30  1  0  0  0  0
M  END
>  <MODEL>
8

>  <REMARK>
 VINA RESULT:      -4.7      3.687      7.063
  Name = 
  9 active torsions:
  status: ('A' for Active; 'I' for Inactive)
    1  A    between atoms: C_1  and  C_22
    2  A    between atoms: C_2  and  C_14
    3  A    between atoms: C_3  and  S_28
    4  A    between atoms: C_6  and  C_8
    5  A    between atoms: C_6  and  C_21
    6  A    between atoms: C_14  and  C_20
    7  A    between atoms: C_14  and  C_22
    8  A    between atoms: C_20  and  S_28
    9  A    between atoms: C_22  and  C_29
                            x       y       z     vdW  Elec       q    Type
                         _______ _______ _______ _____ _____    ______ ____

>  <TORSDO>
F 9

$$$$
=
 OpenBabel11052412193D

 30 32  0  0  1  0  0  0  0  0999 V2000
  190.0490  177.1020  143.8210 C   0  0  1  0  0  3  0  0  0  0  0  0
  190.1670  176.5280  145.2430 C   0  0  1  0  0  3  0  0  0  0  0  0
  188.7270  178.3690  143.6700 S   0  0  0  0  0  0  0  0  0  0  0  0
  188.2600  176.7650  147.5170 C   0  0  1  0  0  3  0  0  0  0  0  0
  186.3270  177.9800  144.9330 C   0  0  2  0  0  3  0  0  0  0  0  0
  186.7920  176.7770  142.8430 O   0  0  0  0  0  1  0  0  0  0  0  0
  189.7400  177.1280  147.6480 C   0  0  2  0  0  3  0  0  0  0  0  0
  187.3500  177.2340  144.0400 C   0  0  1  0  0  3  0  0  0  0  0  0
  186.3420  177.5010  146.2540 O   0  0  0  0  0  0  0  0  0  0  0  0
  189.6560  178.2530  148.6720 C   0  0  0  0  0  2  0  0  0  0  0  0
  187.8100  176.8810  148.8330 O   0  0  0  0  0  0  0  0  0  0  0  0
  191.1960  175.4150  145.3380 C   0  0  0  0  0  1  0  0  0  0  0  0
  190.3820  177.5800  146.3310 C   0  0  0  0  0  2  0  0  0  0  0  0
  188.1620  178.2170  149.0320 C   0  0  2  0  0  3  0  0  0  0  0  0
  187.3950  178.9240  147.9210 C   0  0  0  0  0  2  0  0  0  0  0  0
  187.5620  177.9220  146.7960 C   0  0  1  0  0  3  0  0  0  0  0  0
  184.8950  177.9530  144.4050 C   0  0  0  0  0  2  0  0  0  0  0  0
  182.8700  179.3340  143.9490 C   0  0  0  0  0  1  0  0  0  0  0  0
  184.3700  179.3600  144.1710 C   0  0  0  0  0  2  0  0  0  0  0  0
  191.3980  177.5470  143.2100 C   0  0  2  0  0  3  0  0  0  0  0  0
  192.0500  179.6390  144.3350 C   0  0  0  0  0  2  0  0  0  0  0  0
  191.6340  179.0290  143.2280 C   0  0  0  0  0  3  0  0  0  0  0  0
  191.6730  176.9560  141.8210 C   0  0  2  0  0  3  0  0  0  0  0  0
  192.4750  177.8690  140.9470 C   0  0  0  0  0  3  0  0  0  0  0  0
  193.2810  177.4140  140.1510 O   0  0  0  0  0  0  0  0  0  0  0  0
  190.3750  176.5600  141.1330 C   0  0  0  0  0  2  0  0  0  0  0  0
  189.8410  177.8800  140.0030 S   0  0  0  0  0  0  0  0  0  0  0  0
  189.3920  176.7150  138.6850 C   0  0  0  0  0  3  0  0  0  0  0  0
  188.7740  177.4740  137.5300 C   0  0  0  0  0  1  0  0  0  0  0  0
  190.6310  175.9910  138.2040 C   0  0  0  0  0  1  0  0  0  0  0  0
  1 20  1  1  0  0  0
  1  2  1  0  0  0  0
  2 12  1  6  0  0  0
  2 13  1  0  0  0  0
  3  1  1  0  0  0  0
  3  8  1  0  0  0  0
  4  7  1  0  0  0  0
  4 11  1  1  0  0  0
  5 17  1  6  0  0  0
  5  9  1  0  0  0  0
  7 13  1  6  0  0  0
  7 10  1  0  0  0  0
  8  6  1  6  0  0  0
  8  5  1  0  0  0  0
  9 16  1  0  0  0  0
 10 14  1  0  0  0  0
 11 14  1  0  0  0  0
 14 15  1  6  0  0  0
 16  4  1  0  0  0  0
 16 15  1  1  0  0  0
 18 19  1  0  0  0  0
 19 17  1  0  0  0  0
 20 22  1  6  0  0  0
 22 21  2  0  0  0  0
 23 24  1  6  0  0  0
 23 20  1  0  0  0  0
 25 24  2  0  0  0  0
 26 23  1  0  0  0  0
 27 26  1  0  0  0  0
 28 27  1  0  0  0  0
 29 28  1  0  0  0  0
 30 28  1  0  0  0  0
M  END
>  <MODEL>
9

>  <REMARK>
 VINA RESULT:      -4.6      4.186      8.046
  Name = 
  9 active torsions:
  status: ('A' for Active; 'I' for Inactive)
    1  A    between atoms: C_1  and  C_22
    2  A    between atoms: C_2  and  C_14
    3  A    between atoms: C_3  and  S_28
    4  A    between atoms: C_6  and  C_8
    5  A    between atoms: C_6  and  C_21
    6  A    between atoms: C_14  and  C_20
    7  A    between atoms: C_14  and  C_22
    8  A    between atoms: C_20  and  S_28
    9  A    between atoms: C_22  and  C_29
                            x       y       z     vdW  Elec       q    Type
                         _______ _______ _______ _____ _____    ______ ____

>  <TORSDO>
F 9

$$$$
