=
 OpenBabel11052412253D

 30 34  0  0  1  0  0  0  0  0999 V2000
  183.6560  178.7320  139.4010 C   0  0  0  0  0  2  0  0  0  0  0  0
  184.7720  178.4290  142.4770 C   0  0  0  0  0  0  0  0  0  0  0  0
  178.9310  179.7170  139.6660 C   0  0  0  0  0  2  0  0  0  0  0  0
  183.5700  178.1240  138.0060 C   0  0  0  0  0  2  0  0  0  0  0  0
  183.4290  177.6910  140.4850 C   0  0  0  0  0  2  0  0  0  0  0  0
  184.7370  174.7710  135.6750 C   0  0  0  0  0  2  0  0  0  0  0  0
  179.4700  175.9850  137.5980 O   0  0  0  0  0  0  0  0  0  0  0  0
  184.7340  177.1720  137.7110 C   0  0  1  0  0  0  0  0  0  0  0  0
  183.8920  175.1920  136.8610 C   0  0  0  0  0  0  0  0  0  0  0  0
  179.9840  178.7010  139.2080 C   0  0  0  0  0  2  0  0  0  0  0  0
  178.9730  180.0630  141.1610 C   0  0  0  0  0  2  0  0  0  0  0  0
  184.5720  175.7870  137.9470 O   0  0  0  0  0  0  0  0  0  0  0  0
  185.4230  177.4700  136.5200 O   0  0  0  0  0  0  0  0  0  0  0  0
  184.8860  179.1170  143.6420 N   0  0  0  0  0  0  0  0  0  0  0  0
  180.5510  175.7580  138.2010 C   0  0  0  0  0  0  0  0  0  0  0  0
  180.8620  176.4280  139.4230 N   0  0  0  0  0  2  0  0  0  0  0  0
  184.2620  173.7340  136.6810 C   0  0  0  0  0  2  0  0  0  0  0  0
  185.9280  177.8150  141.9150 N   0  0  0  0  0  1  0  0  0  0  0  0
  182.4220  178.9830  142.4320 C   0  0  0  0  0  0  0  0  0  0  0  0
  183.8130  179.7350  144.1980 C   0  0  0  0  0  3  0  0  0  0  0  0
  182.4180  175.5030  136.6160 C   0  0  0  0  0  2  0  0  0  0  0  0
  183.5280  178.3430  141.8320 C   0  0  0  0  0  0  0  0  0  0  0  0
  180.4430  177.6010  141.5080 C   0  0  0  0  0  2  0  0  0  0  0  0
  180.3640  180.0640  141.7190 C   0  0  0  0  0  3  0  0  0  0  0  0
  179.9950  177.4150  140.0460 C   0  0  1  0  0  3  0  0  0  0  0  0
  181.5350  174.8000  137.6340 C   0  0  0  0  0  2  0  0  0  0  0  0
  186.1450  177.6440  137.7190 C   0  0  1  0  0  3  0  0  0  0  0  0
  182.6000  179.6690  143.5930 N   0  0  0  0  0  0  0  0  0  0  0  0
  181.0700  178.9340  141.8410 C   0  0  0  0  0  0  0  0  0  0  0  0
  186.2430  179.0090  137.9980 O   0  0  0  0  0  1  0  0  0  0  0  0
  1  5  1  0  0  0  0
  2 14  1  0  0  0  0
  3 11  1  0  0  0  0
  4  1  1  0  0  0  0
  5 22  1  0  0  0  0
  6 17  1  0  0  0  0
  6  9  1  0  0  0  0
  7 15  2  0  0  0  0
  8 27  1  0  0  0  0
  8 12  1  0  0  0  0
  8  4  1  1  0  0  0
  9 12  1  0  0  0  0
 10  3  1  0  0  0  0
 11 24  1  0  0  0  0
 13  8  1  0  0  0  0
 13 27  1  0  0  0  0
 14 20  2  0  0  0  0
 15 16  1  0  0  0  0
 16 25  1  0  0  0  0
 17  9  1  0  0  0  0
 18  2  1  0  0  0  0
 19 28  2  0  0  0  0
 21  9  1  0  0  0  0
 21 26  1  0  0  0  0
 22 19  1  0  0  0  0
 22  2  2  0  0  0  0
 23 29  1  0  0  0  0
 24 29  2  0  0  0  0
 25 10  1  6  0  0  0
 25 23  1  0  0  0  0
 26 15  1  0  0  0  0
 27 30  1  1  0  0  0
 28 20  1  0  0  0  0
 29 19  1  0  0  0  0
M  END
>  <MODEL>
1

>  <REMARK>
 VINA RESULT:      -5.9      0.000      0.000
  Name = 
  0 active torsions:
  status: ('A' for Active; 'I' for Inactive)
                            x       y       z     vdW  Elec       q    Type
                         _______ _______ _______ _____ _____    ______ ____

>  <TORSDO>
F 0

$$$$
=
 OpenBabel11052412253D

 30 34  0  0  1  0  0  0  0  0999 V2000
  184.9660  176.9890  136.0190 C   0  0  0  0  0  2  0  0  0  0  0  0
  184.7680  178.8640  138.7110 C   0  0  0  0  0  0  0  0  0  0  0  0
  180.4570  175.7840  134.7600 C   0  0  0  0  0  2  0  0  0  0  0  0
  185.6020  175.7770  135.3490 C   0  0  0  0  0  2  0  0  0  0  0  0
  184.5690  176.6950  137.4570 C   0  0  0  0  0  2  0  0  0  0  0  0
  188.3710  172.6130  135.9540 C   0  0  0  0  0  2  0  0  0  0  0  0
  182.6540  172.2060  135.6940 O   0  0  0  0  0  0  0  0  0  0  0  0
  186.9730  175.4340  135.9410 C   0  0  1  0  0  0  0  0  0  0  0  0
  187.0430  173.1720  136.4240 C   0  0  0  0  0  0  0  0  0  0  0  0
  181.8120  175.2610  135.2520 C   0  0  0  0  0  2  0  0  0  0  0  0
  179.8030  176.8370  135.6650 C   0  0  0  0  0  2  0  0  0  0  0  0
  187.0600  174.4740  136.9750 O   0  0  0  0  0  0  0  0  0  0  0  0
  187.9970  175.3300  134.9800 O   0  0  0  0  0  0  0  0  0  0  0  0
  184.2320  180.0260  139.1630 N   0  0  0  0  0  0  0  0  0  0  0  0
  183.4160  172.8290  136.4800 C   0  0  0  0  0  0  0  0  0  0  0  0
  183.0340  174.0930  137.0200 N   0  0  0  0  0  2  0  0  0  0  0  0
  187.7860  172.1740  137.2870 C   0  0  0  0  0  2  0  0  0  0  0  0
  186.1620  178.6250  138.8850 N   0  0  0  0  0  1  0  0  0  0  0  0
  182.5830  178.2190  137.9110 C   0  0  0  0  0  0  0  0  0  0  0  0
  182.9130  180.3010  138.9950 C   0  0  0  0  0  3  0  0  0  0  0  0
  185.7690  172.6280  135.7840 C   0  0  0  0  0  2  0  0  0  0  0  0
  183.9540  177.9200  138.0650 C   0  0  0  0  0  0  0  0  0  0  0  0
  181.5380  175.8590  137.7580 C   0  0  0  0  0  2  0  0  0  0  0  0
  180.8030  177.7380  136.3260 C   0  0  0  0  0  3  0  0  0  0  0  0
  181.7830  174.7630  136.7030 C   0  0  1  0  0  3  0  0  0  0  0  0
  184.7410  172.2610  136.8410 C   0  0  0  0  0  2  0  0  0  0  0  0
  188.1040  176.4000  135.8920 C   0  0  1  0  0  3  0  0  0  0  0  0
  182.1050  179.4060  138.3730 N   0  0  0  0  0  0  0  0  0  0  0  0
  181.6430  177.2830  137.2630 C   0  0  0  0  0  0  0  0  0  0  0  0
  187.7560  177.5880  135.2450 O   0  0  0  0  0  1  0  0  0  0  0  0
  1  5  1  0  0  0  0
  2 18  1  0  0  0  0
  2 14  1  0  0  0  0
  3 10  1  0  0  0  0
  3 11  1  0  0  0  0
  4  1  1  0  0  0  0
  5 22  1  0  0  0  0
  6  9  1  0  0  0  0
  6 17  1  0  0  0  0
  7 15  2  0  0  0  0
  8  4  1  6  0  0  0
  8 12  1  0  0  0  0
  9 12  1  0  0  0  0
  9 17  1  0  0  0  0
 11 24  1  0  0  0  0
 13 27  1  0  0  0  0
 13  8  1  0  0  0  0
 15 26  1  0  0  0  0
 15 16  1  0  0  0  0
 19 22  1  0  0  0  0
 19 28  2  0  0  0  0
 20 14  2  0  0  0  0
 21  9  1  0  0  0  0
 21 26  1  0  0  0  0
 22  2  2  0  0  0  0
 24 29  2  0  0  0  0
 25 10  1  6  0  0  0
 25 16  1  0  0  0  0
 25 23  1  0  0  0  0
 27 30  1  6  0  0  0
 27  8  1  0  0  0  0
 28 20  1  0  0  0  0
 29 23  1  0  0  0  0
 29 19  1  0  0  0  0
M  END
>  <MODEL>
2

>  <REMARK>
 VINA RESULT:      -5.8      3.220      4.459
  Name = 
  0 active torsions:
  status: ('A' for Active; 'I' for Inactive)
                            x       y       z     vdW  Elec       q    Type
                         _______ _______ _______ _____ _____    ______ ____

>  <TORSDO>
F 0

$$$$
=
 OpenBabel11052412253D

 30 34  0  0  1  0  0  0  0  0999 V2000
  185.0340  177.6940  137.4890 C   0  0  0  0  0  2  0  0  0  0  0  0
  183.7510  174.7530  136.7790 C   0  0  0  0  0  0  0  0  0  0  0  0
  189.4300  177.8780  135.4870 C   0  0  0  0  0  2  0  0  0  0  0  0
  185.3540  178.7230  138.5670 C   0  0  0  0  0  2  0  0  0  0  0  0
  185.3730  176.2830  137.9390 C   0  0  0  0  0  2  0  0  0  0  0  0
  185.0750  179.4870  142.7360 C   0  0  0  0  0  2  0  0  0  0  0  0
  189.8180  178.2530  139.7540 O   0  0  0  0  0  0  0  0  0  0  0  0
  184.4310  178.6000  139.7850 C   0  0  1  0  0  0  0  0  0  0  0  0
  185.7180  178.5790  141.7070 C   0  0  0  0  0  0  0  0  0  0  0  0
  188.6410  177.8790  136.8020 C   0  0  0  0  0  2  0  0  0  0  0  0
  189.1970  176.6520  134.5940 C   0  0  0  0  0  2  0  0  0  0  0  0
  184.8460  177.8240  140.8910 O   0  0  0  0  0  0  0  0  0  0  0  0
  183.7970  179.8060  140.1410 O   0  0  0  0  0  0  0  0  0  0  0  0
  183.4070  173.9660  135.7270 N   0  0  0  0  0  0  0  0  0  0  0  0
  188.7570  177.6020  139.9500 C   0  0  0  0  0  0  0  0  0  0  0  0
  188.2200  176.7560  138.9340 N   0  0  0  0  0  2  0  0  0  0  0  0
  185.6620  178.1500  143.1590 C   0  0  0  0  0  2  0  0  0  0  0  0
  182.7910  175.0110  137.7990 N   0  0  0  0  0  1  0  0  0  0  0  0
  185.9390  175.0330  135.7960 C   0  0  0  0  0  0  0  0  0  0  0  0
  184.2860  173.7150  134.7240 C   0  0  0  0  0  3  0  0  0  0  0  0
  187.1160  178.9380  141.2090 C   0  0  0  0  0  2  0  0  0  0  0  0
  185.0360  175.3150  136.8440 C   0  0  0  0  0  0  0  0  0  0  0  0
  188.2230  175.3280  136.9690 C   0  0  0  0  0  2  0  0  0  0  0  0
  187.7910  176.1340  134.6710 C   0  0  0  0  0  3  0  0  0  0  0  0
  188.8180  176.5920  137.6190 C   0  0  1  0  0  3  0  0  0  0  0  0
  188.0340  177.7270  141.2420 C   0  0  0  0  0  2  0  0  0  0  0  0
  182.9580  178.7760  139.6650 C   0  0  1  0  0  3  0  0  0  0  0  0
  185.5330  174.2480  134.7620 N   0  0  0  0  0  0  0  0  0  0  0  0
  187.3170  175.5610  135.7830 C   0  0  0  0  0  0  0  0  0  0  0  0
  182.5680  179.0740  138.3580 O   0  0  0  0  0  1  0  0  0  0  0  0
  1  5  1  0  0  0  0
  1  4  1  0  0  0  0
  2 22  1  0  0  0  0
  2 18  1  0  0  0  0
  3 10  1  0  0  0  0
  6 17  1  0  0  0  0
  7 15  2  0  0  0  0
  8  4  1  6  0  0  0
  8 13  1  0  0  0  0
  8 12  1  0  0  0  0
  9  6  1  0  0  0  0
  9 17  1  0  0  0  0
 11 24  1  0  0  0  0
 11  3  1  0  0  0  0
 12  9  1  0  0  0  0
 14  2  2  0  0  0  0
 15 26  1  0  0  0  0
 16 15  1  0  0  0  0
 19 22  2  0  0  0  0
 20 28  2  0  0  0  0
 20 14  1  0  0  0  0
 21 26  1  0  0  0  0
 21  9  1  0  0  0  0
 22  5  1  0  0  0  0
 23 25  1  0  0  0  0
 24 29  2  0  0  0  0
 25 10  1  6  0  0  0
 25 16  1  0  0  0  0
 27 30  1  6  0  0  0
 27  8  1  0  0  0  0
 27 13  1  0  0  0  0
 28 19  1  0  0  0  0
 29 19  1  0  0  0  0
 29 23  1  0  0  0  0
M  END
>  <MODEL>
3

>  <REMARK>
 VINA RESULT:      -5.4      3.229      7.965
  Name = 
  0 active torsions:
  status: ('A' for Active; 'I' for Inactive)
                            x       y       z     vdW  Elec       q    Type
                         _______ _______ _______ _____ _____    ______ ____

>  <TORSDO>
F 0

$$$$
=
 OpenBabel11052412253D

 30 34  0  0  1  0  0  0  0  0999 V2000
  183.6530  177.9440  138.2700 C   0  0  0  0  0  2  0  0  0  0  0  0
  182.6140  174.9010  137.5920 C   0  0  0  0  0  0  0  0  0  0  0  0
  187.5340  178.7940  135.5170 C   0  0  0  0  0  2  0  0  0  0  0  0
  184.0490  178.9500  139.3430 C   0  0  0  0  0  2  0  0  0  0  0  0
  184.2360  176.5670  138.5450 C   0  0  0  0  0  2  0  0  0  0  0  0
  184.4810  179.4630  143.5370 C   0  0  0  0  0  2  0  0  0  0  0  0
  188.6810  179.0030  139.6570 O   0  0  0  0  0  0  0  0  0  0  0  0
  183.3950  178.6490  140.6960 C   0  0  1  0  0  0  0  0  0  0  0  0
  185.0190  178.6980  142.3450 C   0  0  0  0  0  0  0  0  0  0  0  0
  187.0160  178.6280  136.9500 C   0  0  0  0  0  2  0  0  0  0  0  0
  187.2810  177.5950  134.5940 C   0  0  0  0  0  2  0  0  0  0  0  0
  184.1020  177.8780  141.6490 O   0  0  0  0  0  0  0  0  0  0  0  0
  182.7030  179.7430  141.2500 O   0  0  0  0  0  0  0  0  0  0  0  0
  182.1710  174.1300  136.5660 N   0  0  0  0  0  0  0  0  0  0  0  0
  187.7610  178.2120  139.9950 C   0  0  0  0  0  0  0  0  0  0  0  0
  187.1430  177.3550  139.0350 N   0  0  0  0  0  2  0  0  0  0  0  0
  185.2900  178.1940  143.7470 C   0  0  0  0  0  2  0  0  0  0  0  0
  181.8420  174.9820  138.7870 N   0  0  0  0  0  1  0  0  0  0  0  0
  184.5260  175.5100  136.2490 C   0  0  0  0  0  0  0  0  0  0  0  0
  182.8650  174.0450  135.4040 C   0  0  0  0  0  3  0  0  0  0  0  0
  186.2440  179.2590  141.6270 C   0  0  0  0  0  2  0  0  0  0  0  0
  183.8120  175.6210  137.4620 C   0  0  0  0  0  0  0  0  0  0  0  0
  186.9410  176.0390  137.0040 C   0  0  0  0  0  2  0  0  0  0  0  0
  185.9880  176.8960  134.8880 C   0  0  0  0  0  3  0  0  0  0  0  0
  187.4950  177.3350  137.6250 C   0  0  1  0  0  3  0  0  0  0  0  0
  187.2870  178.1770  141.4030 C   0  0  0  0  0  2  0  0  0  0  0  0
  181.9170  178.6390  140.8610 C   0  0  1  0  0  3  0  0  0  0  0  0
  184.0260  174.7310  135.2520 N   0  0  0  0  0  0  0  0  0  0  0  0
  185.8040  176.2120  136.0230 C   0  0  0  0  0  0  0  0  0  0  0  0
  181.2520  178.9490  139.6720 O   0  0  0  0  0  1  0  0  0  0  0  0
  1  5  1  0  0  0  0
  1  4  1  0  0  0  0
  2 18  1  0  0  0  0
  3 10  1  0  0  0  0
  6 17  1  0  0  0  0
  7 15  2  0  0  0  0
  8  4  1  6  0  0  0
  8 27  1  0  0  0  0
  8 13  1  0  0  0  0
  8 12  1  0  0  0  0
  9  6  1  0  0  0  0
  9 17  1  0  0  0  0
 11 24  1  0  0  0  0
 11  3  1  0  0  0  0
 12  9  1  0  0  0  0
 14  2  2  0  0  0  0
 15 26  1  0  0  0  0
 16 15  1  0  0  0  0
 19 22  2  0  0  0  0
 20 14  1  0  0  0  0
 21  9  1  0  0  0  0
 22  2  1  0  0  0  0
 22  5  1  0  0  0  0
 23 25  1  0  0  0  0
 24 29  2  0  0  0  0
 25 10  1  6  0  0  0
 25 16  1  0  0  0  0
 26 21  1  0  0  0  0
 27 30  1  6  0  0  0
 27 13  1  0  0  0  0
 28 20  2  0  0  0  0
 28 19  1  0  0  0  0
 29 19  1  0  0  0  0
 29 23  1  0  0  0  0
M  END
>  <MODEL>
4

>  <REMARK>
 VINA RESULT:      -5.4      2.723      7.379
  Name = 
  0 active torsions:
  status: ('A' for Active; 'I' for Inactive)
                            x       y       z     vdW  Elec       q    Type
                         _______ _______ _______ _____ _____    ______ ____

>  <TORSDO>
F 0

$$$$
=
 OpenBabel11052412253D

 30 34  0  0  1  0  0  0  0  0999 V2000
  183.8670  176.9360  138.5680 C   0  0  0  0  0  2  0  0  0  0  0  0
  187.0480  177.5050  137.9680 C   0  0  0  0  0  0  0  0  0  0  0  0
  182.2370  174.0100  135.0830 C   0  0  0  0  0  2  0  0  0  0  0  0
  182.4980  177.5310  138.8710 C   0  0  0  0  0  2  0  0  0  0  0  0
  184.5920  177.7130  137.4810 C   0  0  0  0  0  2  0  0  0  0  0  0
  180.4310  181.1930  139.4700 C   0  0  0  0  0  2  0  0  0  0  0  0
  180.0840  177.7290  134.9100 O   0  0  0  0  0  0  0  0  0  0  0  0
  182.5920  178.9050  139.5430 C   0  0  1  0  0  0  0  0  0  0  0  0
  181.1920  180.3810  138.4400 C   0  0  0  0  0  0  0  0  0  0  0  0
  182.1310  175.4040  135.7130 C   0  0  0  0  0  2  0  0  0  0  0  0
  183.6400  173.6270  134.5940 C   0  0  0  0  0  2  0  0  0  0  0  0
  182.5370  180.0710  138.7430 O   0  0  0  0  0  0  0  0  0  0  0  0
  181.8630  179.0030  140.7430 O   0  0  0  0  0  0  0  0  0  0  0  0
  188.2360  176.8640  137.8220 N   0  0  0  0  0  0  0  0  0  0  0  0
  181.0510  178.3610  135.4120 C   0  0  0  0  0  0  0  0  0  0  0  0
  182.3710  177.8170  135.3900 N   0  0  0  0  0  2  0  0  0  0  0  0
  180.9810  181.8650  138.2220 C   0  0  0  0  0  2  0  0  0  0  0  0
  186.9490  178.5870  138.8890 N   0  0  0  0  0  1  0  0  0  0  0  0
  186.0880  176.0020  136.3400 C   0  0  0  0  0  0  0  0  0  0  0  0
  188.3650  175.8140  136.9710 C   0  0  0  0  0  3  0  0  0  0  0  0
  180.3910  179.4840  137.5010 C   0  0  0  0  0  2  0  0  0  0  0  0
  185.9300  177.0880  137.2280 C   0  0  0  0  0  0  0  0  0  0  0  0
  184.2240  176.4560  134.6080 C   0  0  0  0  0  2  0  0  0  0  0  0
  184.7310  174.1890  135.4560 C   0  0  0  0  0  3  0  0  0  0  0  0
  182.7000  176.5180  134.8250 C   0  0  1  0  0  3  0  0  0  0  0  0
  180.8260  179.6800  136.0580 C   0  0  0  0  0  2  0  0  0  0  0  0
  183.2670  179.0830  140.8570 C   0  0  1  0  0  3  0  0  0  0  0  0
  187.3000  175.3910  136.2450 N   0  0  0  0  0  0  0  0  0  0  0  0
  184.9790  175.5020  135.5050 C   0  0  0  0  0  0  0  0  0  0  0  0
  183.7520  177.8780  141.3680 O   0  0  0  0  0  1  0  0  0  0  0  0
  1  4  1  0  0  0  0
  2 18  1  0  0  0  0
  3 10  1  0  0  0  0
  5  1  1  0  0  0  0
  7 15  2  0  0  0  0
  8  4  1  6  0  0  0
  8 13  1  0  0  0  0
  8 27  1  0  0  0  0
  9 12  1  0  0  0  0
  9  6  1  0  0  0  0
 11  3  1  0  0  0  0
 11 24  1  0  0  0  0
 12  8  1  0  0  0  0
 13 27  1  0  0  0  0
 14  2  1  0  0  0  0
 15 26  1  0  0  0  0
 16 15  1  0  0  0  0
 17  9  1  0  0  0  0
 17  6  1  0  0  0  0
 19 22  1  0  0  0  0
 20 14  2  0  0  0  0
 21  9  1  0  0  0  0
 22  5  1  0  0  0  0
 22  2  2  0  0  0  0
 23 29  1  0  0  0  0
 24 29  2  0  0  0  0
 25 23  1  1  0  0  0
 25 16  1  0  0  0  0
 25 10  1  0  0  0  0
 26 21  1  0  0  0  0
 27 30  1  1  0  0  0
 28 19  2  0  0  0  0
 28 20  1  0  0  0  0
 29 19  1  0  0  0  0
M  END
>  <MODEL>
5

>  <REMARK>
 VINA RESULT:      -5.3      2.908      6.381
  Name = 
  0 active torsions:
  status: ('A' for Active; 'I' for Inactive)
                            x       y       z     vdW  Elec       q    Type
                         _______ _______ _______ _____ _____    ______ ____

>  <TORSDO>
F 0

$$$$
=
 OpenBabel11052412253D

 30 34  0  0  1  0  0  0  0  0999 V2000
  185.1170  177.3760  138.2800 C   0  0  0  0  0  2  0  0  0  0  0  0
  187.7120  178.4550  136.5760 C   0  0  0  0  0  0  0  0  0  0  0  0
  184.8200  172.6010  137.5940 C   0  0  0  0  0  2  0  0  0  0  0  0
  183.6360  177.5410  138.5930 C   0  0  0  0  0  2  0  0  0  0  0  0
  185.3970  177.5030  136.7910 C   0  0  0  0  0  2  0  0  0  0  0  0
  180.1980  179.8620  137.6770 C   0  0  0  0  0  2  0  0  0  0  0  0
  181.2570  174.4600  136.0630 O   0  0  0  0  0  0  0  0  0  0  0  0
  183.1420  178.9720  138.3490 C   0  0  1  0  0  0  0  0  0  0  0  0
  181.2050  178.8960  137.0860 C   0  0  0  0  0  0  0  0  0  0  0  0
  184.1360  173.9530  137.3640 C   0  0  0  0  0  2  0  0  0  0  0  0
  186.2340  172.4840  137.0090 C   0  0  0  0  0  2  0  0  0  0  0  0
  182.5600  179.2990  137.1030 O   0  0  0  0  0  0  0  0  0  0  0  0
  182.4800  179.5410  139.4540 O   0  0  0  0  0  0  0  0  0  0  0  0
  189.0550  178.2940  136.4640 N   0  0  0  0  0  0  0  0  0  0  0  0
  181.8670  175.5380  135.8350 C   0  0  0  0  0  0  0  0  0  0  0  0
  183.2900  175.5660  135.7310 N   0  0  0  0  0  2  0  0  0  0  0  0
  180.3620  179.7570  136.1690 C   0  0  0  0  0  2  0  0  0  0  0  0
  187.1800  179.7660  136.7440 N   0  0  0  0  0  1  0  0  0  0  0  0
  187.4540  176.0620  136.3870 C   0  0  0  0  0  0  0  0  0  0  0  0
  189.6030  177.0600  136.3260 C   0  0  0  0  0  3  0  0  0  0  0  0
  180.8470  177.4120  137.0640 C   0  0  0  0  0  2  0  0  0  0  0  0
  186.8660  177.3360  136.5430 C   0  0  0  0  0  0  0  0  0  0  0  0
  185.5260  174.7140  135.3150 C   0  0  0  0  0  2  0  0  0  0  0  0
  186.9970  173.7740  137.0670 C   0  0  0  0  0  3  0  0  0  0  0  0
  184.1350  174.3940  135.8940 C   0  0  1  0  0  3  0  0  0  0  0  0
  181.1080  176.8080  135.6940 C   0  0  0  0  0  2  0  0  0  0  0  0
  183.7110  180.1280  139.0940 C   0  0  1  0  0  3  0  0  0  0  0  0
  188.8080  175.9620  136.2920 N   0  0  0  0  0  0  0  0  0  0  0  0
  186.6480  174.8270  136.3210 C   0  0  0  0  0  0  0  0  0  0  0  0
  184.6890  179.7350  140.0100 O   0  0  0  0  0  1  0  0  0  0  0  0
  1  4  1  0  0  0  0
  2 18  1  0  0  0  0
  5  1  1  0  0  0  0
  8  4  1  1  0  0  0
  8 27  1  0  0  0  0
  8 13  1  0  0  0  0
  9 12  1  0  0  0  0
  9  6  1  0  0  0  0
 10  3  1  0  0  0  0
 11 24  1  0  0  0  0
 11  3  1  0  0  0  0
 12  8  1  0  0  0  0
 14  2  2  0  0  0  0
 15  7  2  0  0  0  0
 16 15  1  0  0  0  0
 16 25  1  0  0  0  0
 17  9  1  0  0  0  0
 17  6  1  0  0  0  0
 19 22  2  0  0  0  0
 20 14  1  0  0  0  0
 21  9  1  0  0  0  0
 22  2  1  0  0  0  0
 22  5  1  0  0  0  0
 23 29  1  0  0  0  0
 25 23  1  1  0  0  0
 25 10  1  0  0  0  0
 26 15  1  0  0  0  0
 26 21  1  0  0  0  0
 27 13  1  0  0  0  0
 27 30  1  1  0  0  0
 28 20  2  0  0  0  0
 28 19  1  0  0  0  0
 29 19  1  0  0  0  0
 29 24  2  0  0  0  0
M  END
>  <MODEL>
6

>  <REMARK>
 VINA RESULT:      -5.3      3.588      6.548
  Name = 
  0 active torsions:
  status: ('A' for Active; 'I' for Inactive)
                            x       y       z     vdW  Elec       q    Type
                         _______ _______ _______ _____ _____    ______ ____

>  <TORSDO>
F 0

$$$$
=
 OpenBabel11052412253D

 30 34  0  0  1  0  0  0  0  0999 V2000
  188.8620  174.8220  137.4730 C   0  0  0  0  0  2  0  0  0  0  0  0
  186.7170  176.6520  135.7850 C   0  0  0  0  0  0  0  0  0  0  0  0
  189.6940  177.0690  141.6710 C   0  0  0  0  0  2  0  0  0  0  0  0
  190.1960  174.0870  137.4680 C   0  0  0  0  0  2  0  0  0  0  0  0
  188.9660  176.1830  136.8030 C   0  0  0  0  0  2  0  0  0  0  0  0
  193.5640  173.1560  135.0520 C   0  0  0  0  0  2  0  0  0  0  0  0
  193.3760  176.8200  139.4620 O   0  0  0  0  0  0  0  0  0  0  0  0
  190.6240  173.6600  136.0590 C   0  0  1  0  0  0  0  0  0  0  0  0
  192.8200  174.3000  135.7110 C   0  0  0  0  0  0  0  0  0  0  0  0
  190.3080  176.6060  140.3440 C   0  0  0  0  0  2  0  0  0  0  0  0
  188.4910  178.0120  141.5330 C   0  0  0  0  0  2  0  0  0  0  0  0
  191.4800  174.5020  135.3120 O   0  0  0  0  0  0  0  0  0  0  0  0
  190.9340  172.2910  135.9490 O   0  0  0  0  0  0  0  0  0  0  0  0
  185.4640  177.1700  135.8640 N   0  0  0  0  0  0  0  0  0  0  0  0
  192.7640  176.7990  138.3620 C   0  0  0  0  0  0  0  0  0  0  0  0
  191.4180  177.2630  138.2650 N   0  0  0  0  0  2  0  0  0  0  0  0
  193.8010  174.5850  134.5940 C   0  0  0  0  0  2  0  0  0  0  0  0
  187.0850  175.8900  134.6400 N   0  0  0  0  0  1  0  0  0  0  0  0
  187.1990  177.6110  137.9480 C   0  0  0  0  0  0  0  0  0  0  0  0
  185.0670  177.8820  136.9490 C   0  0  0  0  0  3  0  0  0  0  0  0
  193.2860  174.7560  137.0920 C   0  0  0  0  0  2  0  0  0  0  0  0
  187.6270  176.8580  136.8340 C   0  0  0  0  0  0  0  0  0  0  0  0
  189.4360  178.5380  138.8540 C   0  0  0  0  0  2  0  0  0  0  0  0
  187.6410  177.7010  140.3370 C   0  0  0  0  0  3  0  0  0  0  0  0
  190.6520  177.7630  139.3960 C   0  0  1  0  0  3  0  0  0  0  0  0
  193.4320  176.2680  137.1460 C   0  0  0  0  0  2  0  0  0  0  0  0
  189.7950  172.7320  135.2430 C   0  0  1  0  0  3  0  0  0  0  0  0
  185.9270  178.0930  137.9760 N   0  0  0  0  0  0  0  0  0  0  0  0
  188.0880  177.8970  139.0910 C   0  0  0  0  0  0  0  0  0  0  0  0
  188.6480  172.3140  135.9210 O   0  0  0  0  0  1  0  0  0  0  0  0
  2 14  2  0  0  0  0
  2 22  1  0  0  0  0
  4  1  1  0  0  0  0
  5 22  1  0  0  0  0
  5  1  1  0  0  0  0
  6  9  1  0  0  0  0
  8  4  1  1  0  0  0
  9 21  1  0  0  0  0
 10  3  1  0  0  0  0
 11  3  1  0  0  0  0
 12  9  1  0  0  0  0
 12  8  1  0  0  0  0
 13  8  1  0  0  0  0
 14 20  1  0  0  0  0
 15  7  2  0  0  0  0
 16 15  1  0  0  0  0
 16 25  1  0  0  0  0
 17  6  1  0  0  0  0
 17  9  1  0  0  0  0
 18  2  1  0  0  0  0
 19 28  1  0  0  0  0
 19 29  1  0  0  0  0
 20 28  2  0  0  0  0
 21 26  1  0  0  0  0
 22 19  2  0  0  0  0
 23 29  1  0  0  0  0
 24 11  1  0  0  0  0
 25 23  1  6  0  0  0
 25 10  1  0  0  0  0
 26 15  1  0  0  0  0
 27 30  1  1  0  0  0
 27 13  1  0  0  0  0
 27  8  1  0  0  0  0
 29 24  2  0  0  0  0
M  END
>  <MODEL>
7

>  <REMARK>
 VINA RESULT:      -5.2      5.700      8.980
  Name = 
  0 active torsions:
  status: ('A' for Active; 'I' for Inactive)
                            x       y       z     vdW  Elec       q    Type
                         _______ _______ _______ _____ _____    ______ ____

>  <TORSDO>
F 0

$$$$
=
 OpenBabel11052412253D

 30 34  0  0  1  0  0  0  0  0999 V2000
  185.5830  177.6920  136.7080 C   0  0  0  0  0  2  0  0  0  0  0  0
  184.0950  178.6230  139.4860 C   0  0  0  0  0  0  0  0  0  0  0  0
  182.7640  174.3830  134.5940 C   0  0  0  0  0  2  0  0  0  0  0  0
  186.8630  177.1930  136.0490 C   0  0  0  0  0  2  0  0  0  0  0  0
  185.3120  176.9810  138.0240 C   0  0  0  0  0  2  0  0  0  0  0  0
  190.8960  176.1100  136.8260 C   0  0  0  0  0  2  0  0  0  0  0  0
  186.5500  172.5860  135.5590 O   0  0  0  0  0  0  0  0  0  0  0  0
  188.1190  177.5920  136.8330 C   0  0  1  0  0  0  0  0  0  0  0  0
  189.4580  175.7260  137.1120 C   0  0  0  0  0  0  0  0  0  0  0  0
  184.1200  174.6460  135.2600 C   0  0  0  0  0  2  0  0  0  0  0  0
  181.5420  174.7040  135.4660 C   0  0  0  0  0  2  0  0  0  0  0  0
  188.6620  176.6880  137.7740 O   0  0  0  0  0  0  0  0  0  0  0  0
  189.0870  178.2550  136.0550 O   0  0  0  0  0  0  0  0  0  0  0  0
  182.9430  179.1760  139.9440 N   0  0  0  0  0  0  0  0  0  0  0  0
  186.7320  173.3830  136.5170 C   0  0  0  0  0  0  0  0  0  0  0  0
  185.6370  174.0910  137.0970 N   0  0  0  0  0  2  0  0  0  0  0  0
  190.5680  175.1940  137.9940 C   0  0  0  0  0  2  0  0  0  0  0  0
  185.3430  179.1910  139.8740 N   0  0  0  0  0  1  0  0  0  0  0  0
  182.7800  177.0030  138.2700 C   0  0  0  0  0  0  0  0  0  0  0  0
  181.7340  178.6790  139.5800 C   0  0  0  0  0  3  0  0  0  0  0  0
  188.8050  174.6760  136.2160 C   0  0  0  0  0  2  0  0  0  0  0  0
  184.0470  177.5130  138.6280 C   0  0  0  0  0  0  0  0  0  0  0  0
  183.3340  174.5380  137.7260 C   0  0  0  0  0  2  0  0  0  0  0  0
  181.7640  175.8820  136.3680 C   0  0  0  0  0  3  0  0  0  0  0  0
  184.2640  173.9770  136.6330 C   0  0  1  0  0  3  0  0  0  0  0  0
  188.1020  173.6140  137.0450 C   0  0  0  0  0  2  0  0  0  0  0  0
  188.4680  179.0200  137.0660 C   0  0  1  0  0  3  0  0  0  0  0  0
  181.6600  177.6080  138.7500 N   0  0  0  0  0  0  0  0  0  0  0  0
  182.6260  175.8290  137.3890 C   0  0  0  0  0  0  0  0  0  0  0  0
  187.5470  179.8900  136.4790 O   0  0  0  0  0  1  0  0  0  0  0  0
  1  5  1  0  0  0  0
  2 18  1  0  0  0  0
  2 14  1  0  0  0  0
  3 10  1  0  0  0  0
  3 11  1  0  0  0  0
  4  1  1  0  0  0  0
  5 22  1  0  0  0  0
  6  9  1  0  0  0  0
  6 17  1  0  0  0  0
  7 15  2  0  0  0  0
  8  4  1  6  0  0  0
  8 27  1  0  0  0  0
  8 12  1  0  0  0  0
  9 12  1  0  0  0  0
  9 17  1  0  0  0  0
 11 24  1  0  0  0  0
 13  8  1  0  0  0  0
 13 27  1  0  0  0  0
 15 26  1  0  0  0  0
 15 16  1  0  0  0  0
 19 22  1  0  0  0  0
 19 28  2  0  0  0  0
 20 14  2  0  0  0  0
 21 26  1  0  0  0  0
 21  9  1  0  0  0  0
 22  2  2  0  0  0  0
 24 29  2  0  0  0  0
 25 10  1  6  0  0  0
 25 16  1  0  0  0  0
 25 23  1  0  0  0  0
 27 30  1  6  0  0  0
 28 20  1  0  0  0  0
 29 23  1  0  0  0  0
 29 19  1  0  0  0  0
M  END
>  <MODEL>
8

>  <REMARK>
 VINA RESULT:      -5.2      2.874      5.489
  Name = 
  0 active torsions:
  status: ('A' for Active; 'I' for Inactive)
                            x       y       z     vdW  Elec       q    Type
                         _______ _______ _______ _____ _____    ______ ____

>  <TORSDO>
F 0

$$$$
=
 OpenBabel11052412253D

 30 34  0  0  1  0  0  0  0  0999 V2000
  183.6410  176.7010  138.4470 C   0  0  0  0  0  2  0  0  0  0  0  0
  186.7010  177.4310  137.4940 C   0  0  0  0  0  0  0  0  0  0  0  0
  182.7120  172.1850  136.9960 C   0  0  0  0  0  2  0  0  0  0  0  0
  182.1760  177.1190  138.4720 C   0  0  0  0  0  2  0  0  0  0  0  0
  184.2710  176.9360  137.0830 C   0  0  0  0  0  2  0  0  0  0  0  0
  179.4800  180.1600  137.2360 C   0  0  0  0  0  2  0  0  0  0  0  0
  179.9580  174.8690  135.0700 O   0  0  0  0  0  0  0  0  0  0  0  0
  181.9990  178.6370  138.3530 C   0  0  1  0  0  0  0  0  0  0  0  0
  180.4190  179.0860  136.7230 C   0  0  0  0  0  0  0  0  0  0  0  0
  182.3360  173.6630  136.8400 C   0  0  0  0  0  2  0  0  0  0  0  0
  184.1820  171.8580  136.7020 C   0  0  0  0  0  2  0  0  0  0  0  0
  181.7810  179.2100  137.0780 O   0  0  0  0  0  0  0  0  0  0  0  0
  181.2070  179.1990  139.3720 O   0  0  0  0  0  0  0  0  0  0  0  0
  187.9870  177.0220  137.6360 N   0  0  0  0  0  0  0  0  0  0  0  0
  180.7760  175.8250  135.1380 C   0  0  0  0  0  0  0  0  0  0  0  0
  182.1690  175.5830  135.3320 N   0  0  0  0  0  2  0  0  0  0  0  0
  179.9650  180.1940  135.7950 C   0  0  0  0  0  2  0  0  0  0  0  0
  186.3720  178.7940  137.7460 N   0  0  0  0  0  1  0  0  0  0  0  0
  186.0950  175.1720  136.8940 C   0  0  0  0  0  0  0  0  0  0  0  0
  188.3370  175.7270  137.4260 C   0  0  0  0  0  3  0  0  0  0  0  0
  179.8310  177.7140  136.4030 C   0  0  0  0  0  2  0  0  0  0  0  0
  185.7090  176.5110  137.1180 C   0  0  0  0  0  0  0  0  0  0  0  0
  184.2660  174.3590  135.2580 C   0  0  0  0  0  2  0  0  0  0  0  0
  185.1170  172.9570  137.1100 C   0  0  0  0  0  3  0  0  0  0  0  0
  182.7460  174.2570  135.4850 C   0  0  1  0  0  3  0  0  0  0  0  0
  180.2950  177.2270  135.0400 C   0  0  0  0  0  2  0  0  0  0  0  0
  182.5680  179.5680  139.3640 C   0  0  1  0  0  3  0  0  0  0  0  0
  187.3970  174.8180  137.0640 N   0  0  0  0  0  0  0  0  0  0  0  0
  185.1300  174.1360  136.4780 C   0  0  0  0  0  0  0  0  0  0  0  0
  183.2300  178.8910  140.3910 O   0  0  0  0  0  1  0  0  0  0  0  0
  1  4  1  0  0  0  0
  2 14  1  0  0  0  0
  2 18  1  0  0  0  0
  5 22  1  0  0  0  0
  5  1  1  0  0  0  0
  7 15  2  0  0  0  0
  8  4  1  1  0  0  0
  8 27  1  0  0  0  0
  8 13  1  0  0  0  0
  9 12  1  0  0  0  0
  9  6  1  0  0  0  0
 10  3  1  0  0  0  0
 11  3  1  0  0  0  0
 11 24  1  0  0  0  0
 12  8  1  0  0  0  0
 15 16  1  0  0  0  0
 16 25  1  0  0  0  0
 17  9  1  0  0  0  0
 17  6  1  0  0  0  0
 19 28  2  0  0  0  0
 19 22  1  0  0  0  0
 20 14  2  0  0  0  0
 21  9  1  0  0  0  0
 22  2  2  0  0  0  0
 23 29  1  0  0  0  0
 25 23  1  1  0  0  0
 25 10  1  0  0  0  0
 26 15  1  0  0  0  0
 26 21  1  0  0  0  0
 27 13  1  0  0  0  0
 27 30  1  1  0  0  0
 28 20  1  0  0  0  0
 29 19  1  0  0  0  0
 29 24  2  0  0  0  0
M  END
>  <MODEL>
9

>  <REMARK>
 VINA RESULT:      -5.2      3.319      6.263
  Name = 
  0 active torsions:
  status: ('A' for Active; 'I' for Inactive)
                            x       y       z     vdW  Elec       q    Type
                         _______ _______ _______ _____ _____    ______ ____

>  <TORSDO>
F 0

$$$$
