=
 OpenBabel11052413363D

 28 32  0  0  1  0  0  0  0  0999 V2000
  190.2390  178.2520  142.5560 C   0  0  2  0  0  3  0  0  0  0  0  0
  185.1280  178.9550  142.6330 C   0  0  0  0  0  3  0  0  0  0  0  0
  188.9070  177.0160  147.2990 C   0  0  0  0  0  1  0  0  0  0  0  0
  184.5090  178.3560  144.9790 C   0  0  0  0  0  0  0  0  0  0  0  0
  186.8490  178.2010  144.3010 C   0  0  0  0  0  0  0  0  0  0  0  0
  182.7870  179.1100  143.2990 C   0  0  0  0  0  0  0  0  0  0  0  0
  185.5040  178.4990  143.9880 C   0  0  0  0  0  0  0  0  0  0  0  0
  186.1840  177.6310  146.5690 C   0  0  0  0  0  3  0  0  0  0  0  0
  183.0590  178.6570  144.7050 C   0  0  0  0  0  2  0  0  0  0  0  0
  189.5380  177.6210  144.9360 C   0  0  0  0  0  0  0  0  0  0  0  0
  187.8530  178.3300  143.3380 C   0  0  0  0  0  3  0  0  0  0  0  0
  184.8580  177.9240  146.2580 C   0  0  0  0  0  3  0  0  0  0  0  0
  191.9490  178.0260  144.3730 C   0  0  0  0  0  2  0  0  0  0  0  0
  188.5360  177.4740  145.9180 C   0  0  0  0  0  0  0  0  0  0  0  0
  190.9700  177.2810  145.2670 C   0  0  0  0  0  2  0  0  0  0  0  0
  181.6090  179.3870  142.9590 O   0  0  0  0  0  0  0  0  0  0  0  0
  183.8680  179.2390  142.3130 C   0  0  0  0  0  3  0  0  0  0  0  0
  187.1930  177.7640  145.6030 C   0  0  0  0  0  0  0  0  0  0  0  0
  191.6230  177.7120  142.9240 C   0  0  0  0  0  2  0  0  0  0  0  0
  189.1860  178.0210  143.6260 C   0  0  0  0  0  0  0  0  0  0  0  0
  189.8230  177.7240  141.2140 C   0  0  0  0  0  0  0  0  0  0  0  0
  188.6770  178.2120  140.5680 C   0  0  0  0  0  3  0  0  0  0  0  0
  189.0930  176.7270  138.6960 C   0  0  0  0  0  0  0  0  0  0  0  0
  190.5990  176.7390  140.5970 C   0  0  0  0  0  3  0  0  0  0  0  0
  187.1440  178.2290  138.6750 N   0  0  0  0  0  1  0  0  0  0  0  0
  188.3110  177.7170  139.3130 C   0  0  0  0  0  0  0  0  0  0  0  0
  188.7320  176.1800  137.3580 C   0  0  0  0  0  1  0  0  0  0  0  0
  190.2350  176.2420  139.3420 C   0  0  0  0  0  3  0  0  0  0  0  0
  1 21  1  6  0  0  0
  1 19  1  0  0  0  0
  1 20  1  0  0  0  0
  2  7  1  0  0  0  0
  4 12  1  0  0  0  0
  5 18  1  0  0  0  0
  6  9  1  0  0  0  0
  7  5  1  0  0  0  0
  7  4  2  0  0  0  0
  9  4  1  0  0  0  0
 10 15  1  0  0  0  0
 10 14  1  0  0  0  0
 11 20  1  0  0  0  0
 11  5  2  0  0  0  0
 12  8  2  0  0  0  0
 13 15  1  0  0  0  0
 14  3  1  0  0  0  0
 16  6  2  0  0  0  0
 17  2  2  0  0  0  0
 17  6  1  0  0  0  0
 18 14  2  0  0  0  0
 18  8  1  0  0  0  0
 19 13  1  0  0  0  0
 20 10  2  0  0  0  0
 22 21  2  0  0  0  0
 23 26  2  0  0  0  0
 23 28  1  0  0  0  0
 24 21  1  0  0  0  0
 25 26  1  0  0  0  0
 26 22  1  0  0  0  0
 27 23  1  0  0  0  0
 28 24  2  0  0  0  0
M  END
>  <MODEL>
1

>  <REMARK>
 VINA RESULT:     -10.8      0.000      0.000
  Name = 
  1 active torsions:
  status: ('A' for Active; 'I' for Inactive)
    1  A    between atoms: C_1  and  C_2
                            x       y       z     vdW  Elec       q    Type
                         _______ _______ _______ _____ _____    ______ ____

>  <TORSDO>
F 1

$$$$
=
 OpenBabel11052413363D

 28 32  0  0  1  0  0  0  0  0999 V2000
  190.2720  178.2540  142.3490 C   0  0  2  0  0  3  0  0  0  0  0  0
  185.1600  178.9180  142.5790 C   0  0  0  0  0  3  0  0  0  0  0  0
  189.1000  177.0630  147.1460 C   0  0  0  0  0  1  0  0  0  0  0  0
  184.6200  178.3410  144.9490 C   0  0  0  0  0  0  0  0  0  0  0  0
  186.9390  178.1970  144.2010 C   0  0  0  0  0  0  0  0  0  0  0  0
  182.8400  179.0620  143.3160 C   0  0  0  0  0  0  0  0  0  0  0  0
  185.5830  178.4800  143.9270 C   0  0  0  0  0  0  0  0  0  0  0  0
  186.3500  177.6480  146.4940 C   0  0  0  0  0  3  0  0  0  0  0  0
  183.1600  178.6280  144.7180 C   0  0  0  0  0  2  0  0  0  0  0  0
  189.6510  177.6460  144.7570 C   0  0  0  0  0  0  0  0  0  0  0  0
  187.9110  178.3230  143.2050 C   0  0  0  0  0  3  0  0  0  0  0  0
  185.0130  177.9270  146.2220 C   0  0  0  0  0  3  0  0  0  0  0  0
  192.0400  178.0640  144.1150 C   0  0  0  0  0  2  0  0  0  0  0  0
  188.6820  177.5020  145.7720 C   0  0  0  0  0  0  0  0  0  0  0  0
  191.0950  177.3220  145.0470 C   0  0  0  0  0  2  0  0  0  0  0  0
  181.6490  179.3250  143.0110 O   0  0  0  0  0  0  0  0  0  0  0  0
  183.8880  179.1880  142.2950 C   0  0  0  0  0  3  0  0  0  0  0  0
  187.3270  177.7780  145.4960 C   0  0  0  0  0  0  0  0  0  0  0  0
  191.6720  177.7300  142.6800 C   0  0  0  0  0  2  0  0  0  0  0  0
  189.2550  178.0280  143.4540 C   0  0  0  0  0  0  0  0  0  0  0  0
  189.8190  177.7080  141.0280 C   0  0  0  0  0  0  0  0  0  0  0  0
  190.5810  176.7530  140.3380 C   0  0  0  0  0  3  0  0  0  0  0  0
  188.9230  176.6960  138.5700 C   0  0  0  0  0  0  0  0  0  0  0  0
  188.6100  178.1530  140.4830 C   0  0  0  0  0  3  0  0  0  0  0  0
  190.9290  175.2760  138.4330 N   0  0  0  0  0  1  0  0  0  0  0  0
  190.1380  176.2470  139.1130 C   0  0  0  0  0  0  0  0  0  0  0  0
  188.4210  176.1760  137.2670 C   0  0  0  0  0  1  0  0  0  0  0  0
  188.1650  177.6480  139.2580 C   0  0  0  0  0  3  0  0  0  0  0  0
  1 21  1  6  0  0  0
  1 19  1  0  0  0  0
  1 20  1  0  0  0  0
  2  7  1  0  0  0  0
  4 12  1  0  0  0  0
  5 18  1  0  0  0  0
  6  9  1  0  0  0  0
  7  5  1  0  0  0  0
  7  4  2  0  0  0  0
  9  4  1  0  0  0  0
 10 15  1  0  0  0  0
 10 14  1  0  0  0  0
 11 20  1  0  0  0  0
 11  5  2  0  0  0  0
 12  8  2  0  0  0  0
 13 15  1  0  0  0  0
 14  3  1  0  0  0  0
 16  6  2  0  0  0  0
 17  2  2  0  0  0  0
 17  6  1  0  0  0  0
 18 14  2  0  0  0  0
 18  8  1  0  0  0  0
 19 13  1  0  0  0  0
 20 10  2  0  0  0  0
 22 21  2  0  0  0  0
 23 26  2  0  0  0  0
 23 28  1  0  0  0  0
 24 21  1  0  0  0  0
 25 26  1  0  0  0  0
 26 22  1  0  0  0  0
 27 23  1  0  0  0  0
 28 24  2  0  0  0  0
M  END
>  <MODEL>
2

>  <REMARK>
 VINA RESULT:     -10.8      0.928      1.302
  Name = 
  1 active torsions:
  status: ('A' for Active; 'I' for Inactive)
    1  A    between atoms: C_1  and  C_2
                            x       y       z     vdW  Elec       q    Type
                         _______ _______ _______ _____ _____    ______ ____

>  <TORSDO>
F 1

$$$$
=
 OpenBabel11052413363D

 28 32  0  0  1  0  0  0  0  0999 V2000
  189.8920  177.7890  139.9890 C   0  0  2  0  0  3  0  0  0  0  0  0
  185.1630  178.6370  141.8710 C   0  0  0  0  0  3  0  0  0  0  0  0
  190.3800  176.9000  144.9660 C   0  0  0  0  0  1  0  0  0  0  0  0
  185.4410  178.2080  144.3170 C   0  0  0  0  0  0  0  0  0  0  0  0
  187.3730  177.9450  142.8470 C   0  0  0  0  0  0  0  0  0  0  0  0
  183.2270  178.9000  143.3300 C   0  0  0  0  0  0  0  0  0  0  0  0
  186.0070  178.2590  143.0250 C   0  0  0  0  0  0  0  0  0  0  0  0
  187.5800  177.5410  145.2360 C   0  0  0  0  0  3  0  0  0  0  0  0
  183.9920  178.5310  144.5690 C   0  0  0  0  0  2  0  0  0  0  0  0
  190.1070  177.3330  142.4990 C   0  0  0  0  0  0  0  0  0  0  0  0
  187.9560  177.9840  141.5780 C   0  0  0  0  0  3  0  0  0  0  0  0
  186.2330  177.8510  145.4090 C   0  0  0  0  0  3  0  0  0  0  0  0
  192.1470  177.6340  141.0710 C   0  0  0  0  0  2  0  0  0  0  0  0
  189.5320  177.2770  143.7860 C   0  0  0  0  0  0  0  0  0  0  0  0
  191.5600  176.9760  142.3100 C   0  0  0  0  0  2  0  0  0  0  0  0
  182.0070  179.1860  143.4240 O   0  0  0  0  0  0  0  0  0  0  0  0
  183.8740  178.9350  142.0120 C   0  0  0  0  0  3  0  0  0  0  0  0
  188.1670  177.5840  143.9620 C   0  0  0  0  0  0  0  0  0  0  0  0
  191.3140  177.2360  139.8660 C   0  0  0  0  0  2  0  0  0  0  0  0
  189.3020  177.6570  141.3830 C   0  0  0  0  0  0  0  0  0  0  0  0
  189.0150  177.1870  138.9320 C   0  0  0  0  0  0  0  0  0  0  0  0
  187.7890  177.7760  138.5870 C   0  0  0  0  0  3  0  0  0  0  0  0
  187.4140  176.0430  136.9320 C   0  0  0  0  0  0  0  0  0  0  0  0
  189.4340  176.0270  138.2740 C   0  0  0  0  0  3  0  0  0  0  0  0
  185.7480  177.8260  137.2570 N   0  0  0  0  0  1  0  0  0  0  0  0
  186.9880  177.2090  137.5910 C   0  0  0  0  0  0  0  0  0  0  0  0
  186.5860  175.4140  135.8660 C   0  0  0  0  0  1  0  0  0  0  0  0
  188.6360  175.4570  137.2780 C   0  0  0  0  0  3  0  0  0  0  0  0
  1 21  1  6  0  0  0
  1 20  1  0  0  0  0
  2 17  2  0  0  0  0
  2  7  1  0  0  0  0
  4  9  1  0  0  0  0
  4 12  1  0  0  0  0
  5  7  1  0  0  0  0
  5 18  1  0  0  0  0
  6 16  2  0  0  0  0
  6  9  1  0  0  0  0
  7  4  2  0  0  0  0
  8 12  2  0  0  0  0
 10 14  1  0  0  0  0
 11  5  2  0  0  0  0
 13 15  1  0  0  0  0
 14 18  2  0  0  0  0
 14  3  1  0  0  0  0
 15 10  1  0  0  0  0
 17  6  1  0  0  0  0
 18  8  1  0  0  0  0
 19  1  1  0  0  0  0
 19 13  1  0  0  0  0
 20 11  1  0  0  0  0
 20 10  2  0  0  0  0
 22 21  1  0  0  0  0
 23 28  2  0  0  0  0
 23 26  1  0  0  0  0
 24 21  2  0  0  0  0
 25 26  1  0  0  0  0
 26 22  2  0  0  0  0
 27 23  1  0  0  0  0
 28 24  1  0  0  0  0
M  END
>  <MODEL>
3

>  <REMARK>
 VINA RESULT:     -10.5      1.159      2.163
  Name = 
  1 active torsions:
  status: ('A' for Active; 'I' for Inactive)
    1  A    between atoms: C_1  and  C_2
                            x       y       z     vdW  Elec       q    Type
                         _______ _______ _______ _____ _____    ______ ____

>  <TORSDO>
F 1

$$$$
=
 OpenBabel11052413363D

 28 32  0  0  1  0  0  0  0  0999 V2000
  189.6060  177.8520  139.7970 C   0  0  2  0  0  3  0  0  0  0  0  0
  185.0140  178.6790  142.0020 C   0  0  0  0  0  3  0  0  0  0  0  0
  190.4180  176.8760  144.7150 C   0  0  0  0  0  1  0  0  0  0  0  0
  185.4520  178.2080  144.4160 C   0  0  0  0  0  0  0  0  0  0  0  0
  187.2810  177.9650  142.8180 C   0  0  0  0  0  0  0  0  0  0  0  0
  183.1800  178.9220  143.5900 C   0  0  0  0  0  0  0  0  0  0  0  0
  185.9320  178.2800  143.0900 C   0  0  0  0  0  0  0  0  0  0  0  0
  187.6440  177.5200  145.1800 C   0  0  0  0  0  3  0  0  0  0  0  0
  184.0240  178.5300  144.7690 C   0  0  0  0  0  2  0  0  0  0  0  0
  189.9840  177.3520  142.2790 C   0  0  0  0  0  0  0  0  0  0  0  0
  187.7800  178.0240  141.5130 C   0  0  0  0  0  3  0  0  0  0  0  0
  186.3130  177.8300  145.4470 C   0  0  0  0  0  3  0  0  0  0  0  0
  191.9260  177.6730  140.7240 C   0  0  0  0  0  2  0  0  0  0  0  0
  189.4960  177.2760  143.6000 C   0  0  0  0  0  0  0  0  0  0  0  0
  191.4200  176.9950  141.9880 C   0  0  0  0  0  2  0  0  0  0  0  0
  181.9700  179.2100  143.7700 O   0  0  0  0  0  0  0  0  0  0  0  0
  183.7390  178.9780  142.2330 C   0  0  0  0  0  3  0  0  0  0  0  0
  188.1460  177.5830  143.8710 C   0  0  0  0  0  0  0  0  0  0  0  0
  191.0140  177.2970  139.5700 C   0  0  0  0  0  2  0  0  0  0  0  0
  189.1080  177.6980  141.2240 C   0  0  0  0  0  0  0  0  0  0  0  0
  188.6580  177.2710  138.7900 C   0  0  0  0  0  0  0  0  0  0  0  0
  188.9060  176.0260  138.1940 C   0  0  0  0  0  3  0  0  0  0  0  0
  186.8470  176.2110  136.9280 C   0  0  0  0  0  0  0  0  0  0  0  0
  187.5020  177.9820  138.4500 C   0  0  0  0  0  3  0  0  0  0  0  0
  188.2800  174.2270  136.6750 N   0  0  0  0  0  1  0  0  0  0  0  0
  188.0070  175.4940  137.2660 C   0  0  0  0  0  0  0  0  0  0  0  0
  185.8660  175.6730  135.9430 C   0  0  0  0  0  1  0  0  0  0  0  0
  186.6000  177.4530  137.5230 C   0  0  0  0  0  3  0  0  0  0  0  0
  1 21  1  6  0  0  0
  1 20  1  0  0  0  0
  2 17  2  0  0  0  0
  2  7  1  0  0  0  0
  4  9  1  0  0  0  0
  4 12  1  0  0  0  0
  5  7  1  0  0  0  0
  5 18  1  0  0  0  0
  6 16  2  0  0  0  0
  6  9  1  0  0  0  0
  7  4  2  0  0  0  0
  8 12  2  0  0  0  0
 10 14  1  0  0  0  0
 11  5  2  0  0  0  0
 13 15  1  0  0  0  0
 14 18  2  0  0  0  0
 14  3  1  0  0  0  0
 15 10  1  0  0  0  0
 17  6  1  0  0  0  0
 18  8  1  0  0  0  0
 19  1  1  0  0  0  0
 19 13  1  0  0  0  0
 20 11  1  0  0  0  0
 20 10  2  0  0  0  0
 22 21  2  0  0  0  0
 23 26  2  0  0  0  0
 23 28  1  0  0  0  0
 24 21  1  0  0  0  0
 25 26  1  0  0  0  0
 26 22  1  0  0  0  0
 27 23  1  0  0  0  0
 28 24  2  0  0  0  0
M  END
>  <MODEL>
4

>  <REMARK>
 VINA RESULT:     -10.4      1.505      2.643
  Name = 
  1 active torsions:
  status: ('A' for Active; 'I' for Inactive)
    1  A    between atoms: C_1  and  C_2
                            x       y       z     vdW  Elec       q    Type
                         _______ _______ _______ _____ _____    ______ ____

>  <TORSDO>
F 1

$$$$
=
 OpenBabel11052413363D

 28 32  0  0  1  0  0  0  0  0999 V2000
  184.4310  177.9240  142.2870 C   0  0  2  0  0  3  0  0  0  0  0  0
  189.1980  176.1290  143.1120 C   0  0  0  0  0  3  0  0  0  0  0  0
  185.5240  179.4780  146.9980 C   0  0  0  0  0  1  0  0  0  0  0  0
  189.6970  176.8940  145.4380 C   0  0  0  0  0  0  0  0  0  0  0  0
  187.5410  177.4660  144.4460 C   0  0  0  0  0  0  0  0  0  0  0  0
  191.3550  175.5550  144.0920 C   0  0  0  0  0  0  0  0  0  0  0  0
  188.8020  176.8390  144.3470 C   0  0  0  0  0  0  0  0  0  0  0  0
  188.0860  178.1840  146.7040 C   0  0  0  0  0  3  0  0  0  0  0  0
  191.0550  176.2460  145.3920 C   0  0  0  0  0  2  0  0  0  0  0  0
  185.0130  178.7070  144.6540 C   0  0  0  0  0  0  0  0  0  0  0  0
  186.6380  177.4300  143.3790 C   0  0  0  0  0  3  0  0  0  0  0  0
  189.3300  177.5650  146.6040 C   0  0  0  0  0  3  0  0  0  0  0  0
  182.6450  178.7690  143.8290 C   0  0  0  0  0  2  0  0  0  0  0  0
  185.9160  178.7640  145.7370 C   0  0  0  0  0  0  0  0  0  0  0  0
  183.6750  179.3960  144.7550 C   0  0  0  0  0  2  0  0  0  0  0  0
  192.4640  174.9810  143.9430 O   0  0  0  0  0  0  0  0  0  0  0  0
  190.3810  175.5320  142.9940 C   0  0  0  0  0  3  0  0  0  0  0  0
  187.1780  178.1440  145.6350 C   0  0  0  0  0  0  0  0  0  0  0  0
  183.1820  178.8010  142.4090 C   0  0  0  0  0  2  0  0  0  0  0  0
  185.3930  178.0620  143.4540 C   0  0  0  0  0  0  0  0  0  0  0  0
  185.0940  178.1560  140.9620 C   0  0  0  0  0  0  0  0  0  0  0  0
  186.4840  178.3160  140.8660 C   0  0  0  0  0  3  0  0  0  0  0  0
  186.2960  178.5650  138.4610 C   0  0  0  0  0  0  0  0  0  0  0  0
  184.3110  178.2020  139.8050 C   0  0  0  0  0  3  0  0  0  0  0  0
  188.5010  178.6780  139.5480 N   0  0  0  0  0  1  0  0  0  0  0  0
  187.0870  178.5200  139.6210 C   0  0  0  0  0  0  0  0  0  0  0  0
  186.9070  178.7800  137.1190 C   0  0  0  0  0  1  0  0  0  0  0  0
  184.9100  178.4060  138.5590 C   0  0  0  0  0  3  0  0  0  0  0  0
  1 21  1  6  0  0  0
  1 19  1  0  0  0  0
  1 20  1  0  0  0  0
  2  7  1  0  0  0  0
  4 12  1  0  0  0  0
  5 18  1  0  0  0  0
  6  9  1  0  0  0  0
  7  5  1  0  0  0  0
  7  4  2  0  0  0  0
  9  4  1  0  0  0  0
 10 15  1  0  0  0  0
 10 14  1  0  0  0  0
 11 20  1  0  0  0  0
 11  5  2  0  0  0  0
 12  8  2  0  0  0  0
 13 15  1  0  0  0  0
 14  3  1  0  0  0  0
 16  6  2  0  0  0  0
 17  2  2  0  0  0  0
 17  6  1  0  0  0  0
 18 14  2  0  0  0  0
 18  8  1  0  0  0  0
 19 13  1  0  0  0  0
 20 10  2  0  0  0  0
 22 21  1  0  0  0  0
 23 28  2  0  0  0  0
 23 26  1  0  0  0  0
 24 21  2  0  0  0  0
 25 26  1  0  0  0  0
 26 22  2  0  0  0  0
 27 23  1  0  0  0  0
 28 24  1  0  0  0  0
M  END
>  <MODEL>
5

>  <REMARK>
 VINA RESULT:     -10.0      2.851      5.643
  Name = 
  1 active torsions:
  status: ('A' for Active; 'I' for Inactive)
    1  A    between atoms: C_1  and  C_2
                            x       y       z     vdW  Elec       q    Type
                         _______ _______ _______ _____ _____    ______ ____

>  <TORSDO>
F 1

$$$$
=
 OpenBabel11052413363D

 28 32  0  0  1  0  0  0  0  0999 V2000
  186.8100  178.7190  138.4320 C   0  0  2  0  0  3  0  0  0  0  0  0
  185.2440  178.6620  143.3490 C   0  0  0  0  0  3  0  0  0  0  0  0
  190.7920  176.8360  140.9610 C   0  0  0  0  0  1  0  0  0  0  0  0
  187.2270  177.7490  144.5640 C   0  0  0  0  0  0  0  0  0  0  0  0
  187.3450  178.0030  142.1390 C   0  0  0  0  0  0  0  0  0  0  0  0
  185.1140  178.4100  145.7710 C   0  0  0  0  0  0  0  0  0  0  0  0
  186.6240  178.1330  143.3470 C   0  0  0  0  0  0  0  0  0  0  0  0
  189.2410  177.1190  143.3780 C   0  0  0  0  0  3  0  0  0  0  0  0
  186.5090  177.8630  145.8830 C   0  0  0  0  0  2  0  0  0  0  0  0
  188.7960  177.7590  139.7300 C   0  0  0  0  0  0  0  0  0  0  0  0
  186.7710  178.3720  140.9200 C   0  0  0  0  0  3  0  0  0  0  0  0
  188.5280  177.2470  144.5680 C   0  0  0  0  0  3  0  0  0  0  0  0
  189.0740  178.5630  137.3700 C   0  0  0  0  0  2  0  0  0  0  0  0
  189.3890  177.3700  140.9500 C   0  0  0  0  0  0  0  0  0  0  0  0
  189.5620  177.5990  138.4400 C   0  0  0  0  0  2  0  0  0  0  0  0
  184.4210  178.5450  146.8110 O   0  0  0  0  0  0  0  0  0  0  0  0
  184.5430  178.7920  144.4730 C   0  0  0  0  0  3  0  0  0  0  0  0
  188.6660  177.4930  142.1550 C   0  0  0  0  0  0  0  0  0  0  0  0
  187.5850  178.3510  137.1640 C   0  0  0  0  0  2  0  0  0  0  0  0
  187.4640  178.2320  139.7140 C   0  0  0  0  0  0  0  0  0  0  0  0
  185.3830  178.2730  138.3090 C   0  0  0  0  0  0  0  0  0  0  0  0
  184.3400  179.0140  138.8860 C   0  0  0  0  0  3  0  0  0  0  0  0
  182.7250  177.4170  138.0340 C   0  0  0  0  0  0  0  0  0  0  0  0
  185.0900  177.1060  137.5960 C   0  0  0  0  0  3  0  0  0  0  0  0
  181.9730  179.3600  139.3450 N   0  0  0  0  0  1  0  0  0  0  0  0
  183.0150  178.5900  138.7510 C   0  0  0  0  0  0  0  0  0  0  0  0
  181.3240  176.9390  137.8700 C   0  0  0  0  0  1  0  0  0  0  0  0
  183.7660  176.6800  137.4600 C   0  0  0  0  0  3  0  0  0  0  0  0
  1 21  1  6  0  0  0
  1 20  1  0  0  0  0
  2 17  2  0  0  0  0
  4 12  1  0  0  0  0
  4  9  1  0  0  0  0
  5 18  1  0  0  0  0
  5  7  1  0  0  0  0
  6  9  1  0  0  0  0
  6 16  2  0  0  0  0
  7  2  1  0  0  0  0
  7  4  2  0  0  0  0
  8 12  2  0  0  0  0
 10 14  1  0  0  0  0
 11  5  2  0  0  0  0
 13 15  1  0  0  0  0
 14  3  1  0  0  0  0
 14 18  2  0  0  0  0
 15 10  1  0  0  0  0
 17  6  1  0  0  0  0
 18  8  1  0  0  0  0
 19 13  1  0  0  0  0
 19  1  1  0  0  0  0
 20 10  2  0  0  0  0
 20 11  1  0  0  0  0
 21 22  1  0  0  0  0
 23 26  1  0  0  0  0
 24 21  2  0  0  0  0
 26 22  2  0  0  0  0
 26 25  1  0  0  0  0
 27 23  1  0  0  0  0
 28 24  1  0  0  0  0
 28 23  2  0  0  0  0
M  END
>  <MODEL>
6

>  <REMARK>
 VINA RESULT:     -10.0      2.752      5.066
  Name = 
  1 active torsions:
  status: ('A' for Active; 'I' for Inactive)
    1  A    between atoms: C_1  and  C_2
                            x       y       z     vdW  Elec       q    Type
                         _______ _______ _______ _____ _____    ______ ____

>  <TORSDO>
F 1

$$$$
=
 OpenBabel11052413363D

 28 32  0  0  1  0  0  0  0  0999 V2000
  189.4660  178.2720  141.9610 C   0  0  2  0  0  3  0  0  0  0  0  0
  184.6710  179.0790  140.2330 C   0  0  0  0  0  3  0  0  0  0  0  0
  186.5640  177.6840  146.0880 C   0  0  0  0  0  1  0  0  0  0  0  0
  183.2740  178.8000  142.2860 C   0  0  0  0  0  0  0  0  0  0  0  0
  185.6920  178.5130  142.4580 C   0  0  0  0  0  0  0  0  0  0  0  0
  182.2560  179.3660  140.0500 C   0  0  0  0  0  0  0  0  0  0  0  0
  184.5490  178.7950  141.6790 C   0  0  0  0  0  0  0  0  0  0  0  0
  184.2800  178.2530  144.4190 C   0  0  0  0  0  3  0  0  0  0  0  0
  182.0190  179.0920  141.5080 C   0  0  0  0  0  2  0  0  0  0  0  0
  187.9780  177.9670  144.0220 C   0  0  0  0  0  0  0  0  0  0  0  0
  186.9650  178.4980  141.8800 C   0  0  0  0  0  3  0  0  0  0  0  0
  183.1530  178.5300  143.6490 C   0  0  0  0  0  3  0  0  0  0  0  0
  190.4590  178.2490  144.2610 C   0  0  0  0  0  2  0  0  0  0  0  0
  186.7010  177.9670  144.6200 C   0  0  0  0  0  0  0  0  0  0  0  0
  189.1960  177.6450  144.8530 C   0  0  0  0  0  2  0  0  0  0  0  0
  181.2760  179.6190  139.3040 O   0  0  0  0  0  0  0  0  0  0  0  0
  183.6090  179.3450  139.4770 C   0  0  0  0  0  3  0  0  0  0  0  0
  185.5580  178.2410  143.8410 C   0  0  0  0  0  0  0  0  0  0  0  0
  190.6130  177.7570  142.8340 C   0  0  0  0  0  2  0  0  0  0  0  0
  188.1060  178.2020  142.6340 C   0  0  0  0  0  0  0  0  0  0  0  0
  189.4860  177.5840  140.6280 C   0  0  0  0  0  0  0  0  0  0  0  0
  188.4500  177.7710  139.7010 C   0  0  0  0  0  3  0  0  0  0  0  0
  189.5740  176.2980  138.1370 C   0  0  0  0  0  0  0  0  0  0  0  0
  190.5630  176.7530  140.3040 C   0  0  0  0  0  3  0  0  0  0  0  0
  187.4270  177.3370  137.5330 N   0  0  0  0  0  1  0  0  0  0  0  0
  188.4900  177.1310  138.4590 C   0  0  0  0  0  0  0  0  0  0  0  0
  189.6490  175.6020  136.8210 C   0  0  0  0  0  1  0  0  0  0  0  0
  190.6060  176.1130  139.0630 C   0  0  0  0  0  3  0  0  0  0  0  0
  1 21  1  6  0  0  0
  1 20  1  0  0  0  0
  1 19  1  0  0  0  0
  2  7  1  0  0  0  0
  4 12  1  0  0  0  0
  5 18  1  0  0  0  0
  6  9  1  0  0  0  0
  7  4  2  0  0  0  0
  7  5  1  0  0  0  0
  9  4  1  0  0  0  0
 10 14  1  0  0  0  0
 10 15  1  0  0  0  0
 11  5  2  0  0  0  0
 11 20  1  0  0  0  0
 12  8  2  0  0  0  0
 13 15  1  0  0  0  0
 14  3  1  0  0  0  0
 16  6  2  0  0  0  0
 17  6  1  0  0  0  0
 17  2  2  0  0  0  0
 18  8  1  0  0  0  0
 18 14  2  0  0  0  0
 19 13  1  0  0  0  0
 20 10  2  0  0  0  0
 22 21  2  0  0  0  0
 23 26  2  0  0  0  0
 23 28  1  0  0  0  0
 24 21  1  0  0  0  0
 25 26  1  0  0  0  0
 26 22  1  0  0  0  0
 27 23  1  0  0  0  0
 28 24  2  0  0  0  0
M  END
>  <MODEL>
7

>  <REMARK>
 VINA RESULT:      -9.8      1.405      2.164
  Name = 
  1 active torsions:
  status: ('A' for Active; 'I' for Inactive)
    1  A    between atoms: C_1  and  C_2
                            x       y       z     vdW  Elec       q    Type
                         _______ _______ _______ _____ _____    ______ ____

>  <TORSDO>
F 1

$$$$
=
 OpenBabel11052413363D

 28 32  0  0  1  0  0  0  0  0999 V2000
  186.0500  177.6460  143.1020 C   0  0  2  0  0  3  0  0  0  0  0  0
  190.4520  176.2840  145.4250 C   0  0  0  0  0  3  0  0  0  0  0  0
  185.6810  179.7110  147.7270 C   0  0  0  0  0  1  0  0  0  0  0  0
  190.2310  177.2990  147.6970 C   0  0  0  0  0  0  0  0  0  0  0  0
  188.4280  177.6180  146.0830 C   0  0  0  0  0  0  0  0  0  0  0  0
  192.2600  175.9610  147.0290 C   0  0  0  0  0  0  0  0  0  0  0  0
  189.6890  177.0770  146.4120 C   0  0  0  0  0  0  0  0  0  0  0  0
  188.2720  178.5820  148.3100 C   0  0  0  0  0  3  0  0  0  0  0  0
  191.5710  176.7490  148.1070 C   0  0  0  0  0  2  0  0  0  0  0  0
  185.8970  178.6880  145.4350 C   0  0  0  0  0  0  0  0  0  0  0  0
  187.8710  177.4170  144.8170 C   0  0  0  0  0  3  0  0  0  0  0  0
  189.5170  178.0480  148.6320 C   0  0  0  0  0  3  0  0  0  0  0  0
  183.8640  178.5020  143.9760 C   0  0  0  0  0  2  0  0  0  0  0  0
  186.4470  178.9110  146.7140 C   0  0  0  0  0  0  0  0  0  0  0  0
  184.5580  179.2860  145.0790 C   0  0  0  0  0  2  0  0  0  0  0  0
  193.3880  175.4570  147.2610 O   0  0  0  0  0  0  0  0  0  0  0  0
  191.6440  175.7650  145.7100 C   0  0  0  0  0  3  0  0  0  0  0  0
  187.7110  178.3770  147.0400 C   0  0  0  0  0  0  0  0  0  0  0  0
  184.7830  178.4390  142.7700 C   0  0  0  0  0  2  0  0  0  0  0  0
  186.6310  177.9620  144.4690 C   0  0  0  0  0  0  0  0  0  0  0  0
  187.0550  177.7990  141.9990 C   0  0  0  0  0  0  0  0  0  0  0  0
  188.3430  177.2530  142.1100 C   0  0  0  0  0  3  0  0  0  0  0  0
  188.8970  178.0890  139.9020 C   0  0  0  0  0  0  0  0  0  0  0  0
  186.6950  178.4890  140.8370 C   0  0  0  0  0  3  0  0  0  0  0  0
  190.5640  176.8300  141.2030 N   0  0  0  0  0  1  0  0  0  0  0  0
  189.2630  177.3960  141.0680 C   0  0  0  0  0  0  0  0  0  0  0  0
  189.8530  178.2580  138.7720 C   0  0  0  0  0  1  0  0  0  0  0  0
  187.6130  178.6340  139.7930 C   0  0  0  0  0  3  0  0  0  0  0  0
  1 21  1  6  0  0  0
  1 20  1  0  0  0  0
  2 17  2  0  0  0  0
  2  7  1  0  0  0  0
  4  9  1  0  0  0  0
  4 12  1  0  0  0  0
  5  7  1  0  0  0  0
  5 18  1  0  0  0  0
  6 16  2  0  0  0  0
  6  9  1  0  0  0  0
  7  4  2  0  0  0  0
  8 12  2  0  0  0  0
 10 14  1  0  0  0  0
 11  5  2  0  0  0  0
 13 15  1  0  0  0  0
 14 18  2  0  0  0  0
 14  3  1  0  0  0  0
 15 10  1  0  0  0  0
 17  6  1  0  0  0  0
 18  8  1  0  0  0  0
 19  1  1  0  0  0  0
 19 13  1  0  0  0  0
 20 11  1  0  0  0  0
 20 10  2  0  0  0  0
 21 22  1  0  0  0  0
 23 26  1  0  0  0  0
 24 21  2  0  0  0  0
 26 25  1  0  0  0  0
 26 22  2  0  0  0  0
 27 23  1  0  0  0  0
 28 23  2  0  0  0  0
 28 24  1  0  0  0  0
M  END
>  <MODEL>
8

>  <REMARK>
 VINA RESULT:      -9.8      3.025      5.721
  Name = 
  1 active torsions:
  status: ('A' for Active; 'I' for Inactive)
    1  A    between atoms: C_1  and  C_2
                            x       y       z     vdW  Elec       q    Type
                         _______ _______ _______ _____ _____    ______ ____

>  <TORSDO>
F 1

$$$$
=
 OpenBabel11052413363D

 28 32  0  0  1  0  0  0  0  0999 V2000
  184.3270  179.2860  143.8070 C   0  0  2  0  0  3  0  0  0  0  0  0
  187.7250  178.5890  139.9870 C   0  0  0  0  0  3  0  0  0  0  0  0
  181.4650  177.8110  139.8790 C   0  0  0  0  0  1  0  0  0  0  0  0
  186.2860  177.8820  138.0700 C   0  0  0  0  0  0  0  0  0  0  0  0
  185.2350  178.3520  140.2220 C   0  0  0  0  0  0  0  0  0  0  0  0
  188.7860  178.1200  137.8410 C   0  0  0  0  0  0  0  0  0  0  0  0
  186.3960  178.2720  139.4220 C   0  0  0  0  0  0  0  0  0  0  0  0
  183.8890  177.6590  138.3210 C   0  0  0  0  0  3  0  0  0  0  0  0
  187.4870  177.7780  137.1670 C   0  0  0  0  0  2  0  0  0  0  0  0
  182.9100  178.5270  141.8140 C   0  0  0  0  0  0  0  0  0  0  0  0
  185.3170  178.7320  141.5650 C   0  0  0  0  0  3  0  0  0  0  0  0
  185.0350  177.5800  137.5330 C   0  0  0  0  0  3  0  0  0  0  0  0
  181.8360  179.5570  143.8340 C   0  0  0  0  0  2  0  0  0  0  0  0
  182.8090  178.1310  140.4640 C   0  0  0  0  0  0  0  0  0  0  0  0
  181.6710  178.5900  142.6720 C   0  0  0  0  0  2  0  0  0  0  0  0
  189.8540  178.0640  137.1810 O   0  0  0  0  0  0  0  0  0  0  0  0
  188.8340  178.5190  139.2540 C   0  0  0  0  0  3  0  0  0  0  0  0
  183.9700  178.0440  139.6670 C   0  0  0  0  0  0  0  0  0  0  0  0
  183.0530  179.1440  144.6430 C   0  0  0  0  0  2  0  0  0  0  0  0
  184.1790  178.7970  142.3760 C   0  0  0  0  0  0  0  0  0  0  0  0
  185.4820  178.6460  144.5180 C   0  0  0  0  0  0  0  0  0  0  0  0
  186.3990  177.8370  143.8300 C   0  0  0  0  0  3  0  0  0  0  0  0
  187.6410  177.4860  145.8830 C   0  0  0  0  0  0  0  0  0  0  0  0
  185.6490  178.8700  145.8880 C   0  0  0  0  0  3  0  0  0  0  0  0
  188.3950  176.4420  143.7860 N   0  0  0  0  0  1  0  0  0  0  0  0
  187.4760  177.2580  144.5070 C   0  0  0  0  0  0  0  0  0  0  0  0
  188.7780  176.8840  146.6340 C   0  0  0  0  0  1  0  0  0  0  0  0
  186.7250  178.2920  146.5680 C   0  0  0  0  0  3  0  0  0  0  0  0
  1 21  1  1  0  0  0
  1 19  1  0  0  0  0
  3 14  1  0  0  0  0
  4  7  1  0  0  0  0
  5 11  1  0  0  0  0
  6 17  1  0  0  0  0
  7  2  1  0  0  0  0
  7  5  2  0  0  0  0
  8 18  2  0  0  0  0
  9  6  1  0  0  0  0
  9  4  1  0  0  0  0
 10 20  1  0  0  0  0
 10 15  1  0  0  0  0
 11 20  2  0  0  0  0
 12  4  2  0  0  0  0
 12  8  1  0  0  0  0
 13 19  1  0  0  0  0
 14 10  2  0  0  0  0
 15 13  1  0  0  0  0
 16  6  2  0  0  0  0
 17  2  2  0  0  0  0
 18  5  1  0  0  0  0
 18 14  1  0  0  0  0
 20  1  1  0  0  0  0
 21 24  1  0  0  0  0
 22 26  1  0  0  0  0
 22 21  2  0  0  0  0
 23 28  1  0  0  0  0
 23 27  1  0  0  0  0
 24 28  2  0  0  0  0
 25 26  1  0  0  0  0
 26 23  2  0  0  0  0
M  END
>  <MODEL>
9

>  <REMARK>
 VINA RESULT:      -9.5      2.924      7.407
  Name = 
  1 active torsions:
  status: ('A' for Active; 'I' for Inactive)
    1  A    between atoms: C_1  and  C_2
                            x       y       z     vdW  Elec       q    Type
                         _______ _______ _______ _____ _____    ______ ____

>  <TORSDO>
F 1

$$$$
