=
 OpenBabel11052412533D

 25 25  0  0  1  0  0  0  0  0999 V2000
  189.1800  177.1790  146.0180 C   0  0  1  0  0  3  0  0  0  0  0  0
  190.2420  176.0810  144.0060 C   0  0  0  0  0  2  0  0  0  0  0  0
  190.5970  178.5190  144.4210 C   0  0  0  0  0  2  0  0  0  0  0  0
  192.0970  177.6630  141.0810 O   0  0  0  0  0  1  0  0  0  0  0  0
  191.3940  177.5240  142.2690 C   0  0  0  0  0  0  0  0  0  0  0  0
  191.2970  178.5750  143.0900 C   0  0  0  0  0  3  0  0  0  0  0  0
  189.5830  177.3700  144.5360 C   0  0  2  0  0  0  0  0  0  0  0  0
  190.6990  176.2200  142.5510 C   0  0  0  0  0  2  0  0  0  0  0  0
  188.3360  177.7240  143.7040 C   0  0  0  0  0  2  0  0  0  0  0  0
  187.3570  176.5660  143.5780 C   0  0  0  0  0  1  0  0  0  0  0  0
  190.3150  177.5250  148.0900 O   0  0  0  0  0  0  0  0  0  0  0  0
  190.3480  176.9970  146.9460 C   0  0  0  0  0  0  0  0  0  0  0  0
  191.4520  176.2450  146.5400 O   0  0  0  0  0  0  0  0  0  0  0  0
  192.3460  175.6610  147.4760 C   0  0  0  0  0  1  0  0  0  0  0  0
  188.3730  178.2340  146.4660 O   0  0  0  0  0  0  0  0  0  0  0  0
  187.2220  177.6200  146.9690 C   0  0  0  0  0  2  0  0  0  0  0  0
  186.1470  178.6620  147.2190 C   0  0  0  0  0  2  0  0  0  0  0  0
  184.9060  178.3420  146.4050 C   0  0  0  0  0  2  0  0  0  0  0  0
  185.0110  178.9430  145.0120 C   0  0  0  0  0  2  0  0  0  0  0  0
  183.6540  179.0020  144.3290 C   0  0  0  0  0  2  0  0  0  0  0  0
  183.7770  178.6710  142.9790 O   0  0  0  0  0  0  0  0  0  0  0  0
  184.9620  179.2900  142.5700 C   0  0  0  0  0  2  0  0  0  0  0  0
  185.3610  178.7790  141.1990 C   0  0  0  0  0  2  0  0  0  0  0  0
  185.0000  179.7100  140.2230 O   0  0  0  0  0  0  0  0  0  0  0  0
  183.9420  179.1070  139.5430 C   0  0  0  0  0  1  0  0  0  0  0  0
  1 15  1  1  0  0  0
  1 12  1  0  0  0  0
  2  7  1  0  0  0  0
  3  7  1  0  0  0  0
  4  5  1  0  0  0  0
  5  8  1  0  0  0  0
  5  6  2  0  0  0  0
  6  3  1  0  0  0  0
  7  9  1  6  0  0  0
  7  1  1  0  0  0  0
  8  2  1  0  0  0  0
 10  9  1  0  0  0  0
 12 11  2  0  0  0  0
 13 12  1  0  0  0  0
 13 14  1  0  0  0  0
 15 16  1  0  0  0  0
 16 17  1  0  0  0  0
 18 17  1  0  0  0  0
 19 18  1  0  0  0  0
 20 19  1  0  0  0  0
 21 20  1  0  0  0  0
 22 21  1  0  0  0  0
 23 22  1  0  0  0  0
 24 23  1  0  0  0  0
 25 24  1  0  0  0  0
M  END
>  <MODEL>
1

>  <REMARK>
 VINA RESULT:      -6.4      0.000      0.000
  Name = 
  14 active torsions:
  status: ('A' for Active; 'I' for Inactive)
    1  A    between atoms: C_1  and  O_3
    2  A    between atoms: C_1  and  C_18
    3  A    between atoms: C_1  and  C_24
    4  A    between atoms: C_2  and  O_7
    5  A    between atoms: C_2  and  C_25
    6  A    between atoms: O_3  and  C_16
    7  A    between atoms: C_6  and  C_15
    8  A    between atoms: C_6  and  O_21
    9  A    between atoms: O_13  and  C_24
   10  A    between atoms: C_15  and  C_20
   11  A    between atoms: C_16  and  C_23
   12  A    between atoms: C_17  and  C_18
   13  A    between atoms: C_20  and  C_23
   14  A    between atoms: O_21  and  C_25
                            x       y       z     vdW  Elec       q    Type
                         _______ _______ _______ _____ _____    ______ ____

>  <TORSDO>
F 14

$$$$
=
 OpenBabel11052412533D

 25 25  0  0  1  0  0  0  0  0999 V2000
  188.4280  177.5510  144.1120 C   0  0  1  0  0  3  0  0  0  0  0  0
  190.6140  176.4450  144.7270 C   0  0  0  0  0  2  0  0  0  0  0  0
  189.1610  177.4020  146.5200 C   0  0  0  0  0  2  0  0  0  0  0  0
  192.3980  176.3050  148.0890 O   0  0  0  0  0  1  0  0  0  0  0  0
  191.4520  176.5940  147.1150 C   0  0  0  0  0  0  0  0  0  0  0  0
  190.2710  177.0960  147.4890 C   0  0  0  0  0  3  0  0  0  0  0  0
  189.6420  177.5890  145.0720 C   0  0  2  0  0  0  0  0  0  0  0  0
  191.8210  176.4060  145.6690 C   0  0  0  0  0  2  0  0  0  0  0  0
  190.3470  178.9540  144.9570 C   0  0  0  0  0  2  0  0  0  0  0  0
  191.3380  179.0160  143.8040 C   0  0  0  0  0  1  0  0  0  0  0  0
  188.3930  175.4810  142.9230 O   0  0  0  0  0  0  0  0  0  0  0  0
  188.6520  176.7140  142.8840 C   0  0  0  0  0  0  0  0  0  0  0  0
  189.1370  177.3030  141.7150 O   0  0  0  0  0  0  0  0  0  0  0  0
  190.2690  176.7890  141.0300 C   0  0  0  0  0  1  0  0  0  0  0  0
  187.2680  177.1280  144.7740 O   0  0  0  0  0  0  0  0  0  0  0  0
  186.2900  178.0630  144.4240 C   0  0  0  0  0  2  0  0  0  0  0  0
  185.5990  178.5820  145.6720 C   0  0  0  0  0  2  0  0  0  0  0  0
  184.1550  178.9370  145.3630 C   0  0  0  0  0  2  0  0  0  0  0  0
  183.9840  179.2420  143.8830 C   0  0  0  0  0  2  0  0  0  0  0  0
  182.6690  178.6940  143.3520 C   0  0  0  0  0  2  0  0  0  0  0  0
  182.5860  178.8870  141.9730 O   0  0  0  0  0  0  0  0  0  0  0  0
  183.8380  178.5010  141.4870 C   0  0  0  0  0  2  0  0  0  0  0  0
  184.0970  179.1680  140.1490 C   0  0  0  0  0  2  0  0  0  0  0  0
  185.4080  178.9160  139.7400 O   0  0  0  0  0  0  0  0  0  0  0  0
  186.1350  178.8450  140.9270 C   0  0  0  0  0  1  0  0  0  0  0  0
  1 12  1  6  0  0  0
  1 15  1  0  0  0  0
  1  7  1  0  0  0  0
  2  7  1  0  0  0  0
  2  8  1  0  0  0  0
  3  6  1  0  0  0  0
  5  6  2  0  0  0  0
  5  4  1  0  0  0  0
  7  9  1  6  0  0  0
  7  3  1  0  0  0  0
  8  5  1  0  0  0  0
 10  9  1  0  0  0  0
 12 11  2  0  0  0  0
 13 12  1  0  0  0  0
 14 13  1  0  0  0  0
 16 15  1  0  0  0  0
 16 17  1  0  0  0  0
 18 17  1  0  0  0  0
 19 18  1  0  0  0  0
 20 19  1  0  0  0  0
 21 20  1  0  0  0  0
 22 21  1  0  0  0  0
 23 22  1  0  0  0  0
 24 23  1  0  0  0  0
 24 25  1  0  0  0  0
M  END
>  <MODEL>
2

>  <REMARK>
 VINA RESULT:      -6.4      1.616      3.579
  Name = 
  14 active torsions:
  status: ('A' for Active; 'I' for Inactive)
    1  A    between atoms: C_1  and  O_3
    2  A    between atoms: C_1  and  C_18
    3  A    between atoms: C_1  and  C_24
    4  A    between atoms: C_2  and  O_7
    5  A    between atoms: C_2  and  C_25
    6  A    between atoms: O_3  and  C_16
    7  A    between atoms: C_6  and  C_15
    8  A    between atoms: C_6  and  O_21
    9  A    between atoms: O_13  and  C_24
   10  A    between atoms: C_15  and  C_20
   11  A    between atoms: C_16  and  C_23
   12  A    between atoms: C_17  and  C_18
   13  A    between atoms: C_20  and  C_23
   14  A    between atoms: O_21  and  C_25
                            x       y       z     vdW  Elec       q    Type
                         _______ _______ _______ _____ _____    ______ ____

>  <TORSDO>
F 14

$$$$
=
 OpenBabel11052412533D

 25 25  0  0  1  0  0  0  0  0999 V2000
  189.9960  176.8420  145.3880 C   0  0  1  0  0  3  0  0  0  0  0  0
  188.2830  177.3480  143.6010 C   0  0  0  0  0  2  0  0  0  0  0  0
  190.5920  176.6530  142.9460 C   0  0  0  0  0  2  0  0  0  0  0  0
  188.7280  177.6350  139.8300 O   0  0  0  0  0  1  0  0  0  0  0  0
  189.0130  177.4460  141.1750 C   0  0  0  0  0  0  0  0  0  0  0  0
  190.2010  176.9390  141.5210 C   0  0  0  0  0  3  0  0  0  0  0  0
  189.7740  177.4440  143.9790 C   0  0  2  0  0  0  0  0  0  0  0  0
  188.0050  177.8950  142.1980 C   0  0  0  0  0  2  0  0  0  0  0  0
  190.2450  178.9100  143.9660 C   0  0  0  0  0  2  0  0  0  0  0  0
  191.7600  179.0470  143.9230 C   0  0  0  0  0  1  0  0  0  0  0  0
  191.9660  175.6280  144.8010 O   0  0  0  0  0  0  0  0  0  0  0  0
  191.4060  176.3870  145.6370 C   0  0  0  0  0  0  0  0  0  0  0  0
  192.0840  176.8090  146.7820 O   0  0  0  0  0  0  0  0  0  0  0  0
  192.3690  175.9230  147.8540 C   0  0  0  0  0  1  0  0  0  0  0  0
  189.5960  177.7340  146.3920 O   0  0  0  0  0  0  0  0  0  0  0  0
  188.6440  177.0350  147.1390 C   0  0  0  0  0  2  0  0  0  0  0  0
  188.1070  177.9170  148.2510 C   0  0  0  0  0  2  0  0  0  0  0  0
  186.9430  178.7510  147.7450 C   0  0  0  0  0  2  0  0  0  0  0  0
  186.1780  178.0000  146.6660 C   0  0  0  0  0  2  0  0  0  0  0  0
  185.5190  178.9580  145.6850 C   0  0  0  0  0  2  0  0  0  0  0  0
  184.1310  178.8850  145.7970 O   0  0  0  0  0  0  0  0  0  0  0  0
  183.6530  179.3790  144.5800 C   0  0  0  0  0  2  0  0  0  0  0  0
  184.5320  178.8880  143.4450 C   0  0  0  0  0  2  0  0  0  0  0  0
  183.7370  178.4280  142.3940 O   0  0  0  0  0  0  0  0  0  0  0  0
  184.4340  178.7970  141.2440 C   0  0  0  0  0  1  0  0  0  0  0  0
  1 12  1  1  0  0  0
  1 15  1  0  0  0  0
  2  7  1  0  0  0  0
  3  7  1  0  0  0  0
  4  5  1  0  0  0  0
  5  6  2  0  0  0  0
  5  8  1  0  0  0  0
  6  3  1  0  0  0  0
  7  9  1  6  0  0  0
  7  1  1  0  0  0  0
  8  2  1  0  0  0  0
 10  9  1  0  0  0  0
 11 12  2  0  0  0  0
 12 13  1  0  0  0  0
 13 14  1  0  0  0  0
 15 16  1  0  0  0  0
 16 17  1  0  0  0  0
 18 17  1  0  0  0  0
 19 18  1  0  0  0  0
 20 21  1  0  0  0  0
 20 19  1  0  0  0  0
 22 21  1  0  0  0  0
 23 22  1  0  0  0  0
 24 23  1  0  0  0  0
 25 24  1  0  0  0  0
M  END
>  <MODEL>
3

>  <REMARK>
 VINA RESULT:      -6.2      1.467      2.514
  Name = 
  14 active torsions:
  status: ('A' for Active; 'I' for Inactive)
    1  A    between atoms: C_1  and  O_3
    2  A    between atoms: C_1  and  C_18
    3  A    between atoms: C_1  and  C_24
    4  A    between atoms: C_2  and  O_7
    5  A    between atoms: C_2  and  C_25
    6  A    between atoms: O_3  and  C_16
    7  A    between atoms: C_6  and  C_15
    8  A    between atoms: C_6  and  O_21
    9  A    between atoms: O_13  and  C_24
   10  A    between atoms: C_15  and  C_20
   11  A    between atoms: C_16  and  C_23
   12  A    between atoms: C_17  and  C_18
   13  A    between atoms: C_20  and  C_23
   14  A    between atoms: O_21  and  C_25
                            x       y       z     vdW  Elec       q    Type
                         _______ _______ _______ _____ _____    ______ ____

>  <TORSDO>
F 14

$$$$
=
 OpenBabel11052412533D

 25 25  0  0  1  0  0  0  0  0999 V2000
  188.5790  177.2690  145.6770 C   0  0  1  0  0  3  0  0  0  0  0  0
  188.1400  177.6860  143.2250 C   0  0  0  0  0  2  0  0  0  0  0  0
  190.0480  176.2270  143.9120 C   0  0  0  0  0  2  0  0  0  0  0  0
  190.2380  176.7390  140.1910 O   0  0  0  0  0  1  0  0  0  0  0  0
  189.8200  176.8760  141.5080 C   0  0  0  0  0  0  0  0  0  0  0  0
  190.4500  176.1850  142.4630 C   0  0  0  0  0  3  0  0  0  0  0  0
  189.2340  177.4750  144.2890 C   0  0  2  0  0  0  0  0  0  0  0  0
  188.7240  177.8590  141.8200 C   0  0  0  0  0  2  0  0  0  0  0  0
  190.1820  178.6880  144.3420 C   0  0  0  0  0  2  0  0  0  0  0  0
  191.6520  178.2940  144.3130 C   0  0  0  0  0  1  0  0  0  0  0  0
  189.5680  178.0820  147.6920 O   0  0  0  0  0  0  0  0  0  0  0  0
  189.5670  177.1860  146.8060 C   0  0  0  0  0  0  0  0  0  0  0  0
  190.4680  176.1200  146.8700 O   0  0  0  0  0  0  0  0  0  0  0  0
  191.7880  176.2840  147.3660 C   0  0  0  0  0  1  0  0  0  0  0  0
  187.6290  178.2630  145.9460 O   0  0  0  0  0  0  0  0  0  0  0  0
  186.4660  177.5690  146.2890 C   0  0  0  0  0  2  0  0  0  0  0  0
  185.3200  178.5430  146.4880 C   0  0  0  0  0  2  0  0  0  0  0  0
  184.8810  179.1180  145.1530 C   0  0  0  0  0  2  0  0  0  0  0  0
  183.3770  178.9770  144.9780 C   0  0  0  0  0  2  0  0  0  0  0  0
  183.0080  178.7350  143.5230 C   0  0  0  0  0  2  0  0  0  0  0  0
  184.1310  178.3320  142.8000 O   0  0  0  0  0  0  0  0  0  0  0  0
  183.9760  178.9300  141.5460 C   0  0  0  0  0  2  0  0  0  0  0  0
  185.3140  178.9840  140.8340 C   0  0  0  0  0  2  0  0  0  0  0  0
  185.1510  179.5270  139.5580 O   0  0  0  0  0  0  0  0  0  0  0  0
  184.0380  178.8650  139.0400 C   0  0  0  0  0  1  0  0  0  0  0  0
  1 15  1  1  0  0  0
  1 12  1  0  0  0  0
  2  7  1  0  0  0  0
  3  7  1  0  0  0  0
  4  5  1  0  0  0  0
  5  8  1  0  0  0  0
  5  6  2  0  0  0  0
  6  3  1  0  0  0  0
  7  9  1  1  0  0  0
  7  1  1  0  0  0  0
  8  2  1  0  0  0  0
 10  9  1  0  0  0  0
 12 13  1  0  0  0  0
 12 11  2  0  0  0  0
 13 14  1  0  0  0  0
 15 16  1  0  0  0  0
 16 17  1  0  0  0  0
 18 17  1  0  0  0  0
 19 18  1  0  0  0  0
 20 19  1  0  0  0  0
 21 20  1  0  0  0  0
 22 21  1  0  0  0  0
 23 22  1  0  0  0  0
 24 23  1  0  0  0  0
 25 24  1  0  0  0  0
M  END
>  <MODEL>
4

>  <REMARK>
 VINA RESULT:      -6.2      0.984      1.781
  Name = 
  14 active torsions:
  status: ('A' for Active; 'I' for Inactive)
    1  A    between atoms: C_1  and  O_3
    2  A    between atoms: C_1  and  C_18
    3  A    between atoms: C_1  and  C_24
    4  A    between atoms: C_2  and  O_7
    5  A    between atoms: C_2  and  C_25
    6  A    between atoms: O_3  and  C_16
    7  A    between atoms: C_6  and  C_15
    8  A    between atoms: C_6  and  O_21
    9  A    between atoms: O_13  and  C_24
   10  A    between atoms: C_15  and  C_20
   11  A    between atoms: C_16  and  C_23
   12  A    between atoms: C_17  and  C_18
   13  A    between atoms: C_20  and  C_23
   14  A    between atoms: O_21  and  C_25
                            x       y       z     vdW  Elec       q    Type
                         _______ _______ _______ _____ _____    ______ ____

>  <TORSDO>
F 14

$$$$
=
 OpenBabel11052412533D

 25 25  0  0  1  0  0  0  0  0999 V2000
  189.1820  177.4800  142.5320 C   0  0  1  0  0  3  0  0  0  0  0  0
  190.8380  175.8190  143.4700 C   0  0  0  0  0  2  0  0  0  0  0  0
  189.7950  177.5170  144.9770 C   0  0  0  0  0  2  0  0  0  0  0  0
  192.4300  175.6730  146.9260 O   0  0  0  0  0  1  0  0  0  0  0  0
  191.6540  176.0920  145.8540 C   0  0  0  0  0  0  0  0  0  0  0  0
  190.7200  177.0270  146.0580 C   0  0  0  0  0  3  0  0  0  0  0  0
  190.3250  177.2690  143.5550 C   0  0  2  0  0  0  0  0  0  0  0  0
  191.9470  175.5360  144.4880 C   0  0  0  0  0  2  0  0  0  0  0  0
  191.4630  178.2670  143.2700 C   0  0  0  0  0  2  0  0  0  0  0  0
  191.2160  179.6400  143.8790 C   0  0  0  0  0  1  0  0  0  0  0  0
  190.2310  176.3400  140.7150 O   0  0  0  0  0  0  0  0  0  0  0  0
  189.6250  177.3760  141.1000 C   0  0  0  0  0  0  0  0  0  0  0  0
  189.3590  178.4170  140.2080 O   0  0  0  0  0  0  0  0  0  0  0  0
  189.2900  178.2040  138.8060 C   0  0  0  0  0  1  0  0  0  0  0  0
  188.1170  176.6010  142.7680 O   0  0  0  0  0  0  0  0  0  0  0  0
  187.0950  177.4010  143.2860 C   0  0  0  0  0  2  0  0  0  0  0  0
  186.5410  178.3030  142.1980 C   0  0  0  0  0  2  0  0  0  0  0  0
  185.0800  178.6160  142.4690 C   0  0  0  0  0  2  0  0  0  0  0  0
  184.7060  178.2330  143.8920 C   0  0  0  0  0  2  0  0  0  0  0  0
  184.2890  179.4510  144.7020 C   0  0  0  0  0  2  0  0  0  0  0  0
  184.1900  179.1210  146.0540 O   0  0  0  0  0  0  0  0  0  0  0  0
  185.1870  178.1640  146.2580 C   0  0  0  0  0  2  0  0  0  0  0  0
  186.1960  178.6800  147.2680 C   0  0  0  0  0  2  0  0  0  0  0  0
  187.2520  177.7750  147.3880 O   0  0  0  0  0  0  0  0  0  0  0  0
  188.0420  178.2990  148.4110 C   0  0  0  0  0  1  0  0  0  0  0  0
  1 12  1  6  0  0  0
  1 15  1  0  0  0  0
  1  7  1  0  0  0  0
  2  7  1  0  0  0  0
  2  8  1  0  0  0  0
  3  6  1  0  0  0  0
  5  6  2  0  0  0  0
  5  4  1  0  0  0  0
  7  9  1  6  0  0  0
  7  3  1  0  0  0  0
  8  5  1  0  0  0  0
  9 10  1  0  0  0  0
 11 12  2  0  0  0  0
 13 12  1  0  0  0  0
 14 13  1  0  0  0  0
 15 16  1  0  0  0  0
 17 18  1  0  0  0  0
 17 16  1  0  0  0  0
 18 19  1  0  0  0  0
 19 20  1  0  0  0  0
 20 21  1  0  0  0  0
 21 22  1  0  0  0  0
 22 23  1  0  0  0  0
 23 24  1  0  0  0  0
 24 25  1  0  0  0  0
M  END
>  <MODEL>
5

>  <REMARK>
 VINA RESULT:      -6.0      1.894      5.078
  Name = 
  14 active torsions:
  status: ('A' for Active; 'I' for Inactive)
    1  A    between atoms: C_1  and  O_3
    2  A    between atoms: C_1  and  C_18
    3  A    between atoms: C_1  and  C_24
    4  A    between atoms: C_2  and  O_7
    5  A    between atoms: C_2  and  C_25
    6  A    between atoms: O_3  and  C_16
    7  A    between atoms: C_6  and  C_15
    8  A    between atoms: C_6  and  O_21
    9  A    between atoms: O_13  and  C_24
   10  A    between atoms: C_15  and  C_20
   11  A    between atoms: C_16  and  C_23
   12  A    between atoms: C_17  and  C_18
   13  A    between atoms: C_20  and  C_23
   14  A    between atoms: O_21  and  C_25
                            x       y       z     vdW  Elec       q    Type
                         _______ _______ _______ _____ _____    ______ ____

>  <TORSDO>
F 14

$$$$
=
 OpenBabel11052412533D

 25 25  0  0  1  0  0  0  0  0999 V2000
  189.8040  177.5980  141.4410 C   0  0  1  0  0  3  0  0  0  0  0  0
  189.8680  178.3010  143.8660 C   0  0  0  0  0  2  0  0  0  0  0  0
  191.3950  176.4970  143.0560 C   0  0  0  0  0  2  0  0  0  0  0  0
  191.7300  176.7320  146.7950 O   0  0  0  0  0  1  0  0  0  0  0  0
  191.2550  176.9590  145.5110 C   0  0  0  0  0  0  0  0  0  0  0  0
  191.8040  176.2920  144.4900 C   0  0  0  0  0  3  0  0  0  0  0  0
  189.9940  177.1100  142.8980 C   0  0  2  0  0  0  0  0  0  0  0  0
  190.0860  177.8870  145.3250 C   0  0  0  0  0  2  0  0  0  0  0  0
  188.9430  176.0320  143.2210 C   0  0  0  0  0  2  0  0  0  0  0  0
  187.6630  176.6090  143.8120 C   0  0  0  0  0  1  0  0  0  0  0  0
  191.9670  177.7240  140.4380 O   0  0  0  0  0  0  0  0  0  0  0  0
  190.8660  177.1130  140.4950 C   0  0  0  0  0  0  0  0  0  0  0  0
  190.6300  175.9930  139.6950 O   0  0  0  0  0  0  0  0  0  0  0  0
  190.6170  176.0730  138.2780 C   0  0  0  0  0  1  0  0  0  0  0  0
  188.5350  177.2580  140.9510 O   0  0  0  0  0  0  0  0  0  0  0  0
  188.1150  178.3780  140.2280 C   0  0  0  0  0  2  0  0  0  0  0  0
  186.6090  178.5280  140.3340 C   0  0  0  0  0  2  0  0  0  0  0  0
  186.2280  179.0480  141.7100 C   0  0  0  0  0  2  0  0  0  0  0  0
  184.7290  178.9240  141.9320 C   0  0  0  0  0  2  0  0  0  0  0  0
  184.4160  178.4070  143.3270 C   0  0  0  0  0  2  0  0  0  0  0  0
  184.7050  179.3820  144.2810 O   0  0  0  0  0  0  0  0  0  0  0  0
  184.5630  178.7280  145.5080 C   0  0  0  0  0  2  0  0  0  0  0  0
  185.6190  179.2230  146.4790 C   0  0  0  0  0  2  0  0  0  0  0  0
  186.8030  178.5070  146.2960 O   0  0  0  0  0  0  0  0  0  0  0  0
  187.1030  178.0030  147.5620 C   0  0  0  0  0  1  0  0  0  0  0  0
  1 12  1  6  0  0  0
  1  7  1  0  0  0  0
  2  8  1  0  0  0  0
  3  6  1  0  0  0  0
  5  4  1  0  0  0  0
  6  5  2  0  0  0  0
  7  3  1  0  0  0  0
  7  9  1  1  0  0  0
  7  2  1  0  0  0  0
  8  5  1  0  0  0  0
  9 10  1  0  0  0  0
 11 12  2  0  0  0  0
 13 12  1  0  0  0  0
 14 13  1  0  0  0  0
 15  1  1  0  0  0  0
 16 17  1  0  0  0  0
 16 15  1  0  0  0  0
 17 18  1  0  0  0  0
 18 19  1  0  0  0  0
 19 20  1  0  0  0  0
 20 21  1  0  0  0  0
 21 22  1  0  0  0  0
 22 23  1  0  0  0  0
 24 23  1  0  0  0  0
 24 25  1  0  0  0  0
M  END
>  <MODEL>
6

>  <REMARK>
 VINA RESULT:      -5.9      1.790      5.138
  Name = 
  14 active torsions:
  status: ('A' for Active; 'I' for Inactive)
    1  A    between atoms: C_1  and  O_3
    2  A    between atoms: C_1  and  C_18
    3  A    between atoms: C_1  and  C_24
    4  A    between atoms: C_2  and  O_7
    5  A    between atoms: C_2  and  C_25
    6  A    between atoms: O_3  and  C_16
    7  A    between atoms: C_6  and  C_15
    8  A    between atoms: C_6  and  O_21
    9  A    between atoms: O_13  and  C_24
   10  A    between atoms: C_15  and  C_20
   11  A    between atoms: C_16  and  C_23
   12  A    between atoms: C_17  and  C_18
   13  A    between atoms: C_20  and  C_23
   14  A    between atoms: O_21  and  C_25
                            x       y       z     vdW  Elec       q    Type
                         _______ _______ _______ _____ _____    ______ ____

>  <TORSDO>
F 14

$$$$
=
 OpenBabel11052412533D

 25 25  0  0  1  0  0  0  0  0999 V2000
  191.0590  176.8680  144.2340 C   0  0  1  0  0  3  0  0  0  0  0  0
  189.6170  177.2630  146.2700 C   0  0  0  0  0  2  0  0  0  0  0  0
  188.5440  176.8400  144.0530 C   0  0  0  0  0  2  0  0  0  0  0  0
  185.8470  177.7460  146.5130 O   0  0  0  0  0  1  0  0  0  0  0  0
  187.1130  177.5350  145.9830 C   0  0  0  0  0  0  0  0  0  0  0  0
  187.2240  177.1400  144.7110 C   0  0  0  0  0  3  0  0  0  0  0  0
  189.7440  177.4990  144.7530 C   0  0  2  0  0  0  0  0  0  0  0  0
  188.3140  177.8340  146.8380 C   0  0  0  0  0  2  0  0  0  0  0  0
  189.7360  179.0060  144.4340 C   0  0  0  0  0  2  0  0  0  0  0  0
  191.1280  179.5690  144.1860 C   0  0  0  0  0  1  0  0  0  0  0  0
  192.0820  174.8220  144.9200 O   0  0  0  0  0  0  0  0  0  0  0  0
  191.7510  175.9950  145.2430 C   0  0  0  0  0  0  0  0  0  0  0  0
  192.0280  176.4870  146.5200 O   0  0  0  0  0  0  0  0  0  0  0  0
  192.4060  175.6310  147.5870 C   0  0  0  0  0  1  0  0  0  0  0  0
  190.8470  176.1520  143.0480 O   0  0  0  0  0  0  0  0  0  0  0  0
  191.8250  176.6170  142.1650 C   0  0  0  0  0  2  0  0  0  0  0  0
  191.2020  177.5570  141.1500 C   0  0  0  0  0  2  0  0  0  0  0  0
  189.8140  177.0740  140.7690 C   0  0  0  0  0  2  0  0  0  0  0  0
  189.0730  178.1440  139.9820 C   0  0  0  0  0  2  0  0  0  0  0  0
  187.8120  178.5910  140.7050 C   0  0  0  0  0  2  0  0  0  0  0  0
  186.7240  178.5760  139.8330 O   0  0  0  0  0  0  0  0  0  0  0  0
  185.6430  179.0020  140.6110 C   0  0  0  0  0  2  0  0  0  0  0  0
  186.0600  179.0850  142.0670 C   0  0  0  0  0  2  0  0  0  0  0  0
  184.9500  179.3770  142.8620 O   0  0  0  0  0  0  0  0  0  0  0  0
  184.0330  178.3700  142.5610 C   0  0  0  0  0  1  0  0  0  0  0  0
  1 15  1  6  0  0  0
  1  7  1  0  0  0  0
  1 12  1  0  0  0  0
  2  8  1  0  0  0  0
  3  6  1  0  0  0  0
  3  7  1  0  0  0  0
  5  4  1  0  0  0  0
  5  8  1  0  0  0  0
  6  5  2  0  0  0  0
  7  9  1  6  0  0  0
  7  2  1  0  0  0  0
 10  9  1  0  0  0  0
 11 12  2  0  0  0  0
 12 13  1  0  0  0  0
 13 14  1  0  0  0  0
 16 15  1  0  0  0  0
 17 16  1  0  0  0  0
 18 17  1  0  0  0  0
 19 20  1  0  0  0  0
 19 18  1  0  0  0  0
 21 22  1  0  0  0  0
 21 20  1  0  0  0  0
 22 23  1  0  0  0  0
 23 24  1  0  0  0  0
 25 24  1  0  0  0  0
M  END
>  <MODEL>
7

>  <REMARK>
 VINA RESULT:      -5.6      1.633      4.590
  Name = 
  14 active torsions:
  status: ('A' for Active; 'I' for Inactive)
    1  A    between atoms: C_1  and  O_3
    2  A    between atoms: C_1  and  C_18
    3  A    between atoms: C_1  and  C_24
    4  A    between atoms: C_2  and  O_7
    5  A    between atoms: C_2  and  C_25
    6  A    between atoms: O_3  and  C_16
    7  A    between atoms: C_6  and  C_15
    8  A    between atoms: C_6  and  O_21
    9  A    between atoms: O_13  and  C_24
   10  A    between atoms: C_15  and  C_20
   11  A    between atoms: C_16  and  C_23
   12  A    between atoms: C_17  and  C_18
   13  A    between atoms: C_20  and  C_23
   14  A    between atoms: O_21  and  C_25
                            x       y       z     vdW  Elec       q    Type
                         _______ _______ _______ _____ _____    ______ ____

>  <TORSDO>
F 14

$$$$
=
 OpenBabel11052412533D

 25 25  0  0  1  0  0  0  0  0999 V2000
  188.3180  177.3240  145.4050 C   0  0  1  0  0  3  0  0  0  0  0  0
  189.4730  176.2070  143.4550 C   0  0  0  0  0  2  0  0  0  0  0  0
  190.3810  178.3450  144.3750 C   0  0  0  0  0  2  0  0  0  0  0  0
  192.3180  177.4820  141.2690 O   0  0  0  0  0  1  0  0  0  0  0  0
  191.3480  177.4240  142.2600 C   0  0  0  0  0  0  0  0  0  0  0  0
  191.3570  178.3440  143.2300 C   0  0  0  0  0  3  0  0  0  0  0  0
  189.0910  177.5600  144.0840 C   0  0  2  0  0  0  0  0  0  0  0  0
  190.2750  176.3740  142.1620 C   0  0  0  0  0  2  0  0  0  0  0  0
  188.2190  178.3820  143.1160 C   0  0  0  0  0  2  0  0  0  0  0  0
  187.1620  177.5440  142.4110 C   0  0  0  0  0  1  0  0  0  0  0  0
  190.0590  176.3720  146.7320 O   0  0  0  0  0  0  0  0  0  0  0  0
  189.1970  177.2860  146.6230 C   0  0  0  0  0  0  0  0  0  0  0  0
  189.0600  178.2580  147.6150 O   0  0  0  0  0  0  0  0  0  0  0  0
  188.3970  177.9880  148.8410 C   0  0  0  0  0  1  0  0  0  0  0  0
  187.3030  178.2740  145.5770 O   0  0  0  0  0  0  0  0  0  0  0  0
  186.1690  177.5330  145.9250 C   0  0  0  0  0  2  0  0  0  0  0  0
  185.1450  178.4340  146.5890 C   0  0  0  0  0  2  0  0  0  0  0  0
  183.9450  178.6260  145.6780 C   0  0  0  0  0  2  0  0  0  0  0  0
  184.3790  179.1910  144.3350 C   0  0  0  0  0  2  0  0  0  0  0  0
  183.3650  178.8730  143.2460 C   0  0  0  0  0  2  0  0  0  0  0  0
  182.1140  179.3900  143.5850 O   0  0  0  0  0  0  0  0  0  0  0  0
  181.2370  178.8260  142.6550 C   0  0  0  0  0  2  0  0  0  0  0  0
  181.9490  178.6310  141.3290 C   0  0  0  0  0  2  0  0  0  0  0  0
  181.3220  179.3870  140.3380 O   0  0  0  0  0  0  0  0  0  0  0  0
  180.0860  179.7250  140.8890 C   0  0  0  0  0  1  0  0  0  0  0  0
  1 15  1  1  0  0  0
  1 12  1  0  0  0  0
  2  7  1  0  0  0  0
  4  5  1  0  0  0  0
  5  6  2  0  0  0  0
  6  3  1  0  0  0  0
  7  9  1  6  0  0  0
  7  3  1  0  0  0  0
  7  1  1  0  0  0  0
  8  5  1  0  0  0  0
  8  2  1  0  0  0  0
 10  9  1  0  0  0  0
 12 11  2  0  0  0  0
 12 13  1  0  0  0  0
 13 14  1  0  0  0  0
 15 16  1  0  0  0  0
 16 17  1  0  0  0  0
 18 17  1  0  0  0  0
 19 18  1  0  0  0  0
 20 21  1  0  0  0  0
 20 19  1  0  0  0  0
 22 21  1  0  0  0  0
 23 22  1  0  0  0  0
 24 25  1  0  0  0  0
 24 23  1  0  0  0  0
M  END
>  <MODEL>
8

>  <REMARK>
 VINA RESULT:      -5.6      1.713      2.138
  Name = 
  14 active torsions:
  status: ('A' for Active; 'I' for Inactive)
    1  A    between atoms: C_1  and  O_3
    2  A    between atoms: C_1  and  C_18
    3  A    between atoms: C_1  and  C_24
    4  A    between atoms: C_2  and  O_7
    5  A    between atoms: C_2  and  C_25
    6  A    between atoms: O_3  and  C_16
    7  A    between atoms: C_6  and  C_15
    8  A    between atoms: C_6  and  O_21
    9  A    between atoms: O_13  and  C_24
   10  A    between atoms: C_15  and  C_20
   11  A    between atoms: C_16  and  C_23
   12  A    between atoms: C_17  and  C_18
   13  A    between atoms: C_20  and  C_23
   14  A    between atoms: O_21  and  C_25
                            x       y       z     vdW  Elec       q    Type
                         _______ _______ _______ _____ _____    ______ ____

>  <TORSDO>
F 14

$$$$
=
 OpenBabel11052412533D

 25 25  0  0  1  0  0  0  0  0999 V2000
  188.0560  177.5980  144.5600 C   0  0  1  0  0  3  0  0  0  0  0  0
  190.3030  176.4430  144.5190 C   0  0  0  0  0  2  0  0  0  0  0  0
  189.3030  177.1340  146.7020 C   0  0  0  0  0  2  0  0  0  0  0  0
  192.7860  175.8720  147.3490 O   0  0  0  0  0  1  0  0  0  0  0  0
  191.6530  176.2790  146.6580 C   0  0  0  0  0  0  0  0  0  0  0  0
  190.5940  176.7130  147.3500 C   0  0  0  0  0  3  0  0  0  0  0  0
  189.4540  177.5200  145.2220 C   0  0  2  0  0  0  0  0  0  0  0  0
  191.6880  176.2910  145.1540 C   0  0  0  0  0  2  0  0  0  0  0  0
  190.1420  178.8960  145.1370 C   0  0  0  0  0  2  0  0  0  0  0  0
  190.8680  179.1160  143.8170 C   0  0  0  0  0  1  0  0  0  0  0  0
  187.9350  175.6240  143.2220 O   0  0  0  0  0  0  0  0  0  0  0  0
  187.9700  176.8840  143.2410 C   0  0  0  0  0  0  0  0  0  0  0  0
  187.9220  177.6150  142.0520 O   0  0  0  0  0  0  0  0  0  0  0  0
  189.0160  177.6460  141.1470 C   0  0  0  0  0  1  0  0  0  0  0  0
  187.0570  177.1300  145.4240 O   0  0  0  0  0  0  0  0  0  0  0  0
  186.5540  178.2740  146.0490 C   0  0  0  0  0  2  0  0  0  0  0  0
  185.6870  179.0560  145.0800 C   0  0  0  0  0  2  0  0  0  0  0  0
  184.2230  178.7130  145.2900 C   0  0  0  0  0  2  0  0  0  0  0  0
  183.4990  178.6190  143.9560 C   0  0  0  0  0  2  0  0  0  0  0  0
  184.4790  178.6200  142.7920 C   0  0  0  0  0  2  0  0  0  0  0  0
  183.8010  178.8180  141.5890 O   0  0  0  0  0  0  0  0  0  0  0  0
  182.4500  178.6730  141.9180 C   0  0  0  0  0  2  0  0  0  0  0  0
  181.6410  178.4150  140.6610 C   0  0  0  0  0  2  0  0  0  0  0  0
  180.5360  179.2670  140.6250 O   0  0  0  0  0  0  0  0  0  0  0  0
  180.3370  179.6330  141.9550 C   0  0  0  0  0  1  0  0  0  0  0  0
  1 12  1  6  0  0  0
  1  7  1  0  0  0  0
  1 15  1  0  0  0  0
  2  8  1  0  0  0  0
  2  7  1  0  0  0  0
  3  6  1  0  0  0  0
  5  4  1  0  0  0  0
  5  6  2  0  0  0  0
  7  9  1  6  0  0  0
  7  3  1  0  0  0  0
  8  5  1  0  0  0  0
 10  9  1  0  0  0  0
 11 12  2  0  0  0  0
 13 12  1  0  0  0  0
 14 13  1  0  0  0  0
 15 16  1  0  0  0  0
 17 18  1  0  0  0  0
 17 16  1  0  0  0  0
 19 18  1  0  0  0  0
 20 19  1  0  0  0  0
 21 22  1  0  0  0  0
 21 20  1  0  0  0  0
 23 22  1  0  0  0  0
 24 23  1  0  0  0  0
 24 25  1  0  0  0  0
M  END
>  <MODEL>
9

>  <REMARK>
 VINA RESULT:      -5.6      2.102      3.776
  Name = 
  14 active torsions:
  status: ('A' for Active; 'I' for Inactive)
    1  A    between atoms: C_1  and  O_3
    2  A    between atoms: C_1  and  C_18
    3  A    between atoms: C_1  and  C_24
    4  A    between atoms: C_2  and  O_7
    5  A    between atoms: C_2  and  C_25
    6  A    between atoms: O_3  and  C_16
    7  A    between atoms: C_6  and  C_15
    8  A    between atoms: C_6  and  O_21
    9  A    between atoms: O_13  and  C_24
   10  A    between atoms: C_15  and  C_20
   11  A    between atoms: C_16  and  C_23
   12  A    between atoms: C_17  and  C_18
   13  A    between atoms: C_20  and  C_23
   14  A    between atoms: O_21  and  C_25
                            x       y       z     vdW  Elec       q    Type
                         _______ _______ _______ _____ _____    ______ ____

>  <TORSDO>
F 14

$$$$
