=
 OpenBabel11052414193D

 34 38  0  0  1  0  0  0  0  0999 V2000
  187.4180  177.9670  147.0680 C   0  0  0  0  0  0  0  0  0  0  0  0
  189.8430  177.6820  147.0050 C   0  0  0  0  0  0  0  0  0  0  0  0
  188.5350  177.4540  144.9640 C   0  0  0  0  0  0  0  0  0  0  0  0
  189.6870  176.7230  142.8710 N   0  0  0  0  0  0  0  0  0  0  0  0
  188.7340  178.2620  149.0820 C   0  0  0  0  0  3  0  0  0  0  0  0
  189.9030  177.9580  148.3740 C   0  0  0  0  0  3  0  0  0  0  0  0
  191.0190  177.0450  144.9560 C   0  0  0  0  0  3  0  0  0  0  0  0
  188.6020  177.7180  146.3410 C   0  0  0  0  0  0  0  0  0  0  0  0
  191.7420  177.5270  142.0900 O   0  0  0  0  0  0  0  0  0  0  0  0
  187.4940  178.2580  148.4330 C   0  0  0  0  0  3  0  0  0  0  0  0
  187.2870  177.3270  144.3370 C   0  0  0  0  0  0  0  0  0  0  0  0
  186.1800  177.8960  146.4230 C   0  0  0  0  0  3  0  0  0  0  0  0
  191.0450  177.2210  146.2830 C   0  0  0  0  0  3  0  0  0  0  0  0
  188.4370  176.0490  142.5080 C   0  0  0  0  0  2  0  0  0  0  0  0
  187.2100  176.8820  142.9080 C   0  0  2  0  0  3  0  0  0  0  0  0
  190.7210  176.8160  141.8780 C   0  0  0  0  0  0  0  0  0  0  0  0
  189.8090  177.4470  144.1480 C   0  0  2  0  0  3  0  0  0  0  0  0
  186.1140  177.5600  145.0660 C   0  0  0  0  0  3  0  0  0  0  0  0
  185.7970  178.8320  142.0940 C   0  0  0  0  0  0  0  0  0  0  0  0
  185.9310  180.0330  142.4490 O   0  0  0  0  0  0  0  0  0  0  0  0
  186.9510  177.9840  141.9790 N   0  0  0  0  0  0  0  0  0  0  0  0
  184.1690  178.2220  141.6700 S   0  0  0  0  0  1  0  0  0  0  0  0
  188.7350  179.4810  141.1870 C   0  0  0  0  0  1  0  0  0  0  0  0
  187.2890  178.2640  139.5620 C   0  0  0  0  0  1  0  0  0  0  0  0
  187.9440  178.2110  140.9310 C   0  0  0  0  0  3  0  0  0  0  0  0
  190.5820  176.1300  140.6700 O   0  0  0  0  0  0  0  0  0  0  0  0
  190.9220  176.7250  139.4250 C   0  0  0  0  0  2  0  0  0  0  0  0
  189.5940  178.0070  137.0360 C   0  0  0  0  0  1  0  0  0  0  0  0
  190.3190  175.9210  138.2820 C   0  0  1  0  0  3  0  0  0  0  0  0
  190.3710  176.7040  136.9470 C   0  0  1  0  0  3  0  0  0  0  0  0
  190.5640  174.7390  135.8110 C   0  0  0  0  0  2  0  0  0  0  0  0
  190.4630  173.9640  137.1260 C   0  0  0  0  0  2  0  0  0  0  0  0
  191.0480  174.7210  138.1570 O   0  0  0  0  0  0  0  0  0  0  0  0
  189.8150  175.9270  135.9100 O   0  0  0  0  0  0  0  0  0  0  0  0
  1 10  2  0  0  0  0
  2  6  1  0  0  0  0
  3  8  1  0  0  0  0
  4 17  1  0  0  0  0
  6  5  2  0  0  0  0
  7 13  2  0  0  0  0
  8  2  2  0  0  0  0
  8  1  1  0  0  0  0
 10  5  1  0  0  0  0
 11  3  2  0  0  0  0
 11 18  1  0  0  0  0
 12  1  1  0  0  0  0
 13  2  1  0  0  0  0
 14  4  1  0  0  0  0
 14 15  1  0  0  0  0
 15 21  1  6  0  0  0
 15 11  1  0  0  0  0
 16  9  2  0  0  0  0
 16  4  1  0  0  0  0
 17  7  1  1  0  0  0
 17  3  1  0  0  0  0
 18 12  2  0  0  0  0
 19 20  2  0  0  0  0
 21 19  1  0  0  0  0
 22 19  1  0  0  0  0
 24 25  1  0  0  0  0
 25 23  1  0  0  0  0
 25 21  1  0  0  0  0
 26 16  1  0  0  0  0
 27 26  1  0  0  0  0
 29 27  1  1  0  0  0
 30 28  1  1  0  0  0
 30 29  1  0  0  0  0
 31 34  1  0  0  0  0
 31 32  1  0  0  0  0
 32 33  1  0  0  0  0
 33 29  1  0  0  0  0
 34 30  1  0  0  0  0
M  END
>  <MODEL>
1

>  <REMARK>
 VINA RESULT:      -8.5      0.000      0.000
  Name = 
  5 active torsions:
  status: ('A' for Active; 'I' for Inactive)
    1  A    between atoms: C_3  and  C_13
    2  A    between atoms: C_3  and  O_17
    3  A    between atoms: O_17  and  C_29
    4  A    between atoms: N_23  and  C_27
    5  A    between atoms: N_23  and  C_28
                            x       y       z     vdW  Elec       q    Type
                         _______ _______ _______ _____ _____    ______ ____

>  <TORSDO>
F 5

$$$$
=
 OpenBabel11052414193D

 34 38  0  0  1  0  0  0  0  0999 V2000
  185.7970  178.3930  143.1020 C   0  0  0  0  0  0  0  0  0  0  0  0
  183.4640  178.7020  143.7550 C   0  0  0  0  0  0  0  0  0  0  0  0
  184.0880  178.7400  141.4020 C   0  0  0  0  0  0  0  0  0  0  0  0
  182.3440  179.3040  139.7030 N   0  0  0  0  0  0  0  0  0  0  0  0
  185.1590  178.2880  145.4380 C   0  0  0  0  0  3  0  0  0  0  0  0
  183.8270  178.5450  145.0950 C   0  0  0  0  0  3  0  0  0  0  0  0
  181.7130  179.1770  142.1130 C   0  0  0  0  0  3  0  0  0  0  0  0
  184.4450  178.5940  142.7510 C   0  0  0  0  0  0  0  0  0  0  0  0
  180.1600  178.4610  139.6540 O   0  0  0  0  0  0  0  0  0  0  0  0
  186.1440  178.2210  144.4450 C   0  0  0  0  0  3  0  0  0  0  0  0
  185.0840  178.7960  140.4170 C   0  0  0  0  0  0  0  0  0  0  0  0
  186.7800  178.3930  142.1090 C   0  0  0  0  0  3  0  0  0  0  0  0
  182.0930  179.1160  143.3960 C   0  0  0  0  0  3  0  0  0  0  0  0
  183.4150  179.9290  138.9220 C   0  0  0  0  0  2  0  0  0  0  0  0
  184.7170  179.1180  138.9990 C   0  0  2  0  0  3  0  0  0  0  0  0
  181.0590  179.1390  139.0830 C   0  0  0  0  0  0  0  0  0  0  0  0
  182.6250  178.6930  141.0130 C   0  0  2  0  0  3  0  0  0  0  0  0
  186.4260  178.6120  140.7710 C   0  0  0  0  0  3  0  0  0  0  0  0
  185.8930  177.3880  137.5530 C   0  0  0  0  0  0  0  0  0  0  0  0
  186.3310  176.2770  137.9510 O   0  0  0  0  0  0  0  0  0  0  0  0
  184.6970  177.9370  138.1320 N   0  0  0  0  0  0  0  0  0  0  0  0
  186.7320  178.2330  136.2180 S   0  0  0  0  0  1  0  0  0  0  0  0
  183.2800  175.9940  138.6470 C   0  0  0  0  0  1  0  0  0  0  0  0
  183.1510  177.1010  136.4160 C   0  0  0  0  0  1  0  0  0  0  0  0
  183.3970  177.3100  137.9010 C   0  0  0  0  0  3  0  0  0  0  0  0
  180.8140  179.7180  137.8360 O   0  0  0  0  0  0  0  0  0  0  0  0
  179.9980  180.8720  137.6900 C   0  0  0  0  0  2  0  0  0  0  0  0
  180.4510  181.0660  134.7120 C   0  0  0  0  0  1  0  0  0  0  0  0
  180.7950  181.9960  137.0450 C   0  0  1  0  0  3  0  0  0  0  0  0
  180.3060  182.2860  135.6050 C   0  0  1  0  0  3  0  0  0  0  0  0
  180.8890  184.4740  135.8570 C   0  0  0  0  0  2  0  0  0  0  0  0
  181.4180  184.1760  137.2610 C   0  0  0  0  0  2  0  0  0  0  0  0
  180.6470  183.1510  137.8390 O   0  0  0  0  0  0  0  0  0  0  0  0
  181.0590  183.3380  135.0430 O   0  0  0  0  0  0  0  0  0  0  0  0
  1 10  2  0  0  0  0
  2  6  1  0  0  0  0
  3  8  1  0  0  0  0
  4 17  1  0  0  0  0
  6  5  2  0  0  0  0
  7 13  2  0  0  0  0
  8  1  1  0  0  0  0
  8  2  2  0  0  0  0
 10  5  1  0  0  0  0
 11 18  1  0  0  0  0
 11  3  2  0  0  0  0
 12  1  1  0  0  0  0
 13  2  1  0  0  0  0
 14 15  1  0  0  0  0
 14  4  1  0  0  0  0
 15 21  1  6  0  0  0
 15 11  1  0  0  0  0
 16  9  2  0  0  0  0
 16  4  1  0  0  0  0
 17  3  1  0  0  0  0
 17  7  1  1  0  0  0
 18 12  2  0  0  0  0
 19 20  2  0  0  0  0
 19 21  1  0  0  0  0
 22 19  1  0  0  0  0
 24 25  1  0  0  0  0
 25 21  1  0  0  0  0
 25 23  1  0  0  0  0
 26 16  1  0  0  0  0
 27 26  1  0  0  0  0
 29 27  1  1  0  0  0
 29 33  1  0  0  0  0
 30 28  1  6  0  0  0
 30 29  1  0  0  0  0
 31 32  1  0  0  0  0
 32 33  1  0  0  0  0
 34 30  1  0  0  0  0
 34 31  1  0  0  0  0
M  END
>  <MODEL>
2

>  <REMARK>
 VINA RESULT:      -8.2      5.389      8.516
  Name = 
  5 active torsions:
  status: ('A' for Active; 'I' for Inactive)
    1  A    between atoms: C_3  and  C_13
    2  A    between atoms: C_3  and  O_17
    3  A    between atoms: O_17  and  C_29
    4  A    between atoms: N_23  and  C_27
    5  A    between atoms: N_23  and  C_28
                            x       y       z     vdW  Elec       q    Type
                         _______ _______ _______ _____ _____    ______ ____

>  <TORSDO>
F 5

$$$$
=
 OpenBabel11052414193D

 34 38  0  0  1  0  0  0  0  0999 V2000
  187.3690  177.8740  146.8910 C   0  0  0  0  0  0  0  0  0  0  0  0
  189.8060  177.7110  146.9200 C   0  0  0  0  0  0  0  0  0  0  0  0
  188.5910  177.4640  144.8240 C   0  0  0  0  0  0  0  0  0  0  0  0
  189.8590  176.8400  142.7640 N   0  0  0  0  0  0  0  0  0  0  0  0
  188.5890  178.1870  148.9620 C   0  0  0  0  0  3  0  0  0  0  0  0
  189.7980  177.9580  148.2950 C   0  0  0  0  0  3  0  0  0  0  0  0
  191.0910  177.1800  144.9070 C   0  0  0  0  0  3  0  0  0  0  0  0
  188.5910  177.7000  146.2080 C   0  0  0  0  0  0  0  0  0  0  0  0
  191.9000  177.7630  142.0820 O   0  0  0  0  0  0  0  0  0  0  0  0
  187.3770  178.1370  148.2650 C   0  0  0  0  0  3  0  0  0  0  0  0
  187.3770  177.2900  144.1450 C   0  0  0  0  0  0  0  0  0  0  0  0
  186.1620  177.7560  146.1970 C   0  0  0  0  0  3  0  0  0  0  0  0
  191.0570  177.3270  146.2370 C   0  0  0  0  0  3  0  0  0  0  0  0
  188.6600  176.1120  142.3370 C   0  0  0  0  0  2  0  0  0  0  0  0
  187.3780  176.8740  142.7050 C   0  0  2  0  0  3  0  0  0  0  0  0
  190.9250  177.0070  141.8150 C   0  0  0  0  0  0  0  0  0  0  0  0
  189.8950  177.5390  144.0590 C   0  0  2  0  0  3  0  0  0  0  0  0
  186.1660  177.4470  144.8310 C   0  0  0  0  0  3  0  0  0  0  0  0
  185.9350  178.8140  141.9200 C   0  0  0  0  0  0  0  0  0  0  0  0
  186.0540  180.0120  142.2870 O   0  0  0  0  0  0  0  0  0  0  0  0
  187.1000  177.9830  141.7890 N   0  0  0  0  0  0  0  0  0  0  0  0
  184.3130  178.1860  141.4950 S   0  0  0  0  0  1  0  0  0  0  0  0
  188.8070  179.5510  140.9670 C   0  0  0  0  0  1  0  0  0  0  0  0
  187.4350  178.2190  139.3680 C   0  0  0  0  0  1  0  0  0  0  0  0
  188.0850  178.2350  140.7400 C   0  0  0  0  0  3  0  0  0  0  0  0
  190.8680  176.3430  140.5880 O   0  0  0  0  0  0  0  0  0  0  0  0
  191.5920  176.7980  139.4530 C   0  0  0  0  0  2  0  0  0  0  0  0
  193.4450  175.4140  137.5140 C   0  0  0  0  0  1  0  0  0  0  0  0
  191.0990  176.0860  138.2020 C   0  0  1  0  0  3  0  0  0  0  0  0
  192.0380  174.9200  137.8050 C   0  0  1  0  0  3  0  0  0  0  0  0
  190.2590  173.7920  136.9400 C   0  0  0  0  0  2  0  0  0  0  0  0
  189.3400  174.9640  137.2880 C   0  0  0  0  0  2  0  0  0  0  0  0
  189.8060  175.5860  138.4600 O   0  0  0  0  0  0  0  0  0  0  0  0
  191.5470  174.2780  136.6500 O   0  0  0  0  0  0  0  0  0  0  0  0
  1 10  2  0  0  0  0
  2  6  1  0  0  0  0
  3  8  1  0  0  0  0
  4 17  1  0  0  0  0
  6  5  2  0  0  0  0
  7 13  2  0  0  0  0
  8  1  1  0  0  0  0
  8  2  2  0  0  0  0
 10  5  1  0  0  0  0
 11  3  2  0  0  0  0
 11 18  1  0  0  0  0
 12  1  1  0  0  0  0
 13  2  1  0  0  0  0
 14 15  1  0  0  0  0
 14  4  1  0  0  0  0
 15 21  1  6  0  0  0
 15 11  1  0  0  0  0
 16  9  2  0  0  0  0
 16  4  1  0  0  0  0
 17  3  1  0  0  0  0
 17  7  1  1  0  0  0
 18 12  2  0  0  0  0
 19 20  2  0  0  0  0
 21 19  1  0  0  0  0
 22 19  1  0  0  0  0
 24 25  1  0  0  0  0
 25 23  1  0  0  0  0
 25 21  1  0  0  0  0
 26 16  1  0  0  0  0
 27 26  1  0  0  0  0
 29 33  1  0  0  0  0
 29 27  1  1  0  0  0
 30 28  1  6  0  0  0
 30 29  1  0  0  0  0
 31 32  1  0  0  0  0
 32 33  1  0  0  0  0
 34 31  1  0  0  0  0
 34 30  1  0  0  0  0
M  END
>  <MODEL>
3

>  <REMARK>
 VINA RESULT:      -8.1      0.847      1.139
  Name = 
  5 active torsions:
  status: ('A' for Active; 'I' for Inactive)
    1  A    between atoms: C_3  and  C_13
    2  A    between atoms: C_3  and  O_17
    3  A    between atoms: O_17  and  C_29
    4  A    between atoms: N_23  and  C_27
    5  A    between atoms: N_23  and  C_28
                            x       y       z     vdW  Elec       q    Type
                         _______ _______ _______ _____ _____    ______ ____

>  <TORSDO>
F 5

$$$$
=
 OpenBabel11052414193D

 34 38  0  0  1  0  0  0  0  0999 V2000
  190.1820  177.5050  145.3870 C   0  0  0  0  0  0  0  0  0  0  0  0
  187.8100  177.3570  145.9460 C   0  0  0  0  0  0  0  0  0  0  0  0
  188.4960  177.9970  143.7000 C   0  0  0  0  0  0  0  0  0  0  0  0
  186.7450  178.6950  142.0590 N   0  0  0  0  0  0  0  0  0  0  0  0
  189.4920  176.8010  147.6010 C   0  0  0  0  0  3  0  0  0  0  0  0
  188.1480  176.9540  147.2410 C   0  0  0  0  0  3  0  0  0  0  0  0
  186.0620  177.9540  144.3420 C   0  0  0  0  0  3  0  0  0  0  0  0
  188.8280  177.6030  145.0050 C   0  0  0  0  0  0  0  0  0  0  0  0
  184.7030  177.6090  141.6950 O   0  0  0  0  0  0  0  0  0  0  0  0
  190.5070  177.0840  146.6800 C   0  0  0  0  0  3  0  0  0  0  0  0
  189.5050  178.4000  142.8140 C   0  0  0  0  0  0  0  0  0  0  0  0
  191.1860  177.8530  144.4800 C   0  0  0  0  0  3  0  0  0  0  0  0
  186.4070  177.6590  145.6010 C   0  0  0  0  0  3  0  0  0  0  0  0
  187.7430  179.6110  141.4990 C   0  0  0  0  0  2  0  0  0  0  0  0
  189.1420  178.9780  141.4800 C   0  0  2  0  0  3  0  0  0  0  0  0
  185.5160  178.5070  141.3400 C   0  0  0  0  0  0  0  0  0  0  0  0
  187.0670  177.8490  143.2210 C   0  0  2  0  0  3  0  0  0  0  0  0
  190.8480  178.3160  143.2020 C   0  0  0  0  0  3  0  0  0  0  0  0
  190.3070  176.9880  140.4080 C   0  0  0  0  0  0  0  0  0  0  0  0
  189.9550  175.7850  140.5210 O   0  0  0  0  0  0  0  0  0  0  0  0
  189.3140  178.0280  140.3780 N   0  0  0  0  0  0  0  0  0  0  0  0
  192.0430  177.3780  140.2130 S   0  0  0  0  0  1  0  0  0  0  0  0
  188.0080  176.8010  138.6940 C   0  0  0  0  0  1  0  0  0  0  0  0
  189.0160  179.0150  138.1490 C   0  0  0  0  0  1  0  0  0  0  0  0
  188.4020  178.1590  139.2440 C   0  0  0  0  0  3  0  0  0  0  0  0
  185.2330  179.3120  140.2350 O   0  0  0  0  0  0  0  0  0  0  0  0
  184.8430  178.7620  138.9840 C   0  0  0  0  0  2  0  0  0  0  0  0
  182.4230  176.9600  139.0700 C   0  0  0  0  0  1  0  0  0  0  0  0
  183.4450  179.2370  138.6190 C   0  0  1  0  0  3  0  0  0  0  0  0
  182.3570  178.4450  139.3870 C   0  0  1  0  0  3  0  0  0  0  0  0
  181.0130  180.2840  139.3630 C   0  0  0  0  0  2  0  0  0  0  0  0
  182.0670  181.0500  138.5610 C   0  0  0  0  0  2  0  0  0  0  0  0
  183.3480  180.6070  138.9380 O   0  0  0  0  0  0  0  0  0  0  0  0
  181.0770  178.9170  139.0320 O   0  0  0  0  0  0  0  0  0  0  0  0
  1 10  2  0  0  0  0
  2  6  1  0  0  0  0
  3  8  1  0  0  0  0
  4 17  1  0  0  0  0
  6  5  2  0  0  0  0
  7 13  2  0  0  0  0
  8  1  1  0  0  0  0
  8  2  2  0  0  0  0
 10  5  1  0  0  0  0
 11 18  1  0  0  0  0
 11  3  2  0  0  0  0
 12  1  1  0  0  0  0
 13  2  1  0  0  0  0
 14  4  1  0  0  0  0
 15 21  1  6  0  0  0
 15 14  1  0  0  0  0
 15 11  1  0  0  0  0
 16  9  2  0  0  0  0
 16  4  1  0  0  0  0
 17  3  1  0  0  0  0
 17  7  1  1  0  0  0
 18 12  2  0  0  0  0
 19 20  2  0  0  0  0
 21 19  1  0  0  0  0
 22 19  1  0  0  0  0
 23 25  1  0  0  0  0
 24 25  1  0  0  0  0
 25 21  1  0  0  0  0
 26 16  1  0  0  0  0
 27 26  1  0  0  0  0
 29 33  1  0  0  0  0
 29 27  1  1  0  0  0
 29 30  1  0  0  0  0
 30 28  1  6  0  0  0
 32 33  1  0  0  0  0
 32 31  1  0  0  0  0
 34 31  1  0  0  0  0
 34 30  1  0  0  0  0
M  END
>  <MODEL>
4

>  <REMARK>
 VINA RESULT:      -7.8      2.975      5.833
  Name = 
  5 active torsions:
  status: ('A' for Active; 'I' for Inactive)
    1  A    between atoms: C_3  and  C_13
    2  A    between atoms: C_3  and  O_17
    3  A    between atoms: O_17  and  C_29
    4  A    between atoms: N_23  and  C_27
    5  A    between atoms: N_23  and  C_28
                            x       y       z     vdW  Elec       q    Type
                         _______ _______ _______ _____ _____    ______ ____

>  <TORSDO>
F 5

$$$$
=
 OpenBabel11052414193D

 34 38  0  0  1  0  0  0  0  0999 V2000
  182.7220  178.8130  143.7990 C   0  0  0  0  0  0  0  0  0  0  0  0
  185.0880  178.7270  143.2010 C   0  0  0  0  0  0  0  0  0  0  0  0
  183.3850  178.4910  141.4770 C   0  0  0  0  0  0  0  0  0  0  0  0
  184.1000  177.9560  139.1440 N   0  0  0  0  0  0  0  0  0  0  0  0
  184.4220  179.1160  145.5000 C   0  0  0  0  0  3  0  0  0  0  0  0
  185.4260  178.9400  144.5400 C   0  0  0  0  0  3  0  0  0  0  0  0
  185.8290  178.2850  140.9120 C   0  0  0  0  0  3  0  0  0  0  0  0
  183.7330  178.6940  142.8220 C   0  0  0  0  0  0  0  0  0  0  0  0
  185.8760  178.9590  137.9940 O   0  0  0  0  0  0  0  0  0  0  0  0
  183.0730  179.0430  145.1320 C   0  0  0  0  0  3  0  0  0  0  0  0
  182.0420  178.2950  141.1250 C   0  0  0  0  0  0  0  0  0  0  0  0
  181.3810  178.6730  143.4310 C   0  0  0  0  0  3  0  0  0  0  0  0
  186.1320  178.3980  142.2110 C   0  0  0  0  0  3  0  0  0  0  0  0
  182.8500  177.2010  139.0140 C   0  0  0  0  0  2  0  0  0  0  0  0
  181.6860  177.9130  139.7200 C   0  0  2  0  0  3  0  0  0  0  0  0
  184.8840  178.1790  137.9610 C   0  0  0  0  0  0  0  0  0  0  0  0
  184.4490  178.6250  140.4080 C   0  0  2  0  0  3  0  0  0  0  0  0
  181.0430  178.3970  142.1010 C   0  0  0  0  0  3  0  0  0  0  0  0
  180.3960  178.8400  137.7350 C   0  0  0  0  0  0  0  0  0  0  0  0
  179.1640  179.1020  137.7180 O   0  0  0  0  0  0  0  0  0  0  0  0
  181.1560  179.0340  138.9390 N   0  0  0  0  0  0  0  0  0  0  0  0
  181.1950  178.2970  136.2280 S   0  0  0  0  0  1  0  0  0  0  0  0
  180.1150  181.0550  139.8770 C   0  0  0  0  0  1  0  0  0  0  0  0
  182.1430  181.2260  138.4370 C   0  0  0  0  0  1  0  0  0  0  0  0
  181.4070  180.3760  139.4580 C   0  0  0  0  0  3  0  0  0  0  0  0
  184.5320  177.5430  136.7690 O   0  0  0  0  0  0  0  0  0  0  0  0
  185.4970  176.8990  135.9470 C   0  0  0  0  0  2  0  0  0  0  0  0
  187.8430  175.2050  136.8070 C   0  0  0  0  0  1  0  0  0  0  0  0
  185.4080  175.3910  136.1230 C   0  0  1  0  0  3  0  0  0  0  0  0
  186.4080  174.8830  137.1910 C   0  0  1  0  0  3  0  0  0  0  0  0
  184.9700  173.2000  137.7260 C   0  0  0  0  0  2  0  0  0  0  0  0
  184.0050  173.6720  136.6380 C   0  0  0  0  0  2  0  0  0  0  0  0
  184.0920  175.0710  136.5150 O   0  0  0  0  0  0  0  0  0  0  0  0
  186.2910  173.4860  137.3350 O   0  0  0  0  0  0  0  0  0  0  0  0
  1 10  2  0  0  0  0
  2  6  1  0  0  0  0
  3  8  1  0  0  0  0
  4 17  1  0  0  0  0
  6  5  2  0  0  0  0
  7 13  2  0  0  0  0
  8  2  2  0  0  0  0
  8  1  1  0  0  0  0
 10  5  1  0  0  0  0
 11  3  2  0  0  0  0
 11 18  1  0  0  0  0
 12  1  1  0  0  0  0
 13  2  1  0  0  0  0
 14  4  1  0  0  0  0
 14 15  1  0  0  0  0
 15 21  1  6  0  0  0
 15 11  1  0  0  0  0
 16  9  2  0  0  0  0
 16  4  1  0  0  0  0
 17  7  1  1  0  0  0
 17  3  1  0  0  0  0
 18 12  2  0  0  0  0
 19 21  1  0  0  0  0
 20 19  2  0  0  0  0
 21 25  1  0  0  0  0
 22 19  1  0  0  0  0
 24 25  1  0  0  0  0
 25 23  1  0  0  0  0
 26 16  1  0  0  0  0
 27 26  1  0  0  0  0
 29 27  1  1  0  0  0
 29 33  1  0  0  0  0
 29 30  1  0  0  0  0
 30 28  1  6  0  0  0
 30 34  1  0  0  0  0
 32 31  1  0  0  0  0
 33 32  1  0  0  0  0
 34 31  1  0  0  0  0
M  END
>  <MODEL>
5

>  <REMARK>
 VINA RESULT:      -7.5      4.627      6.399
  Name = 
  5 active torsions:
  status: ('A' for Active; 'I' for Inactive)
    1  A    between atoms: C_3  and  C_13
    2  A    between atoms: C_3  and  O_17
    3  A    between atoms: O_17  and  C_29
    4  A    between atoms: N_23  and  C_27
    5  A    between atoms: N_23  and  C_28
                            x       y       z     vdW  Elec       q    Type
                         _______ _______ _______ _____ _____    ______ ____

>  <TORSDO>
F 5

$$$$
=
 OpenBabel11052414193D

 34 38  0  0  1  0  0  0  0  0999 V2000
  187.1880  177.8860  142.6940 C   0  0  0  0  0  0  0  0  0  0  0  0
  185.0790  178.2530  143.8690 C   0  0  0  0  0  0  0  0  0  0  0  0
  185.1740  178.4460  141.4430 C   0  0  0  0  0  0  0  0  0  0  0  0
  183.1410  179.2230  140.2170 N   0  0  0  0  0  0  0  0  0  0  0  0
  187.0710  177.6280  145.1010 C   0  0  0  0  0  3  0  0  0  0  0  0
  185.7150  177.9740  145.0810 C   0  0  0  0  0  3  0  0  0  0  0  0
  183.0450  178.9380  142.6940 C   0  0  0  0  0  3  0  0  0  0  0  0
  185.8080  178.1780  142.6670 C   0  0  0  0  0  0  0  0  0  0  0  0
  180.9500  178.4920  140.6000 O   0  0  0  0  0  0  0  0  0  0  0  0
  187.8090  177.5920  143.9120 C   0  0  0  0  0  3  0  0  0  0  0  0
  185.9320  178.5320  140.2670 C   0  0  0  0  0  0  0  0  0  0  0  0
  187.9280  177.9170  141.5090 C   0  0  0  0  0  3  0  0  0  0  0  0
  183.6920  178.7580  143.8520 C   0  0  0  0  0  3  0  0  0  0  0  0
  184.0530  179.8570  139.2600 C   0  0  0  0  0  2  0  0  0  0  0  0
  185.2860  178.9810  138.9920 C   0  0  2  0  0  3  0  0  0  0  0  0
  181.7430  179.1690  139.8890 C   0  0  0  0  0  0  0  0  0  0  0  0
  183.6620  178.4990  141.3880 C   0  0  2  0  0  3  0  0  0  0  0  0
  187.3050  178.2570  140.3010 C   0  0  0  0  0  3  0  0  0  0  0  0
  186.0320  177.2200  137.3160 C   0  0  0  0  0  0  0  0  0  0  0  0
  186.3650  176.0380  137.5940 O   0  0  0  0  0  0  0  0  0  0  0  0
  185.0010  177.8740  138.0750 N   0  0  0  0  0  0  0  0  0  0  0  0
  186.8050  178.0440  135.9270 S   0  0  0  0  0  1  0  0  0  0  0  0
  183.4290  176.0560  138.5960 C   0  0  0  0  0  1  0  0  0  0  0  0
  183.1320  177.4380  136.5430 C   0  0  0  0  0  1  0  0  0  0  0  0
  183.6110  177.4330  137.9840 C   0  0  0  0  0  3  0  0  0  0  0  0
  181.2690  179.8550  138.7690 O   0  0  0  0  0  0  0  0  0  0  0  0
  179.9770  180.4460  138.7400 C   0  0  0  0  0  2  0  0  0  0  0  0
  178.9310  183.2770  138.7520 C   0  0  0  0  0  1  0  0  0  0  0  0
  179.8100  181.2720  137.4730 C   0  0  1  0  0  3  0  0  0  0  0  0
  179.9690  182.7860  137.7570 C   0  0  1  0  0  3  0  0  0  0  0  0
  180.8070  183.0830  135.6600 C   0  0  0  0  0  2  0  0  0  0  0  0
  180.6030  181.5970  135.3630 C   0  0  0  0  0  2  0  0  0  0  0  0
  180.7880  180.8580  136.5460 O   0  0  0  0  0  0  0  0  0  0  0  0
  179.8190  183.5190  136.5630 O   0  0  0  0  0  0  0  0  0  0  0  0
  1 10  2  0  0  0  0
  2  6  1  0  0  0  0
  3  8  1  0  0  0  0
  4 17  1  0  0  0  0
  6  5  2  0  0  0  0
  7 13  2  0  0  0  0
  8  1  1  0  0  0  0
  8  2  2  0  0  0  0
 10  5  1  0  0  0  0
 11 18  1  0  0  0  0
 11  3  2  0  0  0  0
 12  1  1  0  0  0  0
 13  2  1  0  0  0  0
 14  4  1  0  0  0  0
 15 21  1  1  0  0  0
 15 14  1  0  0  0  0
 15 11  1  0  0  0  0
 16  4  1  0  0  0  0
 16  9  2  0  0  0  0
 17  3  1  0  0  0  0
 17  7  1  1  0  0  0
 18 12  2  0  0  0  0
 19 20  2  0  0  0  0
 19 21  1  0  0  0  0
 22 19  1  0  0  0  0
 24 25  1  0  0  0  0
 25 21  1  0  0  0  0
 25 23  1  0  0  0  0
 26 16  1  0  0  0  0
 27 26  1  0  0  0  0
 29 30  1  0  0  0  0
 29 27  1  1  0  0  0
 30 28  1  1  0  0  0
 31 34  1  0  0  0  0
 32 31  1  0  0  0  0
 32 33  1  0  0  0  0
 33 29  1  0  0  0  0
 34 30  1  0  0  0  0
M  END
>  <MODEL>
6

>  <REMARK>
 VINA RESULT:      -7.5      5.024      8.178
  Name = 
  5 active torsions:
  status: ('A' for Active; 'I' for Inactive)
    1  A    between atoms: C_3  and  C_13
    2  A    between atoms: C_3  and  O_17
    3  A    between atoms: O_17  and  C_29
    4  A    between atoms: N_23  and  C_27
    5  A    between atoms: N_23  and  C_28
                            x       y       z     vdW  Elec       q    Type
                         _______ _______ _______ _____ _____    ______ ____

>  <TORSDO>
F 5

$$$$
=
 OpenBabel11052414193D

 34 38  0  0  1  0  0  0  0  0999 V2000
  190.0940  177.5320  145.5300 C   0  0  0  0  0  0  0  0  0  0  0  0
  187.6990  177.4280  145.9910 C   0  0  0  0  0  0  0  0  0  0  0  0
  188.4880  178.0380  143.7700 C   0  0  0  0  0  0  0  0  0  0  0  0
  186.8180  178.7500  142.0530 N   0  0  0  0  0  0  0  0  0  0  0  0
  189.3020  176.8590  147.7190 C   0  0  0  0  0  3  0  0  0  0  0  0
  187.9760  177.0310  147.3020 C   0  0  0  0  0  3  0  0  0  0  0  0
  186.0290  178.0410  144.3110 C   0  0  0  0  0  3  0  0  0  0  0  0
  188.7590  177.6490  145.0910 C   0  0  0  0  0  0  0  0  0  0  0  0
  184.7750  177.6960  141.6130 O   0  0  0  0  0  0  0  0  0  0  0  0
  190.3590  177.1180  146.8380 C   0  0  0  0  0  3  0  0  0  0  0  0
  189.5390  178.4170  142.9240 C   0  0  0  0  0  0  0  0  0  0  0  0
  191.1410  177.8560  144.6620 C   0  0  0  0  0  3  0  0  0  0  0  0
  186.3160  177.7510  145.5860 C   0  0  0  0  0  3  0  0  0  0  0  0
  187.8540  179.6460  141.5270 C   0  0  0  0  0  2  0  0  0  0  0  0
  189.2410  178.9890  141.5710 C   0  0  2  0  0  3  0  0  0  0  0  0
  185.6170  178.5770  141.2850 C   0  0  0  0  0  0  0  0  0  0  0  0
  187.0780  177.9100  143.2340 C   0  0  2  0  0  3  0  0  0  0  0  0
  190.8640  178.3140  143.3680 C   0  0  0  0  0  3  0  0  0  0  0  0
  190.4790  177.0310  140.5230 C   0  0  0  0  0  0  0  0  0  0  0  0
  190.1800  175.8160  140.6610 O   0  0  0  0  0  0  0  0  0  0  0  0
  189.4430  178.0270  140.4850 N   0  0  0  0  0  0  0  0  0  0  0  0
  192.1950  177.4910  140.3020 S   0  0  0  0  0  1  0  0  0  0  0  0
  188.2150  176.7180  138.8030 C   0  0  0  0  0  1  0  0  0  0  0  0
  189.0560  179.0030  138.2640 C   0  0  0  0  0  1  0  0  0  0  0  0
  188.5150  178.0990  139.3590 C   0  0  0  0  0  3  0  0  0  0  0  0
  185.3930  179.3780  140.1620 O   0  0  0  0  0  0  0  0  0  0  0  0
  184.1530  179.3690  139.4680 C   0  0  0  0  0  2  0  0  0  0  0  0
  181.5510  178.1290  138.5720 C   0  0  0  0  0  1  0  0  0  0  0  0
  184.0860  178.1680  138.5370 C   0  0  1  0  0  3  0  0  0  0  0  0
  182.7880  178.1760  137.6920 C   0  0  1  0  0  3  0  0  0  0  0  0
  183.8940  177.1280  135.9990 C   0  0  0  0  0  2  0  0  0  0  0  0
  185.1620  177.0760  136.8520 C   0  0  0  0  0  2  0  0  0  0  0  0
  185.2080  178.2090  137.6840 O   0  0  0  0  0  0  0  0  0  0  0  0
  182.7640  177.0570  136.8350 O   0  0  0  0  0  0  0  0  0  0  0  0
  1 10  2  0  0  0  0
  2  6  1  0  0  0  0
  3  8  1  0  0  0  0
  4 17  1  0  0  0  0
  6  5  2  0  0  0  0
  7 13  2  0  0  0  0
  8  1  1  0  0  0  0
  8  2  2  0  0  0  0
 10  5  1  0  0  0  0
 11 18  1  0  0  0  0
 11  3  2  0  0  0  0
 12  1  1  0  0  0  0
 13  2  1  0  0  0  0
 14 15  1  0  0  0  0
 14  4  1  0  0  0  0
 15 21  1  6  0  0  0
 15 11  1  0  0  0  0
 16  9  2  0  0  0  0
 16  4  1  0  0  0  0
 17  3  1  0  0  0  0
 17  7  1  1  0  0  0
 18 12  2  0  0  0  0
 19 20  2  0  0  0  0
 21 19  1  0  0  0  0
 22 19  1  0  0  0  0
 23 25  1  0  0  0  0
 24 25  1  0  0  0  0
 25 21  1  0  0  0  0
 26 16  1  0  0  0  0
 27 26  1  0  0  0  0
 29 27  1  1  0  0  0
 30 29  1  0  0  0  0
 30 28  1  1  0  0  0
 31 34  1  0  0  0  0
 31 32  1  0  0  0  0
 32 33  1  0  0  0  0
 33 29  1  0  0  0  0
 34 30  1  0  0  0  0
M  END
>  <MODEL>
7

>  <REMARK>
 VINA RESULT:      -7.4      3.010      5.112
  Name = 
  5 active torsions:
  status: ('A' for Active; 'I' for Inactive)
    1  A    between atoms: C_3  and  C_13
    2  A    between atoms: C_3  and  O_17
    3  A    between atoms: O_17  and  C_29
    4  A    between atoms: N_23  and  C_27
    5  A    between atoms: N_23  and  C_28
                            x       y       z     vdW  Elec       q    Type
                         _______ _______ _______ _____ _____    ______ ____

>  <TORSDO>
F 5

$$$$
=
 OpenBabel11052414193D

 34 38  0  0  1  0  0  0  0  0999 V2000
  186.9190  177.9970  145.7990 C   0  0  0  0  0  0  0  0  0  0  0  0
  185.1380  178.3720  144.1700 C   0  0  0  0  0  0  0  0  0  0  0  0
  187.4560  178.2440  143.4360 C   0  0  0  0  0  0  0  0  0  0  0  0
  187.9870  178.7090  141.0390 N   0  0  0  0  0  0  0  0  0  0  0  0
  184.6040  178.0560  146.5140 C   0  0  0  0  0  3  0  0  0  0  0  0
  184.1940  178.3020  145.1980 C   0  0  0  0  0  3  0  0  0  0  0  0
  185.6120  178.7510  141.8000 C   0  0  0  0  0  3  0  0  0  0  0  0
  186.5030  178.1870  144.4650 C   0  0  0  0  0  0  0  0  0  0  0  0
  186.8060  177.8860  139.1930 O   0  0  0  0  0  0  0  0  0  0  0  0
  185.9630  177.9120  146.8160 C   0  0  0  0  0  3  0  0  0  0  0  0
  188.8230  178.2250  143.7490 C   0  0  0  0  0  0  0  0  0  0  0  0
  188.2820  177.9210  146.0970 C   0  0  0  0  0  3  0  0  0  0  0  0
  184.7320  178.7730  142.8090 C   0  0  0  0  0  3  0  0  0  0  0  0
  189.2580  179.2700  141.5080 C   0  0  0  0  0  2  0  0  0  0  0  0
  189.8400  178.4530  142.6710 C   0  0  2  0  0  3  0  0  0  0  0  0
  187.8110  178.5150  139.6270 C   0  0  0  0  0  0  0  0  0  0  0  0
  186.9970  178.1850  141.9950 C   0  0  2  0  0  3  0  0  0  0  0  0
  189.2320  178.0520  145.0770 C   0  0  0  0  0  3  0  0  0  0  0  0
  190.5720  176.0490  143.0570 C   0  0  0  0  0  0  0  0  0  0  0  0
  189.8990  175.0230  142.7750 O   0  0  0  0  0  0  0  0  0  0  0  0
  190.4860  177.2170  142.2230 N   0  0  0  0  0  0  0  0  0  0  0  0
  191.6860  176.0070  144.4570 S   0  0  0  0  0  1  0  0  0  0  0  0
  190.4210  176.0770  140.0450 C   0  0  0  0  0  1  0  0  0  0  0  0
  192.5350  177.1060  140.8730 C   0  0  0  0  0  1  0  0  0  0  0  0
  191.0190  177.2070  140.8630 C   0  0  0  0  0  3  0  0  0  0  0  0
  188.7660  179.0100  138.7370 O   0  0  0  0  0  0  0  0  0  0  0  0
  188.6090  178.9010  137.3290 C   0  0  0  0  0  2  0  0  0  0  0  0
  186.6840  177.3230  135.6200 C   0  0  0  0  0  1  0  0  0  0  0  0
  188.8770  177.4710  136.8850 C   0  0  1  0  0  3  0  0  0  0  0  0
  188.1920  177.1570  135.5310 C   0  0  1  0  0  3  0  0  0  0  0  0
  189.8660  175.6960  135.0310 C   0  0  0  0  0  2  0  0  0  0  0  0
  190.5160  175.9690  136.3880 C   0  0  0  0  0  2  0  0  0  0  0  0
  190.2720  177.3030  136.7600 O   0  0  0  0  0  0  0  0  0  0  0  0
  188.4700  175.8300  135.1460 O   0  0  0  0  0  0  0  0  0  0  0  0
  1 12  1  0  0  0  0
  1 10  2  0  0  0  0
  2  8  2  0  0  0  0
  2  6  1  0  0  0  0
  3 11  2  0  0  0  0
  3  8  1  0  0  0  0
  4 14  1  0  0  0  0
  4 17  1  0  0  0  0
  5 10  1  0  0  0  0
  6  5  2  0  0  0  0
  7 13  2  0  0  0  0
  8  1  1  0  0  0  0
  9 16  2  0  0  0  0
 11 18  1  0  0  0  0
 13  2  1  0  0  0  0
 14 15  1  0  0  0  0
 15 21  1  6  0  0  0
 15 11  1  0  0  0  0
 16  4  1  0  0  0  0
 17  7  1  1  0  0  0
 17  3  1  0  0  0  0
 18 12  2  0  0  0  0
 19 22  1  0  0  0  0
 20 19  2  0  0  0  0
 21 19  1  0  0  0  0
 23 25  1  0  0  0  0
 25 24  1  0  0  0  0
 25 21  1  0  0  0  0
 26 16  1  0  0  0  0
 27 26  1  0  0  0  0
 29 27  1  6  0  0  0
 30 28  1  1  0  0  0
 30 29  1  0  0  0  0
 31 34  1  0  0  0  0
 31 32  1  0  0  0  0
 32 33  1  0  0  0  0
 33 29  1  0  0  0  0
 34 30  1  0  0  0  0
M  END
>  <MODEL>
8

>  <REMARK>
 VINA RESULT:      -7.3      2.314      4.231
  Name = 
  5 active torsions:
  status: ('A' for Active; 'I' for Inactive)
    1  A    between atoms: C_3  and  C_13
    2  A    between atoms: C_3  and  O_17
    3  A    between atoms: O_17  and  C_29
    4  A    between atoms: N_23  and  C_27
    5  A    between atoms: N_23  and  C_28
                            x       y       z     vdW  Elec       q    Type
                         _______ _______ _______ _____ _____    ______ ____

>  <TORSDO>
F 5

$$$$
=
 OpenBabel11052414193D

 34 38  0  0  1  0  0  0  0  0999 V2000
  182.6940  178.7810  143.3510 C   0  0  0  0  0  0  0  0  0  0  0  0
  185.1150  178.7200  143.0360 C   0  0  0  0  0  0  0  0  0  0  0  0
  183.6290  178.4840  141.1220 C   0  0  0  0  0  0  0  0  0  0  0  0
  184.6200  177.9750  138.8850 N   0  0  0  0  0  0  0  0  0  0  0  0
  184.1790  179.0840  145.2430 C   0  0  0  0  0  3  0  0  0  0  0  0
  185.2910  178.9250  144.4070 C   0  0  0  0  0  3  0  0  0  0  0  0
  186.1250  178.3030  140.8470 C   0  0  0  0  0  3  0  0  0  0  0  0
  183.8140  178.6790  142.4990 C   0  0  0  0  0  0  0  0  0  0  0  0
  186.5090  179.0030  137.9600 O   0  0  0  0  0  0  0  0  0  0  0  0
  182.8840  179.0030  144.7190 C   0  0  0  0  0  3  0  0  0  0  0  0
  182.3400  178.2790  140.6120 C   0  0  0  0  0  0  0  0  0  0  0  0
  181.4070  178.6320  142.8270 C   0  0  0  0  0  3  0  0  0  0  0  0
  186.2720  178.4090  142.1740 C   0  0  0  0  0  3  0  0  0  0  0  0
  183.4010  177.2100  138.6030 C   0  0  0  0  0  2  0  0  0  0  0  0
  182.1550  177.9060  139.1720 C   0  0  2  0  0  3  0  0  0  0  0  0
  185.5350  178.2150  137.8040 C   0  0  0  0  0  0  0  0  0  0  0  0
  184.8100  178.6370  140.1870 C   0  0  2  0  0  3  0  0  0  0  0  0
  181.2310  178.3650  141.4640 C   0  0  0  0  0  3  0  0  0  0  0  0
  181.5160  180.3490  138.8760 C   0  0  0  0  0  0  0  0  0  0  0  0
  182.3020  181.2800  138.5580 O   0  0  0  0  0  0  0  0  0  0  0  0
  181.7100  179.0290  138.3430 N   0  0  0  0  0  0  0  0  0  0  0  0
  180.1200  180.7080  139.9380 S   0  0  0  0  0  1  0  0  0  0  0  0
  180.8060  179.9200  136.2360 C   0  0  0  0  0  1  0  0  0  0  0  0
  180.7050  177.4780  136.7250 C   0  0  0  0  0  1  0  0  0  0  0  0
  181.4990  178.7570  136.9230 C   0  0  0  0  0  3  0  0  0  0  0  0
  185.3320  177.5850  136.5740 O   0  0  0  0  0  0  0  0  0  0  0  0
  186.4130  177.0780  135.8030 C   0  0  0  0  0  2  0  0  0  0  0  0
  185.8280  174.1180  135.8950 C   0  0  0  0  0  1  0  0  0  0  0  0
  187.2300  176.0990  136.6310 C   0  0  1  0  0  3  0  0  0  0  0  0
  187.2340  174.6840  135.9990 C   0  0  1  0  0  3  0  0  0  0  0  0
  189.3170  174.3210  136.8470 C   0  0  0  0  0  2  0  0  0  0  0  0
  189.2920  175.6980  137.5120 C   0  0  0  0  0  2  0  0  0  0  0  0
  188.5510  176.5860  136.7120 O   0  0  0  0  0  0  0  0  0  0  0  0
  188.0080  173.8070  136.7860 O   0  0  0  0  0  0  0  0  0  0  0  0
  1 10  2  0  0  0  0
  2  6  1  0  0  0  0
  3  8  1  0  0  0  0
  4 17  1  0  0  0  0
  6  5  2  0  0  0  0
  7 13  2  0  0  0  0
  8  2  2  0  0  0  0
  8  1  1  0  0  0  0
 10  5  1  0  0  0  0
 11  3  2  0  0  0  0
 11 18  1  0  0  0  0
 12  1  1  0  0  0  0
 13  2  1  0  0  0  0
 14  4  1  0  0  0  0
 14 15  1  0  0  0  0
 15 21  1  6  0  0  0
 15 11  1  0  0  0  0
 16  9  2  0  0  0  0
 16  4  1  0  0  0  0
 17  7  1  1  0  0  0
 17  3  1  0  0  0  0
 18 12  2  0  0  0  0
 19 22  1  0  0  0  0
 20 19  2  0  0  0  0
 21 19  1  0  0  0  0
 23 25  1  0  0  0  0
 24 25  1  0  0  0  0
 25 21  1  0  0  0  0
 26 16  1  0  0  0  0
 27 26  1  0  0  0  0
 29 27  1  6  0  0  0
 29 33  1  0  0  0  0
 30 28  1  1  0  0  0
 30 29  1  0  0  0  0
 30 34  1  0  0  0  0
 31 32  1  0  0  0  0
 33 32  1  0  0  0  0
 34 31  1  0  0  0  0
M  END
>  <MODEL>
9

>  <REMARK>
 VINA RESULT:      -6.8      4.058      5.969
  Name = 
  5 active torsions:
  status: ('A' for Active; 'I' for Inactive)
    1  A    between atoms: C_3  and  C_13
    2  A    between atoms: C_3  and  O_17
    3  A    between atoms: O_17  and  C_29
    4  A    between atoms: N_23  and  C_27
    5  A    between atoms: N_23  and  C_28
                            x       y       z     vdW  Elec       q    Type
                         _______ _______ _______ _____ _____    ______ ____

>  <TORSDO>
F 5

$$$$
