=
 OpenBabel11052416563D

 32 36  0  0  1  0  0  0  0  0999 V2000
  183.8840  178.7340  145.4530 C   0  0  0  0  0  2  0  0  0  0  0  0
  187.1570  178.1530  141.5310 C   0  0  0  0  0  0  0  0  0  0  0  0
  191.6160  178.6040  142.8910 N   0  0  0  0  0  2  0  0  0  0  0  0
  192.0970  177.4330  142.1680 C   0  0  0  0  0  2  0  0  0  0  0  0
  185.2330  178.6700  142.9160 C   0  0  0  0  0  0  0  0  0  0  0  0
  187.3440  178.0550  143.9420 C   0  0  0  0  0  3  0  0  0  0  0  0
  185.4100  178.6040  145.4620 C   0  0  2  0  0  3  0  0  0  0  0  0
  190.3000  178.3230  143.4760 C   0  0  0  0  0  2  0  0  0  0  0  0
  187.9360  177.9410  142.6770 C   0  0  0  0  0  0  0  0  0  0  0  0
  189.3720  177.5070  142.5480 C   0  0  1  0  0  3  0  0  0  0  0  0
  188.9700  177.6830  140.0370 C   0  0  0  0  0  0  0  0  0  0  0  0
  183.4350  179.6660  144.3380 C   0  0  0  0  0  2  0  0  0  0  0  0
  185.9910  178.3970  144.0780 C   0  0  0  0  0  0  0  0  0  0  0  0
  183.7810  179.0380  142.9940 C   0  0  0  0  0  2  0  0  0  0  0  0
  191.2790  177.2720  140.8930 C   0  0  0  0  0  2  0  0  0  0  0  0
  189.8590  177.5110  141.1560 N   0  0  0  0  0  0  0  0  0  0  0  0
  185.8150  178.5200  141.6550 C   0  0  0  0  0  3  0  0  0  0  0  0
  187.7210  177.9880  140.2290 N   0  0  0  0  0  0  0  0  0  0  0  0
  185.8100  177.4770  146.4050 C   0  0  0  0  0  2  0  0  0  0  0  0
  187.9960  177.6560  147.6440 C   0  0  0  0  0  0  0  0  0  0  0  0
  186.6200  177.9990  147.4940 N   0  0  0  0  0  2  0  0  0  0  0  0
  188.5560  176.8810  146.8230 O   0  0  0  0  0  0  0  0  0  0  0  0
  188.7430  178.1940  148.7280 N   0  0  0  0  0  1  0  0  0  0  0  0
  189.4660  177.5390  138.7360 O   0  0  0  0  0  0  0  0  0  0  0  0
  190.5700  175.6620  137.6610 C   0  0  2  0  0  3  0  0  0  0  0  0
  191.1190  175.9910  136.2710 C   0  0  0  0  0  2  0  0  0  0  0  0
  188.4650  176.7690  136.6770 C   0  0  1  0  0  3  0  0  0  0  0  0
  188.6600  175.7380  135.5720 C   0  0  0  0  0  2  0  0  0  0  0  0
  190.1310  175.6400  135.1490 C   0  0  0  0  0  2  0  0  0  0  0  0
  190.4060  174.2820  137.7970 O   0  0  0  0  0  1  0  0  0  0  0  0
  186.9900  176.9020  136.9950 C   0  0  0  0  0  1  0  0  0  0  0  0
  189.2360  176.3770  137.9460 C   0  0  2  0  0  3  0  0  0  0  0  0
  1  7  1  0  0  0  0
  2 17  2  0  0  0  0
  2  9  1  0  0  0  0
  3  8  1  0  0  0  0
  4  3  1  0  0  0  0
  5 14  1  0  0  0  0
  5 13  2  0  0  0  0
  6 13  1  0  0  0  0
  7 19  1  1  0  0  0
  9  6  2  0  0  0  0
 10  9  1  0  0  0  0
 10  8  1  1  0  0  0
 11 18  2  0  0  0  0
 11 16  1  0  0  0  0
 12  1  1  0  0  0  0
 13  7  1  0  0  0  0
 14 12  1  0  0  0  0
 15 16  1  0  0  0  0
 15  4  1  0  0  0  0
 16 10  1  0  0  0  0
 17  5  1  0  0  0  0
 18  2  1  0  0  0  0
 19 21  1  0  0  0  0
 20 23  1  0  0  0  0
 21 20  1  0  0  0  0
 22 20  2  0  0  0  0
 24 11  1  0  0  0  0
 25 30  1  6  0  0  0
 25 32  1  0  0  0  0
 26 25  1  0  0  0  0
 27 31  1  1  0  0  0
 27 32  1  0  0  0  0
 28 27  1  0  0  0  0
 29 28  1  0  0  0  0
 29 26  1  0  0  0  0
 32 24  1  6  0  0  0
M  END
>  <MODEL>
1

>  <REMARK>
 VINA RESULT:      -8.9      0.000      0.000
  Name = 
  4 active torsions:
  status: ('A' for Active; 'I' for Inactive)
    1  A    between atoms: N_10  and  C_24
    2  A    between atoms: C_12  and  C_24
    3  A    between atoms: C_16  and  O_27
    4  A    between atoms: O_27  and  C_32
                            x       y       z     vdW  Elec       q    Type
                         _______ _______ _______ _____ _____    ______ ____

>  <TORSDO>
F 4

$$$$
=
 OpenBabel11052416563D

 32 36  0  0  1  0  0  0  0  0999 V2000
  187.1590  177.8430  147.2550 C   0  0  0  0  0  2  0  0  0  0  0  0
  187.7560  177.8580  142.1480 C   0  0  0  0  0  0  0  0  0  0  0  0
  192.2740  177.9450  140.9140 N   0  0  0  0  0  2  0  0  0  0  0  0
  192.1570  176.9030  139.9000 C   0  0  0  0  0  2  0  0  0  0  0  0
  186.9380  178.1800  144.4090 C   0  0  0  0  0  0  0  0  0  0  0  0
  189.1830  177.3400  144.0340 C   0  0  0  0  0  3  0  0  0  0  0  0
  188.4300  177.6710  146.4170 C   0  0  2  0  0  3  0  0  0  0  0  0
  191.4470  177.6030  142.0770 C   0  0  0  0  0  2  0  0  0  0  0  0
  188.9940  177.4300  142.6480 C   0  0  0  0  0  0  0  0  0  0  0  0
  190.0810  176.9860  141.7050 C   0  0  1  0  0  3  0  0  0  0  0  0
  188.4300  177.6030  139.8630 C   0  0  0  0  0  0  0  0  0  0  0  0
  186.2990  178.9650  146.6950 C   0  0  0  0  0  2  0  0  0  0  0  0
  188.1590  177.6910  144.9260 C   0  0  0  0  0  0  0  0  0  0  0  0
  185.8030  178.5690  145.3100 C   0  0  0  0  0  2  0  0  0  0  0  0
  190.7750  176.9870  139.2660 C   0  0  0  0  0  2  0  0  0  0  0  0
  189.7500  177.2170  140.2860 N   0  0  0  0  0  0  0  0  0  0  0  0
  186.7390  178.2340  143.0270 C   0  0  0  0  0  3  0  0  0  0  0  0
  187.5200  177.9050  140.7400 N   0  0  0  0  0  0  0  0  0  0  0  0
  189.1350  176.3870  146.8350 C   0  0  0  0  0  2  0  0  0  0  0  0
  191.5830  176.4250  147.4280 C   0  0  0  0  0  0  0  0  0  0  0  0
  190.2200  176.6900  147.7550 N   0  0  0  0  0  2  0  0  0  0  0  0
  191.8890  175.9170  146.3160 O   0  0  0  0  0  0  0  0  0  0  0  0
  192.6060  176.7390  148.3650 N   0  0  0  0  0  1  0  0  0  0  0  0
  188.1380  177.6720  138.4960 O   0  0  0  0  0  0  0  0  0  0  0  0
  187.7860  175.8720  136.9040 C   0  0  2  0  0  3  0  0  0  0  0  0
  187.7140  176.3470  135.4510 C   0  0  0  0  0  2  0  0  0  0  0  0
  186.0930  177.7840  137.2170 C   0  0  1  0  0  3  0  0  0  0  0  0
  185.3350  177.0500  136.1170 C   0  0  0  0  0  2  0  0  0  0  0  0
  186.2740  176.6080  134.9880 C   0  0  0  0  0  2  0  0  0  0  0  0
  187.1770  174.6220  137.0310 O   0  0  0  0  0  1  0  0  0  0  0  0
  185.1160  178.2860  138.2610 C   0  0  0  0  0  1  0  0  0  0  0  0
  187.1360  176.8730  137.8780 C   0  0  2  0  0  3  0  0  0  0  0  0
  2  9  2  0  0  0  0
  2 17  1  0  0  0  0
  3  8  1  0  0  0  0
  4  3  1  0  0  0  0
  5 13  1  0  0  0  0
  5 14  1  0  0  0  0
  6 13  2  0  0  0  0
  7 19  1  1  0  0  0
  7  1  1  0  0  0  0
  9  6  1  0  0  0  0
 10  8  1  1  0  0  0
 10  9  1  0  0  0  0
 11 16  1  0  0  0  0
 11 18  2  0  0  0  0
 12  1  1  0  0  0  0
 13  7  1  0  0  0  0
 14 12  1  0  0  0  0
 15  4  1  0  0  0  0
 15 16  1  0  0  0  0
 16 10  1  0  0  0  0
 17  5  2  0  0  0  0
 18  2  1  0  0  0  0
 19 21  1  0  0  0  0
 20 21  1  0  0  0  0
 20 23  1  0  0  0  0
 22 20  2  0  0  0  0
 24 11  1  0  0  0  0
 25 30  1  6  0  0  0
 25 32  1  0  0  0  0
 26 25  1  0  0  0  0
 27 32  1  0  0  0  0
 27 31  1  1  0  0  0
 28 27  1  0  0  0  0
 29 26  1  0  0  0  0
 29 28  1  0  0  0  0
 32 24  1  6  0  0  0
M  END
>  <MODEL>
2

>  <REMARK>
 VINA RESULT:      -8.7      1.906      2.751
  Name = 
  4 active torsions:
  status: ('A' for Active; 'I' for Inactive)
    1  A    between atoms: N_10  and  C_24
    2  A    between atoms: C_12  and  C_24
    3  A    between atoms: C_16  and  O_27
    4  A    between atoms: O_27  and  C_32
                            x       y       z     vdW  Elec       q    Type
                         _______ _______ _______ _____ _____    ______ ____

>  <TORSDO>
F 4

$$$$
=
 OpenBabel11052416563D

 32 36  0  0  1  0  0  0  0  0999 V2000
  187.1290  177.9370  146.9750 C   0  0  0  0  0  2  0  0  0  0  0  0
  185.4370  178.4600  142.1480 C   0  0  0  0  0  0  0  0  0  0  0  0
  188.9480  179.1590  139.1280 N   0  0  0  0  0  2  0  0  0  0  0  0
  188.4680  178.2030  138.1380 C   0  0  0  0  0  2  0  0  0  0  0  0
  185.6680  178.4920  144.5630 C   0  0  0  0  0  0  0  0  0  0  0  0
  187.5730  177.9450  143.1640 C   0  0  0  0  0  3  0  0  0  0  0  0
  187.9150  177.9810  145.6610 C   0  0  2  0  0  3  0  0  0  0  0  0
  188.7350  178.6280  140.4800 C   0  0  0  0  0  2  0  0  0  0  0  0
  186.7940  178.1320  142.0140 C   0  0  0  0  0  0  0  0  0  0  0  0
  187.3850  177.8960  140.6500 C   0  0  1  0  0  3  0  0  0  0  0  0
  185.0610  178.4810  139.7820 C   0  0  0  0  0  0  0  0  0  0  0  0
  186.0420  179.0000  146.9820 C   0  0  0  0  0  2  0  0  0  0  0  0
  187.0210  178.1000  144.4430 C   0  0  0  0  0  0  0  0  0  0  0  0
  185.0180  178.6710  145.9030 C   0  0  0  0  0  2  0  0  0  0  0  0
  186.9450  178.1860  138.1700 C   0  0  0  0  0  2  0  0  0  0  0  0
  186.4550  178.2100  139.5490 N   0  0  0  0  0  0  0  0  0  0  0  0
  184.8830  178.6420  143.4170 C   0  0  0  0  0  3  0  0  0  0  0  0
  184.6070  178.6010  140.9940 N   0  0  0  0  0  0  0  0  0  0  0  0
  188.8130  176.7540  145.5730 C   0  0  0  0  0  2  0  0  0  0  0  0
  191.1490  176.7310  146.5130 C   0  0  0  0  0  0  0  0  0  0  0  0
  189.7350  176.7260  146.6970 N   0  0  0  0  0  2  0  0  0  0  0  0
  191.6460  176.7620  145.3560 O   0  0  0  0  0  0  0  0  0  0  0  0
  192.0070  176.7020  147.6480 N   0  0  0  0  0  1  0  0  0  0  0  0
  184.1990  178.6350  138.6910 O   0  0  0  0  0  0  0  0  0  0  0  0
  183.3050  176.3970  138.3850 C   0  0  2  0  0  3  0  0  0  0  0  0
  183.2600  175.9530  136.9210 C   0  0  0  0  0  2  0  0  0  0  0  0
  182.1670  178.4820  137.3950 C   0  0  1  0  0  3  0  0  0  0  0  0
  181.1790  177.4580  136.8450 C   0  0  0  0  0  2  0  0  0  0  0  0
  181.9030  176.2380  136.2620 C   0  0  0  0  0  2  0  0  0  0  0  0
  182.4130  175.6380  139.1450 O   0  0  0  0  0  1  0  0  0  0  0  0
  181.4160  179.7080  137.8710 C   0  0  0  0  0  1  0  0  0  0  0  0
  182.9910  177.8950  138.5500 C   0  0  2  0  0  3  0  0  0  0  0  0
  1 12  1  0  0  0  0
  2 17  1  0  0  0  0
  3  8  1  0  0  0  0
  4 15  1  0  0  0  0
  4  3  1  0  0  0  0
  5 14  1  0  0  0  0
  6 13  2  0  0  0  0
  7 19  1  6  0  0  0
  7  1  1  0  0  0  0
  9  2  2  0  0  0  0
  9  6  1  0  0  0  0
 10  8  1  6  0  0  0
 10  9  1  0  0  0  0
 11 18  2  0  0  0  0
 13  5  1  0  0  0  0
 13  7  1  0  0  0  0
 14 12  1  0  0  0  0
 15 16  1  0  0  0  0
 16 11  1  0  0  0  0
 16 10  1  0  0  0  0
 17  5  2  0  0  0  0
 18  2  1  0  0  0  0
 19 21  1  0  0  0  0
 20 21  1  0  0  0  0
 20 23  1  0  0  0  0
 22 20  2  0  0  0  0
 24 11  1  0  0  0  0
 25 32  1  0  0  0  0
 25 30  1  1  0  0  0
 26 25  1  0  0  0  0
 27 31  1  1  0  0  0
 27 32  1  0  0  0  0
 28 27  1  0  0  0  0
 29 28  1  0  0  0  0
 29 26  1  0  0  0  0
 32 24  1  6  0  0  0
M  END
>  <MODEL>
3

>  <REMARK>
 VINA RESULT:      -8.6      3.264      4.759
  Name = 
  4 active torsions:
  status: ('A' for Active; 'I' for Inactive)
    1  A    between atoms: N_10  and  C_24
    2  A    between atoms: C_12  and  C_24
    3  A    between atoms: C_16  and  O_27
    4  A    between atoms: O_27  and  C_32
                            x       y       z     vdW  Elec       q    Type
                         _______ _______ _______ _____ _____    ______ ____

>  <TORSDO>
F 4

$$$$
=
 OpenBabel11052416563D

 32 36  0  0  1  0  0  0  0  0999 V2000
  187.7140  178.2890  136.7590 C   0  0  0  0  0  2  0  0  0  0  0  0
  188.1390  177.7040  141.8490 C   0  0  0  0  0  0  0  0  0  0  0  0
  184.7260  179.9300  144.1580 N   0  0  0  0  0  2  0  0  0  0  0  0
  184.4250  178.8220  145.0560 C   0  0  0  0  0  2  0  0  0  0  0  0
  188.5840  177.9450  139.4770 C   0  0  0  0  0  0  0  0  0  0  0  0
  186.3580  178.3590  140.3470 C   0  0  0  0  0  3  0  0  0  0  0  0
  186.7320  178.6630  137.8730 C   0  0  2  0  0  3  0  0  0  0  0  0
  185.0050  179.4190  142.8110 C   0  0  0  0  0  2  0  0  0  0  0  0
  186.8060  178.0880  141.6470 C   0  0  0  0  0  0  0  0  0  0  0  0
  185.8430  178.1210  142.8030 C   0  0  1  0  0  3  0  0  0  0  0  0
  187.8540  177.4390  144.2130 C   0  0  0  0  0  0  0  0  0  0  0  0
  189.1330  178.6700  137.1480 C   0  0  0  0  0  2  0  0  0  0  0  0
  187.2270  178.2720  139.2510 C   0  0  0  0  0  0  0  0  0  0  0  0
  189.5640  177.8330  138.3460 C   0  0  0  0  0  2  0  0  0  0  0  0
  185.7090  178.0520  145.3350 C   0  0  0  0  0  2  0  0  0  0  0  0
  186.4900  177.8870  144.1080 N   0  0  0  0  0  0  0  0  0  0  0  0
  189.0210  177.6390  140.7680 C   0  0  0  0  0  3  0  0  0  0  0  0
  188.6070  177.3680  143.1560 N   0  0  0  0  0  0  0  0  0  0  0  0
  185.3750  178.0410  137.5740 C   0  0  0  0  0  2  0  0  0  0  0  0
  184.6300  175.6550  137.2600 C   0  0  0  0  0  0  0  0  0  0  0  0
  185.5470  176.7160  137.0000 N   0  0  0  0  0  2  0  0  0  0  0  0
  183.6290  175.8400  138.0030 O   0  0  0  0  0  0  0  0  0  0  0  0
  184.8450  174.3770  136.6730 N   0  0  0  0  0  1  0  0  0  0  0  0
  188.3720  177.0990  145.4680 O   0  0  0  0  0  0  0  0  0  0  0  0
  190.7470  177.1280  144.9610 C   0  0  2  0  0  3  0  0  0  0  0  0
  191.4900  175.8820  145.4460 C   0  0  0  0  0  2  0  0  0  0  0  0
  189.8550  177.0750  147.3740 C   0  0  1  0  0  3  0  0  0  0  0  0
  191.3370  177.0510  147.7280 C   0  0  0  0  0  2  0  0  0  0  0  0
  192.1120  176.0720  146.8370 C   0  0  0  0  0  2  0  0  0  0  0  0
  191.6460  178.1800  144.7700 O   0  0  0  0  0  1  0  0  0  0  0  0
  189.1150  177.9790  148.3390 C   0  0  0  0  0  1  0  0  0  0  0  0
  189.6350  177.5610  145.9340 C   0  0  2  0  0  3  0  0  0  0  0  0
  1 12  1  0  0  0  0
  1  7  1  0  0  0  0
  2 18  1  0  0  0  0
  3  4  1  0  0  0  0
  4 15  1  0  0  0  0
  5 17  1  0  0  0  0
  6  9  2  0  0  0  0
  7 19  1  6  0  0  0
  7 13  1  0  0  0  0
  8  3  1  0  0  0  0
  9  2  1  0  0  0  0
  9 10  1  0  0  0  0
 10  8  1  1  0  0  0
 10 16  1  0  0  0  0
 11 24  1  0  0  0  0
 12 14  1  0  0  0  0
 13  5  2  0  0  0  0
 13  6  1  0  0  0  0
 14  5  1  0  0  0  0
 16 11  1  0  0  0  0
 16 15  1  0  0  0  0
 17  2  2  0  0  0  0
 18 11  2  0  0  0  0
 20 22  2  0  0  0  0
 21 20  1  0  0  0  0
 21 19  1  0  0  0  0
 23 20  1  0  0  0  0
 25 30  1  1  0  0  0
 25 26  1  0  0  0  0
 25 32  1  0  0  0  0
 26 29  1  0  0  0  0
 27 28  1  0  0  0  0
 27 31  1  1  0  0  0
 29 28  1  0  0  0  0
 32 24  1  6  0  0  0
 32 27  1  0  0  0  0
M  END
>  <MODEL>
4

>  <REMARK>
 VINA RESULT:      -8.4      2.705      8.082
  Name = 
  4 active torsions:
  status: ('A' for Active; 'I' for Inactive)
    1  A    between atoms: N_10  and  C_24
    2  A    between atoms: C_12  and  C_24
    3  A    between atoms: C_16  and  O_27
    4  A    between atoms: O_27  and  C_32
                            x       y       z     vdW  Elec       q    Type
                         _______ _______ _______ _____ _____    ______ ____

>  <TORSDO>
F 4

$$$$
=
 OpenBabel11052416563D

 32 36  0  0  1  0  0  0  0  0999 V2000
  179.8580  179.2210  139.1520 C   0  0  0  0  0  2  0  0  0  0  0  0
  184.7950  178.9890  140.5700 C   0  0  0  0  0  0  0  0  0  0  0  0
  185.2760  178.9020  145.2280 N   0  0  0  0  0  2  0  0  0  0  0  0
  186.2520  177.8190  145.2430 C   0  0  0  0  0  2  0  0  0  0  0  0
  182.7130  179.4350  139.4060 C   0  0  0  0  0  0  0  0  0  0  0  0
  182.6820  178.5200  141.6540 C   0  0  0  0  0  3  0  0  0  0  0  0
  180.4690  178.9780  140.5360 C   0  0  2  0  0  3  0  0  0  0  0  0
  184.2500  178.6350  144.2130 C   0  0  0  0  0  2  0  0  0  0  0  0
  184.0820  178.5520  141.6960 C   0  0  0  0  0  0  0  0  0  0  0  0
  184.8160  178.0370  142.9050 C   0  0  1  0  0  3  0  0  0  0  0  0
  186.9270  178.6130  141.5970 C   0  0  0  0  0  0  0  0  0  0  0  0
  180.5960  180.3390  138.4320 C   0  0  0  0  0  2  0  0  0  0  0  0
  181.9840  178.9370  140.5110 C   0  0  0  0  0  0  0  0  0  0  0  0
  182.0260  179.8930  138.1540 C   0  0  0  0  0  2  0  0  0  0  0  0
  187.1070  177.9100  143.9860 C   0  0  0  0  0  2  0  0  0  0  0  0
  186.2780  178.2120  142.8170 N   0  0  0  0  0  0  0  0  0  0  0  0
  184.1100  179.4310  139.4360 C   0  0  0  0  0  3  0  0  0  0  0  0
  186.2230  178.9780  140.5660 N   0  0  0  0  0  0  0  0  0  0  0  0
  179.8900  177.6970  141.1210 C   0  0  0  0  0  2  0  0  0  0  0  0
  180.1220  175.7970  139.4830 C   0  0  0  0  0  0  0  0  0  0  0  0
  179.3600  176.8560  140.0590 N   0  0  0  0  0  2  0  0  0  0  0  0
  181.2910  175.5550  139.8870 O   0  0  0  0  0  0  0  0  0  0  0  0
  179.5570  175.0050  138.4460 N   0  0  0  0  0  1  0  0  0  0  0  0
  188.3250  178.6280  141.5330 O   0  0  0  0  0  0  0  0  0  0  0  0
  190.1300  177.1180  142.1330 C   0  0  2  0  0  3  0  0  0  0  0  0
  191.5210  177.6760  141.8210 C   0  0  0  0  0  2  0  0  0  0  0  0
  189.7030  177.8580  139.7050 C   0  0  1  0  0  3  0  0  0  0  0  0
  190.9230  176.9910  139.4180 C   0  0  0  0  0  2  0  0  0  0  0  0
  192.0370  177.2320  140.4440 C   0  0  0  0  0  2  0  0  0  0  0  0
  190.1840  175.7270  142.2430 O   0  0  0  0  0  1  0  0  0  0  0  0
  188.6690  177.6590  138.6160 C   0  0  0  0  0  1  0  0  0  0  0  0
  189.0890  177.5200  141.0710 C   0  0  2  0  0  3  0  0  0  0  0  0
  1  7  1  0  0  0  0
  2  9  1  0  0  0  0
  3  4  1  0  0  0  0
  5 17  1  0  0  0  0
  5 13  2  0  0  0  0
  6  9  2  0  0  0  0
  7 19  1  6  0  0  0
  8  3  1  0  0  0  0
  9 10  1  0  0  0  0
 10  8  1  1  0  0  0
 11 16  1  0  0  0  0
 12  1  1  0  0  0  0
 13  7  1  0  0  0  0
 13  6  1  0  0  0  0
 14 12  1  0  0  0  0
 14  5  1  0  0  0  0
 15  4  1  0  0  0  0
 16 10  1  0  0  0  0
 16 15  1  0  0  0  0
 17  2  2  0  0  0  0
 18  2  1  0  0  0  0
 18 11  2  0  0  0  0
 20 22  2  0  0  0  0
 20 21  1  0  0  0  0
 21 19  1  0  0  0  0
 23 20  1  0  0  0  0
 24 11  1  0  0  0  0
 25 30  1  6  0  0  0
 26 25  1  0  0  0  0
 27 31  1  6  0  0  0
 27 32  1  0  0  0  0
 28 27  1  0  0  0  0
 28 29  1  0  0  0  0
 29 26  1  0  0  0  0
 32 24  1  1  0  0  0
 32 25  1  0  0  0  0
M  END
>  <MODEL>
5

>  <REMARK>
 VINA RESULT:      -8.3      3.891      6.289
  Name = 
  4 active torsions:
  status: ('A' for Active; 'I' for Inactive)
    1  A    between atoms: N_10  and  C_24
    2  A    between atoms: C_12  and  C_24
    3  A    between atoms: C_16  and  O_27
    4  A    between atoms: O_27  and  C_32
                            x       y       z     vdW  Elec       q    Type
                         _______ _______ _______ _____ _____    ______ ____

>  <TORSDO>
F 4

$$$$
=
 OpenBabel11052416563D

 32 36  0  0  1  0  0  0  0  0999 V2000
  180.7060  180.0040  140.2410 C   0  0  0  0  0  2  0  0  0  0  0  0
  185.2330  178.2040  141.8870 C   0  0  0  0  0  0  0  0  0  0  0  0
  188.1270  177.2370  138.3340 N   0  0  0  0  0  2  0  0  0  0  0  0
  189.2920  177.8810  138.9290 C   0  0  0  0  0  2  0  0  0  0  0  0
  182.8820  178.7510  141.6410 C   0  0  0  0  0  0  0  0  0  0  0  0
  184.4290  179.1770  139.8210 C   0  0  0  0  0  3  0  0  0  0  0  0
  182.0010  179.7510  139.4630 C   0  0  2  0  0  3  0  0  0  0  0  0
  186.9250  178.0350  138.6010 C   0  0  0  0  0  2  0  0  0  0  0  0
  185.4810  178.6450  140.5790 C   0  0  0  0  0  0  0  0  0  0  0  0
  186.8810  178.6290  140.0260 C   0  0  1  0  0  3  0  0  0  0  0  0
  187.5200  177.6020  142.2700 C   0  0  0  0  0  0  0  0  0  0  0  0
  180.4240  178.8550  141.1960 C   0  0  0  0  0  2  0  0  0  0  0  0
  183.1300  179.2570  140.3430 C   0  0  0  0  0  0  0  0  0  0  0  0
  181.5160  178.8100  142.2580 C   0  0  0  0  0  2  0  0  0  0  0  0
  189.2160  177.7330  140.4430 C   0  0  0  0  0  2  0  0  0  0  0  0
  187.8520  177.9690  140.9190 N   0  0  0  0  0  0  0  0  0  0  0  0
  183.9380  178.2550  142.4080 C   0  0  0  0  0  3  0  0  0  0  0  0
  186.2980  177.7100  142.7000 N   0  0  0  0  0  0  0  0  0  0  0  0
  182.3930  181.0190  138.7170 C   0  0  0  0  0  2  0  0  0  0  0  0
  181.1990  182.9870  137.6940 C   0  0  0  0  0  0  0  0  0  0  0  0
  181.2200  181.6210  138.1010 N   0  0  0  0  0  2  0  0  0  0  0  0
  182.2100  183.7210  137.8570 O   0  0  0  0  0  0  0  0  0  0  0  0
  180.0250  183.5270  137.0980 N   0  0  0  0  0  1  0  0  0  0  0  0
  188.5200  177.1060  143.1140 O   0  0  0  0  0  0  0  0  0  0  0  0
  190.5720  178.0440  144.0130 C   0  0  2  0  0  3  0  0  0  0  0  0
  191.3870  177.0470  144.8400 C   0  0  0  0  0  2  0  0  0  0  0  0
  188.6790  177.1710  145.5230 C   0  0  1  0  0  3  0  0  0  0  0  0
  189.6330  177.5720  146.6420 C   0  0  0  0  0  2  0  0  0  0  0  0
  191.0700  177.1290  146.3400 C   0  0  0  0  0  2  0  0  0  0  0  0
  190.9310  179.3510  144.3460 O   0  0  0  0  0  1  0  0  0  0  0  0
  187.2610  177.5400  145.9060 C   0  0  0  0  0  1  0  0  0  0  0  0
  189.0550  177.8540  144.2010 C   0  0  2  0  0  3  0  0  0  0  0  0
  1 12  1  0  0  0  0
  2 17  1  0  0  0  0
  2 18  1  0  0  0  0
  3  8  1  0  0  0  0
  3  4  1  0  0  0  0
  4 15  1  0  0  0  0
  5 14  1  0  0  0  0
  5 17  2  0  0  0  0
  6 13  2  0  0  0  0
  6  9  1  0  0  0  0
  7 19  1  1  0  0  0
  7  1  1  0  0  0  0
  7 13  1  0  0  0  0
  9  2  2  0  0  0  0
 10  8  1  6  0  0  0
 10  9  1  0  0  0  0
 10 16  1  0  0  0  0
 11 18  2  0  0  0  0
 11 24  1  0  0  0  0
 12 14  1  0  0  0  0
 13  5  1  0  0  0  0
 15 16  1  0  0  0  0
 16 11  1  0  0  0  0
 20 22  2  0  0  0  0
 20 21  1  0  0  0  0
 21 19  1  0  0  0  0
 23 20  1  0  0  0  0
 25 32  1  0  0  0  0
 25 30  1  1  0  0  0
 25 26  1  0  0  0  0
 26 29  1  0  0  0  0
 27 31  1  1  0  0  0
 27 28  1  0  0  0  0
 29 28  1  0  0  0  0
 32 24  1  6  0  0  0
 32 27  1  0  0  0  0
M  END
>  <MODEL>
6

>  <REMARK>
 VINA RESULT:      -8.3      3.876      7.447
  Name = 
  4 active torsions:
  status: ('A' for Active; 'I' for Inactive)
    1  A    between atoms: N_10  and  C_24
    2  A    between atoms: C_12  and  C_24
    3  A    between atoms: C_16  and  O_27
    4  A    between atoms: O_27  and  C_32
                            x       y       z     vdW  Elec       q    Type
                         _______ _______ _______ _____ _____    ______ ____

>  <TORSDO>
F 4

$$$$
=
 OpenBabel11052416563D

 32 36  0  0  1  0  0  0  0  0999 V2000
  186.7420  177.9800  146.4920 C   0  0  0  0  0  2  0  0  0  0  0  0
  185.2340  178.5470  141.6090 C   0  0  0  0  0  0  0  0  0  0  0  0
  188.8670  179.1540  138.7150 N   0  0  0  0  0  2  0  0  0  0  0  0
  188.3970  178.2100  137.7080 C   0  0  0  0  0  2  0  0  0  0  0  0
  185.3810  178.5730  144.0300 C   0  0  0  0  0  0  0  0  0  0  0  0
  187.3190  177.9760  142.6990 C   0  0  0  0  0  3  0  0  0  0  0  0
  187.5740  178.0030  145.2060 C   0  0  2  0  0  3  0  0  0  0  0  0
  188.5930  178.6280  140.0580 C   0  0  0  0  0  2  0  0  0  0  0  0
  186.5860  178.1830  141.5230 C   0  0  0  0  0  0  0  0  0  0  0  0
  187.2190  177.9320  140.1800 C   0  0  1  0  0  3  0  0  0  0  0  0
  184.9430  178.5780  139.2310 C   0  0  0  0  0  0  0  0  0  0  0  0
  185.6830  179.0710  146.4620 C   0  0  0  0  0  2  0  0  0  0  0  0
  186.7270  178.1450  143.9580 C   0  0  0  0  0  0  0  0  0  0  0  0
  184.6890  178.7700  145.3470 C   0  0  0  0  0  2  0  0  0  0  0  0
  186.8740  178.2330  137.6860 C   0  0  0  0  0  2  0  0  0  0  0  0
  186.3370  178.2700  139.0480 N   0  0  0  0  0  0  0  0  0  0  0  0
  184.6410  178.7440  142.8580 C   0  0  0  0  0  3  0  0  0  0  0  0
  184.4500  178.7100  140.4270 N   0  0  0  0  0  0  0  0  0  0  0  0
  188.4410  176.7530  145.1490 C   0  0  0  0  0  2  0  0  0  0  0  0
  190.4490  176.4950  143.6490 C   0  0  0  0  0  0  0  0  0  0  0  0
  189.8000  177.1030  144.7640 N   0  0  0  0  0  2  0  0  0  0  0  0
  189.8540  175.6270  142.9560 O   0  0  0  0  0  0  0  0  0  0  0  0
  191.7790  176.8730  143.3160 N   0  0  0  0  0  1  0  0  0  0  0  0
  184.1240  178.7540  138.1100 O   0  0  0  0  0  0  0  0  0  0  0  0
  181.7440  178.3790  138.4160 C   0  0  2  0  0  3  0  0  0  0  0  0
  181.4040  177.6470  139.7160 C   0  0  0  0  0  2  0  0  0  0  0  0
  183.4280  176.4440  138.2100 C   0  0  1  0  0  3  0  0  0  0  0  0
  182.1850  175.5820  138.4020 C   0  0  0  0  0  2  0  0  0  0  0  0
  181.2930  176.1270  139.5240 C   0  0  0  0  0  2  0  0  0  0  0  0
  180.6960  178.2460  137.5020 O   0  0  0  0  0  1  0  0  0  0  0  0
  184.3250  175.8170  137.1620 C   0  0  0  0  0  1  0  0  0  0  0  0
  183.0550  177.8720  137.7870 C   0  0  2  0  0  3  0  0  0  0  0  0
  2 17  1  0  0  0  0
  3  8  1  0  0  0  0
  4  3  1  0  0  0  0
  5 14  1  0  0  0  0
  6 13  2  0  0  0  0
  7 19  1  6  0  0  0
  7  1  1  0  0  0  0
  9  2  2  0  0  0  0
  9  6  1  0  0  0  0
 10  8  1  6  0  0  0
 10  9  1  0  0  0  0
 11 18  2  0  0  0  0
 12  1  1  0  0  0  0
 13  5  1  0  0  0  0
 13  7  1  0  0  0  0
 14 12  1  0  0  0  0
 15  4  1  0  0  0  0
 15 16  1  0  0  0  0
 16 11  1  0  0  0  0
 16 10  1  0  0  0  0
 17  5  2  0  0  0  0
 18  2  1  0  0  0  0
 20 21  1  0  0  0  0
 21 19  1  0  0  0  0
 22 20  2  0  0  0  0
 23 20  1  0  0  0  0
 24 11  1  0  0  0  0
 25 30  1  6  0  0  0
 25 26  1  0  0  0  0
 27 31  1  6  0  0  0
 27 28  1  0  0  0  0
 28 29  1  0  0  0  0
 29 26  1  0  0  0  0
 32 24  1  1  0  0  0
 32 27  1  0  0  0  0
 32 25  1  0  0  0  0
M  END
>  <MODEL>
7

>  <REMARK>
 VINA RESULT:      -8.2      3.192      5.229
  Name = 
  4 active torsions:
  status: ('A' for Active; 'I' for Inactive)
    1  A    between atoms: N_10  and  C_24
    2  A    between atoms: C_12  and  C_24
    3  A    between atoms: C_16  and  O_27
    4  A    between atoms: O_27  and  C_32
                            x       y       z     vdW  Elec       q    Type
                         _______ _______ _______ _____ _____    ______ ____

>  <TORSDO>
F 4

$$$$
=
 OpenBabel11052416563D

 32 36  0  0  1  0  0  0  0  0999 V2000
  184.5050  178.6340  145.3050 C   0  0  0  0  0  2  0  0  0  0  0  0
  187.1290  178.3480  140.8930 C   0  0  0  0  0  0  0  0  0  0  0  0
  191.7520  178.1430  141.6170 N   0  0  0  0  0  2  0  0  0  0  0  0
  191.9890  177.0560  140.6750 C   0  0  0  0  0  2  0  0  0  0  0  0
  185.4840  178.8300  142.6100 C   0  0  0  0  0  0  0  0  0  0  0  0
  187.6250  177.8600  143.2120 C   0  0  0  0  0  3  0  0  0  0  0  0
  185.9910  178.3540  145.0670 C   0  0  2  0  0  3  0  0  0  0  0  0
  190.5020  177.9050  142.3490 C   0  0  0  0  0  2  0  0  0  0  0  0
  188.0240  177.8850  141.8690 C   0  0  0  0  0  0  0  0  0  0  0  0
  189.3680  177.3380  141.4670 C   0  0  1  0  0  3  0  0  0  0  0  0
  188.6560  177.9380  139.0930 C   0  0  0  0  0  0  0  0  0  0  0  0
  184.0250  179.7670  144.4110 C   0  0  0  0  0  2  0  0  0  0  0  0
  186.3540  178.3090  143.5960 C   0  0  0  0  0  0  0  0  0  0  0  0
  184.1100  179.3230  142.9560 C   0  0  0  0  0  2  0  0  0  0  0  0
  190.9940  177.1750  139.5270 C   0  0  0  0  0  2  0  0  0  0  0  0
  189.6600  177.5090  140.0310 N   0  0  0  0  0  0  0  0  0  0  0  0
  185.8700  178.8210  141.2680 C   0  0  0  0  0  3  0  0  0  0  0  0
  187.4900  178.3310  139.5120 N   0  0  0  0  0  0  0  0  0  0  0  0
  186.3770  177.0610  145.7730 C   0  0  0  0  0  2  0  0  0  0  0  0
  188.4820  177.4370  147.1050 C   0  0  0  0  0  0  0  0  0  0  0  0
  187.0600  177.3580  147.0220 N   0  0  0  0  0  2  0  0  0  0  0  0
  189.1950  177.2510  146.0830 O   0  0  0  0  0  0  0  0  0  0  0  0
  189.1000  177.7300  148.3520 N   0  0  0  0  0  1  0  0  0  0  0  0
  188.9520  177.9490  137.7250 O   0  0  0  0  0  0  0  0  0  0  0  0
  186.9270  177.9380  136.3840 C   0  0  2  0  0  3  0  0  0  0  0  0
  185.7030  177.4040  137.1310 C   0  0  0  0  0  2  0  0  0  0  0  0
  187.9710  175.7800  137.3200 C   0  0  1  0  0  3  0  0  0  0  0  0
  186.7770  175.1230  136.6370 C   0  0  0  0  0  2  0  0  0  0  0  0
  185.4820  175.9020  136.8990 C   0  0  0  0  0  2  0  0  0  0  0  0
  186.7230  177.8530  135.0050 O   0  0  0  0  0  1  0  0  0  0  0  0
  189.2060  174.9270  137.1170 C   0  0  0  0  0  1  0  0  0  0  0  0
  188.2180  177.1920  136.7700 C   0  0  2  0  0  3  0  0  0  0  0  0
  2 17  2  0  0  0  0
  2  9  1  0  0  0  0
  3  8  1  0  0  0  0
  4  3  1  0  0  0  0
  5 14  1  0  0  0  0
  5 13  2  0  0  0  0
  6 13  1  0  0  0  0
  7  1  1  0  0  0  0
  7 19  1  6  0  0  0
  9  6  2  0  0  0  0
 10  9  1  0  0  0  0
 10  8  1  1  0  0  0
 11 18  2  0  0  0  0
 11 16  1  0  0  0  0
 12  1  1  0  0  0  0
 13  7  1  0  0  0  0
 14 12  1  0  0  0  0
 15 16  1  0  0  0  0
 15  4  1  0  0  0  0
 16 10  1  0  0  0  0
 17  5  1  0  0  0  0
 18  2  1  0  0  0  0
 19 21  1  0  0  0  0
 20 23  1  0  0  0  0
 21 20  1  0  0  0  0
 22 20  2  0  0  0  0
 24 11  1  0  0  0  0
 25 30  1  6  0  0  0
 25 32  1  0  0  0  0
 25 26  1  0  0  0  0
 27 31  1  6  0  0  0
 28 29  1  0  0  0  0
 28 27  1  0  0  0  0
 29 26  1  0  0  0  0
 32 27  1  0  0  0  0
 32 24  1  1  0  0  0
M  END
>  <MODEL>
8

>  <REMARK>
 VINA RESULT:      -8.2      1.324      2.172
  Name = 
  4 active torsions:
  status: ('A' for Active; 'I' for Inactive)
    1  A    between atoms: N_10  and  C_24
    2  A    between atoms: C_12  and  C_24
    3  A    between atoms: C_16  and  O_27
    4  A    between atoms: O_27  and  C_32
                            x       y       z     vdW  Elec       q    Type
                         _______ _______ _______ _____ _____    ______ ____

>  <TORSDO>
F 4

$$$$
=
 OpenBabel11052416563D

 32 36  0  0  1  0  0  0  0  0999 V2000
  190.4000  176.9030  146.9390 C   0  0  0  0  0  2  0  0  0  0  0  0
  188.8070  177.7770  142.1290 C   0  0  0  0  0  0  0  0  0  0  0  0
  184.1360  177.6920  141.7890 N   0  0  0  0  0  2  0  0  0  0  0  0
  184.0370  178.9030  140.9840 C   0  0  0  0  0  2  0  0  0  0  0  0
  190.0600  177.0940  144.0910 C   0  0  0  0  0  0  0  0  0  0  0  0
  187.7740  177.8770  144.3160 C   0  0  0  0  0  3  0  0  0  0  0  0
  188.9870  177.1600  146.4070 C   0  0  2  0  0  3  0  0  0  0  0  0
  185.1720  177.8590  142.8150 C   0  0  0  0  0  2  0  0  0  0  0  0
  187.6870  178.0470  142.9280 C   0  0  0  0  0  0  0  0  0  0  0  0
  186.4300  178.5990  142.3100 C   0  0  1  0  0  3  0  0  0  0  0  0
  187.6920  178.4050  140.1030 C   0  0  0  0  0  0  0  0  0  0  0  0
  191.1470  175.9430  146.0260 C   0  0  0  0  0  2  0  0  0  0  0  0
  188.9580  177.4220  144.9150 C   0  0  0  0  0  0  0  0  0  0  0  0
  191.3550  176.6060  144.6700 C   0  0  0  0  0  2  0  0  0  0  0  0
  185.2680  179.0030  140.0920 C   0  0  0  0  0  2  0  0  0  0  0  0
  186.4770  178.6440  140.8360 N   0  0  0  0  0  0  0  0  0  0  0  0
  189.9830  177.2990  142.7110 C   0  0  0  0  0  3  0  0  0  0  0  0
  188.7620  177.9960  140.7180 N   0  0  0  0  0  0  0  0  0  0  0  0
  188.3620  178.3110  147.1840 C   0  0  0  0  0  2  0  0  0  0  0  0
  185.8720  178.6130  146.9430 C   0  0  0  0  0  0  0  0  0  0  0  0
  186.9950  177.9810  147.5550 N   0  0  0  0  0  2  0  0  0  0  0  0
  186.0360  179.4860  146.0490 O   0  0  0  0  0  0  0  0  0  0  0  0
  184.5560  178.2530  147.3440 N   0  0  0  0  0  1  0  0  0  0  0  0
  187.7090  178.5970  138.7170 O   0  0  0  0  0  0  0  0  0  0  0  0
  189.1490  177.2460  137.3020 C   0  0  2  0  0  3  0  0  0  0  0  0
  189.4300  177.8780  135.9380 C   0  0  0  0  0  2  0  0  0  0  0  0
  186.7280  177.8250  136.6500 C   0  0  1  0  0  3  0  0  0  0  0  0
  187.0670  177.0280  135.3960 C   0  0  0  0  0  2  0  0  0  0  0  0
  188.4530  177.3980  134.8540 C   0  0  0  0  0  2  0  0  0  0  0  0
  189.3780  175.8700  137.2510 O   0  0  0  0  0  1  0  0  0  0  0  0
  185.3160  177.5000  137.0940 C   0  0  0  0  0  1  0  0  0  0  0  0
  187.7130  177.5200  137.7870 C   0  0  2  0  0  3  0  0  0  0  0  0
  2 17  2  0  0  0  0
  2  9  1  0  0  0  0
  3  8  1  0  0  0  0
  4  3  1  0  0  0  0
  5 14  1  0  0  0  0
  5 13  2  0  0  0  0
  6 13  1  0  0  0  0
  7  1  1  0  0  0  0
  7 19  1  1  0  0  0
  9  6  2  0  0  0  0
 10  8  1  6  0  0  0
 10  9  1  0  0  0  0
 11 18  2  0  0  0  0
 11 16  1  0  0  0  0
 12  1  1  0  0  0  0
 13  7  1  0  0  0  0
 14 12  1  0  0  0  0
 15 16  1  0  0  0  0
 15  4  1  0  0  0  0
 16 10  1  0  0  0  0
 17  5  1  0  0  0  0
 18  2  1  0  0  0  0
 19 21  1  0  0  0  0
 20 23  1  0  0  0  0
 20 21  1  0  0  0  0
 22 20  2  0  0  0  0
 24 11  1  0  0  0  0
 25 30  1  6  0  0  0
 25 32  1  0  0  0  0
 26 25  1  0  0  0  0
 27 31  1  1  0  0  0
 27 32  1  0  0  0  0
 28 27  1  0  0  0  0
 29 28  1  0  0  0  0
 29 26  1  0  0  0  0
 32 24  1  1  0  0  0
M  END
>  <MODEL>
9

>  <REMARK>
 VINA RESULT:      -8.1      1.848      4.236
  Name = 
  4 active torsions:
  status: ('A' for Active; 'I' for Inactive)
    1  A    between atoms: N_10  and  C_24
    2  A    between atoms: C_12  and  C_24
    3  A    between atoms: C_16  and  O_27
    4  A    between atoms: O_27  and  C_32
                            x       y       z     vdW  Elec       q    Type
                         _______ _______ _______ _____ _____    ______ ____

>  <TORSDO>
F 4

$$$$
