=
 OpenBabel11052414063D

 34 39  0  0  1  0  0  0  0  0999 V2000
  186.8150  177.8220  144.7200 C   0  0  0  0  0  0  0  0  0  0  0  0
  184.6470  178.9060  144.8570 C   0  0  0  0  0  0  0  0  0  0  0  0
  185.7490  178.4940  142.6150 C   0  0  0  0  0  0  0  0  0  0  0  0
  184.7890  178.8810  140.4220 C   0  0  0  0  0  0  0  0  0  0  0  0
  185.6690  177.9580  146.8430 C   0  0  0  0  0  3  0  0  0  0  0  0
  184.6230  178.6410  146.2310 C   0  0  0  0  0  3  0  0  0  0  0  0
  183.1840  178.5460  142.0840 C   0  0  0  0  0  2  0  0  0  0  0  0
  185.6980  178.3930  144.0450 C   0  0  0  0  0  0  0  0  0  0  0  0
  183.5160  178.9970  139.6850 C   0  0  0  0  0  2  0  0  0  0  0  0
  186.7760  177.5770  146.0930 C   0  0  0  0  0  3  0  0  0  0  0  0
  186.9970  178.2770  141.9550 C   0  0  0  0  0  0  0  0  0  0  0  0
  187.9930  177.5410  144.0360 C   0  0  0  0  0  3  0  0  0  0  0  0
  183.6770  179.7650  144.3640 O   0  0  0  0  0  1  0  0  0  0  0  0
  185.9990  178.7730  139.8290 N   0  0  0  0  0  0  0  0  0  0  0  0
  187.1090  178.4780  140.5590 C   0  0  0  0  0  0  0  0  0  0  0  0
  182.4560  178.8990  140.7850 C   0  0  1  0  0  3  0  0  0  0  0  0
  184.6290  178.7220  141.7760 C   0  0  0  0  0  0  0  0  0  0  0  0
  188.0940  177.7980  142.6770 C   0  0  0  0  0  3  0  0  0  0  0  0
  189.5600  178.0520  137.6380 C   0  0  2  0  0  3  0  0  0  0  0  0
  190.2930  176.8200  138.1640 C   0  0  0  0  0  2  0  0  0  0  0  0
  188.4240  178.3140  139.8550 C   0  0  2  0  0  3  0  0  0  0  0  0
  190.5090  176.9390  139.6690 C   0  0  0  0  0  2  0  0  0  0  0  0
  188.2170  178.2090  138.3430 C   0  0  0  0  0  2  0  0  0  0  0  0
  189.1700  177.0890  140.3840 C   0  0  0  0  0  2  0  0  0  0  0  0
  189.3340  177.9080  136.1480 C   0  0  0  0  0  1  0  0  0  0  0  0
  180.3180  178.1380  139.8400 C   0  0  0  0  0  3  0  0  0  0  0  0
  181.4570  177.8370  140.4630 C   0  0  0  0  0  3  0  0  0  0  0  0
  179.1000  175.9880  141.6350 O   0  0  0  0  0  0  0  0  0  0  0  0
  179.3150  177.0740  139.5160 C   0  0  2  0  0  3  0  0  0  0  0  0
  179.4960  175.9040  140.4430 C   0  0  0  0  0  0  0  0  0  0  0  0
  180.4080  174.4430  138.5940 C   0  0  0  0  0  2  0  0  0  0  0  0
  180.6190  175.7350  137.8150 C   0  0  0  0  0  2  0  0  0  0  0  0
  179.4220  176.6530  138.0450 C   0  0  0  0  0  2  0  0  0  0  0  0
  180.1820  174.7260  140.0070 N   0  0  0  0  0  2  0  0  0  0  0  0
  1 10  2  0  0  0  0
  2  6  1  0  0  0  0
  3  8  1  0  0  0  0
  4 17  1  0  0  0  0
  6  5  2  0  0  0  0
  8  1  1  0  0  0  0
  8  2  2  0  0  0  0
  9  4  1  0  0  0  0
  9 16  1  0  0  0  0
 10  5  1  0  0  0  0
 11  3  1  0  0  0  0
 11 18  1  0  0  0  0
 12  1  1  0  0  0  0
 13  2  1  0  0  0  0
 14  4  2  0  0  0  0
 14 15  1  0  0  0  0
 15 11  2  0  0  0  0
 16 27  1  6  0  0  0
 16  7  1  0  0  0  0
 17  7  1  0  0  0  0
 17  3  2  0  0  0  0
 18 12  2  0  0  0  0
 19 25  1  6  0  0  0
 19 20  1  0  0  0  0
 19 23  1  0  0  0  0
 20 22  1  0  0  0  0
 21 24  1  0  0  0  0
 21 15  1  1  0  0  0
 22 24  1  0  0  0  0
 23 21  1  0  0  0  0
 26 27  2  0  0  0  0
 29 26  1  1  0  0  0
 29 30  1  0  0  0  0
 30 28  2  0  0  0  0
 31 34  1  0  0  0  0
 32 33  1  0  0  0  0
 32 31  1  0  0  0  0
 33 29  1  0  0  0  0
 34 30  1  0  0  0  0
M  END
>  <MODEL>
1

>  <REMARK>
 VINA RESULT:     -10.6      0.000      0.000
  Name = 
  3 active torsions:
  status: ('A' for Active; 'I' for Inactive)
    1  A    between atoms: C_3  and  C_13
    2  A    between atoms: C_12  and  C_28
    3  A    between atoms: C_17  and  C_29
                            x       y       z     vdW  Elec       q    Type
                         _______ _______ _______ _____ _____    ______ ____

>  <TORSDO>
F 3

$$$$
=
 OpenBabel11052414063D

 34 39  0  0  1  0  0  0  0  0999 V2000
  183.7240  178.5880  142.2390 C   0  0  0  0  0  0  0  0  0  0  0  0
  184.1300  179.2420  139.9370 C   0  0  0  0  0  0  0  0  0  0  0  0
  186.0410  178.5230  141.4350 C   0  0  0  0  0  0  0  0  0  0  0  0
  188.3550  178.1880  140.7930 C   0  0  0  0  0  0  0  0  0  0  0  0
  181.8600  179.0060  140.7590 C   0  0  0  0  0  3  0  0  0  0  0  0
  182.7480  179.3130  139.7330 C   0  0  0  0  0  3  0  0  0  0  0  0
  186.8620  177.9610  139.0120 C   0  0  0  0  0  2  0  0  0  0  0  0
  184.6510  178.7590  141.1700 C   0  0  0  0  0  0  0  0  0  0  0  0
  189.2400  177.8810  139.6520 C   0  0  0  0  0  2  0  0  0  0  0  0
  182.3490  178.6750  142.0180 C   0  0  0  0  0  3  0  0  0  0  0  0
  186.4700  178.3960  142.7910 C   0  0  0  0  0  0  0  0  0  0  0  0
  184.1670  178.3810  143.5410 C   0  0  0  0  0  3  0  0  0  0  0  0
  184.9420  179.7590  138.9390 O   0  0  0  0  0  1  0  0  0  0  0  0
  188.7540  178.1720  142.0850 N   0  0  0  0  0  0  0  0  0  0  0  0
  187.8470  178.2760  143.0940 C   0  0  0  0  0  0  0  0  0  0  0  0
  188.2850  177.8480  138.4570 C   0  0  1  0  0  3  0  0  0  0  0  0
  187.0350  178.3290  140.4430 C   0  0  0  0  0  0  0  0  0  0  0  0
  185.5250  178.3200  143.8190 C   0  0  0  0  0  3  0  0  0  0  0  0
  190.1650  177.4430  146.0380 C   0  0  2  0  0  3  0  0  0  0  0  0
  189.1420  176.7120  146.9020 C   0  0  0  0  0  2  0  0  0  0  0  0
  188.3250  178.2010  144.5150 C   0  0  2  0  0  3  0  0  0  0  0  0
  187.7920  177.4200  146.8340 C   0  0  0  0  0  2  0  0  0  0  0  0
  189.6850  177.5060  144.5910 C   0  0  0  0  0  2  0  0  0  0  0  0
  187.3010  177.4800  145.3910 C   0  0  0  0  0  2  0  0  0  0  0  0
  191.4910  176.7170  146.0980 C   0  0  0  0  0  1  0  0  0  0  0  0
  187.3770  175.7850  137.4780 C   0  0  0  0  0  3  0  0  0  0  0  0
  188.4300  176.5710  137.6980 C   0  0  0  0  0  3  0  0  0  0  0  0
  188.2660  175.3130  134.5940 O   0  0  0  0  0  0  0  0  0  0  0  0
  187.5210  174.5040  136.7160 C   0  0  2  0  0  3  0  0  0  0  0  0
  187.3410  174.7610  135.2460 C   0  0  0  0  0  0  0  0  0  0  0  0
  185.1120  173.5720  135.2010 C   0  0  0  0  0  2  0  0  0  0  0  0
  185.1200  173.7130  136.7170 C   0  0  0  0  0  2  0  0  0  0  0  0
  186.5320  173.4490  137.2310 C   0  0  0  0  0  2  0  0  0  0  0  0
  186.1030  174.4570  134.5970 N   0  0  0  0  0  2  0  0  0  0  0  0
  1 12  1  0  0  0  0
  2  8  1  0  0  0  0
  3 11  1  0  0  0  0
  4 14  2  0  0  0  0
  5 10  2  0  0  0  0
  6  2  2  0  0  0  0
  6  5  1  0  0  0  0
  7 17  1  0  0  0  0
  8  3  1  0  0  0  0
  8  1  2  0  0  0  0
  9  4  1  0  0  0  0
 10  1  1  0  0  0  0
 11 15  2  0  0  0  0
 11 18  1  0  0  0  0
 12 18  2  0  0  0  0
 13  2  1  0  0  0  0
 14 15  1  0  0  0  0
 16 27  1  1  0  0  0
 16  7  1  0  0  0  0
 16  9  1  0  0  0  0
 17  4  1  0  0  0  0
 17  3  2  0  0  0  0
 19 25  1  6  0  0  0
 19 20  1  0  0  0  0
 21 15  1  6  0  0  0
 21 23  1  0  0  0  0
 21 24  1  0  0  0  0
 22 20  1  0  0  0  0
 23 19  1  0  0  0  0
 24 22  1  0  0  0  0
 26 27  2  0  0  0  0
 28 30  2  0  0  0  0
 29 33  1  0  0  0  0
 29 26  1  1  0  0  0
 30 29  1  0  0  0  0
 31 32  1  0  0  0  0
 32 33  1  0  0  0  0
 34 31  1  0  0  0  0
 34 30  1  0  0  0  0
M  END
>  <MODEL>
2

>  <REMARK>
 VINA RESULT:     -10.0      3.426      6.413
  Name = 
  3 active torsions:
  status: ('A' for Active; 'I' for Inactive)
    1  A    between atoms: C_3  and  C_13
    2  A    between atoms: C_12  and  C_28
    3  A    between atoms: C_17  and  C_29
                            x       y       z     vdW  Elec       q    Type
                         _______ _______ _______ _____ _____    ______ ____

>  <TORSDO>
F 3

$$$$
=
 OpenBabel11052414063D

 34 39  0  0  1  0  0  0  0  0999 V2000
  183.6590  178.5750  142.3150 C   0  0  0  0  0  0  0  0  0  0  0  0
  184.1020  179.2410  140.0230 C   0  0  0  0  0  0  0  0  0  0  0  0
  185.9910  178.5340  141.5550 C   0  0  0  0  0  0  0  0  0  0  0  0
  188.3200  178.2220  140.9560 C   0  0  0  0  0  0  0  0  0  0  0  0
  181.8190  178.9810  140.8010 C   0  0  0  0  0  3  0  0  0  0  0  0
  182.7240  179.2990  139.7930 C   0  0  0  0  0  3  0  0  0  0  0  0
  186.8630  177.9880  139.1460 C   0  0  0  0  0  2  0  0  0  0  0  0
  184.6040  178.7590  141.2650 C   0  0  0  0  0  0  0  0  0  0  0  0
  189.2290  177.9270  139.8320 C   0  0  0  0  0  2  0  0  0  0  0  0
  182.2870  178.6500  142.0680 C   0  0  0  0  0  3  0  0  0  0  0  0
  186.3950  178.4070  142.9190 C   0  0  0  0  0  0  0  0  0  0  0  0
  184.0790  178.3680  143.6240 C   0  0  0  0  0  3  0  0  0  0  0  0
  184.9280  179.7690  139.0420 O   0  0  0  0  0  1  0  0  0  0  0  0
  188.6940  178.2060  142.2550 N   0  0  0  0  0  0  0  0  0  0  0  0
  187.7670  178.2990  143.2480 C   0  0  0  0  0  0  0  0  0  0  0  0
  188.2970  177.8900  138.6180 C   0  0  1  0  0  3  0  0  0  0  0  0
  187.0060  178.3520  140.5820 C   0  0  0  0  0  0  0  0  0  0  0  0
  185.4310  178.3190  143.9280 C   0  0  0  0  0  3  0  0  0  0  0  0
  190.0450  177.4960  146.2300 C   0  0  2  0  0  3  0  0  0  0  0  0
  189.0230  176.7340  147.0690 C   0  0  0  0  0  2  0  0  0  0  0  0
  188.2190  178.2230  144.6770 C   0  0  2  0  0  3  0  0  0  0  0  0
  187.6590  177.4110  146.9790 C   0  0  0  0  0  2  0  0  0  0  0  0
  189.5930  177.5590  144.7740 C   0  0  0  0  0  2  0  0  0  0  0  0
  187.1940  177.4710  145.5270 C   0  0  0  0  0  2  0  0  0  0  0  0
  191.3870  176.8000  146.3120 C   0  0  0  0  0  1  0  0  0  0  0  0
  188.4430  176.6090  136.5260 C   0  0  0  0  0  3  0  0  0  0  0  0
  188.4680  176.6170  137.8580 C   0  0  0  0  0  3  0  0  0  0  0  0
  187.2730  173.8380  137.0590 O   0  0  0  0  0  0  0  0  0  0  0  0
  188.6150  175.3320  135.7620 C   0  0  2  0  0  3  0  0  0  0  0  0
  188.4310  174.1580  136.6830 C   0  0  0  0  0  0  0  0  0  0  0  0
  190.8870  173.5700  136.5980 C   0  0  0  0  0  2  0  0  0  0  0  0
  191.1010  174.9740  136.0470 C   0  0  0  0  0  2  0  0  0  0  0  0
  189.9800  175.2950  135.0630 C   0  0  0  0  0  2  0  0  0  0  0  0
  189.5630  173.4490  137.1980 N   0  0  0  0  0  2  0  0  0  0  0  0
  1 12  1  0  0  0  0
  2  8  1  0  0  0  0
  3 11  1  0  0  0  0
  4 14  2  0  0  0  0
  5 10  2  0  0  0  0
  6  2  2  0  0  0  0
  6  5  1  0  0  0  0
  7 17  1  0  0  0  0
  8  3  1  0  0  0  0
  8  1  2  0  0  0  0
  9  4  1  0  0  0  0
 10  1  1  0  0  0  0
 11 15  2  0  0  0  0
 11 18  1  0  0  0  0
 12 18  2  0  0  0  0
 13  2  1  0  0  0  0
 14 15  1  0  0  0  0
 16 27  1  1  0  0  0
 16  7  1  0  0  0  0
 16  9  1  0  0  0  0
 17  4  1  0  0  0  0
 17  3  2  0  0  0  0
 19 25  1  6  0  0  0
 19 20  1  0  0  0  0
 21 15  1  6  0  0  0
 21 23  1  0  0  0  0
 21 24  1  0  0  0  0
 22 20  1  0  0  0  0
 23 19  1  0  0  0  0
 24 22  1  0  0  0  0
 26 27  2  0  0  0  0
 29 26  1  1  0  0  0
 29 30  1  0  0  0  0
 30 28  2  0  0  0  0
 30 34  1  0  0  0  0
 31 34  1  0  0  0  0
 32 31  1  0  0  0  0
 33 29  1  0  0  0  0
 33 32  1  0  0  0  0
M  END
>  <MODEL>
3

>  <REMARK>
 VINA RESULT:     -10.0      3.066      7.031
  Name = 
  3 active torsions:
  status: ('A' for Active; 'I' for Inactive)
    1  A    between atoms: C_3  and  C_13
    2  A    between atoms: C_12  and  C_28
    3  A    between atoms: C_17  and  C_29
                            x       y       z     vdW  Elec       q    Type
                         _______ _______ _______ _____ _____    ______ ____

>  <TORSDO>
F 3

$$$$
=
 OpenBabel11052414063D

 34 39  0  0  1  0  0  0  0  0999 V2000
  183.2960  178.6400  142.1990 C   0  0  0  0  0  0  0  0  0  0  0  0
  183.1510  179.3110  139.8700 C   0  0  0  0  0  0  0  0  0  0  0  0
  185.3600  178.5830  140.8730 C   0  0  0  0  0  0  0  0  0  0  0  0
  187.4580  178.2540  139.7030 C   0  0  0  0  0  0  0  0  0  0  0  0
  181.1370  179.0670  141.2010 C   0  0  0  0  0  3  0  0  0  0  0  0
  181.7590  179.3820  139.9970 C   0  0  0  0  0  3  0  0  0  0  0  0
  185.5880  178.0390  138.3200 C   0  0  0  0  0  2  0  0  0  0  0  0
  183.9460  178.8200  140.9440 C   0  0  0  0  0  0  0  0  0  0  0  0
  188.0500  177.9570  138.3840 C   0  0  0  0  0  2  0  0  0  0  0  0
  181.9080  178.7270  142.3070 C   0  0  0  0  0  3  0  0  0  0  0  0
  186.0950  178.4470  142.0890 C   0  0  0  0  0  0  0  0  0  0  0  0
  184.0330  178.4230  143.3590 C   0  0  0  0  0  3  0  0  0  0  0  0
  183.7060  179.8360  138.7130 O   0  0  0  0  0  1  0  0  0  0  0  0
  188.1490  178.2300  140.8650 N   0  0  0  0  0  0  0  0  0  0  0  0
  187.5050  178.3260  142.0600 C   0  0  0  0  0  0  0  0  0  0  0  0
  186.8400  177.9320  137.4460 C   0  0  1  0  0  3  0  0  0  0  0  0
  186.0930  178.3960  139.6730 C   0  0  0  0  0  0  0  0  0  0  0  0
  185.4170  178.3620  143.3090 C   0  0  0  0  0  3  0  0  0  0  0  0
  190.5610  178.5380  144.3700 C   0  0  2  0  0  3  0  0  0  0  0  0
  190.4690  177.1340  144.9610 C   0  0  0  0  0  2  0  0  0  0  0  0
  188.3030  178.2410  143.3280 C   0  0  2  0  0  3  0  0  0  0  0  0
  189.0110  176.7700  145.2260 C   0  0  0  0  0  2  0  0  0  0  0  0
  189.7620  178.6190  143.0730 C   0  0  0  0  0  2  0  0  0  0  0  0
  188.2060  176.8410  143.9330 C   0  0  0  0  0  2  0  0  0  0  0  0
  192.0110  178.8760  144.0920 C   0  0  0  0  0  1  0  0  0  0  0  0
  185.8050  175.7920  136.8250 C   0  0  0  0  0  3  0  0  0  0  0  0
  186.8020  176.6600  136.6650 C   0  0  0  0  0  3  0  0  0  0  0  0
  183.9060  174.9240  134.5960 O   0  0  0  0  0  0  0  0  0  0  0  0
  185.7650  174.5160  136.0420 C   0  0  2  0  0  3  0  0  0  0  0  0
  184.3650  174.2570  135.5590 C   0  0  0  0  0  0  0  0  0  0  0  0
  184.0600  172.3190  137.1520 C   0  0  0  0  0  2  0  0  0  0  0  0
  185.2700  172.8700  137.8960 C   0  0  0  0  0  2  0  0  0  0  0  0
  186.3010  173.3460  136.8770 C   0  0  0  0  0  2  0  0  0  0  0  0
  183.5220  173.3160  136.2330 N   0  0  0  0  0  2  0  0  0  0  0  0
  1 10  1  0  0  0  0
  1 12  1  0  0  0  0
  2  6  2  0  0  0  0
  2  8  1  0  0  0  0
  3  8  1  0  0  0  0
  3 11  1  0  0  0  0
  4 14  2  0  0  0  0
  5 10  2  0  0  0  0
  6  5  1  0  0  0  0
  7 17  1  0  0  0  0
  8  1  2  0  0  0  0
  9  4  1  0  0  0  0
 11 18  1  0  0  0  0
 13  2  1  0  0  0  0
 14 15  1  0  0  0  0
 15 11  2  0  0  0  0
 16 27  1  1  0  0  0
 16  7  1  0  0  0  0
 16  9  1  0  0  0  0
 17  4  1  0  0  0  0
 17  3  2  0  0  0  0
 18 12  2  0  0  0  0
 19 25  1  6  0  0  0
 19 20  1  0  0  0  0
 20 22  1  0  0  0  0
 21 15  1  6  0  0  0
 21 24  1  0  0  0  0
 23 21  1  0  0  0  0
 23 19  1  0  0  0  0
 24 22  1  0  0  0  0
 27 26  2  0  0  0  0
 28 30  2  0  0  0  0
 29 26  1  1  0  0  0
 29 33  1  0  0  0  0
 30 29  1  0  0  0  0
 30 34  1  0  0  0  0
 31 32  1  0  0  0  0
 33 32  1  0  0  0  0
 34 31  1  0  0  0  0
M  END
>  <MODEL>
4

>  <REMARK>
 VINA RESULT:     -10.0      3.183      5.469
  Name = 
  3 active torsions:
  status: ('A' for Active; 'I' for Inactive)
    1  A    between atoms: C_3  and  C_13
    2  A    between atoms: C_12  and  C_28
    3  A    between atoms: C_17  and  C_29
                            x       y       z     vdW  Elec       q    Type
                         _______ _______ _______ _____ _____    ______ ____

>  <TORSDO>
F 3

$$$$
=
 OpenBabel11052414063D

 34 39  0  0  1  0  0  0  0  0999 V2000
  185.5170  178.1800  142.8690 C   0  0  0  0  0  0  0  0  0  0  0  0
  184.7200  179.1030  140.7700 C   0  0  0  0  0  0  0  0  0  0  0  0
  187.1020  178.2730  140.9990 C   0  0  0  0  0  0  0  0  0  0  0  0
  188.7580  178.0790  139.2380 C   0  0  0  0  0  0  0  0  0  0  0  0
  183.1750  178.7110  142.5980 C   0  0  0  0  0  3  0  0  0  0  0  0
  183.4290  179.1570  141.3050 C   0  0  0  0  0  3  0  0  0  0  0  0
  186.5610  178.0130  138.4490 C   0  0  0  0  0  2  0  0  0  0  0  0
  185.7790  178.4980  141.5050 C   0  0  0  0  0  0  0  0  0  0  0  0
  188.9310  177.9290  137.7810 C   0  0  0  0  0  2  0  0  0  0  0  0
  184.2230  178.2530  143.3880 C   0  0  0  0  0  3  0  0  0  0  0  0
  188.1550  178.0050  141.9260 C   0  0  0  0  0  0  0  0  0  0  0  0
  186.5520  177.8390  143.7330 C   0  0  0  0  0  3  0  0  0  0  0  0
  184.9310  179.7530  139.5630 O   0  0  0  0  0  1  0  0  0  0  0  0
  189.7560  177.9280  140.1380 N   0  0  0  0  0  0  0  0  0  0  0  0
  189.4910  177.8910  141.4720 C   0  0  0  0  0  0  0  0  0  0  0  0
  187.5010  178.0050  137.2410 C   0  0  1  0  0  3  0  0  0  0  0  0
  187.4490  178.2210  139.6250 C   0  0  0  0  0  0  0  0  0  0  0  0
  187.8600  177.7860  143.2750 C   0  0  0  0  0  3  0  0  0  0  0  0
  191.8000  176.0010  143.8850 C   0  0  2  0  0  3  0  0  0  0  0  0
  191.6800  176.9540  145.0710 C   0  0  0  0  0  2  0  0  0  0  0  0
  190.6210  177.6690  142.4350 C   0  0  2  0  0  3  0  0  0  0  0  0
  191.6750  178.4000  144.5850 C   0  0  0  0  0  2  0  0  0  0  0  0
  190.6420  176.2170  142.9150 C   0  0  0  0  0  2  0  0  0  0  0  0
  190.5160  178.6280  143.6200 C   0  0  0  0  0  2  0  0  0  0  0  0
  191.7810  174.5710  144.3820 C   0  0  0  0  0  1  0  0  0  0  0  0
  186.2720  175.9390  136.7320 C   0  0  0  0  0  3  0  0  0  0  0  0
  187.1980  176.8270  136.3750 C   0  0  0  0  0  3  0  0  0  0  0  0
  183.9850  175.5010  134.7550 O   0  0  0  0  0  0  0  0  0  0  0  0
  185.9660  174.7560  135.8650 C   0  0  2  0  0  3  0  0  0  0  0  0
  184.4910  174.6990  135.5820 C   0  0  0  0  0  0  0  0  0  0  0  0
  184.1820  172.6600  137.0430 C   0  0  0  0  0  2  0  0  0  0  0  0
  185.5420  173.0020  137.6360 C   0  0  0  0  0  2  0  0  0  0  0  0
  186.4690  173.4600  136.5130 C   0  0  0  0  0  2  0  0  0  0  0  0
  183.6450  173.7940  136.2990 N   0  0  0  0  0  2  0  0  0  0  0  0
  1 10  1  0  0  0  0
  1 12  1  0  0  0  0
  2  6  2  0  0  0  0
  2  8  1  0  0  0  0
  3  8  1  0  0  0  0
  3 11  1  0  0  0  0
  4 17  1  0  0  0  0
  4 14  2  0  0  0  0
  5 10  2  0  0  0  0
  6  5  1  0  0  0  0
  7 17  1  0  0  0  0
  8  1  2  0  0  0  0
  9  4  1  0  0  0  0
 11 18  1  0  0  0  0
 13  2  1  0  0  0  0
 14 15  1  0  0  0  0
 15 11  2  0  0  0  0
 16 27  1  6  0  0  0
 16  9  1  0  0  0  0
 16  7  1  0  0  0  0
 17  3  2  0  0  0  0
 18 12  2  0  0  0  0
 19 25  1  1  0  0  0
 19 20  1  0  0  0  0
 21 15  1  6  0  0  0
 21 23  1  0  0  0  0
 21 24  1  0  0  0  0
 22 20  1  0  0  0  0
 23 19  1  0  0  0  0
 24 22  1  0  0  0  0
 27 26  2  0  0  0  0
 28 30  2  0  0  0  0
 29 33  1  0  0  0  0
 29 26  1  1  0  0  0
 30 29  1  0  0  0  0
 30 34  1  0  0  0  0
 31 32  1  0  0  0  0
 33 32  1  0  0  0  0
 34 31  1  0  0  0  0
M  END
>  <MODEL>
5

>  <REMARK>
 VINA RESULT:      -9.9      3.359      5.342
  Name = 
  3 active torsions:
  status: ('A' for Active; 'I' for Inactive)
    1  A    between atoms: C_3  and  C_13
    2  A    between atoms: C_12  and  C_28
    3  A    between atoms: C_17  and  C_29
                            x       y       z     vdW  Elec       q    Type
                         _______ _______ _______ _____ _____    ______ ____

>  <TORSDO>
F 3

$$$$
=
 OpenBabel11052414063D

 34 39  0  0  1  0  0  0  0  0999 V2000
  185.2770  177.9910  143.1290 C   0  0  0  0  0  0  0  0  0  0  0  0
  185.7740  179.0010  140.9780 C   0  0  0  0  0  0  0  0  0  0  0  0
  187.5850  177.8380  142.3130 C   0  0  0  0  0  0  0  0  0  0  0  0
  189.8620  177.3920  141.6070 C   0  0  0  0  0  0  0  0  0  0  0  0
  183.4820  178.8520  141.7580 C   0  0  0  0  0  3  0  0  0  0  0  0
  184.4080  179.2460  140.7980 C   0  0  0  0  0  3  0  0  0  0  0  0
  188.3750  177.6370  139.8230 C   0  0  0  0  0  2  0  0  0  0  0  0
  186.2290  178.2560  142.1030 C   0  0  0  0  0  0  0  0  0  0  0  0
  190.7250  177.2060  140.4250 C   0  0  0  0  0  2  0  0  0  0  0  0
  183.9200  178.2540  142.9350 C   0  0  0  0  0  3  0  0  0  0  0  0
  187.9830  177.4290  143.6220 C   0  0  0  0  0  0  0  0  0  0  0  0
  185.6810  177.5120  144.3700 C   0  0  0  0  0  3  0  0  0  0  0  0
  186.6450  179.6040  140.0840 O   0  0  0  0  0  1  0  0  0  0  0  0
  190.2410  177.1060  142.8730 N   0  0  0  0  0  0  0  0  0  0  0  0
  189.3370  177.1190  143.8900 C   0  0  0  0  0  0  0  0  0  0  0  0
  189.7860  177.4830  139.2490 C   0  0  1  0  0  3  0  0  0  0  0  0
  188.5670  177.7250  141.2960 C   0  0  0  0  0  0  0  0  0  0  0  0
  187.0220  177.2660  144.6250 C   0  0  0  0  0  3  0  0  0  0  0  0
  189.6360  177.2890  147.7130 C   0  0  2  0  0  3  0  0  0  0  0  0
  191.1600  177.3130  147.7970 C   0  0  0  0  0  2  0  0  0  0  0  0
  189.7880  176.7440  145.2720 C   0  0  2  0  0  3  0  0  0  0  0  0
  191.7600  176.3610  146.7670 C   0  0  0  0  0  2  0  0  0  0  0  0
  189.1790  177.6850  146.3120 C   0  0  0  0  0  2  0  0  0  0  0  0
  191.3140  176.7540  145.3620 C   0  0  0  0  0  2  0  0  0  0  0  0
  189.0570  178.2540  148.7250 C   0  0  0  0  0  1  0  0  0  0  0  0
  188.7030  175.9730  137.6410 C   0  0  0  0  0  3  0  0  0  0  0  0
  189.8120  176.3540  138.2730 C   0  0  0  0  0  3  0  0  0  0  0  0
  189.4420  175.9660  134.6770 O   0  0  0  0  0  0  0  0  0  0  0  0
  188.7270  174.8400  136.6620 C   0  0  2  0  0  3  0  0  0  0  0  0
  188.5080  175.3650  135.2700 C   0  0  0  0  0  0  0  0  0  0  0  0
  186.2020  174.3410  135.1320 C   0  0  0  0  0  2  0  0  0  0  0  0
  186.2790  174.2100  136.6470 C   0  0  0  0  0  2  0  0  0  0  0  0
  187.6890  173.7740  137.0340 C   0  0  0  0  0  2  0  0  0  0  0  0
  187.2260  175.2560  134.6420 N   0  0  0  0  0  2  0  0  0  0  0  0
  1 12  1  0  0  0  0
  2  8  1  0  0  0  0
  3 11  1  0  0  0  0
  4 14  2  0  0  0  0
  5 10  2  0  0  0  0
  6  2  2  0  0  0  0
  6  5  1  0  0  0  0
  7 17  1  0  0  0  0
  8  3  1  0  0  0  0
  8  1  2  0  0  0  0
  9  4  1  0  0  0  0
 10  1  1  0  0  0  0
 11 15  2  0  0  0  0
 11 18  1  0  0  0  0
 12 18  2  0  0  0  0
 13  2  1  0  0  0  0
 14 15  1  0  0  0  0
 16 27  1  6  0  0  0
 16  7  1  0  0  0  0
 16  9  1  0  0  0  0
 17  4  1  0  0  0  0
 17  3  2  0  0  0  0
 19 20  1  0  0  0  0
 19 25  1  1  0  0  0
 21 15  1  6  0  0  0
 21 24  1  0  0  0  0
 21 23  1  0  0  0  0
 22 20  1  0  0  0  0
 23 19  1  0  0  0  0
 24 22  1  0  0  0  0
 26 27  2  0  0  0  0
 28 30  2  0  0  0  0
 29 33  1  0  0  0  0
 29 26  1  1  0  0  0
 30 29  1  0  0  0  0
 31 32  1  0  0  0  0
 32 33  1  0  0  0  0
 34 31  1  0  0  0  0
 34 30  1  0  0  0  0
M  END
>  <MODEL>
6

>  <REMARK>
 VINA RESULT:      -9.8      3.564      7.042
  Name = 
  3 active torsions:
  status: ('A' for Active; 'I' for Inactive)
    1  A    between atoms: C_3  and  C_13
    2  A    between atoms: C_12  and  C_28
    3  A    between atoms: C_17  and  C_29
                            x       y       z     vdW  Elec       q    Type
                         _______ _______ _______ _____ _____    ______ ____

>  <TORSDO>
F 3

$$$$
=
 OpenBabel11052414063D

 34 39  0  0  1  0  0  0  0  0999 V2000
  187.2470  176.8840  136.4790 C   0  0  0  0  0  0  0  0  0  0  0  0
  188.6610  178.0400  138.0800 C   0  0  0  0  0  0  0  0  0  0  0  0
  186.1440  178.0010  138.3650 C   0  0  0  0  0  0  0  0  0  0  0  0
  184.8740  178.8510  140.2470 C   0  0  0  0  0  0  0  0  0  0  0  0
  189.6500  176.6770  136.3340 C   0  0  0  0  0  3  0  0  0  0  0  0
  189.7860  177.5200  137.4320 C   0  0  0  0  0  3  0  0  0  0  0  0
  187.0740  178.2950  140.7960 C   0  0  0  0  0  2  0  0  0  0  0  0
  187.3540  177.6340  137.6860 C   0  0  0  0  0  0  0  0  0  0  0  0
  184.9520  179.1750  141.6850 C   0  0  0  0  0  2  0  0  0  0  0  0
  188.3830  176.3850  135.8410 C   0  0  0  0  0  3  0  0  0  0  0  0
  184.9000  177.8460  137.6820 C   0  0  0  0  0  0  0  0  0  0  0  0
  186.0110  176.6740  135.8780 C   0  0  0  0  0  3  0  0  0  0  0  0
  188.8780  179.0290  139.0260 O   0  0  0  0  0  1  0  0  0  0  0  0
  183.7190  178.7910  139.5470 N   0  0  0  0  0  0  0  0  0  0  0  0
  183.7000  178.3030  138.2770 C   0  0  0  0  0  0  0  0  0  0  0  0
  186.4230  178.9280  142.0290 C   0  0  1  0  0  3  0  0  0  0  0  0
  186.0700  178.4470  139.7090 C   0  0  0  0  0  0  0  0  0  0  0  0
  184.8550  177.1780  136.4540 C   0  0  0  0  0  3  0  0  0  0  0  0
  180.3220  179.4300  136.8460 C   0  0  2  0  0  3  0  0  0  0  0  0
  179.4630  178.3250  137.4560 C   0  0  0  0  0  2  0  0  0  0  0  0
  182.3880  178.2030  137.5530 C   0  0  2  0  0  3  0  0  0  0  0  0
  180.2020  176.9920  137.4000 C   0  0  0  0  0  2  0  0  0  0  0  0
  181.6480  179.5400  137.5920 C   0  0  0  0  0  2  0  0  0  0  0  0
  181.5270  177.0910  138.1500 C   0  0  0  0  0  2  0  0  0  0  0  0
  179.5840  180.7490  136.9300 C   0  0  0  0  0  1  0  0  0  0  0  0
  186.2160  178.4050  144.4210 C   0  0  0  0  0  3  0  0  0  0  0  0
  186.5460  178.0030  143.1940 C   0  0  0  0  0  3  0  0  0  0  0  0
  184.8090  178.4810  147.1310 O   0  0  0  0  0  0  0  0  0  0  0  0
  186.3380  177.4780  145.5910 C   0  0  2  0  0  3  0  0  0  0  0  0
  186.0090  178.2130  146.8600 C   0  0  0  0  0  0  0  0  0  0  0  0
  188.4140  178.1720  147.6340 C   0  0  0  0  0  2  0  0  0  0  0  0
  188.7680  177.8360  146.1910 C   0  0  0  0  0  2  0  0  0  0  0  0
  187.7370  176.8510  145.6470 C   0  0  0  0  0  2  0  0  0  0  0  0
  187.0500  178.6800  147.7250 N   0  0  0  0  0  2  0  0  0  0  0  0
  1  8  1  0  0  0  0
  2 13  1  0  0  0  0
  3 17  1  0  0  0  0
  4  9  1  0  0  0  0
  5  6  1  0  0  0  0
  6  2  2  0  0  0  0
  7 16  1  0  0  0  0
  8  2  1  0  0  0  0
  8  3  2  0  0  0  0
  9 16  1  0  0  0  0
 10  5  2  0  0  0  0
 10  1  1  0  0  0  0
 11 15  1  0  0  0  0
 11  3  1  0  0  0  0
 12 18  1  0  0  0  0
 12  1  2  0  0  0  0
 14  4  1  0  0  0  0
 15 14  2  0  0  0  0
 16 27  1  1  0  0  0
 17  4  2  0  0  0  0
 17  7  1  0  0  0  0
 18 11  2  0  0  0  0
 19 25  1  1  0  0  0
 19 20  1  0  0  0  0
 19 23  1  0  0  0  0
 21 23  1  0  0  0  0
 21 24  1  0  0  0  0
 21 15  1  1  0  0  0
 22 20  1  0  0  0  0
 22 24  1  0  0  0  0
 27 26  2  0  0  0  0
 29 26  1  6  0  0  0
 29 33  1  0  0  0  0
 29 30  1  0  0  0  0
 30 28  2  0  0  0  0
 30 34  1  0  0  0  0
 31 34  1  0  0  0  0
 32 31  1  0  0  0  0
 33 32  1  0  0  0  0
M  END
>  <MODEL>
7

>  <REMARK>
 VINA RESULT:      -9.6      2.734      8.157
  Name = 
  3 active torsions:
  status: ('A' for Active; 'I' for Inactive)
    1  A    between atoms: C_3  and  C_13
    2  A    between atoms: C_12  and  C_28
    3  A    between atoms: C_17  and  C_29
                            x       y       z     vdW  Elec       q    Type
                         _______ _______ _______ _____ _____    ______ ____

>  <TORSDO>
F 3

$$$$
=
 OpenBabel11052414063D

 34 39  0  0  1  0  0  0  0  0999 V2000
  185.0570  177.2580  136.0570 C   0  0  0  0  0  0  0  0  0  0  0  0
  187.2300  178.1440  136.6810 C   0  0  0  0  0  0  0  0  0  0  0  0
  185.2890  178.2090  138.3070 C   0  0  0  0  0  0  0  0  0  0  0  0
  185.3510  178.9030  140.6290 C   0  0  0  0  0  0  0  0  0  0  0  0
  186.9540  176.9390  134.5940 C   0  0  0  0  0  3  0  0  0  0  0  0
  187.7570  177.6420  135.4860 C   0  0  0  0  0  3  0  0  0  0  0  0
  187.4200  178.1700  139.8310 C   0  0  0  0  0  2  0  0  0  0  0  0
  185.8850  177.8570  137.0500 C   0  0  0  0  0  0  0  0  0  0  0  0
  186.2340  179.0550  141.8020 C   0  0  0  0  0  2  0  0  0  0  0  0
  185.6000  176.7750  134.8650 C   0  0  0  0  0  3  0  0  0  0  0  0
  183.8660  178.2000  138.4180 C   0  0  0  0  0  0  0  0  0  0  0  0
  183.6790  177.1860  136.2270 C   0  0  0  0  0  3  0  0  0  0  0  0
  188.0340  179.0050  137.4120 O   0  0  0  0  0  1  0  0  0  0  0  0
  184.0030  178.9860  140.6820 N   0  0  0  0  0  0  0  0  0  0  0  0
  183.2420  178.6490  139.6060 C   0  0  0  0  0  0  0  0  0  0  0  0
  187.6180  178.6910  141.2570 C   0  0  1  0  0  3  0  0  0  0  0  0
  186.0090  178.5000  139.4940 C   0  0  0  0  0  0  0  0  0  0  0  0
  183.0870  177.6820  137.3790 C   0  0  0  0  0  3  0  0  0  0  0  0
  179.7230  180.1800  139.6570 C   0  0  2  0  0  3  0  0  0  0  0  0
  179.2770  179.6220  141.0060 C   0  0  0  0  0  2  0  0  0  0  0  0
  181.7460  178.7050  139.7240 C   0  0  2  0  0  3  0  0  0  0  0  0
  179.7690  178.1870  141.1700 C   0  0  0  0  0  2  0  0  0  0  0  0
  181.2440  180.1380  139.5450 C   0  0  0  0  0  2  0  0  0  0  0  0
  181.2900  178.1360  141.0670 C   0  0  0  0  0  2  0  0  0  0  0  0
  179.2470  181.6110  139.5190 C   0  0  0  0  0  1  0  0  0  0  0  0
  188.1930  177.6870  143.4250 C   0  0  0  0  0  3  0  0  0  0  0  0
  188.2550  177.6330  142.0960 C   0  0  0  0  0  3  0  0  0  0  0  0
  187.9730  177.1810  146.4290 O   0  0  0  0  0  0  0  0  0  0  0  0
  188.8310  176.6260  144.2680 C   0  0  2  0  0  3  0  0  0  0  0  0
  188.9820  177.1190  145.6800 C   0  0  0  0  0  0  0  0  0  0  0  0
  191.4940  177.2910  145.4640 C   0  0  0  0  0  2  0  0  0  0  0  0
  191.2690  177.2180  143.9590 C   0  0  0  0  0  2  0  0  0  0  0  0
  190.1770  176.1920  143.6730 C   0  0  0  0  0  2  0  0  0  0  0  0
  190.2460  177.5920  146.1570 N   0  0  0  0  0  2  0  0  0  0  0  0
  1 12  2  0  0  0  0
  1  8  1  0  0  0  0
  2  8  1  0  0  0  0
  2 13  1  0  0  0  0
  3 11  1  0  0  0  0
  3 17  1  0  0  0  0
  4 14  1  0  0  0  0
  4  9  1  0  0  0  0
  5 10  2  0  0  0  0
  5  6  1  0  0  0  0
  6  2  2  0  0  0  0
  7 16  1  0  0  0  0
  8  3  2  0  0  0  0
 10  1  1  0  0  0  0
 11 15  1  0  0  0  0
 12 18  1  0  0  0  0
 15 14  2  0  0  0  0
 16  9  1  0  0  0  0
 16 27  1  1  0  0  0
 17  7  1  0  0  0  0
 17  4  2  0  0  0  0
 18 11  2  0  0  0  0
 19 25  1  1  0  0  0
 19 20  1  0  0  0  0
 20 22  1  0  0  0  0
 21 15  1  1  0  0  0
 21 24  1  0  0  0  0
 23 19  1  0  0  0  0
 23 21  1  0  0  0  0
 24 22  1  0  0  0  0
 27 26  2  0  0  0  0
 29 26  1  6  0  0  0
 29 30  1  0  0  0  0
 30 34  1  0  0  0  0
 30 28  2  0  0  0  0
 31 34  1  0  0  0  0
 32 31  1  0  0  0  0
 33 32  1  0  0  0  0
 33 29  1  0  0  0  0
M  END
>  <MODEL>
8

>  <REMARK>
 VINA RESULT:      -9.6      3.160      8.874
  Name = 
  3 active torsions:
  status: ('A' for Active; 'I' for Inactive)
    1  A    between atoms: C_3  and  C_13
    2  A    between atoms: C_12  and  C_28
    3  A    between atoms: C_17  and  C_29
                            x       y       z     vdW  Elec       q    Type
                         _______ _______ _______ _____ _____    ______ ____

>  <TORSDO>
F 3

$$$$
=
 OpenBabel11052414063D

 34 39  0  0  1  0  0  0  0  0999 V2000
  182.9860  178.6840  141.5940 C   0  0  0  0  0  0  0  0  0  0  0  0
  183.5530  179.7700  139.4980 C   0  0  0  0  0  0  0  0  0  0  0  0
  185.3310  178.6080  140.8770 C   0  0  0  0  0  0  0  0  0  0  0  0
  187.6460  178.2360  140.2610 C   0  0  0  0  0  0  0  0  0  0  0  0
  181.2330  179.5440  140.1700 C   0  0  0  0  0  3  0  0  0  0  0  0
  182.1910  179.9880  139.2640 C   0  0  0  0  0  3  0  0  0  0  0  0
  186.2340  178.5010  138.4210 C   0  0  0  0  0  2  0  0  0  0  0  0
  183.9750  179.0010  140.6190 C   0  0  0  0  0  0  0  0  0  0  0  0
  188.5650  178.1050  139.1140 C   0  0  0  0  0  2  0  0  0  0  0  0
  181.6330  178.9210  141.3480 C   0  0  0  0  0  3  0  0  0  0  0  0
  185.6800  178.1690  142.1910 C   0  0  0  0  0  0  0  0  0  0  0  0
  183.3460  178.1760  142.8380 C   0  0  0  0  0  3  0  0  0  0  0  0
  184.4480  180.4190  138.6610 O   0  0  0  0  0  1  0  0  0  0  0  0
  187.9760  177.9200  141.5340 N   0  0  0  0  0  0  0  0  0  0  0  0
  187.0290  177.8820  142.5100 C   0  0  0  0  0  0  0  0  0  0  0  0
  187.6720  178.3970  137.9060 C   0  0  1  0  0  3  0  0  0  0  0  0
  186.3590  178.5480  139.9030 C   0  0  0  0  0  0  0  0  0  0  0  0
  184.6810  177.9540  143.1440 C   0  0  0  0  0  3  0  0  0  0  0  0
  187.0630  177.8600  146.3480 C   0  0  2  0  0  3  0  0  0  0  0  0
  188.5670  178.0350  146.5390 C   0  0  0  0  0  2  0  0  0  0  0  0
  187.4270  177.4760  143.8990 C   0  0  2  0  0  3  0  0  0  0  0  0
  189.3290  177.2100  145.5060 C   0  0  0  0  0  2  0  0  0  0  0  0
  186.6560  178.2880  144.9400 C   0  0  0  0  0  2  0  0  0  0  0  0
  188.9340  177.6370  144.0960 C   0  0  0  0  0  2  0  0  0  0  0  0
  186.3210  178.7010  147.3650 C   0  0  0  0  0  1  0  0  0  0  0  0
  187.3870  176.0590  137.2050 C   0  0  0  0  0  3  0  0  0  0  0  0
  187.7680  177.2980  136.9000 C   0  0  0  0  0  3  0  0  0  0  0  0
  186.4910  173.1460  137.4030 O   0  0  0  0  0  0  0  0  0  0  0  0
  187.4820  174.9560  136.1960 C   0  0  2  0  0  3  0  0  0  0  0  0
  187.5380  173.6270  136.8980 C   0  0  0  0  0  0  0  0  0  0  0  0
  189.9630  173.2820  136.2760 C   0  0  0  0  0  2  0  0  0  0  0  0
  189.9930  174.7730  135.9700 C   0  0  0  0  0  2  0  0  0  0  0  0
  188.6910  175.1610  135.2750 C   0  0  0  0  0  2  0  0  0  0  0  0
  188.7840  172.9420  137.0650 N   0  0  0  0  0  2  0  0  0  0  0  0
  1 12  1  0  0  0  0
  2  8  1  0  0  0  0
  3 11  1  0  0  0  0
  4 14  2  0  0  0  0
  5 10  2  0  0  0  0
  6  2  2  0  0  0  0
  6  5  1  0  0  0  0
  7 17  1  0  0  0  0
  8  3  1  0  0  0  0
  8  1  2  0  0  0  0
  9  4  1  0  0  0  0
 10  1  1  0  0  0  0
 11 15  2  0  0  0  0
 11 18  1  0  0  0  0
 12 18  2  0  0  0  0
 13  2  1  0  0  0  0
 14 15  1  0  0  0  0
 16 27  1  6  0  0  0
 16  7  1  0  0  0  0
 16  9  1  0  0  0  0
 17  4  1  0  0  0  0
 17  3  2  0  0  0  0
 19 20  1  0  0  0  0
 19 25  1  1  0  0  0
 21 15  1  6  0  0  0
 21 24  1  0  0  0  0
 21 23  1  0  0  0  0
 22 20  1  0  0  0  0
 23 19  1  0  0  0  0
 24 22  1  0  0  0  0
 27 26  2  0  0  0  0
 29 30  1  0  0  0  0
 29 26  1  1  0  0  0
 30 34  1  0  0  0  0
 30 28  2  0  0  0  0
 31 34  1  0  0  0  0
 32 31  1  0  0  0  0
 33 32  1  0  0  0  0
 33 29  1  0  0  0  0
M  END
>  <MODEL>
9

>  <REMARK>
 VINA RESULT:      -9.5      3.002      6.790
  Name = 
  3 active torsions:
  status: ('A' for Active; 'I' for Inactive)
    1  A    between atoms: C_3  and  C_13
    2  A    between atoms: C_12  and  C_28
    3  A    between atoms: C_17  and  C_29
                            x       y       z     vdW  Elec       q    Type
                         _______ _______ _______ _____ _____    ______ ____

>  <TORSDO>
F 3

$$$$
