=
 OpenBabel11052414233D

 34 39  0  0  1  0  0  0  0  0999 V2000
  189.5080  177.2600  146.7280 C   0  0  0  0  0  0  0  0  0  0  0  0
  191.3300  176.2550  145.4650 C   0  0  0  0  0  0  0  0  0  0  0  0
  189.2370  177.0640  144.3080 C   0  0  0  0  0  0  0  0  0  0  0  0
  188.7060  176.9210  141.8250 C   0  0  2  0  0  3  0  0  0  0  0  0
  190.2930  177.2290  147.8810 C   0  0  0  0  0  3  0  0  0  0  0  0
  192.0950  176.2280  146.6350 C   0  0  0  0  0  3  0  0  0  0  0  0
  190.9690  177.6040  142.6320 C   0  0  0  0  0  3  0  0  0  0  0  0
  190.0450  176.8690  145.4700 C   0  0  0  0  0  0  0  0  0  0  0  0
  191.4400  177.8280  141.2270 C   0  0  0  0  0  2  0  0  0  0  0  0
  189.2160  177.1660  140.3960 C   0  0  0  0  0  2  0  0  0  0  0  0
  191.5950  176.7410  147.8290 C   0  0  0  0  0  3  0  0  0  0  0  0
  187.8640  177.3690  144.4590 C   0  0  0  0  0  0  0  0  0  0  0  0
  188.1710  177.6340  146.8460 C   0  0  0  0  0  3  0  0  0  0  0  0
  191.9320  175.2420  144.1570 Cl  0  0  0  0  0  0  0  0  0  0  0  0
  187.6140  177.7730  142.0700 O   0  0  0  0  0  0  0  0  0  0  0  0
  186.9580  177.3120  143.2320 C   0  0  2  0  0  3  0  0  0  0  0  0
  190.7080  176.8940  140.2710 C   0  0  1  0  0  3  0  0  0  0  0  0
  189.7440  177.1370  142.9140 C   0  0  0  0  0  0  0  0  0  0  0  0
  187.3450  177.6460  145.7290 C   0  0  0  0  0  3  0  0  0  0  0  0
  183.5220  178.7420  142.5050 C   0  0  0  0  0  0  0  0  0  0  0  0
  183.2230  179.3880  143.7080 C   0  0  0  0  0  3  0  0  0  0  0  0
  185.6630  178.0490  143.4050 C   0  0  0  0  0  0  0  0  0  0  0  0
  184.1410  179.3640  144.7620 C   0  0  0  0  0  3  0  0  0  0  0  0
  184.7400  178.0720  142.3540 C   0  0  0  0  0  3  0  0  0  0  0  0
  185.3580  178.6950  144.6130 C   0  0  0  0  0  3  0  0  0  0  0  0
  182.3710  178.7700  141.1870 Cl  0  0  0  0  0  0  0  0  0  0  0  0
  191.1340  177.1540  138.9070 N   0  0  0  0  0  2  0  0  0  0  0  0
  192.4930  176.8140  138.8310 N   0  0  0  0  0  2  0  0  0  0  0  0
  191.4330  175.5950  137.0020 C   0  0  0  0  0  2  0  0  0  0  0  0
  194.9280  175.2690  137.7650 N   0  0  0  0  0  2  0  0  0  0  0  0
  193.6560  175.1200  137.6050 C   0  0  0  0  0  0  0  0  0  0  0  0
  191.6800  174.0820  136.9560 C   0  0  0  0  0  3  0  0  0  0  0  0
  192.7170  176.2540  137.5070 C   0  0  2  0  0  3  0  0  0  0  0  0
  193.0870  173.8820  137.2410 N   0  0  0  0  0  0  0  0  0  0  0  0
  1 13  1  0  0  0  0
  1  5  2  0  0  0  0
  2  8  2  0  0  0  0
  2  6  1  0  0  0  0
  3 12  2  0  0  0  0
  3  8  1  0  0  0  0
  4 10  1  6  0  0  0
  4 15  1  0  0  0  0
  4 18  1  0  0  0  0
  6 11  2  0  0  0  0
  7 18  2  0  0  0  0
  8  1  1  0  0  0  0
  9  7  1  0  0  0  0
 11  5  1  0  0  0  0
 12 19  1  0  0  0  0
 14  2  1  0  0  0  0
 15 16  1  0  0  0  0
 16 22  1  1  0  0  0
 16 12  1  0  0  0  0
 17 27  1  6  0  0  0
 17 10  1  0  0  0  0
 17  9  1  0  0  0  0
 18  3  1  0  0  0  0
 19 13  2  0  0  0  0
 20 21  1  0  0  0  0
 21 23  2  0  0  0  0
 22 25  2  0  0  0  0
 24 20  2  0  0  0  0
 24 22  1  0  0  0  0
 25 23  1  0  0  0  0
 26 20  1  0  0  0  0
 28 27  1  0  0  0  0
 29 33  1  0  0  0  0
 31 30  2  0  0  0  0
 32 29  1  0  0  0  0
 32 34  2  0  0  0  0
 33 31  1  0  0  0  0
 33 28  1  1  0  0  0
 34 31  1  0  0  0  0
M  END
>  <MODEL>
1

>  <REMARK>
 VINA RESULT:     -11.4      0.000      0.000
  Name = 
  4 active torsions:
  status: ('A' for Active; 'I' for Inactive)
    1  A    between atoms: N_3  and  N_13
    2  A    between atoms: N_3  and  C_29
    3  A    between atoms: C_12  and  C_28
    4  A    between atoms: N_13  and  C_33
                            x       y       z     vdW  Elec       q    Type
                         _______ _______ _______ _____ _____    ______ ____

>  <TORSDO>
F 4

$$$$
=
 OpenBabel11052414233D

 34 39  0  0  1  0  0  0  0  0999 V2000
  189.5060  177.2500  146.7310 C   0  0  0  0  0  0  0  0  0  0  0  0
  191.3200  176.2660  145.4390 C   0  0  0  0  0  0  0  0  0  0  0  0
  189.2090  177.0730  144.3130 C   0  0  0  0  0  0  0  0  0  0  0  0
  188.6510  176.9480  141.8350 C   0  0  2  0  0  3  0  0  0  0  0  0
  190.3050  177.2140  147.8750 C   0  0  0  0  0  3  0  0  0  0  0  0
  192.0980  176.2330  146.6000 C   0  0  0  0  0  3  0  0  0  0  0  0
  190.9190  177.6370  142.6220 C   0  0  0  0  0  3  0  0  0  0  0  0
  190.0310  176.8720  145.4640 C   0  0  0  0  0  0  0  0  0  0  0  0
  191.3720  177.8750  141.2140 C   0  0  0  0  0  2  0  0  0  0  0  0
  189.1430  177.2080  140.4030 C   0  0  0  0  0  2  0  0  0  0  0  0
  191.6090  176.7330  147.8040 C   0  0  0  0  0  3  0  0  0  0  0  0
  187.8360  177.3690  144.4820 C   0  0  0  0  0  0  0  0  0  0  0  0
  188.1690  177.6160  146.8670 C   0  0  0  0  0  3  0  0  0  0  0  0
  191.9120  175.2670  144.1150 Cl  0  0  0  0  0  0  0  0  0  0  0  0
  187.5560  177.7920  142.1000 O   0  0  0  0  0  0  0  0  0  0  0  0
  186.9160  177.3170  143.2650 C   0  0  2  0  0  3  0  0  0  0  0  0
  190.6350  176.9460  140.2580 C   0  0  1  0  0  3  0  0  0  0  0  0
  189.6990  177.1610  142.9140 C   0  0  0  0  0  0  0  0  0  0  0  0
  187.3300  177.6320  145.7600 C   0  0  0  0  0  3  0  0  0  0  0  0
  183.4730  178.7510  142.5820 C   0  0  0  0  0  0  0  0  0  0  0  0
  183.1760  179.3680  143.8000 C   0  0  0  0  0  3  0  0  0  0  0  0
  185.6190  178.0460  143.4590 C   0  0  0  0  0  0  0  0  0  0  0  0
  184.0970  179.3240  144.8510 C   0  0  0  0  0  3  0  0  0  0  0  0
  184.6920  178.0890  142.4120 C   0  0  0  0  0  3  0  0  0  0  0  0
  185.3160  178.6630  144.6820 C   0  0  0  0  0  3  0  0  0  0  0  0
  182.3180  178.8050  141.2690 Cl  0  0  0  0  0  0  0  0  0  0  0  0
  191.0440  177.2200  138.8920 N   0  0  0  0  0  2  0  0  0  0  0  0
  191.5060  176.0100  138.3530 N   0  0  0  0  0  2  0  0  0  0  0  0
  190.0280  177.0820  136.7330 C   0  0  0  0  0  2  0  0  0  0  0  0
  190.0250  173.5330  137.2910 N   0  0  0  0  0  2  0  0  0  0  0  0
  189.7730  174.7980  137.2320 C   0  0  0  0  0  0  0  0  0  0  0  0
  188.5400  176.7260  136.8260 C   0  0  0  0  0  3  0  0  0  0  0  0
  190.8240  175.8230  137.0820 C   0  0  2  0  0  3  0  0  0  0  0  0
  188.4680  175.2930  137.0360 N   0  0  0  0  0  0  0  0  0  0  0  0
  1 13  1  0  0  0  0
  1  5  2  0  0  0  0
  2  8  2  0  0  0  0
  2  6  1  0  0  0  0
  3 12  2  0  0  0  0
  3  8  1  0  0  0  0
  4 10  1  6  0  0  0
  4 15  1  0  0  0  0
  4 18  1  0  0  0  0
  6 11  2  0  0  0  0
  7 18  2  0  0  0  0
  8  1  1  0  0  0  0
  9  7  1  0  0  0  0
 11  5  1  0  0  0  0
 12 19  1  0  0  0  0
 14  2  1  0  0  0  0
 15 16  1  0  0  0  0
 16 22  1  1  0  0  0
 16 12  1  0  0  0  0
 17 27  1  6  0  0  0
 17 10  1  0  0  0  0
 17  9  1  0  0  0  0
 18  3  1  0  0  0  0
 19 13  2  0  0  0  0
 20 21  1  0  0  0  0
 21 23  2  0  0  0  0
 22 25  2  0  0  0  0
 24 20  2  0  0  0  0
 24 22  1  0  0  0  0
 25 23  1  0  0  0  0
 26 20  1  0  0  0  0
 28 27  1  0  0  0  0
 29 32  1  0  0  0  0
 29 33  1  0  0  0  0
 31 30  2  0  0  0  0
 32 34  2  0  0  0  0
 33 31  1  0  0  0  0
 33 28  1  1  0  0  0
 34 31  1  0  0  0  0
M  END
>  <MODEL>
2

>  <REMARK>
 VINA RESULT:     -11.4      1.128      1.654
  Name = 
  4 active torsions:
  status: ('A' for Active; 'I' for Inactive)
    1  A    between atoms: N_3  and  N_13
    2  A    between atoms: N_3  and  C_29
    3  A    between atoms: C_12  and  C_28
    4  A    between atoms: N_13  and  C_33
                            x       y       z     vdW  Elec       q    Type
                         _______ _______ _______ _____ _____    ______ ____

>  <TORSDO>
F 4

$$$$
=
 OpenBabel11052414233D

 34 39  0  0  1  0  0  0  0  0999 V2000
  189.0630  177.1070  145.5000 C   0  0  0  0  0  0  0  0  0  0  0  0
  186.9540  178.2550  145.8990 C   0  0  0  0  0  0  0  0  0  0  0  0
  187.8550  177.9670  143.5580 C   0  0  0  0  0  0  0  0  0  0  0  0
  186.8120  178.8150  141.4000 C   0  0  2  0  0  3  0  0  0  0  0  0
  189.1260  176.7600  146.8500 C   0  0  0  0  0  3  0  0  0  0  0  0
  187.0440  177.9020  147.2490 C   0  0  0  0  0  3  0  0  0  0  0  0
  185.4230  177.7510  143.1820 C   0  0  0  0  0  3  0  0  0  0  0  0
  187.9220  177.7740  144.9720 C   0  0  0  0  0  0  0  0  0  0  0  0
  184.1890  177.8740  142.3410 C   0  0  0  0  0  2  0  0  0  0  0  0
  185.5310  178.9210  140.5580 C   0  0  0  0  0  2  0  0  0  0  0  0
  188.1050  177.1320  147.7180 C   0  0  0  0  0  3  0  0  0  0  0  0
  189.0100  177.7510  142.7710 C   0  0  0  0  0  0  0  0  0  0  0  0
  190.1620  176.8290  144.6910 C   0  0  0  0  0  3  0  0  0  0  0  0
  185.7910  179.5270  145.5370 Cl  0  0  0  0  0  0  0  0  0  0  0  0
  187.7480  178.0250  140.7070 O   0  0  0  0  0  0  0  0  0  0  0  0
  189.0070  178.2120  141.3160 C   0  0  2  0  0  3  0  0  0  0  0  0
  184.2920  179.0880  141.4270 C   0  0  1  0  0  3  0  0  0  0  0  0
  186.6130  178.2280  142.7870 C   0  0  0  0  0  0  0  0  0  0  0  0
  190.1540  177.1880  143.3490 C   0  0  0  0  0  3  0  0  0  0  0  0
  190.6800  176.1800  138.5870 C   0  0  0  0  0  0  0  0  0  0  0  0
  192.0340  176.3780  138.8750 C   0  0  0  0  0  3  0  0  0  0  0  0
  190.0720  177.5670  140.4780 C   0  0  0  0  0  0  0  0  0  0  0  0
  192.4090  177.1720  139.9620 C   0  0  0  0  0  3  0  0  0  0  0  0
  189.7010  176.7750  139.3860 C   0  0  0  0  0  3  0  0  0  0  0  0
  191.4310  177.7670  140.7620 C   0  0  0  0  0  3  0  0  0  0  0  0
  190.2110  175.1880  137.2240 Cl  0  0  0  0  0  0  0  0  0  0  0  0
  183.1150  179.1690  140.5810 N   0  0  0  0  0  2  0  0  0  0  0  0
  182.1820  178.2540  141.0900 N   0  0  0  0  0  2  0  0  0  0  0  0
  180.9540  179.3770  142.8750 C   0  0  0  0  0  2  0  0  0  0  0  0
  179.3050  177.7730  140.1160 N   0  0  0  0  0  2  0  0  0  0  0  0
  179.7980  178.1220  141.2570 C   0  0  0  0  0  0  0  0  0  0  0  0
  179.8250  178.5770  143.5360 C   0  0  0  0  0  3  0  0  0  0  0  0
  180.9740  179.0050  141.3920 C   0  0  2  0  0  3  0  0  0  0  0  0
  179.1050  177.9140  142.4680 N   0  0  0  0  0  0  0  0  0  0  0  0
  1  5  2  0  0  0  0
  2  6  1  0  0  0  0
  3  8  1  0  0  0  0
  4 10  1  6  0  0  0
  4 18  1  0  0  0  0
  5 11  1  0  0  0  0
  6 11  2  0  0  0  0
  8  1  1  0  0  0  0
  8  2  2  0  0  0  0
  9  7  1  0  0  0  0
 10 17  1  0  0  0  0
 12 19  1  0  0  0  0
 12  3  2  0  0  0  0
 13  1  1  0  0  0  0
 14  2  1  0  0  0  0
 15 16  1  0  0  0  0
 15  4  1  0  0  0  0
 16 22  1  6  0  0  0
 16 12  1  0  0  0  0
 17 27  1  6  0  0  0
 17  9  1  0  0  0  0
 18  7  2  0  0  0  0
 18  3  1  0  0  0  0
 19 13  2  0  0  0  0
 20 21  2  0  0  0  0
 20 24  1  0  0  0  0
 21 23  1  0  0  0  0
 22 25  1  0  0  0  0
 23 25  2  0  0  0  0
 24 22  2  0  0  0  0
 26 20  1  0  0  0  0
 27 28  1  0  0  0  0
 29 32  1  0  0  0  0
 30 31  2  0  0  0  0
 31 33  1  0  0  0  0
 31 34  1  0  0  0  0
 33 28  1  1  0  0  0
 33 29  1  0  0  0  0
 34 32  2  0  0  0  0
M  END
>  <MODEL>
3

>  <REMARK>
 VINA RESULT:     -10.1      4.270      8.123
  Name = 
  4 active torsions:
  status: ('A' for Active; 'I' for Inactive)
    1  A    between atoms: N_3  and  N_13
    2  A    between atoms: N_3  and  C_29
    3  A    between atoms: C_12  and  C_28
    4  A    between atoms: N_13  and  C_33
                            x       y       z     vdW  Elec       q    Type
                         _______ _______ _______ _____ _____    ______ ____

>  <TORSDO>
F 4

$$$$
=
 OpenBabel11052414233D

 34 39  0  0  1  0  0  0  0  0999 V2000
  187.1640  177.6400  144.6970 C   0  0  0  0  0  0  0  0  0  0  0  0
  185.0340  178.8190  144.6590 C   0  0  0  0  0  0  0  0  0  0  0  0
  186.2840  178.3210  142.5220 C   0  0  0  0  0  0  0  0  0  0  0  0
  185.6000  178.9700  140.1600 C   0  0  2  0  0  3  0  0  0  0  0  0
  187.0120  177.4170  146.0670 C   0  0  0  0  0  3  0  0  0  0  0  0
  184.9090  178.5900  146.0320 C   0  0  0  0  0  3  0  0  0  0  0  0
  183.9370  178.0710  141.7930 C   0  0  0  0  0  3  0  0  0  0  0  0
  186.1280  178.2560  143.9410 C   0  0  0  0  0  0  0  0  0  0  0  0
  182.8500  178.1170  140.7630 C   0  0  0  0  0  2  0  0  0  0  0  0
  184.4660  178.9980  139.1240 C   0  0  0  0  0  2  0  0  0  0  0  0
  185.8740  177.8650  146.7280 C   0  0  0  0  0  3  0  0  0  0  0  0
  187.5440  178.0340  141.9470 C   0  0  0  0  0  0  0  0  0  0  0  0
  188.3710  177.2910  144.0970 C   0  0  0  0  0  3  0  0  0  0  0  0
  183.9600  180.0530  144.0080 Cl  0  0  0  0  0  0  0  0  0  0  0  0
  186.6200  178.1200  139.6950 O   0  0  0  0  0  0  0  0  0  0  0  0
  187.7730  178.3620  140.4740 C   0  0  2  0  0  3  0  0  0  0  0  0
  183.1100  179.2440  139.7710 C   0  0  1  0  0  3  0  0  0  0  0  0
  185.1800  178.5100  141.5460 C   0  0  0  0  0  0  0  0  0  0  0  0
  188.5760  177.5260  142.7440 C   0  0  0  0  0  3  0  0  0  0  0  0
  189.8370  176.1720  138.1670 C   0  0  0  0  0  0  0  0  0  0  0  0
  191.1180  176.3180  138.7070 C   0  0  0  0  0  3  0  0  0  0  0  0
  188.9460  177.6440  139.8730 C   0  0  0  0  0  0  0  0  0  0  0  0
  191.3160  177.1290  139.8290 C   0  0  0  0  0  3  0  0  0  0  0  0
  188.7520  176.8350  138.7480 C   0  0  0  0  0  3  0  0  0  0  0  0
  190.2330  177.7920  140.4110 C   0  0  0  0  0  3  0  0  0  0  0  0
  189.5900  175.1590  136.7620 Cl  0  0  0  0  0  0  0  0  0  0  0  0
  182.0800  179.2470  138.7480 N   0  0  0  0  0  2  0  0  0  0  0  0
  181.8930  180.5820  138.3600 N   0  0  0  0  0  2  0  0  0  0  0  0
  180.2440  181.5850  136.8660 C   0  0  0  0  0  2  0  0  0  0  0  0
  179.6780  181.2190  140.3950 N   0  0  0  0  0  2  0  0  0  0  0  0
  179.9110  181.6310  139.1930 C   0  0  0  0  0  0  0  0  0  0  0  0
  179.6760  182.9440  137.2900 C   0  0  0  0  0  3  0  0  0  0  0  0
  180.4680  180.7640  138.1370 C   0  0  2  0  0  3  0  0  0  0  0  0
  179.4080  182.8580  138.7120 N   0  0  0  0  0  0  0  0  0  0  0  0
  1  5  2  0  0  0  0
  2  6  1  0  0  0  0
  3  8  1  0  0  0  0
  4 10  1  6  0  0  0
  4 18  1  0  0  0  0
  5 11  1  0  0  0  0
  6 11  2  0  0  0  0
  8  2  2  0  0  0  0
  8  1  1  0  0  0  0
  9  7  1  0  0  0  0
 10 17  1  0  0  0  0
 12  3  2  0  0  0  0
 12 19  1  0  0  0  0
 13  1  1  0  0  0  0
 14  2  1  0  0  0  0
 15  4  1  0  0  0  0
 15 16  1  0  0  0  0
 16 22  1  6  0  0  0
 16 12  1  0  0  0  0
 17 27  1  6  0  0  0
 17  9  1  0  0  0  0
 18  7  2  0  0  0  0
 18  3  1  0  0  0  0
 19 13  2  0  0  0  0
 20 21  2  0  0  0  0
 20 24  1  0  0  0  0
 21 23  1  0  0  0  0
 22 25  1  0  0  0  0
 23 25  2  0  0  0  0
 24 22  2  0  0  0  0
 26 20  1  0  0  0  0
 28 27  1  0  0  0  0
 29 32  1  0  0  0  0
 29 33  1  0  0  0  0
 31 30  2  0  0  0  0
 32 34  2  0  0  0  0
 33 28  1  1  0  0  0
 33 31  1  0  0  0  0
 34 31  1  0  0  0  0
M  END
>  <MODEL>
4

>  <REMARK>
 VINA RESULT:     -10.0      4.905      8.663
  Name = 
  4 active torsions:
  status: ('A' for Active; 'I' for Inactive)
    1  A    between atoms: N_3  and  N_13
    2  A    between atoms: N_3  and  C_29
    3  A    between atoms: C_12  and  C_28
    4  A    between atoms: N_13  and  C_33
                            x       y       z     vdW  Elec       q    Type
                         _______ _______ _______ _____ _____    ______ ____

>  <TORSDO>
F 4

$$$$
=
 OpenBabel11052414233D

 34 39  0  0  1  0  0  0  0  0999 V2000
  184.6760  178.6170  144.3910 C   0  0  0  0  0  0  0  0  0  0  0  0
  186.8430  177.5430  144.1140 C   0  0  0  0  0  0  0  0  0  0  0  0
  185.4840  178.2680  142.1130 C   0  0  0  0  0  0  0  0  0  0  0  0
  186.0880  177.9670  139.6610 C   0  0  2  0  0  3  0  0  0  0  0  0
  184.8790  178.6620  145.7720 C   0  0  0  0  0  3  0  0  0  0  0  0
  187.0200  177.5930  145.5000 C   0  0  0  0  0  3  0  0  0  0  0  0
  187.7870  178.7100  141.3340 C   0  0  0  0  0  3  0  0  0  0  0  0
  185.7000  178.1500  143.5200 C   0  0  0  0  0  0  0  0  0  0  0  0
  188.8280  178.8480  140.2660 C   0  0  0  0  0  2  0  0  0  0  0  0
  187.1750  178.1240  138.5870 C   0  0  0  0  0  2  0  0  0  0  0  0
  186.0610  178.1780  146.3230 C   0  0  0  0  0  3  0  0  0  0  0  0
  184.1910  178.5750  141.6300 C   0  0  0  0  0  0  0  0  0  0  0  0
  183.4310  178.9910  143.8910 C   0  0  0  0  0  3  0  0  0  0  0  0
  187.9320  176.4530  143.2620 Cl  0  0  0  0  0  0  0  0  0  0  0  0
  185.0180  178.8270  139.3530 O   0  0  0  0  0  0  0  0  0  0  0  0
  183.9100  178.4370  140.1360 C   0  0  2  0  0  3  0  0  0  0  0  0
  188.5660  177.8520  139.1430 C   0  0  1  0  0  3  0  0  0  0  0  0
  186.5510  178.2560  141.0790 C   0  0  0  0  0  0  0  0  0  0  0  0
  183.1760  178.9290  142.5270 C   0  0  0  0  0  3  0  0  0  0  0  0
  181.7000  181.1320  138.6430 C   0  0  0  0  0  0  0  0  0  0  0  0
  180.4280  180.5730  138.7950 C   0  0  0  0  0  3  0  0  0  0  0  0
  182.6860  179.1780  139.6830 C   0  0  0  0  0  0  0  0  0  0  0  0
  180.2820  179.3150  139.3890 C   0  0  0  0  0  3  0  0  0  0  0  0
  182.8280  180.4350  139.0840 C   0  0  0  0  0  3  0  0  0  0  0  0
  181.4090  178.6180  139.8310 C   0  0  0  0  0  3  0  0  0  0  0  0
  181.8810  182.7040  137.8970 Cl  0  0  0  0  0  0  0  0  0  0  0  0
  189.5500  178.0280  138.0890 N   0  0  0  0  0  2  0  0  0  0  0  0
  189.7140  176.7800  137.4710 N   0  0  0  0  0  2  0  0  0  0  0  0
  191.8600  176.7370  138.6320 C   0  0  0  0  0  2  0  0  0  0  0  0
  190.2800  173.7580  137.3930 N   0  0  0  0  0  2  0  0  0  0  0  0
  191.0290  174.7860  137.6160 C   0  0  0  0  0  0  0  0  0  0  0  0
  192.9980  175.9780  137.9380 C   0  0  0  0  0  3  0  0  0  0  0  0
  190.5620  175.9820  138.3430 C   0  0  2  0  0  3  0  0  0  0  0  0
  192.4260  174.7490  137.4260 N   0  0  0  0  0  0  0  0  0  0  0  0
  1  5  2  0  0  0  0
  2  6  1  0  0  0  0
  3  8  1  0  0  0  0
  4 10  1  6  0  0  0
  4 18  1  0  0  0  0
  5 11  1  0  0  0  0
  6 11  2  0  0  0  0
  8  2  2  0  0  0  0
  8  1  1  0  0  0  0
  9  7  1  0  0  0  0
 10 17  1  0  0  0  0
 12  3  2  0  0  0  0
 12 19  1  0  0  0  0
 13  1  1  0  0  0  0
 14  2  1  0  0  0  0
 15  4  1  0  0  0  0
 15 16  1  0  0  0  0
 16 22  1  6  0  0  0
 16 12  1  0  0  0  0
 17 27  1  6  0  0  0
 17  9  1  0  0  0  0
 18  7  2  0  0  0  0
 18  3  1  0  0  0  0
 19 13  2  0  0  0  0
 20 21  2  0  0  0  0
 20 24  1  0  0  0  0
 21 23  1  0  0  0  0
 22 25  1  0  0  0  0
 23 25  2  0  0  0  0
 24 22  2  0  0  0  0
 26 20  1  0  0  0  0
 28 27  1  0  0  0  0
 30 31  2  0  0  0  0
 31 33  1  0  0  0  0
 32 29  1  0  0  0  0
 33 28  1  6  0  0  0
 33 29  1  0  0  0  0
 34 31  1  0  0  0  0
 34 32  2  0  0  0  0
M  END
>  <MODEL>
5

>  <REMARK>
 VINA RESULT:     -10.0      2.690      4.451
  Name = 
  4 active torsions:
  status: ('A' for Active; 'I' for Inactive)
    1  A    between atoms: N_3  and  N_13
    2  A    between atoms: N_3  and  C_29
    3  A    between atoms: C_12  and  C_28
    4  A    between atoms: N_13  and  C_33
                            x       y       z     vdW  Elec       q    Type
                         _______ _______ _______ _____ _____    ______ ____

>  <TORSDO>
F 4

$$$$
=
 OpenBabel11052414233D

 34 39  0  0  1  0  0  0  0  0999 V2000
  191.2090  176.4200  145.0130 C   0  0  0  0  0  0  0  0  0  0  0  0
  189.8440  177.3590  146.7960 C   0  0  0  0  0  0  0  0  0  0  0  0
  189.1360  177.5470  144.3790 C   0  0  0  0  0  0  0  0  0  0  0  0
  187.0630  178.7090  143.4770 C   0  0  2  0  0  3  0  0  0  0  0  0
  192.0500  175.8410  145.9650 C   0  0  0  0  0  3  0  0  0  0  0  0
  190.7050  176.7750  147.7310 C   0  0  0  0  0  3  0  0  0  0  0  0
  186.9600  177.2670  145.5130 C   0  0  0  0  0  3  0  0  0  0  0  0
  190.0270  177.1070  145.4070 C   0  0  0  0  0  0  0  0  0  0  0  0
  185.4790  177.4700  145.6220 C   0  0  0  0  0  2  0  0  0  0  0  0
  185.5430  178.8930  143.6110 C   0  0  0  0  0  2  0  0  0  0  0  0
  191.7820  175.9930  147.3220 C   0  0  0  0  0  3  0  0  0  0  0  0
  189.5690  177.5400  143.0330 C   0  0  0  0  0  0  0  0  0  0  0  0
  191.5810  176.3540  143.6720 C   0  0  0  0  0  3  0  0  0  0  0  0
  188.7830  178.6090  147.4380 Cl  0  0  0  0  0  0  0  0  0  0  0  0
  187.3410  178.1100  142.2340 O   0  0  0  0  0  0  0  0  0  0  0  0
  188.7220  178.2540  141.9830 C   0  0  2  0  0  3  0  0  0  0  0  0
  185.0900  178.8330  145.0630 C   0  0  1  0  0  3  0  0  0  0  0  0
  187.7000  177.8720  144.5730 C   0  0  0  0  0  0  0  0  0  0  0  0
  190.7920  176.9470  142.6950 C   0  0  0  0  0  3  0  0  0  0  0  0
  188.4630  177.8770  138.2190 C   0  0  0  0  0  0  0  0  0  0  0  0
  189.5800  177.0860  137.9350 C   0  0  0  0  0  3  0  0  0  0  0  0
  189.0250  177.8300  140.5760 C   0  0  0  0  0  0  0  0  0  0  0  0
  190.4230  176.6680  138.9700 C   0  0  0  0  0  3  0  0  0  0  0  0
  188.1860  178.2490  139.5380 C   0  0  0  0  0  3  0  0  0  0  0  0
  190.1480  177.0410  140.2880 C   0  0  0  0  0  3  0  0  0  0  0  0
  187.4100  178.4010  136.9240 Cl  0  0  0  0  0  0  0  0  0  0  0  0
  183.6490  178.9980  145.1270 N   0  0  0  0  0  2  0  0  0  0  0  0
  183.1060  178.2660  144.0610 N   0  0  0  0  0  2  0  0  0  0  0  0
  180.7570  178.9180  143.9660 C   0  0  0  0  0  2  0  0  0  0  0  0
  182.8840  178.9550  141.0720 N   0  0  0  0  0  2  0  0  0  0  0  0
  182.0030  178.7090  141.9830 C   0  0  0  0  0  0  0  0  0  0  0  0
  179.9060  178.2550  142.8760 C   0  0  0  0  0  3  0  0  0  0  0  0
  182.1550  179.1370  143.3880 C   0  0  2  0  0  3  0  0  0  0  0  0
  180.7070  178.2530  141.6680 N   0  0  0  0  0  0  0  0  0  0  0  0
  1  8  1  0  0  0  0
  1  5  2  0  0  0  0
  2 14  1  0  0  0  0
  2  6  1  0  0  0  0
  3 18  1  0  0  0  0
  3  8  1  0  0  0  0
  4 10  1  1  0  0  0
  4 18  1  0  0  0  0
  5 11  1  0  0  0  0
  7  9  1  0  0  0  0
  8  2  2  0  0  0  0
 10 17  1  0  0  0  0
 11  6  2  0  0  0  0
 12  3  2  0  0  0  0
 13  1  1  0  0  0  0
 15  4  1  0  0  0  0
 16 22  1  6  0  0  0
 16 15  1  0  0  0  0
 16 12  1  0  0  0  0
 17 27  1  6  0  0  0
 17  9  1  0  0  0  0
 18  7  2  0  0  0  0
 19 12  1  0  0  0  0
 19 13  2  0  0  0  0
 20 24  1  0  0  0  0
 21 20  2  0  0  0  0
 21 23  1  0  0  0  0
 23 25  2  0  0  0  0
 24 22  2  0  0  0  0
 25 22  1  0  0  0  0
 26 20  1  0  0  0  0
 28 27  1  0  0  0  0
 30 31  2  0  0  0  0
 31 33  1  0  0  0  0
 32 29  1  0  0  0  0
 33 29  1  0  0  0  0
 33 28  1  1  0  0  0
 34 31  1  0  0  0  0
 34 32  2  0  0  0  0
M  END
>  <MODEL>
6

>  <REMARK>
 VINA RESULT:      -9.9      4.312      7.451
  Name = 
  4 active torsions:
  status: ('A' for Active; 'I' for Inactive)
    1  A    between atoms: N_3  and  N_13
    2  A    between atoms: N_3  and  C_29
    3  A    between atoms: C_12  and  C_28
    4  A    between atoms: N_13  and  C_33
                            x       y       z     vdW  Elec       q    Type
                         _______ _______ _______ _____ _____    ______ ____

>  <TORSDO>
F 4

$$$$
=
 OpenBabel11052414233D

 34 39  0  0  1  0  0  0  0  0999 V2000
  181.1950  178.7470  143.6160 C   0  0  0  0  0  0  0  0  0  0  0  0
  180.7940  179.2850  141.2760 C   0  0  0  0  0  0  0  0  0  0  0  0
  183.1210  178.7760  142.1150 C   0  0  0  0  0  0  0  0  0  0  0  0
  185.2750  178.7940  140.7630 C   0  0  2  0  0  3  0  0  0  0  0  0
  179.8180  178.7330  143.8460 C   0  0  0  0  0  3  0  0  0  0  0  0
  179.4200  179.2740  141.5330 C   0  0  0  0  0  3  0  0  0  0  0  0
  183.1810  177.7810  139.8550 C   0  0  0  0  0  3  0  0  0  0  0  0
  181.7120  178.9200  142.3020 C   0  0  0  0  0  0  0  0  0  0  0  0
  183.8900  177.3520  138.6060 C   0  0  0  0  0  2  0  0  0  0  0  0
  185.9760  178.3360  139.4750 C   0  0  0  0  0  2  0  0  0  0  0  0
  178.9310  178.9680  142.8000 C   0  0  0  0  0  3  0  0  0  0  0  0
  183.9740  178.7430  143.2430 C   0  0  0  0  0  0  0  0  0  0  0  0
  182.0510  178.6360  144.7100 C   0  0  0  0  0  3  0  0  0  0  0  0
  181.2650  180.0510  139.7620 Cl  0  0  0  0  0  0  0  0  0  0  0  0
  185.9020  178.1830  141.8640 O   0  0  0  0  0  0  0  0  0  0  0  0
  185.4810  178.8570  143.0310 C   0  0  2  0  0  3  0  0  0  0  0  0
  185.0250  178.3160  138.2860 C   0  0  1  0  0  3  0  0  0  0  0  0
  183.7880  178.4880  140.8190 C   0  0  0  0  0  0  0  0  0  0  0  0
  183.4270  178.6780  144.5300 C   0  0  0  0  0  3  0  0  0  0  0  0
  188.3430  177.4350  145.0710 C   0  0  0  0  0  0  0  0  0  0  0  0
  187.8420  177.5350  146.3720 C   0  0  0  0  0  3  0  0  0  0  0  0
  186.2910  178.3880  144.2040 C   0  0  0  0  0  0  0  0  0  0  0  0
  186.5670  178.0640  146.5920 C   0  0  0  0  0  3  0  0  0  0  0  0
  187.5700  177.8620  143.9880 C   0  0  0  0  0  3  0  0  0  0  0  0
  185.7920  178.4910  145.5110 C   0  0  0  0  0  3  0  0  0  0  0  0
  189.9400  176.7750  144.7970 Cl  0  0  0  0  0  0  0  0  0  0  0  0
  185.7380  177.8640  137.1050 N   0  0  0  0  0  2  0  0  0  0  0  0
  186.8340  177.1110  137.5520 N   0  0  0  0  0  2  0  0  0  0  0  0
  188.6100  176.0360  136.2690 C   0  0  0  0  0  2  0  0  0  0  0  0
  188.9140  179.3760  137.5570 N   0  0  0  0  0  2  0  0  0  0  0  0
  188.9940  178.1120  137.3050 C   0  0  0  0  0  0  0  0  0  0  0  0
  190.0130  176.0660  136.8870 C   0  0  0  0  0  3  0  0  0  0  0  0
  187.9250  177.3570  136.6220 C   0  0  2  0  0  3  0  0  0  0  0  0
  190.2070  177.4020  137.4150 N   0  0  0  0  0  0  0  0  0  0  0  0
  1  5  1  0  0  0  0
  1 13  1  0  0  0  0
  2  6  2  0  0  0  0
  2  8  1  0  0  0  0
  3  8  1  0  0  0  0
  3 12  2  0  0  0  0
  4 10  1  6  0  0  0
  4 18  1  0  0  0  0
  4 15  1  0  0  0  0
  6 11  1  0  0  0  0
  7 18  2  0  0  0  0
  8  1  2  0  0  0  0
  9  7  1  0  0  0  0
 11  5  2  0  0  0  0
 12 19  1  0  0  0  0
 14  2  1  0  0  0  0
 15 16  1  0  0  0  0
 16 12  1  0  0  0  0
 16 22  1  1  0  0  0
 17 27  1  6  0  0  0
 17  9  1  0  0  0  0
 17 10  1  0  0  0  0
 18  3  1  0  0  0  0
 19 13  2  0  0  0  0
 20 21  1  0  0  0  0
 21 23  2  0  0  0  0
 22 25  2  0  0  0  0
 24 22  1  0  0  0  0
 24 20  2  0  0  0  0
 25 23  1  0  0  0  0
 26 20  1  0  0  0  0
 27 28  1  0  0  0  0
 29 33  1  0  0  0  0
 29 32  1  0  0  0  0
 31 34  1  0  0  0  0
 31 30  2  0  0  0  0
 32 34  2  0  0  0  0
 33 31  1  0  0  0  0
 33 28  1  1  0  0  0
M  END
>  <MODEL>
7

>  <REMARK>
 VINA RESULT:      -9.8      2.732      7.113
  Name = 
  4 active torsions:
  status: ('A' for Active; 'I' for Inactive)
    1  A    between atoms: N_3  and  N_13
    2  A    between atoms: N_3  and  C_29
    3  A    between atoms: C_12  and  C_28
    4  A    between atoms: N_13  and  C_33
                            x       y       z     vdW  Elec       q    Type
                         _______ _______ _______ _____ _____    ______ ____

>  <TORSDO>
F 4

$$$$
=
 OpenBabel11052414233D

 34 39  0  0  1  0  0  0  0  0999 V2000
  188.9690  177.1200  145.3830 C   0  0  0  0  0  0  0  0  0  0  0  0
  186.8670  178.2760  145.8010 C   0  0  0  0  0  0  0  0  0  0  0  0
  187.7390  177.9710  143.4510 C   0  0  0  0  0  0  0  0  0  0  0  0
  186.6710  178.8070  141.3000 C   0  0  2  0  0  3  0  0  0  0  0  0
  189.0480  176.7820  146.7350 C   0  0  0  0  0  3  0  0  0  0  0  0
  186.9730  177.9320  147.1520 C   0  0  0  0  0  3  0  0  0  0  0  0
  185.3020  177.7570  143.1070 C   0  0  0  0  0  3  0  0  0  0  0  0
  187.8230  177.7870  144.8660 C   0  0  0  0  0  0  0  0  0  0  0  0
  184.0580  177.8770  142.2800 C   0  0  0  0  0  2  0  0  0  0  0  0
  185.3800  178.9090  140.4740 C   0  0  0  0  0  2  0  0  0  0  0  0
  188.0380  177.1620  147.6130 C   0  0  0  0  0  3  0  0  0  0  0  0
  188.8840  177.7470  142.6510 C   0  0  0  0  0  0  0  0  0  0  0  0
  190.0580  176.8350  144.5630 C   0  0  0  0  0  3  0  0  0  0  0  0
  185.7030  179.5480  145.4450 Cl  0  0  0  0  0  0  0  0  0  0  0  0
  187.5960  178.0100  140.6010 O   0  0  0  0  0  0  0  0  0  0  0  0
  188.8640  178.1980  141.1930 C   0  0  2  0  0  3  0  0  0  0  0  0
  184.1520  179.0850  141.3570 C   0  0  1  0  0  3  0  0  0  0  0  0
  186.4880  178.2290  142.6930 C   0  0  0  0  0  0  0  0  0  0  0  0
  190.0340  177.1850  143.2190 C   0  0  0  0  0  3  0  0  0  0  0  0
  190.4990  176.1640  138.4430 C   0  0  0  0  0  0  0  0  0  0  0  0
  191.8570  176.3420  138.7270 C   0  0  0  0  0  3  0  0  0  0  0  0
  189.9170  177.5460  140.3470 C   0  0  0  0  0  0  0  0  0  0  0  0
  192.2470  177.1240  139.8190 C   0  0  0  0  0  3  0  0  0  0  0  0
  189.5310  176.7660  139.2510 C   0  0  0  0  0  3  0  0  0  0  0  0
  191.2790  177.7260  140.6270 C   0  0  0  0  0  3  0  0  0  0  0  0
  190.0120  175.1880  137.0750 Cl  0  0  0  0  0  0  0  0  0  0  0  0
  182.9650  179.1630  140.5250 N   0  0  0  0  0  2  0  0  0  0  0  0
  183.3200  178.6720  139.2600 N   0  0  0  0  0  2  0  0  0  0  0  0
  182.6120  176.3480  139.4920 C   0  0  0  0  0  2  0  0  0  0  0  0
  181.9610  178.2740  136.5300 N   0  0  0  0  0  2  0  0  0  0  0  0
  182.3890  177.4480  137.4250 C   0  0  0  0  0  0  0  0  0  0  0  0
  182.9900  175.4000  138.3460 C   0  0  0  0  0  3  0  0  0  0  0  0
  182.2980  177.7120  138.8750 C   0  0  2  0  0  3  0  0  0  0  0  0
  182.7330  176.1170  137.1130 N   0  0  0  0  0  0  0  0  0  0  0  0
  1  5  2  0  0  0  0
  2  6  1  0  0  0  0
  3  8  1  0  0  0  0
  4 10  1  6  0  0  0
  4 18  1  0  0  0  0
  5 11  1  0  0  0  0
  6 11  2  0  0  0  0
  8  1  1  0  0  0  0
  8  2  2  0  0  0  0
  9  7  1  0  0  0  0
 10 17  1  0  0  0  0
 12 19  1  0  0  0  0
 12  3  2  0  0  0  0
 13  1  1  0  0  0  0
 14  2  1  0  0  0  0
 15 16  1  0  0  0  0
 15  4  1  0  0  0  0
 16 22  1  6  0  0  0
 16 12  1  0  0  0  0
 17 27  1  6  0  0  0
 17  9  1  0  0  0  0
 18  7  2  0  0  0  0
 18  3  1  0  0  0  0
 19 13  2  0  0  0  0
 20 21  2  0  0  0  0
 20 24  1  0  0  0  0
 21 23  1  0  0  0  0
 22 25  1  0  0  0  0
 23 25  2  0  0  0  0
 24 22  2  0  0  0  0
 26 20  1  0  0  0  0
 28 27  1  0  0  0  0
 30 31  2  0  0  0  0
 31 33  1  0  0  0  0
 32 29  1  0  0  0  0
 33 28  1  1  0  0  0
 33 29  1  0  0  0  0
 34 31  1  0  0  0  0
 34 32  2  0  0  0  0
M  END
>  <MODEL>
8

>  <REMARK>
 VINA RESULT:      -9.6      4.082      7.054
  Name = 
  4 active torsions:
  status: ('A' for Active; 'I' for Inactive)
    1  A    between atoms: N_3  and  N_13
    2  A    between atoms: N_3  and  C_29
    3  A    between atoms: C_12  and  C_28
    4  A    between atoms: N_13  and  C_33
                            x       y       z     vdW  Elec       q    Type
                         _______ _______ _______ _____ _____    ______ ____

>  <TORSDO>
F 4

$$$$
=
 OpenBabel11052414233D

 34 39  0  0  1  0  0  0  0  0999 V2000
  187.6130  177.5120  144.7360 C   0  0  0  0  0  0  0  0  0  0  0  0
  185.5050  178.7210  144.8840 C   0  0  0  0  0  0  0  0  0  0  0  0
  186.5880  178.2620  142.6490 C   0  0  0  0  0  0  0  0  0  0  0  0
  185.7440  178.9810  140.3600 C   0  0  2  0  0  3  0  0  0  0  0  0
  187.5580  177.2560  146.1070 C   0  0  0  0  0  3  0  0  0  0  0  0
  185.4770  178.4590  146.2560 C   0  0  0  0  0  3  0  0  0  0  0  0
  184.1910  178.0630  142.0880 C   0  0  0  0  0  3  0  0  0  0  0  0
  186.5350  178.1630  144.0730 C   0  0  0  0  0  0  0  0  0  0  0  0
  183.0320  178.1510  141.1410 C   0  0  0  0  0  2  0  0  0  0  0  0
  184.5390  179.0520  139.4100 C   0  0  0  0  0  2  0  0  0  0  0  0
  186.4780  177.7030  146.8610 C   0  0  0  0  0  3  0  0  0  0  0  0
  187.7980  177.9730  141.9760 C   0  0  0  0  0  0  0  0  0  0  0  0
  188.7680  177.1620  144.0410 C   0  0  0  0  0  3  0  0  0  0  0  0
  184.4060  179.9870  144.3430 Cl  0  0  0  0  0  0  0  0  0  0  0  0
  186.7150  178.1300  139.8010 O   0  0  0  0  0  0  0  0  0  0  0  0
  187.9240  178.3350  140.4990 C   0  0  2  0  0  3  0  0  0  0  0  0
  183.2370  179.2990  140.1610 C   0  0  1  0  0  3  0  0  0  0  0  0
  185.4190  178.4920  141.7620 C   0  0  0  0  0  0  0  0  0  0  0  0
  188.8780  177.4300  142.6830 C   0  0  0  0  0  3  0  0  0  0  0  0
  191.4040  177.1260  139.6010 C   0  0  0  0  0  0  0  0  0  0  0  0
  191.1390  176.2680  138.5300 C   0  0  0  0  0  3  0  0  0  0  0  0
  189.0390  177.6180  139.7960 C   0  0  0  0  0  0  0  0  0  0  0  0
  189.8240  176.0810  138.0910 C   0  0  0  0  0  3  0  0  0  0  0  0
  190.3560  177.7990  140.2340 C   0  0  0  0  0  3  0  0  0  0  0  0
  188.7760  176.7530  138.7240 C   0  0  0  0  0  3  0  0  0  0  0  0
  193.0490  177.3570  140.1500 Cl  0  0  0  0  0  0  0  0  0  0  0  0
  182.1360  179.3430  139.2160 N   0  0  0  0  0  2  0  0  0  0  0  0
  181.4310  178.1380  139.3540 N   0  0  0  0  0  2  0  0  0  0  0  0
  179.9890  177.3130  137.5670 C   0  0  0  0  0  2  0  0  0  0  0  0
  183.1600  175.8090  138.3320 N   0  0  0  0  0  2  0  0  0  0  0  0
  181.9140  176.1100  138.1800 C   0  0  0  0  0  0  0  0  0  0  0  0
  179.6920  175.8080  137.5680 C   0  0  0  0  0  3  0  0  0  0  0  0
  181.4280  177.4970  138.0480 C   0  0  2  0  0  3  0  0  0  0  0  0
  180.9440  175.1380  137.8570 N   0  0  0  0  0  0  0  0  0  0  0  0
  1  5  2  0  0  0  0
  2  6  1  0  0  0  0
  3  8  1  0  0  0  0
  4 10  1  6  0  0  0
  4 18  1  0  0  0  0
  5 11  1  0  0  0  0
  6 11  2  0  0  0  0
  8  1  1  0  0  0  0
  8  2  2  0  0  0  0
  9  7  1  0  0  0  0
 10 17  1  0  0  0  0
 12  3  2  0  0  0  0
 12 19  1  0  0  0  0
 13  1  1  0  0  0  0
 14  2  1  0  0  0  0
 15  4  1  0  0  0  0
 15 16  1  0  0  0  0
 16 22  1  6  0  0  0
 16 12  1  0  0  0  0
 17 27  1  6  0  0  0
 17  9  1  0  0  0  0
 18  7  2  0  0  0  0
 18  3  1  0  0  0  0
 19 13  2  0  0  0  0
 20 26  1  0  0  0  0
 20 24  1  0  0  0  0
 21 20  2  0  0  0  0
 22 24  2  0  0  0  0
 23 21  1  0  0  0  0
 23 25  2  0  0  0  0
 25 22  1  0  0  0  0
 27 28  1  0  0  0  0
 29 32  1  0  0  0  0
 29 33  1  0  0  0  0
 31 30  2  0  0  0  0
 32 34  2  0  0  0  0
 33 31  1  0  0  0  0
 33 28  1  1  0  0  0
 34 31  1  0  0  0  0
M  END
>  <MODEL>
9

>  <REMARK>
 VINA RESULT:      -9.6      4.172      7.789
  Name = 
  4 active torsions:
  status: ('A' for Active; 'I' for Inactive)
    1  A    between atoms: N_3  and  N_13
    2  A    between atoms: N_3  and  C_29
    3  A    between atoms: C_12  and  C_28
    4  A    between atoms: N_13  and  C_33
                            x       y       z     vdW  Elec       q    Type
                         _______ _______ _______ _____ _____    ______ ____

>  <TORSDO>
F 4

$$$$
