=
 OpenBabel11052416073D

 43 47  0  0  1  0  0  0  0  0999 V2000
  186.4430  177.9300  146.4920 C   0  0  0  0  0  0  0  0  0  0  0  0
  185.4060  178.7540  142.1870 C   0  0  0  0  0  0  0  0  0  0  0  0
  187.7600  178.2200  140.7660 C   0  0  0  0  0  0  0  0  0  0  0  0
  184.9490  178.6240  144.2480 C   0  0  0  0  0  0  0  0  0  0  0  0
  188.3670  177.5870  145.0870 F   0  0  0  0  0  0  0  0  0  0  0  0
  187.1540  177.5980  147.5970 F   0  0  0  0  0  0  0  0  0  0  0  0
  186.2820  178.2770  144.1290 C   0  0  0  0  0  0  0  0  0  0  0  0
  185.0820  178.2840  146.6190 C   0  0  0  0  0  3  0  0  0  0  0  0
  187.0610  177.9240  145.2280 C   0  0  0  0  0  0  0  0  0  0  0  0
  187.7600  178.0920  142.0690 N   0  0  0  0  0  0  0  0  0  0  0  0
  186.5610  178.3690  142.7960 C   0  0  0  0  0  0  0  0  0  0  0  0
  184.3790  178.9210  143.0540 N   0  0  0  0  0  2  0  0  0  0  0  0
  185.3690  178.9040  140.7710 N   0  0  0  0  0  0  0  0  0  0  0  0
  186.5580  178.6230  140.0650 N   0  0  0  0  0  2  0  0  0  0  0  0
  184.3180  178.6340  145.4900 C   0  0  0  0  0  3  0  0  0  0  0  0
  188.9910  177.9130  139.9830 C   0  0  1  0  0  3  0  0  0  0  0  0
  189.7890  177.0080  140.6880 O   0  0  0  0  0  1  0  0  0  0  0  0
  188.6110  177.3430  138.6230 C   0  0  0  0  0  2  0  0  0  0  0  0
  190.2350  177.5330  136.6710 N   0  0  0  0  0  2  0  0  0  0  0  0
  189.2370  178.1210  137.5090 C   0  0  0  0  0  0  0  0  0  0  0  0
  188.8670  179.3050  137.2920 O   0  0  0  0  0  0  0  0  0  0  0  0
  190.7140  176.1670  136.8510 C   0  0  1  0  0  3  0  0  0  0  0  0
  190.9010  174.7240  134.9310 O   0  0  0  0  0  1  0  0  0  0  0  0
  190.0020  175.2320  135.8710 C   0  0  1  0  0  3  0  0  0  0  0  0
  187.9780  173.7470  136.3280 N   0  0  0  0  0  0  0  0  0  0  0  0
  189.3440  174.0940  136.5980 C   0  0  0  0  0  0  0  0  0  0  0  0
  185.9010  172.9360  137.3190 C   0  0  0  0  0  2  0  0  0  0  0  0
  185.7980  174.5910  135.6260 C   0  0  0  0  0  2  0  0  0  0  0  0
  185.2120  173.3360  136.0930 N   0  0  0  0  0  2  0  0  0  0  0  0
  187.2530  174.3680  135.2210 C   0  0  0  0  0  2  0  0  0  0  0  0
  187.3610  172.6130  137.0120 C   0  0  0  0  0  2  0  0  0  0  0  0
  189.9930  173.4680  137.4790 O   0  0  0  0  0  0  0  0  0  0  0  0
  192.2200  176.1340  136.6330 C   0  0  0  0  0  2  0  0  0  0  0  0
  192.9380  176.0110  137.9630 C   0  0  0  0  0  1  0  0  0  0  0  0
  184.1410  179.2230  140.0590 C   0  0  0  0  0  2  0  0  0  0  0  0
  182.4200  175.9100  139.4190 C   0  0  0  0  0  3  0  0  0  0  0  0
  182.7110  175.6950  138.0680 C   0  0  0  0  0  0  0  0  0  0  0  0
  183.9270  177.7990  138.0120 C   0  0  0  0  0  3  0  0  0  0  0  0
  182.8770  177.0630  140.0660 C   0  0  0  0  0  3  0  0  0  0  0  0
  183.6250  178.0110  139.3610 C   0  0  0  0  0  0  0  0  0  0  0  0
  183.4700  176.6460  137.3660 C   0  0  0  0  0  3  0  0  0  0  0  0
  181.0230  174.4950  136.7160 C   0  0  0  0  0  1  0  0  0  0  0  0
  182.2390  174.5340  137.4510 O   0  0  0  0  0  0  0  0  0  0  0  0
  1  8  1  0  0  0  0
  1  6  1  0  0  0  0
  2 11  2  0  0  0  0
  2 12  1  0  0  0  0
  3 10  2  0  0  0  0
  4 15  1  0  0  0  0
  5  9  1  0  0  0  0
  7  4  2  0  0  0  0
  7  9  1  0  0  0  0
  9  1  2  0  0  0  0
 10 11  1  0  0  0  0
 11  7  1  0  0  0  0
 12  4  1  0  0  0  0
 13  2  1  0  0  0  0
 14  3  1  0  0  0  0
 14 13  1  0  0  0  0
 15  8  2  0  0  0  0
 16 17  1  1  0  0  0
 16  3  1  0  0  0  0
 18 16  1  0  0  0  0
 19 22  1  0  0  0  0
 19 20  1  0  0  0  0
 20 18  1  0  0  0  0
 21 20  2  0  0  0  0
 22 33  1  6  0  0  0
 24 23  1  6  0  0  0
 24 26  1  0  0  0  0
 24 22  1  0  0  0  0
 25 26  1  0  0  0  0
 25 31  1  0  0  0  0
 26 32  2  0  0  0  0
 28 29  1  0  0  0  0
 29 27  1  0  0  0  0
 30 28  1  0  0  0  0
 30 25  1  0  0  0  0
 31 27  1  0  0  0  0
 33 34  1  0  0  0  0
 35 13  1  0  0  0  0
 36 39  1  0  0  0  0
 37 36  2  0  0  0  0
 38 40  1  0  0  0  0
 40 35  1  0  0  0  0
 40 39  2  0  0  0  0
 41 38  2  0  0  0  0
 41 37  1  0  0  0  0
 42 43  1  0  0  0  0
 43 37  1  0  0  0  0
M  END
>  <MODEL>
1

>  <REMARK>
 VINA RESULT:      -8.5      0.000      0.000
  Name = 
  10 active torsions:
  status: ('A' for Active; 'I' for Inactive)
    1  A    between atoms: C_1  and  N_34
    2  A    between atoms: C_1  and  C_35
    3  A    between atoms: C_2  and  C_6
    4  A    between atoms: C_2  and  C_13
    5  A    between atoms: N_3  and  C_4
    6  A    between atoms: C_4  and  C_15
    7  A    between atoms: C_4  and  C_22
    8  A    between atoms: C_6  and  C_12
    9  A    between atoms: C_14  and  C_22
   10  A    between atoms: C_19  and  O_37
                            x       y       z     vdW  Elec       q    Type
                         _______ _______ _______ _____ _____    ______ ____

>  <TORSDO>
F 10

$$$$
=
 OpenBabel11052416073D

 43 47  0  0  1  0  0  0  0  0999 V2000
  184.6570  178.9890  144.8640 C   0  0  0  0  0  0  0  0  0  0  0  0
  183.5660  178.5060  140.5210 C   0  0  0  0  0  0  0  0  0  0  0  0
  186.0170  178.2450  139.1900 C   0  0  0  0  0  0  0  0  0  0  0  0
  183.1000  178.7540  142.5690 C   0  0  0  0  0  0  0  0  0  0  0  0
  186.6430  178.8060  143.5180 F   0  0  0  0  0  0  0  0  0  0  0  0
  185.3980  179.1080  145.9930 F   0  0  0  0  0  0  0  0  0  0  0  0
  184.4800  178.7250  142.4920 C   0  0  0  0  0  0  0  0  0  0  0  0
  183.2470  179.0210  144.9490 C   0  0  0  0  0  3  0  0  0  0  0  0
  185.2920  178.8380  143.6180 C   0  0  0  0  0  0  0  0  0  0  0  0
  186.0130  178.4290  140.4860 N   0  0  0  0  0  0  0  0  0  0  0  0
  184.7630  178.5670  141.1660 C   0  0  0  0  0  0  0  0  0  0  0  0
  182.5070  178.6170  141.3570 N   0  0  0  0  0  2  0  0  0  0  0  0
  183.5320  178.3080  139.1110 N   0  0  0  0  0  0  0  0  0  0  0  0
  184.7720  178.1680  138.4520 N   0  0  0  0  0  2  0  0  0  0  0  0
  182.4520  178.9010  143.7940 C   0  0  0  0  0  3  0  0  0  0  0  0
  187.3060  178.0720  138.4610 C   0  0  1  0  0  3  0  0  0  0  0  0
  187.4800  179.1160  137.5490 O   0  0  0  0  0  1  0  0  0  0  0  0
  188.4600  178.0330  139.4540 C   0  0  0  0  0  2  0  0  0  0  0  0
  190.2740  176.4030  140.1870 N   0  0  0  0  0  2  0  0  0  0  0  0
  189.3770  176.8830  139.1820 C   0  0  0  0  0  0  0  0  0  0  0  0
  189.3470  176.3140  138.0590 O   0  0  0  0  0  0  0  0  0  0  0  0
  190.3670  177.0010  141.5140 C   0  0  1  0  0  3  0  0  0  0  0  0
  191.2810  175.6640  143.2980 O   0  0  0  0  0  1  0  0  0  0  0  0
  190.1120  175.9360  142.5840 C   0  0  1  0  0  3  0  0  0  0  0  0
  189.3730  176.8820  144.8350 N   0  0  0  0  0  0  0  0  0  0  0  0
  189.0360  176.3780  143.5340 C   0  0  0  0  0  0  0  0  0  0  0  0
  188.6770  176.9720  147.1720 C   0  0  0  0  0  2  0  0  0  0  0  0
  190.9840  176.7850  146.6650 C   0  0  0  0  0  2  0  0  0  0  0  0
  190.0070  177.4800  147.5010 N   0  0  0  0  0  2  0  0  0  0  0  0
  190.7640  177.1460  145.1980 C   0  0  0  0  0  2  0  0  0  0  0  0
  188.3200  177.3470  145.7350 C   0  0  0  0  0  2  0  0  0  0  0  0
  187.8270  176.2660  143.1930 O   0  0  0  0  0  0  0  0  0  0  0  0
  191.7460  177.6220  141.6860 C   0  0  0  0  0  2  0  0  0  0  0  0
  192.5300  177.5190  140.3930 C   0  0  0  0  0  1  0  0  0  0  0  0
  182.2830  178.1440  138.3830 C   0  0  0  0  0  2  0  0  0  0  0  0
  181.4730  181.8420  138.2580 C   0  0  0  0  0  3  0  0  0  0  0  0
  180.8170  181.9480  137.0270 C   0  0  0  0  0  0  0  0  0  0  0  0
  181.1330  179.5640  136.6730 C   0  0  0  0  0  3  0  0  0  0  0  0
  181.9590  180.6060  138.6960 C   0  0  0  0  0  3  0  0  0  0  0  0
  181.7950  179.4680  137.9010 C   0  0  0  0  0  0  0  0  0  0  0  0
  180.6480  180.8000  136.2350 C   0  0  0  0  0  3  0  0  0  0  0  0
  181.2060  184.3030  136.3780 C   0  0  0  0  0  1  0  0  0  0  0  0
  180.3440  183.1970  136.6180 O   0  0  0  0  0  0  0  0  0  0  0  0
  1  8  1  0  0  0  0
  1  6  1  0  0  0  0
  2 11  2  0  0  0  0
  2 12  1  0  0  0  0
  3 10  2  0  0  0  0
  4 15  1  0  0  0  0
  5  9  1  0  0  0  0
  7  4  2  0  0  0  0
  7  9  1  0  0  0  0
  9  1  2  0  0  0  0
 10 11  1  0  0  0  0
 11  7  1  0  0  0  0
 12  4  1  0  0  0  0
 13  2  1  0  0  0  0
 14 13  1  0  0  0  0
 14  3  1  0  0  0  0
 15  8  2  0  0  0  0
 16 17  1  6  0  0  0
 16  3  1  0  0  0  0
 16 18  1  0  0  0  0
 19 22  1  0  0  0  0
 20 18  1  0  0  0  0
 20 19  1  0  0  0  0
 21 20  2  0  0  0  0
 22 33  1  1  0  0  0
 22 24  1  0  0  0  0
 24 23  1  1  0  0  0
 24 26  1  0  0  0  0
 25 30  1  0  0  0  0
 25 31  1  0  0  0  0
 26 25  1  0  0  0  0
 27 29  1  0  0  0  0
 28 29  1  0  0  0  0
 30 28  1  0  0  0  0
 31 27  1  0  0  0  0
 32 26  2  0  0  0  0
 34 33  1  0  0  0  0
 35 13  1  0  0  0  0
 36 39  1  0  0  0  0
 37 36  2  0  0  0  0
 38 40  1  0  0  0  0
 40 35  1  0  0  0  0
 40 39  2  0  0  0  0
 41 38  2  0  0  0  0
 41 37  1  0  0  0  0
 42 43  1  0  0  0  0
 43 37  1  0  0  0  0
M  END
>  <MODEL>
2

>  <REMARK>
 VINA RESULT:      -8.4      3.290      5.903
  Name = 
  10 active torsions:
  status: ('A' for Active; 'I' for Inactive)
    1  A    between atoms: C_1  and  N_34
    2  A    between atoms: C_1  and  C_35
    3  A    between atoms: C_2  and  C_6
    4  A    between atoms: C_2  and  C_13
    5  A    between atoms: N_3  and  C_4
    6  A    between atoms: C_4  and  C_15
    7  A    between atoms: C_4  and  C_22
    8  A    between atoms: C_6  and  C_12
    9  A    between atoms: C_14  and  C_22
   10  A    between atoms: C_19  and  O_37
                            x       y       z     vdW  Elec       q    Type
                         _______ _______ _______ _____ _____    ______ ____

>  <TORSDO>
F 10

$$$$
=
 OpenBabel11052416073D

 43 47  0  0  1  0  0  0  0  0999 V2000
  183.3390  178.9320  144.4800 C   0  0  0  0  0  0  0  0  0  0  0  0
  184.1250  178.5370  140.0630 C   0  0  0  0  0  0  0  0  0  0  0  0
  186.9110  178.3490  139.8420 C   0  0  0  0  0  0  0  0  0  0  0  0
  182.8590  178.7270  141.7450 C   0  0  0  0  0  0  0  0  0  0  0  0
  185.7060  178.8150  144.0580 F   0  0  0  0  0  0  0  0  0  0  0  0
  183.5520  179.0340  145.8150 F   0  0  0  0  0  0  0  0  0  0  0  0
  184.1510  178.7230  142.2380 C   0  0  0  0  0  0  0  0  0  0  0  0
  182.0170  178.9380  143.9830 C   0  0  0  0  0  3  0  0  0  0  0  0
  184.4300  178.8220  143.5980 C   0  0  0  0  0  0  0  0  0  0  0  0
  186.3750  178.5010  141.0270 N   0  0  0  0  0  0  0  0  0  0  0  0
  184.9540  178.6020  141.1400 C   0  0  1  0  0  3  0  0  0  0  0  0
  182.8140  178.6090  140.3960 N   0  0  0  0  0  0  0  0  0  0  0  0
  184.6730  178.3730  138.7580 N   0  0  0  0  0  0  0  0  0  0  0  0
  186.0770  178.2700  138.6600 N   0  0  0  0  0  2  0  0  0  0  0  0
  181.7650  178.8330  142.6020 C   0  0  0  0  0  3  0  0  0  0  0  0
  188.3890  178.2160  139.7000 C   0  0  1  0  0  3  0  0  0  0  0  0
  188.9210  179.3850  139.1500 O   0  0  0  0  0  1  0  0  0  0  0  0
  189.0160  177.9330  141.0590 C   0  0  0  0  0  2  0  0  0  0  0  0
  191.1540  176.9810  142.0610 N   0  0  0  0  0  2  0  0  0  0  0  0
  190.3320  177.2370  140.9200 C   0  0  0  0  0  0  0  0  0  0  0  0
  190.7160  176.8510  139.7830 O   0  0  0  0  0  0  0  0  0  0  0  0
  190.7810  177.3880  143.4110 C   0  0  1  0  0  3  0  0  0  0  0  0
  191.9450  175.3820  144.0630 O   0  0  0  0  0  1  0  0  0  0  0  0
  190.8380  176.1830  144.3530 C   0  0  1  0  0  3  0  0  0  0  0  0
  189.7140  177.0280  146.4820 N   0  0  0  0  0  0  0  0  0  0  0  0
  190.9030  176.6260  145.7860 C   0  0  0  0  0  0  0  0  0  0  0  0
  188.8110  178.5650  148.1480 C   0  0  0  0  0  2  0  0  0  0  0  0
  187.4990  178.0240  146.2500 C   0  0  0  0  0  2  0  0  0  0  0  0
  187.4710  178.1890  147.7020 N   0  0  0  0  0  2  0  0  0  0  0  0
  188.3960  176.8470  145.8770 C   0  0  0  0  0  2  0  0  0  0  0  0
  189.7850  177.4180  147.8880 C   0  0  0  0  0  2  0  0  0  0  0  0
  192.0220  176.6780  146.3660 O   0  0  0  0  0  0  0  0  0  0  0  0
  191.7250  178.4870  143.8790 C   0  0  0  0  0  2  0  0  0  0  0  0
  190.9870  179.8070  143.9730 C   0  0  0  0  0  1  0  0  0  0  0  0
  183.8330  178.2060  137.5820 C   0  0  0  0  0  2  0  0  0  0  0  0
  183.4250  174.4400  137.5610 C   0  0  0  0  0  3  0  0  0  0  0  0
  183.9720  174.1020  136.3180 C   0  0  0  0  0  0  0  0  0  0  0  0
  184.4160  176.4540  135.8930 C   0  0  0  0  0  3  0  0  0  0  0  0
  183.3710  175.7770  137.9690 C   0  0  0  0  0  3  0  0  0  0  0  0
  183.8600  176.7840  137.1330 C   0  0  0  0  0  0  0  0  0  0  0  0
  184.4700  175.1170  135.4850 C   0  0  0  0  0  3  0  0  0  0  0  0
  183.7900  171.6950  136.8580 C   0  0  0  0  0  1  0  0  0  0  0  0
  184.0110  172.7570  135.9400 O   0  0  0  0  0  0  0  0  0  0  0  0
  1  6  1  0  0  0  0
  2 12  2  0  0  0  0
  3 10  2  0  0  0  0
  4  7  2  0  0  0  0
  4 15  1  0  0  0  0
  7  9  1  0  0  0  0
  8  1  1  0  0  0  0
  9  5  1  0  0  0  0
  9  1  2  0  0  0  0
 10 11  1  0  0  0  0
 11  2  1  1  0  0  0
 11  7  1  0  0  0  0
 12  4  1  0  0  0  0
 13  2  1  0  0  0  0
 14 13  1  0  0  0  0
 14  3  1  0  0  0  0
 15  8  2  0  0  0  0
 16 17  1  1  0  0  0
 16  3  1  0  0  0  0
 16 18  1  0  0  0  0
 19 22  1  0  0  0  0
 20 18  1  0  0  0  0
 20 19  1  0  0  0  0
 21 20  2  0  0  0  0
 22 33  1  1  0  0  0
 22 24  1  0  0  0  0
 24 23  1  6  0  0  0
 24 26  1  0  0  0  0
 25 31  1  0  0  0  0
 26 32  2  0  0  0  0
 26 25  1  0  0  0  0
 28 29  1  0  0  0  0
 29 27  1  0  0  0  0
 30 28  1  0  0  0  0
 30 25  1  0  0  0  0
 31 27  1  0  0  0  0
 33 34  1  0  0  0  0
 35 13  1  0  0  0  0
 36 39  1  0  0  0  0
 37 36  2  0  0  0  0
 38 40  1  0  0  0  0
 40 35  1  0  0  0  0
 40 39  2  0  0  0  0
 41 38  2  0  0  0  0
 41 37  1  0  0  0  0
 43 37  1  0  0  0  0
 43 42  1  0  0  0  0
M  END
>  <MODEL>
3

>  <REMARK>
 VINA RESULT:      -8.3      2.930      6.136
  Name = 
  10 active torsions:
  status: ('A' for Active; 'I' for Inactive)
    1  A    between atoms: C_1  and  N_34
    2  A    between atoms: C_1  and  C_35
    3  A    between atoms: C_2  and  C_6
    4  A    between atoms: C_2  and  C_13
    5  A    between atoms: N_3  and  C_4
    6  A    between atoms: C_4  and  C_15
    7  A    between atoms: C_4  and  C_22
    8  A    between atoms: C_6  and  C_12
    9  A    between atoms: C_14  and  C_22
   10  A    between atoms: C_19  and  O_37
                            x       y       z     vdW  Elec       q    Type
                         _______ _______ _______ _____ _____    ______ ____

>  <TORSDO>
F 10

$$$$
=
 OpenBabel11052416073D

 43 47  0  0  1  0  0  0  0  0999 V2000
  189.3640  177.1570  146.8020 C   0  0  0  0  0  0  0  0  0  0  0  0
  189.2320  177.6080  142.3220 C   0  0  0  0  0  0  0  0  0  0  0  0
  186.6530  178.5520  141.7700 C   0  0  0  0  0  0  0  0  0  0  0  0
  190.1930  177.1310  144.1450 C   0  0  0  0  0  0  0  0  0  0  0  0
  187.1880  177.9110  146.1000 F   0  0  0  0  0  0  0  0  0  0  0  0
  188.9780  177.1620  148.1010 F   0  0  0  0  0  0  0  0  0  0  0  0
  188.9060  177.5090  144.4790 C   0  0  0  0  0  0  0  0  0  0  0  0
  190.6800  176.7700  146.4660 C   0  0  0  0  0  3  0  0  0  0  0  0
  188.4550  177.5360  145.7960 C   0  0  0  0  0  0  0  0  0  0  0  0
  186.9860  178.2960  143.0110 N   0  0  0  0  0  0  0  0  0  0  0  0
  188.3000  177.8110  143.2930 C   0  0  1  0  0  3  0  0  0  0  0  0
  190.4230  177.1880  142.8100 N   0  0  0  0  0  0  0  0  0  0  0  0
  188.9050  177.8750  140.9620 N   0  0  0  0  0  0  0  0  0  0  0  0
  187.6060  178.3580  140.6970 N   0  0  0  0  0  2  0  0  0  0  0  0
  191.1090  176.7550  145.1260 C   0  0  0  0  0  3  0  0  0  0  0  0
  185.2970  179.0840  141.4530 C   0  0  1  0  0  3  0  0  0  0  0  0
  185.1910  179.3260  140.0800 O   0  0  0  0  0  1  0  0  0  0  0  0
  184.2340  178.0910  141.9020 C   0  0  0  0  0  2  0  0  0  0  0  0
  181.8810  178.9510  142.3610 N   0  0  0  0  0  2  0  0  0  0  0  0
  183.2260  178.7380  142.7990 C   0  0  0  0  0  0  0  0  0  0  0  0
  183.5580  179.0820  143.9640 O   0  0  0  0  0  0  0  0  0  0  0  0
  181.4130  178.5760  141.0320 C   0  0  1  0  0  3  0  0  0  0  0  0
  179.3350  177.6670  141.8440 O   0  0  0  0  0  1  0  0  0  0  0  0
  180.4940  177.3560  141.1290 C   0  0  1  0  0  3  0  0  0  0  0  0
  181.1080  176.2760  138.9010 N   0  0  0  0  0  0  0  0  0  0  0  0
  180.1190  176.8580  139.7630 C   0  0  0  0  0  0  0  0  0  0  0  0
  181.8350  176.0440  136.5830 C   0  0  0  0  0  2  0  0  0  0  0  0
  183.4690  176.2610  138.2850 C   0  0  0  0  0  2  0  0  0  0  0  0
  183.1040  175.5180  137.0810 N   0  0  0  0  0  2  0  0  0  0  0  0
  182.4540  175.9900  139.3930 C   0  0  0  0  0  2  0  0  0  0  0  0
  180.7230  175.7570  137.5900 C   0  0  0  0  0  2  0  0  0  0  0  0
  178.9310  176.9900  139.3620 O   0  0  0  0  0  0  0  0  0  0  0  0
  180.6830  179.7570  140.4090 C   0  0  0  0  0  2  0  0  0  0  0  0
  181.4060  180.2190  139.1590 C   0  0  0  0  0  1  0  0  0  0  0  0
  189.8880  177.7640  139.8940 C   0  0  0  0  0  2  0  0  0  0  0  0
  188.2470  178.6830  136.6060 C   0  0  0  0  0  3  0  0  0  0  0  0
  187.8430  177.4310  136.1300 C   0  0  0  0  0  0  0  0  0  0  0  0
  188.7930  176.3910  138.1120 C   0  0  0  0  0  3  0  0  0  0  0  0
  188.9210  178.7920  137.8270 C   0  0  0  0  0  3  0  0  0  0  0  0
  189.2000  177.6450  138.5770 C   0  0  0  0  0  0  0  0  0  0  0  0
  188.1190  176.2830  136.8910 C   0  0  0  0  0  3  0  0  0  0  0  0
  185.7550  177.3950  134.8050 C   0  0  0  0  0  1  0  0  0  0  0  0
  187.1730  177.3560  134.9070 O   0  0  0  0  0  0  0  0  0  0  0  0
  1  6  1  0  0  0  0
  2 12  2  0  0  0  0
  3 10  2  0  0  0  0
  4  7  2  0  0  0  0
  4 15  1  0  0  0  0
  7  9  1  0  0  0  0
  8  1  1  0  0  0  0
  9  5  1  0  0  0  0
  9  1  2  0  0  0  0
 10 11  1  0  0  0  0
 11  2  1  1  0  0  0
 11  7  1  0  0  0  0
 12  4  1  0  0  0  0
 13  2  1  0  0  0  0
 14 13  1  0  0  0  0
 14  3  1  0  0  0  0
 15  8  2  0  0  0  0
 16 17  1  6  0  0  0
 16  3  1  0  0  0  0
 16 18  1  0  0  0  0
 18 20  1  0  0  0  0
 19 20  1  0  0  0  0
 20 21  2  0  0  0  0
 22 33  1  1  0  0  0
 22 24  1  0  0  0  0
 22 19  1  0  0  0  0
 24 23  1  6  0  0  0
 25 30  1  0  0  0  0
 25 26  1  0  0  0  0
 26 24  1  0  0  0  0
 27 29  1  0  0  0  0
 27 31  1  0  0  0  0
 28 30  1  0  0  0  0
 29 28  1  0  0  0  0
 31 25  1  0  0  0  0
 32 26  2  0  0  0  0
 34 33  1  0  0  0  0
 35 13  1  0  0  0  0
 36 39  1  0  0  0  0
 37 36  2  0  0  0  0
 37 41  1  0  0  0  0
 38 40  1  0  0  0  0
 39 40  2  0  0  0  0
 40 35  1  0  0  0  0
 41 38  2  0  0  0  0
 42 43  1  0  0  0  0
 43 37  1  0  0  0  0
M  END
>  <MODEL>
4

>  <REMARK>
 VINA RESULT:      -8.2      2.885      6.878
  Name = 
  10 active torsions:
  status: ('A' for Active; 'I' for Inactive)
    1  A    between atoms: C_1  and  N_34
    2  A    between atoms: C_1  and  C_35
    3  A    between atoms: C_2  and  C_6
    4  A    between atoms: C_2  and  C_13
    5  A    between atoms: N_3  and  C_4
    6  A    between atoms: C_4  and  C_15
    7  A    between atoms: C_4  and  C_22
    8  A    between atoms: C_6  and  C_12
    9  A    between atoms: C_14  and  C_22
   10  A    between atoms: C_19  and  O_37
                            x       y       z     vdW  Elec       q    Type
                         _______ _______ _______ _____ _____    ______ ____

>  <TORSDO>
F 10

$$$$
=
 OpenBabel11052416073D

 43 47  0  0  1  0  0  0  0  0999 V2000
  186.3650  177.9230  146.4200 C   0  0  0  0  0  0  0  0  0  0  0  0
  185.1900  178.7720  142.1560 C   0  0  0  0  0  0  0  0  0  0  0  0
  187.4990  178.2550  140.6570 C   0  0  0  0  0  0  0  0  0  0  0  0
  184.7990  178.6270  144.2290 C   0  0  0  0  0  0  0  0  0  0  0  0
  188.2440  177.5950  144.9520 F   0  0  0  0  0  0  0  0  0  0  0  0
  187.1120  177.5850  147.4990 F   0  0  0  0  0  0  0  0  0  0  0  0
  186.1280  178.2850  144.0660 C   0  0  0  0  0  0  0  0  0  0  0  0
  185.0070  178.2720  146.5930 C   0  0  0  0  0  3  0  0  0  0  0  0
  186.9420  177.9270  145.1370 C   0  0  0  0  0  0  0  0  0  0  0  0
  187.5410  178.1190  141.9590 N   0  0  0  0  0  0  0  0  0  0  0  0
  186.3640  178.3870  142.7240 C   0  0  0  0  0  0  0  0  0  0  0  0
  184.1900  178.9310  143.0560 N   0  0  0  0  0  2  0  0  0  0  0  0
  185.1080  178.9320  140.7420 N   0  0  0  0  0  0  0  0  0  0  0  0
  186.2740  178.6600  139.9970 N   0  0  0  0  0  2  0  0  0  0  0  0
  184.2070  178.6280  145.4910 C   0  0  0  0  0  3  0  0  0  0  0  0
  188.7050  177.9570  139.8330 C   0  0  1  0  0  3  0  0  0  0  0  0
  189.5140  177.0290  140.4950 O   0  0  0  0  0  1  0  0  0  0  0  0
  188.2830  177.4220  138.4720 C   0  0  0  0  0  2  0  0  0  0  0  0
  188.6830  177.9110  136.0050 N   0  0  0  0  0  2  0  0  0  0  0  0
  188.7010  178.3410  137.3680 C   0  0  0  0  0  0  0  0  0  0  0  0
  189.0550  179.5190  137.6400 O   0  0  0  0  0  0  0  0  0  0  0  0
  188.2810  176.5670  135.6050 C   0  0  1  0  0  3  0  0  0  0  0  0
  188.2850  174.3580  136.5670 O   0  0  0  0  0  1  0  0  0  0  0  0
  189.0370  175.5290  136.4370 C   0  0  1  0  0  3  0  0  0  0  0  0
  191.5820  175.3780  136.5480 N   0  0  0  0  0  0  0  0  0  0  0  0
  190.3630  175.2040  135.8110 C   0  0  0  0  0  0  0  0  0  0  0  0
  193.9310  176.0180  136.3830 C   0  0  0  0  0  2  0  0  0  0  0  0
  192.6960  176.6580  138.3010 C   0  0  0  0  0  2  0  0  0  0  0  0
  193.9650  176.0970  137.8420 N   0  0  0  0  0  2  0  0  0  0  0  0
  191.5540  175.7000  137.9740 C   0  0  0  0  0  2  0  0  0  0  0  0
  192.8620  175.0190  135.9420 C   0  0  0  0  0  2  0  0  0  0  0  0
  190.4000  174.8110  134.6120 O   0  0  0  0  0  0  0  0  0  0  0  0
  186.7770  176.4200  135.7920 C   0  0  0  0  0  2  0  0  0  0  0  0
  186.0460  177.5000  135.0190 C   0  0  0  0  0  1  0  0  0  0  0  0
  183.8570  179.2530  140.0720 C   0  0  0  0  0  2  0  0  0  0  0  0
  182.8050  177.1080  137.1320 C   0  0  0  0  0  3  0  0  0  0  0  0
  182.4530  175.9100  137.7660 C   0  0  0  0  0  0  0  0  0  0  0  0
  183.0350  176.8950  139.9110 C   0  0  0  0  0  3  0  0  0  0  0  0
  183.2710  178.1930  137.8810 C   0  0  0  0  0  3  0  0  0  0  0  0
  183.3920  178.0850  139.2700 C   0  0  0  0  0  0  0  0  0  0  0  0
  182.5700  175.8090  139.1620 C   0  0  0  0  0  3  0  0  0  0  0  0
  180.7040  174.2680  137.1650 C   0  0  0  0  0  1  0  0  0  0  0  0
  181.9920  174.8450  136.9890 O   0  0  0  0  0  0  0  0  0  0  0  0
  1  8  1  0  0  0  0
  1  6  1  0  0  0  0
  2 11  2  0  0  0  0
  2 12  1  0  0  0  0
  3 10  2  0  0  0  0
  4 15  1  0  0  0  0
  5  9  1  0  0  0  0
  7  4  2  0  0  0  0
  7  9  1  0  0  0  0
  9  1  2  0  0  0  0
 10 11  1  0  0  0  0
 11  7  1  0  0  0  0
 12  4  1  0  0  0  0
 13  2  1  0  0  0  0
 14  3  1  0  0  0  0
 14 13  1  0  0  0  0
 15  8  2  0  0  0  0
 16 17  1  1  0  0  0
 16  3  1  0  0  0  0
 18 16  1  0  0  0  0
 19 20  1  0  0  0  0
 20 21  2  0  0  0  0
 20 18  1  0  0  0  0
 22 33  1  1  0  0  0
 22 19  1  0  0  0  0
 22 24  1  0  0  0  0
 24 23  1  6  0  0  0
 25 30  1  0  0  0  0
 26 24  1  0  0  0  0
 26 25  1  0  0  0  0
 27 29  1  0  0  0  0
 29 28  1  0  0  0  0
 30 28  1  0  0  0  0
 31 27  1  0  0  0  0
 31 25  1  0  0  0  0
 32 26  2  0  0  0  0
 34 33  1  0  0  0  0
 35 13  1  0  0  0  0
 36 37  2  0  0  0  0
 36 39  1  0  0  0  0
 37 41  1  0  0  0  0
 39 40  2  0  0  0  0
 40 38  1  0  0  0  0
 40 35  1  0  0  0  0
 41 38  2  0  0  0  0
 43 42  1  0  0  0  0
 43 37  1  0  0  0  0
M  END
>  <MODEL>
5

>  <REMARK>
 VINA RESULT:      -8.1      1.554      3.238
  Name = 
  10 active torsions:
  status: ('A' for Active; 'I' for Inactive)
    1  A    between atoms: C_1  and  N_34
    2  A    between atoms: C_1  and  C_35
    3  A    between atoms: C_2  and  C_6
    4  A    between atoms: C_2  and  C_13
    5  A    between atoms: N_3  and  C_4
    6  A    between atoms: C_4  and  C_15
    7  A    between atoms: C_4  and  C_22
    8  A    between atoms: C_6  and  C_12
    9  A    between atoms: C_14  and  C_22
   10  A    between atoms: C_19  and  O_37
                            x       y       z     vdW  Elec       q    Type
                         _______ _______ _______ _____ _____    ______ ____

>  <TORSDO>
F 10

$$$$
=
 OpenBabel11052416073D

 43 47  0  0  1  0  0  0  0  0999 V2000
  181.5980  178.9630  141.4020 C   0  0  0  0  0  0  0  0  0  0  0  0
  185.3540  178.3930  143.8210 C   0  0  0  0  0  0  0  0  0  0  0  0
  187.4140  178.2550  141.9290 C   0  0  0  0  0  0  0  0  0  0  0  0
  183.2680  178.6680  143.6100 C   0  0  0  0  0  0  0  0  0  0  0  0
  183.5060  178.7570  139.9500 F   0  0  0  0  0  0  0  0  0  0  0  0
  180.7680  179.1060  140.3400 F   0  0  0  0  0  0  0  0  0  0  0  0
  183.7820  178.6410  142.3260 C   0  0  0  0  0  0  0  0  0  0  0  0
  181.0670  178.9900  142.7100 C   0  0  0  0  0  3  0  0  0  0  0  0
  182.9790  178.7860  141.1980 C   0  0  0  0  0  0  0  0  0  0  0  0
  186.1790  178.3950  141.5160 N   0  0  0  0  0  0  0  0  0  0  0  0
  185.1270  178.4610  142.4810 C   0  0  0  0  0  0  0  0  0  0  0  0
  184.2250  178.5200  144.5580 N   0  0  0  0  0  2  0  0  0  0  0  0
  186.6850  178.2400  144.3060 N   0  0  0  0  0  0  0  0  0  0  0  0
  187.7150  178.1810  143.3440 N   0  0  0  0  0  2  0  0  0  0  0  0
  181.9040  178.8440  143.8320 C   0  0  0  0  0  3  0  0  0  0  0  0
  188.5320  178.2090  140.9440 C   0  0  1  0  0  3  0  0  0  0  0  0
  189.5600  177.3960  141.4290 O   0  0  0  0  0  1  0  0  0  0  0  0
  188.0230  177.6850  139.6080 C   0  0  0  0  0  2  0  0  0  0  0  0
  189.3810  177.3080  137.4870 N   0  0  0  0  0  2  0  0  0  0  0  0
  188.8460  178.1990  138.4690 C   0  0  0  0  0  0  0  0  0  0  0  0
  189.0550  179.4360  138.3600 O   0  0  0  0  0  0  0  0  0  0  0  0
  189.1800  175.8650  137.5350 C   0  0  1  0  0  3  0  0  0  0  0  0
  189.0740  174.5940  135.4910 O   0  0  0  0  0  1  0  0  0  0  0  0
  188.3320  175.4170  136.3420 C   0  0  1  0  0  3  0  0  0  0  0  0
  185.8250  175.3320  136.8060 N   0  0  0  0  0  0  0  0  0  0  0  0
  187.1050  174.6830  136.8020 C   0  0  0  0  0  0  0  0  0  0  0  0
  183.7000  175.5260  137.9890 C   0  0  0  0  0  2  0  0  0  0  0  0
  184.6620  177.4650  137.0250 C   0  0  0  0  0  2  0  0  0  0  0  0
  183.4170  176.7180  137.1920 N   0  0  0  0  0  2  0  0  0  0  0  0
  185.6520  176.6500  136.1990 C   0  0  0  0  0  2  0  0  0  0  0  0
  184.6320  174.5950  137.2170 C   0  0  0  0  0  2  0  0  0  0  0  0
  187.2150  173.4990  137.2230 O   0  0  0  0  0  0  0  0  0  0  0  0
  190.5360  175.1720  137.5270 C   0  0  0  0  0  2  0  0  0  0  0  0
  191.5400  175.9800  138.3250 C   0  0  0  0  0  1  0  0  0  0  0  0
  186.9960  178.2530  145.7270 C   0  0  0  0  0  2  0  0  0  0  0  0
  189.9560  176.5300  147.3470 C   0  0  0  0  0  3  0  0  0  0  0  0
  190.9710  176.7730  146.4150 C   0  0  0  0  0  0  0  0  0  0  0  0
  189.3810  177.9730  145.0220 C   0  0  0  0  0  3  0  0  0  0  0  0
  188.6590  177.0040  147.1190 C   0  0  0  0  0  3  0  0  0  0  0  0
  188.3700  177.7190  145.9540 C   0  0  0  0  0  0  0  0  0  0  0  0
  190.6770  177.5000  145.2500 C   0  0  0  0  0  3  0  0  0  0  0  0
  192.5990  175.6310  147.8860 C   0  0  0  0  0  1  0  0  0  0  0  0
  192.2550  176.2860  146.6720 O   0  0  0  0  0  0  0  0  0  0  0  0
  1  8  1  0  0  0  0
  2 13  1  0  0  0  0
  2 12  1  0  0  0  0
  3 14  1  0  0  0  0
  4 15  1  0  0  0  0
  4 12  1  0  0  0  0
  5  9  1  0  0  0  0
  6  1  1  0  0  0  0
  7 11  1  0  0  0  0
  7  4  2  0  0  0  0
  8 15  2  0  0  0  0
  9  1  2  0  0  0  0
  9  7  1  0  0  0  0
 10  3  2  0  0  0  0
 10 11  1  0  0  0  0
 11  2  2  0  0  0  0
 13 35  1  0  0  0  0
 14 13  1  0  0  0  0
 16 17  1  1  0  0  0
 16  3  1  0  0  0  0
 18 16  1  0  0  0  0
 19 22  1  0  0  0  0
 19 20  1  0  0  0  0
 20 18  1  0  0  0  0
 21 20  2  0  0  0  0
 22 33  1  6  0  0  0
 24 23  1  6  0  0  0
 24 26  1  0  0  0  0
 24 22  1  0  0  0  0
 25 31  1  0  0  0  0
 26 25  1  0  0  0  0
 26 32  2  0  0  0  0
 28 29  1  0  0  0  0
 29 27  1  0  0  0  0
 30 25  1  0  0  0  0
 30 28  1  0  0  0  0
 31 27  1  0  0  0  0
 33 34  1  0  0  0  0
 35 40  1  0  0  0  0
 37 43  1  0  0  0  0
 37 36  2  0  0  0  0
 38 41  2  0  0  0  0
 38 40  1  0  0  0  0
 39 36  1  0  0  0  0
 40 39  2  0  0  0  0
 41 37  1  0  0  0  0
 43 42  1  0  0  0  0
M  END
>  <MODEL>
6

>  <REMARK>
 VINA RESULT:      -8.0      3.024      5.943
  Name = 
  10 active torsions:
  status: ('A' for Active; 'I' for Inactive)
    1  A    between atoms: C_1  and  N_34
    2  A    between atoms: C_1  and  C_35
    3  A    between atoms: C_2  and  C_6
    4  A    between atoms: C_2  and  C_13
    5  A    between atoms: N_3  and  C_4
    6  A    between atoms: C_4  and  C_15
    7  A    between atoms: C_4  and  C_22
    8  A    between atoms: C_6  and  C_12
    9  A    between atoms: C_14  and  C_22
   10  A    between atoms: C_19  and  O_37
                            x       y       z     vdW  Elec       q    Type
                         _______ _______ _______ _____ _____    ______ ____

>  <TORSDO>
F 10

$$$$
=
 OpenBabel11052416073D

 43 47  0  0  1  0  0  0  0  0999 V2000
  189.6690  177.0730  145.9360 C   0  0  0  0  0  0  0  0  0  0  0  0
  188.9710  177.8800  141.5600 C   0  0  0  0  0  0  0  0  0  0  0  0
  186.3250  178.7860  141.4100 C   0  0  0  0  0  0  0  0  0  0  0  0
  190.1620  177.2870  143.2040 C   0  0  0  0  0  0  0  0  0  0  0  0
  187.4080  177.8130  145.5720 F   0  0  0  0  0  0  0  0  0  0  0  0
  189.4490  176.9600  147.2690 F   0  0  0  0  0  0  0  0  0  0  0  0
  188.9190  177.5970  143.7250 C   0  0  0  0  0  0  0  0  0  0  0  0
  190.9410  176.7540  145.4110 C   0  0  0  0  0  3  0  0  0  0  0  0
  188.6350  177.5030  145.0850 C   0  0  0  0  0  0  0  0  0  0  0  0
  186.8150  178.4410  142.5750 N   0  0  0  0  0  0  0  0  0  0  0  0
  188.1640  177.9750  142.6510 C   0  0  1  0  0  3  0  0  0  0  0  0
  190.2220  177.4580  141.8610 N   0  0  0  0  0  0  0  0  0  0  0  0
  188.4720  178.2460  140.2770 N   0  0  0  0  0  0  0  0  0  0  0  0
  187.1410  178.7090  140.2150 N   0  0  0  0  0  2  0  0  0  0  0  0
  191.2000  176.8610  144.0310 C   0  0  0  0  0  3  0  0  0  0  0  0
  184.9290  179.3000  141.3070 C   0  0  1  0  0  3  0  0  0  0  0  0
  184.6560  179.6710  139.9870 O   0  0  0  0  0  1  0  0  0  0  0  0
  183.9490  178.2320  141.7740 C   0  0  0  0  0  2  0  0  0  0  0  0
  181.8840  179.0470  143.0220 N   0  0  0  0  0  2  0  0  0  0  0  0
  183.2550  178.6410  143.0350 C   0  0  0  0  0  0  0  0  0  0  0  0
  183.8800  178.6080  144.1280 O   0  0  0  0  0  0  0  0  0  0  0  0
  181.0890  179.1070  141.8010 C   0  0  1  0  0  3  0  0  0  0  0  0
  179.0790  177.7780  141.7890 O   0  0  0  0  0  1  0  0  0  0  0  0
  180.4510  177.7430  141.5290 C   0  0  1  0  0  3  0  0  0  0  0  0
  180.2020  176.0500  139.6350 N   0  0  0  0  0  0  0  0  0  0  0  0
  180.6790  177.3190  140.1060 C   0  0  0  0  0  0  0  0  0  0  0  0
  180.6830  174.1710  138.1560 C   0  0  0  0  0  2  0  0  0  0  0  0
  179.6780  173.7510  140.2610 C   0  0  0  0  0  2  0  0  0  0  0  0
  179.6280  173.4230  138.8380 N   0  0  0  0  0  2  0  0  0  0  0  0
  179.3320  175.2230  140.4690 C   0  0  0  0  0  2  0  0  0  0  0  0
  180.3940  175.6680  138.2390 C   0  0  0  0  0  2  0  0  0  0  0  0
  181.3300  178.0750  139.3340 O   0  0  0  0  0  0  0  0  0  0  0  0
  180.0220  180.1830  141.9530 C   0  0  0  0  0  2  0  0  0  0  0  0
  179.7860  180.8750  140.6260 C   0  0  0  0  0  1  0  0  0  0  0  0
  189.3160  178.2520  139.0920 C   0  0  0  0  0  2  0  0  0  0  0  0
  190.0070  174.9110  137.4460 C   0  0  0  0  0  3  0  0  0  0  0  0
  188.7860  174.6480  136.8150 C   0  0  0  0  0  0  0  0  0  0  0  0
  187.9030  176.7380  137.6870 C   0  0  0  0  0  3  0  0  0  0  0  0
  190.1770  176.0800  138.1950 C   0  0  0  0  0  3  0  0  0  0  0  0
  189.1240  176.9900  138.3220 C   0  0  0  0  0  0  0  0  0  0  0  0
  187.7330  175.5690  136.9380 C   0  0  0  0  0  3  0  0  0  0  0  0
  189.7620  172.7400  135.5790 C   0  0  0  0  0  1  0  0  0  0  0  0
  188.6470  173.4710  136.0740 O   0  0  0  0  0  0  0  0  0  0  0  0
  1  6  1  0  0  0  0
  2 12  2  0  0  0  0
  3 10  2  0  0  0  0
  4  7  2  0  0  0  0
  4 15  1  0  0  0  0
  7  9  1  0  0  0  0
  8  1  1  0  0  0  0
  9  5  1  0  0  0  0
  9  1  2  0  0  0  0
 10 11  1  0  0  0  0
 11  2  1  1  0  0  0
 11  7  1  0  0  0  0
 12  4  1  0  0  0  0
 13  2  1  0  0  0  0
 14 13  1  0  0  0  0
 14  3  1  0  0  0  0
 15  8  2  0  0  0  0
 16 17  1  6  0  0  0
 16  3  1  0  0  0  0
 16 18  1  0  0  0  0
 18 20  1  0  0  0  0
 19 20  1  0  0  0  0
 20 21  2  0  0  0  0
 22 33  1  1  0  0  0
 22 19  1  0  0  0  0
 24 23  1  6  0  0  0
 24 22  1  0  0  0  0
 25 26  1  0  0  0  0
 25 30  1  0  0  0  0
 26 24  1  0  0  0  0
 27 31  1  0  0  0  0
 27 29  1  0  0  0  0
 28 30  1  0  0  0  0
 29 28  1  0  0  0  0
 31 25  1  0  0  0  0
 32 26  2  0  0  0  0
 34 33  1  0  0  0  0
 35 13  1  0  0  0  0
 36 39  1  0  0  0  0
 37 41  1  0  0  0  0
 37 36  2  0  0  0  0
 38 40  1  0  0  0  0
 39 40  2  0  0  0  0
 40 35  1  0  0  0  0
 41 38  2  0  0  0  0
 42 43  1  0  0  0  0
 43 37  1  0  0  0  0
M  END
>  <MODEL>
7

>  <REMARK>
 VINA RESULT:      -7.9      3.151      7.376
  Name = 
  10 active torsions:
  status: ('A' for Active; 'I' for Inactive)
    1  A    between atoms: C_1  and  N_34
    2  A    between atoms: C_1  and  C_35
    3  A    between atoms: C_2  and  C_6
    4  A    between atoms: C_2  and  C_13
    5  A    between atoms: N_3  and  C_4
    6  A    between atoms: C_4  and  C_15
    7  A    between atoms: C_4  and  C_22
    8  A    between atoms: C_6  and  C_12
    9  A    between atoms: C_14  and  C_22
   10  A    between atoms: C_19  and  O_37
                            x       y       z     vdW  Elec       q    Type
                         _______ _______ _______ _____ _____    ______ ____

>  <TORSDO>
F 10

$$$$
=
 OpenBabel11052416073D

 43 47  0  0  1  0  0  0  0  0999 V2000
  184.5920  178.9920  144.5390 C   0  0  0  0  0  0  0  0  0  0  0  0
  183.9580  178.6030  140.0970 C   0  0  0  0  0  0  0  0  0  0  0  0
  186.5360  178.4010  139.0180 C   0  0  0  0  0  0  0  0  0  0  0  0
  183.2810  178.7960  142.0900 C   0  0  0  0  0  0  0  0  0  0  0  0
  186.7080  178.8640  143.4000 F   0  0  0  0  0  0  0  0  0  0  0  0
  185.2110  179.0910  145.7400 F   0  0  0  0  0  0  0  0  0  0  0  0
  184.6620  178.7840  142.1560 C   0  0  0  0  0  0  0  0  0  0  0  0
  183.1800  179.0060  144.4790 C   0  0  0  0  0  3  0  0  0  0  0  0
  185.3520  178.8780  143.3610 C   0  0  0  0  0  0  0  0  0  0  0  0
  186.3970  178.5540  140.3120 N   0  0  0  0  0  0  0  0  0  0  0  0
  185.0820  178.6610  140.8620 C   0  0  1  0  0  3  0  0  0  0  0  0
  182.8180  178.6810  140.8220 N   0  0  0  0  0  0  0  0  0  0  0  0
  184.0720  178.4380  138.6860 N   0  0  0  0  0  0  0  0  0  0  0  0
  185.3740  178.3290  138.1550 N   0  0  0  0  0  2  0  0  0  0  0  0
  182.5090  178.9060  143.2460 C   0  0  0  0  0  3  0  0  0  0  0  0
  187.8950  178.2610  138.4220 C   0  0  1  0  0  3  0  0  0  0  0  0
  188.1760  179.3660  137.6140 O   0  0  0  0  0  1  0  0  0  0  0  0
  188.9340  178.1310  139.5280 C   0  0  0  0  0  2  0  0  0  0  0  0
  190.5500  176.3780  140.4210 N   0  0  0  0  0  2  0  0  0  0  0  0
  189.7850  176.9150  139.3390 C   0  0  0  0  0  0  0  0  0  0  0  0
  189.8140  176.3430  138.2180 O   0  0  0  0  0  0  0  0  0  0  0  0
  190.5680  176.9750  141.7510 C   0  0  1  0  0  3  0  0  0  0  0  0
  191.3530  175.6420  143.5980 O   0  0  0  0  0  1  0  0  0  0  0  0
  190.2370  175.9140  142.8030 C   0  0  1  0  0  3  0  0  0  0  0  0
  189.3470  176.8850  144.9880 N   0  0  0  0  0  0  0  0  0  0  0  0
  189.0990  176.3600  143.6750 C   0  0  0  0  0  0  0  0  0  0  0  0
  188.5010  177.0030  147.2730 C   0  0  0  0  0  2  0  0  0  0  0  0
  190.8370  176.8270  146.9190 C   0  0  0  0  0  2  0  0  0  0  0  0
  189.8040  177.5250  147.6810 N   0  0  0  0  0  2  0  0  0  0  0  0
  190.7100  177.1650  145.4360 C   0  0  0  0  0  2  0  0  0  0  0  0
  188.2350  177.3540  145.8110 C   0  0  0  0  0  2  0  0  0  0  0  0
  187.9150  176.2340  143.2590 O   0  0  0  0  0  0  0  0  0  0  0  0
  191.9400  177.5830  142.0070 C   0  0  0  0  0  2  0  0  0  0  0  0
  192.7900  177.5010  140.7550 C   0  0  0  0  0  1  0  0  0  0  0  0
  182.9060  178.2790  137.8300 C   0  0  0  0  0  2  0  0  0  0  0  0
  182.7750  174.4990  137.6080 C   0  0  0  0  0  3  0  0  0  0  0  0
  182.8660  174.2930  136.2270 C   0  0  0  0  0  0  0  0  0  0  0  0
  182.9680  176.6980  135.8910 C   0  0  0  0  0  3  0  0  0  0  0  0
  182.7780  175.7970  138.1300 C   0  0  0  0  0  3  0  0  0  0  0  0
  182.8680  176.8970  137.2720 C   0  0  0  0  0  0  0  0  0  0  0  0
  182.9650  175.4010  135.3690 C   0  0  0  0  0  3  0  0  0  0  0  0
  183.3810  171.8860  136.4750 C   0  0  0  0  0  1  0  0  0  0  0  0
  182.8600  172.9840  135.7370 O   0  0  0  0  0  0  0  0  0  0  0  0
  1  6  1  0  0  0  0
  2 12  2  0  0  0  0
  3 10  2  0  0  0  0
  4  7  2  0  0  0  0
  4 15  1  0  0  0  0
  7  9  1  0  0  0  0
  8  1  1  0  0  0  0
  9  5  1  0  0  0  0
  9  1  2  0  0  0  0
 10 11  1  0  0  0  0
 11  2  1  1  0  0  0
 11  7  1  0  0  0  0
 12  4  1  0  0  0  0
 13  2  1  0  0  0  0
 14 13  1  0  0  0  0
 14  3  1  0  0  0  0
 15  8  2  0  0  0  0
 16 17  1  1  0  0  0
 16  3  1  0  0  0  0
 16 18  1  0  0  0  0
 19 22  1  0  0  0  0
 20 18  1  0  0  0  0
 20 19  1  0  0  0  0
 21 20  2  0  0  0  0
 22 33  1  1  0  0  0
 22 24  1  0  0  0  0
 24 23  1  1  0  0  0
 24 26  1  0  0  0  0
 25 30  1  0  0  0  0
 25 31  1  0  0  0  0
 26 25  1  0  0  0  0
 27 29  1  0  0  0  0
 28 29  1  0  0  0  0
 30 28  1  0  0  0  0
 31 27  1  0  0  0  0
 32 26  2  0  0  0  0
 34 33  1  0  0  0  0
 35 13  1  0  0  0  0
 36 39  1  0  0  0  0
 37 36  2  0  0  0  0
 38 40  1  0  0  0  0
 40 35  1  0  0  0  0
 40 39  2  0  0  0  0
 41 38  2  0  0  0  0
 41 37  1  0  0  0  0
 43 37  1  0  0  0  0
 43 42  1  0  0  0  0
M  END
>  <MODEL>
8

>  <REMARK>
 VINA RESULT:      -7.9      2.613      5.445
  Name = 
  10 active torsions:
  status: ('A' for Active; 'I' for Inactive)
    1  A    between atoms: C_1  and  N_34
    2  A    between atoms: C_1  and  C_35
    3  A    between atoms: C_2  and  C_6
    4  A    between atoms: C_2  and  C_13
    5  A    between atoms: N_3  and  C_4
    6  A    between atoms: C_4  and  C_15
    7  A    between atoms: C_4  and  C_22
    8  A    between atoms: C_6  and  C_12
    9  A    between atoms: C_14  and  C_22
   10  A    between atoms: C_19  and  O_37
                            x       y       z     vdW  Elec       q    Type
                         _______ _______ _______ _____ _____    ______ ____

>  <TORSDO>
F 10

$$$$
=
 OpenBabel11052416073D

 43 47  0  0  1  0  0  0  0  0999 V2000
  188.5410  177.2500  146.2920 C   0  0  0  0  0  0  0  0  0  0  0  0
  188.4340  178.0800  141.8660 C   0  0  0  0  0  0  0  0  0  0  0  0
  185.7190  178.4040  141.2610 C   0  0  0  0  0  0  0  0  0  0  0  0
  189.4300  177.6840  143.6890 C   0  0  0  0  0  0  0  0  0  0  0  0
  186.2680  177.5050  145.5420 F   0  0  0  0  0  0  0  0  0  0  0  0
  188.1280  177.0350  147.5650 F   0  0  0  0  0  0  0  0  0  0  0  0
  188.0790  177.6970  143.9860 C   0  0  0  0  0  0  0  0  0  0  0  0
  189.9220  177.2340  145.9950 C   0  0  0  0  0  3  0  0  0  0  0  0
  187.5970  177.4860  145.2750 C   0  0  0  0  0  0  0  0  0  0  0  0
  186.0680  178.1210  142.4910 N   0  0  0  0  0  0  0  0  0  0  0  0
  187.4530  177.9510  142.8000 C   0  0  1  0  0  3  0  0  0  0  0  0
  189.6780  177.9230  142.3780 N   0  0  0  0  0  0  0  0  0  0  0  0
  188.0920  178.3860  140.5180 N   0  0  0  0  0  0  0  0  0  0  0  0
  186.7220  178.5550  140.2270 N   0  0  0  0  0  2  0  0  0  0  0  0
  190.3800  177.4540  144.6820 C   0  0  0  0  0  3  0  0  0  0  0  0
  184.2830  178.6110  140.9180 C   0  0  1  0  0  3  0  0  0  0  0  0
  183.6470  179.3150  141.9440 O   0  0  0  0  0  1  0  0  0  0  0  0
  184.1690  179.3670  139.6020 C   0  0  0  0  0  2  0  0  0  0  0  0
  182.3100  178.3480  138.1900 N   0  0  0  0  0  2  0  0  0  0  0  0
  183.7010  178.4740  138.4960 C   0  0  0  0  0  0  0  0  0  0  0  0
  184.5450  177.8390  137.8100 O   0  0  0  0  0  0  0  0  0  0  0  0
  181.2710  179.0540  138.9310 C   0  0  1  0  0  3  0  0  0  0  0  0
  179.0750  179.3460  137.9840 O   0  0  0  0  0  1  0  0  0  0  0  0
  180.3820  179.8370  137.9610 C   0  0  1  0  0  3  0  0  0  0  0  0
  180.3360  182.2930  137.2710 N   0  0  0  0  0  0  0  0  0  0  0  0
  180.3730  181.2990  138.3060 C   0  0  0  0  0  0  0  0  0  0  0  0
  181.1170  184.5110  136.6190 C   0  0  0  0  0  2  0  0  0  0  0  0
  180.9630  182.8140  134.9720 C   0  0  0  0  0  2  0  0  0  0  0  0
  180.6720  184.2170  135.2580 N   0  0  0  0  0  2  0  0  0  0  0  0
  180.1260  181.9130  135.8760 C   0  0  0  0  0  2  0  0  0  0  0  0
  180.2860  183.7110  137.6200 C   0  0  0  0  0  2  0  0  0  0  0  0
  180.4360  181.6480  139.5160 O   0  0  0  0  0  0  0  0  0  0  0  0
  180.4510  178.0450  139.7220 C   0  0  0  0  0  2  0  0  0  0  0  0
  180.3920  178.4490  141.1820 C   0  0  0  0  0  1  0  0  0  0  0  0
  189.1020  178.6240  139.4980 C   0  0  0  0  0  2  0  0  0  0  0  0
  190.9480  175.6490  138.0510 C   0  0  0  0  0  3  0  0  0  0  0  0
  189.9410  175.0250  137.3060 C   0  0  0  0  0  0  0  0  0  0  0  0
  188.3770  176.7490  138.0070 C   0  0  0  0  0  3  0  0  0  0  0  0
  190.6730  176.8150  138.7730 C   0  0  0  0  0  3  0  0  0  0  0  0
  189.3870  177.3620  138.7570 C   0  0  0  0  0  0  0  0  0  0  0  0
  188.6520  175.5830  137.2860 C   0  0  0  0  0  3  0  0  0  0  0  0
  191.5780  173.3820  136.4470 C   0  0  0  0  0  1  0  0  0  0  0  0
  190.2480  173.8620  136.5960 O   0  0  0  0  0  0  0  0  0  0  0  0
  1  6  1  0  0  0  0
  2 12  2  0  0  0  0
  3 10  2  0  0  0  0
  4  7  2  0  0  0  0
  4 15  1  0  0  0  0
  7  9  1  0  0  0  0
  8  1  1  0  0  0  0
  9  5  1  0  0  0  0
  9  1  2  0  0  0  0
 10 11  1  0  0  0  0
 11  2  1  1  0  0  0
 11  7  1  0  0  0  0
 12  4  1  0  0  0  0
 13  2  1  0  0  0  0
 14 13  1  0  0  0  0
 14  3  1  0  0  0  0
 15  8  2  0  0  0  0
 16  3  1  0  0  0  0
 16 17  1  1  0  0  0
 18 16  1  0  0  0  0
 19 20  1  0  0  0  0
 19 22  1  0  0  0  0
 20 18  1  0  0  0  0
 21 20  2  0  0  0  0
 22 33  1  6  0  0  0
 24 23  1  1  0  0  0
 24 26  1  0  0  0  0
 24 22  1  0  0  0  0
 25 31  1  0  0  0  0
 25 26  1  0  0  0  0
 26 32  2  0  0  0  0
 27 31  1  0  0  0  0
 28 29  1  0  0  0  0
 28 30  1  0  0  0  0
 29 27  1  0  0  0  0
 30 25  1  0  0  0  0
 33 34  1  0  0  0  0
 35 13  1  0  0  0  0
 36 39  1  0  0  0  0
 37 36  2  0  0  0  0
 38 40  1  0  0  0  0
 40 39  2  0  0  0  0
 40 35  1  0  0  0  0
 41 37  1  0  0  0  0
 41 38  2  0  0  0  0
 42 43  1  0  0  0  0
 43 37  1  0  0  0  0
M  END
>  <MODEL>
9

>  <REMARK>
 VINA RESULT:      -7.8      3.750      7.865
  Name = 
  10 active torsions:
  status: ('A' for Active; 'I' for Inactive)
    1  A    between atoms: C_1  and  N_34
    2  A    between atoms: C_1  and  C_35
    3  A    between atoms: C_2  and  C_6
    4  A    between atoms: C_2  and  C_13
    5  A    between atoms: N_3  and  C_4
    6  A    between atoms: C_4  and  C_15
    7  A    between atoms: C_4  and  C_22
    8  A    between atoms: C_6  and  C_12
    9  A    between atoms: C_14  and  C_22
   10  A    between atoms: C_19  and  O_37
                            x       y       z     vdW  Elec       q    Type
                         _______ _______ _______ _____ _____    ______ ____

>  <TORSDO>
F 10

$$$$
