=
 OpenBabel11052415593D

 34 37  0  0  1  0  0  0  0  0999 V2000
  183.4950  178.2870  139.5950 C   0  0  1  0  0  0  0  0  0  0  0  0
  182.0000  175.3050  138.2990 C   0  0  0  0  0  2  0  0  0  0  0  0
  181.2880  177.6050  138.8720 C   0  0  1  0  0  3  0  0  0  0  0  0
  184.5870  179.3230  139.3160 C   0  0  0  0  0  1  0  0  0  0  0  0
  182.0770  178.8190  139.3440 C   0  0  2  0  0  3  0  0  0  0  0  0
  182.3980  174.5960  137.0080 C   0  0  0  0  0  2  0  0  0  0  0  0
  183.8800  174.7820  136.6290 C   0  0  1  0  0  3  0  0  0  0  0  0
  184.3200  176.2270  136.3620 C   0  0  0  0  0  2  0  0  0  0  0  0
  182.2510  176.7420  138.1660 N   0  0  1  0  0  0  0  0  0  0  0  0
  184.6490  177.0450  137.6210 C   0  0  0  0  0  2  0  0  0  0  0  0
  183.5720  177.0100  138.7240 C   0  0  1  0  0  3  0  0  0  0  0  0
  184.9480  173.8570  137.2440 C   0  0  0  0  0  3  0  0  0  0  0  0
  184.4440  172.4290  137.3480 C   0  0  0  0  0  2  0  0  0  0  0  0
  185.4630  172.7910  136.2900 C   0  0  0  0  0  2  0  0  0  0  0  0
  181.2570  179.6570  137.0580 C   0  0  0  0  0  1  0  0  0  0  0  0
  181.9590  180.0060  138.3630 C   0  0  0  0  0  3  0  0  0  0  0  0
  181.2540  181.1750  139.0230 C   0  0  0  0  0  1  0  0  0  0  0  0
  180.6290  176.9720  140.0350 C   0  0  0  0  0  0  0  0  0  0  0  0
  180.0830  176.4570  140.9800 C   0  0  0  0  0  3  0  0  0  0  0  0
  183.5670  177.9330  141.0850 C   0  0  0  0  0  2  0  0  0  0  0  0
  183.3960  179.0910  141.9580 N   0  0  0  0  0  0  0  0  0  0  0  0
  184.7140  179.3410  142.5230 C   0  0  0  0  0  2  0  0  0  0  0  0
  187.5330  177.1750  144.7880 C   0  0  2  0  0  3  0  0  0  0  0  0
  187.3140  176.7500  143.3980 N   0  0  0  0  0  2  0  0  0  0  0  0
  186.6790  177.8260  142.6320 C   0  0  0  0  0  2  0  0  0  0  0  0
  185.2770  178.2420  144.6610 C   0  0  0  0  0  3  0  0  0  0  0  0
  185.2650  178.0780  143.1630 C   0  0  1  0  0  3  0  0  0  0  0  0
  186.3110  177.8240  145.4030 C   0  0  0  0  0  3  0  0  0  0  0  0
  188.8060  178.0130  144.9450 C   0  0  0  0  0  2  0  0  0  0  0  0
  189.6310  177.0500  146.9100 C   0  0  0  0  0  1  0  0  0  0  0  0
  189.9020  177.2280  145.4960 N   0  0  0  0  0  2  0  0  0  0  0  0
  182.5300  178.6850  143.0570 C   0  0  0  0  0  2  0  0  0  0  0  0
  180.1980  178.7490  143.9210 C   0  0  0  0  0  1  0  0  0  0  0  0
  181.1600  179.3310  142.9080 C   0  0  0  0  0  2  0  0  0  0  0  0
  1  4  1  6  0  0  0
  1 20  1  0  0  0  0
  3  5  1  0  0  0  0
  3 18  1  1  0  0  0
  5 16  1  6  0  0  0
  5  1  1  0  0  0  0
  6  2  1  0  0  0  0
  7  6  1  0  0  0  0
  7 12  1  1  0  0  0
  8  7  1  0  0  0  0
  8 10  1  0  0  0  0
  9  2  1  1  0  0  0
  9 11  1  0  0  0  0
  9  3  1  0  0  0  0
 11 10  1  6  0  0  0
 11  1  1  0  0  0  0
 12 13  1  0  0  0  0
 14 12  1  0  0  0  0
 14 13  1  0  0  0  0
 15 16  1  0  0  0  0
 16 17  1  0  0  0  0
 18 19  3  0  0  0  0
 20 21  1  0  0  0  0
 21 22  1  0  0  0  0
 21 32  1  0  0  0  0
 23 29  1  6  0  0  0
 23 28  1  0  0  0  0
 24 23  1  0  0  0  0
 25 27  1  0  0  0  0
 25 24  1  0  0  0  0
 26 28  2  0  0  0  0
 27 22  1  6  0  0  0
 27 26  1  0  0  0  0
 29 31  1  0  0  0  0
 31 30  1  0  0  0  0
 34 32  1  0  0  0  0
 34 33  1  0  0  0  0
M  END
>  <MODEL>
1

>  <REMARK>
 VINA RESULT:      -5.9      0.000      0.000
  Name = 
  11 active torsions:
  status: ('A' for Active; 'I' for Inactive)
    1  A    between atoms: C_1  and  C_8
    2  A    between atoms: C_3  and  C_25
    3  A    between atoms: C_5  and  C_19
    4  A    between atoms: C_6  and  N_18
    5  A    between atoms: C_6  and  C_28
    6  A    between atoms: C_7  and  C_11
    7  A    between atoms: C_8  and  N_18
    8  A    between atoms: C_11  and  N_21
    9  A    between atoms: C_12  and  C_20
   10  A    between atoms: N_18  and  C_30
   11  A    between atoms: C_30  and  C_31
                            x       y       z     vdW  Elec       q    Type
                         _______ _______ _______ _____ _____    ______ ____

>  <TORSDO>
F 11

$$$$
=
 OpenBabel11052415593D

 34 37  0  0  1  0  0  0  0  0999 V2000
  189.4260  177.0500  138.0110 C   0  0  1  0  0  0  0  0  0  0  0  0
  190.4640  173.8610  136.7610 C   0  0  0  0  0  2  0  0  0  0  0  0
  188.6740  175.5080  136.3030 C   0  0  1  0  0  3  0  0  0  0  0  0
  189.8970  178.4940  138.2080 C   0  0  0  0  0  1  0  0  0  0  0  0
  188.4070  176.8950  136.8750 C   0  0  2  0  0  3  0  0  0  0  0  0
  191.8180  173.5470  136.1320 C   0  0  0  0  0  2  0  0  0  0  0  0
  192.9670  174.4280  136.6590 C   0  0  1  0  0  3  0  0  0  0  0  0
  192.8210  175.9330  136.3970 C   0  0  0  0  0  2  0  0  0  0  0  0
  190.1130  175.2580  136.4960 N   0  0  1  0  0  0  0  0  0  0  0  0
  191.9290  176.6800  137.4010 C   0  0  0  0  0  2  0  0  0  0  0  0
  190.5460  176.0450  137.6460 C   0  0  1  0  0  3  0  0  0  0  0  0
  193.6930  174.0400  137.9620 C   0  0  0  0  0  3  0  0  0  0  0  0
  194.7990  173.0350  137.6940 C   0  0  0  0  0  2  0  0  0  0  0  0
  195.1490  174.4740  138.0070 C   0  0  0  0  0  2  0  0  0  0  0  0
  189.3290  177.6520  134.6000 C   0  0  0  0  0  1  0  0  0  0  0  0
  188.4320  177.9880  135.7840 C   0  0  0  0  0  3  0  0  0  0  0  0
  187.0290  178.2820  135.2910 C   0  0  0  0  0  1  0  0  0  0  0  0
  187.7840  174.5310  136.9670 C   0  0  0  0  0  0  0  0  0  0  0  0
  187.0510  173.7350  137.5020 C   0  0  0  0  0  3  0  0  0  0  0  0
  188.7110  176.6210  139.2970 C   0  0  0  0  0  2  0  0  0  0  0  0
  188.5050  177.7230  140.2330 N   0  0  0  0  0  0  0  0  0  0  0  0
  188.6320  177.1300  141.5560 C   0  0  0  0  0  2  0  0  0  0  0  0
  191.4750  177.1850  144.6670 C   0  0  2  0  0  3  0  0  0  0  0  0
  191.0850  178.4770  144.0870 N   0  0  0  0  0  2  0  0  0  0  0  0
  189.8140  178.3490  143.3680 C   0  0  0  0  0  2  0  0  0  0  0  0
  190.6770  176.1530  142.5350 C   0  0  0  0  0  3  0  0  0  0  0  0
  189.9950  177.4410  142.1480 C   0  0  1  0  0  3  0  0  0  0  0  0
  191.3570  176.0390  143.6830 C   0  0  0  0  0  3  0  0  0  0  0  0
  190.7700  176.9110  146.0000 C   0  0  0  0  0  2  0  0  0  0  0  0
  192.3280  175.6490  147.2040 C   0  0  0  0  0  1  0  0  0  0  0  0
  191.7010  176.9540  147.1200 N   0  0  0  0  0  2  0  0  0  0  0  0
  187.1220  178.1620  140.0920 C   0  0  0  0  0  2  0  0  0  0  0  0
  185.2550  178.6320  141.6680 C   0  0  0  0  0  1  0  0  0  0  0  0
  186.6960  178.9450  141.3250 C   0  0  0  0  0  2  0  0  0  0  0  0
  1  4  1  1  0  0  0
  1 20  1  0  0  0  0
  3  9  1  0  0  0  0
  3  5  1  0  0  0  0
  3 18  1  1  0  0  0
  5 16  1  6  0  0  0
  5  1  1  0  0  0  0
  6  7  1  0  0  0  0
  6  2  1  0  0  0  0
  7 12  1  1  0  0  0
  8  7  1  0  0  0  0
  8 10  1  0  0  0  0
  9  2  1  1  0  0  0
  9 11  1  0  0  0  0
 11 10  1  6  0  0  0
 11  1  1  0  0  0  0
 12 14  1  0  0  0  0
 13 12  1  0  0  0  0
 13 14  1  0  0  0  0
 15 16  1  0  0  0  0
 17 16  1  0  0  0  0
 18 19  3  0  0  0  0
 20 21  1  0  0  0  0
 21 22  1  0  0  0  0
 23 29  1  1  0  0  0
 24 23  1  0  0  0  0
 25 24  1  0  0  0  0
 26 28  2  0  0  0  0
 27 22  1  1  0  0  0
 27 26  1  0  0  0  0
 27 25  1  0  0  0  0
 28 23  1  0  0  0  0
 29 31  1  0  0  0  0
 31 30  1  0  0  0  0
 32 21  1  0  0  0  0
 32 34  1  0  0  0  0
 34 33  1  0  0  0  0
M  END
>  <MODEL>
2

>  <REMARK>
 VINA RESULT:      -5.2      5.063      6.894
  Name = 
  11 active torsions:
  status: ('A' for Active; 'I' for Inactive)
    1  A    between atoms: C_1  and  C_8
    2  A    between atoms: C_3  and  C_25
    3  A    between atoms: C_5  and  C_19
    4  A    between atoms: C_6  and  N_18
    5  A    between atoms: C_6  and  C_28
    6  A    between atoms: C_7  and  C_11
    7  A    between atoms: C_8  and  N_18
    8  A    between atoms: C_11  and  N_21
    9  A    between atoms: C_12  and  C_20
   10  A    between atoms: N_18  and  C_30
   11  A    between atoms: C_30  and  C_31
                            x       y       z     vdW  Elec       q    Type
                         _______ _______ _______ _____ _____    ______ ____

>  <TORSDO>
F 11

$$$$
=
 OpenBabel11052415593D

 34 37  0  0  1  0  0  0  0  0999 V2000
  182.3770  178.3770  138.1920 C   0  0  1  0  0  0  0  0  0  0  0  0
  179.9650  180.0760  136.1660 C   0  0  0  0  0  2  0  0  0  0  0  0
  180.1310  177.9380  137.4020 C   0  0  1  0  0  3  0  0  0  0  0  0
  183.1970  178.5080  139.4780 C   0  0  0  0  0  1  0  0  0  0  0  0
  181.2170  177.3790  138.3120 C   0  0  2  0  0  3  0  0  0  0  0  0
  179.3530  181.4420  136.4640 C   0  0  0  0  0  2  0  0  0  0  0  0
  180.2790  182.3750  137.2680 C   0  0  1  0  0  3  0  0  0  0  0  0
  180.6700  181.8750  138.6650 C   0  0  0  0  0  2  0  0  0  0  0  0
  180.2940  179.4020  137.4240 N   0  0  1  0  0  0  0  0  0  0  0  0
  181.8350  180.8720  138.6900 C   0  0  0  0  0  2  0  0  0  0  0  0
  181.6960  179.6840  137.7190 C   0  0  1  0  0  3  0  0  0  0  0  0
  181.3390  183.2190  136.5350 C   0  0  0  0  0  3  0  0  0  0  0  0
  180.7500  183.8960  135.3100 C   0  0  0  0  0  2  0  0  0  0  0  0
  181.0530  184.7120  136.5490 C   0  0  0  0  0  2  0  0  0  0  0  0
  179.3760  177.8030  140.0530 C   0  0  0  0  0  1  0  0  0  0  0  0
  180.6960  177.1110  139.7410 C   0  0  0  0  0  3  0  0  0  0  0  0
  180.5590  175.6210  139.9880 C   0  0  0  0  0  1  0  0  0  0  0  0
  180.2580  177.3240  136.0630 C   0  0  0  0  0  0  0  0  0  0  0  0
  180.3540  176.8150  134.9720 C   0  0  0  0  0  3  0  0  0  0  0  0
  183.3100  177.8280  137.1060 C   0  0  0  0  0  2  0  0  0  0  0  0
  184.4200  177.0490  137.6460 N   0  0  0  0  0  0  0  0  0  0  0  0
  185.5420  177.3160  136.7570 C   0  0  0  0  0  2  0  0  0  0  0  0
  189.2280  178.4760  138.4410 C   0  0  2  0  0  3  0  0  0  0  0  0
  188.0300  178.6110  139.2810 N   0  0  0  0  0  2  0  0  0  0  0  0
  186.9430  177.7810  138.7540 C   0  0  0  0  0  2  0  0  0  0  0  0
  187.6770  178.5240  136.4810 C   0  0  0  0  0  3  0  0  0  0  0  0
  186.4940  178.3150  137.3910 C   0  0  1  0  0  3  0  0  0  0  0  0
  188.9250  178.6030  136.9620 C   0  0  0  0  0  3  0  0  0  0  0  0
  190.0420  177.2250  138.7860 C   0  0  0  0  0  2  0  0  0  0  0  0
  191.6500  177.4410  140.4700 C   0  0  0  0  0  1  0  0  0  0  0  0
  190.2610  177.1040  140.2200 N   0  0  0  0  0  2  0  0  0  0  0  0
  184.0800  175.6400  137.4910 C   0  0  0  0  0  2  0  0  0  0  0  0
  185.2700  173.4560  137.5270 C   0  0  0  0  0  1  0  0  0  0  0  0
  185.2840  174.8660  136.9760 C   0  0  0  0  0  2  0  0  0  0  0  0
  1  5  1  0  0  0  0
  1  4  1  1  0  0  0
  2  6  1  0  0  0  0
  3 18  1  6  0  0  0
  3  9  1  0  0  0  0
  3  5  1  0  0  0  0
  5 16  1  1  0  0  0
  6  7  1  0  0  0  0
  7 12  1  6  0  0  0
  7  8  1  0  0  0  0
  8 10  1  0  0  0  0
  9  2  1  6  0  0  0
  9 11  1  0  0  0  0
 11  1  1  0  0  0  0
 11 10  1  1  0  0  0
 12 14  1  0  0  0  0
 13 12  1  0  0  0  0
 13 14  1  0  0  0  0
 16 17  1  0  0  0  0
 16 15  1  0  0  0  0
 19 18  3  0  0  0  0
 20 21  1  0  0  0  0
 20  1  1  0  0  0  0
 22 21  1  0  0  0  0
 23 29  1  6  0  0  0
 23 24  1  0  0  0  0
 25 24  1  0  0  0  0
 26 28  2  0  0  0  0
 26 27  1  0  0  0  0
 27 22  1  6  0  0  0
 27 25  1  0  0  0  0
 28 23  1  0  0  0  0
 29 31  1  0  0  0  0
 31 30  1  0  0  0  0
 32 21  1  0  0  0  0
 34 32  1  0  0  0  0
 34 33  1  0  0  0  0
M  END
>  <MODEL>
3

>  <REMARK>
 VINA RESULT:      -5.1      3.355      6.558
  Name = 
  11 active torsions:
  status: ('A' for Active; 'I' for Inactive)
    1  A    between atoms: C_1  and  C_8
    2  A    between atoms: C_3  and  C_25
    3  A    between atoms: C_5  and  C_19
    4  A    between atoms: C_6  and  N_18
    5  A    between atoms: C_6  and  C_28
    6  A    between atoms: C_7  and  C_11
    7  A    between atoms: C_8  and  N_18
    8  A    between atoms: C_11  and  N_21
    9  A    between atoms: C_12  and  C_20
   10  A    between atoms: N_18  and  C_30
   11  A    between atoms: C_30  and  C_31
                            x       y       z     vdW  Elec       q    Type
                         _______ _______ _______ _____ _____    ______ ____

>  <TORSDO>
F 11

$$$$
=
 OpenBabel11052415593D

 34 37  0  0  1  0  0  0  0  0999 V2000
  183.3470  178.4910  139.7900 C   0  0  1  0  0  0  0  0  0  0  0  0
  180.0660  178.5100  138.3590 C   0  0  0  0  0  2  0  0  0  0  0  0
  181.1160  177.8880  140.5120 C   0  0  1  0  0  3  0  0  0  0  0  0
  184.5240  179.4010  140.1490 C   0  0  0  0  0  1  0  0  0  0  0  0
  182.5490  178.0210  141.0140 C   0  0  2  0  0  3  0  0  0  0  0  0
  179.3250  179.7390  137.8430 C   0  0  0  0  0  2  0  0  0  0  0  0
  180.2550  180.8500  137.3170 C   0  0  1  0  0  3  0  0  0  0  0  0
  181.2170  181.4510  138.3490 C   0  0  0  0  0  2  0  0  0  0  0  0
  180.9600  178.8980  139.4520 N   0  0  1  0  0  0  0  0  0  0  0  0
  182.4990  180.6380  138.5900 C   0  0  0  0  0  2  0  0  0  0  0  0
  182.2790  179.1400  138.8760 C   0  0  1  0  0  3  0  0  0  0  0  0
  180.7760  180.7890  135.8680 C   0  0  0  0  0  3  0  0  0  0  0  0
  179.6760  180.3770  134.9060 C   0  0  0  0  0  2  0  0  0  0  0  0
  180.1430  181.8170  134.9430 C   0  0  0  0  0  2  0  0  0  0  0  0
  181.3430  179.0010  143.0590 C   0  0  0  0  0  1  0  0  0  0  0  0
  182.6430  178.9120  142.2710 C   0  0  0  0  0  3  0  0  0  0  0  0
  183.7580  178.4340  143.1810 C   0  0  0  0  0  1  0  0  0  0  0  0
  180.8840  176.4940  140.0740 C   0  0  0  0  0  0  0  0  0  0  0  0
  180.6960  175.3590  139.7070 C   0  0  0  0  0  3  0  0  0  0  0  0
  183.9230  177.2290  139.1370 C   0  0  0  0  0  2  0  0  0  0  0  0
  184.0350  177.3350  137.6850 N   0  0  0  0  0  0  0  0  0  0  0  0
  183.2170  176.2510  137.1590 C   0  0  0  0  0  2  0  0  0  0  0  0
  183.9090  172.1880  136.2790 C   0  0  2  0  0  3  0  0  0  0  0  0
  184.6740  172.7780  137.3870 N   0  0  0  0  0  2  0  0  0  0  0  0
  184.0270  174.0080  137.8520 C   0  0  0  0  0  2  0  0  0  0  0  0
  183.6050  174.5220  135.4400 C   0  0  0  0  0  3  0  0  0  0  0  0
  184.0910  175.0760  136.7560 C   0  0  1  0  0  3  0  0  0  0  0  0
  183.5290  173.2030  135.2220 C   0  0  0  0  0  3  0  0  0  0  0  0
  182.7220  171.3550  136.7720 C   0  0  0  0  0  2  0  0  0  0  0  0
  180.6100  171.9150  137.6050 C   0  0  0  0  0  1  0  0  0  0  0  0
  181.4500  171.9720  136.4230 N   0  0  0  0  0  2  0  0  0  0  0  0
  185.4170  177.0380  137.3310 C   0  0  0  0  0  2  0  0  0  0  0  0
  187.2340  178.4170  136.3400 C   0  0  0  0  0  1  0  0  0  0  0  0
  186.2780  178.2800  137.5050 C   0  0  0  0  0  2  0  0  0  0  0  0
  1  4  1  1  0  0  0
  1  5  1  0  0  0  0
  3 18  1  6  0  0  0
  3  5  1  0  0  0  0
  5 16  1  1  0  0  0
  6  2  1  0  0  0  0
  7 12  1  6  0  0  0
  7  6  1  0  0  0  0
  7  8  1  0  0  0  0
  8 10  1  0  0  0  0
  9  2  1  6  0  0  0
  9  3  1  0  0  0  0
 11 10  1  1  0  0  0
 11  9  1  0  0  0  0
 11  1  1  0  0  0  0
 13 14  1  0  0  0  0
 13 12  1  0  0  0  0
 14 12  1  0  0  0  0
 16 15  1  0  0  0  0
 16 17  1  0  0  0  0
 19 18  3  0  0  0  0
 20  1  1  0  0  0  0
 21 20  1  0  0  0  0
 22 21  1  0  0  0  0
 23 29  1  1  0  0  0
 23 24  1  0  0  0  0
 24 25  1  0  0  0  0
 26 27  1  0  0  0  0
 27 22  1  1  0  0  0
 27 25  1  0  0  0  0
 28 26  2  0  0  0  0
 28 23  1  0  0  0  0
 31 29  1  0  0  0  0
 31 30  1  0  0  0  0
 32 34  1  0  0  0  0
 32 21  1  0  0  0  0
 33 34  1  0  0  0  0
M  END
>  <MODEL>
4

>  <REMARK>
 VINA RESULT:      -4.5      3.025      7.353
  Name = 
  11 active torsions:
  status: ('A' for Active; 'I' for Inactive)
    1  A    between atoms: C_1  and  C_8
    2  A    between atoms: C_3  and  C_25
    3  A    between atoms: C_5  and  C_19
    4  A    between atoms: C_6  and  N_18
    5  A    between atoms: C_6  and  C_28
    6  A    between atoms: C_7  and  C_11
    7  A    between atoms: C_8  and  N_18
    8  A    between atoms: C_11  and  N_21
    9  A    between atoms: C_12  and  C_20
   10  A    between atoms: N_18  and  C_30
   11  A    between atoms: C_30  and  C_31
                            x       y       z     vdW  Elec       q    Type
                         _______ _______ _______ _____ _____    ______ ____

>  <TORSDO>
F 11

$$$$
=
 OpenBabel11052415593D

 34 37  0  0  1  0  0  0  0  0999 V2000
  189.9270  175.7270  137.6200 C   0  0  1  0  0  0  0  0  0  0  0  0
  186.6810  175.9760  136.1350 C   0  0  0  0  0  2  0  0  0  0  0  0
  188.9390  176.9170  135.7590 C   0  0  1  0  0  3  0  0  0  0  0  0
  191.0390  174.7300  137.9590 C   0  0  0  0  0  1  0  0  0  0  0  0
  190.2740  176.6420  136.4390 C   0  0  2  0  0  3  0  0  0  0  0  0
  185.8850  174.8230  135.5310 C   0  0  0  0  0  2  0  0  0  0  0  0
  186.1870  173.4560  136.1730 C   0  0  1  0  0  3  0  0  0  0  0  0
  187.6350  172.9660  136.0390 C   0  0  0  0  0  2  0  0  0  0  0  0
  188.1130  175.7170  135.9810 N   0  0  1  0  0  0  0  0  0  0  0  0
  188.6130  173.5490  137.0710 C   0  0  0  0  0  2  0  0  0  0  0  0
  188.5800  175.0840  137.2100 C   0  0  1  0  0  3  0  0  0  0  0  0
  185.4530  173.0380  137.4630 C   0  0  0  0  0  3  0  0  0  0  0  0
  184.1030  173.7230  137.5720 C   0  0  0  0  0  2  0  0  0  0  0  0
  184.1750  172.2540  137.2150 C   0  0  0  0  0  2  0  0  0  0  0  0
  192.6240  175.6560  136.1150 C   0  0  0  0  0  1  0  0  0  0  0  0
  191.3300  176.1050  135.4490 C   0  0  0  0  0  3  0  0  0  0  0  0
  190.7600  174.9660  134.6260 C   0  0  0  0  0  1  0  0  0  0  0  0
  188.3660  178.1680  136.3020 C   0  0  0  0  0  0  0  0  0  0  0  0
  187.9080  179.1910  136.7490 C   0  0  0  0  0  3  0  0  0  0  0  0
  189.7430  176.6410  138.8380 C   0  0  0  0  0  2  0  0  0  0  0  0
  190.7030  176.3730  139.9050 N   0  0  0  0  0  0  0  0  0  0  0  0
  189.9210  176.3790  141.1330 C   0  0  0  0  0  2  0  0  0  0  0  0
  190.6010  177.5440  145.1260 C   0  0  2  0  0  3  0  0  0  0  0  0
  190.2650  178.6010  144.1620 N   0  0  0  0  0  2  0  0  0  0  0  0
  189.6360  178.0230  142.9710 C   0  0  0  0  0  2  0  0  0  0  0  0
  191.3200  176.1820  143.1570 C   0  0  0  0  0  3  0  0  0  0  0  0
  190.6470  177.1520  142.2200 C   0  0  1  0  0  3  0  0  0  0  0  0
  191.3030  176.3650  144.4840 C   0  0  0  0  0  3  0  0  0  0  0  0
  189.3970  177.1360  145.9830 C   0  0  0  0  0  2  0  0  0  0  0  0
  189.0030  178.0530  148.0980 C   0  0  0  0  0  1  0  0  0  0  0  0
  189.7510  177.0300  147.3910 N   0  0  0  0  0  2  0  0  0  0  0  0
  191.6100  177.5110  139.9710 C   0  0  0  0  0  2  0  0  0  0  0  0
  193.9700  176.7630  140.2180 C   0  0  0  0  0  1  0  0  0  0  0  0
  192.9030  177.1920  139.2340 C   0  0  0  0  0  2  0  0  0  0  0  0
  1  4  1  1  0  0  0
  1 20  1  0  0  0  0
  3  9  1  0  0  0  0
  3 18  1  1  0  0  0
  3  5  1  0  0  0  0
  5 16  1  6  0  0  0
  5  1  1  0  0  0  0
  6  2  1  0  0  0  0
  6  7  1  0  0  0  0
  7 12  1  1  0  0  0
  8  7  1  0  0  0  0
  8 10  1  0  0  0  0
  9  2  1  1  0  0  0
  9 11  1  0  0  0  0
 11 10  1  6  0  0  0
 11  1  1  0  0  0  0
 12 13  1  0  0  0  0
 14 12  1  0  0  0  0
 14 13  1  0  0  0  0
 16 15  1  0  0  0  0
 17 16  1  0  0  0  0
 18 19  3  0  0  0  0
 20 21  1  0  0  0  0
 21 32  1  0  0  0  0
 21 22  1  0  0  0  0
 23 29  1  6  0  0  0
 24 23  1  0  0  0  0
 25 24  1  0  0  0  0
 26 28  2  0  0  0  0
 27 22  1  6  0  0  0
 27 25  1  0  0  0  0
 27 26  1  0  0  0  0
 28 23  1  0  0  0  0
 29 31  1  0  0  0  0
 31 30  1  0  0  0  0
 34 32  1  0  0  0  0
 34 33  1  0  0  0  0
M  END
>  <MODEL>
5

>  <REMARK>
 VINA RESULT:      -4.3      4.768      7.184
  Name = 
  11 active torsions:
  status: ('A' for Active; 'I' for Inactive)
    1  A    between atoms: C_1  and  C_8
    2  A    between atoms: C_3  and  C_25
    3  A    between atoms: C_5  and  C_19
    4  A    between atoms: C_6  and  N_18
    5  A    between atoms: C_6  and  C_28
    6  A    between atoms: C_7  and  C_11
    7  A    between atoms: C_8  and  N_18
    8  A    between atoms: C_11  and  N_21
    9  A    between atoms: C_12  and  C_20
   10  A    between atoms: N_18  and  C_30
   11  A    between atoms: C_30  and  C_31
                            x       y       z     vdW  Elec       q    Type
                         _______ _______ _______ _____ _____    ______ ____

>  <TORSDO>
F 11

$$$$
=
 OpenBabel11052415593D

 34 37  0  0  1  0  0  0  0  0999 V2000
  182.1580  178.1030  137.4390 C   0  0  1  0  0  0  0  0  0  0  0  0
  179.2760  180.0770  136.6610 C   0  0  0  0  0  2  0  0  0  0  0  0
  179.7570  177.8280  137.5750 C   0  0  1  0  0  3  0  0  0  0  0  0
  183.4230  178.0810  138.3010 C   0  0  0  0  0  1  0  0  0  0  0  0
  181.0690  177.1440  137.9380 C   0  0  2  0  0  3  0  0  0  0  0  0
  178.9310  181.4320  137.2720 C   0  0  0  0  0  2  0  0  0  0  0  0
  180.1620  182.2480  137.7080 C   0  0  1  0  0  3  0  0  0  0  0  0
  181.0320  181.6050  138.7960 C   0  0  0  0  0  2  0  0  0  0  0  0
  180.0210  179.2760  137.6340 N   0  0  1  0  0  0  0  0  0  0  0  0
  182.0370  180.5600  138.2870 C   0  0  0  0  0  2  0  0  0  0  0  0
  181.4430  179.4740  137.3690 C   0  0  1  0  0  3  0  0  0  0  0  0
  180.9090  183.1160  136.6760 C   0  0  0  0  0  3  0  0  0  0  0  0
  179.9450  183.9940  135.8980 C   0  0  0  0  0  2  0  0  0  0  0  0
  180.8340  184.6080  136.9580 C   0  0  0  0  0  2  0  0  0  0  0  0
  180.2130  177.5970  140.3170 C   0  0  0  0  0  1  0  0  0  0  0  0
  181.1300  176.7630  139.4340 C   0  0  0  0  0  3  0  0  0  0  0  0
  180.8180  175.2920  139.6220 C   0  0  0  0  0  1  0  0  0  0  0  0
  179.3040  177.3370  136.2550 C   0  0  0  0  0  0  0  0  0  0  0  0
  178.9310  176.9280  135.1820 C   0  0  0  0  0  3  0  0  0  0  0  0
  182.5480  177.6230  136.0360 C   0  0  0  0  0  2  0  0  0  0  0  0
  183.5310  176.5430  136.0540 N   0  0  0  0  0  0  0  0  0  0  0  0
  184.6410  177.0230  135.2440 C   0  0  0  0  0  2  0  0  0  0  0  0
  188.5260  176.0220  136.5370 C   0  0  2  0  0  3  0  0  0  0  0  0
  188.2690  175.9970  135.0900 N   0  0  0  0  0  2  0  0  0  0  0  0
  187.0670  176.7740  134.7740 C   0  0  0  0  0  2  0  0  0  0  0  0
  186.0580  175.7690  136.8310 C   0  0  0  0  0  3  0  0  0  0  0  0
  185.8340  176.0920  135.3750 C   0  0  1  0  0  3  0  0  0  0  0  0
  187.2880  175.7310  137.3580 C   0  0  0  0  0  3  0  0  0  0  0  0
  189.2570  177.2950  136.9750 C   0  0  0  0  0  2  0  0  0  0  0  0
  189.5390  178.1940  139.1150 C   0  0  0  0  0  1  0  0  0  0  0  0
  189.9490  177.1100  138.2430 N   0  0  0  0  0  2  0  0  0  0  0  0
  182.9460  175.4100  135.3480 C   0  0  0  0  0  2  0  0  0  0  0  0
  181.1590  173.8940  136.1820 C   0  0  0  0  0  1  0  0  0  0  0  0
  182.6090  174.2990  136.3320 C   0  0  0  0  0  2  0  0  0  0  0  0
  1  5  1  0  0  0  0
  1  4  1  1  0  0  0
  2  6  1  0  0  0  0
  3 18  1  6  0  0  0
  3  9  1  0  0  0  0
  3  5  1  0  0  0  0
  5 16  1  1  0  0  0
  6  7  1  0  0  0  0
  7 12  1  6  0  0  0
  7  8  1  0  0  0  0
  9  2  1  6  0  0  0
 10  8  1  0  0  0  0
 11  1  1  0  0  0  0
 11  9  1  0  0  0  0
 11 10  1  1  0  0  0
 12 14  1  0  0  0  0
 13 12  1  0  0  0  0
 13 14  1  0  0  0  0
 16 17  1  0  0  0  0
 16 15  1  0  0  0  0
 19 18  3  0  0  0  0
 20 21  1  0  0  0  0
 20  1  1  0  0  0  0
 22 21  1  0  0  0  0
 23 29  1  1  0  0  0
 23 28  1  0  0  0  0
 24 23  1  0  0  0  0
 25 24  1  0  0  0  0
 25 27  1  0  0  0  0
 26 28  2  0  0  0  0
 27 22  1  1  0  0  0
 27 26  1  0  0  0  0
 29 31  1  0  0  0  0
 31 30  1  0  0  0  0
 32 21  1  0  0  0  0
 32 34  1  0  0  0  0
 33 34  1  0  0  0  0
M  END
>  <MODEL>
6

>  <REMARK>
 VINA RESULT:      -4.2      3.887      7.163
  Name = 
  11 active torsions:
  status: ('A' for Active; 'I' for Inactive)
    1  A    between atoms: C_1  and  C_8
    2  A    between atoms: C_3  and  C_25
    3  A    between atoms: C_5  and  C_19
    4  A    between atoms: C_6  and  N_18
    5  A    between atoms: C_6  and  C_28
    6  A    between atoms: C_7  and  C_11
    7  A    between atoms: C_8  and  N_18
    8  A    between atoms: C_11  and  N_21
    9  A    between atoms: C_12  and  C_20
   10  A    between atoms: N_18  and  C_30
   11  A    between atoms: C_30  and  C_31
                            x       y       z     vdW  Elec       q    Type
                         _______ _______ _______ _____ _____    ______ ____

>  <TORSDO>
F 11

$$$$
=
 OpenBabel11052415593D

 34 37  0  0  1  0  0  0  0  0999 V2000
  187.7570  176.2390  137.5940 C   0  0  1  0  0  0  0  0  0  0  0  0
  190.4500  176.3800  139.9470 C   0  0  0  0  0  2  0  0  0  0  0  0
  190.1520  176.5790  137.4990 C   0  0  1  0  0  3  0  0  0  0  0  0
  186.4300  176.9040  137.2190 C   0  0  0  0  0  1  0  0  0  0  0  0
  188.9010  176.5830  136.6300 C   0  0  2  0  0  3  0  0  0  0  0  0
  190.5780  177.3750  141.0970 C   0  0  0  0  0  2  0  0  0  0  0  0
  189.2260  177.8670  141.6470 C   0  0  1  0  0  3  0  0  0  0  0  0
  188.3420  178.6260  140.6490 C   0  0  0  0  0  2  0  0  0  0  0  0
  189.7170  177.0000  138.8420 N   0  0  1  0  0  0  0  0  0  0  0  0
  187.5150  177.7340  139.7090 C   0  0  0  0  0  2  0  0  0  0  0  0
  188.3120  176.6320  138.9840 C   0  0  1  0  0  3  0  0  0  0  0  0
  188.4800  177.0300  142.7040 C   0  0  0  0  0  3  0  0  0  0  0  0
  189.4520  176.3680  143.6650 C   0  0  0  0  0  2  0  0  0  0  0  0
  188.6320  177.5550  144.1230 C   0  0  0  0  0  2  0  0  0  0  0  0
  189.0570  179.1470  136.6510 C   0  0  0  0  0  1  0  0  0  0  0  0
  188.7490  177.8990  135.8360 C   0  0  0  0  0  3  0  0  0  0  0  0
  189.6180  177.8750  134.5940 C   0  0  0  0  0  1  0  0  0  0  0  0
  190.7760  175.2400  137.4440 C   0  0  0  0  0  0  0  0  0  0  0  0
  191.2810  174.1440  137.3910 C   0  0  0  0  0  3  0  0  0  0  0  0
  187.5540  174.7220  137.5010 C   0  0  0  0  0  2  0  0  0  0  0  0
  186.5120  174.3420  136.5510 N   0  0  0  0  0  0  0  0  0  0  0  0
  185.6140  173.4710  137.2970 C   0  0  0  0  0  2  0  0  0  0  0  0
  181.5930  172.5240  136.4610 C   0  0  2  0  0  3  0  0  0  0  0  0
  182.5790  171.4400  136.3490 N   0  0  0  0  0  2  0  0  0  0  0  0
  183.8020  171.7880  137.0780 C   0  0  0  0  0  2  0  0  0  0  0  0
  183.5110  174.0990  136.1670 C   0  0  0  0  0  3  0  0  0  0  0  0
  184.4900  172.9770  136.4030 C   0  0  1  0  0  3  0  0  0  0  0  0
  182.1880  173.8900  136.1880 C   0  0  0  0  0  3  0  0  0  0  0  0
  180.8060  172.4600  137.7730 C   0  0  0  0  0  2  0  0  0  0  0  0
  179.1490  173.8170  138.7130 C   0  0  0  0  0  1  0  0  0  0  0  0
  179.4370  172.9280  137.6040 N   0  0  0  0  0  2  0  0  0  0  0  0
  187.1380  173.5260  135.5190 C   0  0  0  0  0  2  0  0  0  0  0  0
  189.1470  172.1260  135.0800 C   0  0  0  0  0  1  0  0  0  0  0  0
  188.1810  172.6080  136.1400 C   0  0  0  0  0  2  0  0  0  0  0  0
  1  4  1  6  0  0  0
  1 11  1  0  0  0  0
  2  6  1  0  0  0  0
  3 18  1  1  0  0  0
  3  9  1  0  0  0  0
  5 16  1  1  0  0  0
  5  3  1  0  0  0  0
  5  1  1  0  0  0  0
  6  7  1  0  0  0  0
  7 12  1  6  0  0  0
  8  7  1  0  0  0  0
  9 11  1  0  0  0  0
  9  2  1  1  0  0  0
 10  8  1  0  0  0  0
 11 10  1  6  0  0  0
 12 13  1  0  0  0  0
 12 14  1  0  0  0  0
 13 14  1  0  0  0  0
 16 15  1  0  0  0  0
 17 16  1  0  0  0  0
 19 18  3  0  0  0  0
 20  1  1  0  0  0  0
 21 22  1  0  0  0  0
 21 20  1  0  0  0  0
 23 29  1  1  0  0  0
 24 23  1  0  0  0  0
 24 25  1  0  0  0  0
 26 28  2  0  0  0  0
 26 27  1  0  0  0  0
 27 25  1  0  0  0  0
 27 22  1  1  0  0  0
 28 23  1  0  0  0  0
 31 29  1  0  0  0  0
 31 30  1  0  0  0  0
 32 34  1  0  0  0  0
 32 21  1  0  0  0  0
 33 34  1  0  0  0  0
M  END
>  <MODEL>
7

>  <REMARK>
 VINA RESULT:      -4.2      4.251      9.335
  Name = 
  11 active torsions:
  status: ('A' for Active; 'I' for Inactive)
    1  A    between atoms: C_1  and  C_8
    2  A    between atoms: C_3  and  C_25
    3  A    between atoms: C_5  and  C_19
    4  A    between atoms: C_6  and  N_18
    5  A    between atoms: C_6  and  C_28
    6  A    between atoms: C_7  and  C_11
    7  A    between atoms: C_8  and  N_18
    8  A    between atoms: C_11  and  N_21
    9  A    between atoms: C_12  and  C_20
   10  A    between atoms: N_18  and  C_30
   11  A    between atoms: C_30  and  C_31
                            x       y       z     vdW  Elec       q    Type
                         _______ _______ _______ _____ _____    ______ ____

>  <TORSDO>
F 11

$$$$
=
 OpenBabel11052415593D

 34 37  0  0  1  0  0  0  0  0999 V2000
  188.5900  176.8550  138.6480 C   0  0  1  0  0  0  0  0  0  0  0  0
  185.8780  175.7080  136.6150 C   0  0  0  0  0  2  0  0  0  0  0  0
  186.9500  177.8650  137.1820 C   0  0  1  0  0  3  0  0  0  0  0  0
  190.1020  176.7190  138.8530 C   0  0  0  0  0  1  0  0  0  0  0  0
  188.1820  178.1920  138.0170 C   0  0  2  0  0  3  0  0  0  0  0  0
  185.9880  174.7300  135.4490 C   0  0  0  0  0  2  0  0  0  0  0  0
  187.1470  173.7240  135.5900 C   0  0  1  0  0  3  0  0  0  0  0  0
  188.5520  174.3370  135.6420 C   0  0  0  0  0  2  0  0  0  0  0  0
  187.1210  176.4730  136.7320 N   0  0  1  0  0  0  0  0  0  0  0  0
  188.9790  174.8590  137.0240 C   0  0  0  0  0  2  0  0  0  0  0  0
  187.9640  175.7940  137.7110 C   0  0  1  0  0  3  0  0  0  0  0  0
  186.9450  172.4340  136.4080 C   0  0  0  0  0  3  0  0  0  0  0  0
  185.5850  171.8170  136.1320 C   0  0  0  0  0  2  0  0  0  0  0  0
  186.8320  171.1780  135.5580 C   0  0  0  0  0  2  0  0  0  0  0  0
  189.3580  178.4390  135.7460 C   0  0  0  0  0  1  0  0  0  0  0  0
  189.2690  178.9140  137.1900 C   0  0  0  0  0  3  0  0  0  0  0  0
  189.0520  180.4140  137.2190 C   0  0  0  0  0  1  0  0  0  0  0  0
  185.7370  178.1060  137.9940 C   0  0  0  0  0  0  0  0  0  0  0  0
  184.7500  178.2950  138.6620 C   0  0  0  0  0  3  0  0  0  0  0  0
  187.9330  176.8100  140.0330 C   0  0  0  0  0  2  0  0  0  0  0  0
  188.5080  177.7710  140.9700 N   0  0  0  0  0  0  0  0  0  0  0  0
  188.7350  177.0190  142.1960 C   0  0  0  0  0  2  0  0  0  0  0  0
  191.6720  177.0080  145.2190 C   0  0  2  0  0  3  0  0  0  0  0  0
  191.2680  178.3130  144.6750 N   0  0  0  0  0  2  0  0  0  0  0  0
  189.9760  178.2010  143.9940 C   0  0  0  0  0  2  0  0  0  0  0  0
  190.8070  176.0200  143.0930 C   0  0  0  0  0  3  0  0  0  0  0  0
  190.1170  177.3160  142.7520 C   0  0  1  0  0  3  0  0  0  0  0  0
  191.5220  175.8830  144.2170 C   0  0  0  0  0  3  0  0  0  0  0  0
  191.0080  176.7110  146.5670 C   0  0  0  0  0  2  0  0  0  0  0  0
  192.6890  175.6270  147.7800 C   0  0  0  0  0  1  0  0  0  0  0  0
  191.9430  176.8670  147.6730 N   0  0  0  0  0  2  0  0  0  0  0  0
  187.4820  178.7640  141.2620 C   0  0  0  0  0  2  0  0  0  0  0  0
  185.2380  178.9920  142.3110 C   0  0  0  0  0  1  0  0  0  0  0  0
  186.5580  178.2530  142.3580 C   0  0  0  0  0  2  0  0  0  0  0  0
  1  4  1  1  0  0  0
  1 20  1  0  0  0  0
  3 18  1  1  0  0  0
  3  5  1  0  0  0  0
  5 16  1  6  0  0  0
  5  1  1  0  0  0  0
  6  7  1  0  0  0  0
  6  2  1  0  0  0  0
  7  8  1  0  0  0  0
  7 12  1  1  0  0  0
  8 10  1  0  0  0  0
  9  2  1  1  0  0  0
  9  3  1  0  0  0  0
  9 11  1  0  0  0  0
 11 10  1  6  0  0  0
 11  1  1  0  0  0  0
 13 12  1  0  0  0  0
 14 13  1  0  0  0  0
 14 12  1  0  0  0  0
 15 16  1  0  0  0  0
 16 17  1  0  0  0  0
 18 19  3  0  0  0  0
 20 21  1  0  0  0  0
 21 32  1  0  0  0  0
 21 22  1  0  0  0  0
 23 29  1  1  0  0  0
 24 23  1  0  0  0  0
 25 24  1  0  0  0  0
 26 28  2  0  0  0  0
 27 22  1  1  0  0  0
 27 26  1  0  0  0  0
 27 25  1  0  0  0  0
 28 23  1  0  0  0  0
 29 31  1  0  0  0  0
 31 30  1  0  0  0  0
 32 34  1  0  0  0  0
 33 34  1  0  0  0  0
M  END
>  <MODEL>
8

>  <REMARK>
 VINA RESULT:      -4.2      3.120      5.088
  Name = 
  11 active torsions:
  status: ('A' for Active; 'I' for Inactive)
    1  A    between atoms: C_1  and  C_8
    2  A    between atoms: C_3  and  C_25
    3  A    between atoms: C_5  and  C_19
    4  A    between atoms: C_6  and  N_18
    5  A    between atoms: C_6  and  C_28
    6  A    between atoms: C_7  and  C_11
    7  A    between atoms: C_8  and  N_18
    8  A    between atoms: C_11  and  N_21
    9  A    between atoms: C_12  and  C_20
   10  A    between atoms: N_18  and  C_30
   11  A    between atoms: C_30  and  C_31
                            x       y       z     vdW  Elec       q    Type
                         _______ _______ _______ _____ _____    ______ ____

>  <TORSDO>
F 11

$$$$
=
 OpenBabel11052415593D

 34 37  0  0  1  0  0  0  0  0999 V2000
  182.3090  178.4740  138.5720 C   0  0  1  0  0  0  0  0  0  0  0  0
  184.5780  175.9710  137.3940 C   0  0  0  0  0  2  0  0  0  0  0  0
  182.3350  176.8300  136.7960 C   0  0  1  0  0  3  0  0  0  0  0  0
  182.1750  179.9800  138.8180 C   0  0  0  0  0  1  0  0  0  0  0  0
  181.5160  177.9870  137.3520 C   0  0  2  0  0  3  0  0  0  0  0  0
  185.9940  176.2200  136.8810 C   0  0  0  0  0  2  0  0  0  0  0  0
  186.6750  177.4510  137.5100 C   0  0  1  0  0  3  0  0  0  0  0  0
  185.9850  178.7950  137.2480 C   0  0  0  0  0  2  0  0  0  0  0  0
  183.7410  177.1380  137.1100 N   0  0  1  0  0  0  0  0  0  0  0  0
  184.8010  179.1080  138.1770 C   0  0  0  0  0  2  0  0  0  0  0  0
  183.7510  177.9860  138.2980 C   0  0  1  0  0  3  0  0  0  0  0  0
  187.3920  177.3170  138.8680 C   0  0  0  0  0  3  0  0  0  0  0  0
  188.8100  176.8040  138.6910 C   0  0  0  0  0  2  0  0  0  0  0  0
  188.5740  178.2590  139.0340 C   0  0  0  0  0  2  0  0  0  0  0  0
  181.5860  178.6210  134.8640 C   0  0  0  0  0  1  0  0  0  0  0  0
  181.2050  179.0490  136.2740 C   0  0  0  0  0  3  0  0  0  0  0  0
  179.7380  179.4320  136.3110 C   0  0  0  0  0  1  0  0  0  0  0  0
  181.8390  175.5630  137.3750 C   0  0  0  0  0  0  0  0  0  0  0  0
  181.4270  174.5330  137.8530 C   0  0  0  0  0  3  0  0  0  0  0  0
  181.7150  177.7560  139.7900 C   0  0  0  0  0  2  0  0  0  0  0  0
  181.5370  178.6340  140.9420 N   0  0  0  0  0  0  0  0  0  0  0  0
  182.3480  178.0480  141.9990 C   0  0  0  0  0  2  0  0  0  0  0  0
  186.0360  178.9150  143.8450 C   0  0  2  0  0  3  0  0  0  0  0  0
  184.8970  179.7830  144.1730 N   0  0  0  0  0  2  0  0  0  0  0  0
  183.6360  179.1180  143.8320 C   0  0  0  0  0  2  0  0  0  0  0  0
  184.7900  178.3150  141.7630 C   0  0  0  0  0  3  0  0  0  0  0  0
  183.5350  178.9410  142.3150 C   0  0  1  0  0  3  0  0  0  0  0  0
  185.9340  178.3090  142.4610 C   0  0  0  0  0  3  0  0  0  0  0  0
  186.3090  177.8780  144.9400 C   0  0  0  0  0  2  0  0  0  0  0  0
  186.9340  177.4810  147.1580 C   0  0  0  0  0  1  0  0  0  0  0  0
  186.4450  178.5010  146.2490 N   0  0  0  0  0  2  0  0  0  0  0  0
  180.1450  178.5270  141.3620 C   0  0  0  0  0  2  0  0  0  0  0  0
  179.1160  179.2720  143.5010 C   0  0  0  0  0  1  0  0  0  0  0  0
  180.0700  178.2850  142.8620 C   0  0  0  0  0  2  0  0  0  0  0  0
  1  4  1  1  0  0  0
  1 20  1  0  0  0  0
  3  9  1  0  0  0  0
  3  5  1  0  0  0  0
  3 18  1  1  0  0  0
  5 16  1  6  0  0  0
  5  1  1  0  0  0  0
  6  2  1  0  0  0  0
  6  7  1  0  0  0  0
  7 12  1  1  0  0  0
  8  7  1  0  0  0  0
  8 10  1  0  0  0  0
  9  2  1  1  0  0  0
  9 11  1  0  0  0  0
 11 10  1  6  0  0  0
 11  1  1  0  0  0  0
 12 14  1  0  0  0  0
 13 12  1  0  0  0  0
 13 14  1  0  0  0  0
 15 16  1  0  0  0  0
 16 17  1  0  0  0  0
 18 19  3  0  0  0  0
 20 21  1  0  0  0  0
 21 32  1  0  0  0  0
 21 22  1  0  0  0  0
 23 24  1  0  0  0  0
 23 29  1  1  0  0  0
 25 24  1  0  0  0  0
 26 27  1  0  0  0  0
 26 28  2  0  0  0  0
 27 22  1  1  0  0  0
 27 25  1  0  0  0  0
 28 23  1  0  0  0  0
 29 31  1  0  0  0  0
 31 30  1  0  0  0  0
 32 34  1  0  0  0  0
 34 33  1  0  0  0  0
M  END
>  <MODEL>
9

>  <REMARK>
 VINA RESULT:      -4.2      1.951      3.212
  Name = 
  11 active torsions:
  status: ('A' for Active; 'I' for Inactive)
    1  A    between atoms: C_1  and  C_8
    2  A    between atoms: C_3  and  C_25
    3  A    between atoms: C_5  and  C_19
    4  A    between atoms: C_6  and  N_18
    5  A    between atoms: C_6  and  C_28
    6  A    between atoms: C_7  and  C_11
    7  A    between atoms: C_8  and  N_18
    8  A    between atoms: C_11  and  N_21
    9  A    between atoms: C_12  and  C_20
   10  A    between atoms: N_18  and  C_30
   11  A    between atoms: C_30  and  C_31
                            x       y       z     vdW  Elec       q    Type
                         _______ _______ _______ _____ _____    ______ ____

>  <TORSDO>
F 11

$$$$
