=
 OpenBabel11052413413D

 27 31  0  0  1  0  0  0  0  0999 V2000
  182.3010  177.3570  140.2030 C   0  0  0  0  0  2  0  0  0  0  0  0
  183.5790  176.9320  138.1130 C   0  0  0  0  0  0  0  0  0  0  0  0
  184.8950  178.9830  138.8170 C   0  0  0  0  0  2  0  0  0  0  0  0
  187.0370  175.4870  136.3260 O   0  0  0  0  0  0  0  0  0  0  0  0
  189.1450  176.4720  136.2810 O   0  0  0  0  0  0  0  0  0  0  0  0
  183.5120  175.6810  137.4640 C   0  0  0  0  0  3  0  0  0  0  0  0
  187.2970  177.6460  137.3610 C   0  0  1  0  0  3  0  0  0  0  0  0
  186.8790  178.4750  141.9340 C   0  0  0  0  0  3  0  0  0  0  0  0
  187.2960  178.8940  136.4930 C   0  0  0  0  0  1  0  0  0  0  0  0
  185.8990  178.2990  142.9120 C   0  0  0  0  0  3  0  0  0  0  0  0
  185.9050  177.1020  137.4810 C   0  0  0  0  0  0  0  0  0  0  0  0
  182.4030  177.4540  138.7480 N   0  0  0  0  0  0  0  0  0  0  0  0
  187.9310  176.5130  136.6110 C   0  0  0  0  0  0  0  0  0  0  0  0
  185.8250  175.8690  136.8670 C   0  0  0  0  0  0  0  0  0  0  0  0
  182.7470  178.6560  140.8570 C   0  0  0  0  0  2  0  0  0  0  0  0
  184.7900  177.6620  138.1200 C   0  0  0  0  0  0  0  0  0  0  0  0
  186.5200  178.7040  140.6430 N   0  0  0  0  0  0  0  0  0  0  0  0
  184.6430  175.1370  136.8360 C   0  0  0  0  0  3  0  0  0  0  0  0
  184.5540  178.3600  142.5470 C   0  0  0  0  0  3  0  0  0  0  0  0
  184.1980  178.6020  141.2180 C   0  0  0  0  0  0  0  0  0  0  0  0
  185.2160  178.7770  140.2610 C   0  0  0  0  0  0  0  0  0  0  0  0
  179.2770  179.1650  136.4870 N   0  0  0  0  0  0  0  0  0  0  0  0
  181.3350  178.0380  137.9710 C   0  0  0  0  0  0  0  0  0  0  0  0
  181.5050  179.2780  137.3370 C   0  0  0  0  0  3  0  0  0  0  0  0
  180.4590  179.8280  136.5940 C   0  0  0  0  0  3  0  0  0  0  0  0
  179.0800  177.9630  137.0890 C   0  0  0  0  0  3  0  0  0  0  0  0
  180.1030  177.3800  137.8410 C   0  0  0  0  0  3  0  0  0  0  0  0
  1 15  1  0  0  0  0
  2 16  1  0  0  0  0
  2 12  1  0  0  0  0
  3 21  1  0  0  0  0
  4 13  1  0  0  0  0
  4 14  1  0  0  0  0
  5 13  2  0  0  0  0
  6  2  2  0  0  0  0
  7  9  1  6  0  0  0
  7 11  1  0  0  0  0
  8 10  1  0  0  0  0
 11 16  2  0  0  0  0
 12  1  1  0  0  0  0
 13  7  1  0  0  0  0
 14 11  1  0  0  0  0
 15 20  1  0  0  0  0
 16  3  1  0  0  0  0
 17  8  2  0  0  0  0
 18 14  2  0  0  0  0
 18  6  1  0  0  0  0
 19 10  2  0  0  0  0
 20 19  1  0  0  0  0
 21 17  1  0  0  0  0
 21 20  2  0  0  0  0
 22 25  2  0  0  0  0
 22 26  1  0  0  0  0
 23 12  1  0  0  0  0
 24 23  2  0  0  0  0
 25 24  1  0  0  0  0
 26 27  2  0  0  0  0
 27 23  1  0  0  0  0
M  END
>  <MODEL>
1

>  <REMARK>
 VINA RESULT:      -6.1      0.000      0.000
  Name = 
  1 active torsions:
  status: ('A' for Active; 'I' for Inactive)
    1  A    between atoms: C_9  and  N_15
                            x       y       z     vdW  Elec       q    Type
                         _______ _______ _______ _____ _____    ______ ____

>  <TORSDO>
F 1

$$$$
=
 OpenBabel11052413413D

 27 31  0  0  1  0  0  0  0  0999 V2000
  182.4050  176.5420  139.5300 C   0  0  0  0  0  2  0  0  0  0  0  0
  184.0870  176.2870  137.7160 C   0  0  0  0  0  0  0  0  0  0  0  0
  184.7720  178.6360  138.3860 C   0  0  0  0  0  2  0  0  0  0  0  0
  188.0360  175.5820  136.6430 O   0  0  0  0  0  0  0  0  0  0  0  0
  189.8470  177.0330  136.8120 O   0  0  0  0  0  0  0  0  0  0  0  0
  184.4140  175.0140  137.2050 C   0  0  0  0  0  3  0  0  0  0  0  0
  187.6260  177.8080  137.4650 C   0  0  1  0  0  3  0  0  0  0  0  0
  186.2500  178.8330  141.8050 C   0  0  0  0  0  3  0  0  0  0  0  0
  187.4980  178.9560  136.4770 C   0  0  0  0  0  1  0  0  0  0  0  0
  185.1800  178.4980  142.6360 C   0  0  0  0  0  3  0  0  0  0  0  0
  186.3910  176.9590  137.4310 C   0  0  0  0  0  0  0  0  0  0  0  0
  182.7330  176.5580  138.1050 N   0  0  0  0  0  0  0  0  0  0  0  0
  188.6160  176.8070  136.9470 C   0  0  0  0  0  0  0  0  0  0  0  0
  186.6950  175.7020  136.9490 C   0  0  0  0  0  0  0  0  0  0  0  0
  182.4310  177.9530  140.1000 C   0  0  0  0  0  2  0  0  0  0  0  0
  185.0860  177.2820  137.8280 C   0  0  0  0  0  0  0  0  0  0  0  0
  186.0780  178.8790  140.4570 N   0  0  0  0  0  0  0  0  0  0  0  0
  185.7280  174.7100  136.8180 C   0  0  0  0  0  3  0  0  0  0  0  0
  183.9390  178.2130  142.0660 C   0  0  0  0  0  3  0  0  0  0  0  0
  183.7730  178.2700  140.6800 C   0  0  0  0  0  0  0  0  0  0  0  0
  184.8760  178.6140  139.8750 C   0  0  0  0  0  0  0  0  0  0  0  0
  179.7450  177.3160  135.2230 N   0  0  0  0  0  0  0  0  0  0  0  0
  181.7130  176.8160  137.1170 C   0  0  0  0  0  0  0  0  0  0  0  0
  181.7380  177.9910  136.3510 C   0  0  0  0  0  3  0  0  0  0  0  0
  180.7400  178.2240  135.4030 C   0  0  0  0  0  3  0  0  0  0  0  0
  179.6910  176.1680  135.9500 C   0  0  0  0  0  3  0  0  0  0  0  0
  180.6720  175.9000  136.9080 C   0  0  0  0  0  3  0  0  0  0  0  0
  1 15  1  0  0  0  0
  2 16  1  0  0  0  0
  2 12  1  0  0  0  0
  3 21  1  0  0  0  0
  4 13  1  0  0  0  0
  4 14  1  0  0  0  0
  5 13  2  0  0  0  0
  6  2  2  0  0  0  0
  7  9  1  6  0  0  0
  8 10  1  0  0  0  0
 11  7  1  0  0  0  0
 11 16  2  0  0  0  0
 12  1  1  0  0  0  0
 13  7  1  0  0  0  0
 14 11  1  0  0  0  0
 15 20  1  0  0  0  0
 16  3  1  0  0  0  0
 17  8  2  0  0  0  0
 18 14  2  0  0  0  0
 18  6  1  0  0  0  0
 19 10  2  0  0  0  0
 20 19  1  0  0  0  0
 21 17  1  0  0  0  0
 21 20  2  0  0  0  0
 22 25  2  0  0  0  0
 22 26  1  0  0  0  0
 23 12  1  0  0  0  0
 24 23  2  0  0  0  0
 25 24  1  0  0  0  0
 26 27  2  0  0  0  0
 27 23  1  0  0  0  0
M  END
>  <MODEL>
2

>  <REMARK>
 VINA RESULT:      -6.0      1.143      1.178
  Name = 
  1 active torsions:
  status: ('A' for Active; 'I' for Inactive)
    1  A    between atoms: C_9  and  N_15
                            x       y       z     vdW  Elec       q    Type
                         _______ _______ _______ _____ _____    ______ ____

>  <TORSDO>
F 1

$$$$
=
 OpenBabel11052413413D

 27 31  0  0  1  0  0  0  0  0999 V2000
  184.1210  178.1880  141.4180 C   0  0  0  0  0  2  0  0  0  0  0  0
  183.4710  177.1740  139.2420 C   0  0  0  0  0  0  0  0  0  0  0  0
  185.3850  178.5630  138.3260 C   0  0  0  0  0  2  0  0  0  0  0  0
  184.2590  174.3730  136.2810 O   0  0  0  0  0  0  0  0  0  0  0  0
  185.9320  174.4290  134.6650 O   0  0  0  0  0  0  0  0  0  0  0  0
  182.6610  176.0210  139.1940 C   0  0  0  0  0  3  0  0  0  0  0  0
  185.7000  176.3010  136.2150 C   0  0  1  0  0  3  0  0  0  0  0  0
  188.7320  177.4760  139.5620 C   0  0  0  0  0  3  0  0  0  0  0  0
  185.4350  177.3960  135.1940 C   0  0  0  0  0  1  0  0  0  0  0  0
  188.6770  177.7600  140.9280 C   0  0  0  0  0  3  0  0  0  0  0  0
  184.6840  176.3660  137.3160 C   0  0  0  0  0  0  0  0  0  0  0  0
  183.2290  178.1560  140.2600 N   0  0  0  0  0  0  0  0  0  0  0  0
  185.3320  174.9690  135.6310 C   0  0  0  0  0  0  0  0  0  0  0  0
  183.8930  175.2360  137.2940 C   0  0  0  0  0  0  0  0  0  0  0  0
  185.2090  179.2340  141.2250 C   0  0  0  0  0  2  0  0  0  0  0  0
  184.4970  177.3580  138.2870 C   0  0  0  0  0  0  0  0  0  0  0  0
  187.6680  177.7590  138.7640 N   0  0  0  0  0  0  0  0  0  0  0  0
  182.8690  175.0370  138.2160 C   0  0  0  0  0  3  0  0  0  0  0  0
  187.5200  178.3330  141.4570 C   0  0  0  0  0  3  0  0  0  0  0  0
  186.4360  178.6250  140.6250 C   0  0  0  0  0  0  0  0  0  0  0  0
  186.5320  178.3260  139.2520 C   0  0  0  0  0  0  0  0  0  0  0  0
  179.9920  180.8480  139.9700 N   0  0  0  0  0  0  0  0  0  0  0  0
  182.1200  179.0740  140.1590 C   0  0  0  0  0  0  0  0  0  0  0  0
  182.0050  179.9410  139.0620 C   0  0  0  0  0  3  0  0  0  0  0  0
  180.9270  180.8250  138.9840 C   0  0  0  0  0  3  0  0  0  0  0  0
  180.0750  180.0220  141.0470 C   0  0  0  0  0  3  0  0  0  0  0  0
  181.1390  179.1240  141.1600 C   0  0  0  0  0  3  0  0  0  0  0  0
  2 12  1  0  0  0  0
  3 21  1  0  0  0  0
  4 14  1  0  0  0  0
  5 13  2  0  0  0  0
  6  2  1  0  0  0  0
  7  9  1  6  0  0  0
  7 11  1  0  0  0  0
  8 10  1  0  0  0  0
 10 19  2  0  0  0  0
 11 16  1  0  0  0  0
 12  1  1  0  0  0  0
 13  7  1  0  0  0  0
 13  4  1  0  0  0  0
 14 11  2  0  0  0  0
 14 18  1  0  0  0  0
 15  1  1  0  0  0  0
 16  3  1  0  0  0  0
 16  2  2  0  0  0  0
 17 21  1  0  0  0  0
 17  8  2  0  0  0  0
 18  6  2  0  0  0  0
 20 15  1  0  0  0  0
 20 19  1  0  0  0  0
 21 20  2  0  0  0  0
 22 26  1  0  0  0  0
 23 12  1  0  0  0  0
 23 27  1  0  0  0  0
 24 23  2  0  0  0  0
 25 24  1  0  0  0  0
 25 22  2  0  0  0  0
 26 27  2  0  0  0  0
M  END
>  <MODEL>
3

>  <REMARK>
 VINA RESULT:      -5.9      2.125      2.700
  Name = 
  1 active torsions:
  status: ('A' for Active; 'I' for Inactive)
    1  A    between atoms: C_9  and  N_15
                            x       y       z     vdW  Elec       q    Type
                         _______ _______ _______ _____ _____    ______ ____

>  <TORSDO>
F 1

$$$$
=
 OpenBabel11052413413D

 27 31  0  0  1  0  0  0  0  0999 V2000
  183.2970  178.0420  141.5150 C   0  0  0  0  0  2  0  0  0  0  0  0
  183.8020  177.7420  139.0990 C   0  0  0  0  0  0  0  0  0  0  0  0
  185.8390  179.1600  139.6220 C   0  0  0  0  0  2  0  0  0  0  0  0
  186.0470  175.8290  136.1770 O   0  0  0  0  0  0  0  0  0  0  0  0
  188.2760  176.1910  135.6170 O   0  0  0  0  0  0  0  0  0  0  0  0
  183.1770  176.7240  138.3490 C   0  0  0  0  0  3  0  0  0  0  0  0
  187.2370  177.5650  137.3480 C   0  0  1  0  0  3  0  0  0  0  0  0
  188.2720  177.4820  141.8970 C   0  0  0  0  0  3  0  0  0  0  0  0
  187.4190  178.9210  136.6860 C   0  0  0  0  0  1  0  0  0  0  0  0
  187.5660  177.3730  143.0970 C   0  0  0  0  0  3  0  0  0  0  0  0
  185.8220  177.4050  137.8160 C   0  0  0  0  0  0  0  0  0  0  0  0
  183.0550  178.4150  140.1230 N   0  0  0  0  0  0  0  0  0  0  0  0
  187.2630  176.4880  136.3030 C   0  0  0  0  0  0  0  0  0  0  0  0
  185.1990  176.4000  137.1040 C   0  0  0  0  0  0  0  0  0  0  0  0
  184.2850  179.0010  142.1610 C   0  0  0  0  0  2  0  0  0  0  0  0
  185.1440  178.0970  138.8290 C   0  0  0  0  0  0  0  0  0  0  0  0
  187.6920  178.0690  140.8160 N   0  0  0  0  0  0  0  0  0  0  0  0
  183.8760  176.0400  137.3430 C   0  0  0  0  0  3  0  0  0  0  0  0
  186.2660  177.8740  143.1690 C   0  0  0  0  0  3  0  0  0  0  0  0
  185.6840  178.4810  142.0530 C   0  0  0  0  0  0  0  0  0  0  0  0
  186.4290  178.5730  140.8620 C   0  0  0  0  0  0  0  0  0  0  0  0
  180.1760  181.3390  139.1380 N   0  0  0  0  0  0  0  0  0  0  0  0
  182.0720  179.4180  139.7880 C   0  0  0  0  0  0  0  0  0  0  0  0
  180.8820  179.5270  140.5230 C   0  0  0  0  0  3  0  0  0  0  0  0
  179.9410  180.5000  140.1810 C   0  0  0  0  0  3  0  0  0  0  0  0
  181.3190  181.2580  138.4060 C   0  0  0  0  0  3  0  0  0  0  0  0
  182.2840  180.2980  138.7170 C   0  0  0  0  0  3  0  0  0  0  0  0
  1 15  1  0  0  0  0
  2 12  1  0  0  0  0
  3 21  1  0  0  0  0
  4 13  1  0  0  0  0
  4 14  1  0  0  0  0
  5 13  2  0  0  0  0
  6  2  2  0  0  0  0
  7  9  1  6  0  0  0
  7 11  1  0  0  0  0
  8 10  1  0  0  0  0
 10 19  2  0  0  0  0
 11 16  2  0  0  0  0
 12  1  1  0  0  0  0
 13  7  1  0  0  0  0
 14 18  2  0  0  0  0
 14 11  1  0  0  0  0
 16  2  1  0  0  0  0
 16  3  1  0  0  0  0
 17 21  1  0  0  0  0
 17  8  2  0  0  0  0
 18  6  1  0  0  0  0
 20 15  1  0  0  0  0
 20 19  1  0  0  0  0
 21 20  2  0  0  0  0
 22 25  1  0  0  0  0
 23 12  1  0  0  0  0
 23 24  1  0  0  0  0
 25 24  2  0  0  0  0
 26 27  1  0  0  0  0
 26 22  2  0  0  0  0
 27 23  2  0  0  0  0
M  END
>  <MODEL>
4

>  <REMARK>
 VINA RESULT:      -5.9      1.676      2.047
  Name = 
  1 active torsions:
  status: ('A' for Active; 'I' for Inactive)
    1  A    between atoms: C_9  and  N_15
                            x       y       z     vdW  Elec       q    Type
                         _______ _______ _______ _____ _____    ______ ____

>  <TORSDO>
F 1

$$$$
=
 OpenBabel11052413413D

 27 31  0  0  1  0  0  0  0  0999 V2000
  188.8300  178.6270  139.3570 C   0  0  0  0  0  2  0  0  0  0  0  0
  190.8580  177.1900  139.4160 C   0  0  0  0  0  0  0  0  0  0  0  0
  189.4730  175.6350  137.9680 C   0  0  0  0  0  2  0  0  0  0  0  0
  194.2400  175.7840  137.4610 O   0  0  0  0  0  0  0  0  0  0  0  0
  194.3550  174.2250  135.7380 O   0  0  0  0  0  0  0  0  0  0  0  0
  192.1080  177.7180  139.8000 C   0  0  0  0  0  3  0  0  0  0  0  0
  192.1870  174.7670  136.7220 C   0  0  1  0  0  3  0  0  0  0  0  0
  188.7060  177.0360  134.5970 C   0  0  0  0  0  3  0  0  0  0  0  0
  191.8210  173.3780  137.2190 C   0  0  0  0  0  1  0  0  0  0  0  0
  187.8800  178.1250  134.8830 C   0  0  0  0  0  3  0  0  0  0  0  0
  191.9820  175.7750  137.8130 C   0  0  0  0  0  0  0  0  0  0  0  0
  189.6690  177.6640  140.0660 N   0  0  0  0  0  0  0  0  0  0  0  0
  193.6760  174.8730  136.5770 C   0  0  0  0  0  0  0  0  0  0  0  0
  193.1950  176.3140  138.1900 C   0  0  0  0  0  0  0  0  0  0  0  0
  187.6830  177.9190  138.6520 C   0  0  0  0  0  2  0  0  0  0  0  0
  190.7880  176.1980  138.4100 C   0  0  0  0  0  0  0  0  0  0  0  0
  189.1830  176.2590  135.6060 N   0  0  0  0  0  0  0  0  0  0  0  0
  193.2920  177.2830  139.1850 C   0  0  0  0  0  3  0  0  0  0  0  0
  187.5540  178.4010  136.2110 C   0  0  0  0  0  3  0  0  0  0  0  0
  188.0460  177.5910  137.2380 C   0  0  0  0  0  0  0  0  0  0  0  0
  188.8740  176.5010  136.9090 C   0  0  0  0  0  0  0  0  0  0  0  0
  188.6610  176.3780  143.9570 N   0  0  0  0  0  0  0  0  0  0  0  0
  189.3230  177.2210  141.3960 C   0  0  0  0  0  0  0  0  0  0  0  0
  188.1240  177.6330  141.9980 C   0  0  0  0  0  3  0  0  0  0  0  0
  187.8090  177.1980  143.2870 C   0  0  0  0  0  3  0  0  0  0  0  0
  189.8300  175.9610  143.4010 C   0  0  0  0  0  3  0  0  0  0  0  0
  190.1800  176.3750  142.1140 C   0  0  0  0  0  3  0  0  0  0  0  0
  1 12  1  0  0  0  0
  2  6  1  0  0  0  0
  2 12  1  0  0  0  0
  3 16  1  0  0  0  0
  4 14  1  0  0  0  0
  5 13  2  0  0  0  0
  7  9  1  1  0  0  0
  7 11  1  0  0  0  0
  8 10  2  0  0  0  0
  8 17  1  0  0  0  0
 10 19  1  0  0  0  0
 11 14  2  0  0  0  0
 11 16  1  0  0  0  0
 12 23  1  0  0  0  0
 13  7  1  0  0  0  0
 13  4  1  0  0  0  0
 14 18  1  0  0  0  0
 15  1  1  0  0  0  0
 16  2  2  0  0  0  0
 17 21  2  0  0  0  0
 18  6  2  0  0  0  0
 19 20  2  0  0  0  0
 20 15  1  0  0  0  0
 21 20  1  0  0  0  0
 21  3  1  0  0  0  0
 23 24  2  0  0  0  0
 23 27  1  0  0  0  0
 24 25  1  0  0  0  0
 25 22  2  0  0  0  0
 26 22  1  0  0  0  0
 27 26  2  0  0  0  0
M  END
>  <MODEL>
5

>  <REMARK>
 VINA RESULT:      -5.8      5.154      7.895
  Name = 
  1 active torsions:
  status: ('A' for Active; 'I' for Inactive)
    1  A    between atoms: C_9  and  N_15
                            x       y       z     vdW  Elec       q    Type
                         _______ _______ _______ _____ _____    ______ ____

>  <TORSDO>
F 1

$$$$
=
 OpenBabel11052413413D

 27 31  0  0  1  0  0  0  0  0999 V2000
  182.2800  175.8190  139.4640 C   0  0  0  0  0  2  0  0  0  0  0  0
  183.9790  175.3980  137.6980 C   0  0  0  0  0  0  0  0  0  0  0  0
  184.3350  177.9060  137.8160 C   0  0  0  0  0  2  0  0  0  0  0  0
  187.9860  175.0090  136.6810 O   0  0  0  0  0  0  0  0  0  0  0  0
  189.5800  176.6910  136.4720 O   0  0  0  0  0  0  0  0  0  0  0  0
  184.4780  174.0980  137.4680 C   0  0  0  0  0  3  0  0  0  0  0  0
  187.2740  177.2870  137.0090 C   0  0  1  0  0  3  0  0  0  0  0  0
  185.7750  179.0500  141.0610 C   0  0  0  0  0  3  0  0  0  0  0  0
  186.9880  178.1600  135.7990 C   0  0  0  0  0  1  0  0  0  0  0  0
  184.7620  178.7670  141.9790 C   0  0  0  0  0  3  0  0  0  0  0  0
  186.1680  176.2930  137.2000 C   0  0  0  0  0  0  0  0  0  0  0  0
  182.6010  175.5640  138.0610 N   0  0  0  0  0  0  0  0  0  0  0  0
  188.3920  176.3380  136.6910 C   0  0  0  0  0  0  0  0  0  0  0  0
  186.6420  175.0130  136.9950 C   0  0  0  0  0  0  0  0  0  0  0  0
  182.1120  177.3110  139.7110 C   0  0  0  0  0  2  0  0  0  0  0  0
  184.8320  176.5180  137.5580 C   0  0  0  0  0  0  0  0  0  0  0  0
  185.5970  178.7740  139.7420 N   0  0  0  0  0  0  0  0  0  0  0  0
  185.8210  173.8960  137.1150 C   0  0  0  0  0  3  0  0  0  0  0  0
  183.5720  178.1990  141.5240 C   0  0  0  0  0  3  0  0  0  0  0  0
  183.3980  177.9250  140.1650 C   0  0  0  0  0  0  0  0  0  0  0  0
  184.4430  178.2280  139.2710 C   0  0  0  0  0  0  0  0  0  0  0  0
  179.5450  175.2440  135.1680 N   0  0  0  0  0  0  0  0  0  0  0  0
  181.5540  175.4570  137.0730 C   0  0  0  0  0  0  0  0  0  0  0  0
  180.4080  174.6870  137.3230 C   0  0  0  0  0  3  0  0  0  0  0  0
  179.4090  174.5920  136.3530 C   0  0  0  0  0  3  0  0  0  0  0  0
  180.6430  175.9970  134.8950 C   0  0  0  0  0  3  0  0  0  0  0  0
  181.6650  176.1160  135.8400 C   0  0  0  0  0  3  0  0  0  0  0  0
  1 15  1  0  0  0  0
  2 12  1  0  0  0  0
  3 21  1  0  0  0  0
  4 13  1  0  0  0  0
  4 14  1  0  0  0  0
  5 13  2  0  0  0  0
  6  2  2  0  0  0  0
  7  9  1  6  0  0  0
  7 11  1  0  0  0  0
  8 10  1  0  0  0  0
 11 16  2  0  0  0  0
 12  1  1  0  0  0  0
 13  7  1  0  0  0  0
 14 18  2  0  0  0  0
 14 11  1  0  0  0  0
 15 20  1  0  0  0  0
 16  2  1  0  0  0  0
 16  3  1  0  0  0  0
 17  8  2  0  0  0  0
 18  6  1  0  0  0  0
 19 10  2  0  0  0  0
 20 19  1  0  0  0  0
 21 17  1  0  0  0  0
 21 20  2  0  0  0  0
 22 25  1  0  0  0  0
 23 24  1  0  0  0  0
 23 12  1  0  0  0  0
 25 24  2  0  0  0  0
 26 22  2  0  0  0  0
 26 27  1  0  0  0  0
 27 23  2  0  0  0  0
M  END
>  <MODEL>
6

>  <REMARK>
 VINA RESULT:      -5.6      1.802      2.247
  Name = 
  1 active torsions:
  status: ('A' for Active; 'I' for Inactive)
    1  A    between atoms: C_9  and  N_15
                            x       y       z     vdW  Elec       q    Type
                         _______ _______ _______ _____ _____    ______ ____

>  <TORSDO>
F 1

$$$$
=
 OpenBabel11052413413D

 27 31  0  0  1  0  0  0  0  0999 V2000
  180.9140  177.2690  137.1410 C   0  0  0  0  0  2  0  0  0  0  0  0
  181.9690  178.6940  138.8850 C   0  0  0  0  0  0  0  0  0  0  0  0
  179.7610  178.3860  140.0940 C   0  0  0  0  0  2  0  0  0  0  0  0
  183.8180  178.9390  142.5940 O   0  0  0  0  0  0  0  0  0  0  0  0
  182.8390  178.7540  144.6980 O   0  0  0  0  0  0  0  0  0  0  0  0
  183.3660  178.8890  138.9140 C   0  0  0  0  0  3  0  0  0  0  0  0
  181.4300  178.6420  142.7060 C   0  0  1  0  0  3  0  0  0  0  0  0
  179.1420  174.8710  141.1810 C   0  0  0  0  0  3  0  0  0  0  0  0
  180.5420  179.8400  143.0010 C   0  0  0  0  0  1  0  0  0  0  0  0
  179.0140  174.1810  139.9750 C   0  0  0  0  0  3  0  0  0  0  0  0
  181.9470  178.7170  141.3010 C   0  0  0  0  0  0  0  0  0  0  0  0
  181.3030  178.5950  137.6180 N   0  0  0  0  0  0  0  0  0  0  0  0
  182.7290  178.7850  143.4440 C   0  0  0  0  0  0  0  0  0  0  0  0
  183.3160  178.8900  141.3090 C   0  0  0  0  0  0  0  0  0  0  0  0
  179.4580  176.9860  137.4800 C   0  0  0  0  0  2  0  0  0  0  0  0
  181.2410  178.6110  140.0950 C   0  0  0  0  0  0  0  0  0  0  0  0
  179.3670  176.2120  141.1790 N   0  0  0  0  0  0  0  0  0  0  0  0
  184.0530  178.9850  140.1330 C   0  0  0  0  0  3  0  0  0  0  0  0
  179.1190  174.8840  138.7740 C   0  0  0  0  0  3  0  0  0  0  0  0
  179.3440  176.2630  138.7850 C   0  0  0  0  0  0  0  0  0  0  0  0
  179.4650  176.9240  140.0220 C   0  0  0  0  0  0  0  0  0  0  0  0
  180.5570  182.0330  135.2860 N   0  0  0  0  0  0  0  0  0  0  0  0
  181.0440  179.7710  136.8200 C   0  0  0  0  0  0  0  0  0  0  0  0
  180.9840  179.6880  135.4210 C   0  0  0  0  0  3  0  0  0  0  0  0
  180.7370  180.8370  134.6670 C   0  0  0  0  0  3  0  0  0  0  0  0
  180.6090  182.1470  136.6400 C   0  0  0  0  0  3  0  0  0  0  0  0
  180.8540  181.0200  137.4280 C   0  0  0  0  0  3  0  0  0  0  0  0
  1 15  1  0  0  0  0
  1 12  1  0  0  0  0
  2  6  2  0  0  0  0
  2 16  1  0  0  0  0
  3 16  1  0  0  0  0
  4 13  1  0  0  0  0
  6 18  1  0  0  0  0
  7  9  1  1  0  0  0
  7 13  1  0  0  0  0
 10  8  2  0  0  0  0
 11 14  1  0  0  0  0
 11  7  1  0  0  0  0
 12  2  1  0  0  0  0
 13  5  2  0  0  0  0
 14  4  1  0  0  0  0
 15 20  1  0  0  0  0
 16 11  2  0  0  0  0
 17  8  1  0  0  0  0
 18 14  2  0  0  0  0
 19 20  2  0  0  0  0
 19 10  1  0  0  0  0
 20 21  1  0  0  0  0
 21  3  1  0  0  0  0
 21 17  2  0  0  0  0
 22 26  1  0  0  0  0
 23 27  1  0  0  0  0
 23 12  1  0  0  0  0
 24 23  2  0  0  0  0
 25 22  2  0  0  0  0
 25 24  1  0  0  0  0
 26 27  2  0  0  0  0
M  END
>  <MODEL>
7

>  <REMARK>
 VINA RESULT:      -5.6      3.645      6.079
  Name = 
  1 active torsions:
  status: ('A' for Active; 'I' for Inactive)
    1  A    between atoms: C_9  and  N_15
                            x       y       z     vdW  Elec       q    Type
                         _______ _______ _______ _____ _____    ______ ____

>  <TORSDO>
F 1

$$$$
=
 OpenBabel11052413413D

 27 31  0  0  1  0  0  0  0  0999 V2000
  190.8700  173.3770  136.8490 C   0  0  0  0  0  2  0  0  0  0  0  0
  190.3060  175.6890  137.5690 C   0  0  0  0  0  0  0  0  0  0  0  0
  188.7890  175.6660  135.5370 C   0  0  0  0  0  2  0  0  0  0  0  0
  187.5970  178.2490  139.3990 O   0  0  0  0  0  0  0  0  0  0  0  0
  185.5820  179.0470  138.5510 O   0  0  0  0  0  0  0  0  0  0  0  0
  190.5970  176.1320  138.8760 C   0  0  0  0  0  3  0  0  0  0  0  0
  186.9820  177.6080  137.1610 C   0  0  1  0  0  3  0  0  0  0  0  0
  185.9570  173.2560  135.8240 C   0  0  0  0  0  3  0  0  0  0  0  0
  187.2190  178.5780  136.0150 C   0  0  0  0  0  1  0  0  0  0  0  0
  186.5940  172.0140  135.8370 C   0  0  0  0  0  3  0  0  0  0  0  0
  188.2820  177.0090  137.6060 C   0  0  0  0  0  0  0  0  0  0  0  0
  191.2170  174.7960  136.9140 N   0  0  0  0  0  0  0  0  0  0  0  0
  186.6350  178.3730  138.4040 C   0  0  0  0  0  0  0  0  0  0  0  0
  188.5750  177.4180  138.8910 C   0  0  0  0  0  0  0  0  0  0  0  0
  190.2150  173.0490  135.5150 C   0  0  0  0  0  2  0  0  0  0  0  0
  189.1330  176.1360  136.9160 C   0  0  0  0  0  0  0  0  0  0  0  0
  186.6890  174.3960  135.7140 N   0  0  0  0  0  0  0  0  0  0  0  0
  189.7270  177.0020  139.5500 C   0  0  0  0  0  3  0  0  0  0  0  0
  187.9840  171.9610  135.7350 C   0  0  0  0  0  3  0  0  0  0  0  0
  188.7250  173.1400  135.6160 C   0  0  0  0  0  0  0  0  0  0  0  0
  188.0450  174.3730  135.6050 C   0  0  0  0  0  0  0  0  0  0  0  0
  194.8450  176.1960  135.2740 N   0  0  0  0  0  0  0  0  0  0  0  0
  192.4580  175.2780  136.3540 C   0  0  0  0  0  0  0  0  0  0  0  0
  192.4760  175.9460  135.1200 C   0  0  0  0  0  3  0  0  0  0  0  0
  193.6860  176.4010  134.5940 C   0  0  0  0  0  3  0  0  0  0  0  0
  194.8620  175.5520  136.4710 C   0  0  0  0  0  3  0  0  0  0  0  0
  193.6710  175.0820  137.0300 C   0  0  0  0  0  3  0  0  0  0  0  0
  1 12  1  0  0  0  0
  2  6  1  0  0  0  0
  3 21  1  0  0  0  0
  3 16  1  0  0  0  0
  6 18  2  0  0  0  0
  7  9  1  6  0  0  0
  7 11  1  0  0  0  0
  7 13  1  0  0  0  0
  8 10  1  0  0  0  0
 11 14  2  0  0  0  0
 12  2  1  0  0  0  0
 13  5  2  0  0  0  0
 13  4  1  0  0  0  0
 14  4  1  0  0  0  0
 14 18  1  0  0  0  0
 15 20  1  0  0  0  0
 15  1  1  0  0  0  0
 16  2  2  0  0  0  0
 16 11  1  0  0  0  0
 17  8  2  0  0  0  0
 19 10  2  0  0  0  0
 20 19  1  0  0  0  0
 21 20  2  0  0  0  0
 21 17  1  0  0  0  0
 22 26  1  0  0  0  0
 23 12  1  0  0  0  0
 23 27  1  0  0  0  0
 24 23  2  0  0  0  0
 25 24  1  0  0  0  0
 25 22  2  0  0  0  0
 26 27  2  0  0  0  0
M  END
>  <MODEL>
8

>  <REMARK>
 VINA RESULT:      -5.4      4.555      8.940
  Name = 
  1 active torsions:
  status: ('A' for Active; 'I' for Inactive)
    1  A    between atoms: C_9  and  N_15
                            x       y       z     vdW  Elec       q    Type
                         _______ _______ _______ _____ _____    ______ ____

>  <TORSDO>
F 1

$$$$
=
 OpenBabel11052413413D

 27 31  0  0  1  0  0  0  0  0999 V2000
  192.9380  173.6160  136.3770 C   0  0  0  0  0  2  0  0  0  0  0  0
  192.2560  175.7730  137.4080 C   0  0  0  0  0  0  0  0  0  0  0  0
  190.6850  175.9190  135.4220 C   0  0  0  0  0  2  0  0  0  0  0  0
  189.4520  177.8950  139.6160 O   0  0  0  0  0  0  0  0  0  0  0  0
  187.3690  178.6660  138.9230 O   0  0  0  0  0  0  0  0  0  0  0  0
  192.5570  176.0590  138.7560 C   0  0  0  0  0  3  0  0  0  0  0  0
  188.8120  177.5140  137.3260 C   0  0  1  0  0  3  0  0  0  0  0  0
  188.0130  173.3170  135.4480 C   0  0  0  0  0  3  0  0  0  0  0  0
  188.9560  178.6380  136.3130 C   0  0  0  0  0  1  0  0  0  0  0  0
  188.7240  172.1270  135.2840 C   0  0  0  0  0  3  0  0  0  0  0  0
  190.1580  176.9460  137.6610 C   0  0  0  0  0  0  0  0  0  0  0  0
  193.2000  175.0320  136.6220 N   0  0  0  0  0  0  0  0  0  0  0  0
  188.4560  178.0860  138.6660 C   0  0  0  0  0  0  0  0  0  0  0  0
  190.4630  177.2010  138.9820 C   0  0  0  0  0  0  0  0  0  0  0  0
  192.2650  173.4230  135.0260 C   0  0  0  0  0  2  0  0  0  0  0  0
  191.0400  176.2250  136.8440 C   0  0  0  0  0  0  0  0  0  0  0  0
  188.6720  174.5060  135.4740 N   0  0  0  0  0  0  0  0  0  0  0  0
  191.6570  176.7770  139.5570 C   0  0  0  0  0  3  0  0  0  0  0  0
  190.1110  172.1760  135.1470 C   0  0  0  0  0  3  0  0  0  0  0  0
  190.7760  173.4050  135.1690 C   0  0  0  0  0  0  0  0  0  0  0  0
  190.0230  174.5830  135.3350 C   0  0  0  0  0  0  0  0  0  0  0  0
  196.6880  176.8760  135.1230 N   0  0  0  0  0  0  0  0  0  0  0  0
  194.3930  175.6610  136.1060 C   0  0  0  0  0  0  0  0  0  0  0  0
  195.6480  175.0520  136.2580 C   0  0  0  0  0  3  0  0  0  0  0  0
  196.7900  175.6780  135.7560 C   0  0  0  0  0  3  0  0  0  0  0  0
  195.4870  177.4930  134.9590 C   0  0  0  0  0  3  0  0  0  0  0  0
  194.3220  176.8980  135.4480 C   0  0  0  0  0  3  0  0  0  0  0  0
  1 12  1  0  0  0  0
  2  6  1  0  0  0  0
  3 16  1  0  0  0  0
  6 18  2  0  0  0  0
  7  9  1  6  0  0  0
  7 11  1  0  0  0  0
  7 13  1  0  0  0  0
  8 17  1  0  0  0  0
 10  8  2  0  0  0  0
 11 14  2  0  0  0  0
 12  2  1  0  0  0  0
 13  5  2  0  0  0  0
 13  4  1  0  0  0  0
 14 18  1  0  0  0  0
 14  4  1  0  0  0  0
 15 20  1  0  0  0  0
 15  1  1  0  0  0  0
 16  2  2  0  0  0  0
 16 11  1  0  0  0  0
 19 20  2  0  0  0  0
 19 10  1  0  0  0  0
 20 21  1  0  0  0  0
 21  3  1  0  0  0  0
 21 17  2  0  0  0  0
 22 25  1  0  0  0  0
 23 24  1  0  0  0  0
 23 12  1  0  0  0  0
 25 24  2  0  0  0  0
 26 22  2  0  0  0  0
 26 27  1  0  0  0  0
 27 23  2  0  0  0  0
M  END
>  <MODEL>
9

>  <REMARK>
 VINA RESULT:      -5.3      5.763     10.234
  Name = 
  1 active torsions:
  status: ('A' for Active; 'I' for Inactive)
    1  A    between atoms: C_9  and  N_15
                            x       y       z     vdW  Elec       q    Type
                         _______ _______ _______ _____ _____    ______ ____

>  <TORSDO>
F 1

$$$$
