=
 OpenBabel11052415503D

 34 38  0  0  1  0  0  0  0  0999 V2000
  186.5740  178.2300  139.3600 C   0  0  2  0  0  3  0  0  0  0  0  0
  190.0530  177.4530  138.7170 C   0  0  0  0  0  3  0  0  0  0  0  0
  188.6160  178.7010  136.8320 S   0  0  0  0  0  0  0  0  0  0  0  0
  185.1130  177.2360  137.3580 N   0  0  0  0  0  0  0  0  0  0  0  0
  183.8420  176.6890  137.7920 C   0  0  0  0  0  1  0  0  0  0  0  0
  186.9900  178.0010  136.8640 C   0  0  0  0  0  0  0  0  0  0  0  0
  186.1740  177.8620  137.9980 C   0  0  0  0  0  0  0  0  0  0  0  0
  185.9200  177.2070  135.9220 S   0  0  0  0  0  0  0  0  0  0  0  0
  190.5820  176.8690  139.9580 C   0  0  0  0  0  2  0  0  0  0  0  0
  190.2890  177.1710  141.2280 C   0  0  0  0  0  0  0  0  0  0  0  0
  189.3540  178.2310  141.6500 C   0  0  0  0  0  3  0  0  0  0  0  0
  188.9250  178.1340  138.5330 C   0  0  0  0  0  0  0  0  0  0  0  0
  188.3210  178.7270  140.9740 C   0  0  0  0  0  3  0  0  0  0  0  0
  187.9030  178.3400  139.6210 C   0  0  0  0  0  0  0  0  0  0  0  0
  191.0250  176.4530  142.2880 C   0  0  0  0  0  0  0  0  0  0  0  0
  190.5420  175.2490  142.7920 O   0  0  0  0  0  1  0  0  0  0  0  0
  192.0970  176.9240  142.7500 O   0  0  0  0  0  0  0  0  0  0  0  0
  184.3900  179.1350  140.2900 C   0  0  0  0  0  0  0  0  0  0  0  0
  185.6040  178.3890  140.4070 N   0  0  0  0  0  2  0  0  0  0  0  0
  184.2180  179.9440  139.3390 O   0  0  0  0  0  0  0  0  0  0  0  0
  183.3150  178.9530  141.3060 C   0  0  0  0  0  2  0  0  0  0  0  0
  183.7820  179.0800  145.0640 C   0  0  0  0  0  3  0  0  0  0  0  0
  185.2000  178.2470  142.7920 C   0  0  0  0  0  3  0  0  0  0  0  0
  186.9310  177.8850  146.6080 C   0  0  0  0  0  0  0  0  0  0  0  0
  185.6430  178.4210  146.4680 C   0  0  0  0  0  3  0  0  0  0  0  0
  185.0640  178.5430  145.2020 C   0  0  0  0  0  0  0  0  0  0  0  0
  187.0620  177.5900  144.1960 C   0  0  0  0  0  3  0  0  0  0  0  0
  185.7780  178.1230  144.0580 C   0  0  0  0  0  0  0  0  0  0  0  0
  187.6350  177.4710  145.4660 C   0  0  0  0  0  3  0  0  0  0  0  0
  183.9130  178.7820  142.6590 C   0  0  0  0  0  0  0  0  0  0  0  0
  183.2090  179.2020  143.7940 C   0  0  0  0  0  3  0  0  0  0  0  0
  187.5350  177.7600  147.9430 C   0  0  0  0  0  0  0  0  0  0  0  0
  187.5040  178.7260  148.7520 O   0  0  0  0  0  1  0  0  0  0  0  0
  188.1470  176.5720  148.3270 O   0  0  0  0  0  0  0  0  0  0  0  0
  1 14  1  0  0  0  0
  1 19  1  1  0  0  0
  2  9  1  0  0  0  0
  3  6  1  0  0  0  0
  3 12  1  0  0  0  0
  4  5  1  0  0  0  0
  4  7  1  0  0  0  0
  6  7  2  0  0  0  0
  7  1  1  0  0  0  0
  8  6  1  0  0  0  0
  8  4  1  0  0  0  0
  9 10  1  0  0  0  0
 10 11  2  0  0  0  0
 10 15  1  0  0  0  0
 12  2  2  0  0  0  0
 12 14  1  0  0  0  0
 13 11  1  0  0  0  0
 14 13  2  0  0  0  0
 15 17  2  0  0  0  0
 15 16  1  0  0  0  0
 18 19  1  0  0  0  0
 18 21  1  0  0  0  0
 20 18  2  0  0  0  0
 21 30  1  0  0  0  0
 22 26  1  0  0  0  0
 23 28  1  0  0  0  0
 24 32  1  0  0  0  0
 25 24  1  0  0  0  0
 26 25  2  0  0  0  0
 27 29  1  0  0  0  0
 28 27  2  0  0  0  0
 28 26  1  0  0  0  0
 29 24  2  0  0  0  0
 30 23  2  0  0  0  0
 30 31  1  0  0  0  0
 31 22  2  0  0  0  0
 32 34  2  0  0  0  0
 32 33  1  0  0  0  0
M  END
>  <MODEL>
1

>  <REMARK>
 VINA RESULT:     -10.5      0.000      0.000
  Name = 
  5 active torsions:
  status: ('A' for Active; 'I' for Inactive)
    1  A    between atoms: C_1  and  N_9
    2  A    between atoms: C_3  and  C_25
    3  A    between atoms: C_7  and  C_11
    4  A    between atoms: C_8  and  C_18
    5  A    between atoms: C_18  and  C_30
                            x       y       z     vdW  Elec       q    Type
                         _______ _______ _______ _____ _____    ______ ____

>  <TORSDO>
F 5

$$$$
=
 OpenBabel11052415503D

 34 38  0  0  1  0  0  0  0  0999 V2000
  184.1240  178.1170  140.7120 C   0  0  2  0  0  3  0  0  0  0  0  0
  182.0500  179.5500  138.1110 C   0  0  0  0  0  3  0  0  0  0  0  0
  183.8470  177.6690  137.4700 S   0  0  0  0  0  0  0  0  0  0  0  0
  186.6780  178.3480  139.9640 N   0  0  0  0  0  0  0  0  0  0  0  0
  187.5720  178.6550  141.0650 C   0  0  0  0  0  1  0  0  0  0  0  0
  185.2870  177.9630  138.4580 C   0  0  0  0  0  0  0  0  0  0  0  0
  185.3130  178.1190  139.8530 C   0  0  0  0  0  0  0  0  0  0  0  0
  186.8810  178.2940  138.3300 S   0  0  0  0  0  0  0  0  0  0  0  0
  181.1160  180.4640  138.7840 C   0  0  0  0  0  2  0  0  0  0  0  0
  180.5310  180.3460  139.9810 C   0  0  0  0  0  0  0  0  0  0  0  0
  180.6930  179.1960  140.8910 C   0  0  0  0  0  3  0  0  0  0  0  0
  182.8170  178.6020  138.6440 C   0  0  0  0  0  0  0  0  0  0  0  0
  181.7200  178.3550  140.9700 C   0  0  0  0  0  3  0  0  0  0  0  0
  182.9240  178.3720  140.1300 C   0  0  0  0  0  0  0  0  0  0  0  0
  179.5810  181.4020  140.3840 C   0  0  0  0  0  0  0  0  0  0  0  0
  179.1950  181.5350  141.7140 O   0  0  0  0  0  1  0  0  0  0  0  0
  179.1070  182.1940  139.5270 O   0  0  0  0  0  0  0  0  0  0  0  0
  184.5410  178.9730  143.0660 C   0  0  0  0  0  0  0  0  0  0  0  0
  184.2290  177.9370  142.1320 N   0  0  0  0  0  2  0  0  0  0  0  0
  185.0250  180.0700  142.6770 O   0  0  0  0  0  0  0  0  0  0  0  0
  184.2920  178.7520  144.5190 C   0  0  0  0  0  2  0  0  0  0  0  0
  186.8710  178.1500  147.2300 C   0  0  0  0  0  3  0  0  0  0  0  0
  186.6430  177.8980  144.4460 C   0  0  0  0  0  3  0  0  0  0  0  0
  190.2490  176.8990  146.3660 C   0  0  0  0  0  0  0  0  0  0  0  0
  189.1570  177.3570  147.1160 C   0  0  0  0  0  3  0  0  0  0  0  0
  187.9570  177.6910  146.4830 C   0  0  0  0  0  0  0  0  0  0  0  0
  188.9300  177.1080  144.3320 C   0  0  0  0  0  3  0  0  0  0  0  0
  187.8420  177.5630  145.0800 C   0  0  0  0  0  0  0  0  0  0  0  0
  190.1280  176.7760  144.9720 C   0  0  0  0  0  3  0  0  0  0  0  0
  185.5560  178.3550  145.2010 C   0  0  0  0  0  0  0  0  0  0  0  0
  185.6730  178.4850  146.5900 C   0  0  0  0  0  3  0  0  0  0  0  0
  191.5100  176.5500  147.0390 C   0  0  0  0  0  0  0  0  0  0  0  0
  191.9030  177.2080  148.0390 O   0  0  0  0  0  1  0  0  0  0  0  0
  192.2810  175.4890  146.5780 O   0  0  0  0  0  0  0  0  0  0  0  0
  1 19  1  1  0  0  0
  2 12  2  0  0  0  0
  2  9  1  0  0  0  0
  3  6  1  0  0  0  0
  3 12  1  0  0  0  0
  4  5  1  0  0  0  0
  6  7  2  0  0  0  0
  7  4  1  0  0  0  0
  7  1  1  0  0  0  0
  8  6  1  0  0  0  0
  8  4  1  0  0  0  0
  9 10  1  0  0  0  0
 10 15  1  0  0  0  0
 10 11  2  0  0  0  0
 11 13  1  0  0  0  0
 12 14  1  0  0  0  0
 14  1  1  0  0  0  0
 14 13  2  0  0  0  0
 15 16  1  0  0  0  0
 17 15  2  0  0  0  0
 18 21  1  0  0  0  0
 19 18  1  0  0  0  0
 20 18  2  0  0  0  0
 21 30  1  0  0  0  0
 23 28  2  0  0  0  0
 23 30  1  0  0  0  0
 24 32  1  0  0  0  0
 24 25  2  0  0  0  0
 26 25  1  0  0  0  0
 26 22  2  0  0  0  0
 27 29  2  0  0  0  0
 27 28  1  0  0  0  0
 28 26  1  0  0  0  0
 29 24  1  0  0  0  0
 30 31  2  0  0  0  0
 31 22  1  0  0  0  0
 32 33  1  0  0  0  0
 34 32  2  0  0  0  0
M  END
>  <MODEL>
2

>  <REMARK>
 VINA RESULT:     -10.4      2.701      6.137
  Name = 
  5 active torsions:
  status: ('A' for Active; 'I' for Inactive)
    1  A    between atoms: C_1  and  N_9
    2  A    between atoms: C_3  and  C_25
    3  A    between atoms: C_7  and  C_11
    4  A    between atoms: C_8  and  C_18
    5  A    between atoms: C_18  and  C_30
                            x       y       z     vdW  Elec       q    Type
                         _______ _______ _______ _____ _____    ______ ____

>  <TORSDO>
F 5

$$$$
=
 OpenBabel11052415503D

 34 38  0  0  1  0  0  0  0  0999 V2000
  185.7000  177.6720  138.3150 C   0  0  2  0  0  3  0  0  0  0  0  0
  189.0610  177.3840  136.9980 C   0  0  0  0  0  3  0  0  0  0  0  0
  187.0840  178.1960  135.3830 S   0  0  0  0  0  0  0  0  0  0  0  0
  184.0640  176.2640  136.7410 N   0  0  0  0  0  0  0  0  0  0  0  0
  183.0190  175.5730  137.4730 C   0  0  0  0  0  1  0  0  0  0  0  0
  185.6440  177.2580  135.8090 C   0  0  0  0  0  0  0  0  0  0  0  0
  185.1060  177.1090  137.0970 C   0  0  0  0  0  0  0  0  0  0  0  0
  184.5610  176.2150  135.1710 S   0  0  0  0  0  0  0  0  0  0  0  0
  189.9210  177.0190  138.1340 C   0  0  0  0  0  2  0  0  0  0  0  0
  189.8380  177.3990  139.4140 C   0  0  0  0  0  0  0  0  0  0  0  0
  188.8360  178.3380  139.9540 C   0  0  0  0  0  3  0  0  0  0  0  0
  187.8190  177.8590  137.0140 C   0  0  0  0  0  0  0  0  0  0  0  0
  187.6200  178.5960  139.4820 C   0  0  0  0  0  3  0  0  0  0  0  0
  187.0140  178.0120  138.2780 C   0  0  0  0  0  0  0  0  0  0  0  0
  190.8830  176.9160  140.3380 C   0  0  0  0  0  0  0  0  0  0  0  0
  192.2050  177.3220  140.1850 O   0  0  0  0  0  0  0  0  0  0  0  0
  190.5900  176.1270  141.2760 O   0  0  0  0  0  1  0  0  0  0  0  0
  184.2180  178.9440  139.9390 C   0  0  0  0  0  0  0  0  0  0  0  0
  184.9450  177.7830  139.5310 N   0  0  0  0  0  2  0  0  0  0  0  0
  184.4180  180.0590  139.3860 O   0  0  0  0  0  0  0  0  0  0  0  0
  183.2110  178.8350  141.0310 C   0  0  0  0  0  2  0  0  0  0  0  0
  183.9010  178.9460  144.7560 C   0  0  0  0  0  3  0  0  0  0  0  0
  185.2040  178.1780  142.3940 C   0  0  0  0  0  3  0  0  0  0  0  0
  187.1750  177.8410  146.0940 C   0  0  0  0  0  0  0  0  0  0  0  0
  185.8650  178.3360  146.0380 C   0  0  0  0  0  3  0  0  0  0  0  0
  185.2050  178.4500  144.8110 C   0  0  0  0  0  0  0  0  0  0  0  0
  187.1680  177.5700  143.6750 C   0  0  0  0  0  3  0  0  0  0  0  0
  185.8610  178.0620  143.6210 C   0  0  0  0  0  0  0  0  0  0  0  0
  187.8210  177.4590  144.9070 C   0  0  0  0  0  3  0  0  0  0  0  0
  183.8950  178.6720  142.3450 C   0  0  0  0  0  0  0  0  0  0  0  0
  183.2480  179.0600  143.5240 C   0  0  0  0  0  3  0  0  0  0  0  0
  187.8630  177.7240  147.3890 C   0  0  0  0  0  0  0  0  0  0  0  0
  187.6370  178.5550  148.3090 O   0  0  0  0  0  1  0  0  0  0  0  0
  188.7690  176.6930  147.6100 O   0  0  0  0  0  0  0  0  0  0  0  0
  1 19  1  1  0  0  0
  2 12  2  0  0  0  0
  2  9  1  0  0  0  0
  3  6  1  0  0  0  0
  3 12  1  0  0  0  0
  4  7  1  0  0  0  0
  4  5  1  0  0  0  0
  6  7  2  0  0  0  0
  7  1  1  0  0  0  0
  8  6  1  0  0  0  0
  8  4  1  0  0  0  0
  9 10  1  0  0  0  0
 10 11  2  0  0  0  0
 10 15  1  0  0  0  0
 12 14  1  0  0  0  0
 13 11  1  0  0  0  0
 14  1  1  0  0  0  0
 14 13  2  0  0  0  0
 15 17  1  0  0  0  0
 16 15  2  0  0  0  0
 18 21  1  0  0  0  0
 19 18  1  0  0  0  0
 20 18  2  0  0  0  0
 21 30  1  0  0  0  0
 22 26  1  0  0  0  0
 23 28  1  0  0  0  0
 24 32  1  0  0  0  0
 25 24  1  0  0  0  0
 26 25  2  0  0  0  0
 27 29  1  0  0  0  0
 28 27  2  0  0  0  0
 28 26  1  0  0  0  0
 29 24  2  0  0  0  0
 30 23  2  0  0  0  0
 30 31  1  0  0  0  0
 31 22  2  0  0  0  0
 32 34  2  0  0  0  0
 32 33  1  0  0  0  0
M  END
>  <MODEL>
3

>  <REMARK>
 VINA RESULT:     -10.3      1.094      1.462
  Name = 
  5 active torsions:
  status: ('A' for Active; 'I' for Inactive)
    1  A    between atoms: C_1  and  N_9
    2  A    between atoms: C_3  and  C_25
    3  A    between atoms: C_7  and  C_11
    4  A    between atoms: C_8  and  C_18
    5  A    between atoms: C_18  and  C_30
                            x       y       z     vdW  Elec       q    Type
                         _______ _______ _______ _____ _____    ______ ____

>  <TORSDO>
F 5

$$$$
=
 OpenBabel11052415503D

 34 38  0  0  1  0  0  0  0  0999 V2000
  183.3680  178.6980  141.4900 C   0  0  2  0  0  3  0  0  0  0  0  0
  184.8070  178.8950  138.1710 C   0  0  0  0  0  3  0  0  0  0  0  0
  182.5960  180.3010  138.7290 S   0  0  0  0  0  0  0  0  0  0  0  0
  180.7920  178.0380  141.2440 N   0  0  0  0  0  0  0  0  0  0  0  0
  180.3300  177.1330  142.2790 C   0  0  0  0  0  1  0  0  0  0  0  0
  181.5870  179.2930  139.7790 C   0  0  0  0  0  0  0  0  0  0  0  0
  182.0000  178.6620  140.9630 C   0  0  0  0  0  0  0  0  0  0  0  0
  180.1110  178.5970  139.8510 S   0  0  0  0  0  0  0  0  0  0  0  0
  186.0460  178.1040  138.2100 C   0  0  0  0  0  3  0  0  0  0  0  0
  186.9250  177.9560  139.2070 C   0  0  0  0  0  0  0  0  0  0  0  0
  186.8350  178.6260  140.5190 C   0  0  0  0  0  3  0  0  0  0  0  0
  184.0750  179.3450  139.1880 C   0  0  1  0  0  3  0  0  0  0  0  0
  185.7440  179.0660  141.1390 C   0  0  0  0  0  3  0  0  0  0  0  0
  184.3700  179.0060  140.6250 C   0  0  0  0  0  0  0  0  0  0  0  0
  188.1240  177.1360  138.9440 C   0  0  0  0  0  0  0  0  0  0  0  0
  188.2110  176.3610  137.7920 O   0  0  0  0  0  0  0  0  0  0  0  0
  189.0820  177.1270  139.7620 O   0  0  0  0  0  1  0  0  0  0  0  0
  183.7280  179.2590  143.9400 C   0  0  0  0  0  0  0  0  0  0  0  0
  183.6550  178.3370  142.8490 N   0  0  0  0  0  2  0  0  0  0  0  0
  183.8200  180.4980  143.7350 O   0  0  0  0  0  0  0  0  0  0  0  0
  183.6950  178.7450  145.3390 C   0  0  0  0  0  2  0  0  0  0  0  0
  186.7430  178.2580  147.5360 C   0  0  0  0  0  3  0  0  0  0  0  0
  186.0010  177.9050  144.8540 C   0  0  0  0  0  3  0  0  0  0  0  0
  189.9170  176.9990  146.0950 C   0  0  0  0  0  0  0  0  0  0  0  0
  188.9780  177.4770  147.0210 C   0  0  0  0  0  3  0  0  0  0  0  0
  187.6760  177.7790  146.6130 C   0  0  0  0  0  0  0  0  0  0  0  0
  188.2370  177.1270  144.3390 C   0  0  0  0  0  3  0  0  0  0  0  0
  187.3020  177.6010  145.2630 C   0  0  0  0  0  0  0  0  0  0  0  0
  189.5380  176.8270  144.7540 C   0  0  0  0  0  3  0  0  0  0  0  0
  185.0690  178.3810  145.7840 C   0  0  0  0  0  0  0  0  0  0  0  0
  185.4430  178.5610  147.1220 C   0  0  0  0  0  3  0  0  0  0  0  0
  191.2860  176.6840  146.5300 C   0  0  0  0  0  0  0  0  0  0  0  0
  192.0520  176.0100  145.7900 O   0  0  0  0  0  0  0  0  0  0  0  0
  191.7490  177.1280  147.7630 O   0  0  0  0  0  1  0  0  0  0  0  0
  1 19  1  6  0  0  0
  2  9  2  0  0  0  0
  3 12  1  0  0  0  0
  3  6  1  0  0  0  0
  4  5  1  0  0  0  0
  6  8  1  0  0  0  0
  6  7  2  0  0  0  0
  7  4  1  0  0  0  0
  7  1  1  0  0  0  0
  8  4  1  0  0  0  0
  9 10  1  0  0  0  0
 10 11  2  0  0  0  0
 11 13  1  0  0  0  0
 12  2  1  6  0  0  0
 12 14  1  0  0  0  0
 14 13  2  0  0  0  0
 14  1  1  0  0  0  0
 15 10  1  0  0  0  0
 15 17  1  0  0  0  0
 16 15  2  0  0  0  0
 18 21  1  0  0  0  0
 19 18  1  0  0  0  0
 20 18  2  0  0  0  0
 21 30  1  0  0  0  0
 23 28  2  0  0  0  0
 23 30  1  0  0  0  0
 24 32  1  0  0  0  0
 24 25  2  0  0  0  0
 26 25  1  0  0  0  0
 26 22  2  0  0  0  0
 27 29  2  0  0  0  0
 27 28  1  0  0  0  0
 28 26  1  0  0  0  0
 29 24  1  0  0  0  0
 30 31  2  0  0  0  0
 31 22  1  0  0  0  0
 32 34  1  0  0  0  0
 33 32  2  0  0  0  0
M  END
>  <MODEL>
4

>  <REMARK>
 VINA RESULT:     -10.0      2.808      4.387
  Name = 
  5 active torsions:
  status: ('A' for Active; 'I' for Inactive)
    1  A    between atoms: C_1  and  N_9
    2  A    between atoms: C_3  and  C_25
    3  A    between atoms: C_7  and  C_11
    4  A    between atoms: C_8  and  C_18
    5  A    between atoms: C_18  and  C_30
                            x       y       z     vdW  Elec       q    Type
                         _______ _______ _______ _____ _____    ______ ____

>  <TORSDO>
F 5

$$$$
=
 OpenBabel11052415503D

 34 38  0  0  1  0  0  0  0  0999 V2000
  182.5190  178.8050  141.5910 C   0  0  2  0  0  3  0  0  0  0  0  0
  182.9700  179.0040  138.0030 C   0  0  0  0  0  3  0  0  0  0  0  0
  181.0920  180.5120  139.1750 S   0  0  0  0  0  0  0  0  0  0  0  0
  179.9440  178.2900  142.0800 N   0  0  0  0  0  0  0  0  0  0  0  0
  179.7420  177.3860  143.1970 C   0  0  0  0  0  1  0  0  0  0  0  0
  180.3640  179.5350  140.4600 C   0  0  0  0  0  0  0  0  0  0  0  0
  181.0570  178.8550  141.4740 C   0  0  0  0  0  0  0  0  0  0  0  0
  178.9310  178.9170  140.9410 S   0  0  0  0  0  0  0  0  0  0  0  0
  184.1220  178.1470  137.6830 C   0  0  0  0  0  3  0  0  0  0  0  0
  185.2370  177.9290  138.3890 C   0  0  0  0  0  0  0  0  0  0  0  0
  185.5600  178.5720  139.6780 C   0  0  0  0  0  3  0  0  0  0  0  0
  182.5830  179.4680  139.1880 C   0  0  1  0  0  3  0  0  0  0  0  0
  184.7160  179.0540  140.5850 C   0  0  0  0  0  3  0  0  0  0  0  0
  183.2510  179.0800  140.4810 C   0  0  0  0  0  0  0  0  0  0  0  0
  186.2630  177.0520  137.7910 C   0  0  0  0  0  0  0  0  0  0  0  0
  185.9270  176.1570  136.7810 O   0  0  0  0  0  0  0  0  0  0  0  0
  187.4570  177.1030  138.1910 O   0  0  0  0  0  1  0  0  0  0  0  0
  183.4590  179.2680  143.9040 C   0  0  0  0  0  0  0  0  0  0  0  0
  183.1560  178.3980  142.8110 N   0  0  0  0  0  2  0  0  0  0  0  0
  183.4390  180.5200  143.7590 O   0  0  0  0  0  0  0  0  0  0  0  0
  183.8050  178.6860  145.2320 C   0  0  0  0  0  2  0  0  0  0  0  0
  187.2590  177.5840  144.1310 C   0  0  0  0  0  3  0  0  0  0  0  0
  185.9280  178.2910  146.4960 C   0  0  0  0  0  3  0  0  0  0  0  0
  189.9710  177.1410  146.6160 C   0  0  0  0  0  0  0  0  0  0  0  0
  189.2850  177.1730  145.3940 C   0  0  0  0  0  3  0  0  0  0  0  0
  187.9420  177.5550  145.3490 C   0  0  0  0  0  0  0  0  0  0  0  0
  187.9530  177.8780  147.7590 C   0  0  0  0  0  3  0  0  0  0  0  0
  187.2710  177.9120  146.5400 C   0  0  0  0  0  0  0  0  0  0  0  0
  189.2970  177.4950  147.7960 C   0  0  0  0  0  3  0  0  0  0  0  0
  185.2490  178.3220  145.2720 C   0  0  0  0  0  0  0  0  0  0  0  0
  185.9140  177.9640  144.0930 C   0  0  0  0  0  3  0  0  0  0  0  0
  191.3850  176.7380  146.6570 C   0  0  0  0  0  0  0  0  0  0  0  0
  192.0530  176.8570  147.7180 O   0  0  0  0  0  1  0  0  0  0  0  0
  191.9990  176.2190  145.5220 O   0  0  0  0  0  0  0  0  0  0  0  0
  1 19  1  6  0  0  0
  3 12  1  0  0  0  0
  3  6  1  0  0  0  0
  4  5  1  0  0  0  0
  6  8  1  0  0  0  0
  6  7  2  0  0  0  0
  7  1  1  0  0  0  0
  7  4  1  0  0  0  0
  8  4  1  0  0  0  0
  9  2  2  0  0  0  0
  9 10  1  0  0  0  0
 10 11  2  0  0  0  0
 11 13  1  0  0  0  0
 12  2  1  1  0  0  0
 12 14  1  0  0  0  0
 14 13  2  0  0  0  0
 14  1  1  0  0  0  0
 15 17  1  0  0  0  0
 15 10  1  0  0  0  0
 16 15  2  0  0  0  0
 18 21  1  0  0  0  0
 19 18  1  0  0  0  0
 20 18  2  0  0  0  0
 21 30  1  0  0  0  0
 22 26  1  0  0  0  0
 23 28  1  0  0  0  0
 24 32  1  0  0  0  0
 24 29  1  0  0  0  0
 25 24  2  0  0  0  0
 26 25  1  0  0  0  0
 26 28  2  0  0  0  0
 27 29  2  0  0  0  0
 28 27  1  0  0  0  0
 30 23  2  0  0  0  0
 31 22  2  0  0  0  0
 31 30  1  0  0  0  0
 32 33  1  0  0  0  0
 34 32  2  0  0  0  0
M  END
>  <MODEL>
5

>  <REMARK>
 VINA RESULT:      -9.7      3.224      5.357
  Name = 
  5 active torsions:
  status: ('A' for Active; 'I' for Inactive)
    1  A    between atoms: C_1  and  N_9
    2  A    between atoms: C_3  and  C_25
    3  A    between atoms: C_7  and  C_11
    4  A    between atoms: C_8  and  C_18
    5  A    between atoms: C_18  and  C_30
                            x       y       z     vdW  Elec       q    Type
                         _______ _______ _______ _____ _____    ______ ____

>  <TORSDO>
F 5

$$$$
=
 OpenBabel11052415503D

 34 38  0  0  1  0  0  0  0  0999 V2000
  185.4620  177.5650  137.9570 C   0  0  2  0  0  3  0  0  0  0  0  0
  188.3310  176.8310  135.8710 C   0  0  0  0  0  3  0  0  0  0  0  0
  186.1280  177.8690  134.7550 S   0  0  0  0  0  0  0  0  0  0  0  0
  183.3280  176.3580  136.8950 N   0  0  0  0  0  0  0  0  0  0  0  0
  182.4220  175.8170  137.8890 C   0  0  0  0  0  1  0  0  0  0  0  0
  184.7350  177.1300  135.5610 C   0  0  0  0  0  0  0  0  0  0  0  0
  184.5210  177.0670  136.9470 C   0  0  0  0  0  0  0  0  0  0  0  0
  183.4100  176.2260  135.2550 S   0  0  0  0  0  0  0  0  0  0  0  0
  189.3940  176.3730  136.7770 C   0  0  0  0  0  2  0  0  0  0  0  0
  189.6790  176.7770  138.0200 C   0  0  0  0  0  0  0  0  0  0  0  0
  188.9640  177.8430  138.7460 C   0  0  0  0  0  3  0  0  0  0  0  0
  187.1980  177.4620  136.1690 C   0  0  0  0  0  0  0  0  0  0  0  0
  187.7090  178.2490  138.5760 C   0  0  0  0  0  3  0  0  0  0  0  0
  186.7570  177.7330  137.5840 C   0  0  0  0  0  0  0  0  0  0  0  0
  190.8540  176.1750  138.6810 C   0  0  0  0  0  0  0  0  0  0  0  0
  191.4780  176.8250  139.7410 O   0  0  0  0  0  1  0  0  0  0  0  0
  191.3080  175.0670  138.2900 O   0  0  0  0  0  0  0  0  0  0  0  0
  184.4810  179.0010  139.8070 C   0  0  0  0  0  0  0  0  0  0  0  0
  185.0520  177.7870  139.3150 N   0  0  0  0  0  2  0  0  0  0  0  0
  184.5540  180.0670  139.1390 O   0  0  0  0  0  0  0  0  0  0  0  0
  183.7910  179.0060  141.1280 C   0  0  0  0  0  2  0  0  0  0  0  0
  186.9520  177.9260  142.9160 C   0  0  0  0  0  3  0  0  0  0  0  0
  184.3760  178.8340  143.5540 C   0  0  0  0  0  3  0  0  0  0  0  0
  187.0880  177.8640  146.6190 C   0  0  0  0  0  0  0  0  0  0  0  0
  187.4700  177.7360  145.2760 C   0  0  0  0  0  3  0  0  0  0  0  0
  186.5720  178.0570  144.2540 C   0  0  0  0  0  0  0  0  0  0  0  0
  184.8930  178.6410  145.9130 C   0  0  0  0  0  3  0  0  0  0  0  0
  185.2750  178.5150  144.5750 C   0  0  0  0  0  0  0  0  0  0  0  0
  185.7960  178.3180  146.9300 C   0  0  0  0  0  3  0  0  0  0  0  0
  184.7640  178.7050  142.2150 C   0  0  0  0  0  0  0  0  0  0  0  0
  186.0490  178.2470  141.8980 C   0  0  0  0  0  3  0  0  0  0  0  0
  188.0380  177.5230  147.6890 C   0  0  0  0  0  0  0  0  0  0  0  0
  187.9060  178.0180  148.8410 O   0  0  0  0  0  1  0  0  0  0  0  0
  189.0910  176.6510  147.4410 O   0  0  0  0  0  0  0  0  0  0  0  0
  1 19  1  1  0  0  0
  2 12  2  0  0  0  0
  2  9  1  0  0  0  0
  3  6  1  0  0  0  0
  3 12  1  0  0  0  0
  4  7  1  0  0  0  0
  4  5  1  0  0  0  0
  6  7  2  0  0  0  0
  7  1  1  0  0  0  0
  8  6  1  0  0  0  0
  8  4  1  0  0  0  0
  9 10  1  0  0  0  0
 10 15  1  0  0  0  0
 10 11  2  0  0  0  0
 12 14  1  0  0  0  0
 13 11  1  0  0  0  0
 14  1  1  0  0  0  0
 14 13  2  0  0  0  0
 15 16  1  0  0  0  0
 17 15  2  0  0  0  0
 18 21  1  0  0  0  0
 19 18  1  0  0  0  0
 20 18  2  0  0  0  0
 21 30  1  0  0  0  0
 22 26  1  0  0  0  0
 23 28  1  0  0  0  0
 24 29  1  0  0  0  0
 24 32  1  0  0  0  0
 25 24  2  0  0  0  0
 26 28  2  0  0  0  0
 26 25  1  0  0  0  0
 27 29  2  0  0  0  0
 28 27  1  0  0  0  0
 30 23  2  0  0  0  0
 31 30  1  0  0  0  0
 31 22  2  0  0  0  0
 32 33  1  0  0  0  0
 34 32  2  0  0  0  0
M  END
>  <MODEL>
6

>  <REMARK>
 VINA RESULT:      -9.7      1.675      2.520
  Name = 
  5 active torsions:
  status: ('A' for Active; 'I' for Inactive)
    1  A    between atoms: C_1  and  N_9
    2  A    between atoms: C_3  and  C_25
    3  A    between atoms: C_7  and  C_11
    4  A    between atoms: C_8  and  C_18
    5  A    between atoms: C_18  and  C_30
                            x       y       z     vdW  Elec       q    Type
                         _______ _______ _______ _____ _____    ______ ____

>  <TORSDO>
F 5

$$$$
=
 OpenBabel11052415503D

 34 38  0  0  1  0  0  0  0  0999 V2000
  184.1070  177.4350  137.8240 C   0  0  2  0  0  3  0  0  0  0  0  0
  187.1020  175.8500  136.5450 C   0  0  0  0  0  3  0  0  0  0  0  0
  184.9430  176.0400  134.9710 S   0  0  0  0  0  0  0  0  0  0  0  0
  182.0620  175.7510  137.4840 N   0  0  0  0  0  0  0  0  0  0  0  0
  181.1130  175.7720  138.5810 C   0  0  0  0  0  1  0  0  0  0  0  0
  183.5240  175.7710  135.9950 C   0  0  0  0  0  0  0  0  0  0  0  0
  183.2340  176.4370  137.1970 C   0  0  0  0  0  0  0  0  0  0  0  0
  182.2370  174.7790  136.1650 S   0  0  0  0  0  0  0  0  0  0  0  0
  188.1230  175.9890  137.5930 C   0  0  0  0  0  2  0  0  0  0  0  0
  188.3300  176.9990  138.4450 C   0  0  0  0  0  0  0  0  0  0  0  0
  187.5530  178.2530  138.4730 C   0  0  0  0  0  3  0  0  0  0  0  0
  185.9410  176.4890  136.4240 C   0  0  0  0  0  0  0  0  0  0  0  0
  186.3020  178.4480  138.0690 C   0  0  0  0  0  3  0  0  0  0  0  0
  185.4170  177.4430  137.4660 C   0  0  0  0  0  0  0  0  0  0  0  0
  189.4790  176.8910  139.3660 C   0  0  0  0  0  0  0  0  0  0  0  0
  190.5170  176.0030  139.1000 O   0  0  0  0  0  0  0  0  0  0  0  0
  189.5330  177.6030  140.4040 O   0  0  0  0  0  1  0  0  0  0  0  0
  183.4360  177.9610  140.2170 C   0  0  0  0  0  0  0  0  0  0  0  0
  183.6180  178.3190  138.8450 N   0  0  0  0  0  2  0  0  0  0  0  0
  183.4300  176.7530  140.5740 O   0  0  0  0  0  0  0  0  0  0  0  0
  183.2520  179.0320  141.2370 C   0  0  0  0  0  2  0  0  0  0  0  0
  184.2930  178.7150  144.8670 C   0  0  0  0  0  3  0  0  0  0  0  0
  185.3690  178.2520  142.3180 C   0  0  0  0  0  3  0  0  0  0  0  0
  187.6850  177.5120  145.7500 C   0  0  0  0  0  0  0  0  0  0  0  0
  186.3730  177.9890  145.8770 C   0  0  0  0  0  3  0  0  0  0  0  0
  185.5990  178.2360  144.7400 C   0  0  0  0  0  0  0  0  0  0  0  0
  187.4490  177.5290  143.3290 C   0  0  0  0  0  3  0  0  0  0  0  0
  186.1410  178.0030  143.4560 C   0  0  0  0  0  0  0  0  0  0  0  0
  188.2170  177.2840  144.4710 C   0  0  0  0  0  3  0  0  0  0  0  0
  184.0590  178.7270  142.4510 C   0  0  0  0  0  0  0  0  0  0  0  0
  183.5250  178.9620  143.7240 C   0  0  0  0  0  3  0  0  0  0  0  0
  188.4930  177.2550  146.9520 C   0  0  0  0  0  0  0  0  0  0  0  0
  189.6540  176.7750  146.8500 O   0  0  0  0  0  0  0  0  0  0  0  0
  187.9840  177.5400  148.2140 O   0  0  0  0  0  1  0  0  0  0  0  0
  1 19  1  1  0  0  0
  2  9  1  0  0  0  0
  3  6  1  0  0  0  0
  3 12  1  0  0  0  0
  4  5  1  0  0  0  0
  6  8  1  0  0  0  0
  6  7  2  0  0  0  0
  7  4  1  0  0  0  0
  7  1  1  0  0  0  0
  8  4  1  0  0  0  0
  9 10  1  0  0  0  0
 10 11  2  0  0  0  0
 10 15  1  0  0  0  0
 12  2  2  0  0  0  0
 12 14  1  0  0  0  0
 13 11  1  0  0  0  0
 14  1  1  0  0  0  0
 14 13  2  0  0  0  0
 15 17  1  0  0  0  0
 16 15  2  0  0  0  0
 18 20  2  0  0  0  0
 18 21  1  0  0  0  0
 19 18  1  0  0  0  0
 21 30  1  0  0  0  0
 23 30  2  0  0  0  0
 23 28  1  0  0  0  0
 24 25  1  0  0  0  0
 24 32  1  0  0  0  0
 26 22  1  0  0  0  0
 26 25  2  0  0  0  0
 27 28  2  0  0  0  0
 27 29  1  0  0  0  0
 28 26  1  0  0  0  0
 29 24  2  0  0  0  0
 30 31  1  0  0  0  0
 31 22  2  0  0  0  0
 32 34  1  0  0  0  0
 33 32  2  0  0  0  0
M  END
>  <MODEL>
7

>  <REMARK>
 VINA RESULT:      -9.4      1.944      2.852
  Name = 
  5 active torsions:
  status: ('A' for Active; 'I' for Inactive)
    1  A    between atoms: C_1  and  N_9
    2  A    between atoms: C_3  and  C_25
    3  A    between atoms: C_7  and  C_11
    4  A    between atoms: C_8  and  C_18
    5  A    between atoms: C_18  and  C_30
                            x       y       z     vdW  Elec       q    Type
                         _______ _______ _______ _____ _____    ______ ____

>  <TORSDO>
F 5

$$$$
=
 OpenBabel11052415503D

 34 38  0  0  1  0  0  0  0  0999 V2000
  181.7630  178.8270  140.7430 C   0  0  2  0  0  3  0  0  0  0  0  0
  181.0790  177.8350  137.3270 C   0  0  0  0  0  3  0  0  0  0  0  0
  181.1980  180.4410  137.9390 S   0  0  0  0  0  0  0  0  0  0  0  0
  179.8410  180.5100  141.5240 N   0  0  0  0  0  0  0  0  0  0  0  0
  179.4470  180.3270  142.9080 C   0  0  0  0  0  1  0  0  0  0  0  0
  180.4540  180.6380  139.5330 C   0  0  0  0  0  0  0  0  0  0  0  0
  180.7790  179.9140  140.6920 C   0  0  0  0  0  0  0  0  0  0  0  0
  179.2270  181.4090  140.2870 S   0  0  0  0  0  0  0  0  0  0  0  0
  181.1760  176.3690  137.2950 C   0  0  0  0  0  3  0  0  0  0  0  0
  181.9990  175.5590  137.9710 C   0  0  0  0  0  0  0  0  0  0  0  0
  183.0500  176.0110  138.9030 C   0  0  0  0  0  3  0  0  0  0  0  0
  181.5010  178.6770  138.2680 C   0  0  1  0  0  3  0  0  0  0  0  0
  183.0910  177.1410  139.6040 C   0  0  0  0  0  3  0  0  0  0  0  0
  182.0930  178.2180  139.5750 C   0  0  0  0  0  0  0  0  0  0  0  0
  181.9110  174.1120  137.6970 C   0  0  0  0  0  0  0  0  0  0  0  0
  183.0180  173.4150  137.2210 O   0  0  0  0  0  0  0  0  0  0  0  0
  180.8330  173.4900  137.8880 O   0  0  0  0  0  1  0  0  0  0  0  0
  183.4120  178.9480  142.6710 C   0  0  0  0  0  0  0  0  0  0  0  0
  182.2990  178.3630  141.9910 N   0  0  0  0  0  2  0  0  0  0  0  0
  184.1830  179.7490  142.0780 O   0  0  0  0  0  0  0  0  0  0  0  0
  183.6640  178.6050  144.0990 C   0  0  0  0  0  2  0  0  0  0  0  0
  187.2210  177.5090  143.3860 C   0  0  0  0  0  3  0  0  0  0  0  0
  185.6460  178.2560  145.5850 C   0  0  0  0  0  3  0  0  0  0  0  0
  189.6630  177.1440  146.1490 C   0  0  0  0  0  0  0  0  0  0  0  0
  189.1080  177.1440  144.8620 C   0  0  0  0  0  3  0  0  0  0  0  0
  187.7740  177.5120  144.6690 C   0  0  0  0  0  0  0  0  0  0  0  0
  187.5330  177.8880  147.0590 C   0  0  0  0  0  3  0  0  0  0  0  0
  186.9810  177.8890  145.7760 C   0  0  0  0  0  0  0  0  0  0  0  0
  188.8680  177.5180  147.2450 C   0  0  0  0  0  3  0  0  0  0  0  0
  185.0980  178.2550  144.2970 C   0  0  0  0  0  0  0  0  0  0  0  0
  185.8840  177.8770  143.2010 C   0  0  0  0  0  3  0  0  0  0  0  0
  191.0680  176.7540  146.3450 C   0  0  0  0  0  0  0  0  0  0  0  0
  191.7410  176.2890  145.3860 O   0  0  0  0  0  0  0  0  0  0  0  0
  191.6680  176.8970  147.5910 O   0  0  0  0  0  1  0  0  0  0  0  0
  1 19  1  1  0  0  0
  3 12  1  0  0  0  0
  3  6  1  0  0  0  0
  4  5  1  0  0  0  0
  6  8  1  0  0  0  0
  6  7  2  0  0  0  0
  7  1  1  0  0  0  0
  7  4  1  0  0  0  0
  8  4  1  0  0  0  0
  9  2  2  0  0  0  0
  9 10  1  0  0  0  0
 10 11  2  0  0  0  0
 11 13  1  0  0  0  0
 12  2  1  1  0  0  0
 12 14  1  0  0  0  0
 14 13  2  0  0  0  0
 14  1  1  0  0  0  0
 15 17  1  0  0  0  0
 15 10  1  0  0  0  0
 16 15  2  0  0  0  0
 18 21  1  0  0  0  0
 19 18  1  0  0  0  0
 20 18  2  0  0  0  0
 21 30  1  0  0  0  0
 22 26  1  0  0  0  0
 23 28  1  0  0  0  0
 24 32  1  0  0  0  0
 24 29  1  0  0  0  0
 25 24  2  0  0  0  0
 26 25  1  0  0  0  0
 26 28  2  0  0  0  0
 27 29  2  0  0  0  0
 28 27  1  0  0  0  0
 30 23  2  0  0  0  0
 31 22  2  0  0  0  0
 31 30  1  0  0  0  0
 32 34  1  0  0  0  0
 33 32  2  0  0  0  0
M  END
>  <MODEL>
8

>  <REMARK>
 VINA RESULT:      -9.3      3.533      6.334
  Name = 
  5 active torsions:
  status: ('A' for Active; 'I' for Inactive)
    1  A    between atoms: C_1  and  N_9
    2  A    between atoms: C_3  and  C_25
    3  A    between atoms: C_7  and  C_11
    4  A    between atoms: C_8  and  C_18
    5  A    between atoms: C_18  and  C_30
                            x       y       z     vdW  Elec       q    Type
                         _______ _______ _______ _____ _____    ______ ____

>  <TORSDO>
F 5

$$$$
=
 OpenBabel11052415503D

 34 38  0  0  1  0  0  0  0  0999 V2000
  182.0450  177.4970  139.1960 C   0  0  2  0  0  3  0  0  0  0  0  0
  183.7080  176.8970  136.0340 C   0  0  0  0  0  3  0  0  0  0  0  0
  181.1220  177.5990  136.0450 S   0  0  0  0  0  0  0  0  0  0  0  0
  179.8430  175.9870  139.2800 N   0  0  0  0  0  0  0  0  0  0  0  0
  179.5740  175.4380  140.5950 C   0  0  0  0  0  1  0  0  0  0  0  0
  180.3660  176.7880  137.4250 C   0  0  0  0  0  0  0  0  0  0  0  0
  180.8210  176.8190  138.7530 C   0  0  0  0  0  0  0  0  0  0  0  0
  179.1810  175.7260  137.7940 S   0  0  0  0  0  0  0  0  0  0  0  0
  185.1180  176.6320  136.3530 C   0  0  0  0  0  3  0  0  0  0  0  0
  185.8850  177.1670  137.3100 C   0  0  0  0  0  0  0  0  0  0  0  0
  185.4480  178.2090  138.2580 C   0  0  0  0  0  3  0  0  0  0  0  0
  182.7650  177.4280  136.8090 C   0  0  1  0  0  3  0  0  0  0  0  0
  184.2130  178.4640  138.6810 C   0  0  0  0  0  3  0  0  0  0  0  0
  182.9900  177.7690  138.2590 C   0  0  0  0  0  0  0  0  0  0  0  0
  187.3000  176.7510  137.3630 C   0  0  0  0  0  0  0  0  0  0  0  0
  188.1020  177.1090  138.4420 O   0  0  0  0  0  1  0  0  0  0  0  0
  187.7990  176.0670  136.4300 O   0  0  0  0  0  0  0  0  0  0  0  0
  181.7780  178.9370  141.2710 C   0  0  0  0  0  0  0  0  0  0  0  0
  182.2780  177.7880  140.5820 N   0  0  0  0  0  2  0  0  0  0  0  0
  181.3270  179.9260  140.6340 O   0  0  0  0  0  0  0  0  0  0  0  0
  181.7930  178.9640  142.7610 C   0  0  0  0  0  2  0  0  0  0  0  0
  185.4860  178.1170  142.8380 C   0  0  0  0  0  3  0  0  0  0  0  0
  183.4360  178.7680  144.6380 C   0  0  0  0  0  3  0  0  0  0  0  0
  187.3080  177.9480  146.0600 C   0  0  0  0  0  0  0  0  0  0  0  0
  187.0390  177.8990  144.6860 C   0  0  0  0  0  3  0  0  0  0  0  0
  185.7540  178.1700  144.2080 C   0  0  0  0  0  0  0  0  0  0  0  0
  184.9880  178.5470  146.4850 C   0  0  0  0  0  3  0  0  0  0  0  0
  184.7210  178.4990  145.1140 C   0  0  0  0  0  0  0  0  0  0  0  0
  186.2760  178.2740  146.9550 C   0  0  0  0  0  3  0  0  0  0  0  0
  183.1740  178.7170  143.2640 C   0  0  0  0  0  0  0  0  0  0  0  0
  184.1980  178.3880  142.3670 C   0  0  0  0  0  3  0  0  0  0  0  0
  188.6630  177.6610  146.5560 C   0  0  0  0  0  0  0  0  0  0  0  0
  188.9490  177.8370  147.7710 O   0  0  0  0  0  1  0  0  0  0  0  0
  189.6410  177.1900  145.6890 O   0  0  0  0  0  0  0  0  0  0  0  0
  1 19  1  1  0  0  0
  2  9  2  0  0  0  0
  3 12  1  0  0  0  0
  3  6  1  0  0  0  0
  4  5  1  0  0  0  0
  6  8  1  0  0  0  0
  6  7  2  0  0  0  0
  7  1  1  0  0  0  0
  7  4  1  0  0  0  0
  8  4  1  0  0  0  0
  9 10  1  0  0  0  0
 10 15  1  0  0  0  0
 10 11  2  0  0  0  0
 11 13  1  0  0  0  0
 12  2  1  1  0  0  0
 12 14  1  0  0  0  0
 14 13  2  0  0  0  0
 14  1  1  0  0  0  0
 15 16  1  0  0  0  0
 17 15  2  0  0  0  0
 18 21  1  0  0  0  0
 19 18  1  0  0  0  0
 20 18  2  0  0  0  0
 21 30  1  0  0  0  0
 22 26  1  0  0  0  0
 23 28  1  0  0  0  0
 24 32  1  0  0  0  0
 24 29  1  0  0  0  0
 25 24  2  0  0  0  0
 26 25  1  0  0  0  0
 26 28  2  0  0  0  0
 27 29  2  0  0  0  0
 28 27  1  0  0  0  0
 30 23  2  0  0  0  0
 31 22  2  0  0  0  0
 31 30  1  0  0  0  0
 32 33  1  0  0  0  0
 34 32  2  0  0  0  0
M  END
>  <MODEL>
9

>  <REMARK>
 VINA RESULT:      -9.3      2.915      4.634
  Name = 
  5 active torsions:
  status: ('A' for Active; 'I' for Inactive)
    1  A    between atoms: C_1  and  N_9
    2  A    between atoms: C_3  and  C_25
    3  A    between atoms: C_7  and  C_11
    4  A    between atoms: C_8  and  C_18
    5  A    between atoms: C_18  and  C_30
                            x       y       z     vdW  Elec       q    Type
                         _______ _______ _______ _____ _____    ______ ____

>  <TORSDO>
F 5

$$$$
