=
 OpenBabel11052416473D

 32 37  0  0  1  0  0  0  0  0999 V2000
  185.2550  177.1460  137.6040 C   0  0  0  0  0  2  0  0  0  0  0  0
  188.6580  178.6300  141.3870 C   0  0  2  0  0  3  0  0  0  0  0  0
  185.4940  177.9930  145.1290 C   0  0  0  0  0  3  0  0  0  0  0  0
  186.5510  178.0260  146.0360 C   0  0  0  0  0  3  0  0  0  0  0  0
  190.4040  176.8350  142.0680 C   0  0  0  0  0  0  0  0  0  0  0  0
  190.9020  176.3410  143.3220 C   0  0  0  0  0  0  0  0  0  0  0  0
  187.7620  178.7210  139.1000 N   0  0  2  0  0  0  0  0  0  0  0  0
  186.1760  178.4850  140.9430 C   0  0  0  0  0  2  0  0  0  0  0  0
  191.6410  175.8940  145.9500 C   0  0  0  0  0  0  0  0  0  0  0  0
  185.3640  178.2870  138.6050 C   0  0  0  0  0  2  0  0  0  0  0  0
  185.7490  178.0660  143.7580 C   0  0  0  0  0  3  0  0  0  0  0  0
  187.3080  178.2880  141.8540 N   0  0  0  0  0  0  0  0  0  0  0  0
  187.0640  178.1660  143.2740 C   0  0  0  0  0  0  0  0  0  0  0  0
  189.5750  178.2770  143.7300 C   0  0  2  0  0  3  0  0  0  0  0  0
  192.0980  175.0330  144.9330 C   0  0  0  0  0  3  0  0  0  0  0  0
  187.7280  177.1230  137.1410 C   0  0  0  0  0  2  0  0  0  0  0  0
  186.5390  178.0260  139.5380 C   0  0  1  0  0  3  0  0  0  0  0  0
  191.7310  175.2550  143.5950 C   0  0  0  0  0  3  0  0  0  0  0  0
  188.1340  178.4910  137.6940 C   0  0  0  0  0  2  0  0  0  0  0  0
  186.3340  177.2180  136.5210 C   0  0  1  0  0  3  0  0  0  0  0  0
  187.8650  178.1170  145.5730 C   0  0  0  0  0  3  0  0  0  0  0  0
  188.1400  178.1620  144.1990 C   0  0  0  0  0  0  0  0  0  0  0  0
  190.8090  176.9830  145.6400 C   0  0  0  0  0  3  0  0  0  0  0  0
  188.8660  178.2350  139.9220 C   0  0  0  0  0  2  0  0  0  0  0  0
  190.5980  176.2950  140.9470 O   0  0  0  0  0  0  0  0  0  0  0  0
  192.1150  175.6080  147.6100 Cl  0  0  0  0  0  0  0  0  0  0  0  0
  189.6530  178.0360  142.2810 N   0  0  0  0  0  0  0  0  0  0  0  0
  190.4400  177.1820  144.3070 C   0  0  0  0  0  0  0  0  0  0  0  0
  187.3660  175.6170  135.0620 O   0  0  0  0  0  1  0  0  0  0  0  0
  186.1290  176.1000  135.4990 C   0  0  1  0  0  3  0  0  0  0  0  0
  185.3380  174.9530  136.1120 C   0  0  0  0  0  2  0  0  0  0  0  0
  186.2330  173.7460  136.3150 C   0  0  0  0  0  1  0  0  0  0  0  0
  1 10  1  0  0  0  0
  2 24  1  6  0  0  0
  2 12  1  0  0  0  0
  2 27  1  0  0  0  0
  3  4  1  0  0  0  0
  5 27  1  0  0  0  0
  5  6  1  0  0  0  0
  6 18  2  0  0  0  0
  6 28  1  0  0  0  0
  7 19  1  6  0  0  0
  7 17  1  0  0  0  0
  7 24  1  0  0  0  0
  8 12  1  0  0  0  0
  9 26  1  0  0  0  0
 11  3  2  0  0  0  0
 12 13  1  0  0  0  0
 13 11  1  0  0  0  0
 13 22  2  0  0  0  0
 14 22  1  1  0  0  0
 14 28  1  0  0  0  0
 15  9  2  0  0  0  0
 16 19  1  0  0  0  0
 17 10  1  6  0  0  0
 17  8  1  0  0  0  0
 18 15  1  0  0  0  0
 20 30  1  6  0  0  0
 20 16  1  0  0  0  0
 20  1  1  0  0  0  0
 21  4  2  0  0  0  0
 22 21  1  0  0  0  0
 23  9  1  0  0  0  0
 25  5  2  0  0  0  0
 27 14  1  0  0  0  0
 28 23  2  0  0  0  0
 30 29  1  1  0  0  0
 30 31  1  0  0  0  0
 31 32  1  0  0  0  0
M  END
>  <MODEL>
1

>  <REMARK>
 VINA RESULT:      -9.0      0.000      0.000
  Name = 
  2 active torsions:
  status: ('A' for Active; 'I' for Inactive)
    1  A    between atoms: C_1  and  C_20
    2  A    between atoms: C_20  and  C_24
                            x       y       z     vdW  Elec       q    Type
                         _______ _______ _______ _____ _____    ______ ____

>  <TORSDO>
F 2

$$$$
=
 OpenBabel11052416473D

 32 37  0  0  1  0  0  0  0  0999 V2000
  191.6190  174.0270  135.7610 C   0  0  0  0  0  2  0  0  0  0  0  0
  189.8500  177.7590  139.0820 C   0  0  2  0  0  3  0  0  0  0  0  0
  185.1860  177.6510  137.4530 C   0  0  0  0  0  3  0  0  0  0  0  0
  184.7660  178.3350  138.5930 C   0  0  0  0  0  3  0  0  0  0  0  0
  189.4120  176.9570  141.5120 C   0  0  0  0  0  0  0  0  0  0  0  0
  188.3440  177.1400  142.4540 C   0  0  0  0  0  0  0  0  0  0  0  0
  191.5950  176.7170  137.7010 N   0  0  2  0  0  0  0  0  0  0  0  0
  189.3090  176.7240  136.8430 C   0  0  0  0  0  2  0  0  0  0  0  0
  186.1440  177.9500  143.9230 C   0  0  0  0  0  0  0  0  0  0  0  0
  191.0560  175.4350  135.6390 C   0  0  0  0  0  2  0  0  0  0  0  0
  186.5240  177.2800  137.3170 C   0  0  0  0  0  3  0  0  0  0  0  0
  188.8530  177.2290  138.1420 N   0  0  0  0  0  0  0  0  0  0  0  0
  187.4620  177.5800  138.3190 C   0  0  0  0  0  0  0  0  0  0  0  0
  187.9940  178.5970  140.6010 C   0  0  2  0  0  3  0  0  0  0  0  0
  186.9990  176.9510  144.4270 C   0  0  0  0  0  3  0  0  0  0  0  0
  192.9260  174.5720  137.8400 C   0  0  0  0  0  2  0  0  0  0  0  0
  190.5800  175.9050  137.0080 C   0  0  1  0  0  3  0  0  0  0  0  0
  188.1210  176.5370  143.6890 C   0  0  0  0  0  3  0  0  0  0  0  0
  192.9310  176.1010  137.7800 C   0  0  0  0  0  2  0  0  0  0  0  0
  193.0000  174.0080  136.4210 C   0  0  1  0  0  3  0  0  0  0  0  0
  185.6810  178.6340  139.6040 C   0  0  0  0  0  3  0  0  0  0  0  0
  187.0230  178.2430  139.4950 C   0  0  0  0  0  0  0  0  0  0  0  0
  186.3990  178.5430  142.6750 C   0  0  0  0  0  3  0  0  0  0  0  0
  191.1360  176.9260  139.0700 C   0  0  0  0  0  2  0  0  0  0  0  0
  190.3480  176.1230  141.6290 O   0  0  0  0  0  0  0  0  0  0  0  0
  184.7560  178.4600  144.8590 Cl  0  0  0  0  0  0  0  0  0  0  0  0
  189.2580  177.8680  140.4160 N   0  0  0  0  0  0  0  0  0  0  0  0
  187.5100  178.1100  141.9460 C   0  0  0  0  0  0  0  0  0  0  0  0
  192.7530  171.7450  135.6610 O   0  0  0  0  0  1  0  0  0  0  0  0
  193.5530  172.5830  136.4440 C   0  0  1  0  0  3  0  0  0  0  0  0
  194.9770  172.5530  135.9070 C   0  0  0  0  0  2  0  0  0  0  0  0
  195.2620  173.8080  135.1030 C   0  0  0  0  0  1  0  0  0  0  0  0
  1 20  1  0  0  0  0
  2 24  1  1  0  0  0
  2 27  1  0  0  0  0
  3  4  1  0  0  0  0
  4 21  2  0  0  0  0
  5 25  2  0  0  0  0
  5  6  1  0  0  0  0
  6 18  1  0  0  0  0
  7 19  1  1  0  0  0
  7 24  1  0  0  0  0
  8 17  1  0  0  0  0
  8 12  1  0  0  0  0
  9 15  1  0  0  0  0
  9 26  1  0  0  0  0
 10  1  1  0  0  0  0
 11  3  2  0  0  0  0
 11 13  1  0  0  0  0
 12 13  1  0  0  0  0
 12  2  1  0  0  0  0
 13 22  2  0  0  0  0
 14 22  1  6  0  0  0
 14 28  1  0  0  0  0
 17 10  1  6  0  0  0
 17  7  1  0  0  0  0
 18 15  2  0  0  0  0
 19 16  1  0  0  0  0
 20 30  1  1  0  0  0
 20 16  1  0  0  0  0
 22 21  1  0  0  0  0
 23  9  2  0  0  0  0
 27 14  1  0  0  0  0
 27  5  1  0  0  0  0
 28  6  2  0  0  0  0
 28 23  1  0  0  0  0
 30 29  1  6  0  0  0
 31 30  1  0  0  0  0
 32 31  1  0  0  0  0
M  END
>  <MODEL>
2

>  <REMARK>
 VINA RESULT:      -8.4      4.037      5.861
  Name = 
  2 active torsions:
  status: ('A' for Active; 'I' for Inactive)
    1  A    between atoms: C_1  and  C_20
    2  A    between atoms: C_20  and  C_24
                            x       y       z     vdW  Elec       q    Type
                         _______ _______ _______ _____ _____    ______ ____

>  <TORSDO>
F 2

$$$$
=
 OpenBabel11052416473D

 32 37  0  0  1  0  0  0  0  0999 V2000
  182.4850  177.4500  139.5860 C   0  0  0  0  0  2  0  0  0  0  0  0
  186.8950  178.9480  142.1190 C   0  0  2  0  0  3  0  0  0  0  0  0
  185.1880  177.9460  146.6460 C   0  0  0  0  0  3  0  0  0  0  0  0
  186.4860  177.9970  147.1530 C   0  0  0  0  0  3  0  0  0  0  0  0
  188.8370  177.2270  142.0650 C   0  0  0  0  0  0  0  0  0  0  0  0
  189.7440  176.7030  143.0490 C   0  0  0  0  0  0  0  0  0  0  0  0
  185.2840  179.0960  140.2680 N   0  0  2  0  0  0  0  0  0  0  0  0
  184.4150  178.6780  142.5120 C   0  0  0  0  0  2  0  0  0  0  0  0
  191.3340  176.1740  145.2490 C   0  0  0  0  0  0  0  0  0  0  0  0
  182.8770  178.5460  140.5670 C   0  0  0  0  0  2  0  0  0  0  0  0
  184.9680  178.1000  145.2770 C   0  0  0  0  0  3  0  0  0  0  0  0
  185.7920  178.5040  142.9820 N   0  0  0  0  0  0  0  0  0  0  0  0
  186.0410  178.3000  144.3920 C   0  0  0  0  0  0  0  0  0  0  0  0
  188.5540  178.5360  143.9980 C   0  0  2  0  0  3  0  0  0  0  0  0
  191.4590  175.3920  144.0850 C   0  0  0  0  0  3  0  0  0  0  0  0
  184.6610  177.5950  138.3310 C   0  0  0  0  0  2  0  0  0  0  0  0
  184.3050  178.3100  141.0390 C   0  0  1  0  0  3  0  0  0  0  0  0
  190.6580  175.6560  142.9610 C   0  0  0  0  0  3  0  0  0  0  0  0
  185.1740  178.9560  138.8060 C   0  0  0  0  0  2  0  0  0  0  0  0
  183.1370  177.6380  138.2150 C   0  0  1  0  0  3  0  0  0  0  0  0
  187.5650  178.1870  146.2890 C   0  0  0  0  0  3  0  0  0  0  0  0
  187.3630  178.3150  144.9060 C   0  0  0  0  0  0  0  0  0  0  0  0
  190.4050  177.2260  145.3040 C   0  0  0  0  0  3  0  0  0  0  0  0
  186.6160  178.6360  140.6440 C   0  0  0  0  0  2  0  0  0  0  0  0
  188.6670  176.7540  140.9100 O   0  0  0  0  0  0  0  0  0  0  0  0
  192.3460  175.8370  146.6370 Cl  0  0  0  0  0  0  0  0  0  0  0  0
  188.1530  178.3710  142.5920 N   0  0  0  0  0  0  0  0  0  0  0  0
  189.6040  177.4680  144.1840 C   0  0  0  0  0  0  0  0  0  0  0  0
  183.5520  176.4160  136.1910 O   0  0  0  0  0  1  0  0  0  0  0  0
  182.6470  176.5600  137.2480 C   0  0  1  0  0  3  0  0  0  0  0  0
  182.5030  175.2240  137.9630 C   0  0  0  0  0  2  0  0  0  0  0  0
  183.4050  174.1850  137.3240 C   0  0  0  0  0  1  0  0  0  0  0  0
  1 10  1  0  0  0  0
  2 24  1  6  0  0  0
  2 27  1  0  0  0  0
  2 12  1  0  0  0  0
  3  4  1  0  0  0  0
  5 27  1  0  0  0  0
  5  6  1  0  0  0  0
  6 28  1  0  0  0  0
  7 19  1  6  0  0  0
  7 24  1  0  0  0  0
  7 17  1  0  0  0  0
  8 12  1  0  0  0  0
  9 23  1  0  0  0  0
  9 26  1  0  0  0  0
 11  3  2  0  0  0  0
 12 13  1  0  0  0  0
 13 22  2  0  0  0  0
 13 11  1  0  0  0  0
 14 28  1  1  0  0  0
 14 22  1  0  0  0  0
 15  9  2  0  0  0  0
 16 19  1  0  0  0  0
 17 10  1  6  0  0  0
 17  8  1  0  0  0  0
 18  6  2  0  0  0  0
 18 15  1  0  0  0  0
 20 30  1  6  0  0  0
 20 16  1  0  0  0  0
 20  1  1  0  0  0  0
 21  4  2  0  0  0  0
 22 21  1  0  0  0  0
 25  5  2  0  0  0  0
 27 14  1  0  0  0  0
 28 23  2  0  0  0  0
 30 29  1  6  0  0  0
 30 31  1  0  0  0  0
 32 31  1  0  0  0  0
M  END
>  <MODEL>
3

>  <REMARK>
 VINA RESULT:      -8.1      1.858      2.310
  Name = 
  2 active torsions:
  status: ('A' for Active; 'I' for Inactive)
    1  A    between atoms: C_1  and  C_20
    2  A    between atoms: C_20  and  C_24
                            x       y       z     vdW  Elec       q    Type
                         _______ _______ _______ _____ _____    ______ ____

>  <TORSDO>
F 2

$$$$
=
 OpenBabel11052416473D

 32 37  0  0  1  0  0  0  0  0999 V2000
  182.9590  178.2110  141.9370 C   0  0  0  0  0  2  0  0  0  0  0  0
  187.6450  178.6260  139.4950 C   0  0  2  0  0  3  0  0  0  0  0  0
  190.3300  177.2780  143.4180 C   0  0  0  0  0  3  0  0  0  0  0  0
  191.4320  177.0530  142.5940 C   0  0  0  0  0  3  0  0  0  0  0  0
  188.2540  176.6460  137.9310 C   0  0  0  0  0  0  0  0  0  0  0  0
  189.4340  175.8530  137.7250 C   0  0  0  0  0  0  0  0  0  0  0  0
  185.3040  179.2840  139.8500 N   0  0  2  0  0  0  0  0  0  0  0  0
  186.6390  178.6970  141.8100 C   0  0  0  0  0  2  0  0  0  0  0  0
  191.9790  174.7770  137.5970 C   0  0  0  0  0  0  0  0  0  0  0  0
  184.2000  179.0830  142.0690 C   0  0  0  0  0  2  0  0  0  0  0  0
  189.1080  177.6560  142.8600 C   0  0  0  0  0  3  0  0  0  0  0  0
  187.7050  178.2440  140.9120 N   0  0  0  0  0  0  0  0  0  0  0  0
  188.9660  177.8070  141.4710 C   0  0  0  0  0  0  0  0  0  0  0  0
  189.9820  177.6980  139.1290 C   0  0  2  0  0  3  0  0  0  0  0  0
  190.9160  174.1560  136.9130 C   0  0  0  0  0  3  0  0  0  0  0  0
  183.0660  178.1870  139.4240 C   0  0  0  0  0  2  0  0  0  0  0  0
  185.2820  178.5610  141.1340 C   0  0  1  0  0  3  0  0  0  0  0  0
  189.6210  174.6980  136.9690 C   0  0  0  0  0  3  0  0  0  0  0  0
  184.0020  179.3700  139.1670 C   0  0  0  0  0  2  0  0  0  0  0  0
  182.1920  178.4850  140.6420 C   0  0  1  0  0  3  0  0  0  0  0  0
  191.3070  177.1910  141.2110 C   0  0  0  0  0  3  0  0  0  0  0  0
  190.0790  177.5410  140.6320 C   0  0  0  0  0  0  0  0  0  0  0  0
  191.7580  175.9430  138.3470 C   0  0  0  0  0  3  0  0  0  0  0  0
  186.2110  178.5720  138.9570 C   0  0  0  0  0  2  0  0  0  0  0  0
  187.1090  176.3720  137.4820 O   0  0  0  0  0  0  0  0  0  0  0  0
  193.5880  174.0930  137.5090 Cl  0  0  0  0  0  0  0  0  0  0  0  0
  188.5720  177.7970  138.7230 N   0  0  0  0  0  0  0  0  0  0  0  0
  190.4620  176.4620  138.4070 C   0  0  0  0  0  0  0  0  0  0  0  0
  179.7970  178.4750  140.4820 O   0  0  0  0  0  1  0  0  0  0  0  0
  180.9160  177.6440  140.5990 C   0  0  1  0  0  3  0  0  0  0  0  0
  180.9470  176.6850  139.4170 C   0  0  0  0  0  2  0  0  0  0  0  0
  180.4550  175.3140  139.8410 C   0  0  0  0  0  1  0  0  0  0  0  0
  1 10  1  0  0  0  0
  2 24  1  6  0  0  0
  2 12  1  0  0  0  0
  4  3  2  0  0  0  0
  5 27  1  0  0  0  0
  6  5  1  0  0  0  0
  6 28  1  0  0  0  0
  7 24  1  6  0  0  0
  7 17  1  0  0  0  0
  9 23  1  0  0  0  0
 11  3  1  0  0  0  0
 12 13  1  0  0  0  0
 12  8  1  0  0  0  0
 13 11  2  0  0  0  0
 14 28  1  6  0  0  0
 14 22  1  0  0  0  0
 15 18  1  0  0  0  0
 15  9  2  0  0  0  0
 16 20  1  0  0  0  0
 17  8  1  1  0  0  0
 17 10  1  0  0  0  0
 18  6  2  0  0  0  0
 19 16  1  0  0  0  0
 19  7  1  0  0  0  0
 20 30  1  6  0  0  0
 20  1  1  0  0  0  0
 21  4  1  0  0  0  0
 22 21  2  0  0  0  0
 22 13  1  0  0  0  0
 23 28  2  0  0  0  0
 25  5  2  0  0  0  0
 26  9  1  0  0  0  0
 27 14  1  0  0  0  0
 27  2  1  0  0  0  0
 30 29  1  6  0  0  0
 31 32  1  0  0  0  0
 31 30  1  0  0  0  0
M  END
>  <MODEL>
4

>  <REMARK>
 VINA RESULT:      -8.1      3.676      5.620
  Name = 
  2 active torsions:
  status: ('A' for Active; 'I' for Inactive)
    1  A    between atoms: C_1  and  C_20
    2  A    between atoms: C_20  and  C_24
                            x       y       z     vdW  Elec       q    Type
                         _______ _______ _______ _____ _____    ______ ____

>  <TORSDO>
F 2

$$$$
=
 OpenBabel11052416473D

 32 37  0  0  1  0  0  0  0  0999 V2000
  187.7770  175.3730  135.4030 C   0  0  0  0  0  2  0  0  0  0  0  0
  186.9610  178.6480  139.4900 C   0  0  2  0  0  3  0  0  0  0  0  0
  182.1510  177.6130  139.9560 C   0  0  0  0  0  3  0  0  0  0  0  0
  182.1440  178.1900  141.2240 C   0  0  0  0  0  3  0  0  0  0  0  0
  187.7560  177.7570  141.7940 C   0  0  0  0  0  0  0  0  0  0  0  0
  187.1800  177.7140  143.1090 C   0  0  0  0  0  0  0  0  0  0  0  0
  188.1030  177.9890  137.4160 N   0  0  2  0  0  0  0  0  0  0  0  0
  185.7090  177.5410  137.5960 C   0  0  0  0  0  2  0  0  0  0  0  0
  185.7130  178.0520  145.4310 C   0  0  0  0  0  0  0  0  0  0  0  0
  186.9740  176.6400  135.6590 C   0  0  0  0  0  2  0  0  0  0  0  0
  183.3450  177.5200  139.2390 C   0  0  0  0  0  3  0  0  0  0  0  0
  185.7710  177.9350  139.0070 N   0  0  0  0  0  0  0  0  0  0  0  0
  184.5510  177.9960  139.7810 C   0  0  0  0  0  0  0  0  0  0  0  0
  185.8160  179.0830  141.7160 C   0  0  2  0  0  3  0  0  0  0  0  0
  186.8660  177.2430  145.4360 C   0  0  0  0  0  3  0  0  0  0  0  0
  189.7270  176.1560  136.7870 C   0  0  0  0  0  2  0  0  0  0  0  0
  187.0530  176.9940  137.1380 C   0  0  1  0  0  3  0  0  0  0  0  0
  187.6190  177.0690  144.2630 C   0  0  0  0  0  3  0  0  0  0  0  0
  189.4310  177.6550  136.8730 C   0  0  0  0  0  2  0  0  0  0  0  0
  189.2860  175.6280  135.4220 C   0  0  1  0  0  3  0  0  0  0  0  0
  183.3330  178.6600  141.7830 C   0  0  0  0  0  3  0  0  0  0  0  0
  184.5460  178.5480  141.0880 C   0  0  0  0  0  0  0  0  0  0  0  0
  185.3000  178.6930  144.2510 C   0  0  0  0  0  3  0  0  0  0  0  0
  188.2440  178.0910  138.8640 C   0  0  0  0  0  2  0  0  0  0  0  0
  188.7850  177.1270  141.4320 O   0  0  0  0  0  0  0  0  0  0  0  0
  184.7930  178.2650  146.9040 Cl  0  0  0  0  0  0  0  0  0  0  0  0
  186.9870  178.6250  140.9530 N   0  0  0  0  0  0  0  0  0  0  0  0
  186.0490  178.4980  143.0880 C   0  0  0  0  0  0  0  0  0  0  0  0
  191.3780  174.4540  135.4730 O   0  0  0  0  0  1  0  0  0  0  0  0
  190.0410  174.3440  135.0790 C   0  0  1  0  0  3  0  0  0  0  0  0
  189.4130  173.1500  135.7830 C   0  0  0  0  0  2  0  0  0  0  0  0
  189.3210  171.9700  134.8350 C   0  0  0  0  0  1  0  0  0  0  0  0
  1 20  1  0  0  0  0
  1 10  1  0  0  0  0
  2 24  1  6  0  0  0
  2 27  1  0  0  0  0
  3  4  1  0  0  0  0
  4 21  2  0  0  0  0
  5  6  1  0  0  0  0
  6 18  1  0  0  0  0
  7 19  1  6  0  0  0
  7 24  1  0  0  0  0
  8 12  1  0  0  0  0
  9 15  1  0  0  0  0
  9 26  1  0  0  0  0
 11 13  1  0  0  0  0
 11  3  2  0  0  0  0
 12  2  1  0  0  0  0
 12 13  1  0  0  0  0
 13 22  2  0  0  0  0
 14 22  1  6  0  0  0
 14 28  1  0  0  0  0
 16 19  1  0  0  0  0
 17 10  1  6  0  0  0
 17  7  1  0  0  0  0
 17  8  1  0  0  0  0
 18 15  2  0  0  0  0
 20 30  1  1  0  0  0
 20 16  1  0  0  0  0
 22 21  1  0  0  0  0
 23  9  2  0  0  0  0
 25  5  2  0  0  0  0
 27 14  1  0  0  0  0
 27  5  1  0  0  0  0
 28  6  2  0  0  0  0
 28 23  1  0  0  0  0
 30 29  1  1  0  0  0
 30 31  1  0  0  0  0
 32 31  1  0  0  0  0
M  END
>  <MODEL>
5

>  <REMARK>
 VINA RESULT:      -7.9      2.717      4.377
  Name = 
  2 active torsions:
  status: ('A' for Active; 'I' for Inactive)
    1  A    between atoms: C_1  and  C_20
    2  A    between atoms: C_20  and  C_24
                            x       y       z     vdW  Elec       q    Type
                         _______ _______ _______ _____ _____    ______ ____

>  <TORSDO>
F 2

$$$$
=
 OpenBabel11052416473D

 32 37  0  0  1  0  0  0  0  0999 V2000
  184.7440  175.8780  136.0990 C   0  0  0  0  0  2  0  0  0  0  0  0
  185.6110  179.0030  140.2920 C   0  0  2  0  0  3  0  0  0  0  0  0
  181.1500  178.3180  142.3060 C   0  0  0  0  0  3  0  0  0  0  0  0
  181.6120  178.8320  143.5160 C   0  0  0  0  0  3  0  0  0  0  0  0
  187.0370  177.9430  142.1830 C   0  0  0  0  0  0  0  0  0  0  0  0
  186.9240  177.8800  143.6130 C   0  0  0  0  0  0  0  0  0  0  0  0
  185.9450  178.3600  137.9430 N   0  0  2  0  0  0  0  0  0  0  0  0
  183.7130  178.0890  138.8980 C   0  0  0  0  0  2  0  0  0  0  0  0
  186.3390  178.2170  146.2960 C   0  0  0  0  0  0  0  0  0  0  0  0
  184.1850  177.1880  136.6330 C   0  0  0  0  0  2  0  0  0  0  0  0
  182.0290  178.1690  141.2310 C   0  0  0  0  0  3  0  0  0  0  0  0
  184.2700  178.4070  140.2170 N   0  0  0  0  0  0  0  0  0  0  0  0
  183.3830  178.5240  141.3530 C   0  0  0  0  0  0  0  0  0  0  0  0
  185.3050  179.4160  142.7800 C   0  0  2  0  0  3  0  0  0  0  0  0
  187.3530  177.3220  145.9030 C   0  0  0  0  0  3  0  0  0  0  0  0
  187.1020  176.4400  136.7740 C   0  0  0  0  0  2  0  0  0  0  0  0
  184.7780  177.4630  138.0090 C   0  0  1  0  0  3  0  0  0  0  0  0
  187.6600  177.1480  144.5430 C   0  0  0  0  0  3  0  0  0  0  0  0
  186.9850  177.9520  136.9840 C   0  0  0  0  0  2  0  0  0  0  0  0
  186.1920  176.0150  135.6210 C   0  0  1  0  0  3  0  0  0  0  0  0
  182.9560  179.1820  143.6590 C   0  0  0  0  0  3  0  0  0  0  0  0
  183.8580  179.0110  142.5980 C   0  0  0  0  0  0  0  0  0  0  0  0
  185.6190  178.9440  145.3340 C   0  0  0  0  0  3  0  0  0  0  0  0
  186.5620  178.3810  139.2650 C   0  0  0  0  0  2  0  0  0  0  0  0
  187.8310  177.2540  141.4870 O   0  0  0  0  0  0  0  0  0  0  0  0
  185.9770  178.4280  147.9950 Cl  0  0  0  0  0  0  0  0  0  0  0  0
  186.1150  178.9070  141.6620 N   0  0  0  0  0  0  0  0  0  0  0  0
  185.9240  178.7490  143.9840 C   0  0  0  0  0  0  0  0  0  0  0  0
  188.0720  174.6370  135.0510 O   0  0  0  0  0  1  0  0  0  0  0  0
  186.6760  174.6950  135.0210 C   0  0  1  0  0  3  0  0  0  0  0  0
  186.1130  173.5150  135.8010 C   0  0  0  0  0  2  0  0  0  0  0  0
  187.2260  172.7940  136.5380 C   0  0  0  0  0  1  0  0  0  0  0  0
  1 10  1  0  0  0  0
  2 24  1  6  0  0  0
  2 27  1  0  0  0  0
  3  4  1  0  0  0  0
  4 21  2  0  0  0  0
  5  6  1  0  0  0  0
  6 28  2  0  0  0  0
  6 18  1  0  0  0  0
  7 19  1  6  0  0  0
  7 17  1  0  0  0  0
  7 24  1  0  0  0  0
  8 12  1  0  0  0  0
  9 26  1  0  0  0  0
 11 13  1  0  0  0  0
 11  3  2  0  0  0  0
 12  2  1  0  0  0  0
 12 13  1  0  0  0  0
 13 22  2  0  0  0  0
 14 22  1  6  0  0  0
 14 28  1  0  0  0  0
 15  9  1  0  0  0  0
 16 19  1  0  0  0  0
 17 10  1  6  0  0  0
 17  8  1  0  0  0  0
 18 15  2  0  0  0  0
 20 30  1  1  0  0  0
 20  1  1  0  0  0  0
 20 16  1  0  0  0  0
 22 21  1  0  0  0  0
 23  9  2  0  0  0  0
 25  5  2  0  0  0  0
 27  5  1  0  0  0  0
 27 14  1  0  0  0  0
 28 23  1  0  0  0  0
 30 29  1  1  0  0  0
 30 31  1  0  0  0  0
 31 32  1  0  0  0  0
M  END
>  <MODEL>
6

>  <REMARK>
 VINA RESULT:      -7.8      2.584      3.861
  Name = 
  2 active torsions:
  status: ('A' for Active; 'I' for Inactive)
    1  A    between atoms: C_1  and  C_20
    2  A    between atoms: C_20  and  C_24
                            x       y       z     vdW  Elec       q    Type
                         _______ _______ _______ _____ _____    ______ ____

>  <TORSDO>
F 2

$$$$
=
 OpenBabel11052416473D

 32 37  0  0  1  0  0  0  0  0999 V2000
  189.0110  175.3000  136.6320 C   0  0  0  0  0  2  0  0  0  0  0  0
  185.0660  178.3730  138.3900 C   0  0  2  0  0  3  0  0  0  0  0  0
  181.5870  174.8780  138.0800 C   0  0  0  0  0  3  0  0  0  0  0  0
  180.7440  175.6360  138.8900 C   0  0  0  0  0  3  0  0  0  0  0  0
  185.0060  178.7280  140.9600 C   0  0  0  0  0  0  0  0  0  0  0  0
  183.9720  178.6880  141.9570 C   0  0  0  0  0  0  0  0  0  0  0  0
  187.1930  178.0130  137.2120 N   0  0  2  0  0  0  0  0  0  0  0  0
  185.4560  176.3120  136.9830 C   0  0  0  0  0  2  0  0  0  0  0  0
  181.6200  178.6740  143.4140 C   0  0  0  0  0  0  0  0  0  0  0  0
  187.7200  175.8710  136.0640 C   0  0  0  0  0  2  0  0  0  0  0  0
  182.8810  175.3250  137.8070 C   0  0  0  0  0  3  0  0  0  0  0  0
  184.6810  177.0050  138.0160 N   0  0  0  0  0  0  0  0  0  0  0  0
  183.3540  176.5330  138.3460 C   0  0  0  0  0  0  0  0  0  0  0  0
  182.9650  178.5970  139.8000 C   0  0  2  0  0  3  0  0  0  0  0  0
  182.8610  178.7250  144.0780 C   0  0  0  0  0  3  0  0  0  0  0  0
  189.5370  177.3910  137.9280 C   0  0  0  0  0  2  0  0  0  0  0  0
  186.9450  176.5610  137.1780 C   0  0  1  0  0  3  0  0  0  0  0  0
  184.0600  178.7370  143.3460 C   0  0  0  0  0  3  0  0  0  0  0  0
  188.6150  178.3960  137.2330 C   0  0  0  0  0  2  0  0  0  0  0  0
  190.0570  176.3840  136.9020 C   0  0  1  0  0  3  0  0  0  0  0  0
  181.2000  176.8350  139.4410 C   0  0  0  0  0  3  0  0  0  0  0  0
  182.5070  177.2840  139.2010 C   0  0  0  0  0  0  0  0  0  0  0  0
  181.5660  178.6300  142.0110 C   0  0  0  0  0  3  0  0  0  0  0  0
  186.5890  178.5370  138.4320 C   0  0  0  0  0  2  0  0  0  0  0  0
  186.2420  178.7550  141.1980 O   0  0  0  0  0  0  0  0  0  0  0  0
  180.1360  178.6680  144.3410 Cl  0  0  0  0  0  0  0  0  0  0  0  0
  184.4220  178.7380  139.6520 N   0  0  0  0  0  0  0  0  0  0  0  0
  182.7670  178.6260  141.2960 C   0  0  0  0  0  0  0  0  0  0  0  0
  191.0980  174.5030  137.9690 O   0  0  0  0  0  1  0  0  0  0  0  0
  191.3580  175.7500  137.3920 C   0  0  1  0  0  3  0  0  0  0  0  0
  192.3340  175.5680  136.2370 C   0  0  0  0  0  2  0  0  0  0  0  0
  193.6950  176.1270  136.6060 C   0  0  0  0  0  1  0  0  0  0  0  0
  1 20  1  0  0  0  0
  2 24  1  1  0  0  0
  2 27  1  0  0  0  0
  3  4  1  0  0  0  0
  4 21  2  0  0  0  0
  5 25  2  0  0  0  0
  5  6  1  0  0  0  0
  6 18  1  0  0  0  0
  7 19  1  1  0  0  0
  7 24  1  0  0  0  0
  8 17  1  0  0  0  0
  8 12  1  0  0  0  0
  9 15  1  0  0  0  0
  9 26  1  0  0  0  0
 10  1  1  0  0  0  0
 11  3  2  0  0  0  0
 11 13  1  0  0  0  0
 12 13  1  0  0  0  0
 12  2  1  0  0  0  0
 13 22  2  0  0  0  0
 14 22  1  1  0  0  0
 14 28  1  0  0  0  0
 17 10  1  6  0  0  0
 17  7  1  0  0  0  0
 18 15  2  0  0  0  0
 19 16  1  0  0  0  0
 20 30  1  1  0  0  0
 20 16  1  0  0  0  0
 22 21  1  0  0  0  0
 23  9  2  0  0  0  0
 27 14  1  0  0  0  0
 27  5  1  0  0  0  0
 28  6  2  0  0  0  0
 28 23  1  0  0  0  0
 30 29  1  6  0  0  0
 31 32  1  0  0  0  0
 31 30  1  0  0  0  0
M  END
>  <MODEL>
7

>  <REMARK>
 VINA RESULT:      -7.7      4.672      6.923
  Name = 
  2 active torsions:
  status: ('A' for Active; 'I' for Inactive)
    1  A    between atoms: C_1  and  C_20
    2  A    between atoms: C_20  and  C_24
                            x       y       z     vdW  Elec       q    Type
                         _______ _______ _______ _____ _____    ______ ____

>  <TORSDO>
F 2

$$$$
=
 OpenBabel11052416473D

 32 37  0  0  1  0  0  0  0  0999 V2000
  182.4400  181.0790  138.3480 C   0  0  0  0  0  2  0  0  0  0  0  0
  184.2930  177.8280  142.1020 C   0  0  2  0  0  3  0  0  0  0  0  0
  189.0540  178.4370  140.9300 C   0  0  0  0  0  3  0  0  0  0  0  0
  189.4320  177.8880  142.1540 C   0  0  0  0  0  3  0  0  0  0  0  0
  184.3680  178.8320  144.4930 C   0  0  0  0  0  0  0  0  0  0  0  0
  185.3450  178.8500  145.5460 C   0  0  0  0  0  0  0  0  0  0  0  0
  182.5890  178.5440  140.4810 N   0  0  2  0  0  0  0  0  0  0  0  0
  184.9370  178.7790  139.8530 C   0  0  0  0  0  2  0  0  0  0  0  0
  187.4590  178.4290  147.2800 C   0  0  0  0  0  0  0  0  0  0  0  0
  183.1820  179.7510  138.3900 C   0  0  0  0  0  2  0  0  0  0  0  0
  187.7020  178.6220  140.6360 C   0  0  0  0  0  3  0  0  0  0  0  0
  185.3100  178.4220  141.2250 N   0  0  0  0  0  0  0  0  0  0  0  0
  186.7080  178.2670  141.5630 C   0  0  0  0  0  0  0  0  0  0  0  0
  186.0650  177.3360  143.8540 C   0  0  2  0  0  3  0  0  0  0  0  0
  186.4390  179.3380  147.6200 C   0  0  0  0  0  3  0  0  0  0  0  0
  180.9970  180.5020  140.3260 C   0  0  0  0  0  2  0  0  0  0  0  0
  183.5640  179.4350  139.8300 C   0  0  1  0  0  3  0  0  0  0  0  0
  185.3600  179.5550  146.7480 C   0  0  0  0  0  3  0  0  0  0  0  0
  181.1870  178.9840  140.3840 C   0  0  0  0  0  2  0  0  0  0  0  0
  181.0060  180.9600  138.8680 C   0  0  1  0  0  3  0  0  0  0  0  0
  188.4580  177.5370  143.0910 C   0  0  0  0  0  3  0  0  0  0  0  0
  187.0970  177.7430  142.8230 C   0  0  0  0  0  0  0  0  0  0  0  0
  187.4130  177.7300  146.0620 C   0  0  0  0  0  3  0  0  0  0  0  0
  182.9230  178.4840  141.9010 C   0  0  0  0  0  2  0  0  0  0  0  0
  183.3290  179.5440  144.4550 O   0  0  0  0  0  0  0  0  0  0  0  0
  188.7930  178.1640  148.3820 Cl  0  0  0  0  0  0  0  0  0  0  0  0
  184.7480  177.8820  143.4910 N   0  0  0  0  0  0  0  0  0  0  0  0
  186.3410  177.9670  145.1970 C   0  0  0  0  0  0  0  0  0  0  0  0
  181.0520  183.1840  137.9650 O   0  0  0  0  0  1  0  0  0  0  0  0
  180.2820  182.3000  138.7270 C   0  0  1  0  0  3  0  0  0  0  0  0
  178.9310  182.1100  138.0530 C   0  0  0  0  0  2  0  0  0  0  0  0
  179.1180  181.7160  136.6010 C   0  0  0  0  0  1  0  0  0  0  0  0
  1 10  1  0  0  0  0
  1 20  1  0  0  0  0
  2 24  1  1  0  0  0
  2 27  1  0  0  0  0
  3  4  1  0  0  0  0
  4 21  2  0  0  0  0
  5  6  1  0  0  0  0
  6 18  1  0  0  0  0
  7 19  1  1  0  0  0
  7 24  1  0  0  0  0
  8 12  1  0  0  0  0
  9 15  1  0  0  0  0
  9 26  1  0  0  0  0
 11  3  2  0  0  0  0
 11 13  1  0  0  0  0
 12 13  1  0  0  0  0
 12  2  1  0  0  0  0
 13 22  2  0  0  0  0
 14 22  1  6  0  0  0
 14 28  1  0  0  0  0
 16 19  1  0  0  0  0
 17 10  1  6  0  0  0
 17  8  1  0  0  0  0
 17  7  1  0  0  0  0
 18 15  2  0  0  0  0
 20 30  1  1  0  0  0
 20 16  1  0  0  0  0
 22 21  1  0  0  0  0
 23  9  2  0  0  0  0
 25  5  2  0  0  0  0
 27 14  1  0  0  0  0
 27  5  1  0  0  0  0
 28  6  2  0  0  0  0
 28 23  1  0  0  0  0
 30 29  1  6  0  0  0
 31 30  1  0  0  0  0
 32 31  1  0  0  0  0
M  END
>  <MODEL>
8

>  <REMARK>
 VINA RESULT:      -7.6      4.090      6.102
  Name = 
  2 active torsions:
  status: ('A' for Active; 'I' for Inactive)
    1  A    between atoms: C_1  and  C_20
    2  A    between atoms: C_20  and  C_24
                            x       y       z     vdW  Elec       q    Type
                         _______ _______ _______ _____ _____    ______ ____

>  <TORSDO>
F 2

$$$$
=
 OpenBabel11052416473D

 32 37  0  0  1  0  0  0  0  0999 V2000
  191.6360  175.8920  143.9090 C   0  0  0  0  0  2  0  0  0  0  0  0
  188.1960  178.8210  141.1380 C   0  0  2  0  0  3  0  0  0  0  0  0
  188.4110  176.0440  137.0560 C   0  0  0  0  0  3  0  0  0  0  0  0
  187.2450  176.6420  136.5810 C   0  0  0  0  0  3  0  0  0  0  0  0
  185.6960  178.4320  141.7190 C   0  0  0  0  0  0  0  0  0  0  0  0
  184.5020  178.2430  140.9450 C   0  0  0  0  0  0  0  0  0  0  0  0
  189.9490  178.5390  142.8380 N   0  0  2  0  0  0  0  0  0  0  0  0
  190.1150  177.2160  140.7910 C   0  0  0  0  0  2  0  0  0  0  0  0
  182.5200  178.1200  139.0180 C   0  0  0  0  0  0  0  0  0  0  0  0
  191.6820  176.7640  142.6630 C   0  0  0  0  0  2  0  0  0  0  0  0
  188.9010  176.3780  138.3200 C   0  0  0  0  0  3  0  0  0  0  0  0
  188.7750  177.6790  140.4170 N   0  0  0  0  0  0  0  0  0  0  0  0
  188.2300  177.3090  139.1300 C   0  0  0  0  0  0  0  0  0  0  0  0
  186.2670  178.9050  139.4880 C   0  0  2  0  0  3  0  0  0  0  0  0
  182.2180  177.8170  140.3600 C   0  0  0  0  0  3  0  0  0  0  0  0
  190.0580  177.4390  145.1120 C   0  0  0  0  0  2  0  0  0  0  0  0
  190.2680  177.2030  142.3060 C   0  0  1  0  0  3  0  0  0  0  0  0
  183.2180  177.8810  141.3460 C   0  0  0  0  0  3  0  0  0  0  0  0
  190.2150  178.7110  144.2760 C   0  0  0  0  0  2  0  0  0  0  0  0
  191.3990  176.7080  145.1820 C   0  0  1  0  0  3  0  0  0  0  0  0
  186.5600  177.5640  137.3750 C   0  0  0  0  0  3  0  0  0  0  0  0
  187.0230  177.8890  138.6580 C   0  0  0  0  0  0  0  0  0  0  0  0
  183.8240  178.4860  138.6470 C   0  0  0  0  0  3  0  0  0  0  0  0
  188.5220  178.7670  142.6340 C   0  0  0  0  0  2  0  0  0  0  0  0
  185.7980  178.2280  142.9580 O   0  0  0  0  0  0  0  0  0  0  0  0
  181.2610  178.0430  137.8050 Cl  0  0  0  0  0  0  0  0  0  0  0  0
  186.7590  178.8910  140.8740 N   0  0  0  0  0  0  0  0  0  0  0  0
  184.8110  178.5310  139.6350 C   0  0  0  0  0  0  0  0  0  0  0  0
  192.4710  174.8580  146.2720 O   0  0  0  0  0  1  0  0  0  0  0  0
  191.4440  175.7960  146.4080 C   0  0  1  0  0  3  0  0  0  0  0  0
  191.6790  176.6110  147.6720 C   0  0  0  0  0  2  0  0  0  0  0  0
  192.8050  176.0030  148.4860 C   0  0  0  0  0  1  0  0  0  0  0  0
  1 20  1  0  0  0  0
  2 24  1  1  0  0  0
  3 11  1  0  0  0  0
  4  3  2  0  0  0  0
  4 21  1  0  0  0  0
  5 25  2  0  0  0  0
  6 18  1  0  0  0  0
  6  5  1  0  0  0  0
  7 24  1  1  0  0  0
  7 19  1  0  0  0  0
  9 15  1  0  0  0  0
 10  1  1  0  0  0  0
 11 13  2  0  0  0  0
 12  8  1  0  0  0  0
 12  2  1  0  0  0  0
 13 12  1  0  0  0  0
 14 22  1  6  0  0  0
 14 28  1  0  0  0  0
 14 27  1  0  0  0  0
 15 18  2  0  0  0  0
 16 20  1  0  0  0  0
 17  8  1  6  0  0  0
 17 10  1  0  0  0  0
 17  7  1  0  0  0  0
 19 16  1  0  0  0  0
 20 30  1  1  0  0  0
 21 22  2  0  0  0  0
 22 13  1  0  0  0  0
 23  9  2  0  0  0  0
 23 28  1  0  0  0  0
 26  9  1  0  0  0  0
 27  2  1  0  0  0  0
 27  5  1  0  0  0  0
 28  6  2  0  0  0  0
 30 29  1  6  0  0  0
 30 31  1  0  0  0  0
 31 32  1  0  0  0  0
M  END
>  <MODEL>
9

>  <REMARK>
 VINA RESULT:      -7.5      3.563      8.482
  Name = 
  2 active torsions:
  status: ('A' for Active; 'I' for Inactive)
    1  A    between atoms: C_1  and  C_20
    2  A    between atoms: C_20  and  C_24
                            x       y       z     vdW  Elec       q    Type
                         _______ _______ _______ _____ _____    ______ ____

>  <TORSDO>
F 2

$$$$
