=
 OpenBabel11052416473D

 32 37  0  0  1  0  0  0  0  0999 V2000
  180.9280  178.1020  140.0610 C   0  0  0  0  0  3  0  0  0  0  0  0
  185.8350  178.3880  142.0400 C   0  0  1  0  0  3  0  0  0  0  0  0
  184.7470  178.4430  146.8080 C   0  0  0  0  0  3  0  0  0  0  0  0
  186.0900  178.2050  147.0970 C   0  0  0  0  0  3  0  0  0  0  0  0
  188.0700  177.8270  141.4720 C   0  0  2  0  0  3  0  0  0  0  0  0
  189.0120  177.1970  142.3720 N   0  0  0  0  0  0  0  0  0  0  0  0
  183.9670  178.6770  140.3280 C   0  0  0  0  0  0  0  0  0  0  0  0
  183.4560  178.5510  142.7650 C   0  0  0  0  0  2  0  0  0  0  0  0
  190.7180  176.3960  144.4020 C   0  0  0  0  0  0  0  0  0  0  0  0
  181.5780  178.6250  141.1030 C   0  0  0  0  0  3  0  0  0  0  0  0
  184.3560  178.7070  145.4950 C   0  0  0  0  0  3  0  0  0  0  0  0
  184.8840  179.0390  143.0430 C   0  0  1  0  0  3  0  0  0  0  0  0
  185.2990  178.7130  144.4500 C   0  0  0  0  0  0  0  0  0  0  0  0
  187.7200  178.6800  143.6820 C   0  0  2  0  0  3  0  0  0  0  0  0
  190.8730  175.8390  143.1890 C   0  0  0  0  0  3  0  0  0  0  0  0
  182.5970  178.2430  138.2720 C   0  0  0  0  0  3  0  0  0  0  0  0
  183.0420  178.6210  141.3200 C   0  0  0  0  0  0  0  0  0  0  0  0
  189.8670  176.0460  142.0770 C   0  0  0  0  0  2  0  0  0  0  0  0
  183.6420  178.7960  138.8910 C   0  0  0  0  0  3  0  0  0  0  0  0
  181.5970  177.3470  138.9480 C   0  0  1  0  0  3  0  0  0  0  0  0
  187.0380  178.2490  146.0730 C   0  0  0  0  0  3  0  0  0  0  0  0
  186.6560  178.4950  144.7450 C   0  0  0  0  0  0  0  0  0  0  0  0
  189.6010  177.3250  144.6710 C   0  0  0  0  0  3  0  0  0  0  0  0
  185.4260  178.8680  140.6440 C   0  0  0  0  0  2  0  0  0  0  0  0
  188.8220  178.5940  140.3970 C   0  0  0  0  0  1  0  0  0  0  0  0
  191.7020  176.1000  145.4770 C   0  0  0  0  0  1  0  0  0  0  0  0
  187.2410  178.7660  142.2680 N   0  0  2  0  0  0  0  0  0  0  0  0
  188.7770  177.6500  143.6760 C   0  0  0  0  0  0  0  0  0  0  0  0
  181.1140  175.1920  139.8190 C   0  0  0  0  0  1  0  0  0  0  0  0
  182.1950  176.0900  139.4340 N   0  0  0  0  0  0  0  0  0  0  0  0
  182.8850  175.4210  138.3360 C   0  0  0  0  0  2  0  0  0  0  0  0
  181.8870  174.6270  137.5150 C   0  0  0  0  0  1  0  0  0  0  0  0
  1 10  2  0  0  0  0
  2 24  1  6  0  0  0
  2 27  1  0  0  0  0
  2 12  1  0  0  0  0
  3  4  1  0  0  0  0
  5 25  1  6  0  0  0
  5 27  1  0  0  0  0
  5  6  1  0  0  0  0
  6 28  1  0  0  0  0
  7 24  1  0  0  0  0
  7 17  2  0  0  0  0
  9 23  1  0  0  0  0
  9 26  1  0  0  0  0
 10 17  1  0  0  0  0
 11  3  2  0  0  0  0
 12  8  1  6  0  0  0
 12 13  1  0  0  0  0
 13 22  2  0  0  0  0
 13 11  1  0  0  0  0
 14 28  1  6  0  0  0
 14 22  1  0  0  0  0
 15  9  2  0  0  0  0
 16 19  2  0  0  0  0
 16 20  1  0  0  0  0
 17  8  1  0  0  0  0
 18  6  1  0  0  0  0
 18 15  1  0  0  0  0
 19  7  1  0  0  0  0
 20 30  1  1  0  0  0
 20  1  1  0  0  0  0
 21  4  2  0  0  0  0
 22 21  1  0  0  0  0
 27 14  1  0  0  0  0
 28 23  2  0  0  0  0
 30 29  1  0  0  0  0
 31 30  1  0  0  0  0
 32 31  1  0  0  0  0
M  END
>  <MODEL>
1

>  <REMARK>
 VINA RESULT:      -9.1      0.000      0.000
  Name = 
  2 active torsions:
  status: ('A' for Active; 'I' for Inactive)
    1  A    between atoms: C_1  and  N_20
    2  A    between atoms: N_20  and  C_24
                            x       y       z     vdW  Elec       q    Type
                         _______ _______ _______ _____ _____    ______ ____

>  <TORSDO>
F 2

$$$$
=
 OpenBabel11052416473D

 32 37  0  0  1  0  0  0  0  0999 V2000
  182.9850  176.5820  135.8560 C   0  0  0  0  0  3  0  0  0  0  0  0
  185.0010  178.2530  140.4630 C   0  0  1  0  0  3  0  0  0  0  0  0
  180.8450  178.7480  142.9950 C   0  0  0  0  0  3  0  0  0  0  0  0
  181.5940  178.8640  144.1640 C   0  0  0  0  0  3  0  0  0  0  0  0
  187.0040  178.1360  141.7310 C   0  0  2  0  0  3  0  0  0  0  0  0
  187.0600  177.8720  143.1530 N   0  0  0  0  0  0  0  0  0  0  0  0
  184.8920  177.8620  137.9450 C   0  0  0  0  0  0  0  0  0  0  0  0
  182.8090  177.9760  139.3100 C   0  0  0  0  0  2  0  0  0  0  0  0
  186.8590  177.7790  145.9140 C   0  0  0  0  0  0  0  0  0  0  0  0
  182.6700  177.3840  136.8760 C   0  0  0  0  0  3  0  0  0  0  0  0
  181.4890  178.7240  141.7560 C   0  0  0  0  0  3  0  0  0  0  0  0
  183.5830  178.8100  140.3400 C   0  0  1  0  0  3  0  0  0  0  0  0
  182.8930  178.7920  141.6740 C   0  0  0  0  0  0  0  0  0  0  0  0
  185.1370  179.1980  142.7920 C   0  0  2  0  0  3  0  0  0  0  0  0
  187.8620  177.1020  145.3300 C   0  0  0  0  0  3  0  0  0  0  0  0
  185.4190  176.8380  135.7170 C   0  0  0  0  0  3  0  0  0  0  0  0
  183.5420  177.7420  138.0170 C   0  0  0  0  0  0  0  0  0  0  0  0
  187.9360  176.9140  143.8300 C   0  0  0  0  0  2  0  0  0  0  0  0
  185.6790  177.6960  136.7050 C   0  0  0  0  0  3  0  0  0  0  0  0
  184.2890  175.8460  135.7410 C   0  0  1  0  0  3  0  0  0  0  0  0
  182.9850  178.9730  144.0900 C   0  0  0  0  0  3  0  0  0  0  0  0
  183.6460  178.9320  142.8520 C   0  0  0  0  0  0  0  0  0  0  0  0
  185.8310  178.4600  145.1010 C   0  0  0  0  0  3  0  0  0  0  0  0
  185.6790  178.4220  139.1000 C   0  0  0  0  0  2  0  0  0  0  0  0
  188.2500  178.8900  141.2990 C   0  0  0  0  0  1  0  0  0  0  0  0
  186.8020  177.8710  147.3970 C   0  0  0  0  0  1  0  0  0  0  0  0
  185.8020  178.9680  141.4730 N   0  0  2  0  0  0  0  0  0  0  0  0
  185.9420  178.4430  143.7730 C   0  0  0  0  0  0  0  0  0  0  0  0
  183.4010  173.8300  136.6260 C   0  0  0  0  0  1  0  0  0  0  0  0
  184.4360  174.8410  136.8090 N   0  0  0  0  0  0  0  0  0  0  0  0
  185.7020  174.1350  136.6440 C   0  0  0  0  0  2  0  0  0  0  0  0
  185.7700  172.9750  137.6180 C   0  0  0  0  0  1  0  0  0  0  0  0
  1 10  2  0  0  0  0
  2 24  1  6  0  0  0
  2 27  1  0  0  0  0
  3  4  1  0  0  0  0
  5 25  1  1  0  0  0
  5  6  1  0  0  0  0
  6 28  1  0  0  0  0
  6 18  1  0  0  0  0
  7 17  2  0  0  0  0
  7 24  1  0  0  0  0
  9 26  1  0  0  0  0
 10 17  1  0  0  0  0
 11  3  2  0  0  0  0
 12  8  1  6  0  0  0
 12  2  1  0  0  0  0
 12 13  1  0  0  0  0
 13 11  1  0  0  0  0
 13 22  2  0  0  0  0
 14 22  1  6  0  0  0
 14 28  1  0  0  0  0
 15  9  2  0  0  0  0
 16 20  1  0  0  0  0
 16 19  2  0  0  0  0
 17  8  1  0  0  0  0
 18 15  1  0  0  0  0
 19  7  1  0  0  0  0
 20  1  1  0  0  0  0
 20 30  1  1  0  0  0
 21  4  2  0  0  0  0
 22 21  1  0  0  0  0
 23  9  1  0  0  0  0
 27  5  1  0  0  0  0
 27 14  1  0  0  0  0
 28 23  2  0  0  0  0
 29 30  1  0  0  0  0
 31 30  1  0  0  0  0
 31 32  1  0  0  0  0
M  END
>  <MODEL>
2

>  <REMARK>
 VINA RESULT:      -9.0      1.971      3.718
  Name = 
  2 active torsions:
  status: ('A' for Active; 'I' for Inactive)
    1  A    between atoms: C_1  and  N_20
    2  A    between atoms: N_20  and  C_24
                            x       y       z     vdW  Elec       q    Type
                         _______ _______ _______ _____ _____    ______ ____

>  <TORSDO>
F 2

$$$$
=
 OpenBabel11052416473D

 32 37  0  0  1  0  0  0  0  0999 V2000
  183.2290  176.5870  135.4400 C   0  0  0  0  0  3  0  0  0  0  0  0
  186.3560  177.9170  139.5060 C   0  0  1  0  0  3  0  0  0  0  0  0
  182.9260  178.6590  142.9130 C   0  0  0  0  0  3  0  0  0  0  0  0
  183.9230  178.6700  143.8860 C   0  0  0  0  0  3  0  0  0  0  0  0
  188.5720  177.5890  140.2910 C   0  0  2  0  0  3  0  0  0  0  0  0
  188.9190  177.2690  141.6590 N   0  0  0  0  0  0  0  0  0  0  0  0
  185.6570  177.6290  137.0700 C   0  0  0  0  0  0  0  0  0  0  0  0
  183.9470  177.8640  138.8690 C   0  0  0  0  0  2  0  0  0  0  0  0
  189.3280  177.0920  144.3930 C   0  0  0  0  0  0  0  0  0  0  0  0
  183.2200  177.3740  136.5180 C   0  0  0  0  0  3  0  0  0  0  0  0
  183.2740  178.6280  141.5610 C   0  0  0  0  0  3  0  0  0  0  0  0
  185.0010  178.5930  139.7140 C   0  0  1  0  0  3  0  0  0  0  0  0
  184.6250  178.5830  141.1680 C   0  0  0  0  0  0  0  0  0  0  0  0
  187.0890  178.7610  141.7610 C   0  0  2  0  0  3  0  0  0  0  0  0
  190.1120  176.3570  143.5870 C   0  0  0  0  0  3  0  0  0  0  0  0
  185.5840  176.6460  134.7630 C   0  0  0  0  0  3  0  0  0  0  0  0
  184.3510  177.6170  137.4410 C   0  0  0  0  0  0  0  0  0  0  0  0
  189.8340  176.2180  142.1060 C   0  0  0  0  0  2  0  0  0  0  0  0
  186.1320  177.4440  135.6830 C   0  0  0  0  0  3  0  0  0  0  0  0
  184.4050  175.7510  135.0220 C   0  0  1  0  0  3  0  0  0  0  0  0
  185.2660  178.6670  143.5040 C   0  0  0  0  0  3  0  0  0  0  0  0
  185.6310  178.6170  142.1490 C   0  0  0  0  0  0  0  0  0  0  0  0
  188.2090  177.8850  143.8430 C   0  0  0  0  0  3  0  0  0  0  0  0
  186.7270  178.0790  138.0290 C   0  0  0  0  0  2  0  0  0  0  0  0
  189.7530  178.2530  139.6040 C   0  0  0  0  0  1  0  0  0  0  0  0
  189.6090  177.1350  145.8530 C   0  0  0  0  0  1  0  0  0  0  0  0
  187.4210  178.5250  140.3230 N   0  0  2  0  0  0  0  0  0  0  0  0
  188.0210  177.9070  142.5230 C   0  0  0  0  0  0  0  0  0  0  0  0
  183.6170  173.7190  135.9640 C   0  0  0  0  0  1  0  0  0  0  0  0
  184.6950  174.6980  136.0130 N   0  0  0  0  0  0  0  0  0  0  0  0
  185.8980  173.9730  135.6160 C   0  0  0  0  0  2  0  0  0  0  0  0
  186.8000  173.7840  136.8200 C   0  0  0  0  0  1  0  0  0  0  0  0
  1 10  2  0  0  0  0
  2 24  1  6  0  0  0
  2 12  1  0  0  0  0
  2 27  1  0  0  0  0
  3  4  1  0  0  0  0
  5 25  1  1  0  0  0
  5 27  1  0  0  0  0
  5  6  1  0  0  0  0
  6 18  1  0  0  0  0
  6 28  1  0  0  0  0
  7 17  2  0  0  0  0
  7 24  1  0  0  0  0
  9 26  1  0  0  0  0
 10 17  1  0  0  0  0
 11  3  2  0  0  0  0
 12  8  1  6  0  0  0
 12 13  1  0  0  0  0
 13 11  1  0  0  0  0
 13 22  2  0  0  0  0
 14 22  1  6  0  0  0
 14 28  1  0  0  0  0
 15  9  2  0  0  0  0
 16 20  1  0  0  0  0
 16 19  2  0  0  0  0
 17  8  1  0  0  0  0
 18 15  1  0  0  0  0
 19  7  1  0  0  0  0
 20  1  1  0  0  0  0
 20 30  1  1  0  0  0
 21  4  2  0  0  0  0
 22 21  1  0  0  0  0
 23  9  1  0  0  0  0
 27 14  1  0  0  0  0
 28 23  2  0  0  0  0
 29 30  1  0  0  0  0
 31 30  1  0  0  0  0
 31 32  1  0  0  0  0
M  END
>  <MODEL>
3

>  <REMARK>
 VINA RESULT:      -8.7      2.345      3.491
  Name = 
  2 active torsions:
  status: ('A' for Active; 'I' for Inactive)
    1  A    between atoms: C_1  and  N_20
    2  A    between atoms: N_20  and  C_24
                            x       y       z     vdW  Elec       q    Type
                         _______ _______ _______ _____ _____    ______ ____

>  <TORSDO>
F 2

$$$$
=
 OpenBabel11052416473D

 32 37  0  0  1  0  0  0  0  0999 V2000
  180.8260  178.3200  141.4570 C   0  0  0  0  0  3  0  0  0  0  0  0
  185.8820  178.2810  139.8720 C   0  0  1  0  0  3  0  0  0  0  0  0
  188.0340  177.3480  144.1640 C   0  0  0  0  0  3  0  0  0  0  0  0
  189.2220  177.0790  143.4870 C   0  0  0  0  0  3  0  0  0  0  0  0
  187.1840  177.8840  137.9280 C   0  0  2  0  0  3  0  0  0  0  0  0
  188.4010  177.1010  137.9010 N   0  0  0  0  0  0  0  0  0  0  0  0
  183.4040  178.8800  139.8210 C   0  0  0  0  0  0  0  0  0  0  0  0
  184.5210  178.2530  141.9600 C   0  0  0  0  0  2  0  0  0  0  0  0
  190.8940  175.9330  138.2100 C   0  0  0  0  0  0  0  0  0  0  0  0
  182.0410  178.6320  141.9160 C   0  0  0  0  0  3  0  0  0  0  0  0
  186.9410  177.8670  143.4690 C   0  0  0  0  0  3  0  0  0  0  0  0
  185.8530  178.6990  141.3420 C   0  0  1  0  0  3  0  0  0  0  0  0
  187.0150  178.1000  142.0830 C   0  0  0  0  0  0  0  0  0  0  0  0
  188.3970  178.2650  139.9580 C   0  0  2  0  0  3  0  0  0  0  0  0
  190.1890  175.6370  137.1060 C   0  0  0  0  0  3  0  0  0  0  0  0
  181.0100  178.8500  139.0720 C   0  0  0  0  0  3  0  0  0  0  0  0
  183.3050  178.6080  141.1470 C   0  0  0  0  0  0  0  0  0  0  0  0
  188.7420  176.0480  136.9430 C   0  0  0  0  0  2  0  0  0  0  0  0
  182.2680  179.2830  138.9660 C   0  0  0  0  0  3  0  0  0  0  0  0
  180.5580  177.8180  140.0680 C   0  0  1  0  0  3  0  0  0  0  0  0
  189.3180  177.3460  142.1200 C   0  0  0  0  0  3  0  0  0  0  0  0
  188.2210  177.8500  141.4050 C   0  0  0  0  0  0  0  0  0  0  0  0
  190.3100  176.7690  139.2790 C   0  0  0  0  0  3  0  0  0  0  0  0
  184.7490  179.0280  139.1610 C   0  0  0  0  0  2  0  0  0  0  0  0
  187.1810  178.8660  136.7680 C   0  0  0  0  0  1  0  0  0  0  0  0
  192.2910  175.4420  138.3440 C   0  0  0  0  0  1  0  0  0  0  0  0
  187.1530  178.6280  139.2130 N   0  0  2  0  0  0  0  0  0  0  0  0
  189.0890  177.2760  139.1080 C   0  0  0  0  0  0  0  0  0  0  0  0
  180.2540  175.4780  140.3220 C   0  0  0  0  0  1  0  0  0  0  0  0
  181.1760  176.4990  139.8430 N   0  0  0  0  0  0  0  0  0  0  0  0
  181.3110  176.2610  138.4090 C   0  0  0  0  0  2  0  0  0  0  0  0
  182.6490  175.6070  138.1240 C   0  0  0  0  0  1  0  0  0  0  0  0
  1 10  2  0  0  0  0
  2 24  1  6  0  0  0
  2 12  1  0  0  0  0
  4  3  1  0  0  0  0
  5 25  1  6  0  0  0
  5 27  1  0  0  0  0
  6  5  1  0  0  0  0
  6 28  1  0  0  0  0
  7 17  2  0  0  0  0
  9 26  1  0  0  0  0
  9 23  1  0  0  0  0
 11  3  2  0  0  0  0
 12  8  1  1  0  0  0
 12 13  1  0  0  0  0
 13 11  1  0  0  0  0
 14 28  1  6  0  0  0
 14 22  1  0  0  0  0
 15  9  2  0  0  0  0
 16 20  1  0  0  0  0
 17 10  1  0  0  0  0
 17  8  1  0  0  0  0
 18 15  1  0  0  0  0
 18  6  1  0  0  0  0
 19 16  2  0  0  0  0
 19  7  1  0  0  0  0
 20 30  1  6  0  0  0
 20  1  1  0  0  0  0
 21  4  2  0  0  0  0
 22 13  2  0  0  0  0
 22 21  1  0  0  0  0
 24  7  1  0  0  0  0
 27  2  1  0  0  0  0
 27 14  1  0  0  0  0
 28 23  2  0  0  0  0
 30 29  1  0  0  0  0
 31 30  1  0  0  0  0
 32 31  1  0  0  0  0
M  END
>  <MODEL>
4

>  <REMARK>
 VINA RESULT:      -8.6      2.255      3.587
  Name = 
  2 active torsions:
  status: ('A' for Active; 'I' for Inactive)
    1  A    between atoms: C_1  and  N_20
    2  A    between atoms: N_20  and  C_24
                            x       y       z     vdW  Elec       q    Type
                         _______ _______ _______ _____ _____    ______ ____

>  <TORSDO>
F 2

$$$$
=
 OpenBabel11052416473D

 32 37  0  0  1  0  0  0  0  0999 V2000
  186.1450  177.2880  136.7460 C   0  0  0  0  0  3  0  0  0  0  0  0
  188.8630  177.7900  141.2660 C   0  0  1  0  0  3  0  0  0  0  0  0
  185.1170  178.2530  144.3770 C   0  0  0  0  0  3  0  0  0  0  0  0
  185.9990  178.0540  145.4380 C   0  0  0  0  0  3  0  0  0  0  0  0
  190.9580  177.2010  142.2150 C   0  0  2  0  0  3  0  0  0  0  0  0
  191.1330  176.6610  143.5460 N   0  0  0  0  0  0  0  0  0  0  0  0
  188.4260  177.9110  138.7570 C   0  0  0  0  0  0  0  0  0  0  0  0
  186.5410  177.9950  140.3860 C   0  0  0  0  0  2  0  0  0  0  0  0
  191.2250  176.0570  146.2480 C   0  0  0  0  0  0  0  0  0  0  0  0
  186.0560  177.9060  137.9260 C   0  0  0  0  0  3  0  0  0  0  0  0
  185.6120  178.3980  143.0800 C   0  0  0  0  0  3  0  0  0  0  0  0
  187.5300  178.5180  141.4360 C   0  0  1  0  0  3  0  0  0  0  0  0
  186.9940  178.3210  142.8250 C   0  0  0  0  0  0  0  0  0  0  0  0
  189.3820  178.2420  143.6870 C   0  0  2  0  0  3  0  0  0  0  0  0
  192.0550  175.3970  145.4230 C   0  0  0  0  0  3  0  0  0  0  0  0
  188.5610  177.2860  136.3310 C   0  0  0  0  0  3  0  0  0  0  0  0
  187.0890  177.9340  138.9850 C   0  0  0  0  0  0  0  0  0  0  0  0
  191.9380  175.4960  143.9180 C   0  0  0  0  0  2  0  0  0  0  0  0
  189.0420  177.9010  137.4140 C   0  0  0  0  0  3  0  0  0  0  0  0
  187.3150  176.4440  136.3280 C   0  0  1  0  0  3  0  0  0  0  0  0
  187.3740  178.0160  145.1990 C   0  0  0  0  0  3  0  0  0  0  0  0
  187.8850  178.1420  143.8980 C   0  0  0  0  0  0  0  0  0  0  0  0
  190.2170  176.9960  145.7140 C   0  0  0  0  0  3  0  0  0  0  0  0
  189.4050  178.1420  139.8780 C   0  0  0  0  0  2  0  0  0  0  0  0
  192.2410  177.8780  141.7620 C   0  0  0  0  0  1  0  0  0  0  0  0
  191.3440  175.8650  147.7180 C   0  0  0  0  0  1  0  0  0  0  0  0
  189.8600  178.1990  142.2720 N   0  0  2  0  0  0  0  0  0  0  0  0
  190.1790  177.2250  144.4010 C   0  0  0  0  0  0  0  0  0  0  0  0
  186.2850  174.3870  136.9140 C   0  0  0  0  0  1  0  0  0  0  0  0
  187.4390  175.2400  137.1690 N   0  0  0  0  0  0  0  0  0  0  0  0
  188.5990  174.4640  136.7430 C   0  0  0  0  0  2  0  0  0  0  0  0
  188.2860  172.9830  136.8440 C   0  0  0  0  0  1  0  0  0  0  0  0
  1 10  2  0  0  0  0
  2 24  1  6  0  0  0
  2 12  1  0  0  0  0
  2 27  1  0  0  0  0
  3  4  1  0  0  0  0
  5 25  1  1  0  0  0
  5 27  1  0  0  0  0
  5  6  1  0  0  0  0
  6 18  1  0  0  0  0
  6 28  1  0  0  0  0
  7 17  2  0  0  0  0
  7 24  1  0  0  0  0
  9 26  1  0  0  0  0
 10 17  1  0  0  0  0
 11  3  2  0  0  0  0
 12  8  1  6  0  0  0
 12 13  1  0  0  0  0
 13 11  1  0  0  0  0
 13 22  2  0  0  0  0
 14 22  1  6  0  0  0
 14 28  1  0  0  0  0
 15  9  2  0  0  0  0
 16 19  2  0  0  0  0
 17  8  1  0  0  0  0
 18 15  1  0  0  0  0
 19  7  1  0  0  0  0
 20 16  1  0  0  0  0
 20  1  1  0  0  0  0
 20 30  1  1  0  0  0
 21  4  2  0  0  0  0
 22 21  1  0  0  0  0
 23  9  1  0  0  0  0
 27 14  1  0  0  0  0
 28 23  2  0  0  0  0
 29 30  1  0  0  0  0
 31 32  1  0  0  0  0
 31 30  1  0  0  0  0
M  END
>  <MODEL>
5

>  <REMARK>
 VINA RESULT:      -8.4      2.792      4.039
  Name = 
  2 active torsions:
  status: ('A' for Active; 'I' for Inactive)
    1  A    between atoms: C_1  and  N_20
    2  A    between atoms: N_20  and  C_24
                            x       y       z     vdW  Elec       q    Type
                         _______ _______ _______ _____ _____    ______ ____

>  <TORSDO>
F 2

$$$$
=
 OpenBabel11052416473D

 32 37  0  0  1  0  0  0  0  0999 V2000
  185.6380  175.9350  134.6410 C   0  0  0  0  0  3  0  0  0  0  0  0
  185.9070  178.0550  139.4900 C   0  0  1  0  0  3  0  0  0  0  0  0
  181.1240  178.3780  140.4620 C   0  0  0  0  0  3  0  0  0  0  0  0
  181.4330  178.6290  141.7970 C   0  0  0  0  0  3  0  0  0  0  0  0
  187.3750  178.1800  141.3510 C   0  0  2  0  0  3  0  0  0  0  0  0
  186.9670  178.0130  142.7300 N   0  0  0  0  0  0  0  0  0  0  0  0
  186.6660  177.4950  137.1200 C   0  0  0  0  0  0  0  0  0  0  0  0
  184.2430  177.5300  137.7100 C   0  0  0  0  0  2  0  0  0  0  0  0
  185.8610  178.0830  145.2680 C   0  0  0  0  0  0  0  0  0  0  0  0
  184.9570  176.7730  135.4270 C   0  0  0  0  0  3  0  0  0  0  0  0
  182.1450  178.3270  139.5110 C   0  0  0  0  0  3  0  0  0  0  0  0
  184.5840  178.4880  138.8600 C   0  0  1  0  0  3  0  0  0  0  0  0
  183.4890  178.5010  139.8890 C   0  0  0  0  0  0  0  0  0  0  0  0
  185.2070  179.1550  141.6420 C   0  0  2  0  0  3  0  0  0  0  0  0
  187.0360  177.4520  145.1080 C   0  0  0  0  0  3  0  0  0  0  0  0
  187.9610  176.3740  135.2880 C   0  0  0  0  0  3  0  0  0  0  0  0
  185.3780  177.2720  136.7550 C   0  0  0  0  0  0  0  0  0  0  0  0
  187.6170  177.1740  143.7380 C   0  0  0  0  0  2  0  0  0  0  0  0
  187.8290  177.3120  136.2280 C   0  0  0  0  0  3  0  0  0  0  0  0
  186.9430  175.2990  135.0250 C   0  0  1  0  0  3  0  0  0  0  0  0
  182.7600  178.8440  142.1750 C   0  0  0  0  0  3  0  0  0  0  0  0
  183.7980  178.7760  141.2320 C   0  0  0  0  0  0  0  0  0  0  0  0
  185.1280  178.6260  144.1060 C   0  0  0  0  0  3  0  0  0  0  0  0
  186.9910  178.1890  138.4160 C   0  0  0  0  0  2  0  0  0  0  0  0
  188.6510  179.0010  141.2890 C   0  0  0  0  0  1  0  0  0  0  0  0
  185.3070  178.2660  146.6360 C   0  0  0  0  0  1  0  0  0  0  0  0
  186.2850  178.8940  140.6400 N   0  0  2  0  0  0  0  0  0  0  0  0
  185.6780  178.5320  142.8950 C   0  0  0  0  0  0  0  0  0  0  0  0
  185.9050  173.2900  135.7480 C   0  0  0  0  0  1  0  0  0  0  0  0
  186.7790  174.3800  136.1660 N   0  0  0  0  0  0  0  0  0  0  0  0
  188.0600  173.7530  136.4770 C   0  0  0  0  0  2  0  0  0  0  0  0
  187.9920  172.2710  136.1650 C   0  0  0  0  0  1  0  0  0  0  0  0
  1 20  1  0  0  0  0
  1 10  2  0  0  0  0
  2 24  1  6  0  0  0
  2 27  1  0  0  0  0
  3  4  1  0  0  0  0
  4 21  2  0  0  0  0
  5 25  1  1  0  0  0
  5  6  1  0  0  0  0
  6 28  1  0  0  0  0
  6 18  1  0  0  0  0
  7 24  1  0  0  0  0
  9 26  1  0  0  0  0
 10 17  1  0  0  0  0
 11 13  1  0  0  0  0
 11  3  2  0  0  0  0
 12  8  1  6  0  0  0
 12  2  1  0  0  0  0
 12 13  1  0  0  0  0
 13 22  2  0  0  0  0
 14 22  1  6  0  0  0
 14 28  1  0  0  0  0
 15  9  2  0  0  0  0
 16 19  2  0  0  0  0
 17  7  2  0  0  0  0
 17  8  1  0  0  0  0
 18 15  1  0  0  0  0
 19  7  1  0  0  0  0
 20 16  1  0  0  0  0
 20 30  1  1  0  0  0
 22 21  1  0  0  0  0
 23  9  1  0  0  0  0
 27  5  1  0  0  0  0
 27 14  1  0  0  0  0
 28 23  2  0  0  0  0
 29 30  1  0  0  0  0
 30 31  1  0  0  0  0
 32 31  1  0  0  0  0
M  END
>  <MODEL>
6

>  <REMARK>
 VINA RESULT:      -8.1      3.055      5.192
  Name = 
  2 active torsions:
  status: ('A' for Active; 'I' for Inactive)
    1  A    between atoms: C_1  and  N_20
    2  A    between atoms: N_20  and  C_24
                            x       y       z     vdW  Elec       q    Type
                         _______ _______ _______ _____ _____    ______ ____

>  <TORSDO>
F 2

$$$$
=
 OpenBabel11052416473D

 32 37  0  0  1  0  0  0  0  0999 V2000
  187.1120  175.5420  134.5940 C   0  0  0  0  0  3  0  0  0  0  0  0
  188.6850  177.3710  139.3120 C   0  0  1  0  0  3  0  0  0  0  0  0
  184.3710  178.9140  141.0240 C   0  0  0  0  0  3  0  0  0  0  0  0
  184.9400  179.0350  142.2910 C   0  0  0  0  0  3  0  0  0  0  0  0
  190.4050  177.0490  140.9150 C   0  0  2  0  0  3  0  0  0  0  0  0
  190.1880  176.9550  142.3440 N   0  0  0  0  0  0  0  0  0  0  0  0
  188.8890  176.7020  136.8590 C   0  0  0  0  0  0  0  0  0  0  0  0
  186.6860  177.3570  137.8240 C   0  0  0  0  0  2  0  0  0  0  0  0
  189.5510  177.2380  145.0240 C   0  0  0  0  0  0  0  0  0  0  0  0
  186.8080  176.5060  135.4670 C   0  0  0  0  0  3  0  0  0  0  0  0
  185.1800  178.6240  139.9250 C   0  0  0  0  0  3  0  0  0  0  0  0
  187.4420  178.1560  138.8940 C   0  0  1  0  0  3  0  0  0  0  0  0
  186.5650  178.4270  140.0830 C   0  0  0  0  0  0  0  0  0  0  0  0
  188.6460  178.5520  141.5340 C   0  0  2  0  0  3  0  0  0  0  0  0
  190.4760  176.3250  144.6870 C   0  0  0  0  0  3  0  0  0  0  0  0
  189.5390  175.3350  134.8590 C   0  0  0  0  0  3  0  0  0  0  0  0
  187.5480  176.8370  136.7050 C   0  0  0  0  0  0  0  0  0  0  0  0
  190.7410  175.9440  143.2460 C   0  0  0  0  0  2  0  0  0  0  0  0
  189.8090  176.2460  135.7960 C   0  0  0  0  0  3  0  0  0  0  0  0
  188.2450  174.5740  134.7750 C   0  0  1  0  0  3  0  0  0  0  0  0
  186.3180  178.8810  142.4510 C   0  0  0  0  0  3  0  0  0  0  0  0
  187.1410  178.5700  141.3570 C   0  0  0  0  0  0  0  0  0  0  0  0
  188.8160  177.9890  143.9850 C   0  0  0  0  0  3  0  0  0  0  0  0
  189.5850  177.2470  138.0780 C   0  0  0  0  0  2  0  0  0  0  0  0
  191.8280  177.5070  140.6410 C   0  0  0  0  0  1  0  0  0  0  0  0
  189.2850  177.5200  146.4600 C   0  0  0  0  0  1  0  0  0  0  0  0
  189.4470  178.0470  140.3770 N   0  0  2  0  0  0  0  0  0  0  0  0
  189.1240  177.7900  142.7040 C   0  0  0  0  0  0  0  0  0  0  0  0
  186.5990  173.3950  136.0140 C   0  0  0  0  0  1  0  0  0  0  0  0
  188.0230  173.6970  135.9390 N   0  0  0  0  0  0  0  0  0  0  0  0
  188.6810  172.4130  135.7160 C   0  0  0  0  0  2  0  0  0  0  0  0
  187.8350  171.5600  134.7900 C   0  0  0  0  0  1  0  0  0  0  0  0
  1 20  1  0  0  0  0
  1 10  2  0  0  0  0
  2 24  1  6  0  0  0
  2 27  1  0  0  0  0
  3  4  1  0  0  0  0
  4 21  2  0  0  0  0
  5 25  1  1  0  0  0
  5  6  1  0  0  0  0
  6 28  1  0  0  0  0
  6 18  1  0  0  0  0
  7 24  1  0  0  0  0
  9 26  1  0  0  0  0
 10 17  1  0  0  0  0
 11 13  1  0  0  0  0
 11  3  2  0  0  0  0
 12  8  1  6  0  0  0
 12  2  1  0  0  0  0
 12 13  1  0  0  0  0
 13 22  2  0  0  0  0
 14 22  1  6  0  0  0
 14 28  1  0  0  0  0
 15  9  2  0  0  0  0
 16 19  2  0  0  0  0
 17  7  2  0  0  0  0
 17  8  1  0  0  0  0
 18 15  1  0  0  0  0
 19  7  1  0  0  0  0
 20 16  1  0  0  0  0
 20 30  1  1  0  0  0
 22 21  1  0  0  0  0
 23  9  1  0  0  0  0
 27  5  1  0  0  0  0
 27 14  1  0  0  0  0
 28 23  2  0  0  0  0
 30 29  1  0  0  0  0
 31 30  1  0  0  0  0
 32 31  1  0  0  0  0
M  END
>  <MODEL>
7

>  <REMARK>
 VINA RESULT:      -7.8      3.686      5.329
  Name = 
  2 active torsions:
  status: ('A' for Active; 'I' for Inactive)
    1  A    between atoms: C_1  and  N_20
    2  A    between atoms: N_20  and  C_24
                            x       y       z     vdW  Elec       q    Type
                         _______ _______ _______ _____ _____    ______ ____

>  <TORSDO>
F 2

$$$$
=
 OpenBabel11052416473D

 32 37  0  0  1  0  0  0  0  0999 V2000
  180.2400  176.9100  138.2650 C   0  0  0  0  0  3  0  0  0  0  0  0
  185.0760  178.2190  139.9890 C   0  0  1  0  0  3  0  0  0  0  0  0
  184.1180  178.6080  144.7690 C   0  0  0  0  0  3  0  0  0  0  0  0
  185.4890  178.6290  145.0220 C   0  0  0  0  0  3  0  0  0  0  0  0
  187.3590  177.9780  139.3840 C   0  0  2  0  0  3  0  0  0  0  0  0
  188.4170  177.6150  140.3020 N   0  0  0  0  0  0  0  0  0  0  0  0
  183.1430  178.0070  138.3390 C   0  0  0  0  0  0  0  0  0  0  0  0
  182.7240  178.0620  140.7970 C   0  0  0  0  0  2  0  0  0  0  0  0
  190.2860  177.3320  142.3270 C   0  0  0  0  0  0  0  0  0  0  0  0
  180.8190  177.6440  139.2190 C   0  0  0  0  0  3  0  0  0  0  0  0
  183.6540  178.6600  143.4540 C   0  0  0  0  0  3  0  0  0  0  0  0
  184.0550  178.8080  140.9610 C   0  0  1  0  0  3  0  0  0  0  0  0
  184.5560  178.7090  142.3740 C   0  0  0  0  0  0  0  0  0  0  0  0
  186.9260  178.9960  141.5080 C   0  0  2  0  0  3  0  0  0  0  0  0
  190.5020  176.6810  141.1720 C   0  0  0  0  0  3  0  0  0  0  0  0
  181.8140  177.1320  136.4000 C   0  0  0  0  0  3  0  0  0  0  0  0
  182.2670  177.9060  139.3710 C   0  0  0  0  0  0  0  0  0  0  0  0
  189.4470  176.5970  140.0900 C   0  0  0  0  0  2  0  0  0  0  0  0
  182.7660  177.9150  136.9140 C   0  0  0  0  0  3  0  0  0  0  0  0
  180.9990  176.1610  137.2070 C   0  0  1  0  0  3  0  0  0  0  0  0
  186.3900  178.7190  143.9590 C   0  0  0  0  0  3  0  0  0  0  0  0
  185.9370  178.7530  142.6300 C   0  0  0  0  0  0  0  0  0  0  0  0
  189.0350  178.0870  142.5490 C   0  0  0  0  0  3  0  0  0  0  0  0
  184.5570  178.4710  138.5700 C   0  0  0  0  0  2  0  0  0  0  0  0
  187.9420  178.7390  138.2050 C   0  0  0  0  0  1  0  0  0  0  0  0
  191.3340  177.3220  143.3830 C   0  0  0  0  0  1  0  0  0  0  0  0
  186.4040  178.8470  140.1160 N   0  0  2  0  0  0  0  0  0  0  0  0
  188.1420  178.1610  141.5620 C   0  0  0  0  0  0  0  0  0  0  0  0
  180.9270  173.9730  138.1260 C   0  0  0  0  0  1  0  0  0  0  0  0
  181.8130  175.0810  137.7930 N   0  0  0  0  0  0  0  0  0  0  0  0
  182.7280  174.5580  136.7830 C   0  0  0  0  0  2  0  0  0  0  0  0
  184.0960  174.3380  137.3990 C   0  0  0  0  0  1  0  0  0  0  0  0
  1 10  2  0  0  0  0
  2 24  1  6  0  0  0
  2 27  1  0  0  0  0
  2 12  1  0  0  0  0
  3  4  1  0  0  0  0
  5 25  1  6  0  0  0
  5 27  1  0  0  0  0
  5  6  1  0  0  0  0
  6 28  1  0  0  0  0
  7 24  1  0  0  0  0
  7 17  2  0  0  0  0
  9 23  1  0  0  0  0
  9 26  1  0  0  0  0
 10 17  1  0  0  0  0
 11  3  2  0  0  0  0
 12  8  1  1  0  0  0
 12 13  1  0  0  0  0
 13 22  2  0  0  0  0
 13 11  1  0  0  0  0
 14 28  1  1  0  0  0
 14 22  1  0  0  0  0
 15  9  2  0  0  0  0
 16 19  2  0  0  0  0
 16 20  1  0  0  0  0
 17  8  1  0  0  0  0
 18  6  1  0  0  0  0
 18 15  1  0  0  0  0
 19  7  1  0  0  0  0
 20 30  1  1  0  0  0
 20  1  1  0  0  0  0
 21  4  2  0  0  0  0
 22 21  1  0  0  0  0
 27 14  1  0  0  0  0
 28 23  2  0  0  0  0
 30 29  1  0  0  0  0
 31 32  1  0  0  0  0
 31 30  1  0  0  0  0
M  END
>  <MODEL>
8

>  <REMARK>
 VINA RESULT:      -7.6      1.457      2.225
  Name = 
  2 active torsions:
  status: ('A' for Active; 'I' for Inactive)
    1  A    between atoms: C_1  and  N_20
    2  A    between atoms: N_20  and  C_24
                            x       y       z     vdW  Elec       q    Type
                         _______ _______ _______ _____ _____    ______ ____

>  <TORSDO>
F 2

$$$$
=
 OpenBabel11052416473D

 32 37  0  0  1  0  0  0  0  0999 V2000
  191.2030  177.8120  141.1850 C   0  0  0  0  0  3  0  0  0  0  0  0
  188.2080  175.3150  137.5970 C   0  0  1  0  0  3  0  0  0  0  0  0
  191.6340  172.4730  135.5700 C   0  0  0  0  0  3  0  0  0  0  0  0
  190.6270  171.7410  134.9430 C   0  0  0  0  0  3  0  0  0  0  0  0
  185.9520  174.6820  137.2230 C   0  0  2  0  0  3  0  0  0  0  0  0
  185.5330  173.3820  136.7420 N   0  0  0  0  0  0  0  0  0  0  0  0
  188.9120  177.1800  139.1880 C   0  0  0  0  0  0  0  0  0  0  0  0
  190.5990  175.6080  138.2380 C   0  0  0  0  0  2  0  0  0  0  0  0
  185.0430  170.9970  135.4210 C   0  0  0  0  0  0  0  0  0  0  0  0
  191.3000  177.2950  139.9580 C   0  0  0  0  0  3  0  0  0  0  0  0
  191.3140  173.6420  136.2620 C   0  0  0  0  0  3  0  0  0  0  0  0
  189.6400  175.3600  137.0660 C   0  0  1  0  0  3  0  0  0  0  0  0
  189.9790  174.0790  136.3570 C   0  0  0  0  0  0  0  0  0  0  0  0
  187.5530  173.8930  135.6270 C   0  0  2  0  0  3  0  0  0  0  0  0
  184.1810  171.3800  136.3770 C   0  0  0  0  0  3  0  0  0  0  0  0
  188.8960  178.6370  141.2290 C   0  0  0  0  0  3  0  0  0  0  0  0
  190.1950  176.7380  139.1480 C   0  0  0  0  0  0  0  0  0  0  0  0
  184.4680  172.5460  137.2980 C   0  0  0  0  0  2  0  0  0  0  0  0
  188.4470  178.3130  140.0150 C   0  0  0  0  0  3  0  0  0  0  0  0
  189.9300  177.8470  141.9820 C   0  0  1  0  0  3  0  0  0  0  0  0
  189.3060  172.1890  134.9980 C   0  0  0  0  0  3  0  0  0  0  0  0
  188.9680  173.3530  135.7060 C   0  0  0  0  0  0  0  0  0  0  0  0
  186.2750  171.7700  135.1600 C   0  0  0  0  0  3  0  0  0  0  0  0
  187.8960  176.6930  138.1890 C   0  0  0  0  0  2  0  0  0  0  0  0
  184.8910  175.7180  136.8890 C   0  0  0  0  0  1  0  0  0  0  0  0
  184.7390  169.8000  134.5940 C   0  0  0  0  0  1  0  0  0  0  0  0
  187.2230  175.0290  136.5390 N   0  0  2  0  0  0  0  0  0  0  0  0
  186.4930  172.8900  135.8490 C   0  0  0  0  0  0  0  0  0  0  0  0
  190.5170  175.8410  143.1070 C   0  0  0  0  0  1  0  0  0  0  0  0
  189.4720  176.4890  142.3240 N   0  0  0  0  0  0  0  0  0  0  0  0
  188.3160  176.5720  143.2110 C   0  0  0  0  0  2  0  0  0  0  0  0
  188.7430  177.1340  144.5540 C   0  0  0  0  0  1  0  0  0  0  0  0
  1 20  1  0  0  0  0
  2 24  1  6  0  0  0
  3 11  1  0  0  0  0
  4 21  1  0  0  0  0
  4  3  2  0  0  0  0
  5 25  1  6  0  0  0
  6  5  1  0  0  0  0
  6 18  1  0  0  0  0
  7 19  1  0  0  0  0
  8 17  1  0  0  0  0
  9 15  2  0  0  0  0
 10  1  2  0  0  0  0
 11 13  2  0  0  0  0
 12  2  1  0  0  0  0
 12  8  1  1  0  0  0
 13 12  1  0  0  0  0
 14 22  1  1  0  0  0
 14 28  1  0  0  0  0
 14 27  1  0  0  0  0
 15 18  1  0  0  0  0
 16 20  1  0  0  0  0
 17  7  2  0  0  0  0
 17 10  1  0  0  0  0
 19 16  2  0  0  0  0
 20 30  1  6  0  0  0
 21 22  2  0  0  0  0
 22 13  1  0  0  0  0
 23  9  1  0  0  0  0
 23 28  2  0  0  0  0
 24  7  1  0  0  0  0
 26  9  1  0  0  0  0
 27  5  1  0  0  0  0
 27  2  1  0  0  0  0
 28  6  1  0  0  0  0
 30 29  1  0  0  0  0
 30 31  1  0  0  0  0
 31 32  1  0  0  0  0
M  END
>  <MODEL>
9

>  <REMARK>
 VINA RESULT:      -6.7      4.606      9.583
  Name = 
  2 active torsions:
  status: ('A' for Active; 'I' for Inactive)
    1  A    between atoms: C_1  and  N_20
    2  A    between atoms: N_20  and  C_24
                            x       y       z     vdW  Elec       q    Type
                         _______ _______ _______ _____ _____    ______ ____

>  <TORSDO>
F 2

$$$$
