=
 OpenBabel11052413203D

 28 32  0  0  1  0  0  0  0  0999 V2000
  189.4290  177.3230  139.2190 C   0  0  1  0  0  3  0  0  0  0  0  0
  194.0680  174.5040  138.1180 C   0  0  0  0  0  3  0  0  0  0  0  0
  188.9250  173.7380  136.7340 C   0  0  0  0  0  1  0  0  0  0  0  0
  193.7660  175.1650  135.7980 C   0  0  0  0  0  0  0  0  0  0  0  0
  191.7320  174.8740  137.3060 C   0  0  1  0  0  3  0  0  0  0  0  0
  195.9950  174.8360  136.6940 C   0  0  0  0  0  0  0  0  0  0  0  0
  193.2150  174.8260  137.0560 C   0  0  0  0  0  0  0  0  0  0  0  0
  191.4680  175.7870  134.9630 C   0  0  0  0  0  2  0  0  0  0  0  0
  195.1530  175.1550  135.6260 C   0  0  0  0  0  3  0  0  0  0  0  0
  189.0930  176.0930  137.0560 C   0  0  2  0  0  3  0  0  0  0  0  0
  191.3770  176.1320  138.0850 C   0  0  0  0  0  2  0  0  0  0  0  0
  192.8990  175.4100  134.5940 C   0  0  0  0  0  2  0  0  0  0  0  0
  188.6290  178.4290  137.1410 C   0  0  0  0  0  2  0  0  0  0  0  0
  189.4700  174.9690  136.1800 N   0  0  0  0  0  0  0  0  0  0  0  0
  189.2230  177.3640  136.3360 N   0  0  0  0  0  2  0  0  0  0  0  0
  197.3720  174.8390  136.5170 O   0  0  0  0  0  1  0  0  0  0  0  0
  195.4530  174.5070  137.9380 C   0  0  0  0  0  3  0  0  0  0  0  0
  190.9240  174.8020  135.9930 C   0  0  2  0  0  3  0  0  0  0  0  0
  189.4300  178.6280  138.4250 C   0  0  0  0  0  2  0  0  0  0  0  0
  189.8850  176.1190  138.3810 C   0  0  1  0  0  3  0  0  0  0  0  0
  190.0860  177.4350  140.6000 C   0  0  0  0  0  2  0  0  0  0  0  0
  189.1100  177.4480  141.6840 N   0  0  0  0  0  0  0  0  0  0  0  0
  187.8640  176.6370  143.5770 C   0  0  1  0  0  3  0  0  0  0  0  0
  187.8780  178.2080  141.6610 C   0  0  0  0  0  3  0  0  0  0  0  0
  189.9750  175.6510  142.9280 O   0  0  0  0  0  0  0  0  0  0  0  0
  189.0760  176.5140  142.7410 C   0  0  0  0  0  0  0  0  0  0  0  0
  188.2410  177.0560  144.9850 C   0  0  0  0  0  1  0  0  0  0  0  0
  187.0880  177.7720  142.9040 C   0  0  0  0  0  3  0  0  0  0  0  0
  1 21  1  1  0  0  0
  4  7  1  0  0  0  0
  5 11  1  6  0  0  0
  6 17  2  0  0  0  0
  7  5  1  0  0  0  0
  7  2  2  0  0  0  0
  9  4  2  0  0  0  0
  9  6  1  0  0  0  0
 10 15  1  6  0  0  0
 10 20  1  0  0  0  0
 12  8  1  0  0  0  0
 12  4  1  0  0  0  0
 13 19  1  0  0  0  0
 14  3  1  0  0  0  0
 14 10  1  0  0  0  0
 15 13  1  0  0  0  0
 16  6  1  0  0  0  0
 17  2  1  0  0  0  0
 18  8  1  6  0  0  0
 18 14  1  0  0  0  0
 18  5  1  0  0  0  0
 19  1  1  0  0  0  0
 20 11  1  6  0  0  0
 20  1  1  0  0  0  0
 21 22  1  0  0  0  0
 22 26  1  0  0  0  0
 23 27  1  1  0  0  0
 24 22  1  0  0  0  0
 24 28  2  0  0  0  0
 26 25  2  0  0  0  0
 26 23  1  0  0  0  0
 28 23  1  0  0  0  0
M  END
>  <MODEL>
1

>  <REMARK>
 VINA RESULT:      -7.4      0.000      0.000
  Name = 
  2 active torsions:
  status: ('A' for Active; 'I' for Inactive)
    1  A    between atoms: C_1  and  C_2
    2  A    between atoms: C_2  and  N_3
                            x       y       z     vdW  Elec       q    Type
                         _______ _______ _______ _____ _____    ______ ____

>  <TORSDO>
F 2

$$$$
=
 OpenBabel11052413203D

 28 32  0  0  1  0  0  0  0  0999 V2000
  183.5870  176.4480  137.7460 C   0  0  1  0  0  3  0  0  0  0  0  0
  184.6920  179.0340  142.5180 C   0  0  0  0  0  3  0  0  0  0  0  0
  181.8370  180.4510  138.1830 C   0  0  0  0  0  1  0  0  0  0  0  0
  182.3240  178.8290  143.0280 C   0  0  0  0  0  0  0  0  0  0  0  0
  183.0850  179.0070  140.6020 C   0  0  1  0  0  3  0  0  0  0  0  0
  183.9650  178.8090  144.8140 C   0  0  0  0  0  0  0  0  0  0  0  0
  183.3630  178.9790  142.0810 C   0  0  0  0  0  0  0  0  0  0  0  0
  180.6580  178.5560  141.1530 C   0  0  0  0  0  2  0  0  0  0  0  0
  182.6350  178.7570  144.3890 C   0  0  0  0  0  3  0  0  0  0  0  0
  181.7250  178.0710  138.1960 C   0  0  2  0  0  3  0  0  0  0  0  0
  183.4340  177.6630  139.9820 C   0  0  0  0  0  2  0  0  0  0  0  0
  180.8750  178.8760  142.6290 C   0  0  0  0  0  2  0  0  0  0  0  0
  181.1860  175.8040  137.6990 C   0  0  0  0  0  2  0  0  0  0  0  0
  181.2670  179.3010  138.8690 N   0  0  0  0  0  0  0  0  0  0  0  0
  180.8550  176.9450  138.5500 N   0  0  0  0  0  2  0  0  0  0  0  0
  184.2640  178.7260  146.1670 O   0  0  0  0  0  1  0  0  0  0  0  0
  184.9920  178.9510  143.8800 C   0  0  0  0  0  3  0  0  0  0  0  0
  181.6180  179.3800  140.3000 C   0  0  2  0  0  3  0  0  0  0  0  0
  182.5980  175.3120  138.0030 C   0  0  0  0  0  2  0  0  0  0  0  0
  183.2070  177.7420  138.4800 C   0  0  1  0  0  3  0  0  0  0  0  0
  185.0570  176.0350  137.8830 C   0  0  0  0  0  2  0  0  0  0  0  0
  185.9520  176.8910  137.1120 N   0  0  0  0  0  0  0  0  0  0  0  0
  187.3230  178.8020  136.5980 C   0  0  1  0  0  3  0  0  0  0  0  0
  185.9960  176.9290  135.6650 C   0  0  0  0  0  3  0  0  0  0  0  0
  186.6950  178.2620  138.8710 O   0  0  0  0  0  0  0  0  0  0  0  0
  186.6600  177.9910  137.6400 C   0  0  0  0  0  0  0  0  0  0  0  0
  188.8290  178.7380  136.7650 C   0  0  0  0  0  1  0  0  0  0  0  0
  186.9290  178.0930  135.3000 C   0  0  0  0  0  3  0  0  0  0  0  0
  1 21  1  1  0  0  0
  1 19  1  0  0  0  0
  1 20  1  0  0  0  0
  2 17  1  0  0  0  0
  3 14  1  0  0  0  0
  4  9  2  0  0  0  0
  5 11  1  1  0  0  0
  5  7  1  0  0  0  0
  6 16  1  0  0  0  0
  7  2  2  0  0  0  0
  7  4  1  0  0  0  0
  8 12  1  0  0  0  0
  9  6  1  0  0  0  0
 10 20  1  0  0  0  0
 10 15  1  1  0  0  0
 10 14  1  0  0  0  0
 12  4  1  0  0  0  0
 13 19  1  0  0  0  0
 13 15  1  0  0  0  0
 14 18  1  0  0  0  0
 17  6  2  0  0  0  0
 18  5  1  0  0  0  0
 18  8  1  1  0  0  0
 20 11  1  1  0  0  0
 22 26  1  0  0  0  0
 22 21  1  0  0  0  0
 23 27  1  1  0  0  0
 23 26  1  0  0  0  0
 24 22  1  0  0  0  0
 26 25  2  0  0  0  0
 28 24  2  0  0  0  0
 28 23  1  0  0  0  0
M  END
>  <MODEL>
2

>  <REMARK>
 VINA RESULT:      -7.3      5.398     10.266
  Name = 
  2 active torsions:
  status: ('A' for Active; 'I' for Inactive)
    1  A    between atoms: C_1  and  C_2
    2  A    between atoms: C_2  and  N_3
                            x       y       z     vdW  Elec       q    Type
                         _______ _______ _______ _____ _____    ______ ____

>  <TORSDO>
F 2

$$$$
=
 OpenBabel11052413203D

 28 32  0  0  1  0  0  0  0  0999 V2000
  182.0100  175.8880  138.4300 C   0  0  1  0  0  3  0  0  0  0  0  0
  184.9470  178.5300  142.3120 C   0  0  0  0  0  3  0  0  0  0  0  0
  181.1300  180.1650  138.8900 C   0  0  0  0  0  1  0  0  0  0  0  0
  182.8580  178.8000  143.5260 C   0  0  0  0  0  0  0  0  0  0  0  0
  182.8350  178.6760  140.9800 C   0  0  1  0  0  3  0  0  0  0  0  0
  184.9530  178.5940  144.7300 C   0  0  0  0  0  0  0  0  0  0  0  0
  183.5560  178.6930  142.3010 C   0  0  0  0  0  0  0  0  0  0  0  0
  180.6650  178.7170  142.2790 C   0  0  0  0  0  2  0  0  0  0  0  0
  183.5650  178.7610  144.7310 C   0  0  0  0  0  3  0  0  0  0  0  0
  180.6600  177.8520  139.2190 C   0  0  2  0  0  3  0  0  0  0  0  0
  182.7580  177.2530  140.4490 C   0  0  0  0  0  2  0  0  0  0  0  0
  181.3820  179.0870  143.5740 C   0  0  0  0  0  2  0  0  0  0  0  0
  179.6470  175.6960  139.1790 C   0  0  0  0  0  2  0  0  0  0  0  0
  180.6340  179.1860  139.8460 N   0  0  0  0  0  0  0  0  0  0  0  0
  179.7810  176.9320  139.9470 N   0  0  0  0  0  2  0  0  0  0  0  0
  185.6460  178.5460  145.9320 O   0  0  0  0  0  1  0  0  0  0  0  0
  185.6430  178.4830  143.5220 C   0  0  0  0  0  3  0  0  0  0  0  0
  181.4250  179.2930  141.0870 C   0  0  2  0  0  3  0  0  0  0  0  0
  180.9890  174.9730  139.1040 C   0  0  0  0  0  2  0  0  0  0  0  0
  182.0860  177.2750  139.0850 C   0  0  1  0  0  3  0  0  0  0  0  0
  183.3660  175.2210  138.1700 C   0  0  0  0  0  2  0  0  0  0  0  0
  183.2700  174.1030  137.2380 N   0  0  0  0  0  0  0  0  0  0  0  0
  183.9500  172.1280  136.0410 C   0  0  1  0  0  3  0  0  0  0  0  0
  182.4710  174.1160  136.0310 C   0  0  0  0  0  3  0  0  0  0  0  0
  185.0360  172.8080  138.0930 O   0  0  0  0  0  0  0  0  0  0  0  0
  184.1520  173.0020  137.2150 C   0  0  0  0  0  0  0  0  0  0  0  0
  183.4780  170.7570  136.4860 C   0  0  0  0  0  1  0  0  0  0  0  0
  182.8210  172.8250  135.2760 C   0  0  0  0  0  3  0  0  0  0  0  0
  1 21  1  1  0  0  0
  1 20  1  0  0  0  0
  1 19  1  0  0  0  0
  2 17  1  0  0  0  0
  3 14  1  0  0  0  0
  4 12  1  0  0  0  0
  4  9  2  0  0  0  0
  5 11  1  1  0  0  0
  5 18  1  0  0  0  0
  5  7  1  0  0  0  0
  6  9  1  0  0  0  0
  6 16  1  0  0  0  0
  7  2  2  0  0  0  0
  7  4  1  0  0  0  0
  8 12  1  0  0  0  0
 10 14  1  0  0  0  0
 10 15  1  1  0  0  0
 13 15  1  0  0  0  0
 14 18  1  0  0  0  0
 17  6  2  0  0  0  0
 18  8  1  1  0  0  0
 19 13  1  0  0  0  0
 20 10  1  0  0  0  0
 20 11  1  1  0  0  0
 22 21  1  0  0  0  0
 23 27  1  1  0  0  0
 23 26  1  0  0  0  0
 24 22  1  0  0  0  0
 26 22  1  0  0  0  0
 26 25  2  0  0  0  0
 28 24  2  0  0  0  0
 28 23  1  0  0  0  0
M  END
>  <MODEL>
3

>  <REMARK>
 VINA RESULT:      -7.2      7.673     10.911
  Name = 
  2 active torsions:
  status: ('A' for Active; 'I' for Inactive)
    1  A    between atoms: C_1  and  C_2
    2  A    between atoms: C_2  and  N_3
                            x       y       z     vdW  Elec       q    Type
                         _______ _______ _______ _____ _____    ______ ____

>  <TORSDO>
F 2

$$$$
=
 OpenBabel11052413203D

 28 32  0  0  1  0  0  0  0  0999 V2000
  189.9510  175.1030  136.9150 C   0  0  1  0  0  3  0  0  0  0  0  0
  191.5230  177.4360  141.6860 C   0  0  0  0  0  3  0  0  0  0  0  0
  189.1870  179.4130  137.2600 C   0  0  0  0  0  1  0  0  0  0  0  0
  189.1620  177.8050  142.1340 C   0  0  0  0  0  0  0  0  0  0  0  0
  190.0000  177.7570  139.7280 C   0  0  1  0  0  3  0  0  0  0  0  0
  190.7090  177.4290  143.9640 C   0  0  0  0  0  0  0  0  0  0  0  0
  190.2290  177.6890  141.2140 C   0  0  0  0  0  0  0  0  0  0  0  0
  187.5230  177.9010  140.2180 C   0  0  0  0  0  2  0  0  0  0  0  0
  189.4150  177.6850  143.5040 C   0  0  0  0  0  3  0  0  0  0  0  0
  188.5160  177.1280  137.2970 C   0  0  2  0  0  3  0  0  0  0  0  0
  190.0370  176.3580  139.1320 C   0  0  0  0  0  2  0  0  0  0  0  0
  187.7750  178.1860  141.6950 C   0  0  0  0  0  2  0  0  0  0  0  0
  187.4670  175.0440  136.8100 C   0  0  0  0  0  2  0  0  0  0  0  0
  188.3450  178.4420  137.9430 N   0  0  0  0  0  0  0  0  0  0  0  0
  187.3950  176.2450  137.6390 N   0  0  0  0  0  2  0  0  0  0  0  0
  190.9480  177.3010  145.3250 O   0  0  0  0  0  1  0  0  0  0  0  0
  191.7620  177.3080  143.0560 C   0  0  0  0  0  3  0  0  0  0  0  0
  188.6710  178.4610  139.3820 C   0  0  2  0  0  3  0  0  0  0  0  0
  188.7160  174.2380  137.1580 C   0  0  0  0  0  2  0  0  0  0  0  0
  189.8700  176.4630  137.6240 C   0  0  1  0  0  3  0  0  0  0  0  0
  191.2780  174.3580  137.0960 C   0  0  0  0  0  2  0  0  0  0  0  0
  192.3640  174.9540  136.3250 N   0  0  0  0  0  0  0  0  0  0  0  0
  194.3520  176.2420  135.8940 C   0  0  1  0  0  3  0  0  0  0  0  0
  192.2660  175.3160  134.9270 C   0  0  0  0  0  3  0  0  0  0  0  0
  193.7980  175.4640  138.1160 O   0  0  0  0  0  0  0  0  0  0  0  0
  193.5230  175.5300  136.8880 C   0  0  0  0  0  0  0  0  0  0  0  0
  195.6970  175.5570  135.7500 C   0  0  0  0  0  1  0  0  0  0  0  0
  193.5600  176.0740  134.5940 C   0  0  0  0  0  3  0  0  0  0  0  0
  1 21  1  1  0  0  0
  1 19  1  0  0  0  0
  1 20  1  0  0  0  0
  2 17  1  0  0  0  0
  3 14  1  0  0  0  0
  4  9  2  0  0  0  0
  5 11  1  1  0  0  0
  5  7  1  0  0  0  0
  6 16  1  0  0  0  0
  7  2  2  0  0  0  0
  7  4  1  0  0  0  0
  8 12  1  0  0  0  0
  9  6  1  0  0  0  0
 10 20  1  0  0  0  0
 10 15  1  1  0  0  0
 10 14  1  0  0  0  0
 12  4  1  0  0  0  0
 13 19  1  0  0  0  0
 13 15  1  0  0  0  0
 14 18  1  0  0  0  0
 17  6  2  0  0  0  0
 18  5  1  0  0  0  0
 18  8  1  1  0  0  0
 20 11  1  1  0  0  0
 22 26  1  0  0  0  0
 22 21  1  0  0  0  0
 23 27  1  6  0  0  0
 23 26  1  0  0  0  0
 24 22  1  0  0  0  0
 26 25  2  0  0  0  0
 28 24  2  0  0  0  0
 28 23  1  0  0  0  0
M  END
>  <MODEL>
4

>  <REMARK>
 VINA RESULT:      -7.0      1.792      6.992
  Name = 
  2 active torsions:
  status: ('A' for Active; 'I' for Inactive)
    1  A    between atoms: C_1  and  C_2
    2  A    between atoms: C_2  and  N_3
                            x       y       z     vdW  Elec       q    Type
                         _______ _______ _______ _____ _____    ______ ____

>  <TORSDO>
F 2

$$$$
=
 OpenBabel11052413203D

 28 32  0  0  1  0  0  0  0  0999 V2000
  189.0880  177.4560  137.9820 C   0  0  1  0  0  3  0  0  0  0  0  0
  183.9250  178.9830  139.2810 C   0  0  0  0  0  3  0  0  0  0  0  0
  186.3280  177.8850  134.5940 C   0  0  0  0  0  1  0  0  0  0  0  0
  183.2220  176.7810  138.5280 C   0  0  0  0  0  0  0  0  0  0  0  0
  185.2750  177.8770  137.4900 C   0  0  1  0  0  3  0  0  0  0  0  0
  182.0110  177.9110  140.2990 C   0  0  0  0  0  0  0  0  0  0  0  0
  184.1030  177.8840  138.4320 C   0  0  0  0  0  0  0  0  0  0  0  0
  184.6580  175.4970  136.8990 C   0  0  0  0  0  2  0  0  0  0  0  0
  182.1750  176.8110  139.4540 C   0  0  0  0  0  3  0  0  0  0  0  0
  187.5530  176.6040  136.1860 C   0  0  2  0  0  3  0  0  0  0  0  0
  186.5580  177.5990  138.2580 C   0  0  0  0  0  2  0  0  0  0  0  0
  183.2940  175.6250  137.5700 C   0  0  0  0  0  2  0  0  0  0  0  0
  189.0760  175.0890  137.2190 C   0  0  0  0  0  2  0  0  0  0  0  0
  186.2700  176.7250  135.4710 N   0  0  0  0  0  0  0  0  0  0  0  0
  187.7110  175.2480  136.7210 N   0  0  0  0  0  2  0  0  0  0  0  0
  180.9750  177.9270  141.2230 O   0  0  0  0  0  1  0  0  0  0  0  0
  182.8820  178.9980  140.2100 C   0  0  0  0  0  3  0  0  0  0  0  0
  185.0920  176.8540  136.3500 C   0  0  2  0  0  3  0  0  0  0  0  0
  189.3110  176.0080  138.4140 C   0  0  0  0  0  2  0  0  0  0  0  0
  187.7310  177.6660  137.2930 C   0  0  1  0  0  3  0  0  0  0  0  0
  189.4310  178.4880  139.0620 C   0  0  0  0  0  2  0  0  0  0  0  0
  189.5820  177.8860  140.3820 N   0  0  0  0  0  0  0  0  0  0  0  0
  189.1860  177.5190  142.7280 C   0  0  1  0  0  3  0  0  0  0  0  0
  190.8080  177.2880  140.8690 C   0  0  0  0  0  3  0  0  0  0  0  0
  187.5780  178.6660  141.3320 O   0  0  0  0  0  0  0  0  0  0  0  0
  188.6820  178.0690  141.4530 C   0  0  0  0  0  0  0  0  0  0  0  0
  188.3000  176.3780  143.1910 C   0  0  0  0  0  1  0  0  0  0  0  0
  190.5630  176.9660  142.3510 C   0  0  0  0  0  3  0  0  0  0  0  0
  1 19  1  0  0  0  0
  1 21  1  1  0  0  0
  2 17  1  0  0  0  0
  3 14  1  0  0  0  0
  4  9  2  0  0  0  0
  5 11  1  1  0  0  0
  5  7  1  0  0  0  0
  6 16  1  0  0  0  0
  7  4  1  0  0  0  0
  7  2  2  0  0  0  0
  8 12  1  0  0  0  0
  9  6  1  0  0  0  0
 10 15  1  1  0  0  0
 10 20  1  0  0  0  0
 12  4  1  0  0  0  0
 13 19  1  0  0  0  0
 14 10  1  0  0  0  0
 14 18  1  0  0  0  0
 15 13  1  0  0  0  0
 17  6  2  0  0  0  0
 18  8  1  1  0  0  0
 18  5  1  0  0  0  0
 20  1  1  0  0  0  0
 20 11  1  1  0  0  0
 21 22  1  0  0  0  0
 22 24  1  0  0  0  0
 22 26  1  0  0  0  0
 23 27  1  6  0  0  0
 24 28  2  0  0  0  0
 25 26  2  0  0  0  0
 26 23  1  0  0  0  0
 28 23  1  0  0  0  0
M  END
>  <MODEL>
5

>  <REMARK>
 VINA RESULT:      -6.5      3.879      7.634
  Name = 
  2 active torsions:
  status: ('A' for Active; 'I' for Inactive)
    1  A    between atoms: C_1  and  C_2
    2  A    between atoms: C_2  and  N_3
                            x       y       z     vdW  Elec       q    Type
                         _______ _______ _______ _____ _____    ______ ____

>  <TORSDO>
F 2

$$$$
=
 OpenBabel11052413203D

 28 32  0  0  1  0  0  0  0  0999 V2000
  184.7550  178.2540  139.4280 C   0  0  1  0  0  3  0  0  0  0  0  0
  180.8110  181.1670  136.8500 C   0  0  0  0  0  3  0  0  0  0  0  0
  180.6960  176.5990  139.6920 C   0  0  0  0  0  1  0  0  0  0  0  0
  179.8920  181.6280  139.0530 C   0  0  0  0  0  0  0  0  0  0  0  0
  181.1640  179.4580  138.6420 C   0  0  1  0  0  3  0  0  0  0  0  0
  179.6500  183.2470  137.2640 C   0  0  0  0  0  0  0  0  0  0  0  0
  180.5890  180.7670  138.1730 C   0  0  0  0  0  0  0  0  0  0  0  0
  180.4040  180.0740  140.9740 C   0  0  0  0  0  2  0  0  0  0  0  0
  179.4190  182.8570  138.5860 C   0  0  0  0  0  3  0  0  0  0  0  0
  182.5700  177.7800  140.5710 C   0  0  2  0  0  3  0  0  0  0  0  0
  182.6650  179.5940  138.8450 C   0  0  0  0  0  2  0  0  0  0  0  0
  179.5270  181.2060  140.4490 C   0  0  0  0  0  2  0  0  0  0  0  0
  184.4410  178.4470  141.8870 C   0  0  0  0  0  2  0  0  0  0  0  0
  181.0980  177.7430  140.4980 N   0  0  0  0  0  0  0  0  0  0  0  0
  183.0010  178.6120  141.6990 N   0  0  0  0  0  2  0  0  0  0  0  0
  179.1860  184.4750  136.8120 O   0  0  0  0  0  1  0  0  0  0  0  0
  180.3430  182.4010  136.3960 C   0  0  0  0  0  3  0  0  0  0  0  0
  180.4840  178.9600  139.9340 C   0  0  2  0  0  3  0  0  0  0  0  0
  185.1970  179.0030  140.6840 C   0  0  0  0  0  2  0  0  0  0  0  0
  183.2290  178.2410  139.2530 C   0  0  1  0  0  3  0  0  0  0  0  0
  185.5460  178.6280  138.1700 C   0  0  0  0  0  2  0  0  0  0  0  0
  186.5850  177.6540  137.8520 N   0  0  0  0  0  0  0  0  0  0  0  0
  188.7790  176.8240  137.3120 C   0  0  1  0  0  3  0  0  0  0  0  0
  186.3420  176.3960  137.1770 C   0  0  0  0  0  3  0  0  0  0  0  0
  188.4540  179.0030  138.3110 O   0  0  0  0  0  0  0  0  0  0  0  0
  187.9700  177.9230  137.8770 C   0  0  0  0  0  0  0  0  0  0  0  0
  189.6600  176.2180  138.3880 C   0  0  0  0  0  1  0  0  0  0  0  0
  187.7260  175.7970  136.8860 C   0  0  0  0  0  3  0  0  0  0  0  0
  1 21  1  6  0  0  0
  1 19  1  0  0  0  0
  2  7  1  0  0  0  0
  3 14  1  0  0  0  0
  4 12  1  0  0  0  0
  5 11  1  1  0  0  0
  5 18  1  0  0  0  0
  6  9  2  0  0  0  0
  7  5  1  0  0  0  0
  7  4  2  0  0  0  0
  9  4  1  0  0  0  0
 10 15  1  1  0  0  0
 12  8  1  0  0  0  0
 14 10  1  0  0  0  0
 15 13  1  0  0  0  0
 16  6  1  0  0  0  0
 17  2  2  0  0  0  0
 17  6  1  0  0  0  0
 18 14  1  0  0  0  0
 18  8  1  1  0  0  0
 19 13  1  0  0  0  0
 20 11  1  1  0  0  0
 20  1  1  0  0  0  0
 20 10  1  0  0  0  0
 22 26  1  0  0  0  0
 22 21  1  0  0  0  0
 23 26  1  0  0  0  0
 23 27  1  1  0  0  0
 24 22  1  0  0  0  0
 26 25  2  0  0  0  0
 28 24  2  0  0  0  0
 28 23  1  0  0  0  0
M  END
>  <MODEL>
6

>  <REMARK>
 VINA RESULT:      -6.2      6.888     11.225
  Name = 
  2 active torsions:
  status: ('A' for Active; 'I' for Inactive)
    1  A    between atoms: C_1  and  C_2
    2  A    between atoms: C_2  and  N_3
                            x       y       z     vdW  Elec       q    Type
                         _______ _______ _______ _____ _____    ______ ____

>  <TORSDO>
F 2

$$$$
=
 OpenBabel11052413203D

 28 32  0  0  1  0  0  0  0  0999 V2000
  187.7730  177.8900  138.3800 C   0  0  1  0  0  3  0  0  0  0  0  0
  192.6310  175.2380  138.1510 C   0  0  0  0  0  3  0  0  0  0  0  0
  187.5560  173.6170  137.3930 C   0  0  0  0  0  1  0  0  0  0  0  0
  192.2300  174.9790  135.7670 C   0  0  0  0  0  0  0  0  0  0  0  0
  190.2570  175.1000  137.3750 C   0  0  1  0  0  3  0  0  0  0  0  0
  194.4950  175.1770  136.6100 C   0  0  0  0  0  0  0  0  0  0  0  0
  191.7330  175.0810  137.0870 C   0  0  0  0  0  0  0  0  0  0  0  0
  189.8710  175.0690  134.8760 C   0  0  0  0  0  2  0  0  0  0  0  0
  193.6090  175.0160  135.5420 C   0  0  0  0  0  3  0  0  0  0  0  0
  187.5140  175.9320  136.8300 C   0  0  2  0  0  3  0  0  0  0  0  0
  189.8020  176.5230  137.6610 C   0  0  0  0  0  2  0  0  0  0  0  0
  191.3240  174.6970  134.6000 C   0  0  0  0  0  2  0  0  0  0  0  0
  186.8400  178.0920  136.0840 C   0  0  0  0  0  2  0  0  0  0  0  0
  187.9770  174.5980  136.4040 N   0  0  0  0  0  0  0  0  0  0  0  0
  187.5150  176.8570  135.6920 N   0  0  0  0  0  2  0  0  0  0  0  0
  195.8620  175.2230  136.3760 O   0  0  0  0  0  1  0  0  0  0  0  0
  194.0060  175.2840  137.9140 C   0  0  0  0  0  3  0  0  0  0  0  0
  189.4370  174.4900  136.2200 C   0  0  2  0  0  3  0  0  0  0  0  0
  187.6410  178.8090  137.1680 C   0  0  0  0  0  2  0  0  0  0  0  0
  188.3230  176.5030  138.0150 C   0  0  1  0  0  3  0  0  0  0  0  0
  188.4410  178.5500  139.5920 C   0  0  0  0  0  2  0  0  0  0  0  0
  187.7930  178.1950  140.8500 N   0  0  0  0  0  0  0  0  0  0  0  0
  186.3470  178.4260  142.7610 C   0  0  1  0  0  3  0  0  0  0  0  0
  188.3890  177.3480  141.8610 C   0  0  0  0  0  3  0  0  0  0  0  0
  186.0160  179.7310  140.7510 O   0  0  0  0  0  0  0  0  0  0  0  0
  186.6630  178.8520  141.3820 C   0  0  0  0  0  0  0  0  0  0  0  0
  185.0000  177.7300  142.7950 C   0  0  0  0  0  1  0  0  0  0  0  0
  187.4470  177.4080  143.0730 C   0  0  0  0  0  3  0  0  0  0  0  0
  1 21  1  1  0  0  0
  4  7  1  0  0  0  0
  5 11  1  6  0  0  0
  6 17  2  0  0  0  0
  7  5  1  0  0  0  0
  7  2  2  0  0  0  0
  9  4  2  0  0  0  0
  9  6  1  0  0  0  0
 10 15  1  6  0  0  0
 10 20  1  0  0  0  0
 12  8  1  0  0  0  0
 12  4  1  0  0  0  0
 13 19  1  0  0  0  0
 14 10  1  0  0  0  0
 14  3  1  0  0  0  0
 15 13  1  0  0  0  0
 16  6  1  0  0  0  0
 17  2  1  0  0  0  0
 18  8  1  6  0  0  0
 18 14  1  0  0  0  0
 18  5  1  0  0  0  0
 19  1  1  0  0  0  0
 20 11  1  6  0  0  0
 20  1  1  0  0  0  0
 21 22  1  0  0  0  0
 22 26  1  0  0  0  0
 22 24  1  0  0  0  0
 23 27  1  6  0  0  0
 23 28  1  0  0  0  0
 24 28  2  0  0  0  0
 25 26  2  0  0  0  0
 26 23  1  0  0  0  0
M  END
>  <MODEL>
7

>  <REMARK>
 VINA RESULT:      -5.9      1.767      2.226
  Name = 
  2 active torsions:
  status: ('A' for Active; 'I' for Inactive)
    1  A    between atoms: C_1  and  C_2
    2  A    between atoms: C_2  and  N_3
                            x       y       z     vdW  Elec       q    Type
                         _______ _______ _______ _____ _____    ______ ____

>  <TORSDO>
F 2

$$$$
=
 OpenBabel11052413203D

 28 32  0  0  1  0  0  0  0  0999 V2000
  188.9970  177.7130  139.0660 C   0  0  1  0  0  3  0  0  0  0  0  0
  186.1130  173.2880  137.4000 C   0  0  0  0  0  3  0  0  0  0  0  0
  184.6710  178.3250  138.6250 C   0  0  0  0  0  1  0  0  0  0  0  0
  185.6750  174.5090  135.3430 C   0  0  0  0  0  0  0  0  0  0  0  0
  186.0220  175.7840  137.5220 C   0  0  1  0  0  3  0  0  0  0  0  0
  185.8380  172.0890  135.3170 C   0  0  0  0  0  0  0  0  0  0  0  0
  185.9100  174.5050  136.7380 C   0  0  0  0  0  0  0  0  0  0  0  0
  185.8010  177.0290  135.3320 C   0  0  0  0  0  2  0  0  0  0  0  0
  185.6300  173.2970  134.6470 C   0  0  0  0  0  3  0  0  0  0  0  0
  186.9310  178.5310  137.8970 C   0  0  2  0  0  3  0  0  0  0  0  0
  187.4830  176.0890  137.8140 C   0  0  0  0  0  2  0  0  0  0  0  0
  185.3400  175.7720  134.6000 C   0  0  0  0  0  2  0  0  0  0  0  0
  189.0510  179.3940  137.2340 C   0  0  0  0  0  2  0  0  0  0  0  0
  185.5470  178.2670  137.4630 N   0  0  0  0  0  0  0  0  0  0  0  0
  187.7570  178.9190  136.7490 N   0  0  0  0  0  2  0  0  0  0  0  0
  185.8010  170.8920  134.6160 O   0  0  0  0  0  1  0  0  0  0  0  0
  186.0750  172.0840  136.6930 C   0  0  0  0  0  3  0  0  0  0  0  0
  185.3560  176.9680  136.7900 C   0  0  2  0  0  3  0  0  0  0  0  0
  189.8170  178.2520  137.8960 C   0  0  0  0  0  2  0  0  0  0  0  0
  187.5600  177.3480  138.6640 C   0  0  1  0  0  3  0  0  0  0  0  0
  189.7250  176.6520  139.8990 C   0  0  0  0  0  2  0  0  0  0  0  0
  189.8010  177.0060  141.3120 N   0  0  0  0  0  0  0  0  0  0  0  0
  190.8040  177.4030  143.4640 C   0  0  1  0  0  3  0  0  0  0  0  0
  188.7200  176.8210  142.2570 C   0  0  0  0  0  3  0  0  0  0  0  0
  192.1180  177.3800  141.4340 O   0  0  0  0  0  0  0  0  0  0  0  0
  190.9990  177.2800  142.0050 C   0  0  0  0  0  0  0  0  0  0  0  0
  191.1230  178.8150  143.9170 C   0  0  0  0  0  1  0  0  0  0  0  0
  189.3050  177.1450  143.6400 C   0  0  0  0  0  3  0  0  0  0  0  0
  1 21  1  6  0  0  0
  4  7  2  0  0  0  0
  5 11  1  6  0  0  0
  6 17  1  0  0  0  0
  7  2  1  0  0  0  0
  7  5  1  0  0  0  0
  9  6  2  0  0  0  0
  9  4  1  0  0  0  0
 10 15  1  6  0  0  0
 10 20  1  0  0  0  0
 12  8  1  0  0  0  0
 12  4  1  0  0  0  0
 13 19  1  0  0  0  0
 14 10  1  0  0  0  0
 14  3  1  0  0  0  0
 15 13  1  0  0  0  0
 16  6  1  0  0  0  0
 17  2  2  0  0  0  0
 18  8  1  6  0  0  0
 18 14  1  0  0  0  0
 18  5  1  0  0  0  0
 19  1  1  0  0  0  0
 20 11  1  6  0  0  0
 20  1  1  0  0  0  0
 21 22  1  0  0  0  0
 22 26  1  0  0  0  0
 22 24  1  0  0  0  0
 23 28  1  0  0  0  0
 23 27  1  6  0  0  0
 24 28  2  0  0  0  0
 25 26  2  0  0  0  0
 26 23  1  0  0  0  0
M  END
>  <MODEL>
8

>  <REMARK>
 VINA RESULT:      -5.8      3.878      5.856
  Name = 
  2 active torsions:
  status: ('A' for Active; 'I' for Inactive)
    1  A    between atoms: C_1  and  C_2
    2  A    between atoms: C_2  and  N_3
                            x       y       z     vdW  Elec       q    Type
                         _______ _______ _______ _____ _____    ______ ____

>  <TORSDO>
F 2

$$$$
=
 OpenBabel11052413203D

 28 32  0  0  1  0  0  0  0  0999 V2000
  184.1010  178.5830  142.2760 C   0  0  1  0  0  3  0  0  0  0  0  0
  181.6360  181.0170  137.9540 C   0  0  0  0  0  3  0  0  0  0  0  0
  180.3260  176.7580  140.9720 C   0  0  0  0  0  1  0  0  0  0  0  0
  179.8590  181.6490  139.4890 C   0  0  0  0  0  0  0  0  0  0  0  0
  181.1910  179.5170  139.9060 C   0  0  1  0  0  3  0  0  0  0  0  0
  180.4030  183.0670  137.5980 C   0  0  0  0  0  0  0  0  0  0  0  0
  180.8680  180.7410  139.0930 C   0  0  0  0  0  0  0  0  0  0  0  0
  179.5020  180.3240  141.6070 C   0  0  0  0  0  2  0  0  0  0  0  0
  179.6280  182.8000  138.7300 C   0  0  0  0  0  3  0  0  0  0  0  0
  181.6390  178.1150  142.4250 C   0  0  2  0  0  3  0  0  0  0  0  0
  182.4590  179.7490  140.7130 C   0  0  0  0  0  2  0  0  0  0  0  0
  178.9310  181.3520  140.6350 C   0  0  0  0  0  2  0  0  0  0  0  0
  182.7630  179.0060  144.3290 C   0  0  0  0  0  2  0  0  0  0  0  0
  180.3400  177.9960  141.7380 N   0  0  0  0  0  0  0  0  0  0  0  0
  181.5420  179.0770  143.5280 N   0  0  0  0  0  2  0  0  0  0  0  0
  180.1730  184.2170  136.8560 O   0  0  0  0  0  1  0  0  0  0  0  0
  181.4030  182.1740  137.2090 C   0  0  0  0  0  3  0  0  0  0  0  0
  180.0230  179.1170  140.8330 C   0  0  2  0  0  3  0  0  0  0  0  0
  183.9600  179.4760  143.5080 C   0  0  0  0  0  2  0  0  0  0  0  0
  182.7970  178.4740  141.4710 C   0  0  1  0  0  3  0  0  0  0  0  0
  185.3550  178.8680  141.4410 C   0  0  0  0  0  2  0  0  0  0  0  0
  186.5590  178.2850  142.0230 N   0  0  0  0  0  0  0  0  0  0  0  0
  188.7680  177.3310  142.0970 C   0  0  1  0  0  3  0  0  0  0  0  0
  186.5770  177.5040  143.2420 C   0  0  0  0  0  3  0  0  0  0  0  0
  188.0040  178.6260  140.2020 O   0  0  0  0  0  0  0  0  0  0  0  0
  187.7860  178.1390  141.3440 C   0  0  0  0  0  0  0  0  0  0  0  0
  189.9630  178.1830  142.4780 C   0  0  0  0  0  1  0  0  0  0  0  0
  188.0010  176.9420  143.3640 C   0  0  0  0  0  3  0  0  0  0  0  0
  1 21  1  6  0  0  0
  1 19  1  0  0  0  0
  2  7  1  0  0  0  0
  3 14  1  0  0  0  0
  4 12  1  0  0  0  0
  5 11  1  1  0  0  0
  5 18  1  0  0  0  0
  6  9  2  0  0  0  0
  7  4  2  0  0  0  0
  7  5  1  0  0  0  0
  9  4  1  0  0  0  0
 10 15  1  1  0  0  0
 12  8  1  0  0  0  0
 14 10  1  0  0  0  0
 15 13  1  0  0  0  0
 16  6  1  0  0  0  0
 17  6  1  0  0  0  0
 17  2  2  0  0  0  0
 18  8  1  1  0  0  0
 18 14  1  0  0  0  0
 19 13  1  0  0  0  0
 20 11  1  1  0  0  0
 20  1  1  0  0  0  0
 20 10  1  0  0  0  0
 21 22  1  0  0  0  0
 22 24  1  0  0  0  0
 23 27  1  1  0  0  0
 23 28  1  0  0  0  0
 24 28  2  0  0  0  0
 25 26  2  0  0  0  0
 26 22  1  0  0  0  0
 26 23  1  0  0  0  0
M  END
>  <MODEL>
9

>  <REMARK>
 VINA RESULT:      -5.8      6.727     11.224
  Name = 
  2 active torsions:
  status: ('A' for Active; 'I' for Inactive)
    1  A    between atoms: C_1  and  C_2
    2  A    between atoms: C_2  and  N_3
                            x       y       z     vdW  Elec       q    Type
                         _______ _______ _______ _____ _____    ______ ____

>  <TORSDO>
F 2

$$$$
