=
 OpenBabel11052414083D

 34 38  0  0  1  0  0  0  0  0999 V2000
  184.7960  178.7420  144.3400 C   0  0  0  0  0  0  0  0  0  0  0  0
  186.8350  177.4200  144.3610 C   0  0  0  0  0  0  0  0  0  0  0  0
  185.9110  178.3580  142.1960 C   0  0  0  0  0  0  0  0  0  0  0  0
  186.8640  178.1120  139.9190 C   0  0  2  0  0  3  0  0  0  0  0  0
  185.8040  178.1200  146.4450 C   0  0  0  0  0  3  0  0  0  0  0  0
  186.8000  177.4300  145.7600 C   0  0  0  0  0  3  0  0  0  0  0  0
  188.5090  178.0400  141.7200 C   0  0  0  0  0  2  0  0  0  0  0  0
  185.8880  178.1810  143.6180 C   0  0  0  0  0  0  0  0  0  0  0  0
  188.4300  178.1660  138.9980 S   0  0  0  0  0  0  0  0  0  0  0  0
  184.7860  178.7460  145.7360 C   0  0  0  0  0  3  0  0  0  0  0  0
  183.6470  179.2640  142.2830 C   0  0  0  0  0  3  0  0  0  0  0  0
  183.6900  179.2630  143.6700 C   0  0  0  0  0  3  0  0  0  0  0  0
  187.6800  176.3530  143.7570 C   0  0  0  0  0  1  0  0  0  0  0  0
  185.9210  178.9840  139.3420 O   0  0  0  0  0  0  0  0  0  0  0  0
  184.6770  178.8860  140.0290 C   0  0  2  0  0  3  0  0  0  0  0  0
  189.4090  178.3070  140.5300 C   0  0  2  0  0  3  0  0  0  0  0  0
  187.1480  178.5460  141.3360 C   0  0  2  0  0  3  0  0  0  0  0  0
  184.7400  178.8120  141.5460 C   0  0  0  0  0  0  0  0  0  0  0  0
  181.5130  177.4560  138.4620 C   0  0  1  0  0  3  0  0  0  0  0  0
  181.6790  176.6630  137.3270 O   0  0  0  0  0  1  0  0  0  0  0  0
  183.6400  177.9590  139.3640 C   0  0  2  0  0  3  0  0  0  0  0  0
  181.6750  176.6310  139.6610 N   0  0  0  0  0  2  0  0  0  0  0  0
  182.5640  178.5470  138.4730 C   0  0  2  0  0  3  0  0  0  0  0  0
  182.9170  177.0380  140.3140 C   0  0  0  0  0  2  0  0  0  0  0  0
  181.9310  179.8100  139.0340 C   0  0  0  0  0  1  0  0  0  0  0  0
  190.5560  177.3150  140.5080 C   0  0  0  0  0  2  0  0  0  0  0  0
  191.4270  177.5650  141.6010 O   0  0  0  0  0  0  0  0  0  0  0  0
  191.2590  176.9580  142.8470 C   0  0  0  0  0  0  0  0  0  0  0  0
  191.0420  175.7200  142.9010 O   0  0  0  0  0  0  0  0  0  0  0  0
  191.3740  177.8930  144.3760 S   0  0  0  0  0  0  0  0  0  0  0  0
  191.7100  176.4150  145.3810 C   0  0  0  0  0  2  0  0  0  0  0  0
  190.0740  176.7590  147.2070 C   0  0  0  0  0  1  0  0  0  0  0  0
  192.2390  175.6810  147.6980 C   0  0  0  0  0  1  0  0  0  0  0  0
  191.5470  176.7340  146.8570 C   0  0  0  0  0  3  0  0  0  0  0  0
  1 10  2  0  0  0  0
  2  6  1  0  0  0  0
  3  8  1  0  0  0  0
  4  9  1  6  0  0  0
  4 17  1  0  0  0  0
  6  5  2  0  0  0  0
  8  1  1  0  0  0  0
  8  2  2  0  0  0  0
  9 16  1  0  0  0  0
 10  5  1  0  0  0  0
 11 12  2  0  0  0  0
 12  1  1  0  0  0  0
 13  2  1  0  0  0  0
 14  4  1  0  0  0  0
 15 14  1  6  0  0  0
 15 18  1  0  0  0  0
 16 26  1  6  0  0  0
 16  7  1  0  0  0  0
 17  7  1  1  0  0  0
 17  3  1  0  0  0  0
 18  3  2  0  0  0  0
 18 11  1  0  0  0  0
 19 20  1  6  0  0  0
 19 23  1  0  0  0  0
 19 22  1  0  0  0  0
 21 15  1  0  0  0  0
 21 24  1  1  0  0  0
 22 24  1  0  0  0  0
 23 25  1  1  0  0  0
 23 21  1  0  0  0  0
 26 27  1  0  0  0  0
 27 28  1  0  0  0  0
 28 29  2  0  0  0  0
 28 30  1  0  0  0  0
 30 31  1  0  0  0  0
 31 34  1  0  0  0  0
 34 32  1  0  0  0  0
 34 33  1  0  0  0  0
M  END
>  <MODEL>
1

>  <REMARK>
 VINA RESULT:      -9.7      0.000      0.000
  Name = 
  7 active torsions:
  status: ('A' for Active; 'I' for Inactive)
    1  A    between atoms: O_3  and  C_13
    2  A    between atoms: O_3  and  C_17
    3  A    between atoms: S_11  and  C_13
    4  A    between atoms: S_11  and  C_14
    5  A    between atoms: C_12  and  C_28
    6  A    between atoms: C_14  and  C_34
    7  A    between atoms: C_17  and  C_29
                            x       y       z     vdW  Elec       q    Type
                         _______ _______ _______ _____ _____    ______ ____

>  <TORSDO>
F 7

$$$$
=
 OpenBabel11052414083D

 34 38  0  0  1  0  0  0  0  0999 V2000
  185.3200  178.6330  145.5520 C   0  0  0  0  0  0  0  0  0  0  0  0
  187.1220  177.4170  144.4650 C   0  0  0  0  0  0  0  0  0  0  0  0
  185.2220  178.4130  143.1160 C   0  0  0  0  0  0  0  0  0  0  0  0
  184.9130  178.3290  140.6570 C   0  0  2  0  0  3  0  0  0  0  0  0
  187.2590  177.9600  146.8280 C   0  0  0  0  0  3  0  0  0  0  0  0
  187.7920  177.3570  145.6920 C   0  0  0  0  0  3  0  0  0  0  0  0
  187.2390  178.2520  141.3900 C   0  0  0  0  0  2  0  0  0  0  0  0
  185.9160  178.1650  144.3450 C   0  0  0  0  0  0  0  0  0  0  0  0
  185.8070  178.5090  139.0850 S   0  0  0  0  0  0  0  0  0  0  0  0
  186.0100  178.5670  146.7640 C   0  0  0  0  0  3  0  0  0  0  0  0
  183.2870  179.1960  144.3810 C   0  0  0  0  0  3  0  0  0  0  0  0
  184.0180  179.1280  145.5590 C   0  0  0  0  0  3  0  0  0  0  0  0
  187.5730  176.4270  143.4480 C   0  0  0  0  0  1  0  0  0  0  0  0
  183.7910  179.1790  140.6880 O   0  0  0  0  0  0  0  0  0  0  0  0
  183.0590  178.9830  141.8940 C   0  0  2  0  0  3  0  0  0  0  0  0
  187.4180  178.6240  139.9320 C   0  0  2  0  0  3  0  0  0  0  0  0
  185.8590  178.7070  141.7700 C   0  0  2  0  0  3  0  0  0  0  0  0
  183.8740  178.8370  143.1680 C   0  0  0  0  0  0  0  0  0  0  0  0
  179.8640  177.2500  140.7530 C   0  0  1  0  0  3  0  0  0  0  0  0
  179.8610  175.8560  140.7870 O   0  0  0  0  0  1  0  0  0  0  0  0
  181.8480  178.0380  141.7720 C   0  0  2  0  0  3  0  0  0  0  0  0
  179.4910  177.7710  142.0690 N   0  0  0  0  0  2  0  0  0  0  0  0
  181.2550  177.7430  140.4080 C   0  0  2  0  0  3  0  0  0  0  0  0
  180.6760  178.3970  142.6500 C   0  0  0  0  0  2  0  0  0  0  0  0
  181.1180  178.9720  139.5240 C   0  0  0  0  0  1  0  0  0  0  0  0
  188.4190  177.6940  139.2740 C   0  0  0  0  0  2  0  0  0  0  0  0
  189.1850  177.0320  140.2710 O   0  0  0  0  0  0  0  0  0  0  0  0
  190.5280  176.7010  140.0850 C   0  0  0  0  0  0  0  0  0  0  0  0
  190.8390  175.8860  139.1780 O   0  0  0  0  0  0  0  0  0  0  0  0
  191.8270  177.4290  141.0890 S   0  0  0  0  0  0  0  0  0  0  0  0
  191.0980  176.8440  142.6500 C   0  0  0  0  0  2  0  0  0  0  0  0
  190.7290  178.9440  143.9100 C   0  0  0  0  0  1  0  0  0  0  0  0
  191.4820  176.9220  145.1060 C   0  0  0  0  0  1  0  0  0  0  0  0
  191.5830  177.6970  143.8090 C   0  0  0  0  0  3  0  0  0  0  0  0
  1 12  1  0  0  0  0
  1 10  2  0  0  0  0
  2  6  1  0  0  0  0
  3 18  2  0  0  0  0
  3  8  1  0  0  0  0
  4  9  1  6  0  0  0
  4 14  1  0  0  0  0
  4 17  1  0  0  0  0
  6  5  2  0  0  0  0
  8  2  2  0  0  0  0
  8  1  1  0  0  0  0
  9 16  1  0  0  0  0
 10  5  1  0  0  0  0
 11 12  2  0  0  0  0
 13  2  1  0  0  0  0
 15 14  1  6  0  0  0
 15 18  1  0  0  0  0
 16 26  1  6  0  0  0
 16  7  1  0  0  0  0
 17  7  1  6  0  0  0
 17  3  1  0  0  0  0
 18 11  1  0  0  0  0
 19 20  1  1  0  0  0
 19 22  1  0  0  0  0
 21 15  1  0  0  0  0
 21 24  1  1  0  0  0
 22 24  1  0  0  0  0
 23 25  1  6  0  0  0
 23 19  1  0  0  0  0
 23 21  1  0  0  0  0
 26 27  1  0  0  0  0
 28 27  1  0  0  0  0
 28 30  1  0  0  0  0
 29 28  2  0  0  0  0
 30 31  1  0  0  0  0
 31 34  1  0  0  0  0
 34 32  1  0  0  0  0
 34 33  1  0  0  0  0
M  END
>  <MODEL>
2

>  <REMARK>
 VINA RESULT:      -9.7      1.869      2.473
  Name = 
  7 active torsions:
  status: ('A' for Active; 'I' for Inactive)
    1  A    between atoms: O_3  and  C_13
    2  A    between atoms: O_3  and  C_17
    3  A    between atoms: S_11  and  C_13
    4  A    between atoms: S_11  and  C_14
    5  A    between atoms: C_12  and  C_28
    6  A    between atoms: C_14  and  C_34
    7  A    between atoms: C_17  and  C_29
                            x       y       z     vdW  Elec       q    Type
                         _______ _______ _______ _____ _____    ______ ____

>  <TORSDO>
F 7

$$$$
=
 OpenBabel11052414083D

 34 38  0  0  1  0  0  0  0  0999 V2000
  184.7570  178.7150  145.1010 C   0  0  0  0  0  0  0  0  0  0  0  0
  186.8640  177.5660  144.7220 C   0  0  0  0  0  0  0  0  0  0  0  0
  185.4420  178.3540  142.7790 C   0  0  0  0  0  0  0  0  0  0  0  0
  185.9290  178.1120  140.3590 C   0  0  2  0  0  3  0  0  0  0  0  0
  186.2220  178.2470  146.9630 C   0  0  0  0  0  3  0  0  0  0  0  0
  187.1140  177.6190  146.0980 C   0  0  0  0  0  3  0  0  0  0  0  0
  187.9060  178.2340  141.7850 C   0  0  0  0  0  2  0  0  0  0  0  0
  185.7240  178.2220  144.1780 C   0  0  0  0  0  0  0  0  0  0  0  0
  187.2640  178.2640  139.1350 S   0  0  0  0  0  0  0  0  0  0  0  0
  185.0310  178.7640  146.4680 C   0  0  0  0  0  3  0  0  0  0  0  0
  183.1730  179.0740  143.3150 C   0  0  0  0  0  3  0  0  0  0  0  0
  183.4970  179.1210  144.6640 C   0  0  0  0  0  3  0  0  0  0  0  0
  187.6590  176.5530  143.9730 C   0  0  0  0  0  1  0  0  0  0  0  0
  184.8170  178.8850  139.9750 O   0  0  0  0  0  0  0  0  0  0  0  0
  183.7510  178.7080  140.9040 C   0  0  2  0  0  3  0  0  0  0  0  0
  188.5190  178.5350  140.4310 C   0  0  2  0  0  3  0  0  0  0  0  0
  186.4570  178.6140  141.6800 C   0  0  2  0  0  3  0  0  0  0  0  0
  184.1280  178.6880  142.3760 C   0  0  0  0  0  0  0  0  0  0  0  0
  181.2480  176.6280  138.9230 C   0  0  1  0  0  3  0  0  0  0  0  0
  181.2430  175.2550  139.1670 O   0  0  0  0  0  1  0  0  0  0  0  0
  182.6860  177.6780  140.4810 C   0  0  2  0  0  3  0  0  0  0  0  0
  180.3960  177.3010  139.9060 N   0  0  0  0  0  2  0  0  0  0  0  0
  182.6610  177.1580  139.0570 C   0  0  2  0  0  3  0  0  0  0  0  0
  181.2640  178.0780  140.7870 C   0  0  0  0  0  2  0  0  0  0  0  0
  182.8640  178.2410  138.0100 C   0  0  0  0  0  1  0  0  0  0  0  0
  189.7190  177.6400  140.1890 C   0  0  0  0  0  2  0  0  0  0  0  0
  190.1530  177.0790  141.4190 O   0  0  0  0  0  0  0  0  0  0  0  0
  191.3150  177.5030  142.0660 C   0  0  0  0  0  0  0  0  0  0  0  0
  192.4160  177.4260  141.4630 O   0  0  0  0  0  0  0  0  0  0  0  0
  191.2750  178.1840  143.7280 S   0  0  0  0  0  0  0  0  0  0  0  0
  191.4620  176.5550  144.5160 C   0  0  0  0  0  2  0  0  0  0  0  0
  190.3800  177.1280  146.6680 C   0  0  0  0  0  1  0  0  0  0  0  0
  192.1470  175.4070  146.6140 C   0  0  0  0  0  1  0  0  0  0  0  0
  191.6800  176.7150  146.0100 C   0  0  0  0  0  3  0  0  0  0  0  0
  1 10  2  0  0  0  0
  2  6  1  0  0  0  0
  3  8  1  0  0  0  0
  4  9  1  6  0  0  0
  4 17  1  0  0  0  0
  6  5  2  0  0  0  0
  8  2  2  0  0  0  0
  8  1  1  0  0  0  0
  9 16  1  0  0  0  0
 10  5  1  0  0  0  0
 11 12  2  0  0  0  0
 12  1  1  0  0  0  0
 13  2  1  0  0  0  0
 14  4  1  0  0  0  0
 15 14  1  6  0  0  0
 15 18  1  0  0  0  0
 16 26  1  6  0  0  0
 16  7  1  0  0  0  0
 17  7  1  1  0  0  0
 17  3  1  0  0  0  0
 18  3  2  0  0  0  0
 18 11  1  0  0  0  0
 19 23  1  0  0  0  0
 19 20  1  1  0  0  0
 19 22  1  0  0  0  0
 21 24  1  6  0  0  0
 21 15  1  0  0  0  0
 22 24  1  0  0  0  0
 23 25  1  6  0  0  0
 23 21  1  0  0  0  0
 26 27  1  0  0  0  0
 27 28  1  0  0  0  0
 28 30  1  0  0  0  0
 29 28  2  0  0  0  0
 30 31  1  0  0  0  0
 31 34  1  0  0  0  0
 34 33  1  0  0  0  0
 34 32  1  0  0  0  0
M  END
>  <MODEL>
3

>  <REMARK>
 VINA RESULT:      -9.7      1.073      1.214
  Name = 
  7 active torsions:
  status: ('A' for Active; 'I' for Inactive)
    1  A    between atoms: O_3  and  C_13
    2  A    between atoms: O_3  and  C_17
    3  A    between atoms: S_11  and  C_13
    4  A    between atoms: S_11  and  C_14
    5  A    between atoms: C_12  and  C_28
    6  A    between atoms: C_14  and  C_34
    7  A    between atoms: C_17  and  C_29
                            x       y       z     vdW  Elec       q    Type
                         _______ _______ _______ _____ _____    ______ ____

>  <TORSDO>
F 7

$$$$
=
 OpenBabel11052414083D

 34 38  0  0  1  0  0  0  0  0999 V2000
  185.7130  178.5240  145.0320 C   0  0  0  0  0  0  0  0  0  0  0  0
  187.6840  177.3080  144.2940 C   0  0  0  0  0  0  0  0  0  0  0  0
  186.0610  178.2990  142.6190 C   0  0  0  0  0  0  0  0  0  0  0  0
  186.2060  178.2090  140.1450 C   0  0  2  0  0  3  0  0  0  0  0  0
  187.3860  177.8560  146.6410 C   0  0  0  0  0  3  0  0  0  0  0  0
  188.1180  177.2510  145.6230 C   0  0  0  0  0  3  0  0  0  0  0  0
  188.3600  178.1350  141.2910 C   0  0  0  0  0  2  0  0  0  0  0  0
  186.5200  178.0540  143.9550 C   0  0  0  0  0  0  0  0  0  0  0  0
  187.3730  178.3860  138.7620 S   0  0  0  0  0  0  0  0  0  0  0  0
  186.1700  178.4620  146.3490 C   0  0  0  0  0  3  0  0  0  0  0  0
  183.9280  179.0840  143.5080 C   0  0  0  0  0  3  0  0  0  0  0  0
  184.4320  179.0190  144.8000 C   0  0  0  0  0  3  0  0  0  0  0  0
  188.3130  176.3150  143.3800 C   0  0  0  0  0  1  0  0  0  0  0  0
  185.0980  179.0580  139.9680 O   0  0  0  0  0  0  0  0  0  0  0  0
  184.1580  178.8650  141.0210 C   0  0  2  0  0  3  0  0  0  0  0  0
  188.8020  178.5040  139.8890 C   0  0  2  0  0  3  0  0  0  0  0  0
  186.9330  178.5900  141.4110 C   0  0  2  0  0  3  0  0  0  0  0  0
  184.7270  178.7230  142.4230 C   0  0  0  0  0  0  0  0  0  0  0  0
  181.3490  177.0020  139.2470 C   0  0  1  0  0  3  0  0  0  0  0  0
  181.2690  175.6270  139.4710 O   0  0  0  0  0  1  0  0  0  0  0  0
  182.9890  177.9190  140.6820 C   0  0  2  0  0  3  0  0  0  0  0  0
  180.6370  177.7110  140.3120 N   0  0  0  0  0  2  0  0  0  0  0  0
  182.8010  177.4310  139.2600 C   0  0  2  0  0  3  0  0  0  0  0  0
  181.6330  178.4100  141.1210 C   0  0  0  0  0  2  0  0  0  0  0  0
  182.9850  178.5180  138.2130 C   0  0  0  0  0  1  0  0  0  0  0  0
  189.9070  177.5730  139.4270 C   0  0  0  0  0  2  0  0  0  0  0  0
  189.3400  176.4120  138.8390 O   0  0  0  0  0  0  0  0  0  0  0  0
  190.0200  175.6440  137.8920 C   0  0  0  0  0  0  0  0  0  0  0  0
  191.1640  175.2000  138.1700 O   0  0  0  0  0  0  0  0  0  0  0  0
  189.2930  175.2490  136.2980 S   0  0  0  0  0  0  0  0  0  0  0  0
  187.6520  174.9140  137.0080 C   0  0  0  0  0  2  0  0  0  0  0  0
  188.1930  172.5010  136.9000 C   0  0  0  0  0  1  0  0  0  0  0  0
  185.8590  173.2110  137.2700 C   0  0  0  0  0  1  0  0  0  0  0  0
  187.1550  173.5510  136.5630 C   0  0  0  0  0  3  0  0  0  0  0  0
  1 10  2  0  0  0  0
  2  6  1  0  0  0  0
  3  8  1  0  0  0  0
  4  9  1  6  0  0  0
  4 17  1  0  0  0  0
  6  5  2  0  0  0  0
  8  2  2  0  0  0  0
  8  1  1  0  0  0  0
  9 16  1  0  0  0  0
 10  5  1  0  0  0  0
 11 12  2  0  0  0  0
 12  1  1  0  0  0  0
 13  2  1  0  0  0  0
 14  4  1  0  0  0  0
 15 14  1  6  0  0  0
 15 18  1  0  0  0  0
 16 26  1  6  0  0  0
 16  7  1  0  0  0  0
 17  7  1  1  0  0  0
 17  3  1  0  0  0  0
 18  3  2  0  0  0  0
 18 11  1  0  0  0  0
 19 23  1  0  0  0  0
 19 20  1  1  0  0  0
 19 22  1  0  0  0  0
 21 15  1  0  0  0  0
 21 24  1  6  0  0  0
 22 24  1  0  0  0  0
 23 25  1  6  0  0  0
 23 21  1  0  0  0  0
 27 26  1  0  0  0  0
 28 29  2  0  0  0  0
 28 27  1  0  0  0  0
 30 31  1  0  0  0  0
 30 28  1  0  0  0  0
 34 32  1  0  0  0  0
 34 31  1  0  0  0  0
 34 33  1  0  0  0  0
M  END
>  <MODEL>
4

>  <REMARK>
 VINA RESULT:      -8.7      2.498      4.506
  Name = 
  7 active torsions:
  status: ('A' for Active; 'I' for Inactive)
    1  A    between atoms: O_3  and  C_13
    2  A    between atoms: O_3  and  C_17
    3  A    between atoms: S_11  and  C_13
    4  A    between atoms: S_11  and  C_14
    5  A    between atoms: C_12  and  C_28
    6  A    between atoms: C_14  and  C_34
    7  A    between atoms: C_17  and  C_29
                            x       y       z     vdW  Elec       q    Type
                         _______ _______ _______ _____ _____    ______ ____

>  <TORSDO>
F 7

$$$$
=
 OpenBabel11052414083D

 34 38  0  0  1  0  0  0  0  0999 V2000
  185.3150  178.6280  144.9680 C   0  0  0  0  0  0  0  0  0  0  0  0
  187.3870  177.4500  144.4890 C   0  0  0  0  0  0  0  0  0  0  0  0
  185.9140  178.3120  142.6160 C   0  0  0  0  0  0  0  0  0  0  0  0
  186.3130  178.1210  140.1760 C   0  0  2  0  0  3  0  0  0  0  0  0
  186.8350  178.0880  146.7670 C   0  0  0  0  0  3  0  0  0  0  0  0
  187.6850  177.4660  145.8560 C   0  0  0  0  0  3  0  0  0  0  0  0
  188.3400  178.1710  141.5340 C   0  0  0  0  0  2  0  0  0  0  0  0
  186.2410  178.1400  144.0010 C   0  0  0  0  0  0  0  0  0  0  0  0
  187.6080  178.2780  138.9100 S   0  0  0  0  0  0  0  0  0  0  0  0
  185.6370  178.6380  146.3260 C   0  0  0  0  0  3  0  0  0  0  0  0
  183.6780  179.0590  143.2480 C   0  0  0  0  0  3  0  0  0  0  0  0
  184.0500  179.0670  144.5860 C   0  0  0  0  0  3  0  0  0  0  0  0
  188.1360  176.4420  143.6900 C   0  0  0  0  0  1  0  0  0  0  0  0
  185.2030  178.9220  139.8490 O   0  0  0  0  0  0  0  0  0  0  0  0
  184.1670  178.7410  140.8100 C   0  0  2  0  0  3  0  0  0  0  0  0
  188.9120  178.4950  140.1680 C   0  0  2  0  0  3  0  0  0  0  0  0
  186.8950  178.5810  141.4890 C   0  0  2  0  0  3  0  0  0  0  0  0
  184.5940  178.6790  142.2670 C   0  0  0  0  0  0  0  0  0  0  0  0
  181.5800  176.7360  138.8600 C   0  0  1  0  0  3  0  0  0  0  0  0
  181.5430  175.3620  139.0990 O   0  0  0  0  0  1  0  0  0  0  0  0
  183.0690  177.7410  140.4000 C   0  0  2  0  0  3  0  0  0  0  0  0
  180.7610  177.4260  139.8590 N   0  0  0  0  0  2  0  0  0  0  0  0
  183.0080  177.2280  138.9750 C   0  0  2  0  0  3  0  0  0  0  0  0
  181.6630  178.1770  140.7290 C   0  0  0  0  0  2  0  0  0  0  0  0
  183.2230  178.3100  137.9280 C   0  0  0  0  0  1  0  0  0  0  0  0
  190.0850  177.5840  139.8630 C   0  0  0  0  0  2  0  0  0  0  0  0
  189.6370  176.4550  139.1280 O   0  0  0  0  0  0  0  0  0  0  0  0
  190.4590  175.7710  138.2310 C   0  0  0  0  0  0  0  0  0  0  0  0
  190.0650  174.6780  137.7480 O   0  0  0  0  0  0  0  0  0  0  0  0
  192.0540  176.4260  137.7250 S   0  0  0  0  0  0  0  0  0  0  0  0
  192.1780  175.3110  136.2930 C   0  0  0  0  0  2  0  0  0  0  0  0
  194.0340  174.6280  137.7810 C   0  0  0  0  0  1  0  0  0  0  0  0
  193.0320  172.9760  136.2470 C   0  0  0  0  0  1  0  0  0  0  0  0
  193.4100  174.4330  136.4150 C   0  0  0  0  0  3  0  0  0  0  0  0
  1 10  2  0  0  0  0
  2  6  1  0  0  0  0
  3  8  1  0  0  0  0
  4  9  1  6  0  0  0
  4 17  1  0  0  0  0
  6  5  2  0  0  0  0
  8  2  2  0  0  0  0
  8  1  1  0  0  0  0
  9 16  1  0  0  0  0
 10  5  1  0  0  0  0
 11 12  2  0  0  0  0
 12  1  1  0  0  0  0
 13  2  1  0  0  0  0
 14  4  1  0  0  0  0
 15 14  1  6  0  0  0
 15 18  1  0  0  0  0
 16 26  1  6  0  0  0
 16  7  1  0  0  0  0
 17  7  1  1  0  0  0
 17  3  1  0  0  0  0
 18  3  2  0  0  0  0
 18 11  1  0  0  0  0
 19 23  1  0  0  0  0
 19 20  1  1  0  0  0
 19 22  1  0  0  0  0
 21 24  1  6  0  0  0
 21 15  1  0  0  0  0
 22 24  1  0  0  0  0
 23 25  1  6  0  0  0
 23 21  1  0  0  0  0
 27 26  1  0  0  0  0
 28 27  1  0  0  0  0
 29 28  2  0  0  0  0
 30 28  1  0  0  0  0
 31 34  1  0  0  0  0
 31 30  1  0  0  0  0
 33 34  1  0  0  0  0
 34 32  1  0  0  0  0
M  END
>  <MODEL>
5

>  <REMARK>
 VINA RESULT:      -8.5      2.488      4.164
  Name = 
  7 active torsions:
  status: ('A' for Active; 'I' for Inactive)
    1  A    between atoms: O_3  and  C_13
    2  A    between atoms: O_3  and  C_17
    3  A    between atoms: S_11  and  C_13
    4  A    between atoms: S_11  and  C_14
    5  A    between atoms: C_12  and  C_28
    6  A    between atoms: C_14  and  C_34
    7  A    between atoms: C_17  and  C_29
                            x       y       z     vdW  Elec       q    Type
                         _______ _______ _______ _____ _____    ______ ____

>  <TORSDO>
F 7

$$$$
=
 OpenBabel11052414083D

 34 38  0  0  1  0  0  0  0  0999 V2000
  184.6210  178.9850  142.8450 C   0  0  0  0  0  0  0  0  0  0  0  0
  186.3730  177.7290  143.9680 C   0  0  0  0  0  0  0  0  0  0  0  0
  186.5560  178.3060  141.5080 C   0  0  0  0  0  0  0  0  0  0  0  0
  188.4100  177.7400  139.9610 C   0  0  2  0  0  3  0  0  0  0  0  0
  184.5560  178.7130  145.2440 C   0  0  0  0  0  3  0  0  0  0  0  0
  185.7190  177.9510  145.1850 C   0  0  0  0  0  3  0  0  0  0  0  0
  189.0750  177.9800  142.2970 C   0  0  0  0  0  2  0  0  0  0  0  0
  185.8930  178.3460  142.7780 C   0  0  0  0  0  0  0  0  0  0  0  0
  190.2230  177.6900  139.8400 S   0  0  0  0  0  0  0  0  0  0  0  0
  183.9920  179.2000  144.0710 C   0  0  0  0  0  3  0  0  0  0  0  0
  184.5360  179.1620  140.4400 C   0  0  0  0  0  3  0  0  0  0  0  0
  183.9560  179.3720  141.6830 C   0  0  0  0  0  3  0  0  0  0  0  0
  187.3470  176.6030  143.9690 C   0  0  0  0  0  1  0  0  0  0  0  0
  187.8650  178.4920  138.9030 O   0  0  0  0  0  0  0  0  0  0  0  0
  186.4420  178.4700  138.9670 C   0  0  2  0  0  3  0  0  0  0  0  0
  190.4230  178.0850  141.6100 C   0  0  2  0  0  3  0  0  0  0  0  0
  188.0540  178.3900  141.2750 C   0  0  2  0  0  3  0  0  0  0  0  0
  185.8200  178.6280  140.3440 C   0  0  0  0  0  0  0  0  0  0  0  0
  185.2890  176.4340  135.9600 C   0  0  1  0  0  3  0  0  0  0  0  0
  185.2690  175.0480  136.1130 O   0  0  0  0  0  1  0  0  0  0  0  0
  185.7680  177.4290  138.0520 C   0  0  2  0  0  3  0  0  0  0  0  0
  184.0350  176.9980  136.4630 N   0  0  0  0  0  2  0  0  0  0  0  0
  186.4390  177.0120  136.7580 C   0  0  2  0  0  3  0  0  0  0  0  0
  184.3410  177.7460  137.6800 C   0  0  0  0  0  2  0  0  0  0  0  0
  187.0250  178.1750  135.9740 C   0  0  0  0  0  1  0  0  0  0  0  0
  191.4110  177.1270  142.2490 C   0  0  0  0  0  2  0  0  0  0  0  0
  191.3890  177.2870  143.6600 O   0  0  0  0  0  0  0  0  0  0  0  0
  191.6810  176.2400  144.5360 C   0  0  0  0  0  0  0  0  0  0  0  0
  191.9740  175.1100  144.0660 O   0  0  0  0  0  0  0  0  0  0  0  0
  191.6800  176.4720  146.3170 S   0  0  0  0  0  0  0  0  0  0  0  0
  190.0440  177.2670  146.3210 C   0  0  0  0  0  2  0  0  0  0  0  0
  189.8140  178.4050  148.5080 C   0  0  0  0  0  1  0  0  0  0  0  0
  187.9120  177.1260  147.5940 C   0  0  0  0  0  1  0  0  0  0  0  0
  189.4220  177.1830  147.7030 C   0  0  0  0  0  3  0  0  0  0  0  0
  1 10  2  0  0  0  0
  2 13  1  0  0  0  0
  2  6  1  0  0  0  0
  3  8  1  0  0  0  0
  4 14  1  6  0  0  0
  4 17  1  0  0  0  0
  6  5  2  0  0  0  0
  8  1  1  0  0  0  0
  8  2  2  0  0  0  0
  9  4  1  0  0  0  0
  9 16  1  0  0  0  0
 10  5  1  0  0  0  0
 11 12  2  0  0  0  0
 12  1  1  0  0  0  0
 15 14  1  1  0  0  0
 15 18  1  0  0  0  0
 16 26  1  1  0  0  0
 16  7  1  0  0  0  0
 17  3  1  0  0  0  0
 17  7  1  1  0  0  0
 18 11  1  0  0  0  0
 18  3  2  0  0  0  0
 19 20  1  1  0  0  0
 19 22  1  0  0  0  0
 19 23  1  0  0  0  0
 21 24  1  6  0  0  0
 21 15  1  0  0  0  0
 22 24  1  0  0  0  0
 23 25  1  6  0  0  0
 23 21  1  0  0  0  0
 26 27  1  0  0  0  0
 27 28  1  0  0  0  0
 28 30  1  0  0  0  0
 29 28  2  0  0  0  0
 30 31  1  0  0  0  0
 31 34  1  0  0  0  0
 33 34  1  0  0  0  0
 34 32  1  0  0  0  0
M  END
>  <MODEL>
6

>  <REMARK>
 VINA RESULT:      -8.3      1.958      2.586
  Name = 
  7 active torsions:
  status: ('A' for Active; 'I' for Inactive)
    1  A    between atoms: O_3  and  C_13
    2  A    between atoms: O_3  and  C_17
    3  A    between atoms: S_11  and  C_13
    4  A    between atoms: S_11  and  C_14
    5  A    between atoms: C_12  and  C_28
    6  A    between atoms: C_14  and  C_34
    7  A    between atoms: C_17  and  C_29
                            x       y       z     vdW  Elec       q    Type
                         _______ _______ _______ _____ _____    ______ ____

>  <TORSDO>
F 7

$$$$
=
 OpenBabel11052414083D

 34 38  0  0  1  0  0  0  0  0999 V2000
  186.0240  178.4340  145.6530 C   0  0  0  0  0  0  0  0  0  0  0  0
  187.6380  177.1660  144.3520 C   0  0  0  0  0  0  0  0  0  0  0  0
  185.7040  178.3550  143.2270 C   0  0  0  0  0  0  0  0  0  0  0  0
  185.1820  178.4250  140.8040 C   0  0  2  0  0  3  0  0  0  0  0  0
  188.0120  177.5690  146.7170 C   0  0  0  0  0  3  0  0  0  0  0  0
  188.4040  176.9960  145.5110 C   0  0  0  0  0  3  0  0  0  0  0  0
  187.5520  178.1580  141.3240 C   0  0  0  0  0  2  0  0  0  0  0  0
  186.4810  177.9950  144.3760 C   0  0  0  0  0  0  0  0  0  0  0  0
  185.9490  178.6320  139.1690 S   0  0  0  0  0  0  0  0  0  0  0  0
  186.8080  178.2580  146.7930 C   0  0  0  0  0  3  0  0  0  0  0  0
  183.9420  179.1910  144.6940 C   0  0  0  0  0  3  0  0  0  0  0  0
  184.7640  179.0120  145.7980 C   0  0  0  0  0  3  0  0  0  0  0  0
  187.9320  176.2050  143.2530 C   0  0  0  0  0  1  0  0  0  0  0  0
  184.1280  179.3430  140.9740 O   0  0  0  0  0  0  0  0  0  0  0  0
  183.4890  179.1290  142.2300 C   0  0  2  0  0  3  0  0  0  0  0  0
  187.6310  178.5960  139.8750 C   0  0  2  0  0  3  0  0  0  0  0  0
  186.2430  178.6790  141.8450 C   0  0  2  0  0  3  0  0  0  0  0  0
  184.3980  178.8620  143.4190 C   0  0  0  0  0  0  0  0  0  0  0  0
  180.0810  177.6930  141.3160 C   0  0  1  0  0  3  0  0  0  0  0  0
  179.9860  176.3040  141.2450 O   0  0  0  0  0  1  0  0  0  0  0  0
  182.2100  178.2730  142.1690 C   0  0  2  0  0  3  0  0  0  0  0  0
  179.8840  178.1260  142.7010 N   0  0  0  0  0  2  0  0  0  0  0  0
  181.4590  178.1270  140.8600 C   0  0  2  0  0  3  0  0  0  0  0  0
  181.1630  178.6290  143.1950 C   0  0  0  0  0  2  0  0  0  0  0  0
  181.3170  179.4310  140.0910 C   0  0  0  0  0  1  0  0  0  0  0  0
  188.5060  177.6410  139.0870 C   0  0  0  0  0  2  0  0  0  0  0  0
  189.8740  177.9150  139.3510 O   0  0  0  0  0  0  0  0  0  0  0  0
  190.8000  176.9070  139.6240 C   0  0  0  0  0  0  0  0  0  0  0  0
  190.5860  176.1200  140.5820 O   0  0  0  0  0  0  0  0  0  0  0  0
  192.2770  176.6860  138.6250 S   0  0  0  0  0  0  0  0  0  0  0  0
  191.6990  175.1080  137.9280 C   0  0  0  0  0  2  0  0  0  0  0  0
  190.6980  176.0390  135.8630 C   0  0  0  0  0  1  0  0  0  0  0  0
  189.7630  173.9790  136.8480 C   0  0  0  0  0  1  0  0  0  0  0  0
  190.4050  175.3150  137.1610 C   0  0  0  0  0  3  0  0  0  0  0  0
  1 12  1  0  0  0  0
  1 10  2  0  0  0  0
  2  8  2  0  0  0  0
  2  6  1  0  0  0  0
  3 18  2  0  0  0  0
  3  8  1  0  0  0  0
  4  9  1  6  0  0  0
  4 14  1  0  0  0  0
  4 17  1  0  0  0  0
  5 10  1  0  0  0  0
  6  5  2  0  0  0  0
  8  1  1  0  0  0  0
  9 16  1  0  0  0  0
 11 12  2  0  0  0  0
 13  2  1  0  0  0  0
 15 14  1  6  0  0  0
 15 18  1  0  0  0  0
 16 26  1  6  0  0  0
 16  7  1  0  0  0  0
 17  7  1  6  0  0  0
 17  3  1  0  0  0  0
 18 11  1  0  0  0  0
 19 20  1  1  0  0  0
 19 22  1  0  0  0  0
 21 15  1  0  0  0  0
 21 24  1  1  0  0  0
 22 24  1  0  0  0  0
 23 25  1  1  0  0  0
 23 19  1  0  0  0  0
 23 21  1  0  0  0  0
 26 27  1  0  0  0  0
 27 28  1  0  0  0  0
 28 29  2  0  0  0  0
 30 28  1  0  0  0  0
 31 30  1  0  0  0  0
 32 34  1  0  0  0  0
 33 34  1  0  0  0  0
 34 31  1  0  0  0  0
M  END
>  <MODEL>
7

>  <REMARK>
 VINA RESULT:      -8.1      2.381      4.257
  Name = 
  7 active torsions:
  status: ('A' for Active; 'I' for Inactive)
    1  A    between atoms: O_3  and  C_13
    2  A    between atoms: O_3  and  C_17
    3  A    between atoms: S_11  and  C_13
    4  A    between atoms: S_11  and  C_14
    5  A    between atoms: C_12  and  C_28
    6  A    between atoms: C_14  and  C_34
    7  A    between atoms: C_17  and  C_29
                            x       y       z     vdW  Elec       q    Type
                         _______ _______ _______ _____ _____    ______ ____

>  <TORSDO>
F 7

$$$$
=
 OpenBabel11052414083D

 34 38  0  0  1  0  0  0  0  0999 V2000
  186.6770  178.4950  144.6520 C   0  0  0  0  0  0  0  0  0  0  0  0
  188.4660  177.0330  143.8960 C   0  0  0  0  0  0  0  0  0  0  0  0
  186.9310  178.1810  142.2380 C   0  0  0  0  0  0  0  0  0  0  0  0
  186.9980  178.0240  139.7640 C   0  0  2  0  0  3  0  0  0  0  0  0
  188.2990  177.6610  146.2360 C   0  0  0  0  0  3  0  0  0  0  0  0
  188.9250  176.9510  145.2150 C   0  0  0  0  0  3  0  0  0  0  0  0
  189.1570  177.7120  140.8590 C   0  0  0  0  0  2  0  0  0  0  0  0
  187.3920  177.9090  143.5670 C   0  0  0  0  0  0  0  0  0  0  0  0
  188.1400  178.0290  138.3490 S   0  0  0  0  0  0  0  0  0  0  0  0
  187.1580  178.4050  145.9590 C   0  0  0  0  0  3  0  0  0  0  0  0
  184.9330  179.2370  143.1580 C   0  0  0  0  0  3  0  0  0  0  0  0
  185.4590  179.1380  144.4390 C   0  0  0  0  0  3  0  0  0  0  0  0
  188.9460  175.9530  142.9900 C   0  0  0  0  0  1  0  0  0  0  0  0
  185.9960  178.9970  139.5930 O   0  0  0  0  0  0  0  0  0  0  0  0
  185.0680  178.9410  140.6720 C   0  0  2  0  0  3  0  0  0  0  0  0
  189.6030  177.9950  139.4380 C   0  0  2  0  0  3  0  0  0  0  0  0
  187.8000  178.3390  141.0020 C   0  0  2  0  0  3  0  0  0  0  0  0
  185.6530  178.7590  142.0640 C   0  0  0  0  0  0  0  0  0  0  0  0
  181.6960  177.7790  139.3340 C   0  0  1  0  0  3  0  0  0  0  0  0
  181.5920  176.4320  138.9850 O   0  0  0  0  0  1  0  0  0  0  0  0
  183.7850  178.1380  140.3840 C   0  0  2  0  0  3  0  0  0  0  0  0
  181.4350  177.9320  140.7670 N   0  0  0  0  0  2  0  0  0  0  0  0
  183.0990  178.2680  139.0390 C   0  0  2  0  0  3  0  0  0  0  0  0
  182.6930  178.3030  141.4100 C   0  0  0  0  0  2  0  0  0  0  0  0
  183.0070  179.7010  138.5380 C   0  0  0  0  0  1  0  0  0  0  0  0
  190.5740  176.9280  138.9720 C   0  0  0  0  0  2  0  0  0  0  0  0
  189.8540  175.8000  138.4960 O   0  0  0  0  0  0  0  0  0  0  0  0
  190.0370  175.2830  137.2130 C   0  0  0  0  0  0  0  0  0  0  0  0
  190.3340  176.0650  136.2720 O   0  0  0  0  0  0  0  0  0  0  0  0
  189.8900  173.5250  136.8740 S   0  0  0  0  0  0  0  0  0  0  0  0
  188.7800  173.7810  135.4560 C   0  0  0  0  0  2  0  0  0  0  0  0
  186.4800  174.5640  134.9790 C   0  0  0  0  0  1  0  0  0  0  0  0
  186.8330  172.2890  135.8660 C   0  0  0  0  0  1  0  0  0  0  0  0
  187.3310  173.7190  135.9040 C   0  0  0  0  0  3  0  0  0  0  0  0
  1 10  2  0  0  0  0
  2  6  1  0  0  0  0
  3  8  1  0  0  0  0
  4  9  1  6  0  0  0
  4 17  1  0  0  0  0
  6  5  2  0  0  0  0
  8  2  2  0  0  0  0
  8  1  1  0  0  0  0
  9 16  1  0  0  0  0
 10  5  1  0  0  0  0
 11 12  2  0  0  0  0
 12  1  1  0  0  0  0
 13  2  1  0  0  0  0
 14  4  1  0  0  0  0
 15 14  1  6  0  0  0
 15 18  1  0  0  0  0
 16 26  1  6  0  0  0
 16  7  1  0  0  0  0
 17  7  1  1  0  0  0
 17  3  1  0  0  0  0
 18  3  2  0  0  0  0
 18 11  1  0  0  0  0
 19 20  1  1  0  0  0
 19 22  1  0  0  0  0
 21 15  1  0  0  0  0
 21 24  1  1  0  0  0
 22 24  1  0  0  0  0
 23 25  1  1  0  0  0
 23 19  1  0  0  0  0
 23 21  1  0  0  0  0
 27 26  1  0  0  0  0
 28 27  1  0  0  0  0
 29 28  2  0  0  0  0
 30 28  1  0  0  0  0
 31 34  1  0  0  0  0
 31 30  1  0  0  0  0
 32 34  1  0  0  0  0
 33 34  1  0  0  0  0
M  END
>  <MODEL>
8

>  <REMARK>
 VINA RESULT:      -7.3      2.922      4.967
  Name = 
  7 active torsions:
  status: ('A' for Active; 'I' for Inactive)
    1  A    between atoms: O_3  and  C_13
    2  A    between atoms: O_3  and  C_17
    3  A    between atoms: S_11  and  C_13
    4  A    between atoms: S_11  and  C_14
    5  A    between atoms: C_12  and  C_28
    6  A    between atoms: C_14  and  C_34
    7  A    between atoms: C_17  and  C_29
                            x       y       z     vdW  Elec       q    Type
                         _______ _______ _______ _____ _____    ______ ____

>  <TORSDO>
F 7

$$$$
=
 OpenBabel11052414083D

 34 38  0  0  1  0  0  0  0  0999 V2000
  186.1780  177.7690  138.5080 C   0  0  0  0  0  0  0  0  0  0  0  0
  186.9080  178.6030  140.6710 C   0  0  0  0  0  0  0  0  0  0  0  0
  184.4480  178.5190  140.0690 C   0  0  0  0  0  0  0  0  0  0  0  0
  182.5270  179.2090  141.4780 C   0  0  2  0  0  3  0  0  0  0  0  0
  188.4950  177.5570  139.1590 C   0  0  0  0  0  3  0  0  0  0  0  0
  188.2120  178.2030  140.3600 C   0  0  0  0  0  3  0  0  0  0  0  0
  184.4790  178.4420  142.7280 C   0  0  0  0  0  2  0  0  0  0  0  0
  185.8350  178.2860  139.7910 C   0  0  0  0  0  0  0  0  0  0  0  0
  181.8730  179.1120  143.1710 S   0  0  0  0  0  0  0  0  0  0  0  0
  187.4850  177.3710  138.2230 C   0  0  0  0  0  3  0  0  0  0  0  0
  183.9180  178.0900  137.7260 C   0  0  0  0  0  3  0  0  0  0  0  0
  185.2260  177.6880  137.4940 C   0  0  0  0  0  3  0  0  0  0  0  0
  186.7990  179.6090  141.7640 C   0  0  0  0  0  1  0  0  0  0  0  0
  181.5760  178.7400  140.5530 O   0  0  0  0  0  0  0  0  0  0  0  0
  182.0710  178.8820  139.2250 C   0  0  2  0  0  3  0  0  0  0  0  0
  183.4080  178.3510  143.7980 C   0  0  2  0  0  3  0  0  0  0  0  0
  183.7610  178.3430  141.4120 C   0  0  2  0  0  3  0  0  0  0  0  0
  183.5270  178.5090  138.9970 C   0  0  0  0  0  0  0  0  0  0  0  0
  180.0070  181.8220  137.9560 C   0  0  1  0  0  3  0  0  0  0  0  0
  180.6690  183.0430  137.8280 O   0  0  0  0  0  1  0  0  0  0  0  0
  181.5890  180.1440  138.4840 C   0  0  2  0  0  3  0  0  0  0  0  0
  180.2110  181.0290  136.7420 N   0  0  0  0  0  2  0  0  0  0  0  0
  180.5750  181.0630  139.1370 C   0  0  2  0  0  3  0  0  0  0  0  0
  181.0680  179.8990  137.0900 C   0  0  0  0  0  2  0  0  0  0  0  0
  179.4340  180.3230  139.8190 C   0  0  0  0  0  1  0  0  0  0  0  0
  183.8650  179.0630  145.0560 C   0  0  0  0  0  2  0  0  0  0  0  0
  184.6700  178.1900  145.8350 O   0  0  0  0  0  0  0  0  0  0  0  0
  185.7580  178.6430  146.5830 C   0  0  0  0  0  0  0  0  0  0  0  0
  185.6260  179.6720  147.2970 O   0  0  0  0  0  0  0  0  0  0  0  0
  187.3330  177.7800  146.5780 S   0  0  0  0  0  0  0  0  0  0  0  0
  187.1020  177.1450  144.8890 C   0  0  0  0  0  2  0  0  0  0  0  0
  189.5470  177.5110  145.0200 C   0  0  0  0  0  1  0  0  0  0  0  0
  188.6200  176.1110  143.2120 C   0  0  0  0  0  1  0  0  0  0  0  0
  188.3740  177.3270  144.0800 C   0  0  0  0  0  3  0  0  0  0  0  0
  1  8  1  0  0  0  0
  2 13  1  0  0  0  0
  3 17  1  0  0  0  0
  4 14  1  6  0  0  0
  4  9  1  0  0  0  0
  5  6  2  0  0  0  0
  6  2  1  0  0  0  0
  7 16  1  0  0  0  0
  8  3  1  0  0  0  0
  8  2  2  0  0  0  0
  9 16  1  0  0  0  0
 10  1  2  0  0  0  0
 10  5  1  0  0  0  0
 11 18  1  0  0  0  0
 12 11  2  0  0  0  0
 12  1  1  0  0  0  0
 15 18  1  1  0  0  0
 15 14  1  0  0  0  0
 16 26  1  1  0  0  0
 17  4  1  0  0  0  0
 17  7  1  1  0  0  0
 18  3  2  0  0  0  0
 19 20  1  6  0  0  0
 19 23  1  0  0  0  0
 21 24  1  6  0  0  0
 21 23  1  0  0  0  0
 21 15  1  0  0  0  0
 22 24  1  0  0  0  0
 22 19  1  0  0  0  0
 23 25  1  6  0  0  0
 26 27  1  0  0  0  0
 27 28  1  0  0  0  0
 28 29  2  0  0  0  0
 30 28  1  0  0  0  0
 31 30  1  0  0  0  0
 33 34  1  0  0  0  0
 34 31  1  0  0  0  0
 34 32  1  0  0  0  0
M  END
>  <MODEL>
9

>  <REMARK>
 VINA RESULT:      -6.8      3.180      5.408
  Name = 
  7 active torsions:
  status: ('A' for Active; 'I' for Inactive)
    1  A    between atoms: O_3  and  C_13
    2  A    between atoms: O_3  and  C_17
    3  A    between atoms: S_11  and  C_13
    4  A    between atoms: S_11  and  C_14
    5  A    between atoms: C_12  and  C_28
    6  A    between atoms: C_14  and  C_34
    7  A    between atoms: C_17  and  C_29
                            x       y       z     vdW  Elec       q    Type
                         _______ _______ _______ _____ _____    ______ ____

>  <TORSDO>
F 7

$$$$
