=
 OpenBabel11052414273D

 32 36  0  0  1  0  0  0  0  0999 V2000
  185.1010  177.1580  137.1680 C   0  0  2  0  0  3  0  0  0  0  0  0
  187.5260  177.0230  137.2910 C   0  0  2  0  0  3  0  0  0  0  0  0
  183.8410  176.5050  136.6470 C   0  0  0  0  0  2  0  0  0  0  0  0
  186.2350  176.5460  136.8930 C   0  0  1  0  0  3  0  0  0  0  0  0
  188.2550  175.7130  137.2440 C   0  0  1  0  0  3  0  0  0  0  0  0
  187.4190  177.6450  138.6660 C   0  0  2  0  0  3  0  0  0  0  0  0
  189.8630  177.2020  139.3740 C   0  0  0  0  0  0  0  0  0  0  0  0
  186.3290  175.2100  136.3060 C   0  0  2  0  0  3  0  0  0  0  0  0
  190.2510  176.2530  138.5590 N   0  0  0  0  0  0  0  0  0  0  0  0
  187.7170  174.9810  136.1540 O   0  0  0  0  0  0  0  0  0  0  0  0
  185.5150  175.2390  135.0200 C   0  0  0  0  0  2  0  0  0  0  0  0
  186.4510  178.6860  138.6140 O   0  0  0  0  0  0  0  0  0  0  0  0
  185.1540  178.1620  138.3180 C   0  0  1  0  0  3  0  0  0  0  0  0
  188.7910  178.2260  139.0350 C   0  0  1  0  0  3  0  0  0  0  0  0
  189.7610  175.9180  137.2150 C   0  0  2  0  0  3  0  0  0  0  0  0
  184.0670  175.7470  135.2980 C   0  0  0  0  0  2  0  0  0  0  0  0
  189.2510  179.1330  138.0770 O   0  0  0  0  0  1  0  0  0  0  0  0
  184.0590  179.2450  138.3270 C   0  0  2  0  0  3  0  0  0  0  0  0
  184.1560  180.0960  139.4560 O   0  0  0  0  0  0  0  0  0  0  0  0
  183.0220  179.2610  139.4190 C   0  0  2  0  0  0  0  0  0  0  0  0
  182.9540  178.3020  140.6460 C   0  0  0  0  0  0  0  0  0  0  0  0
  182.6960  176.8830  140.1730 C   0  0  0  0  0  1  0  0  0  0  0  0
  181.7980  178.7020  141.5480 C   0  0  0  0  0  1  0  0  0  0  0  0
  184.1960  178.3090  141.5230 C   0  0  0  0  0  1  0  0  0  0  0  0
  181.0150  179.2750  138.0870 O   0  0  0  0  0  1  0  0  0  0  0  0
  181.7240  180.0060  139.0400 C   0  0  2  0  0  3  0  0  0  0  0  0
  181.9280  181.4330  138.5470 C   0  0  0  0  0  1  0  0  0  0  0  0
  190.1630  176.9300  136.2430 N   0  0  0  0  0  2  0  0  0  0  0  0
  190.8240  176.2370  135.1500 C   0  0  0  0  0  1  0  0  0  0  0  0
  190.4950  177.2740  140.6210 O   0  0  0  0  0  0  0  0  0  0  0  0
  190.2750  176.0490  142.6850 C   0  0  0  0  0  1  0  0  0  0  0  0
  189.7930  177.2260  141.8570 C   0  0  0  0  0  2  0  0  0  0  0  0
  1  3  1  1  0  0  0
  1 13  1  0  0  0  0
  2  6  1  0  0  0  0
  4  1  1  0  0  0  0
  4  2  1  0  0  0  0
  5  2  1  0  0  0  0
  6 14  1  0  0  0  0
  7 30  1  0  0  0  0
  8  4  1  0  0  0  0
  9  7  2  0  0  0  0
 10  8  1  0  0  0  0
 10  5  1  0  0  0  0
 11 16  1  0  0  0  0
 11  8  1  0  0  0  0
 12  6  1  0  0  0  0
 13 18  1  0  0  0  0
 13 12  1  0  0  0  0
 14  7  1  0  0  0  0
 15  5  1  0  0  0  0
 15  9  1  0  0  0  0
 16  3  1  0  0  0  0
 17 14  1  0  0  0  0
 18 20  1  0  0  0  0
 18 19  1  0  0  0  0
 20 19  1  0  0  0  0
 20 21  1  0  0  0  0
 21 24  1  0  0  0  0
 21 23  1  0  0  0  0
 22 21  1  0  0  0  0
 25 26  1  0  0  0  0
 26 20  1  0  0  0  0
 27 26  1  0  0  0  0
 28 15  1  0  0  0  0
 29 28  1  0  0  0  0
 30 32  1  0  0  0  0
 32 31  1  0  0  0  0
M  END
>  <MODEL>
1

>  <REMARK>
 VINA RESULT:      -6.5      0.000      0.000
  Name = 
  6 active torsions:
  status: ('A' for Active; 'I' for Inactive)
    1  A    between atoms: C_3  and  C_22
    2  A    between atoms: O_11  and  C_12
    3  A    between atoms: O_11  and  C_31
    4  A    between atoms: N_13  and  C_29
    5  A    between atoms: C_15  and  C_22
    6  A    between atoms: C_16  and  C_27
                            x       y       z     vdW  Elec       q    Type
                         _______ _______ _______ _____ _____    ______ ____

>  <TORSDO>
F 6

$$$$
=
 OpenBabel11052414273D

 32 36  0  0  1  0  0  0  0  0999 V2000
  189.1650  176.4760  137.6820 C   0  0  2  0  0  3  0  0  0  0  0  0
  188.9020  177.0450  140.0310 C   0  0  2  0  0  3  0  0  0  0  0  0
  188.6700  176.7250  136.2750 C   0  0  0  0  0  2  0  0  0  0  0  0
  188.5760  177.1600  138.6410 C   0  0  1  0  0  3  0  0  0  0  0  0
  188.3960  178.3860  140.4740 C   0  0  1  0  0  3  0  0  0  0  0  0
  190.3950  176.8490  140.1730 C   0  0  2  0  0  3  0  0  0  0  0  0
  190.6010  177.8850  142.5300 C   0  0  0  0  0  0  0  0  0  0  0  0
  187.6380  178.2590  138.4120 C   0  0  2  0  0  3  0  0  0  0  0  0
  189.5110  178.6010  142.6460 N   0  0  0  0  0  0  0  0  0  0  0  0
  187.2340  178.6610  139.7070 O   0  0  0  0  0  0  0  0  0  0  0  0
  186.5390  177.7150  137.5120 C   0  0  0  0  0  2  0  0  0  0  0  0
  190.7680  175.6930  139.4330 O   0  0  0  0  0  0  0  0  0  0  0  0
  190.5280  175.8810  138.0360 C   0  0  1  0  0  3  0  0  0  0  0  0
  190.7110  176.6420  141.6600 C   0  0  1  0  0  3  0  0  0  0  0  0
  188.2100  178.4360  141.9830 C   0  0  2  0  0  3  0  0  0  0  0  0
  187.1480  177.0760  136.2250 C   0  0  0  0  0  2  0  0  0  0  0  0
  189.9830  175.5820  142.2080 O   0  0  0  0  0  1  0  0  0  0  0  0
  190.9870  174.6800  137.1870 C   0  0  2  0  0  3  0  0  0  0  0  0
  191.9630  173.8960  137.8520 O   0  0  0  0  0  0  0  0  0  0  0  0
  192.4140  174.5940  136.7140 C   0  0  2  0  0  0  0  0  0  0  0  0
  193.5650  175.5920  137.0510 C   0  0  0  0  0  0  0  0  0  0  0  0
  194.1580  176.1400  135.7670 C   0  0  0  0  0  1  0  0  0  0  0  0
  194.6730  174.8660  137.7960 C   0  0  0  0  0  1  0  0  0  0  0  0
  193.1510  176.7560  137.9380 C   0  0  0  0  0  1  0  0  0  0  0  0
  191.5460  173.8500  134.5940 O   0  0  0  0  0  1  0  0  0  0  0  0
  192.6120  173.6890  135.4790 C   0  0  2  0  0  3  0  0  0  0  0  0
  192.8000  172.2110  135.7930 C   0  0  0  0  0  1  0  0  0  0  0  0
  187.5060  177.2660  142.4940 N   0  0  0  0  0  2  0  0  0  0  0  0
  187.1910  177.5280  143.8880 C   0  0  0  0  0  1  0  0  0  0  0  0
  191.7170  178.2910  143.2700 O   0  0  0  0  0  0  0  0  0  0  0  0
  191.3840  176.9770  145.2640 C   0  0  0  0  0  1  0  0  0  0  0  0
  191.7370  178.3380  144.6920 C   0  0  0  0  0  2  0  0  0  0  0  0
  1  3  1  6  0  0  0
  1 13  1  0  0  0  0
  1  4  1  0  0  0  0
  2  6  1  0  0  0  0
  2  5  1  0  0  0  0
  4  2  1  0  0  0  0
  5 15  1  0  0  0  0
  6 14  1  0  0  0  0
  7  9  2  0  0  0  0
  7 30  1  0  0  0  0
  8  4  1  0  0  0  0
  8 10  1  0  0  0  0
 10  5  1  0  0  0  0
 11  8  1  0  0  0  0
 12  6  1  0  0  0  0
 13 12  1  0  0  0  0
 14 17  1  0  0  0  0
 14  7  1  0  0  0  0
 15 28  1  0  0  0  0
 15  9  1  0  0  0  0
 16  3  1  0  0  0  0
 16 11  1  0  0  0  0
 18 19  1  0  0  0  0
 18 13  1  0  0  0  0
 20 21  1  0  0  0  0
 20 18  1  0  0  0  0
 20 19  1  0  0  0  0
 21 23  1  0  0  0  0
 21 24  1  0  0  0  0
 22 21  1  0  0  0  0
 25 26  1  0  0  0  0
 26 27  1  0  0  0  0
 26 20  1  0  0  0  0
 28 29  1  0  0  0  0
 30 32  1  0  0  0  0
 32 31  1  0  0  0  0
M  END
>  <MODEL>
2

>  <REMARK>
 VINA RESULT:      -6.0      3.528      7.693
  Name = 
  6 active torsions:
  status: ('A' for Active; 'I' for Inactive)
    1  A    between atoms: C_3  and  C_22
    2  A    between atoms: O_11  and  C_12
    3  A    between atoms: O_11  and  C_31
    4  A    between atoms: N_13  and  C_29
    5  A    between atoms: C_15  and  C_22
    6  A    between atoms: C_16  and  C_27
                            x       y       z     vdW  Elec       q    Type
                         _______ _______ _______ _____ _____    ______ ____

>  <TORSDO>
F 6

$$$$
=
 OpenBabel11052414273D

 32 36  0  0  1  0  0  0  0  0999 V2000
  186.4450  177.8050  137.5920 C   0  0  2  0  0  3  0  0  0  0  0  0
  188.3890  177.5580  139.0310 C   0  0  2  0  0  3  0  0  0  0  0  0
  185.8250  177.4470  136.2600 C   0  0  0  0  0  2  0  0  0  0  0  0
  187.6430  177.3140  137.8330 C   0  0  1  0  0  3  0  0  0  0  0  0
  189.2730  176.3480  138.9750 C   0  0  1  0  0  3  0  0  0  0  0  0
  187.4360  177.5960  140.2050 C   0  0  2  0  0  3  0  0  0  0  0  0
  189.1420  176.8360  141.9890 C   0  0  0  0  0  0  0  0  0  0  0  0
  188.3050  176.3110  136.9990 C   0  0  2  0  0  3  0  0  0  0  0  0
  190.0900  176.2690  141.2840 N   0  0  0  0  0  0  0  0  0  0  0  0
  189.5680  176.1170  137.6060 O   0  0  0  0  0  0  0  0  0  0  0  0
  188.3260  176.8650  135.5820 C   0  0  0  0  0  2  0  0  0  0  0  0
  186.4620  178.6040  139.9610 O   0  0  0  0  0  0  0  0  0  0  0  0
  185.6650  178.2780  138.8190 C   0  0  1  0  0  3  0  0  0  0  0  0
  188.2420  177.9440  141.4640 C   0  0  1  0  0  3  0  0  0  0  0  0
  190.4800  176.5010  139.8870 C   0  0  2  0  0  3  0  0  0  0  0  0
  186.8890  177.2700  135.1290 C   0  0  0  0  0  2  0  0  0  0  0  0
  188.9520  179.1380  141.3180 O   0  0  0  0  0  1  0  0  0  0  0  0
  184.5480  179.3060  138.5600 C   0  0  2  0  0  3  0  0  0  0  0  0
  184.2800  180.1030  139.7010 O   0  0  0  0  0  0  0  0  0  0  0  0
  183.2520  179.2180  139.3220 C   0  0  2  0  0  0  0  0  0  0  0  0
  182.9060  178.1960  140.4490 C   0  0  0  0  0  0  0  0  0  0  0  0
  182.9320  176.7870  139.8860 C   0  0  0  0  0  1  0  0  0  0  0  0
  181.5020  178.4590  140.9670 C   0  0  0  0  0  1  0  0  0  0  0  0
  183.8230  178.2590  141.6600 C   0  0  0  0  0  1  0  0  0  0  0  0
  181.8680  179.3720  137.3560 O   0  0  0  0  0  1  0  0  0  0  0  0
  182.0650  179.9180  138.6240 C   0  0  2  0  0  3  0  0  0  0  0  0
  182.1900  181.4320  138.5190 C   0  0  0  0  0  1  0  0  0  0  0  0
  191.1300  177.7990  139.7330 N   0  0  0  0  0  2  0  0  0  0  0  0
  192.5050  177.6460  140.1760 C   0  0  0  0  0  1  0  0  0  0  0  0
  188.9730  176.3960  143.3060 O   0  0  0  0  0  0  0  0  0  0  0  0
  188.3080  177.5060  145.3410 C   0  0  0  0  0  1  0  0  0  0  0  0
  187.8520  176.7450  144.1090 C   0  0  0  0  0  2  0  0  0  0  0  0
  1  3  1  1  0  0  0
  1  4  1  0  0  0  0
  1 13  1  0  0  0  0
  2  6  1  0  0  0  0
  4  2  1  0  0  0  0
  5  2  1  0  0  0  0
  5 15  1  0  0  0  0
  6 14  1  0  0  0  0
  7 30  1  0  0  0  0
  8 10  1  0  0  0  0
  8  4  1  0  0  0  0
  9  7  2  0  0  0  0
 10  5  1  0  0  0  0
 11  8  1  0  0  0  0
 12  6  1  0  0  0  0
 13 12  1  0  0  0  0
 14  7  1  0  0  0  0
 15  9  1  0  0  0  0
 16 11  1  0  0  0  0
 16  3  1  0  0  0  0
 17 14  1  0  0  0  0
 18 13  1  0  0  0  0
 18 20  1  0  0  0  0
 18 19  1  0  0  0  0
 20 19  1  0  0  0  0
 20 21  1  0  0  0  0
 21 23  1  0  0  0  0
 21 24  1  0  0  0  0
 22 21  1  0  0  0  0
 25 26  1  0  0  0  0
 26 20  1  0  0  0  0
 27 26  1  0  0  0  0
 28 15  1  0  0  0  0
 28 29  1  0  0  0  0
 30 32  1  0  0  0  0
 32 31  1  0  0  0  0
M  END
>  <MODEL>
3

>  <REMARK>
 VINA RESULT:      -6.0      1.684      2.350
  Name = 
  6 active torsions:
  status: ('A' for Active; 'I' for Inactive)
    1  A    between atoms: C_3  and  C_22
    2  A    between atoms: O_11  and  C_12
    3  A    between atoms: O_11  and  C_31
    4  A    between atoms: N_13  and  C_29
    5  A    between atoms: C_15  and  C_22
    6  A    between atoms: C_16  and  C_27
                            x       y       z     vdW  Elec       q    Type
                         _______ _______ _______ _____ _____    ______ ____

>  <TORSDO>
F 6

$$$$
=
 OpenBabel11052414273D

 32 36  0  0  1  0  0  0  0  0999 V2000
  185.5550  178.7400  143.1160 C   0  0  2  0  0  3  0  0  0  0  0  0
  184.0510  178.9750  141.2200 C   0  0  2  0  0  3  0  0  0  0  0  0
  185.6590  178.4570  144.5980 C   0  0  0  0  0  2  0  0  0  0  0  0
  184.3440  178.7170  142.5980 C   0  0  1  0  0  3  0  0  0  0  0  0
  182.7410  178.2480  141.1470 C   0  0  1  0  0  3  0  0  0  0  0  0
  185.1520  178.3900  140.3650 C   0  0  2  0  0  3  0  0  0  0  0  0
  183.7080  178.0000  138.2590 C   0  0  0  0  0  0  0  0  0  0  0  0
  183.1520  178.2530  143.3090 C   0  0  2  0  0  3  0  0  0  0  0  0
  182.4830  178.0110  138.7220 N   0  0  0  0  0  0  0  0  0  0  0  0
  182.0910  178.4450  142.3940 O   0  0  0  0  0  0  0  0  0  0  0  0
  183.0720  179.0560  144.5990 C   0  0  0  0  0  2  0  0  0  0  0  0
  186.3890  178.9640  140.7700 O   0  0  0  0  0  0  0  0  0  0  0  0
  186.7030  178.6010  142.1180 C   0  0  1  0  0  3  0  0  0  0  0  0
  184.8640  178.7510  138.9020 C   0  0  1  0  0  3  0  0  0  0  0  0
  181.9430  178.6660  139.9210 C   0  0  2  0  0  3  0  0  0  0  0  0
  184.4090  178.9530  145.3960 C   0  0  0  0  0  2  0  0  0  0  0  0
  184.7270  180.1300  138.7190 O   0  0  0  0  0  1  0  0  0  0  0  0
  188.0720  179.1390  142.5750 C   0  0  2  0  0  3  0  0  0  0  0  0
  189.0780  178.9440  141.5960 O   0  0  0  0  0  0  0  0  0  0  0  0
  189.2250  178.1920  142.7790 C   0  0  2  0  0  0  0  0  0  0  0  0
  189.2220  176.6560  142.5070 C   0  0  0  0  0  0  0  0  0  0  0  0
  189.0560  176.4000  141.0210 C   0  0  0  0  0  1  0  0  0  0  0  0
  188.0440  176.0110  143.2190 C   0  0  0  0  0  1  0  0  0  0  0  0
  190.4630  175.9260  142.9970 C   0  0  0  0  0  1  0  0  0  0  0  0
  191.5840  178.4660  143.1850 O   0  0  0  0  0  1  0  0  0  0  0  0
  190.3230  178.7350  143.7180 C   0  0  2  0  0  3  0  0  0  0  0  0
  190.2500  178.2190  145.1500 C   0  0  0  0  0  1  0  0  0  0  0  0
  181.9020  180.1140  139.7540 N   0  0  0  0  0  2  0  0  0  0  0  0
  180.5030  180.5070  139.7520 C   0  0  0  0  0  1  0  0  0  0  0  0
  183.9470  177.2620  137.0940 O   0  0  0  0  0  0  0  0  0  0  0  0
  185.8510  175.7970  136.8930 C   0  0  0  0  0  1  0  0  0  0  0  0
  185.2340  177.1280  136.5040 C   0  0  0  0  0  2  0  0  0  0  0  0
  1  3  1  1  0  0  0
  2  4  1  0  0  0  0
  3 16  1  0  0  0  0
  4  1  1  0  0  0  0
  4  8  1  0  0  0  0
  5  2  1  0  0  0  0
  5 10  1  0  0  0  0
  6 12  1  0  0  0  0
  6  2  1  0  0  0  0
  7  9  2  0  0  0  0
  7 14  1  0  0  0  0
  8 11  1  0  0  0  0
  9 15  1  0  0  0  0
 10  8  1  0  0  0  0
 11 16  1  0  0  0  0
 12 13  1  0  0  0  0
 13 18  1  0  0  0  0
 13  1  1  0  0  0  0
 14  6  1  0  0  0  0
 15  5  1  0  0  0  0
 17 14  1  0  0  0  0
 18 20  1  0  0  0  0
 19 18  1  0  0  0  0
 19 20  1  0  0  0  0
 20 26  1  0  0  0  0
 21 20  1  0  0  0  0
 21 24  1  0  0  0  0
 21 23  1  0  0  0  0
 22 21  1  0  0  0  0
 25 26  1  0  0  0  0
 26 27  1  0  0  0  0
 28 15  1  0  0  0  0
 29 28  1  0  0  0  0
 30  7  1  0  0  0  0
 32 31  1  0  0  0  0
 32 30  1  0  0  0  0
M  END
>  <MODEL>
4

>  <REMARK>
 VINA RESULT:      -5.7      3.044      7.720
  Name = 
  6 active torsions:
  status: ('A' for Active; 'I' for Inactive)
    1  A    between atoms: C_3  and  C_22
    2  A    between atoms: O_11  and  C_12
    3  A    between atoms: O_11  and  C_31
    4  A    between atoms: N_13  and  C_29
    5  A    between atoms: C_15  and  C_22
    6  A    between atoms: C_16  and  C_27
                            x       y       z     vdW  Elec       q    Type
                         _______ _______ _______ _____ _____    ______ ____

>  <TORSDO>
F 6

$$$$
=
 OpenBabel11052414273D

 32 36  0  0  1  0  0  0  0  0999 V2000
  188.8330  177.3100  141.5390 C   0  0  2  0  0  3  0  0  0  0  0  0
  187.0600  178.1510  142.9750 C   0  0  2  0  0  3  0  0  0  0  0  0
  190.0190  176.3780  141.4380 C   0  0  0  0  0  2  0  0  0  0  0  0
  188.1940  177.3230  142.6910 C   0  0  1  0  0  3  0  0  0  0  0  0
  186.4750  177.3280  144.0840 C   0  0  1  0  0  3  0  0  0  0  0  0
  186.2000  178.2510  141.7350 C   0  0  2  0  0  3  0  0  0  0  0  0
  183.9660  178.6640  142.9630 C   0  0  0  0  0  0  0  0  0  0  0  0
  188.4340  176.3730  143.7770 C   0  0  2  0  0  3  0  0  0  0  0  0
  184.2010  178.2360  144.1780 N   0  0  0  0  0  0  0  0  0  0  0  0
  187.5660  176.7870  144.8140 O   0  0  0  0  0  0  0  0  0  0  0  0
  189.9220  176.4340  144.0910 C   0  0  0  0  0  2  0  0  0  0  0  0
  186.9970  178.7710  140.6770 O   0  0  0  0  0  0  0  0  0  0  0  0
  188.0590  177.8710  140.3470 C   0  0  1  0  0  3  0  0  0  0  0  0
  185.0400  179.2090  142.0330 C   0  0  1  0  0  3  0  0  0  0  0  0
  185.4750  178.1310  144.9020 C   0  0  2  0  0  3  0  0  0  0  0  0
  190.7660  176.2020  142.8000 C   0  0  0  0  0  2  0  0  0  0  0  0
  185.4910  180.4590  142.4680 O   0  0  0  0  0  1  0  0  0  0  0  0
  188.9030  178.3580  139.1550 C   0  0  2  0  0  3  0  0  0  0  0  0
  188.1340  179.0960  138.2210 O   0  0  0  0  0  0  0  0  0  0  0  0
  188.6130  177.8510  137.7670 C   0  0  2  0  0  0  0  0  0  0  0  0
  187.4570  176.8880  137.3560 C   0  0  0  0  0  0  0  0  0  0  0  0
  187.8140  175.4660  137.7450 C   0  0  0  0  0  1  0  0  0  0  0  0
  187.2750  176.9200  135.8470 C   0  0  0  0  0  1  0  0  0  0  0  0
  186.1020  177.2370  137.9520 C   0  0  0  0  0  1  0  0  0  0  0  0
  189.3460  178.2530  135.5080 O   0  0  0  0  0  1  0  0  0  0  0  0
  189.8050  177.9690  136.7940 C   0  0  2  0  0  3  0  0  0  0  0  0
  190.7210  176.7520  136.7570 C   0  0  0  0  0  1  0  0  0  0  0  0
  185.9850  179.4500  145.2590 N   0  0  0  0  0  2  0  0  0  0  0  0
  186.0560  179.5050  146.7100 C   0  0  0  0  0  1  0  0  0  0  0  0
  182.6410  178.6280  142.5150 O   0  0  0  0  0  0  0  0  0  0  0  0
  180.4320  179.5910  142.4590 C   0  0  0  0  0  1  0  0  0  0  0  0
  181.5320  179.0030  143.3230 C   0  0  0  0  0  2  0  0  0  0  0  0
  1  3  1  6  0  0  0
  1  4  1  0  0  0  0
  2  5  1  0  0  0  0
  3 16  1  0  0  0  0
  4  2  1  0  0  0  0
  4  8  1  0  0  0  0
  5 10  1  0  0  0  0
  5 15  1  0  0  0  0
  6 14  1  0  0  0  0
  6  2  1  0  0  0  0
  7  9  2  0  0  0  0
  8 11  1  0  0  0  0
  8 10  1  0  0  0  0
  9 15  1  0  0  0  0
 12  6  1  0  0  0  0
 13 12  1  0  0  0  0
 13  1  1  0  0  0  0
 14 17  1  0  0  0  0
 14  7  1  0  0  0  0
 15 28  1  0  0  0  0
 16 11  1  0  0  0  0
 18 13  1  0  0  0  0
 19 18  1  0  0  0  0
 20 19  1  0  0  0  0
 20 18  1  0  0  0  0
 21 22  1  0  0  0  0
 21 20  1  0  0  0  0
 21 24  1  0  0  0  0
 23 21  1  0  0  0  0
 25 26  1  0  0  0  0
 26 20  1  0  0  0  0
 27 26  1  0  0  0  0
 28 29  1  0  0  0  0
 30  7  1  0  0  0  0
 30 32  1  0  0  0  0
 31 32  1  0  0  0  0
M  END
>  <MODEL>
5

>  <REMARK>
 VINA RESULT:      -5.0      3.367      7.626
  Name = 
  6 active torsions:
  status: ('A' for Active; 'I' for Inactive)
    1  A    between atoms: C_3  and  C_22
    2  A    between atoms: O_11  and  C_12
    3  A    between atoms: O_11  and  C_31
    4  A    between atoms: N_13  and  C_29
    5  A    between atoms: C_15  and  C_22
    6  A    between atoms: C_16  and  C_27
                            x       y       z     vdW  Elec       q    Type
                         _______ _______ _______ _____ _____    ______ ____

>  <TORSDO>
F 6

$$$$
=
 OpenBabel11052414273D

 32 36  0  0  1  0  0  0  0  0999 V2000
  186.9500  178.0410  143.1130 C   0  0  2  0  0  3  0  0  0  0  0  0
  188.1320  178.0820  140.9880 C   0  0  2  0  0  3  0  0  0  0  0  0
  185.6100  178.1850  143.7980 C   0  0  0  0  0  2  0  0  0  0  0  0
  186.9570  178.1720  141.8020 C   0  0  1  0  0  3  0  0  0  0  0  0
  187.4620  177.7160  139.6970 C   0  0  1  0  0  3  0  0  0  0  0  0
  189.0440  177.0180  141.5560 C   0  0  2  0  0  3  0  0  0  0  0  0
  190.1980  176.4050  139.3280 C   0  0  0  0  0  0  0  0  0  0  0  0
  185.7520  178.2460  140.9760 C   0  0  2  0  0  3  0  0  0  0  0  0
  189.3680  176.8550  138.4200 N   0  0  0  0  0  0  0  0  0  0  0  0
  186.2310  178.4220  139.6570 O   0  0  0  0  0  0  0  0  0  0  0  0
  184.9090  179.3840  141.5340 C   0  0  0  0  0  2  0  0  0  0  0  0
  189.3460  177.3580  142.9040 O   0  0  0  0  0  0  0  0  0  0  0  0
  188.1660  177.3360  143.7120 C   0  0  1  0  0  3  0  0  0  0  0  0
  190.3320  176.9980  140.7220 C   0  0  1  0  0  3  0  0  0  0  0  0
  188.3850  177.9430  138.5100 C   0  0  2  0  0  3  0  0  0  0  0  0
  184.6610  179.1870  143.0620 C   0  0  0  0  0  2  0  0  0  0  0  0
  190.9460  178.2520  140.6750 O   0  0  0  0  0  1  0  0  0  0  0  0
  188.4570  177.6260  145.1970 C   0  0  2  0  0  3  0  0  0  0  0  0
  189.4890  178.5840  145.3640 O   0  0  0  0  0  0  0  0  0  0  0  0
  189.7990  177.2760  145.7840 C   0  0  2  0  0  0  0  0  0  0  0  0
  191.0200  176.6820  145.0170 C   0  0  0  0  0  0  0  0  0  0  0  0
  192.0500  176.1760  146.0100 C   0  0  0  0  0  1  0  0  0  0  0  0
  191.6800  177.7680  144.1840 C   0  0  0  0  0  1  0  0  0  0  0  0
  190.6740  175.5590  144.0520 C   0  0  0  0  0  1  0  0  0  0  0  0
  188.6720  176.3630  147.7080 O   0  0  0  0  0  1  0  0  0  0  0  0
  189.7860  177.1050  147.3190 C   0  0  2  0  0  3  0  0  0  0  0  0
  189.8360  178.4090  148.1060 C   0  0  0  0  0  1  0  0  0  0  0  0
  189.0460  179.2430  138.5630 N   0  0  0  0  0  2  0  0  0  0  0  0
  189.0550  179.7760  137.2120 C   0  0  0  0  0  1  0  0  0  0  0  0
  191.0140  175.3250  138.9720 O   0  0  0  0  0  0  0  0  0  0  0  0
  192.9720  176.3530  138.0130 C   0  0  0  0  0  1  0  0  0  0  0  0
  191.8650  175.3310  137.8320 C   0  0  0  0  0  2  0  0  0  0  0  0
  1 13  1  0  0  0  0
  1  3  1  6  0  0  0
  2  6  1  0  0  0  0
  2  4  1  0  0  0  0
  4  1  1  0  0  0  0
  5  2  1  0  0  0  0
  6 12  1  0  0  0  0
  7 14  1  0  0  0  0
  8 11  1  0  0  0  0
  8  4  1  0  0  0  0
  9 15  1  0  0  0  0
  9  7  2  0  0  0  0
 10  5  1  0  0  0  0
 10  8  1  0  0  0  0
 11 16  1  0  0  0  0
 12 13  1  0  0  0  0
 13 18  1  0  0  0  0
 14  6  1  0  0  0  0
 15 28  1  0  0  0  0
 15  5  1  0  0  0  0
 16  3  1  0  0  0  0
 17 14  1  0  0  0  0
 18 19  1  0  0  0  0
 18 20  1  0  0  0  0
 19 20  1  0  0  0  0
 20 26  1  0  0  0  0
 21 20  1  0  0  0  0
 21 22  1  0  0  0  0
 23 21  1  0  0  0  0
 24 21  1  0  0  0  0
 26 25  1  0  0  0  0
 26 27  1  0  0  0  0
 29 28  1  0  0  0  0
 30  7  1  0  0  0  0
 32 31  1  0  0  0  0
 32 30  1  0  0  0  0
M  END
>  <MODEL>
6

>  <REMARK>
 VINA RESULT:      -4.8      3.176      7.065
  Name = 
  6 active torsions:
  status: ('A' for Active; 'I' for Inactive)
    1  A    between atoms: C_3  and  C_22
    2  A    between atoms: O_11  and  C_12
    3  A    between atoms: O_11  and  C_31
    4  A    between atoms: N_13  and  C_29
    5  A    between atoms: C_15  and  C_22
    6  A    between atoms: C_16  and  C_27
                            x       y       z     vdW  Elec       q    Type
                         _______ _______ _______ _____ _____    ______ ____

>  <TORSDO>
F 6

$$$$
=
 OpenBabel11052414273D

 32 36  0  0  1  0  0  0  0  0999 V2000
  184.2010  178.5260  140.8030 C   0  0  2  0  0  3  0  0  0  0  0  0
  182.0300  179.3010  140.0310 C   0  0  2  0  0  3  0  0  0  0  0  0
  184.9970  178.0180  141.9850 C   0  0  0  0  0  2  0  0  0  0  0  0
  182.9320  178.7990  141.0240 C   0  0  1  0  0  3  0  0  0  0  0  0
  180.7490  178.8430  140.6630 C   0  0  1  0  0  3  0  0  0  0  0  0
  182.3510  178.6550  138.7020 C   0  0  2  0  0  3  0  0  0  0  0  0
  179.9750  178.8420  137.7070 C   0  0  0  0  0  0  0  0  0  0  0  0
  182.2190  178.4610  142.2560 C   0  0  2  0  0  3  0  0  0  0  0  0
  179.2140  179.0080  138.7600 N   0  0  0  0  0  0  0  0  0  0  0  0
  180.9140  178.9720  142.0670 O   0  0  0  0  0  0  0  0  0  0  0  0
  183.0130  179.0710  143.4020 C   0  0  0  0  0  2  0  0  0  0  0  0
  183.7110  178.9310  138.3860 O   0  0  0  0  0  0  0  0  0  0  0  0
  184.5890  178.3260  139.3390 C   0  0  1  0  0  3  0  0  0  0  0  0
  181.4330  179.2700  137.6370 C   0  0  1  0  0  3  0  0  0  0  0  0
  179.5500  179.5700  140.0750 C   0  0  2  0  0  3  0  0  0  0  0  0
  184.5020  178.6120  143.3440 C   0  0  0  0  0  2  0  0  0  0  0  0
  181.5430  180.6630  137.5910 O   0  0  0  0  0  1  0  0  0  0  0  0
  186.0760  178.5360  138.9940 C   0  0  2  0  0  3  0  0  0  0  0  0
  186.2570  179.0030  137.6680 O   0  0  0  0  0  0  0  0  0  0  0  0
  186.7260  177.7000  137.9230 C   0  0  2  0  0  0  0  0  0  0  0  0
  186.0260  176.6330  137.0270 C   0  0  0  0  0  0  0  0  0  0  0  0
  187.0060  175.5250  136.6900 C   0  0  0  0  0  1  0  0  0  0  0  0
  185.5870  177.2700  135.7190 C   0  0  0  0  0  1  0  0  0  0  0  0
  184.7770  176.0170  137.6370 C   0  0  0  0  0  1  0  0  0  0  0  0
  188.6300  177.4510  139.3790 O   0  0  0  0  0  1  0  0  0  0  0  0
  188.2630  177.6140  138.0430 C   0  0  2  0  0  3  0  0  0  0  0  0
  189.0170  178.7940  137.4430 C   0  0  0  0  0  1  0  0  0  0  0  0
  179.7630  181.0110  139.9910 N   0  0  0  0  0  2  0  0  0  0  0  0
  178.9330  181.6290  141.0110 C   0  0  0  0  0  1  0  0  0  0  0  0
  179.3920  178.2490  136.5810 O   0  0  0  0  0  0  0  0  0  0  0  0
  179.9440  175.9960  137.2400 C   0  0  0  0  0  1  0  0  0  0  0  0
  179.7690  176.9690  136.0880 C   0  0  0  0  0  2  0  0  0  0  0  0
  1  4  1  0  0  0  0
  1  3  1  1  0  0  0
  2  5  1  0  0  0  0
  2  4  1  0  0  0  0
  3 16  1  0  0  0  0
  4  8  1  0  0  0  0
  5 10  1  0  0  0  0
  6  2  1  0  0  0  0
  7  9  2  0  0  0  0
  8 11  1  0  0  0  0
  9 15  1  0  0  0  0
 10  8  1  0  0  0  0
 12  6  1  0  0  0  0
 12 13  1  0  0  0  0
 13  1  1  0  0  0  0
 14  7  1  0  0  0  0
 14  6  1  0  0  0  0
 15  5  1  0  0  0  0
 16 11  1  0  0  0  0
 17 14  1  0  0  0  0
 18 13  1  0  0  0  0
 19 20  1  0  0  0  0
 19 18  1  0  0  0  0
 20 26  1  0  0  0  0
 20 18  1  0  0  0  0
 21 24  1  0  0  0  0
 21 20  1  0  0  0  0
 22 21  1  0  0  0  0
 23 21  1  0  0  0  0
 26 25  1  0  0  0  0
 27 26  1  0  0  0  0
 28 15  1  0  0  0  0
 28 29  1  0  0  0  0
 30  7  1  0  0  0  0
 32 30  1  0  0  0  0
 32 31  1  0  0  0  0
M  END
>  <MODEL>
7

>  <REMARK>
 VINA RESULT:      -4.8      3.543      8.151
  Name = 
  6 active torsions:
  status: ('A' for Active; 'I' for Inactive)
    1  A    between atoms: C_3  and  C_22
    2  A    between atoms: O_11  and  C_12
    3  A    between atoms: O_11  and  C_31
    4  A    between atoms: N_13  and  C_29
    5  A    between atoms: C_15  and  C_22
    6  A    between atoms: C_16  and  C_27
                            x       y       z     vdW  Elec       q    Type
                         _______ _______ _______ _____ _____    ______ ____

>  <TORSDO>
F 6

$$$$
=
 OpenBabel11052414273D

 32 36  0  0  1  0  0  0  0  0999 V2000
  183.8060  178.1200  141.1330 C   0  0  2  0  0  3  0  0  0  0  0  0
  185.9010  177.8760  139.9220 C   0  0  2  0  0  3  0  0  0  0  0  0
  183.1450  178.6340  142.3920 C   0  0  0  0  0  2  0  0  0  0  0  0
  185.1060  178.3070  141.0330 C   0  0  1  0  0  3  0  0  0  0  0  0
  187.0360  178.8410  140.0930 C   0  0  1  0  0  3  0  0  0  0  0  0
  185.1030  178.0500  138.6490 C   0  0  2  0  0  3  0  0  0  0  0  0
  187.1290  178.3560  137.0770 C   0  0  0  0  0  0  0  0  0  0  0  0
  185.8910  179.1350  141.9480 C   0  0  2  0  0  3  0  0  0  0  0  0
  188.1000  178.6910  137.8900 N   0  0  0  0  0  0  0  0  0  0  0  0
  187.2230  179.0140  141.4890 O   0  0  0  0  0  0  0  0  0  0  0  0
  185.6210  178.6120  143.3520 C   0  0  0  0  0  2  0  0  0  0  0  0
  183.8960  177.3060  138.7700 O   0  0  0  0  0  0  0  0  0  0  0  0
  183.0780  177.8290  139.8210 C   0  0  1  0  0  3  0  0  0  0  0  0
  185.9380  177.5020  137.4840 C   0  0  1  0  0  3  0  0  0  0  0  0
  188.2660  178.3920  139.3190 C   0  0  2  0  0  3  0  0  0  0  0  0
  184.0880  178.5680  143.6370 C   0  0  0  0  0  2  0  0  0  0  0  0
  186.3220  176.1750  137.6920 O   0  0  0  0  0  1  0  0  0  0  0  0
  181.7260  177.1010  139.9390 C   0  0  2  0  0  3  0  0  0  0  0  0
  181.0580  177.0050  138.6930 O   0  0  0  0  0  0  0  0  0  0  0  0
  180.4450  177.8370  139.6500 C   0  0  2  0  0  0  0  0  0  0  0  0
  180.3150  179.3110  139.1560 C   0  0  0  0  0  0  0  0  0  0  0  0
  180.4730  180.2600  140.3290 C   0  0  0  0  0  1  0  0  0  0  0  0
  178.9310  179.5350  138.5680 C   0  0  0  0  0  1  0  0  0  0  0  0
  181.3040  179.7020  138.0690 C   0  0  0  0  0  1  0  0  0  0  0  0
  179.2780  177.3130  141.6910 O   0  0  0  0  0  1  0  0  0  0  0  0
  179.1970  177.2050  140.3030 C   0  0  2  0  0  3  0  0  0  0  0  0
  178.9380  175.7550  139.9140 C   0  0  0  0  0  1  0  0  0  0  0  0
  188.5660  176.9790  139.5280 N   0  0  0  0  0  2  0  0  0  0  0  0
  189.9450  176.7690  139.1230 C   0  0  0  0  0  1  0  0  0  0  0  0
  187.2180  178.8050  135.7540 O   0  0  0  0  0  0  0  0  0  0  0  0
  188.4130  177.0420  134.6250 C   0  0  0  0  0  1  0  0  0  0  0  0
  187.1850  177.9350  134.6290 C   0  0  0  0  0  2  0  0  0  0  0  0
  1  3  1  6  0  0  0
  2  5  1  0  0  0  0
  2  4  1  0  0  0  0
  3 16  1  0  0  0  0
  4  1  1  0  0  0  0
  4  8  1  0  0  0  0
  5 10  1  0  0  0  0
  6 12  1  0  0  0  0
  6  2  1  0  0  0  0
  7 14  1  0  0  0  0
  7  9  2  0  0  0  0
  8 11  1  0  0  0  0
  9 15  1  0  0  0  0
 10  8  1  0  0  0  0
 11 16  1  0  0  0  0
 12 13  1  0  0  0  0
 13 18  1  0  0  0  0
 13  1  1  0  0  0  0
 14 17  1  0  0  0  0
 14  6  1  0  0  0  0
 15 28  1  0  0  0  0
 15  5  1  0  0  0  0
 19 20  1  0  0  0  0
 19 18  1  0  0  0  0
 20 18  1  0  0  0  0
 20 26  1  0  0  0  0
 21 20  1  0  0  0  0
 21 22  1  0  0  0  0
 23 21  1  0  0  0  0
 24 21  1  0  0  0  0
 26 25  1  0  0  0  0
 27 26  1  0  0  0  0
 29 28  1  0  0  0  0
 30  7  1  0  0  0  0
 31 32  1  0  0  0  0
 32 30  1  0  0  0  0
M  END
>  <MODEL>
8

>  <REMARK>
 VINA RESULT:      -4.7      2.259      5.086
  Name = 
  6 active torsions:
  status: ('A' for Active; 'I' for Inactive)
    1  A    between atoms: C_3  and  C_22
    2  A    between atoms: O_11  and  C_12
    3  A    between atoms: O_11  and  C_31
    4  A    between atoms: N_13  and  C_29
    5  A    between atoms: C_15  and  C_22
    6  A    between atoms: C_16  and  C_27
                            x       y       z     vdW  Elec       q    Type
                         _______ _______ _______ _____ _____    ______ ____

>  <TORSDO>
F 6

$$$$
=
 OpenBabel11052414273D

 32 36  0  0  1  0  0  0  0  0999 V2000
  186.4410  178.1780  143.8980 C   0  0  2  0  0  3  0  0  0  0  0  0
  185.9950  178.5510  141.5370 C   0  0  2  0  0  3  0  0  0  0  0  0
  185.8290  177.9420  145.2600 C   0  0  0  0  0  2  0  0  0  0  0  0
  185.6000  178.3080  142.8920 C   0  0  1  0  0  3  0  0  0  0  0  0
  184.7660  178.0160  140.8640 C   0  0  1  0  0  3  0  0  0  0  0  0
  187.2650  177.7810  141.2490 C   0  0  2  0  0  3  0  0  0  0  0  0
  186.8760  177.5180  138.7090 C   0  0  0  0  0  0  0  0  0  0  0  0
  184.1640  178.0470  142.9800 C   0  0  2  0  0  3  0  0  0  0  0  0
  185.5890  177.7220  138.5740 N   0  0  0  0  0  0  0  0  0  0  0  0
  183.6640  178.3530  141.6920 O   0  0  0  0  0  0  0  0  0  0  0  0
  183.6320  178.9040  144.1200 C   0  0  0  0  0  2  0  0  0  0  0  0
  188.2590  178.1880  142.1820 O   0  0  0  0  0  0  0  0  0  0  0  0
  187.8810  177.8370  143.5160 C   0  0  1  0  0  3  0  0  0  0  0  0
  187.7180  178.1220  139.8230 C   0  0  1  0  0  3  0  0  0  0  0  0
  184.6720  178.4940  139.4230 C   0  0  2  0  0  3  0  0  0  0  0  0
  184.4410  178.6420  145.4280 C   0  0  0  0  0  2  0  0  0  0  0  0
  187.8790  179.4980  139.6390 O   0  0  0  0  0  1  0  0  0  0  0  0
  188.9620  178.1920  144.5540 C   0  0  2  0  0  3  0  0  0  0  0  0
  190.1380  178.7010  143.9480 O   0  0  0  0  0  0  0  0  0  0  0  0
  190.2680  177.4430  144.5680 C   0  0  2  0  0  0  0  0  0  0  0  0
  190.7110  176.3330  143.5650 C   0  0  0  0  0  0  0  0  0  0  0  0
  191.7450  175.4370  144.2200 C   0  0  0  0  0  1  0  0  0  0  0  0
  191.3610  176.9700  142.3480 C   0  0  0  0  0  1  0  0  0  0  0  0
  189.5760  175.4710  143.0360 C   0  0  0  0  0  1  0  0  0  0  0  0
  192.2120  176.7990  145.8370 O   0  0  0  0  0  1  0  0  0  0  0  0
  191.0090  177.4990  145.9220 C   0  0  2  0  0  3  0  0  0  0  0  0
  190.2020  176.9940  147.1110 C   0  0  0  0  0  1  0  0  0  0  0  0
  184.9210  179.9260  139.2970 N   0  0  0  0  0  2  0  0  0  0  0  0
  183.6680  180.5470  138.9030 C   0  0  0  0  0  1  0  0  0  0  0  0
  187.5000  176.7090  137.7540 O   0  0  0  0  0  0  0  0  0  0  0  0
  189.3920  177.6210  136.5700 C   0  0  0  0  0  1  0  0  0  0  0  0
  188.9130  176.6210  137.6060 C   0  0  0  0  0  2  0  0  0  0  0  0
  1  3  1  1  0  0  0
  2  4  1  0  0  0  0
  3 16  1  0  0  0  0
  4  8  1  0  0  0  0
  4  1  1  0  0  0  0
  5  2  1  0  0  0  0
  5 10  1  0  0  0  0
  6  2  1  0  0  0  0
  6 12  1  0  0  0  0
  7 14  1  0  0  0  0
  8 11  1  0  0  0  0
  9  7  2  0  0  0  0
  9 15  1  0  0  0  0
 10  8  1  0  0  0  0
 11 16  1  0  0  0  0
 12 13  1  0  0  0  0
 13  1  1  0  0  0  0
 13 18  1  0  0  0  0
 14  6  1  0  0  0  0
 15  5  1  0  0  0  0
 17 14  1  0  0  0  0
 18 20  1  0  0  0  0
 19 18  1  0  0  0  0
 19 20  1  0  0  0  0
 20 26  1  0  0  0  0
 21 22  1  0  0  0  0
 21 20  1  0  0  0  0
 23 21  1  0  0  0  0
 24 21  1  0  0  0  0
 25 26  1  0  0  0  0
 26 27  1  0  0  0  0
 28 15  1  0  0  0  0
 29 28  1  0  0  0  0
 30  7  1  0  0  0  0
 31 32  1  0  0  0  0
 32 30  1  0  0  0  0
M  END
>  <MODEL>
9

>  <REMARK>
 VINA RESULT:      -4.5      2.944      7.693
  Name = 
  6 active torsions:
  status: ('A' for Active; 'I' for Inactive)
    1  A    between atoms: C_3  and  C_22
    2  A    between atoms: O_11  and  C_12
    3  A    between atoms: O_11  and  C_31
    4  A    between atoms: N_13  and  C_29
    5  A    between atoms: C_15  and  C_22
    6  A    between atoms: C_16  and  C_27
                            x       y       z     vdW  Elec       q    Type
                         _______ _______ _______ _____ _____    ______ ____

>  <TORSDO>
F 6

$$$$
