=
 OpenBabel11052413443D

 27 31  0  0  0  0  0  0  0  0999 V2000
  186.9070  177.8850  141.7460 N   0  0  0  0  0  2  0  0  0  0  0  0
  189.2340  177.4090  142.5450 C   0  0  0  0  0  0  0  0  0  0  0  0
  187.5840  176.5910  144.2710 C   0  0  0  0  0  2  0  0  0  0  0  0
  192.0240  177.0770  145.6330 N   0  0  0  0  0  0  0  0  0  0  0  0
  191.5390  176.8680  148.0770 C   0  0  0  0  0  1  0  0  0  0  0  0
  190.6980  177.3560  142.2120 C   0  0  0  0  0  3  0  0  0  0  0  0
  189.8380  177.0190  146.2350 N   0  0  0  0  0  0  0  0  0  0  0  0
  185.0430  179.1990  145.4100 C   0  0  0  0  0  3  0  0  0  0  0  0
  188.6480  176.9600  147.0690 C   0  0  0  0  0  1  0  0  0  0  0  0
  184.0740  179.5040  144.5500 C   0  0  0  0  0  3  0  0  0  0  0  0
  189.9250  177.1410  144.9000 C   0  0  0  0  0  0  0  0  0  0  0  0
  188.3230  177.6520  141.5520 C   0  0  0  0  0  0  0  0  0  0  0  0
  191.1270  176.9900  146.6500 C   0  0  0  0  0  0  0  0  0  0  0  0
  191.2340  177.1750  144.5460 C   0  0  0  0  0  0  0  0  0  0  0  0
  186.1110  177.9670  142.7730 C   0  0  0  0  0  0  0  0  0  0  0  0
  188.8640  177.1700  143.9300 N   0  0  0  0  0  0  0  0  0  0  0  0
  186.0950  178.1870  145.2520 C   0  0  0  0  0  2  0  0  0  0  0  0
  191.6490  177.2510  143.1490 C   0  0  0  0  0  3  0  0  0  0  0  0
  183.8350  178.9180  143.2260 C   0  0  0  0  0  3  0  0  0  0  0  0
  184.7080  178.2650  142.4630 C   0  0  0  0  0  3  0  0  0  0  0  0
  186.5450  177.6240  144.1310 C   0  0  0  0  0  0  0  0  0  0  0  0
  188.9420  179.6860  137.2320 N   0  0  0  0  0  2  0  0  0  0  0  0
  188.7410  177.7760  140.1310 C   0  0  0  0  0  0  0  0  0  0  0  0
  188.5820  178.9310  139.4060 N   0  0  0  0  0  0  0  0  0  0  0  0
  188.9870  178.7630  138.1330 C   0  0  0  0  0  0  0  0  0  0  0  0
  189.5060  177.2090  137.9040 S   0  0  0  0  0  0  0  0  0  0  0  0
  189.2310  176.6920  139.4600 N   0  0  0  0  0  2  0  0  0  0  0  0
  1 15  1  0  0  0  0
  2 16  1  0  0  0  0
  4 13  2  0  0  0  0
  6  2  1  0  0  0  0
  6 18  2  0  0  0  0
  7 13  1  0  0  0  0
  7  9  1  0  0  0  0
 10  8  2  0  0  0  0
 11  7  1  0  0  0  0
 12  1  1  0  0  0  0
 12  2  2  0  0  0  0
 13  5  1  0  0  0  0
 14 11  2  0  0  0  0
 14  4  1  0  0  0  0
 15 21  2  0  0  0  0
 16  3  1  0  0  0  0
 16 11  1  0  0  0  0
 17  8  1  0  0  0  0
 18 14  1  0  0  0  0
 19 10  1  0  0  0  0
 20 15  1  0  0  0  0
 20 19  2  0  0  0  0
 21  3  1  0  0  0  0
 21 17  1  0  0  0  0
 22 25  2  0  0  0  0
 23 12  1  0  0  0  0
 24 23  2  0  0  0  0
 25 24  1  0  0  0  0
 26 25  1  0  0  0  0
 26 27  1  0  0  0  0
 27 23  1  0  0  0  0
M  END
>  <MODEL>
1

>  <REMARK>
 VINA RESULT:     -10.5      0.000      0.000
  Name = 
  1 active torsions:
  status: ('A' for Active; 'I' for Inactive)
    1  A    between atoms: C_9  and  C_15
                            x       y       z     vdW  Elec       q    Type
                         _______ _______ _______ _____ _____    ______ ____

>  <TORSDO>
F 1

$$$$
=
 OpenBabel11052413443D

 27 31  0  0  0  0  0  0  0  0999 V2000
  186.8450  178.4920  138.9750 N   0  0  0  0  0  2  0  0  0  0  0  0
  186.0350  178.4850  141.3460 C   0  0  0  0  0  0  0  0  0  0  0  0
  188.5240  178.8980  141.3240 C   0  0  0  0  0  2  0  0  0  0  0  0
  186.6150  177.6100  145.3860 N   0  0  0  0  0  0  0  0  0  0  0  0
  188.7890  177.1210  146.5180 C   0  0  0  0  0  1  0  0  0  0  0  0
  184.8560  178.4970  142.2780 C   0  0  0  0  0  3  0  0  0  0  0  0
  188.4750  177.6910  144.0920 N   0  0  0  0  0  0  0  0  0  0  0  0
  190.5530  176.3210  139.3770 C   0  0  0  0  0  3  0  0  0  0  0  0
  189.8720  177.6090  143.6940 C   0  0  0  0  0  1  0  0  0  0  0  0
  190.4780  176.3810  138.0500 C   0  0  0  0  0  3  0  0  0  0  0  0
  187.4000  177.9670  143.3360 C   0  0  0  0  0  0  0  0  0  0  0  0
  185.8330  178.6380  140.0000 C   0  0  0  0  0  0  0  0  0  0  0  0
  187.9650  177.4730  145.3280 C   0  0  0  0  0  0  0  0  0  0  0  0
  186.2900  177.9180  144.1160 C   0  0  0  0  0  0  0  0  0  0  0  0
  188.1090  178.1810  138.9540 C   0  0  0  0  0  0  0  0  0  0  0  0
  187.3480  178.3310  141.9460 N   0  0  0  0  0  0  0  0  0  0  0  0
  189.9360  177.2300  140.3520 C   0  0  0  0  0  2  0  0  0  0  0  0
  184.9670  178.2260  143.5850 C   0  0  0  0  0  3  0  0  0  0  0  0
  189.7420  177.3570  137.2380 C   0  0  0  0  0  3  0  0  0  0  0  0
  188.7250  178.1230  137.6240 C   0  0  0  0  0  3  0  0  0  0  0  0
  188.9070  178.0590  140.1790 C   0  0  0  0  0  0  0  0  0  0  0  0
  182.0590  181.1990  138.4580 N   0  0  0  0  0  2  0  0  0  0  0  0
  184.4810  178.9070  139.4450 C   0  0  0  0  0  0  0  0  0  0  0  0
  184.0140  180.1750  139.2030 N   0  0  0  0  0  0  0  0  0  0  0  0
  182.7440  180.1470  138.7560 C   0  0  0  0  0  0  0  0  0  0  0  0
  182.2030  178.5850  138.6880 S   0  0  0  0  0  0  0  0  0  0  0  0
  183.6070  177.8790  139.2310 N   0  0  0  0  0  2  0  0  0  0  0  0
  1 12  1  0  0  0  0
  2 16  1  0  0  0  0
  2  6  1  0  0  0  0
  3 16  1  0  0  0  0
  6 18  2  0  0  0  0
  7 13  1  0  0  0  0
  8 17  1  0  0  0  0
  9  7  1  0  0  0  0
 10  8  2  0  0  0  0
 11  7  1  0  0  0  0
 11 14  2  0  0  0  0
 12  2  2  0  0  0  0
 13  4  2  0  0  0  0
 13  5  1  0  0  0  0
 14  4  1  0  0  0  0
 15  1  1  0  0  0  0
 15 21  2  0  0  0  0
 16 11  1  0  0  0  0
 18 14  1  0  0  0  0
 19 20  2  0  0  0  0
 19 10  1  0  0  0  0
 20 15  1  0  0  0  0
 21 17  1  0  0  0  0
 21  3  1  0  0  0  0
 22 25  2  0  0  0  0
 23 12  1  0  0  0  0
 24 23  2  0  0  0  0
 25 24  1  0  0  0  0
 26 25  1  0  0  0  0
 26 27  1  0  0  0  0
 27 23  1  0  0  0  0
M  END
>  <MODEL>
2

>  <REMARK>
 VINA RESULT:      -9.3      2.861      5.527
  Name = 
  1 active torsions:
  status: ('A' for Active; 'I' for Inactive)
    1  A    between atoms: C_9  and  C_15
                            x       y       z     vdW  Elec       q    Type
                         _______ _______ _______ _____ _____    ______ ____

>  <TORSDO>
F 1

$$$$
=
 OpenBabel11052413443D

 27 31  0  0  0  0  0  0  0  0999 V2000
  187.0010  178.3480  141.6040 N   0  0  0  0  0  2  0  0  0  0  0  0
  187.2000  177.9840  144.0760 C   0  0  0  0  0  0  0  0  0  0  0  0
  189.4570  178.6330  143.1510 C   0  0  0  0  0  2  0  0  0  0  0  0
  189.3740  176.6970  147.4000 N   0  0  0  0  0  0  0  0  0  0  0  0
  191.8370  176.2880  147.5150 C   0  0  0  0  0  1  0  0  0  0  0  0
  186.4890  177.7730  145.3830 C   0  0  0  0  0  3  0  0  0  0  0  0
  190.5620  177.1080  145.5120 N   0  0  0  0  0  0  0  0  0  0  0  0
  190.6490  176.5100  140.2150 C   0  0  0  0  0  3  0  0  0  0  0  0
  191.6870  177.2080  144.5960 C   0  0  0  0  0  1  0  0  0  0  0  0
  190.0500  176.7180  139.0450 C   0  0  0  0  0  3  0  0  0  0  0  0
  189.2640  177.3670  145.2820 C   0  0  0  0  0  0  0  0  0  0  0  0
  186.4740  178.2750  142.9510 C   0  0  0  0  0  0  0  0  0  0  0  0
  190.5930  176.6980  146.8030 C   0  0  0  0  0  0  0  0  0  0  0  0
  188.5580  177.1210  146.4140 C   0  0  0  0  0  0  0  0  0  0  0  0
  188.1640  178.1650  141.0500 C   0  0  0  0  0  0  0  0  0  0  0  0
  188.6490  177.8860  144.0900 N   0  0  0  0  0  0  0  0  0  0  0  0
  190.4330  177.2340  141.4740 C   0  0  0  0  0  2  0  0  0  0  0  0
  187.1210  177.3620  146.4900 C   0  0  0  0  0  3  0  0  0  0  0  0
  189.0130  177.7090  138.7340 C   0  0  0  0  0  3  0  0  0  0  0  0
  188.2020  178.3230  139.5920 C   0  0  0  0  0  3  0  0  0  0  0  0
  189.3870  177.9750  141.8370 C   0  0  0  0  0  0  0  0  0  0  0  0
  181.9230  178.4990  141.3940 N   0  0  0  0  0  2  0  0  0  0  0  0
  185.0030  178.4770  143.0100 C   0  0  0  0  0  0  0  0  0  0  0  0
  184.1800  178.2800  141.9290 N   0  0  0  0  0  0  0  0  0  0  0  0
  182.9040  178.5860  142.2290 C   0  0  0  0  0  0  0  0  0  0  0  0
  182.8020  179.1160  143.7930 S   0  0  0  0  0  0  0  0  0  0  0  0
  184.4190  178.9600  144.1470 N   0  0  0  0  0  2  0  0  0  0  0  0
  1 12  1  0  0  0  0
  2 16  1  0  0  0  0
  2  6  1  0  0  0  0
  3 16  1  0  0  0  0
  6 18  2  0  0  0  0
  7 13  1  0  0  0  0
  8 17  1  0  0  0  0
  9  7  1  0  0  0  0
 10  8  2  0  0  0  0
 11  7  1  0  0  0  0
 11 14  2  0  0  0  0
 12 23  1  0  0  0  0
 12  2  2  0  0  0  0
 13  4  2  0  0  0  0
 13  5  1  0  0  0  0
 14 18  1  0  0  0  0
 14  4  1  0  0  0  0
 15  1  1  0  0  0  0
 15 21  2  0  0  0  0
 16 11  1  0  0  0  0
 17 21  1  0  0  0  0
 19 10  1  0  0  0  0
 19 20  2  0  0  0  0
 20 15  1  0  0  0  0
 21  3  1  0  0  0  0
 22 25  2  0  0  0  0
 23 27  1  0  0  0  0
 24 25  1  0  0  0  0
 24 23  2  0  0  0  0
 25 26  1  0  0  0  0
 26 27  1  0  0  0  0
M  END
>  <MODEL>
3

>  <REMARK>
 VINA RESULT:      -9.2      2.409      5.049
  Name = 
  1 active torsions:
  status: ('A' for Active; 'I' for Inactive)
    1  A    between atoms: C_9  and  C_15
                            x       y       z     vdW  Elec       q    Type
                         _______ _______ _______ _____ _____    ______ ____

>  <TORSDO>
F 1

$$$$
=
 OpenBabel11052413443D

 27 31  0  0  0  0  0  0  0  0999 V2000
  186.3540  177.7850  145.0740 N   0  0  0  0  0  2  0  0  0  0  0  0
  187.1070  177.8620  142.6860 C   0  0  0  0  0  0  0  0  0  0  0  0
  188.7120  176.4370  144.0130 C   0  0  0  0  0  2  0  0  0  0  0  0
  190.1530  177.9370  139.8320 N   0  0  0  0  0  0  0  0  0  0  0  0
  192.5510  177.3240  140.1800 C   0  0  0  0  0  1  0  0  0  0  0  0
  186.7790  178.2440  141.2690 C   0  0  0  0  0  3  0  0  0  0  0  0
  190.7280  177.2240  141.9060 N   0  0  0  0  0  0  0  0  0  0  0  0
  190.1340  178.1150  147.1280 C   0  0  0  0  0  3  0  0  0  0  0  0
  191.5410  176.7510  143.0150 C   0  0  0  0  0  1  0  0  0  0  0  0
  189.3100  178.2470  148.1650 C   0  0  0  0  0  2  0  0  0  0  0  0
  189.4180  177.5190  141.8890 C   0  0  0  0  0  0  0  0  0  0  0  0
  186.1430  177.9650  143.6530 C   0  0  0  0  0  0  0  0  0  0  0  0
  191.1460  177.4950  140.6460 C   0  0  0  0  0  0  0  0  0  0  0  0
  189.0790  177.9450  140.6460 C   0  0  0  0  0  0  0  0  0  0  0  0
  187.3780  177.5300  145.8370 C   0  0  0  0  0  0  0  0  0  0  0  0
  188.4510  177.3740  142.9430 N   0  0  0  0  0  0  0  0  0  0  0  0
  189.8650  177.4490  145.8490 C   0  0  0  0  0  3  0  0  0  0  0  0
  187.7040  178.2900  140.3020 C   0  0  0  0  0  3  0  0  0  0  0  0
  187.9250  177.7750  148.2730 C   0  0  0  0  0  3  0  0  0  0  0  0
  187.0960  177.4740  147.2760 C   0  0  0  0  0  3  0  0  0  0  0  0
  188.6890  177.1610  145.2930 C   0  0  0  0  0  0  0  0  0  0  0  0
  182.1740  178.5520  140.9910 N   0  0  0  0  0  2  0  0  0  0  0  0
  184.7500  178.3600  143.3200 C   0  0  0  0  0  0  0  0  0  0  0  0
  184.1800  178.1220  142.0940 N   0  0  0  0  0  0  0  0  0  0  0  0
  182.9340  178.6280  142.0310 C   0  0  0  0  0  0  0  0  0  0  0  0
  182.5560  179.3780  143.4570 S   0  0  0  0  0  0  0  0  0  0  0  0
  184.0010  179.0660  144.2180 N   0  0  0  0  0  2  0  0  0  0  0  0
  1 15  1  0  0  0  0
  2 16  1  0  0  0  0
  2 12  2  0  0  0  0
  3 21  1  0  0  0  0
  4 14  1  0  0  0  0
  4 13  2  0  0  0  0
  5 13  1  0  0  0  0
  6  2  1  0  0  0  0
  7  9  1  0  0  0  0
  8 10  1  0  0  0  0
 10 19  1  0  0  0  0
 11  7  1  0  0  0  0
 11 16  1  0  0  0  0
 12  1  1  0  0  0  0
 13  7  1  0  0  0  0
 14 11  2  0  0  0  0
 15 20  1  0  0  0  0
 16  3  1  0  0  0  0
 17  8  2  0  0  0  0
 18 14  1  0  0  0  0
 18  6  2  0  0  0  0
 20 19  2  0  0  0  0
 21 15  2  0  0  0  0
 21 17  1  0  0  0  0
 22 25  2  0  0  0  0
 23 12  1  0  0  0  0
 23 27  1  0  0  0  0
 24 23  2  0  0  0  0
 25 24  1  0  0  0  0
 25 26  1  0  0  0  0
 26 27  1  0  0  0  0
M  END
>  <MODEL>
4

>  <REMARK>
 VINA RESULT:      -8.9      2.638      5.325
  Name = 
  1 active torsions:
  status: ('A' for Active; 'I' for Inactive)
    1  A    between atoms: C_9  and  C_15
                            x       y       z     vdW  Elec       q    Type
                         _______ _______ _______ _____ _____    ______ ____

>  <TORSDO>
F 1

$$$$
=
 OpenBabel11052413443D

 27 31  0  0  0  0  0  0  0  0999 V2000
  190.4180  176.5990  144.0820 N   0  0  0  0  0  2  0  0  0  0  0  0
  188.5950  177.2110  145.6880 C   0  0  0  0  0  0  0  0  0  0  0  0
  187.5630  176.4980  143.4990 C   0  0  0  0  0  2  0  0  0  0  0  0
  184.8350  178.8470  146.4730 N   0  0  0  0  0  0  0  0  0  0  0  0
  183.0180  179.2930  144.8160 C   0  0  0  0  0  1  0  0  0  0  0  0
  188.2180  177.5430  147.1050 C   0  0  0  0  0  3  0  0  0  0  0  0
  185.2550  178.2630  144.3220 N   0  0  0  0  0  0  0  0  0  0  0  0
  188.9000  178.3300  140.4330 C   0  0  0  0  0  3  0  0  0  0  0  0
  185.0720  178.0850  142.8900 C   0  0  0  0  0  1  0  0  0  0  0  0
  190.1230  178.0000  140.0250 C   0  0  0  0  0  3  0  0  0  0  0  0
  186.3260  177.9680  145.0770 C   0  0  0  0  0  0  0  0  0  0  0  0
  189.8710  176.8010  145.4080 C   0  0  0  0  0  0  0  0  0  0  0  0
  184.3710  178.8010  145.1970 C   0  0  0  0  0  0  0  0  0  0  0  0
  186.0700  178.3180  146.3620 C   0  0  0  0  0  0  0  0  0  0  0  0
  189.9800  176.7400  142.8640 C   0  0  0  0  0  0  0  0  0  0  0  0
  187.5520  177.3260  144.6840 N   0  0  0  0  0  0  0  0  0  0  0  0
  188.1290  177.7340  141.5300 C   0  0  0  0  0  2  0  0  0  0  0  0
  187.0310  178.0700  147.4310 C   0  0  0  0  0  3  0  0  0  0  0  0
  191.0060  176.9720  140.5870 C   0  0  0  0  0  3  0  0  0  0  0  0
  190.9480  176.4370  141.8040 C   0  0  0  0  0  3  0  0  0  0  0  0
  188.5720  177.0210  142.5650 C   0  0  0  0  0  0  0  0  0  0  0  0
  192.5040  177.7680  149.3220 N   0  0  0  0  0  2  0  0  0  0  0  0
  190.8720  176.5890  146.4860 C   0  0  0  0  0  0  0  0  0  0  0  0
  191.0920  177.5010  147.4880 N   0  0  0  0  0  0  0  0  0  0  0  0
  192.0860  177.0970  148.3010 C   0  0  0  0  0  0  0  0  0  0  0  0
  192.6980  175.6530  147.7730 S   0  0  0  0  0  0  0  0  0  0  0  0
  191.6840  175.4910  146.4650 N   0  0  0  0  0  2  0  0  0  0  0  0
  1 12  1  0  0  0  0
  2  6  1  0  0  0  0
  3 16  1  0  0  0  0
  5 13  1  0  0  0  0
  6 18  2  0  0  0  0
  7 11  1  0  0  0  0
  7 13  1  0  0  0  0
  8 17  1  0  0  0  0
  9  7  1  0  0  0  0
 10  8  2  0  0  0  0
 10 19  1  0  0  0  0
 11 14  2  0  0  0  0
 12  2  2  0  0  0  0
 12 23  1  0  0  0  0
 13  4  2  0  0  0  0
 14  4  1  0  0  0  0
 14 18  1  0  0  0  0
 15  1  1  0  0  0  0
 16 11  1  0  0  0  0
 16  2  1  0  0  0  0
 17 21  1  0  0  0  0
 19 20  2  0  0  0  0
 20 15  1  0  0  0  0
 21 15  2  0  0  0  0
 21  3  1  0  0  0  0
 23 24  2  0  0  0  0
 24 25  1  0  0  0  0
 25 22  2  0  0  0  0
 26 25  1  0  0  0  0
 27 23  1  0  0  0  0
 27 26  1  0  0  0  0
M  END
>  <MODEL>
5

>  <REMARK>
 VINA RESULT:      -8.7      3.118      6.751
  Name = 
  1 active torsions:
  status: ('A' for Active; 'I' for Inactive)
    1  A    between atoms: C_9  and  C_15
                            x       y       z     vdW  Elec       q    Type
                         _______ _______ _______ _____ _____    ______ ____

>  <TORSDO>
F 1

$$$$
=
 OpenBabel11052413443D

 27 31  0  0  0  0  0  0  0  0999 V2000
  190.7880  176.9020  141.0860 N   0  0  0  0  0  2  0  0  0  0  0  0
  189.0880  177.2880  139.2860 C   0  0  0  0  0  0  0  0  0  0  0  0
  188.6380  178.8690  141.2010 C   0  0  0  0  0  2  0  0  0  0  0  0
  185.2050  178.2530  138.0960 N   0  0  0  0  0  0  0  0  0  0  0  0
  183.4390  179.3480  139.4850 C   0  0  0  0  0  1  0  0  0  0  0  0
  188.6640  177.0160  137.8710 C   0  0  0  0  0  3  0  0  0  0  0  0
  185.7840  178.8210  140.2140 N   0  0  0  0  0  0  0  0  0  0  0  0
  188.3180  177.1920  144.6120 C   0  0  0  0  0  3  0  0  0  0  0  0
  185.6800  179.3290  141.5730 C   0  0  0  0  0  1  0  0  0  0  0  0
  189.4440  176.7530  145.1700 C   0  0  0  0  0  2  0  0  0  0  0  0
  186.8340  178.2400  139.6100 C   0  0  0  0  0  0  0  0  0  0  0  0
  190.3130  176.8520  139.7190 C   0  0  0  0  0  0  0  0  0  0  0  0
  184.8110  178.8070  139.2720 C   0  0  0  0  0  0  0  0  0  0  0  0
  186.4820  177.9030  138.3440 C   0  0  0  0  0  0  0  0  0  0  0  0
  190.2970  177.2890  142.2280 C   0  0  0  0  0  0  0  0  0  0  0  0
  188.1620  178.0330  140.1210 N   0  0  0  0  0  0  0  0  0  0  0  0
  188.1710  177.9300  143.3520 C   0  0  0  0  0  3  0  0  0  0  0  0
  187.4350  177.2990  137.4180 C   0  0  0  0  0  3  0  0  0  0  0  0
  190.8100  176.8810  144.6490 C   0  0  0  0  0  3  0  0  0  0  0  0
  191.1750  177.1040  143.3900 C   0  0  0  0  0  3  0  0  0  0  0  0
  189.0230  178.0090  142.3310 C   0  0  0  0  0  0  0  0  0  0  0  0
  194.1440  176.3790  136.8420 N   0  0  0  0  0  2  0  0  0  0  0  0
  191.2720  176.1940  138.7960 C   0  0  0  0  0  0  0  0  0  0  0  0
  192.3910  176.8250  138.3100 N   0  0  0  0  0  0  0  0  0  0  0  0
  193.0600  176.0330  137.4510 C   0  0  0  0  0  0  0  0  0  0  0  0
  192.2660  174.5910  137.2770 S   0  0  0  0  0  0  0  0  0  0  0  0
  191.0210  174.9380  138.3210 N   0  0  0  0  0  2  0  0  0  0  0  0
  1 15  1  0  0  0  0
  2 12  2  0  0  0  0
  2 16  1  0  0  0  0
  3 21  1  0  0  0  0
  4 14  1  0  0  0  0
  4 13  2  0  0  0  0
  6  2  1  0  0  0  0
  7  9  1  0  0  0  0
  8 10  1  0  0  0  0
 11 16  1  0  0  0  0
 11  7  1  0  0  0  0
 12  1  1  0  0  0  0
 13  5  1  0  0  0  0
 13  7  1  0  0  0  0
 14 11  2  0  0  0  0
 15 21  2  0  0  0  0
 15 20  1  0  0  0  0
 16  3  1  0  0  0  0
 17  8  2  0  0  0  0
 18  6  2  0  0  0  0
 18 14  1  0  0  0  0
 19 10  1  0  0  0  0
 20 19  2  0  0  0  0
 21 17  1  0  0  0  0
 22 25  2  0  0  0  0
 23 12  1  0  0  0  0
 24 23  2  0  0  0  0
 25 24  1  0  0  0  0
 26 25  1  0  0  0  0
 26 27  1  0  0  0  0
 27 23  1  0  0  0  0
M  END
>  <MODEL>
6

>  <REMARK>
 VINA RESULT:      -8.6      2.584      6.061
  Name = 
  1 active torsions:
  status: ('A' for Active; 'I' for Inactive)
    1  A    between atoms: C_9  and  C_15
                            x       y       z     vdW  Elec       q    Type
                         _______ _______ _______ _____ _____    ______ ____

>  <TORSDO>
F 1

$$$$
=
 OpenBabel11052413443D

 27 31  0  0  0  0  0  0  0  0999 V2000
  186.2840  178.3930  144.3890 N   0  0  0  0  0  2  0  0  0  0  0  0
  188.3680  177.6370  143.2220 C   0  0  0  0  0  0  0  0  0  0  0  0
  187.0550  179.1400  141.6770 C   0  0  0  0  0  2  0  0  0  0  0  0
  190.3810  176.4880  139.7490 N   0  0  0  0  0  0  0  0  0  0  0  0
  189.6440  176.8730  137.3920 C   0  0  0  0  0  1  0  0  0  0  0  0
  189.7050  176.9600  143.3360 C   0  0  0  0  0  3  0  0  0  0  0  0
  188.4350  177.6170  139.4630 N   0  0  0  0  0  0  0  0  0  0  0  0
  183.4130  178.1240  141.1790 C   0  0  0  0  0  3  0  0  0  0  0  0
  187.3000  178.2470  138.8070 C   0  0  0  0  0  1  0  0  0  0  0  0
  182.5840  178.3540  142.1950 C   0  0  0  0  0  2  0  0  0  0  0  0
  188.6810  177.4880  140.7780 C   0  0  0  0  0  0  0  0  0  0  0  0
  187.6430  177.8940  144.3550 C   0  0  0  0  0  0  0  0  0  0  0  0
  189.4800  176.9950  138.8680 C   0  0  0  0  0  0  0  0  0  0  0  0
  189.8470  176.8130  140.9430 C   0  0  0  0  0  0  0  0  0  0  0  0
  185.3850  178.7030  143.5000 C   0  0  0  0  0  0  0  0  0  0  0  0
  187.9280  178.0060  141.8880 N   0  0  0  0  0  0  0  0  0  0  0  0
  184.8330  178.4810  141.0830 C   0  0  0  0  0  3  0  0  0  0  0  0
  190.4070  176.5630  142.2660 C   0  0  0  0  0  3  0  0  0  0  0  0
  182.8950  179.0030  143.4740 C   0  0  0  0  0  3  0  0  0  0  0  0
  184.0920  179.1470  144.0350 C   0  0  0  0  0  3  0  0  0  0  0  0
  185.6880  178.7630  142.0660 C   0  0  0  0  0  0  0  0  0  0  0  0
  190.8930  176.7510  147.7180 N   0  0  0  0  0  2  0  0  0  0  0  0
  188.1870  177.6010  145.7060 C   0  0  0  0  0  0  0  0  0  0  0  0
  189.5140  177.3340  145.9340 N   0  0  0  0  0  0  0  0  0  0  0  0
  189.7350  177.0470  147.2300 C   0  0  0  0  0  0  0  0  0  0  0  0
  188.3110  177.0960  148.0710 S   0  0  0  0  0  0  0  0  0  0  0  0
  187.3470  177.5030  146.7800 N   0  0  0  0  0  2  0  0  0  0  0  0
  2  6  1  0  0  0  0
  2 12  2  0  0  0  0
  3 16  1  0  0  0  0
  3 21  1  0  0  0  0
  4 14  1  0  0  0  0
  5 13  1  0  0  0  0
  7 11  1  0  0  0  0
  8 10  1  0  0  0  0
  9  7  1  0  0  0  0
 10 19  1  0  0  0  0
 11 14  2  0  0  0  0
 11 16  1  0  0  0  0
 12  1  1  0  0  0  0
 12 23  1  0  0  0  0
 13  7  1  0  0  0  0
 13  4  2  0  0  0  0
 14 18  1  0  0  0  0
 15 20  1  0  0  0  0
 15  1  1  0  0  0  0
 16  2  1  0  0  0  0
 17  8  2  0  0  0  0
 17 21  1  0  0  0  0
 18  6  2  0  0  0  0
 19 20  2  0  0  0  0
 21 15  2  0  0  0  0
 23 24  2  0  0  0  0
 23 27  1  0  0  0  0
 24 25  1  0  0  0  0
 25 22  2  0  0  0  0
 25 26  1  0  0  0  0
 27 26  1  0  0  0  0
M  END
>  <MODEL>
7

>  <REMARK>
 VINA RESULT:      -8.6      2.474      5.853
  Name = 
  1 active torsions:
  status: ('A' for Active; 'I' for Inactive)
    1  A    between atoms: C_9  and  C_15
                            x       y       z     vdW  Elec       q    Type
                         _______ _______ _______ _____ _____    ______ ____

>  <TORSDO>
F 1

$$$$
=
 OpenBabel11052413443D

 27 31  0  0  0  0  0  0  0  0999 V2000
  187.9950  178.1040  140.8600 N   0  0  0  0  0  2  0  0  0  0  0  0
  185.7340  178.3210  139.8030 C   0  0  0  0  0  0  0  0  0  0  0  0
  185.6810  179.3790  142.0940 C   0  0  0  0  0  2  0  0  0  0  0  0
  181.5710  178.4040  140.1020 N   0  0  0  0  0  0  0  0  0  0  0  0
  180.2220  178.7400  142.1800 C   0  0  0  0  0  1  0  0  0  0  0  0
  184.9040  178.1890  138.5570 C   0  0  0  0  0  3  0  0  0  0  0  0
  182.7290  178.7410  142.0220 N   0  0  0  0  0  0  0  0  0  0  0  0
  186.9030  177.1280  144.9190 C   0  0  0  0  0  3  0  0  0  0  0  0
  183.0090  178.9660  143.4320 C   0  0  0  0  0  1  0  0  0  0  0  0
  188.2150  176.9160  144.9890 C   0  0  0  0  0  2  0  0  0  0  0  0
  183.5950  178.5710  141.0090 C   0  0  0  0  0  0  0  0  0  0  0  0
  187.0920  178.1600  139.7300 C   0  0  0  0  0  0  0  0  0  0  0  0
  181.5110  178.6280  141.4400 C   0  0  0  0  0  0  0  0  0  0  0  0
  182.8960  178.3710  139.8630 C   0  0  0  0  0  0  0  0  0  0  0  0
  187.8680  178.1470  142.1550 C   0  0  0  0  0  0  0  0  0  0  0  0
  185.0310  178.6410  141.0330 N   0  0  0  0  0  0  0  0  0  0  0  0
  186.1850  178.0010  143.9840 C   0  0  0  0  0  3  0  0  0  0  0  0
  183.5650  178.2060  138.5770 C   0  0  0  0  0  3  0  0  0  0  0  0
  189.2610  177.4890  144.1340 C   0  0  0  0  0  3  0  0  0  0  0  0
  189.1130  178.0100  142.9190 C   0  0  0  0  0  3  0  0  0  0  0  0
  186.5950  178.4750  142.8070 C   0  0  0  0  0  0  0  0  0  0  0  0
  188.9960  175.7560  136.0180 N   0  0  0  0  0  2  0  0  0  0  0  0
  187.7780  177.9470  138.4290 C   0  0  0  0  0  0  0  0  0  0  0  0
  187.9730  176.7010  137.8850 N   0  0  0  0  0  0  0  0  0  0  0  0
  188.6670  176.7780  136.7340 C   0  0  0  0  0  0  0  0  0  0  0  0
  189.0550  178.3540  136.4120 S   0  0  0  0  0  0  0  0  0  0  0  0
  188.3260  179.0030  137.7580 N   0  0  0  0  0  2  0  0  0  0  0  0
  1 15  1  0  0  0  0
  2 16  1  0  0  0  0
  3 21  1  0  0  0  0
  4 13  2  0  0  0  0
  6 18  2  0  0  0  0
  6  2  1  0  0  0  0
  7  9  1  0  0  0  0
  8 10  1  0  0  0  0
 11 16  1  0  0  0  0
 11  7  1  0  0  0  0
 12  2  2  0  0  0  0
 12  1  1  0  0  0  0
 13  7  1  0  0  0  0
 13  5  1  0  0  0  0
 14  4  1  0  0  0  0
 14 11  2  0  0  0  0
 15 21  2  0  0  0  0
 15 20  1  0  0  0  0
 16  3  1  0  0  0  0
 17  8  2  0  0  0  0
 18 14  1  0  0  0  0
 19 10  1  0  0  0  0
 20 19  2  0  0  0  0
 21 17  1  0  0  0  0
 22 25  2  0  0  0  0
 23 12  1  0  0  0  0
 24 23  2  0  0  0  0
 25 24  1  0  0  0  0
 26 25  1  0  0  0  0
 26 27  1  0  0  0  0
 27 23  1  0  0  0  0
M  END
>  <MODEL>
8

>  <REMARK>
 VINA RESULT:      -8.2      2.537      6.217
  Name = 
  1 active torsions:
  status: ('A' for Active; 'I' for Inactive)
    1  A    between atoms: C_9  and  C_15
                            x       y       z     vdW  Elec       q    Type
                         _______ _______ _______ _____ _____    ______ ____

>  <TORSDO>
F 1

$$$$
=
 OpenBabel11052413443D

 27 31  0  0  0  0  0  0  0  0999 V2000
  185.0990  178.2890  143.2900 N   0  0  0  0  0  2  0  0  0  0  0  0
  186.7510  178.1020  141.4140 C   0  0  0  0  0  0  0  0  0  0  0  0
  187.5430  176.6980  143.3560 C   0  0  0  0  0  2  0  0  0  0  0  0
  190.6770  177.7180  140.0480 N   0  0  0  0  0  0  0  0  0  0  0  0
  192.6620  176.9810  141.3760 C   0  0  0  0  0  1  0  0  0  0  0  0
  187.0570  178.3760  139.9690 C   0  0  0  0  0  3  0  0  0  0  0  0
  190.3000  177.1570  142.2130 N   0  0  0  0  0  0  0  0  0  0  0  0
  187.7520  178.5510  146.6830 C   0  0  0  0  0  3  0  0  0  0  0  0
  190.5500  176.7330  143.5820 C   0  0  0  0  0  1  0  0  0  0  0  0
  186.5980  178.8290  147.2860 C   0  0  0  0  0  2  0  0  0  0  0  0
  189.1420  177.5360  141.6480 C   0  0  0  0  0  0  0  0  0  0  0  0
  185.4940  178.3550  141.8980 C   0  0  0  0  0  0  0  0  0  0  0  0
  191.2120  177.2850  141.2190 C   0  0  0  0  0  0  0  0  0  0  0  0
  189.3730  177.8700  140.3530 C   0  0  0  0  0  0  0  0  0  0  0  0
  185.7010  178.0370  144.4160 C   0  0  0  0  0  0  0  0  0  0  0  0
  187.8240  177.5510  142.2230 N   0  0  0  0  0  0  0  0  0  0  0  0
  187.9550  177.7920  145.4440 C   0  0  0  0  0  3  0  0  0  0  0  0
  188.2920  178.2730  139.4600 C   0  0  0  0  0  3  0  0  0  0  0  0
  185.2470  178.4620  146.8460 C   0  0  0  0  0  3  0  0  0  0  0  0
  184.8630  178.1290  145.6170 C   0  0  0  0  0  3  0  0  0  0  0  0
  187.0780  177.5340  144.4740 C   0  0  0  0  0  0  0  0  0  0  0  0
  181.0880  178.5520  139.9670 N   0  0  0  0  0  2  0  0  0  0  0  0
  184.3970  178.8100  141.0060 C   0  0  0  0  0  0  0  0  0  0  0  0
  183.1200  178.3140  141.0820 N   0  0  0  0  0  0  0  0  0  0  0  0
  182.3340  178.8480  140.1280 C   0  0  0  0  0  0  0  0  0  0  0  0
  183.2110  179.8940  139.1930 S   0  0  0  0  0  0  0  0  0  0  0  0
  184.6520  179.6990  140.0000 N   0  0  0  0  0  2  0  0  0  0  0  0
  1 15  1  0  0  0  0
  2 12  2  0  0  0  0
  2 16  1  0  0  0  0
  3 21  1  0  0  0  0
  4 14  1  0  0  0  0
  4 13  2  0  0  0  0
  6  2  1  0  0  0  0
  7  9  1  0  0  0  0
  8 10  1  0  0  0  0
 11  7  1  0  0  0  0
 11 16  1  0  0  0  0
 12  1  1  0  0  0  0
 13  5  1  0  0  0  0
 13  7  1  0  0  0  0
 14 11  2  0  0  0  0
 15 21  2  0  0  0  0
 15 20  1  0  0  0  0
 16  3  1  0  0  0  0
 17  8  2  0  0  0  0
 18  6  2  0  0  0  0
 18 14  1  0  0  0  0
 19 10  1  0  0  0  0
 20 19  2  0  0  0  0
 21 17  1  0  0  0  0
 22 25  2  0  0  0  0
 23 24  2  0  0  0  0
 23 12  1  0  0  0  0
 25 24  1  0  0  0  0
 26 27  1  0  0  0  0
 26 25  1  0  0  0  0
 27 23  1  0  0  0  0
M  END
>  <MODEL>
9

>  <REMARK>
 VINA RESULT:      -7.9      2.543      4.530
  Name = 
  1 active torsions:
  status: ('A' for Active; 'I' for Inactive)
    1  A    between atoms: C_9  and  C_15
                            x       y       z     vdW  Elec       q    Type
                         _______ _______ _______ _____ _____    ______ ____

>  <TORSDO>
F 1

$$$$
