=
 OpenBabel11052413023D

 31 35  0  0  1  0  0  0  0  0999 V2000
  185.4570  178.3510  145.6300 C   0  0  0  0  0  0  0  0  0  0  0  0
  188.8720  177.6470  144.0830 C   0  0  0  0  0  0  0  0  0  0  0  0
  189.7590  177.3070  145.1440 C   0  0  0  0  0  0  0  0  0  0  0  0
  190.2350  176.7670  147.4580 C   0  0  0  0  0  3  0  0  0  0  0  0
  187.4020  177.8830  144.2590 C   0  0  0  0  0  0  0  0  0  0  0  0
  184.6790  178.3930  144.5170 N   0  0  0  0  0  0  0  0  0  0  0  0
  189.3250  177.0990  146.4600 C   0  0  0  0  0  3  0  0  0  0  0  0
  188.5220  178.0960  141.6790 N   0  0  0  0  0  0  0  0  0  0  0  0
  184.8500  178.5710  146.9680 C   0  0  0  0  0  1  0  0  0  0  0  0
  191.6380  177.3180  143.5990 C   0  0  0  0  0  3  0  0  0  0  0  0
  192.4230  176.3440  148.0090 O   0  0  0  0  0  0  0  0  0  0  0  0
  187.1150  177.7170  141.7520 C   0  0  0  0  0  2  0  0  0  0  0  0
  189.4020  177.7900  142.7780 C   0  0  0  0  0  0  0  0  0  0  0  0
  186.8240  178.0990  145.5190 C   0  0  0  0  0  3  0  0  0  0  0  0
  191.5820  176.6410  147.1220 C   0  0  0  0  0  0  0  0  0  0  0  0
  186.5700  177.9580  143.1240 C   0  0  0  0  0  0  0  0  0  0  0  0
  185.2030  178.2010  143.2780 C   0  0  0  0  0  3  0  0  0  0  0  0
  190.7760  177.6320  142.5540 C   0  0  0  0  0  3  0  0  0  0  0  0
  191.1420  177.1480  144.8880 C   0  0  0  0  0  0  0  0  0  0  0  0
  191.9830  176.8320  145.8690 O   0  0  0  0  0  0  0  0  0  0  0  0
  189.0320  178.5530  140.3890 C   0  0  0  0  0  2  0  0  0  0  0  0
  189.8230  176.7180  139.0510 O   0  0  0  0  0  1  0  0  0  0  0  0
  188.7260  177.5530  139.2760 C   0  0  2  0  0  3  0  0  0  0  0  0
  188.3310  178.2740  137.9930 C   0  0  0  0  0  2  0  0  0  0  0  0
  184.5650  177.8900  137.8930 C   0  0  0  0  0  0  0  0  0  0  0  0
  185.5050  176.7860  135.9540 C   0  0  0  0  0  3  0  0  0  0  0  0
  183.4870  178.2510  138.6290 F   0  0  0  0  0  0  0  0  0  0  0  0
  185.8490  178.2510  138.3120 C   0  0  0  0  0  3  0  0  0  0  0  0
  186.7900  177.1460  136.3730 C   0  0  0  0  0  3  0  0  0  0  0  0
  186.9640  177.8760  137.5530 C   0  0  0  0  0  0  0  0  0  0  0  0
  184.3930  177.1580  136.7150 C   0  0  0  0  0  3  0  0  0  0  0  0
  1  9  1  0  0  0  0
  2  5  1  0  0  0  0
  2  3  1  0  0  0  0
  3  7  1  0  0  0  0
  5 14  2  0  0  0  0
  6  1  2  0  0  0  0
  7  4  2  0  0  0  0
  8 12  1  0  0  0  0
  8 13  1  0  0  0  0
 10 19  1  0  0  0  0
 12 16  1  0  0  0  0
 13  2  2  0  0  0  0
 14  1  1  0  0  0  0
 15  4  1  0  0  0  0
 15 11  2  0  0  0  0
 16 17  2  0  0  0  0
 16  5  1  0  0  0  0
 17  6  1  0  0  0  0
 18 13  1  0  0  0  0
 18 10  2  0  0  0  0
 19  3  2  0  0  0  0
 19 20  1  0  0  0  0
 20 15  1  0  0  0  0
 21  8  1  0  0  0  0
 23 22  1  6  0  0  0
 23 21  1  0  0  0  0
 24 23  1  0  0  0  0
 25 28  1  0  0  0  0
 25 27  1  0  0  0  0
 26 29  2  0  0  0  0
 26 31  1  0  0  0  0
 29 30  1  0  0  0  0
 30 24  1  0  0  0  0
 30 28  2  0  0  0  0
 31 25  2  0  0  0  0
M  END
>  <MODEL>
1

>  <REMARK>
 VINA RESULT:      -9.8      0.000      0.000
  Name = 
  4 active torsions:
  status: ('A' for Active; 'I' for Inactive)
    1  A    between atoms: C_3  and  C_9
    2  A    between atoms: C_3  and  C_22
    3  A    between atoms: C_9  and  C_23
    4  A    between atoms: N_15  and  C_23
                            x       y       z     vdW  Elec       q    Type
                         _______ _______ _______ _____ _____    ______ ____

>  <TORSDO>
F 4

$$$$
=
 OpenBabel11052413023D

 31 35  0  0  1  0  0  0  0  0999 V2000
  190.0760  177.3110  140.4170 C   0  0  0  0  0  0  0  0  0  0  0  0
  188.4050  177.6460  143.8300 C   0  0  0  0  0  0  0  0  0  0  0  0
  189.3910  177.3600  144.8170 C   0  0  0  0  0  0  0  0  0  0  0  0
  191.6680  176.9150  145.5150 C   0  0  0  0  0  3  0  0  0  0  0  0
  188.6880  177.7340  142.3610 C   0  0  0  0  0  0  0  0  0  0  0  0
  189.1250  177.8570  139.6150 N   0  0  0  0  0  0  0  0  0  0  0  0
  190.7470  177.1920  144.5100 C   0  0  0  0  0  3  0  0  0  0  0  0
  186.0560  178.1730  143.2750 N   0  0  0  0  0  0  0  0  0  0  0  0
  191.3360  176.7910  139.8250 C   0  0  0  0  0  1  0  0  0  0  0  0
  187.6910  177.4290  146.5570 C   0  0  0  0  0  3  0  0  0  0  0  0
  192.0310  176.5620  147.7540 O   0  0  0  0  0  0  0  0  0  0  0  0
  186.4370  178.8370  142.0330 C   0  0  0  0  0  2  0  0  0  0  0  0
  187.0670  177.8450  144.2480 C   0  0  0  0  0  0  0  0  0  0  0  0
  189.8720  177.2390  141.7950 C   0  0  0  0  0  3  0  0  0  0  0  0
  191.2160  176.8140  146.8300 C   0  0  0  0  0  0  0  0  0  0  0  0
  187.7130  178.2720  141.4960 C   0  0  0  0  0  0  0  0  0  0  0  0
  187.9600  178.3360  140.1230 C   0  0  0  0  0  3  0  0  0  0  0  0
  186.7260  177.7270  145.6010 C   0  0  0  0  0  3  0  0  0  0  0  0
  189.0190  177.2510  146.1790 C   0  0  0  0  0  0  0  0  0  0  0  0
  189.9280  176.9840  147.1120 O   0  0  0  0  0  0  0  0  0  0  0  0
  184.6320  178.0880  143.5870 C   0  0  0  0  0  2  0  0  0  0  0  0
  183.3820  180.1230  143.8700 O   0  0  0  0  0  1  0  0  0  0  0  0
  183.8410  179.2100  142.9170 C   0  0  2  0  0  3  0  0  0  0  0  0
  182.6750  178.6470  142.1130 C   0  0  0  0  0  2  0  0  0  0  0  0
  183.1760  176.6830  138.9140 C   0  0  0  0  0  0  0  0  0  0  0  0
  184.1880  178.8670  138.6460 C   0  0  0  0  0  3  0  0  0  0  0  0
  182.8730  175.4610  138.4140 F   0  0  0  0  0  0  0  0  0  0  0  0
  182.7880  177.0210  140.2140 C   0  0  0  0  0  3  0  0  0  0  0  0
  183.8000  179.2060  139.9460 C   0  0  0  0  0  3  0  0  0  0  0  0
  183.1020  178.2830  140.7330 C   0  0  0  0  0  0  0  0  0  0  0  0
  183.8760  177.6050  138.1310 C   0  0  0  0  0  3  0  0  0  0  0  0
  1 14  1  0  0  0  0
  2 13  2  0  0  0  0
  2  3  1  0  0  0  0
  3 19  2  0  0  0  0
  4 15  1  0  0  0  0
  5  2  1  0  0  0  0
  6 17  1  0  0  0  0
  6  1  2  0  0  0  0
  7  3  1  0  0  0  0
  7  4  2  0  0  0  0
  8 21  1  0  0  0  0
  8 13  1  0  0  0  0
  9  1  1  0  0  0  0
 12  8  1  0  0  0  0
 13 18  1  0  0  0  0
 14  5  2  0  0  0  0
 15 20  1  0  0  0  0
 15 11  2  0  0  0  0
 16 12  1  0  0  0  0
 16  5  1  0  0  0  0
 17 16  2  0  0  0  0
 18 10  2  0  0  0  0
 19 10  1  0  0  0  0
 19 20  1  0  0  0  0
 23 21  1  0  0  0  0
 23 22  1  1  0  0  0
 24 23  1  0  0  0  0
 25 28  1  0  0  0  0
 26 29  2  0  0  0  0
 27 25  1  0  0  0  0
 28 30  2  0  0  0  0
 29 30  1  0  0  0  0
 30 24  1  0  0  0  0
 31 26  1  0  0  0  0
 31 25  2  0  0  0  0
M  END
>  <MODEL>
2

>  <REMARK>
 VINA RESULT:      -9.8      2.299      4.482
  Name = 
  4 active torsions:
  status: ('A' for Active; 'I' for Inactive)
    1  A    between atoms: C_3  and  C_9
    2  A    between atoms: C_3  and  C_22
    3  A    between atoms: C_9  and  C_23
    4  A    between atoms: N_15  and  C_23
                            x       y       z     vdW  Elec       q    Type
                         _______ _______ _______ _____ _____    ______ ____

>  <TORSDO>
F 4

$$$$
=
 OpenBabel11052413023D

 31 35  0  0  1  0  0  0  0  0999 V2000
  187.8450  178.0110  140.4460 C   0  0  0  0  0  0  0  0  0  0  0  0
  185.2740  178.3140  143.2480 C   0  0  0  0  0  0  0  0  0  0  0  0
  184.0140  178.5850  142.6420 C   0  0  0  0  0  0  0  0  0  0  0  0
  182.5560  178.8080  140.7190 C   0  0  0  0  0  3  0  0  0  0  0  0
  186.5270  178.0120  142.4820 C   0  0  0  0  0  0  0  0  0  0  0  0
  188.9040  177.5020  141.1290 N   0  0  0  0  0  0  0  0  0  0  0  0
  183.8100  178.5350  141.2570 C   0  0  0  0  0  3  0  0  0  0  0  0
  186.6200  178.0360  145.3010 N   0  0  0  0  0  0  0  0  0  0  0  0
  187.9640  178.2850  138.9910 C   0  0  0  0  0  1  0  0  0  0  0  0
  183.0210  178.9510  144.8340 C   0  0  0  0  0  3  0  0  0  0  0  0
  180.3690  179.3790  141.1190 O   0  0  0  0  0  0  0  0  0  0  0  0
  187.5880  177.1820  144.6220 C   0  0  0  0  0  2  0  0  0  0  0  0
  185.3660  178.3440  144.6610 C   0  0  0  0  0  0  0  0  0  0  0  0
  186.6470  178.2750  141.1100 C   0  0  0  0  0  3  0  0  0  0  0  0
  181.5100  179.1260  141.5830 C   0  0  0  0  0  0  0  0  0  0  0  0
  187.6530  177.5060  143.1630 C   0  0  0  0  0  0  0  0  0  0  0  0
  188.8310  177.2450  142.4610 C   0  0  0  0  0  3  0  0  0  0  0  0
  184.2440  178.6690  145.4330 C   0  0  0  0  0  3  0  0  0  0  0  0
  182.8950  178.9060  143.4480 C   0  0  0  0  0  0  0  0  0  0  0  0
  181.7120  179.1620  142.8970 O   0  0  0  0  0  0  0  0  0  0  0  0
  186.8600  178.3450  146.7080 C   0  0  0  0  0  2  0  0  0  0  0  0
  187.7140  177.1800  148.6310 O   0  0  0  0  0  1  0  0  0  0  0  0
  187.9750  177.4790  147.2910 C   0  0  2  0  0  3  0  0  0  0  0  0
  189.3270  178.1680  147.1520 C   0  0  0  0  0  2  0  0  0  0  0  0
  191.7090  176.0650  145.0920 C   0  0  0  0  0  0  0  0  0  0  0  0
  192.1040  175.6060  147.4370 C   0  0  0  0  0  3  0  0  0  0  0  0
  192.0070  175.8500  143.7880 F   0  0  0  0  0  0  0  0  0  0  0  0
  190.7010  176.9710  145.4380 C   0  0  0  0  0  3  0  0  0  0  0  0
  191.0960  176.5110  147.7830 C   0  0  0  0  0  3  0  0  0  0  0  0
  190.3910  177.1920  146.7840 C   0  0  0  0  0  0  0  0  0  0  0  0
  192.4100  175.3830  146.0900 C   0  0  0  0  0  3  0  0  0  0  0  0
  1 14  2  0  0  0  0
  1  6  1  0  0  0  0
  2 13  1  0  0  0  0
  3  2  2  0  0  0  0
  3 19  1  0  0  0  0
  4  7  2  0  0  0  0
  4 15  1  0  0  0  0
  5 16  2  0  0  0  0
  5  2  1  0  0  0  0
  6 17  2  0  0  0  0
  7  3  1  0  0  0  0
  8 21  1  0  0  0  0
  9  1  1  0  0  0  0
 10 18  1  0  0  0  0
 11 15  2  0  0  0  0
 12  8  1  0  0  0  0
 13  8  1  0  0  0  0
 13 18  2  0  0  0  0
 14  5  1  0  0  0  0
 15 20  1  0  0  0  0
 16 12  1  0  0  0  0
 17 16  1  0  0  0  0
 19 10  2  0  0  0  0
 20 19  1  0  0  0  0
 21 23  1  0  0  0  0
 23 22  1  1  0  0  0
 24 23  1  0  0  0  0
 25 28  2  0  0  0  0
 25 31  1  0  0  0  0
 26 29  1  0  0  0  0
 27 25  1  0  0  0  0
 28 30  1  0  0  0  0
 30 24  1  0  0  0  0
 30 29  2  0  0  0  0
 31 26  2  0  0  0  0
M  END
>  <MODEL>
3

>  <REMARK>
 VINA RESULT:      -9.7      3.572      8.548
  Name = 
  4 active torsions:
  status: ('A' for Active; 'I' for Inactive)
    1  A    between atoms: C_3  and  C_9
    2  A    between atoms: C_3  and  C_22
    3  A    between atoms: C_9  and  C_23
    4  A    between atoms: N_15  and  C_23
                            x       y       z     vdW  Elec       q    Type
                         _______ _______ _______ _____ _____    ______ ____

>  <TORSDO>
F 4

$$$$
=
 OpenBabel11052413023D

 31 35  0  0  1  0  0  0  0  0999 V2000
  189.1970  177.2840  141.3060 C   0  0  0  0  0  0  0  0  0  0  0  0
  186.3860  178.2170  143.7100 C   0  0  0  0  0  0  0  0  0  0  0  0
  186.9000  178.1020  145.0330 C   0  0  0  0  0  0  0  0  0  0  0  0
  188.7050  177.7730  146.6170 C   0  0  0  0  0  3  0  0  0  0  0  0
  187.2100  178.0460  142.4700 C   0  0  0  0  0  0  0  0  0  0  0  0
  188.6630  177.6870  140.1240 N   0  0  0  0  0  0  0  0  0  0  0  0
  188.2560  177.8760  145.3040 C   0  0  0  0  0  3  0  0  0  0  0  0
  184.4670  178.6520  142.2160 N   0  0  0  0  0  0  0  0  0  0  0  0
  190.5460  176.6620  141.3370 C   0  0  0  0  0  1  0  0  0  0  0  0
  184.6780  178.4820  145.9480 C   0  0  0  0  0  3  0  0  0  0  0  0
  188.1650  177.8130  148.8480 O   0  0  0  0  0  0  0  0  0  0  0  0
  185.3370  179.0870  141.1280 C   0  0  0  0  0  2  0  0  0  0  0  0
  185.0070  178.4920  143.5420 C   0  0  0  0  0  0  0  0  0  0  0  0
  188.4810  177.4540  142.4910 C   0  0  0  0  0  3  0  0  0  0  0  0
  187.7820  177.9050  147.6530 C   0  0  0  0  0  0  0  0  0  0  0  0
  186.6770  178.4300  141.2230 C   0  0  0  0  0  0  0  0  0  0  0  0
  187.4300  178.2530  140.0600 C   0  0  0  0  0  3  0  0  0  0  0  0
  184.1710  178.6130  144.6600 C   0  0  0  0  0  3  0  0  0  0  0  0
  186.0330  178.2330  146.1440 C   0  0  0  0  0  0  0  0  0  0  0  0
  186.4990  178.1280  147.3860 O   0  0  0  0  0  0  0  0  0  0  0  0
  183.0290  178.6290  141.9630 C   0  0  0  0  0  2  0  0  0  0  0  0
  181.7130  179.4620  140.1300 O   0  0  0  0  0  1  0  0  0  0  0  0
  182.7210  178.5550  140.4690 C   0  0  2  0  0  3  0  0  0  0  0  0
  182.3220  177.1410  140.0670 C   0  0  0  0  0  2  0  0  0  0  0  0
  184.8700  177.0430  137.2670 C   0  0  0  0  0  0  0  0  0  0  0  0
  183.8300  174.8630  137.4410 C   0  0  0  0  0  3  0  0  0  0  0  0
  185.7580  177.8750  136.6720 F   0  0  0  0  0  0  0  0  0  0  0  0
  184.0760  177.5070  138.3210 C   0  0  0  0  0  3  0  0  0  0  0  0
  183.0360  175.3260  138.4950 C   0  0  0  0  0  3  0  0  0  0  0  0
  183.1560  176.6500  138.9350 C   0  0  0  0  0  0  0  0  0  0  0  0
  184.7470  175.7220  136.8270 C   0  0  0  0  0  3  0  0  0  0  0  0
  1  9  1  0  0  0  0
  1 14  1  0  0  0  0
  2  3  1  0  0  0  0
  3  7  1  0  0  0  0
  3 19  2  0  0  0  0
  4 15  1  0  0  0  0
  5 14  2  0  0  0  0
  5  2  1  0  0  0  0
  6  1  2  0  0  0  0
  7  4  2  0  0  0  0
  8 13  1  0  0  0  0
 10 19  1  0  0  0  0
 12 16  1  0  0  0  0
 12  8  1  0  0  0  0
 13  2  2  0  0  0  0
 13 18  1  0  0  0  0
 15 11  2  0  0  0  0
 16  5  1  0  0  0  0
 17  6  1  0  0  0  0
 17 16  2  0  0  0  0
 18 10  2  0  0  0  0
 19 20  1  0  0  0  0
 20 15  1  0  0  0  0
 21  8  1  0  0  0  0
 23 22  1  1  0  0  0
 23 21  1  0  0  0  0
 24 23  1  0  0  0  0
 25 28  1  0  0  0  0
 26 29  2  0  0  0  0
 27 25  1  0  0  0  0
 28 30  2  0  0  0  0
 29 30  1  0  0  0  0
 30 24  1  0  0  0  0
 31 25  2  0  0  0  0
 31 26  1  0  0  0  0
M  END
>  <MODEL>
4

>  <REMARK>
 VINA RESULT:      -9.5      2.690      4.752
  Name = 
  4 active torsions:
  status: ('A' for Active; 'I' for Inactive)
    1  A    between atoms: C_3  and  C_9
    2  A    between atoms: C_3  and  C_22
    3  A    between atoms: C_9  and  C_23
    4  A    between atoms: N_15  and  C_23
                            x       y       z     vdW  Elec       q    Type
                         _______ _______ _______ _____ _____    ______ ____

>  <TORSDO>
F 4

$$$$
=
 OpenBabel11052413023D

 31 35  0  0  1  0  0  0  0  0999 V2000
  191.1120  176.5300  144.0170 C   0  0  0  0  0  0  0  0  0  0  0  0
  187.7350  177.9310  142.9280 C   0  0  0  0  0  0  0  0  0  0  0  0
  186.9270  178.0500  144.0940 C   0  0  0  0  0  0  0  0  0  0  0  0
  186.5910  177.9860  146.4930 C   0  0  0  0  0  3  0  0  0  0  0  0
  189.1770  177.5240  142.9430 C   0  0  0  0  0  0  0  0  0  0  0  0
  191.8410  176.7190  142.8860 N   0  0  0  0  0  0  0  0  0  0  0  0
  187.4260  177.8550  145.3880 C   0  0  0  0  0  3  0  0  0  0  0  0
  187.9500  178.1180  140.4740 N   0  0  0  0  0  0  0  0  0  0  0  0
  191.7400  175.9020  145.2080 C   0  0  0  0  0  1  0  0  0  0  0  0
  185.0020  178.6270  142.7210 C   0  0  0  0  0  3  0  0  0  0  0  0
  184.4800  178.4400  147.2720 O   0  0  0  0  0  0  0  0  0  0  0  0
  189.3910  178.3340  140.5570 C   0  0  0  0  0  2  0  0  0  0  0  0
  187.1460  178.1940  141.6670 C   0  0  0  0  0  0  0  0  0  0  0  0
  189.7740  176.9240  144.0610 C   0  0  0  0  0  3  0  0  0  0  0  0
  185.2530  178.3190  146.2870 C   0  0  0  0  0  0  0  0  0  0  0  0
  189.9570  177.6830  141.7790 C   0  0  0  0  0  0  0  0  0  0  0  0
  191.2950  177.2850  141.7780 C   0  0  0  0  0  3  0  0  0  0  0  0
  185.7890  178.5300  141.5780 C   0  0  0  0  0  3  0  0  0  0  0  0
  185.5580  178.3960  143.9750 C   0  0  0  0  0  0  0  0  0  0  0  0
  184.7910  178.5110  145.0560 O   0  0  0  0  0  0  0  0  0  0  0  0
  187.3500  178.0740  139.1430 C   0  0  0  0  0  2  0  0  0  0  0  0
  188.2100  179.2400  137.2230 O   0  0  0  0  0  1  0  0  0  0  0  0
  188.4100  178.1280  138.0450 C   0  0  2  0  0  3  0  0  0  0  0  0
  188.4010  176.8470  137.2190 C   0  0  0  0  0  2  0  0  0  0  0  0
  192.0880  176.1820  137.7720 C   0  0  0  0  0  0  0  0  0  0  0  0
  191.0100  174.0990  137.1660 C   0  0  0  0  0  3  0  0  0  0  0  0
  193.2040  176.8680  138.1150 F   0  0  0  0  0  0  0  0  0  0  0  0
  190.8630  176.8470  137.6700 C   0  0  0  0  0  3  0  0  0  0  0  0
  189.7840  174.7650  137.0650 C   0  0  0  0  0  3  0  0  0  0  0  0
  189.7090  176.1400  137.3130 C   0  0  0  0  0  0  0  0  0  0  0  0
  192.1620  174.8090  137.5200 C   0  0  0  0  0  3  0  0  0  0  0  0
  1 14  1  0  0  0  0
  1  9  1  0  0  0  0
  2  5  1  0  0  0  0
  2  3  1  0  0  0  0
  3  7  1  0  0  0  0
  5 14  2  0  0  0  0
  6  1  2  0  0  0  0
  7  4  2  0  0  0  0
  8 12  1  0  0  0  0
  8 13  1  0  0  0  0
 10 19  1  0  0  0  0
 12 16  1  0  0  0  0
 13  2  2  0  0  0  0
 15  4  1  0  0  0  0
 15 11  2  0  0  0  0
 16  5  1  0  0  0  0
 17 16  2  0  0  0  0
 17  6  1  0  0  0  0
 18 13  1  0  0  0  0
 18 10  2  0  0  0  0
 19  3  2  0  0  0  0
 19 20  1  0  0  0  0
 20 15  1  0  0  0  0
 21  8  1  0  0  0  0
 23 22  1  6  0  0  0
 23 21  1  0  0  0  0
 24 30  1  0  0  0  0
 24 23  1  0  0  0  0
 25 27  1  0  0  0  0
 26 31  1  0  0  0  0
 28 25  1  0  0  0  0
 29 26  2  0  0  0  0
 29 30  1  0  0  0  0
 30 28  2  0  0  0  0
 31 25  2  0  0  0  0
M  END
>  <MODEL>
5

>  <REMARK>
 VINA RESULT:      -9.4      3.351      5.333
  Name = 
  4 active torsions:
  status: ('A' for Active; 'I' for Inactive)
    1  A    between atoms: C_3  and  C_9
    2  A    between atoms: C_3  and  C_22
    3  A    between atoms: C_9  and  C_23
    4  A    between atoms: N_15  and  C_23
                            x       y       z     vdW  Elec       q    Type
                         _______ _______ _______ _____ _____    ______ ____

>  <TORSDO>
F 4

$$$$
=
 OpenBabel11052413023D

 31 35  0  0  1  0  0  0  0  0999 V2000
  190.5360  176.4080  142.5650 C   0  0  0  0  0  0  0  0  0  0  0  0
  187.3360  177.9240  143.9840 C   0  0  0  0  0  0  0  0  0  0  0  0
  187.4420  177.8930  145.4040 C   0  0  0  0  0  0  0  0  0  0  0  0
  188.6710  177.5250  147.4600 C   0  0  0  0  0  3  0  0  0  0  0  0
  188.4370  177.5230  143.0500 C   0  0  0  0  0  0  0  0  0  0  0  0
  190.4130  176.7410  141.2530 N   0  0  0  0  0  0  0  0  0  0  0  0
  188.6220  177.5370  146.0700 C   0  0  0  0  0  3  0  0  0  0  0  0
  185.9890  178.4200  141.9730 N   0  0  0  0  0  0  0  0  0  0  0  0
  191.7190  175.6370  143.0270 C   0  0  0  0  0  1  0  0  0  0  0  0
  185.1330  178.6310  145.6100 C   0  0  0  0  0  3  0  0  0  0  0  0
  187.5480  177.8700  149.4320 O   0  0  0  0  0  0  0  0  0  0  0  0
  187.1790  178.6290  141.1550 C   0  0  0  0  0  2  0  0  0  0  0  0
  186.1120  178.3420  143.4070 C   0  0  0  0  0  0  0  0  0  0  0  0
  189.5530  176.7890  143.4780 C   0  0  0  0  0  3  0  0  0  0  0  0
  187.5270  177.8770  148.1740 C   0  0  0  0  0  0  0  0  0  0  0  0
  188.3310  177.8310  141.6780 C   0  0  0  0  0  0  0  0  0  0  0  0
  189.3420  177.4400  140.7970 C   0  0  0  0  0  3  0  0  0  0  0  0
  185.0270  178.6830  144.2240 C   0  0  0  0  0  3  0  0  0  0  0  0
  186.3300  178.2460  146.2060 C   0  0  0  0  0  0  0  0  0  0  0  0
  186.4140  178.2210  147.5330 O   0  0  0  0  0  0  0  0  0  0  0  0
  184.6890  178.5420  141.3190 C   0  0  0  0  0  2  0  0  0  0  0  0
  184.1750  180.1290  139.5860 O   0  0  0  0  0  1  0  0  0  0  0  0
  184.8340  178.9240  139.8470 C   0  0  2  0  0  3  0  0  0  0  0  0
  184.3010  177.8180  138.9450 C   0  0  0  0  0  2  0  0  0  0  0  0
  187.1260  178.1550  136.4450 C   0  0  0  0  0  0  0  0  0  0  0  0
  185.2670  177.0390  135.3650 C   0  0  0  0  0  3  0  0  0  0  0  0
  188.3850  178.6510  136.3950 F   0  0  0  0  0  0  0  0  0  0  0  0
  186.3850  178.2450  137.6280 C   0  0  0  0  0  3  0  0  0  0  0  0
  184.5270  177.1290  136.5470 C   0  0  0  0  0  3  0  0  0  0  0  0
  185.0830  177.7350  137.6800 C   0  0  0  0  0  0  0  0  0  0  0  0
  186.5670  177.5520  135.3140 C   0  0  0  0  0  3  0  0  0  0  0  0
  1  9  1  0  0  0  0
  1 14  1  0  0  0  0
  2  3  1  0  0  0  0
  3  7  1  0  0  0  0
  3 19  2  0  0  0  0
  4 15  1  0  0  0  0
  5 14  2  0  0  0  0
  5  2  1  0  0  0  0
  6  1  2  0  0  0  0
  7  4  2  0  0  0  0
  8 13  1  0  0  0  0
 10 19  1  0  0  0  0
 12 16  1  0  0  0  0
 12  8  1  0  0  0  0
 13  2  2  0  0  0  0
 13 18  1  0  0  0  0
 15 11  2  0  0  0  0
 16  5  1  0  0  0  0
 17  6  1  0  0  0  0
 17 16  2  0  0  0  0
 18 10  2  0  0  0  0
 19 20  1  0  0  0  0
 20 15  1  0  0  0  0
 21  8  1  0  0  0  0
 23 22  1  1  0  0  0
 23 21  1  0  0  0  0
 24 23  1  0  0  0  0
 25 28  1  0  0  0  0
 26 29  2  0  0  0  0
 27 25  1  0  0  0  0
 28 30  2  0  0  0  0
 29 30  1  0  0  0  0
 30 24  1  0  0  0  0
 31 26  1  0  0  0  0
 31 25  2  0  0  0  0
M  END
>  <MODEL>
6

>  <REMARK>
 VINA RESULT:      -9.3      2.487      4.325
  Name = 
  4 active torsions:
  status: ('A' for Active; 'I' for Inactive)
    1  A    between atoms: C_3  and  C_9
    2  A    between atoms: C_3  and  C_22
    3  A    between atoms: C_9  and  C_23
    4  A    between atoms: N_15  and  C_23
                            x       y       z     vdW  Elec       q    Type
                         _______ _______ _______ _____ _____    ______ ____

>  <TORSDO>
F 4

$$$$
=
 OpenBabel11052413023D

 31 35  0  0  1  0  0  0  0  0999 V2000
  184.6710  179.0120  140.0780 C   0  0  0  0  0  0  0  0  0  0  0  0
  188.2850  177.8160  139.8350 C   0  0  0  0  0  0  0  0  0  0  0  0
  188.6220  177.7530  138.4530 C   0  0  0  0  0  0  0  0  0  0  0  0
  188.1640  178.1600  136.1080 C   0  0  0  0  0  3  0  0  0  0  0  0
  186.9880  178.3510  140.3610 C   0  0  0  0  0  0  0  0  0  0  0  0
  184.5800  179.2750  141.4080 N   0  0  0  0  0  0  0  0  0  0  0  0
  187.7850  178.2470  137.4440 C   0  0  0  0  0  3  0  0  0  0  0  0
  188.9220  177.4180  142.1890 N   0  0  0  0  0  0  0  0  0  0  0  0
  183.4920  179.2230  139.1980 C   0  0  0  0  0  1  0  0  0  0  0  0
  190.7440  176.6970  139.0010 C   0  0  0  0  0  3  0  0  0  0  0  0
  189.7540  177.4870  134.5950 O   0  0  0  0  0  0  0  0  0  0  0  0
  188.0080  178.4470  142.6730 C   0  0  0  0  0  2  0  0  0  0  0  0
  189.2200  177.3310  140.7820 C   0  0  0  0  0  0  0  0  0  0  0  0
  185.8690  178.5450  139.5370 C   0  0  0  0  0  3  0  0  0  0  0  0
  189.3920  177.5780  135.7960 C   0  0  0  0  0  0  0  0  0  0  0  0
  186.8510  178.6110  141.7400 C   0  0  0  0  0  0  0  0  0  0  0  0
  185.6370  179.0880  142.2410 C   0  0  0  0  0  3  0  0  0  0  0  0
  190.4310  176.7720  140.3540 C   0  0  0  0  0  3  0  0  0  0  0  0
  189.8550  177.1860  138.0490 C   0  0  0  0  0  0  0  0  0  0  0  0
  190.1820  177.1190  136.7620 O   0  0  0  0  0  0  0  0  0  0  0  0
  189.6870  176.6720  143.1850 C   0  0  0  0  0  2  0  0  0  0  0  0
  191.6920  177.9210  143.6350 O   0  0  0  0  0  1  0  0  0  0  0  0
  190.4280  177.6040  144.1400 C   0  0  2  0  0  3  0  0  0  0  0  0
  190.5490  176.9790  145.5240 C   0  0  0  0  0  2  0  0  0  0  0  0
  187.1040  177.9480  146.7650 C   0  0  0  0  0  0  0  0  0  0  0  0
  188.6750  178.1700  148.5950 C   0  0  0  0  0  3  0  0  0  0  0  0
  185.8410  178.0410  146.2860 F   0  0  0  0  0  0  0  0  0  0  0  0
  188.1410  177.5320  145.9240 C   0  0  0  0  0  3  0  0  0  0  0  0
  189.7120  177.7540  147.7540 C   0  0  0  0  0  3  0  0  0  0  0  0
  189.4480  177.4370  146.4170 C   0  0  0  0  0  0  0  0  0  0  0  0
  187.3710  178.2670  148.0990 C   0  0  0  0  0  3  0  0  0  0  0  0
  1  6  1  0  0  0  0
  2  5  1  0  0  0  0
  2 13  1  0  0  0  0
  3  2  2  0  0  0  0
  4  7  2  0  0  0  0
  5 16  2  0  0  0  0
  6 17  2  0  0  0  0
  7  3  1  0  0  0  0
  8 12  1  0  0  0  0
  8 21  1  0  0  0  0
  9  1  1  0  0  0  0
 10 18  1  0  0  0  0
 11 15  2  0  0  0  0
 13  8  1  0  0  0  0
 14  1  2  0  0  0  0
 14  5  1  0  0  0  0
 15  4  1  0  0  0  0
 15 20  1  0  0  0  0
 16 17  1  0  0  0  0
 16 12  1  0  0  0  0
 18 13  2  0  0  0  0
 19  3  1  0  0  0  0
 19 10  2  0  0  0  0
 20 19  1  0  0  0  0
 21 23  1  0  0  0  0
 23 22  1  6  0  0  0
 23 24  1  0  0  0  0
 24 30  1  0  0  0  0
 25 31  1  0  0  0  0
 27 25  1  0  0  0  0
 28 30  1  0  0  0  0
 28 25  2  0  0  0  0
 29 26  1  0  0  0  0
 30 29  2  0  0  0  0
 31 26  2  0  0  0  0
M  END
>  <MODEL>
7

>  <REMARK>
 VINA RESULT:      -9.2      2.391      7.651
  Name = 
  4 active torsions:
  status: ('A' for Active; 'I' for Inactive)
    1  A    between atoms: C_3  and  C_9
    2  A    between atoms: C_3  and  C_22
    3  A    between atoms: C_9  and  C_23
    4  A    between atoms: N_15  and  C_23
                            x       y       z     vdW  Elec       q    Type
                         _______ _______ _______ _____ _____    ______ ____

>  <TORSDO>
F 4

$$$$
=
 OpenBabel11052413023D

 31 35  0  0  1  0  0  0  0  0999 V2000
  180.4000  177.7540  141.4160 C   0  0  0  0  0  0  0  0  0  0  0  0
  184.0990  178.6850  141.4660 C   0  0  0  0  0  0  0  0  0  0  0  0
  184.6190  178.4370  140.1640 C   0  0  0  0  0  0  0  0  0  0  0  0
  184.3680  177.8720  137.8210 C   0  0  0  0  0  3  0  0  0  0  0  0
  182.6510  178.5550  141.8320 C   0  0  0  0  0  0  0  0  0  0  0  0
  179.9900  178.2790  142.6000 N   0  0  0  0  0  0  0  0  0  0  0  0
  183.8070  178.1030  139.0730 C   0  0  0  0  0  3  0  0  0  0  0  0
  184.4950  179.3560  143.8110 N   0  0  0  0  0  0  0  0  0  0  0  0
  179.4280  177.0450  140.5430 C   0  0  0  0  0  1  0  0  0  0  0  0
  186.8730  178.8910  140.9600 C   0  0  0  0  0  3  0  0  0  0  0  0
  186.2790  177.7790  136.5520 O   0  0  0  0  0  0  0  0  0  0  0  0
  183.1190  179.8150  143.9740 C   0  0  0  0  0  2  0  0  0  0  0  0
  184.9980  179.0620  142.4940 C   0  0  0  0  0  0  0  0  0  0  0  0
  181.7310  177.8800  141.0170 C   0  0  0  0  0  3  0  0  0  0  0  0
  185.7500  177.9850  137.6740 C   0  0  0  0  0  0  0  0  0  0  0  0
  182.1970  179.0660  143.0650 C   0  0  0  0  0  0  0  0  0  0  0  0
  180.8540  178.9290  143.4240 C   0  0  0  0  0  3  0  0  0  0  0  0
  186.3710  179.1530  142.2300 C   0  0  0  0  0  3  0  0  0  0  0  0
  186.0110  178.5410  139.9260 C   0  0  0  0  0  0  0  0  0  0  0  0
  186.5110  178.3110  138.7140 O   0  0  0  0  0  0  0  0  0  0  0  0
  185.3790  179.4470  144.9700 C   0  0  0  0  0  2  0  0  0  0  0  0
  184.4020  178.2630  146.8200 O   0  0  0  0  0  1  0  0  0  0  0  0
  185.3520  178.1670  145.8010 C   0  0  2  0  0  3  0  0  0  0  0  0
  186.7290  177.8680  146.3820 C   0  0  0  0  0  2  0  0  0  0  0  0
  189.9220  177.4750  144.3830 C   0  0  0  0  0  0  0  0  0  0  0  0
  188.1550  176.2550  143.2640 C   0  0  0  0  0  3  0  0  0  0  0  0
  191.2140  177.8750  144.4440 F   0  0  0  0  0  0  0  0  0  0  0  0
  189.0210  177.8700  145.3770 C   0  0  0  0  0  3  0  0  0  0  0  0
  187.2540  176.6490  144.2580 C   0  0  0  0  0  3  0  0  0  0  0  0
  187.6840  177.4590  145.3140 C   0  0  0  0  0  0  0  0  0  0  0  0
  189.4890  176.6690  143.3270 C   0  0  0  0  0  3  0  0  0  0  0  0
  1  6  1  0  0  0  0
  2  5  1  0  0  0  0
  2 13  1  0  0  0  0
  3  2  2  0  0  0  0
  4  7  2  0  0  0  0
  5 16  2  0  0  0  0
  6 17  2  0  0  0  0
  7  3  1  0  0  0  0
  8 12  1  0  0  0  0
  8 21  1  0  0  0  0
  9  1  1  0  0  0  0
 10 18  1  0  0  0  0
 11 15  2  0  0  0  0
 13  8  1  0  0  0  0
 14  1  2  0  0  0  0
 14  5  1  0  0  0  0
 15  4  1  0  0  0  0
 15 20  1  0  0  0  0
 16 17  1  0  0  0  0
 16 12  1  0  0  0  0
 18 13  2  0  0  0  0
 19  3  1  0  0  0  0
 19 10  2  0  0  0  0
 20 19  1  0  0  0  0
 21 23  1  0  0  0  0
 23 24  1  0  0  0  0
 23 22  1  1  0  0  0
 25 27  1  0  0  0  0
 25 28  1  0  0  0  0
 26 31  1  0  0  0  0
 26 29  2  0  0  0  0
 29 30  1  0  0  0  0
 30 28  2  0  0  0  0
 30 24  1  0  0  0  0
 31 25  2  0  0  0  0
M  END
>  <MODEL>
8

>  <REMARK>
 VINA RESULT:      -9.0      3.457      7.712
  Name = 
  4 active torsions:
  status: ('A' for Active; 'I' for Inactive)
    1  A    between atoms: C_3  and  C_9
    2  A    between atoms: C_3  and  C_22
    3  A    between atoms: C_9  and  C_23
    4  A    between atoms: N_15  and  C_23
                            x       y       z     vdW  Elec       q    Type
                         _______ _______ _______ _____ _____    ______ ____

>  <TORSDO>
F 4

$$$$
=
 OpenBabel11052413023D

 31 35  0  0  1  0  0  0  0  0999 V2000
  190.3680  176.1830  142.7640 C   0  0  0  0  0  0  0  0  0  0  0  0
  187.0130  177.9740  142.4610 C   0  0  0  0  0  0  0  0  0  0  0  0
  186.4690  178.0840  143.7720 C   0  0  0  0  0  0  0  0  0  0  0  0
  186.6090  177.8750  146.1830 C   0  0  0  0  0  3  0  0  0  0  0  0
  188.3780  177.4330  142.1600 C   0  0  0  0  0  0  0  0  0  0  0  0
  190.8760  176.3850  141.5200 N   0  0  0  0  0  0  0  0  0  0  0  0
  187.1900  177.7470  144.9250 C   0  0  0  0  0  3  0  0  0  0  0  0
  186.7600  178.3210  140.0280 N   0  0  0  0  0  0  0  0  0  0  0  0
  191.1470  175.4120  143.7670 C   0  0  0  0  0  1  0  0  0  0  0  0
  184.3850  178.9400  142.8530 C   0  0  0  0  0  3  0  0  0  0  0  0
  184.7540  178.4690  147.3980 O   0  0  0  0  0  0  0  0  0  0  0  0
  188.2030  178.3930  139.8280 C   0  0  0  0  0  2  0  0  0  0  0  0
  186.2200  178.3850  141.3620 C   0  0  0  0  0  0  0  0  0  0  0  0
  189.1160  176.6980  143.1000 C   0  0  0  0  0  3  0  0  0  0  0  0
  185.3000  178.3470  146.2720 C   0  0  0  0  0  0  0  0  0  0  0  0
  188.9250  177.6030  140.8720 C   0  0  0  0  0  0  0  0  0  0  0  0
  190.1870  177.0800  140.5770 C   0  0  0  0  0  3  0  0  0  0  0  0
  184.9160  178.8540  141.5710 C   0  0  0  0  0  3  0  0  0  0  0  0
  185.1500  178.5660  143.9540 C   0  0  0  0  0  0  0  0  0  0  0  0
  184.6270  178.6730  145.1720 O   0  0  0  0  0  0  0  0  0  0  0  0
  185.9080  178.4320  138.8480 C   0  0  0  0  0  2  0  0  0  0  0  0
  187.0650  178.9400  136.8010 O   0  0  0  0  0  1  0  0  0  0  0  0
  186.6010  177.8910  137.6000 C   0  0  2  0  0  3  0  0  0  0  0  0
  185.6630  176.9910  136.8040 C   0  0  0  0  0  2  0  0  0  0  0  0
  185.4040  173.2690  137.4520 C   0  0  0  0  0  0  0  0  0  0  0  0
  187.6960  173.7940  136.8710 C   0  0  0  0  0  3  0  0  0  0  0  0
  184.4600  172.3610  137.7980 F   0  0  0  0  0  0  0  0  0  0  0  0
  185.0590  174.6170  137.3170 C   0  0  0  0  0  3  0  0  0  0  0  0
  187.3510  175.1430  136.7360 C   0  0  0  0  0  3  0  0  0  0  0  0
  186.0340  175.5570  136.9620 C   0  0  0  0  0  0  0  0  0  0  0  0
  186.7210  172.8570  137.2290 C   0  0  0  0  0  3  0  0  0  0  0  0
  1 14  1  0  0  0  0
  1  9  1  0  0  0  0
  2  3  1  0  0  0  0
  3 19  2  0  0  0  0
  3  7  1  0  0  0  0
  4 15  1  0  0  0  0
  5  2  1  0  0  0  0
  5 14  2  0  0  0  0
  6  1  2  0  0  0  0
  7  4  2  0  0  0  0
  8 13  1  0  0  0  0
 10 19  1  0  0  0  0
 12  8  1  0  0  0  0
 12 16  1  0  0  0  0
 13 18  1  0  0  0  0
 13  2  2  0  0  0  0
 15 11  2  0  0  0  0
 16  5  1  0  0  0  0
 17 16  2  0  0  0  0
 17  6  1  0  0  0  0
 18 10  2  0  0  0  0
 19 20  1  0  0  0  0
 20 15  1  0  0  0  0
 21  8  1  0  0  0  0
 23 22  1  6  0  0  0
 23 21  1  0  0  0  0
 24 30  1  0  0  0  0
 24 23  1  0  0  0  0
 25 27  1  0  0  0  0
 26 31  1  0  0  0  0
 28 25  1  0  0  0  0
 29 26  2  0  0  0  0
 29 30  1  0  0  0  0
 30 28  2  0  0  0  0
 31 25  2  0  0  0  0
M  END
>  <MODEL>
9

>  <REMARK>
 VINA RESULT:      -9.0      2.988      4.900
  Name = 
  4 active torsions:
  status: ('A' for Active; 'I' for Inactive)
    1  A    between atoms: C_3  and  C_9
    2  A    between atoms: C_3  and  C_22
    3  A    between atoms: C_9  and  C_23
    4  A    between atoms: N_15  and  C_23
                            x       y       z     vdW  Elec       q    Type
                         _______ _______ _______ _____ _____    ______ ____

>  <TORSDO>
F 4

$$$$
