=
 OpenBabel11052415483D

 34 39  0  0  1  0  0  0  0  0999 V2000
  187.4820  177.8610  144.7200 C   0  0  0  0  0  0  0  0  0  0  0  0
  190.8150  176.7860  143.1320 C   0  0  0  0  0  3  0  0  0  0  0  0
  190.0750  177.0770  145.3790 N   0  0  0  0  0  0  0  0  0  0  0  0
  185.3020  178.5650  145.6170 C   0  0  0  0  0  0  0  0  0  0  0  0
  186.1420  178.2720  144.5160 C   0  0  0  0  0  3  0  0  0  0  0  0
  187.1060  178.0450  147.1060 C   0  0  0  0  0  0  0  0  0  0  0  0
  188.0120  177.8060  148.5000 S   0  0  0  0  0  0  0  0  0  0  0  0
  185.7860  178.4530  146.9370 C   0  0  0  0  0  3  0  0  0  0  0  0
  189.1930  177.3770  146.3590 C   0  0  0  0  0  0  0  0  0  0  0  0
  187.9120  177.7640  146.0350 C   0  0  0  0  0  0  0  0  0  0  0  0
  189.4600  177.3340  147.7290 C   0  0  0  0  0  3  0  0  0  0  0  0
  190.8580  176.7380  141.8070 C   0  0  0  0  0  3  0  0  0  0  0  0
  189.8160  177.0360  140.8180 C   0  0  0  0  0  0  0  0  0  0  0  0
  188.5810  177.4270  141.1220 C   0  0  0  0  0  3  0  0  0  0  0  0
  189.7290  177.1470  144.0540 C   0  0  0  0  0  0  0  0  0  0  0  0
  187.9500  177.6560  142.4250 C   0  0  0  0  0  3  0  0  0  0  0  0
  188.4010  177.5490  143.6810 C   0  0  0  0  0  0  0  0  0  0  0  0
  190.1580  176.8940  139.4310 N   0  0  0  0  0  0  0  0  0  0  0  0
  189.8450  177.8700  138.5450 O   0  0  0  0  0  0  0  0  0  0  0  0
  190.7980  175.7860  138.9840 O   0  0  0  0  0  0  0  0  0  0  0  0
  183.8950  179.0170  145.3790 C   0  0  0  0  0  2  0  0  0  0  0  0
  181.5670  178.9610  142.3740 C   0  0  0  0  0  3  0  0  0  0  0  0
  184.2230  178.0710  143.0520 C   0  0  0  0  0  2  0  0  0  0  0  0
  182.9430  178.3800  138.9590 C   0  0  2  0  0  3  0  0  0  0  0  0
  181.8040  178.5460  139.9740 C   0  0  0  0  0  2  0  0  0  0  0  0
  182.3310  178.5110  141.3770 C   0  0  0  0  0  0  0  0  0  0  0  0
  184.6880  179.0400  140.7380 C   0  0  0  0  0  2  0  0  0  0  0  0
  183.7830  178.1440  141.5860 C   0  0  1  0  0  3  0  0  0  0  0  0
  184.1460  179.2730  139.3120 C   0  0  0  0  0  2  0  0  0  0  0  0
  183.5530  179.1530  143.8940 C   0  0  1  0  0  3  0  0  0  0  0  0
  182.1090  179.1370  143.6840 N   0  0  0  0  0  2  0  0  0  0  0  0
  182.4690  178.6760  137.6170 N   0  0  0  0  0  0  0  0  0  0  0  0
  182.7700  177.9170  136.6750 O   0  0  0  0  0  0  0  0  0  0  0  0
  181.6340  179.7470  137.3910 O   0  0  0  0  0  0  0  0  0  0  0  0
  1 10  1  0  0  0  0
  2 15  1  0  0  0  0
  3  9  1  0  0  0  0
  4  8  2  0  0  0  0
  5  1  2  0  0  0  0
  5  4  1  0  0  0  0
  6  7  1  0  0  0  0
  8  6  1  0  0  0  0
  9 11  2  0  0  0  0
 10  9  1  0  0  0  0
 10  6  2  0  0  0  0
 11  7  1  0  0  0  0
 12  2  2  0  0  0  0
 13 14  2  0  0  0  0
 13 12  1  0  0  0  0
 14 16  1  0  0  0  0
 15  3  2  0  0  0  0
 16 17  2  0  0  0  0
 17 15  1  0  0  0  0
 17  1  1  0  0  0  0
 18 13  1  0  0  0  0
 19 18  2  0  0  0  0
 20 18  2  0  0  0  0
 21  4  1  0  0  0  0
 22 31  1  0  0  0  0
 23 30  1  0  0  0  0
 24 32  1  6  0  0  0
 24 29  1  0  0  0  0
 24 25  1  0  0  0  0
 25 26  1  0  0  0  0
 26 28  1  0  0  0  0
 26 22  2  0  0  0  0
 28 27  1  6  0  0  0
 28 23  1  0  0  0  0
 29 27  1  0  0  0  0
 30 21  1  1  0  0  0
 31 30  1  0  0  0  0
 33 32  2  0  0  0  0
 34 32  2  0  0  0  0
M  END
>  <MODEL>
1

>  <REMARK>
 VINA RESULT:     -10.9      0.000      0.000
  Name = 
  4 active torsions:
  status: ('A' for Active; 'I' for Inactive)
    1  A    between atoms: N_3  and  C_25
    2  A    between atoms: C_7  and  N_11
    3  A    between atoms: C_8  and  C_18
    4  A    between atoms: C_18  and  C_30
                            x       y       z     vdW  Elec       q    Type
                         _______ _______ _______ _____ _____    ______ ____

>  <TORSDO>
F 4

$$$$
=
 OpenBabel11052415483D

 34 39  0  0  1  0  0  0  0  0999 V2000
  188.9640  177.6890  144.0090 C   0  0  0  0  0  0  0  0  0  0  0  0
  191.5080  177.1130  141.1840 C   0  0  0  0  0  3  0  0  0  0  0  0
  191.5760  176.8290  143.5500 N   0  0  0  0  0  0  0  0  0  0  0  0
  187.2530  178.1010  145.7280 C   0  0  0  0  0  0  0  0  0  0  0  0
  187.6600  178.1060  144.3720 C   0  0  0  0  0  3  0  0  0  0  0  0
  189.4140  177.2750  146.3530 C   0  0  0  0  0  0  0  0  0  0  0  0
  190.7150  176.7230  147.2610 S   0  0  0  0  0  0  0  0  0  0  0  0
  188.1400  177.6800  146.7410 C   0  0  0  0  0  3  0  0  0  0  0  0
  191.0890  176.8590  144.8110 C   0  0  0  0  0  0  0  0  0  0  0  0
  189.8000  177.2840  145.0390 C   0  0  0  0  0  0  0  0  0  0  0  0
  191.7930  176.4890  145.9600 C   0  0  0  0  0  3  0  0  0  0  0  0
  191.1060  177.3920  139.9510 C   0  0  0  0  0  3  0  0  0  0  0  0
  189.8150  177.8980  139.4720 C   0  0  0  0  0  0  0  0  0  0  0  0
  188.7780  178.1740  140.2590 C   0  0  0  0  0  3  0  0  0  0  0  0
  190.8150  177.2130  142.4760 C   0  0  0  0  0  0  0  0  0  0  0  0
  188.6300  178.0620  141.7120 C   0  0  0  0  0  3  0  0  0  0  0  0
  189.4650  177.6620  142.6800 C   0  0  0  0  0  0  0  0  0  0  0  0
  189.6680  178.1080  138.0590 N   0  0  0  0  0  0  0  0  0  0  0  0
  190.1750  177.2130  137.1780 O   0  0  0  0  0  0  0  0  0  0  0  0
  189.0220  179.2000  137.5850 O   0  0  0  0  0  0  0  0  0  0  0  0
  185.8770  178.5640  146.0930 C   0  0  0  0  0  2  0  0  0  0  0  0
  182.5910  179.1040  144.2580 C   0  0  0  0  0  3  0  0  0  0  0  0
  185.1340  177.8320  143.7840 C   0  0  0  0  0  2  0  0  0  0  0  0
  182.4380  178.7180  140.5540 C   0  0  2  0  0  3  0  0  0  0  0  0
  181.8180  178.9150  141.9440 C   0  0  0  0  0  2  0  0  0  0  0  0
  182.8330  178.6700  143.0190 C   0  0  0  0  0  0  0  0  0  0  0  0
  184.8130  178.9730  141.5240 C   0  0  0  0  0  2  0  0  0  0  0  0
  184.1790  178.1110  142.6180 C   0  0  1  0  0  3  0  0  0  0  0  0
  183.8050  179.4170  140.4430 C   0  0  0  0  0  2  0  0  0  0  0  0
  185.0140  178.8940  144.8740 C   0  0  1  0  0  3  0  0  0  0  0  0
  183.6160  179.0750  145.2530 N   0  0  0  0  0  2  0  0  0  0  0  0
  181.5340  179.2080  139.5260 N   0  0  0  0  0  0  0  0  0  0  0  0
  180.5450  179.8950  139.8510 O   0  0  0  0  0  0  0  0  0  0  0  0
  181.7980  178.9780  138.1960 O   0  0  0  0  0  0  0  0  0  0  0  0
  1  5  2  0  0  0  0
  1 10  1  0  0  0  0
  2 15  1  0  0  0  0
  3  9  1  0  0  0  0
  4 21  1  0  0  0  0
  4  8  2  0  0  0  0
  5  4  1  0  0  0  0
  6  8  1  0  0  0  0
  6  7  1  0  0  0  0
  9 10  1  0  0  0  0
  9 11  2  0  0  0  0
 10  6  2  0  0  0  0
 11  7  1  0  0  0  0
 12  2  2  0  0  0  0
 13 12  1  0  0  0  0
 13 14  2  0  0  0  0
 14 16  1  0  0  0  0
 15 17  1  0  0  0  0
 15  3  2  0  0  0  0
 16 17  2  0  0  0  0
 17  1  1  0  0  0  0
 18 13  1  0  0  0  0
 19 18  2  0  0  0  0
 20 18  2  0  0  0  0
 22 31  1  0  0  0  0
 23 30  1  0  0  0  0
 24 32  1  6  0  0  0
 24 25  1  0  0  0  0
 25 26  1  0  0  0  0
 26 22  2  0  0  0  0
 28 27  1  6  0  0  0
 28 26  1  0  0  0  0
 28 23  1  0  0  0  0
 29 24  1  0  0  0  0
 29 27  1  0  0  0  0
 30 31  1  0  0  0  0
 30 21  1  1  0  0  0
 32 33  2  0  0  0  0
 34 32  2  0  0  0  0
M  END
>  <MODEL>
2

>  <REMARK>
 VINA RESULT:     -10.8      1.488      2.145
  Name = 
  4 active torsions:
  status: ('A' for Active; 'I' for Inactive)
    1  A    between atoms: N_3  and  C_25
    2  A    between atoms: C_7  and  N_11
    3  A    between atoms: C_8  and  C_18
    4  A    between atoms: C_18  and  C_30
                            x       y       z     vdW  Elec       q    Type
                         _______ _______ _______ _____ _____    ______ ____

>  <TORSDO>
F 4

$$$$
=
 OpenBabel11052415483D

 34 39  0  0  1  0  0  0  0  0999 V2000
  187.0020  178.0690  143.8030 C   0  0  0  0  0  0  0  0  0  0  0  0
  188.0760  177.4390  147.4410 C   0  0  0  0  0  3  0  0  0  0  0  0
  186.0360  178.1260  146.4170 N   0  0  0  0  0  0  0  0  0  0  0  0
  186.4350  178.4450  141.4390 C   0  0  0  0  0  0  0  0  0  0  0  0
  187.3710  178.0810  142.4360 C   0  0  0  0  0  3  0  0  0  0  0  0
  184.7820  178.7790  143.1410 C   0  0  0  0  0  0  0  0  0  0  0  0
  183.3380  179.1370  143.9210 S   0  0  0  0  0  0  0  0  0  0  0  0
  185.1160  178.8010  141.7900 C   0  0  0  0  0  3  0  0  0  0  0  0
  185.2180  178.4540  145.3910 C   0  0  0  0  0  0  0  0  0  0  0  0
  185.6940  178.4260  144.0990 C   0  0  0  0  0  0  0  0  0  0  0  0
  183.8810  178.8380  145.5110 C   0  0  0  0  0  3  0  0  0  0  0  0
  189.3310  177.0560  147.6360 C   0  0  0  0  0  3  0  0  0  0  0  0
  190.4080  176.8270  146.6670 C   0  0  0  0  0  0  0  0  0  0  0  0
  190.2800  176.9790  145.3510 C   0  0  0  0  0  3  0  0  0  0  0  0
  187.3410  177.7610  146.2100 C   0  0  0  0  0  0  0  0  0  0  0  0
  189.1240  177.3850  144.5490 C   0  0  0  0  0  3  0  0  0  0  0  0
  187.8690  177.7230  144.8740 C   0  0  0  0  0  0  0  0  0  0  0  0
  191.6830  176.4110  147.1790 N   0  0  0  0  0  0  0  0  0  0  0  0
  192.3640  175.4020  146.5840 O   0  0  0  0  0  0  0  0  0  0  0  0
  192.2270  177.0180  148.2620 O   0  0  0  0  0  0  0  0  0  0  0  0
  186.8520  178.4700  140.0010 C   0  0  0  0  0  2  0  0  0  0  0  0
  190.5500  177.6550  140.3400 C   0  0  0  0  0  3  0  0  0  0  0  0
  188.5470  177.7330  138.2690 C   0  0  0  0  0  2  0  0  0  0  0  0
  192.2670  175.6520  137.7070 C   0  0  2  0  0  3  0  0  0  0  0  0
  192.2320  176.5170  138.9750 C   0  0  0  0  0  2  0  0  0  0  0  0
  190.8830  177.1460  139.1520 C   0  0  0  0  0  0  0  0  0  0  0  0
  189.6920  175.5370  137.6560 C   0  0  0  0  0  2  0  0  0  0  0  0
  189.8770  177.0090  138.0320 C   0  0  1  0  0  3  0  0  0  0  0  0
  191.0220  174.7550  137.6030 C   0  0  0  0  0  2  0  0  0  0  0  0
  188.1160  177.6530  139.7310 C   0  0  1  0  0  3  0  0  0  0  0  0
  189.2080  178.0700  140.6050 N   0  0  0  0  0  2  0  0  0  0  0  0
  193.4760  174.8460  137.6830 N   0  0  0  0  0  0  0  0  0  0  0  0
  193.4470  173.7060  137.1770 O   0  0  0  0  0  0  0  0  0  0  0  0
  194.6660  175.3550  138.1490 O   0  0  0  0  0  0  0  0  0  0  0  0
  1 10  1  0  0  0  0
  1 17  1  0  0  0  0
  2 12  2  0  0  0  0
  4  8  2  0  0  0  0
  4  5  1  0  0  0  0
  5  1  2  0  0  0  0
  6  7  1  0  0  0  0
  6 10  2  0  0  0  0
  7 11  1  0  0  0  0
  8  6  1  0  0  0  0
  9 11  2  0  0  0  0
  9  3  1  0  0  0  0
 10  9  1  0  0  0  0
 13 18  1  0  0  0  0
 13 12  1  0  0  0  0
 14 13  2  0  0  0  0
 15  3  2  0  0  0  0
 15  2  1  0  0  0  0
 16 17  2  0  0  0  0
 16 14  1  0  0  0  0
 17 15  1  0  0  0  0
 18 20  2  0  0  0  0
 19 18  2  0  0  0  0
 21  4  1  0  0  0  0
 22 31  1  0  0  0  0
 23 30  1  0  0  0  0
 24 32  1  1  0  0  0
 24 25  1  0  0  0  0
 25 26  1  0  0  0  0
 26 22  2  0  0  0  0
 28 27  1  1  0  0  0
 28 23  1  0  0  0  0
 28 26  1  0  0  0  0
 29 27  1  0  0  0  0
 29 24  1  0  0  0  0
 30 21  1  6  0  0  0
 30 31  1  0  0  0  0
 32 34  2  0  0  0  0
 33 32  2  0  0  0  0
M  END
>  <MODEL>
3

>  <REMARK>
 VINA RESULT:     -10.2      4.082      7.179
  Name = 
  4 active torsions:
  status: ('A' for Active; 'I' for Inactive)
    1  A    between atoms: N_3  and  C_25
    2  A    between atoms: C_7  and  N_11
    3  A    between atoms: C_8  and  C_18
    4  A    between atoms: C_18  and  C_30
                            x       y       z     vdW  Elec       q    Type
                         _______ _______ _______ _____ _____    ______ ____

>  <TORSDO>
F 4

$$$$
=
 OpenBabel11052415483D

 34 39  0  0  1  0  0  0  0  0999 V2000
  188.0440  177.9080  143.2090 C   0  0  0  0  0  0  0  0  0  0  0  0
  188.3750  177.0550  146.9430 C   0  0  0  0  0  3  0  0  0  0  0  0
  186.5410  177.6520  145.5430 N   0  0  0  0  0  0  0  0  0  0  0  0
  187.9590  178.4410  140.8090 C   0  0  0  0  0  0  0  0  0  0  0  0
  188.6930  178.0730  141.9610 C   0  0  0  0  0  3  0  0  0  0  0  0
  185.9550  178.4800  142.1220 C   0  0  0  0  0  0  0  0  0  0  0  0
  184.3490  178.6430  142.5870 S   0  0  0  0  0  0  0  0  0  0  0  0
  186.5660  178.6500  140.8840 C   0  0  0  0  0  3  0  0  0  0  0  0
  185.9320  177.9980  144.3860 C   0  0  0  0  0  0  0  0  0  0  0  0
  186.6730  178.1250  143.2320 C   0  0  0  0  0  0  0  0  0  0  0  0
  184.5680  178.2530  144.2330 C   0  0  0  0  0  3  0  0  0  0  0  0
  189.5930  176.7660  147.3850 C   0  0  0  0  0  3  0  0  0  0  0  0
  190.8690  176.7160  146.6650 C   0  0  0  0  0  0  0  0  0  0  0  0
  191.0110  176.9720  145.3660 C   0  0  0  0  0  3  0  0  0  0  0  0
  187.8910  177.4200  145.6050 C   0  0  0  0  0  0  0  0  0  0  0  0
  190.0160  177.3470  144.3580 C   0  0  0  0  0  3  0  0  0  0  0  0
  188.6930  177.5450  144.4200 C   0  0  0  0  0  0  0  0  0  0  0  0
  192.0420  176.3680  147.4170 N   0  0  0  0  0  0  0  0  0  0  0  0
  192.4310  177.1280  148.4690 O   0  0  0  0  0  0  0  0  0  0  0  0
  192.7770  175.2780  147.0900 O   0  0  0  0  0  0  0  0  0  0  0  0
  188.6680  178.6280  139.5040 C   0  0  0  0  0  2  0  0  0  0  0  0
  191.8530  176.5950  139.0820 C   0  0  0  0  0  3  0  0  0  0  0  0
  189.4800  177.2110  137.5670 C   0  0  0  0  0  2  0  0  0  0  0  0
  192.0280  173.9190  136.4940 C   0  0  2  0  0  3  0  0  0  0  0  0
  192.6290  174.8370  137.5670 C   0  0  0  0  0  2  0  0  0  0  0  0
  191.6570  175.9110  137.9530 C   0  0  0  0  0  0  0  0  0  0  0  0
  189.6470  174.7120  137.0790 C   0  0  0  0  0  2  0  0  0  0  0  0
  190.3870  176.0500  137.1460 C   0  0  1  0  0  3  0  0  0  0  0  0
  190.5870  173.5110  136.8430 C   0  0  0  0  0  2  0  0  0  0  0  0
  189.4770  177.4010  139.0810 C   0  0  1  0  0  3  0  0  0  0  0  0
  190.8450  177.4740  139.5860 N   0  0  0  0  0  2  0  0  0  0  0  0
  192.8600  172.7400  136.3180 N   0  0  0  0  0  0  0  0  0  0  0  0
  192.4570  171.8020  135.6020 O   0  0  0  0  0  0  0  0  0  0  0  0
  194.1160  172.6800  136.8770 O   0  0  0  0  0  0  0  0  0  0  0  0
  1 10  1  0  0  0  0
  1 17  1  0  0  0  0
  2 12  2  0  0  0  0
  3 15  2  0  0  0  0
  4  8  2  0  0  0  0
  4  5  1  0  0  0  0
  5  1  2  0  0  0  0
  6  7  1  0  0  0  0
  6 10  2  0  0  0  0
  7 11  1  0  0  0  0
  8  6  1  0  0  0  0
  9  3  1  0  0  0  0
 10  9  1  0  0  0  0
 11  9  2  0  0  0  0
 13 12  1  0  0  0  0
 13 18  1  0  0  0  0
 14 13  2  0  0  0  0
 15  2  1  0  0  0  0
 16 17  2  0  0  0  0
 16 14  1  0  0  0  0
 17 15  1  0  0  0  0
 18 19  2  0  0  0  0
 20 18  2  0  0  0  0
 21  4  1  0  0  0  0
 22 31  1  0  0  0  0
 23 30  1  0  0  0  0
 24 32  1  1  0  0  0
 24 29  1  0  0  0  0
 24 25  1  0  0  0  0
 25 26  1  0  0  0  0
 26 22  2  0  0  0  0
 28 27  1  1  0  0  0
 28 23  1  0  0  0  0
 28 26  1  0  0  0  0
 29 27  1  0  0  0  0
 30 21  1  6  0  0  0
 30 31  1  0  0  0  0
 32 34  2  0  0  0  0
 33 32  2  0  0  0  0
M  END
>  <MODEL>
4

>  <REMARK>
 VINA RESULT:     -10.1      4.426      7.742
  Name = 
  4 active torsions:
  status: ('A' for Active; 'I' for Inactive)
    1  A    between atoms: N_3  and  C_25
    2  A    between atoms: C_7  and  N_11
    3  A    between atoms: C_8  and  C_18
    4  A    between atoms: C_18  and  C_30
                            x       y       z     vdW  Elec       q    Type
                         _______ _______ _______ _____ _____    ______ ____

>  <TORSDO>
F 4

$$$$
=
 OpenBabel11052415483D

 34 39  0  0  1  0  0  0  0  0999 V2000
  184.2600  178.7050  141.8940 C   0  0  0  0  0  0  0  0  0  0  0  0
  185.4390  178.4810  138.2410 C   0  0  0  0  0  3  0  0  0  0  0  0
  183.3050  178.7200  139.2750 N   0  0  0  0  0  0  0  0  0  0  0  0
  183.6290  178.8330  144.2680 C   0  0  0  0  0  0  0  0  0  0  0  0
  184.6190  178.7090  143.2640 C   0  0  0  0  0  3  0  0  0  0  0  0
  181.9450  178.9500  142.5670 C   0  0  0  0  0  0  0  0  0  0  0  0
  180.4610  179.0690  141.7900 S   0  0  0  0  0  0  0  0  0  0  0  0
  182.2670  178.9550  143.9210 C   0  0  0  0  0  3  0  0  0  0  0  0
  182.4390  178.8360  140.3080 C   0  0  0  0  0  0  0  0  0  0  0  0
  182.9100  178.8280  141.6020 C   0  0  0  0  0  0  0  0  0  0  0  0
  181.0530  178.9650  140.1930 C   0  0  0  0  0  3  0  0  0  0  0  0
  186.7430  178.3460  138.0410 C   0  0  0  0  0  3  0  0  0  0  0  0
  187.8420  178.2650  139.0080 C   0  0  0  0  0  0  0  0  0  0  0  0
  187.6860  178.3190  140.3290 C   0  0  0  0  0  3  0  0  0  0  0  0
  184.6550  178.5940  139.4780 C   0  0  0  0  0  0  0  0  0  0  0  0
  186.4730  178.4640  141.1380 C   0  0  0  0  0  3  0  0  0  0  0  0
  185.1780  178.5820  140.8160 C   0  0  0  0  0  0  0  0  0  0  0  0
  189.1730  178.1170  138.4900 N   0  0  0  0  0  0  0  0  0  0  0  0
  189.4170  178.2930  137.1690 O   0  0  0  0  0  0  0  0  0  0  0  0
  190.2050  177.8010  139.3090 O   0  0  0  0  0  0  0  0  0  0  0  0
  184.0270  178.8160  145.7110 C   0  0  0  0  0  2  0  0  0  0  0  0
  187.1000  177.9560  147.7780 C   0  0  0  0  0  3  0  0  0  0  0  0
  186.4890  178.8790  145.1170 C   0  0  0  0  0  2  0  0  0  0  0  0
  190.3450  177.2430  146.0880 C   0  0  2  0  0  3  0  0  0  0  0  0
  189.4600  177.5010  147.3150 C   0  0  0  0  0  2  0  0  0  0  0  0
  188.1050  177.9910  146.9000 C   0  0  0  0  0  0  0  0  0  0  0  0
  188.2750  177.1450  144.5550 C   0  0  0  0  0  2  0  0  0  0  0  0
  187.8810  178.3270  145.4440 C   0  0  1  0  0  3  0  0  0  0  0  0
  189.5860  176.4630  145.0000 C   0  0  0  0  0  2  0  0  0  0  0  0
  185.4050  178.1940  145.9440 C   0  0  1  0  0  3  0  0  0  0  0  0
  185.7580  178.2150  147.3600 N   0  0  0  0  0  2  0  0  0  0  0  0
  191.5480  176.5270  146.4780 N   0  0  0  0  0  0  0  0  0  0  0  0
  192.0970  175.7550  145.6670 O   0  0  0  0  0  0  0  0  0  0  0  0
  192.1250  176.7480  147.7080 O   0  0  0  0  0  0  0  0  0  0  0  0
  1  5  1  0  0  0  0
  2 15  1  0  0  0  0
  3 15  2  0  0  0  0
  3  9  1  0  0  0  0
  4 21  1  0  0  0  0
  5  4  2  0  0  0  0
  6  8  2  0  0  0  0
  7  6  1  0  0  0  0
  8  4  1  0  0  0  0
  9 10  1  0  0  0  0
 10  1  2  0  0  0  0
 10  6  1  0  0  0  0
 11  9  2  0  0  0  0
 11  7  1  0  0  0  0
 12  2  2  0  0  0  0
 12 13  1  0  0  0  0
 13 14  2  0  0  0  0
 14 16  1  0  0  0  0
 15 17  1  0  0  0  0
 17 16  2  0  0  0  0
 17  1  1  0  0  0  0
 18 13  1  0  0  0  0
 18 20  2  0  0  0  0
 19 18  2  0  0  0  0
 23 28  1  0  0  0  0
 23 30  1  0  0  0  0
 24 32  1  1  0  0  0
 24 25  1  0  0  0  0
 26 25  1  0  0  0  0
 26 22  2  0  0  0  0
 27 29  1  0  0  0  0
 28 27  1  6  0  0  0
 28 26  1  0  0  0  0
 29 24  1  0  0  0  0
 30 21  1  1  0  0  0
 30 31  1  0  0  0  0
 31 22  1  0  0  0  0
 32 34  2  0  0  0  0
 33 32  2  0  0  0  0
M  END
>  <MODEL>
5

>  <REMARK>
 VINA RESULT:      -9.9      2.990      7.314
  Name = 
  4 active torsions:
  status: ('A' for Active; 'I' for Inactive)
    1  A    between atoms: N_3  and  C_25
    2  A    between atoms: C_7  and  N_11
    3  A    between atoms: C_8  and  C_18
    4  A    between atoms: C_18  and  C_30
                            x       y       z     vdW  Elec       q    Type
                         _______ _______ _______ _____ _____    ______ ____

>  <TORSDO>
F 4

$$$$
=
 OpenBabel11052415483D

 34 39  0  0  1  0  0  0  0  0999 V2000
  186.4890  178.2410  143.4450 C   0  0  0  0  0  0  0  0  0  0  0  0
  187.7900  177.5970  147.0060 C   0  0  0  0  0  3  0  0  0  0  0  0
  185.6900  178.2870  146.1160 N   0  0  0  0  0  0  0  0  0  0  0  0
  185.7750  178.6260  141.1230 C   0  0  0  0  0  0  0  0  0  0  0  0
  186.7720  178.2590  142.0580 C   0  0  0  0  0  3  0  0  0  0  0  0
  184.2320  178.9530  142.9280 C   0  0  0  0  0  0  0  0  0  0  0  0
  182.8400  179.3060  143.7990 S   0  0  0  0  0  0  0  0  0  0  0  0
  184.4810  178.9810  141.5590 C   0  0  0  0  0  3  0  0  0  0  0  0
  184.8090  178.6190  145.1440 C   0  0  0  0  0  0  0  0  0  0  0  0
  185.2030  178.5970  143.8250 C   0  0  0  0  0  0  0  0  0  0  0  0
  183.4820  179.0010  145.3500 C   0  0  0  0  0  3  0  0  0  0  0  0
  189.0560  177.2140  147.1200 C   0  0  0  0  0  3  0  0  0  0  0  0
  190.0700  176.9900  146.0850 C   0  0  0  0  0  0  0  0  0  0  0  0
  189.8590  177.1470  144.7800 C   0  0  0  0  0  3  0  0  0  0  0  0
  186.9800  177.9240  145.8250 C   0  0  0  0  0  0  0  0  0  0  0  0
  188.6540  177.5560  144.0540 C   0  0  0  0  0  3  0  0  0  0  0  0
  187.4220  177.8920  144.4590 C   0  0  0  0  0  0  0  0  0  0  0  0
  191.3750  176.5730  146.5140 N   0  0  0  0  0  0  0  0  0  0  0  0
  192.0570  175.6330  145.8160 O   0  0  0  0  0  0  0  0  0  0  0  0
  191.9450  177.1090  147.6190 O   0  0  0  0  0  0  0  0  0  0  0  0
  186.1000  178.6570  139.6630 C   0  0  0  0  0  2  0  0  0  0  0  0
  189.1110  178.0830  137.4130 C   0  0  0  0  0  3  0  0  0  0  0  0
  188.0570  177.0650  139.8950 C   0  0  0  0  0  2  0  0  0  0  0  0
  192.1480  176.3930  138.7590 C   0  0  2  0  0  3  0  0  0  0  0  0
  191.2880  176.9880  137.6350 C   0  0  0  0  0  2  0  0  0  0  0  0
  189.8990  177.2740  138.1230 C   0  0  0  0  0  0  0  0  0  0  0  0
  190.5150  177.2800  140.5450 C   0  0  0  0  0  2  0  0  0  0  0  0
  189.5110  176.7870  139.5000 C   0  0  1  0  0  3  0  0  0  0  0  0
  191.9800  177.1770  140.0720 C   0  0  0  0  0  2  0  0  0  0  0  0
  187.5830  178.4190  139.3750 C   0  0  1  0  0  3  0  0  0  0  0  0
  187.8670  178.5420  137.9480 N   0  0  0  0  0  2  0  0  0  0  0  0
  193.5460  176.3650  138.3600 N   0  0  0  0  0  0  0  0  0  0  0  0
  194.4040  175.9220  139.1500 O   0  0  0  0  0  0  0  0  0  0  0  0
  193.9200  176.7580  137.0960 O   0  0  0  0  0  0  0  0  0  0  0  0
  1 10  1  0  0  0  0
  1 17  1  0  0  0  0
  2 12  2  0  0  0  0
  4  8  2  0  0  0  0
  4  5  1  0  0  0  0
  5  1  2  0  0  0  0
  6  7  1  0  0  0  0
  6 10  2  0  0  0  0
  7 11  1  0  0  0  0
  8  6  1  0  0  0  0
  9 11  2  0  0  0  0
  9  3  1  0  0  0  0
 10  9  1  0  0  0  0
 13 18  1  0  0  0  0
 13 12  1  0  0  0  0
 14 13  2  0  0  0  0
 15  3  2  0  0  0  0
 15  2  1  0  0  0  0
 16 17  2  0  0  0  0
 16 14  1  0  0  0  0
 17 15  1  0  0  0  0
 18 20  2  0  0  0  0
 19 18  2  0  0  0  0
 21  4  1  0  0  0  0
 22 31  1  0  0  0  0
 22 26  2  0  0  0  0
 24 32  1  6  0  0  0
 24 29  1  0  0  0  0
 25 26  1  0  0  0  0
 25 24  1  0  0  0  0
 26 28  1  0  0  0  0
 28 23  1  1  0  0  0
 28 27  1  0  0  0  0
 29 27  1  0  0  0  0
 30 21  1  6  0  0  0
 30 23  1  0  0  0  0
 31 30  1  0  0  0  0
 32 33  2  0  0  0  0
 34 32  2  0  0  0  0
M  END
>  <MODEL>
6

>  <REMARK>
 VINA RESULT:      -9.8      3.799      6.920
  Name = 
  4 active torsions:
  status: ('A' for Active; 'I' for Inactive)
    1  A    between atoms: N_3  and  C_25
    2  A    between atoms: C_7  and  N_11
    3  A    between atoms: C_8  and  C_18
    4  A    between atoms: C_18  and  C_30
                            x       y       z     vdW  Elec       q    Type
                         _______ _______ _______ _____ _____    ______ ____

>  <TORSDO>
F 4

$$$$
=
 OpenBabel11052415483D

 34 39  0  0  1  0  0  0  0  0999 V2000
  186.3310  178.2540  143.2130 C   0  0  0  0  0  0  0  0  0  0  0  0
  187.6220  177.6440  146.7830 C   0  0  0  0  0  3  0  0  0  0  0  0
  185.5090  178.2730  145.8770 N   0  0  0  0  0  0  0  0  0  0  0  0
  185.6240  178.6200  140.8850 C   0  0  0  0  0  0  0  0  0  0  0  0
  186.6240  178.2820  141.8280 C   0  0  0  0  0  3  0  0  0  0  0  0
  184.0570  178.8980  142.6780 C   0  0  0  0  0  0  0  0  0  0  0  0
  182.6490  179.2100  143.5380 S   0  0  0  0  0  0  0  0  0  0  0  0
  184.3160  178.9360  141.3110 C   0  0  0  0  0  3  0  0  0  0  0  0
  184.6260  178.5800  144.8980 C   0  0  0  0  0  0  0  0  0  0  0  0
  185.0310  178.5710  143.5820 C   0  0  0  0  0  0  0  0  0  0  0  0
  183.2870  178.9220  145.0940 C   0  0  0  0  0  3  0  0  0  0  0  0
  188.8970  177.3000  146.9070 C   0  0  0  0  0  3  0  0  0  0  0  0
  189.9250  177.1070  145.8800 C   0  0  0  0  0  0  0  0  0  0  0  0
  189.7210  177.2590  144.5740 C   0  0  0  0  0  3  0  0  0  0  0  0
  186.8110  177.9490  145.5960 C   0  0  0  0  0  0  0  0  0  0  0  0
  188.5100  177.6330  143.8380 C   0  0  0  0  0  3  0  0  0  0  0  0
  187.2660  177.9310  144.2330 C   0  0  0  0  0  0  0  0  0  0  0  0
  191.2390  176.7280  146.3190 N   0  0  0  0  0  0  0  0  0  0  0  0
  191.6810  177.0920  147.5470 O   0  0  0  0  0  0  0  0  0  0  0  0
  192.0550  176.0030  145.5180 O   0  0  0  0  0  0  0  0  0  0  0  0
  185.9600  178.6630  139.4270 C   0  0  0  0  0  2  0  0  0  0  0  0
  189.7040  178.1900  138.9660 C   0  0  0  0  0  3  0  0  0  0  0  0
  187.2640  177.4840  137.6030 C   0  0  0  0  0  2  0  0  0  0  0  0
  190.9810  175.5220  136.6990 C   0  0  2  0  0  3  0  0  0  0  0  0
  191.1400  176.7530  137.6020 C   0  0  0  0  0  2  0  0  0  0  0  0
  189.8020  177.3370  137.9450 C   0  0  0  0  0  0  0  0  0  0  0  0
  188.5130  175.2680  137.3950 C   0  0  0  0  0  2  0  0  0  0  0  0
  188.5820  176.7890  137.2410 C   0  0  1  0  0  3  0  0  0  0  0  0
  189.8820  174.5800  137.2180 C   0  0  0  0  0  2  0  0  0  0  0  0
  187.2190  177.8670  139.0800 C   0  0  1  0  0  3  0  0  0  0  0  0
  188.4240  178.6020  139.4510 N   0  0  0  0  0  2  0  0  0  0  0  0
  192.2460  174.8140  136.5880 N   0  0  0  0  0  0  0  0  0  0  0  0
  192.5070  174.1760  135.5480 O   0  0  0  0  0  0  0  0  0  0  0  0
  193.1850  174.8990  137.5900 O   0  0  0  0  0  0  0  0  0  0  0  0
  1 10  1  0  0  0  0
  1 17  1  0  0  0  0
  2 12  2  0  0  0  0
  4  8  2  0  0  0  0
  4  5  1  0  0  0  0
  5  1  2  0  0  0  0
  6  7  1  0  0  0  0
  6 10  2  0  0  0  0
  7 11  1  0  0  0  0
  8  6  1  0  0  0  0
  9 11  2  0  0  0  0
  9  3  1  0  0  0  0
 10  9  1  0  0  0  0
 13 18  1  0  0  0  0
 13 12  1  0  0  0  0
 14 13  2  0  0  0  0
 15  3  2  0  0  0  0
 15  2  1  0  0  0  0
 16 17  2  0  0  0  0
 16 14  1  0  0  0  0
 17 15  1  0  0  0  0
 18 19  2  0  0  0  0
 20 18  2  0  0  0  0
 21  4  1  0  0  0  0
 22 31  1  0  0  0  0
 23 30  1  0  0  0  0
 24 32  1  1  0  0  0
 24 29  1  0  0  0  0
 24 25  1  0  0  0  0
 25 26  1  0  0  0  0
 26 22  2  0  0  0  0
 28 27  1  1  0  0  0
 28 23  1  0  0  0  0
 28 26  1  0  0  0  0
 29 27  1  0  0  0  0
 30 21  1  6  0  0  0
 30 31  1  0  0  0  0
 32 34  2  0  0  0  0
 33 32  2  0  0  0  0
M  END
>  <MODEL>
7

>  <REMARK>
 VINA RESULT:      -9.7      3.756      6.790
  Name = 
  4 active torsions:
  status: ('A' for Active; 'I' for Inactive)
    1  A    between atoms: N_3  and  C_25
    2  A    between atoms: C_7  and  N_11
    3  A    between atoms: C_8  and  C_18
    4  A    between atoms: C_18  and  C_30
                            x       y       z     vdW  Elec       q    Type
                         _______ _______ _______ _____ _____    ______ ____

>  <TORSDO>
F 4

$$$$
=
 OpenBabel11052415483D

 34 39  0  0  1  0  0  0  0  0999 V2000
  186.3790  178.3290  141.1830 C   0  0  0  0  0  0  0  0  0  0  0  0
  188.4630  178.0480  137.9640 C   0  0  0  0  0  3  0  0  0  0  0  0
  186.1740  178.5390  138.4110 N   0  0  0  0  0  0  0  0  0  0  0  0
  185.1510  178.4770  143.3100 C   0  0  0  0  0  0  0  0  0  0  0  0
  186.3520  178.2500  142.5970 C   0  0  0  0  0  3  0  0  0  0  0  0
  184.0150  178.8590  141.2340 C   0  0  0  0  0  0  0  0  0  0  0  0
  182.8210  179.1930  140.1010 S   0  0  0  0  0  0  0  0  0  0  0  0
  183.9580  178.7860  142.6230 C   0  0  0  0  0  3  0  0  0  0  0  0
  185.0820  178.7400  139.1830 C   0  0  0  0  0  0  0  0  0  0  0  0
  185.1820  178.6370  140.5530 C   0  0  0  0  0  0  0  0  0  0  0  0
  183.8050  179.0550  138.7140 C   0  0  0  0  0  3  0  0  0  0  0  0
  189.7470  177.7470  138.1080 C   0  0  0  0  0  3  0  0  0  0  0  0
  190.5260  177.4970  139.3250 C   0  0  0  0  0  0  0  0  0  0  0  0
  190.0280  177.5360  140.5580 C   0  0  0  0  0  3  0  0  0  0  0  0
  187.3940  178.2310  138.9550 C   0  0  0  0  0  0  0  0  0  0  0  0
  188.6680  177.8180  141.0250 C   0  0  0  0  0  3  0  0  0  0  0  0
  187.5320  178.1150  140.3810 C   0  0  0  0  0  0  0  0  0  0  0  0
  191.9200  177.1890  139.1680 N   0  0  0  0  0  0  0  0  0  0  0  0
  192.7760  177.3410  140.2070 O   0  0  0  0  0  0  0  0  0  0  0  0
  192.4020  176.7410  137.9840 O   0  0  0  0  0  0  0  0  0  0  0  0
  185.1400  178.3690  144.8020 C   0  0  0  0  0  2  0  0  0  0  0  0
  187.5990  177.5040  147.5700 C   0  0  0  0  0  3  0  0  0  0  0  0
  187.6700  178.4900  144.8630 C   0  0  0  0  0  2  0  0  0  0  0  0
  191.1840  176.8940  146.7560 C   0  0  2  0  0  3  0  0  0  0  0  0
  190.0080  177.1020  147.7200 C   0  0  0  0  0  2  0  0  0  0  0  0
  188.7940  177.5800  146.9820 C   0  0  0  0  0  0  0  0  0  0  0  0
  189.5800  176.8030  144.7410 C   0  0  0  0  0  2  0  0  0  0  0  0
  188.9440  177.9530  145.5240 C   0  0  1  0  0  3  0  0  0  0  0  0
  190.7490  176.1320  145.4920 C   0  0  0  0  0  2  0  0  0  0  0  0
  186.4260  177.7640  145.3680 C   0  0  1  0  0  3  0  0  0  0  0  0
  186.4030  177.7520  146.8270 N   0  0  0  0  0  2  0  0  0  0  0  0
  192.2640  176.1880  147.4270 N   0  0  0  0  0  0  0  0  0  0  0  0
  192.7450  175.1600  146.9080 O   0  0  0  0  0  0  0  0  0  0  0  0
  192.8050  176.6810  148.5920 O   0  0  0  0  0  0  0  0  0  0  0  0
  1  5  1  0  0  0  0
  2 12  2  0  0  0  0
  2 15  1  0  0  0  0
  3 15  2  0  0  0  0
  3  9  1  0  0  0  0
  4 21  1  0  0  0  0
  5  4  2  0  0  0  0
  6  8  2  0  0  0  0
  7  6  1  0  0  0  0
  8  4  1  0  0  0  0
  9 10  1  0  0  0  0
 10  1  2  0  0  0  0
 10  6  1  0  0  0  0
 11  9  2  0  0  0  0
 11  7  1  0  0  0  0
 12 13  1  0  0  0  0
 13 14  2  0  0  0  0
 14 16  1  0  0  0  0
 15 17  1  0  0  0  0
 17 16  2  0  0  0  0
 17  1  1  0  0  0  0
 18 13  1  0  0  0  0
 18 19  2  0  0  0  0
 20 18  2  0  0  0  0
 23 30  1  0  0  0  0
 23 28  1  0  0  0  0
 24 32  1  1  0  0  0
 24 25  1  0  0  0  0
 26 22  2  0  0  0  0
 26 25  1  0  0  0  0
 27 29  1  0  0  0  0
 28 27  1  6  0  0  0
 28 26  1  0  0  0  0
 29 24  1  0  0  0  0
 30 21  1  6  0  0  0
 30 31  1  0  0  0  0
 31 22  1  0  0  0  0
 32 34  2  0  0  0  0
 33 32  2  0  0  0  0
M  END
>  <MODEL>
8

>  <REMARK>
 VINA RESULT:      -9.6      3.579      7.495
  Name = 
  4 active torsions:
  status: ('A' for Active; 'I' for Inactive)
    1  A    between atoms: N_3  and  C_25
    2  A    between atoms: C_7  and  N_11
    3  A    between atoms: C_8  and  C_18
    4  A    between atoms: C_18  and  C_30
                            x       y       z     vdW  Elec       q    Type
                         _______ _______ _______ _____ _____    ______ ____

>  <TORSDO>
F 4

$$$$
=
 OpenBabel11052415483D

 34 39  0  0  1  0  0  0  0  0999 V2000
  187.5060  177.9700  139.1780 C   0  0  0  0  0  0  0  0  0  0  0  0
  183.7650  178.7080  138.6840 C   0  0  0  0  0  3  0  0  0  0  0  0
  185.5850  178.3370  137.1910 N   0  0  0  0  0  0  0  0  0  0  0  0
  189.8810  177.5070  139.6210 C   0  0  0  0  0  0  0  0  0  0  0  0
  188.5710  177.7670  140.0890 C   0  0  0  0  0  3  0  0  0  0  0  0
  189.0820  177.6460  137.3660 C   0  0  0  0  0  0  0  0  0  0  0  0
  189.0200  177.6490  135.6870 S   0  0  0  0  0  0  0  0  0  0  0  0
  190.1480  177.4450  138.2370 C   0  0  0  0  0  3  0  0  0  0  0  0
  186.8680  178.0800  136.8470 C   0  0  0  0  0  0  0  0  0  0  0  0
  187.8170  177.8980  137.8280 C   0  0  0  0  0  0  0  0  0  0  0  0
  187.3510  177.9770  135.5410 C   0  0  0  0  0  3  0  0  0  0  0  0
  183.0360  178.8630  139.7810 C   0  0  0  0  0  3  0  0  0  0  0  0
  183.4310  178.7970  141.1920 C   0  0  0  0  0  0  0  0  0  0  0  0
  184.6690  178.5550  141.6160 C   0  0  0  0  0  3  0  0  0  0  0  0
  185.1940  178.4240  138.5020 C   0  0  0  0  0  0  0  0  0  0  0  0
  185.9000  178.3030  140.8610 C   0  0  0  0  0  3  0  0  0  0  0  0
  186.1610  178.2400  139.5490 C   0  0  0  0  0  0  0  0  0  0  0  0
  182.4080  179.0090  142.1780 N   0  0  0  0  0  0  0  0  0  0  0  0
  182.7180  179.0130  143.4970 O   0  0  0  0  0  0  0  0  0  0  0  0
  181.1200  179.2080  141.8080 O   0  0  0  0  0  0  0  0  0  0  0  0
  190.9960  177.3150  140.6010 C   0  0  0  0  0  2  0  0  0  0  0  0
  191.6170  177.8990  144.3060 C   0  0  0  0  0  3  0  0  0  0  0  0
  189.8030  176.4010  142.6410 C   0  0  0  0  0  2  0  0  0  0  0  0
  188.9420  177.1400  146.7870 C   0  0  2  0  0  3  0  0  0  0  0  0
  190.3700  177.5270  146.3780 C   0  0  0  0  0  2  0  0  0  0  0  0
  190.5750  177.3220  144.9070 C   0  0  0  0  0  0  0  0  0  0  0  0
  188.1400  177.3200  144.3440 C   0  0  0  0  0  2  0  0  0  0  0  0
  189.4860  176.6260  144.1230 C   0  0  1  0  0  3  0  0  0  0  0  0
  187.9000  177.7200  145.8150 C   0  0  0  0  0  2  0  0  0  0  0  0
  190.5730  177.5770  142.0470 C   0  0  1  0  0  3  0  0  0  0  0  0
  191.7270  177.9000  142.8810 N   0  0  0  0  0  2  0  0  0  0  0  0
  188.6710  177.5840  148.1450 N   0  0  0  0  0  0  0  0  0  0  0  0
  187.6050  177.2520  148.7010 O   0  0  0  0  0  0  0  0  0  0  0  0
  189.6090  178.3090  148.8440 O   0  0  0  0  0  0  0  0  0  0  0  0
  1 17  1  0  0  0  0
  1  5  1  0  0  0  0
  2 12  2  0  0  0  0
  3 15  2  0  0  0  0
  4  5  2  0  0  0  0
  4 21  1  0  0  0  0
  6 10  1  0  0  0  0
  6  8  2  0  0  0  0
  7  6  1  0  0  0  0
  8  4  1  0  0  0  0
  9  3  1  0  0  0  0
  9 10  1  0  0  0  0
 10  1  2  0  0  0  0
 11  7  1  0  0  0  0
 11  9  2  0  0  0  0
 12 13  1  0  0  0  0
 13 14  2  0  0  0  0
 13 18  1  0  0  0  0
 15  2  1  0  0  0  0
 15 17  1  0  0  0  0
 16 14  1  0  0  0  0
 17 16  2  0  0  0  0
 18 19  2  0  0  0  0
 20 18  2  0  0  0  0
 22 26  2  0  0  0  0
 24 32  1  1  0  0  0
 25 24  1  0  0  0  0
 26 25  1  0  0  0  0
 27 29  1  0  0  0  0
 28 23  1  6  0  0  0
 28 27  1  0  0  0  0
 28 26  1  0  0  0  0
 29 24  1  0  0  0  0
 30 21  1  6  0  0  0
 30 23  1  0  0  0  0
 30 31  1  0  0  0  0
 31 22  1  0  0  0  0
 32 33  2  0  0  0  0
 32 34  2  0  0  0  0
M  END
>  <MODEL>
9

>  <REMARK>
 VINA RESULT:      -9.3      4.101      8.968
  Name = 
  4 active torsions:
  status: ('A' for Active; 'I' for Inactive)
    1  A    between atoms: N_3  and  C_25
    2  A    between atoms: C_7  and  N_11
    3  A    between atoms: C_8  and  C_18
    4  A    between atoms: C_18  and  C_30
                            x       y       z     vdW  Elec       q    Type
                         _______ _______ _______ _____ _____    ______ ____

>  <TORSDO>
F 4

$$$$
