=
 OpenBabel11052412423D

 25 29  0  0  1  0  0  0  0  0999 V2000
  188.7820  177.6650  145.0470 C   0  0  0  0  0  0  0  0  0  0  0  0
  188.2100  177.9440  143.8060 C   0  0  0  0  0  0  0  0  0  0  0  0
  186.6160  177.5030  146.0700 C   0  0  0  0  0  3  0  0  0  0  0  0
  190.2040  177.6270  145.4770 C   0  0  1  0  0  3  0  0  0  0  0  0
  192.0550  176.0030  146.9700 C   0  0  0  0  0  3  0  0  0  0  0  0
  186.0480  177.7660  144.8570 N   0  0  0  0  0  0  0  0  0  0  0  0
  190.0130  177.2590  146.9260 C   0  0  0  0  0  0  0  0  0  0  0  0
  191.1150  176.6480  147.6730 C   0  0  0  0  0  3  0  0  0  0  0  0
  186.1650  178.2580  142.4700 N   0  0  0  0  0  0  0  0  0  0  0  0
  184.7260  178.1340  142.3170 C   0  0  0  0  0  1  0  0  0  0  0  0
  189.0550  178.2460  142.6020 C   0  0  0  0  0  2  0  0  0  0  0  0
  191.9490  175.8740  145.4910 C   0  0  0  0  0  3  0  0  0  0  0  0
  188.0030  177.4710  146.1570 C   0  0  0  0  0  0  0  0  0  0  0  0
  188.7750  177.1800  147.3100 N   0  0  0  0  0  0  0  0  0  0  0  0
  186.9590  178.6600  141.3110 C   0  0  0  0  0  2  0  0  0  0  0  0
  191.0450  176.5800  144.7930 C   0  0  0  0  0  3  0  0  0  0  0  0
  188.2990  177.9300  141.3110 C   0  0  1  0  0  3  0  0  0  0  0  0
  186.8000  177.9980  143.7330 C   0  0  0  0  0  0  0  0  0  0  0  0
  189.0870  178.3540  140.1630 N   0  0  0  0  0  2  0  0  0  0  0  0
  190.1800  176.2290  140.3100 O   0  0  0  0  0  0  0  0  0  0  0  0
  191.0170  176.9200  139.4050 C   0  0  2  0  0  0  0  0  0  0  0  0
  191.8620  177.7960  140.0620 F   0  0  0  0  0  0  0  0  0  0  0  0
  189.5650  177.1670  139.4600 C   0  0  2  0  0  0  0  0  0  0  0  0
  191.5790  175.9930  138.3430 C   0  0  0  0  0  1  0  0  0  0  0  0
  188.7290  176.5780  138.5090 O   0  0  0  0  0  1  0  0  0  0  0  0
  1  4  1  0  0  0  0
  1 13  1  0  0  0  0
  2  1  2  0  0  0  0
  3 13  2  0  0  0  0
  4 16  1  6  0  0  0
  4  7  1  0  0  0  0
  5  8  2  0  0  0  0
  6  3  1  0  0  0  0
  7 14  2  0  0  0  0
  7  8  1  0  0  0  0
  9 18  1  0  0  0  0
 10  9  1  0  0  0  0
 11  2  1  0  0  0  0
 12  5  1  0  0  0  0
 13 14  1  0  0  0  0
 15  9  1  0  0  0  0
 16 12  2  0  0  0  0
 17 19  1  6  0  0  0
 17 15  1  0  0  0  0
 17 11  1  0  0  0  0
 18  2  1  0  0  0  0
 18  6  2  0  0  0  0
 21 24  1  6  0  0  0
 21 23  1  0  0  0  0
 21 22  1  0  0  0  0
 21 20  1  0  0  0  0
 23 25  1  6  0  0  0
 23 19  1  0  0  0  0
 23 20  1  0  0  0  0
M  END
>  <MODEL>
1

>  <REMARK>
 VINA RESULT:      -9.4      0.000      0.000
  Name = 
  2 active torsions:
  status: ('A' for Active; 'I' for Inactive)
    1  A    between atoms: N_6  and  C_15
    2  A    between atoms: N_6  and  C_23
                            x       y       z     vdW  Elec       q    Type
                         _______ _______ _______ _____ _____    ______ ____

>  <TORSDO>
F 2

$$$$
=
 OpenBabel11052412423D

 25 29  0  0  1  0  0  0  0  0999 V2000
  187.1090  177.5760  145.0450 C   0  0  0  0  0  0  0  0  0  0  0  0
  188.3340  177.1140  144.5670 C   0  0  0  0  0  0  0  0  0  0  0  0
  188.0370  177.9440  147.2290 C   0  0  0  0  0  3  0  0  0  0  0  0
  185.7760  177.6510  144.3930 C   0  0  1  0  0  3  0  0  0  0  0  0
  183.5610  179.4530  144.0130 C   0  0  0  0  0  3  0  0  0  0  0  0
  189.2430  177.5030  146.7660 N   0  0  0  0  0  0  0  0  0  0  0  0
  184.9810  178.2490  145.5250 C   0  0  0  0  0  0  0  0  0  0  0  0
  183.7240  178.9480  145.2430 C   0  0  0  0  0  3  0  0  0  0  0  0
  190.7080  176.6360  145.0180 N   0  0  0  0  0  0  0  0  0  0  0  0
  191.8830  176.7640  145.8630 C   0  0  0  0  0  1  0  0  0  0  0  0
  188.4890  176.6070  143.1620 C   0  0  0  0  0  2  0  0  0  0  0  0
  184.6400  179.3470  142.9950 C   0  0  0  0  0  3  0  0  0  0  0  0
  186.9580  177.9600  146.3520 C   0  0  0  0  0  0  0  0  0  0  0  0
  185.6440  178.4150  146.6290 N   0  0  0  0  0  0  0  0  0  0  0  0
  190.8610  176.0370  143.6940 C   0  0  0  0  0  2  0  0  0  0  0  0
  185.7090  178.5580  143.1910 C   0  0  0  0  0  3  0  0  0  0  0  0
  189.9390  176.7290  142.6930 C   0  0  1  0  0  3  0  0  0  0  0  0
  189.4190  177.0800  145.4730 C   0  0  0  0  0  0  0  0  0  0  0  0
  190.0870  176.1110  141.3840 N   0  0  0  0  0  2  0  0  0  0  0  0
  189.4470  178.1960  140.3940 O   0  0  0  0  0  0  0  0  0  0  0  0
  189.4740  177.3400  139.2700 C   0  0  2  0  0  0  0  0  0  0  0  0
  188.3380  176.5550  139.2020 F   0  0  0  0  0  0  0  0  0  0  0  0
  190.3930  177.1530  140.4080 C   0  0  2  0  0  0  0  0  0  0  0  0
  189.9590  178.0660  138.0280 C   0  0  0  0  0  1  0  0  0  0  0  0
  191.7100  177.6080  140.3120 O   0  0  0  0  0  1  0  0  0  0  0  0
  1 13  1  0  0  0  0
  2  1  2  0  0  0  0
  2 18  1  0  0  0  0
  4 16  1  6  0  0  0
  4  1  1  0  0  0  0
  4  7  1  0  0  0  0
  5  8  2  0  0  0  0
  6  3  1  0  0  0  0
  7 14  2  0  0  0  0
  8  7  1  0  0  0  0
  9 18  1  0  0  0  0
  9 10  1  0  0  0  0
 11  2  1  0  0  0  0
 12 16  2  0  0  0  0
 12  5  1  0  0  0  0
 13 14  1  0  0  0  0
 13  3  2  0  0  0  0
 15  9  1  0  0  0  0
 17 19  1  6  0  0  0
 17 11  1  0  0  0  0
 17 15  1  0  0  0  0
 18  6  2  0  0  0  0
 20 23  1  0  0  0  0
 21 24  1  6  0  0  0
 21 20  1  0  0  0  0
 21 23  1  0  0  0  0
 22 21  1  0  0  0  0
 23 25  1  6  0  0  0
 23 19  1  0  0  0  0
M  END
>  <MODEL>
2

>  <REMARK>
 VINA RESULT:      -9.4      1.959      4.662
  Name = 
  2 active torsions:
  status: ('A' for Active; 'I' for Inactive)
    1  A    between atoms: N_6  and  C_15
    2  A    between atoms: N_6  and  C_23
                            x       y       z     vdW  Elec       q    Type
                         _______ _______ _______ _____ _____    ______ ____

>  <TORSDO>
F 2

$$$$
=
 OpenBabel11052412423D

 25 29  0  0  1  0  0  0  0  0999 V2000
  185.8080  178.0100  144.5020 C   0  0  0  0  0  0  0  0  0  0  0  0
  186.9830  177.7330  145.1990 C   0  0  0  0  0  0  0  0  0  0  0  0
  184.7410  178.8010  146.5030 C   0  0  0  0  0  3  0  0  0  0  0  0
  185.4340  177.7560  143.0860 C   0  0  1  0  0  3  0  0  0  0  0  0
  184.2220  179.0520  140.8180 C   0  0  0  0  0  3  0  0  0  0  0  0
  185.8920  178.5430  147.1910 N   0  0  0  0  0  0  0  0  0  0  0  0
  184.0380  178.3240  143.0960 C   0  0  0  0  0  0  0  0  0  0  0  0
  183.4110  178.7360  141.8360 C   0  0  0  0  0  3  0  0  0  0  0  0
  188.1990  177.7650  147.3410 N   0  0  0  0  0  0  0  0  0  0  0  0
  188.3180  178.2100  148.7180 C   0  0  0  0  0  1  0  0  0  0  0  0
  188.1670  177.1020  144.5250 C   0  0  0  0  0  2  0  0  0  0  0  0
  185.7000  179.0310  140.9830 C   0  0  0  0  0  3  0  0  0  0  0  0
  184.7060  178.5110  145.1440 C   0  0  0  0  0  0  0  0  0  0  0  0
  183.6250  178.7400  144.2540 N   0  0  0  0  0  0  0  0  0  0  0  0
  189.3240  177.0540  146.7360 C   0  0  0  0  0  2  0  0  0  0  0  0
  186.2730  178.4860  142.0690 C   0  0  0  0  0  3  0  0  0  0  0  0
  189.4620  177.4380  145.2660 C   0  0  1  0  0  3  0  0  0  0  0  0
  187.0010  178.0100  146.5860 C   0  0  0  0  0  0  0  0  0  0  0  0
  190.5720  176.7080  144.6720 N   0  0  0  0  0  2  0  0  0  0  0  0
  190.1910  178.0060  142.6960 O   0  0  0  0  0  0  0  0  0  0  0  0
  191.0840  177.0190  142.2230 C   0  0  2  0  0  0  0  0  0  0  0  0
  190.4350  175.8200  141.9860 F   0  0  0  0  0  0  0  0  0  0  0  0
  191.1490  177.5230  143.6070 C   0  0  2  0  0  0  0  0  0  0  0  0
  192.0310  177.5770  141.1770 C   0  0  0  0  0  1  0  0  0  0  0  0
  192.1100  178.4770  143.9470 O   0  0  0  0  0  1  0  0  0  0  0  0
  1 13  2  0  0  0  0
  1  2  1  0  0  0  0
  2 18  2  0  0  0  0
  3  6  2  0  0  0  0
  4 16  1  6  0  0  0
  4  7  1  0  0  0  0
  4  1  1  0  0  0  0
  5 12  1  0  0  0  0
  5  8  2  0  0  0  0
  7 14  2  0  0  0  0
  8  7  1  0  0  0  0
  9 10  1  0  0  0  0
 11  2  1  0  0  0  0
 11 17  1  0  0  0  0
 12 16  2  0  0  0  0
 13  3  1  0  0  0  0
 14 13  1  0  0  0  0
 15  9  1  0  0  0  0
 17 19  1  6  0  0  0
 17 15  1  0  0  0  0
 18  6  1  0  0  0  0
 18  9  1  0  0  0  0
 20 23  1  0  0  0  0
 21 24  1  6  0  0  0
 21 20  1  0  0  0  0
 21 23  1  0  0  0  0
 22 21  1  0  0  0  0
 23 25  1  1  0  0  0
 23 19  1  0  0  0  0
M  END
>  <MODEL>
3

>  <REMARK>
 VINA RESULT:      -9.3      2.436      5.450
  Name = 
  2 active torsions:
  status: ('A' for Active; 'I' for Inactive)
    1  A    between atoms: N_6  and  C_15
    2  A    between atoms: N_6  and  C_23
                            x       y       z     vdW  Elec       q    Type
                         _______ _______ _______ _____ _____    ______ ____

>  <TORSDO>
F 2

$$$$
=
 OpenBabel11052412423D

 25 29  0  0  1  0  0  0  0  0999 V2000
  187.7830  177.5930  144.4200 C   0  0  0  0  0  0  0  0  0  0  0  0
  188.6130  177.3970  143.3170 C   0  0  0  0  0  0  0  0  0  0  0  0
  189.6780  177.9480  145.8520 C   0  0  0  0  0  3  0  0  0  0  0  0
  186.3080  177.4820  144.5600 C   0  0  1  0  0  3  0  0  0  0  0  0
  184.0440  178.8840  145.6570 C   0  0  0  0  0  3  0  0  0  0  0  0
  190.4970  177.7670  144.7750 N   0  0  0  0  0  0  0  0  0  0  0  0
  186.1720  177.8370  146.0180 C   0  0  0  0  0  0  0  0  0  0  0  0
  184.8870  178.3220  146.5320 C   0  0  0  0  0  3  0  0  0  0  0  0
  190.9020  177.3140  142.4120 N   0  0  0  0  0  0  0  0  0  0  0  0
  192.3240  177.5820  142.5470 C   0  0  0  0  0  1  0  0  0  0  0  0
  188.0570  177.0370  141.9690 C   0  0  0  0  0  2  0  0  0  0  0  0
  184.4260  179.0530  144.2290 C   0  0  0  0  0  3  0  0  0  0  0  0
  188.3050  177.8410  145.6620 C   0  0  0  0  0  0  0  0  0  0  0  0
  187.2950  178.0310  146.6400 N   0  0  0  0  0  0  0  0  0  0  0  0
  190.3970  176.8580  141.1190 C   0  0  0  0  0  2  0  0  0  0  0  0
  185.5170  178.4540  143.7230 C   0  0  0  0  0  3  0  0  0  0  0  0
  189.0170  177.4520  140.8530 C   0  0  1  0  0  3  0  0  0  0  0  0
  190.0090  177.4850  143.5250 C   0  0  0  0  0  0  0  0  0  0  0  0
  188.5170  176.9750  139.5720 N   0  0  0  0  0  2  0  0  0  0  0  0
  186.8430  178.4990  138.7920 O   0  0  0  0  0  0  0  0  0  0  0  0
  187.3040  177.9350  137.5810 C   0  0  2  0  0  0  0  0  0  0  0  0
  186.7630  176.6800  137.3690 F   0  0  0  0  0  0  0  0  0  0  0  0
  188.2000  178.1290  138.7360 C   0  0  2  0  0  0  0  0  0  0  0  0
  187.3030  178.9520  136.4550 C   0  0  0  0  0  1  0  0  0  0  0  0
  189.0670  179.2240  138.7580 O   0  0  0  0  0  1  0  0  0  0  0  0
  1  4  1  0  0  0  0
  1 13  1  0  0  0  0
  2 18  1  0  0  0  0
  2  1  2  0  0  0  0
  4 16  1  6  0  0  0
  4  7  1  0  0  0  0
  5  8  2  0  0  0  0
  6  3  1  0  0  0  0
  7  8  1  0  0  0  0
  7 14  2  0  0  0  0
  9 10  1  0  0  0  0
  9 18  1  0  0  0  0
 11  2  1  0  0  0  0
 12  5  1  0  0  0  0
 13  3  2  0  0  0  0
 13 14  1  0  0  0  0
 15  9  1  0  0  0  0
 16 12  2  0  0  0  0
 17 19  1  6  0  0  0
 17 15  1  0  0  0  0
 17 11  1  0  0  0  0
 18  6  2  0  0  0  0
 21 24  1  6  0  0  0
 21 23  1  0  0  0  0
 21 20  1  0  0  0  0
 22 21  1  0  0  0  0
 23 25  1  6  0  0  0
 23 20  1  0  0  0  0
 23 19  1  0  0  0  0
M  END
>  <MODEL>
4

>  <REMARK>
 VINA RESULT:      -9.1      2.387      4.533
  Name = 
  2 active torsions:
  status: ('A' for Active; 'I' for Inactive)
    1  A    between atoms: N_6  and  C_15
    2  A    between atoms: N_6  and  C_23
                            x       y       z     vdW  Elec       q    Type
                         _______ _______ _______ _____ _____    ______ ____

>  <TORSDO>
F 2

$$$$
=
 OpenBabel11052412423D

 25 29  0  0  1  0  0  0  0  0999 V2000
  188.7940  177.6490  144.7230 C   0  0  0  0  0  0  0  0  0  0  0  0
  188.2260  177.9280  143.4800 C   0  0  0  0  0  0  0  0  0  0  0  0
  186.6250  177.5040  145.7430 C   0  0  0  0  0  3  0  0  0  0  0  0
  190.2150  177.6040  145.1550 C   0  0  1  0  0  3  0  0  0  0  0  0
  192.0550  175.9750  146.6570 C   0  0  0  0  0  3  0  0  0  0  0  0
  186.0610  177.7660  144.5280 N   0  0  0  0  0  0  0  0  0  0  0  0
  190.0200  177.2430  146.6050 C   0  0  0  0  0  0  0  0  0  0  0  0
  191.1170  176.6280  147.3560 C   0  0  0  0  0  3  0  0  0  0  0  0
  186.1860  178.2490  142.1400 N   0  0  0  0  0  0  0  0  0  0  0  0
  184.7460  178.1340  141.9850 C   0  0  0  0  0  1  0  0  0  0  0  0
  189.0750  178.2210  142.2760 C   0  0  0  0  0  2  0  0  0  0  0  0
  191.9500  175.8410  145.1790 C   0  0  0  0  0  3  0  0  0  0  0  0
  188.0120  177.4640  145.8320 C   0  0  0  0  0  0  0  0  0  0  0  0
  188.7810  177.1720  146.9880 N   0  0  0  0  0  0  0  0  0  0  0  0
  186.9840  178.6430  140.9800 C   0  0  0  0  0  2  0  0  0  0  0  0
  191.0510  176.5500  144.4770 C   0  0  0  0  0  3  0  0  0  0  0  0
  188.3200  177.9050  140.9850 C   0  0  1  0  0  3  0  0  0  0  0  0
  186.8160  177.9900  143.4050 C   0  0  0  0  0  0  0  0  0  0  0  0
  189.1120  178.3200  139.8370 N   0  0  0  0  0  2  0  0  0  0  0  0
  189.8410  177.4700  137.7210 O   0  0  0  0  0  0  0  0  0  0  0  0
  188.5550  176.8960  137.8330 C   0  0  2  0  0  0  0  0  0  0  0  0
  187.5630  177.8080  137.5220 F   0  0  0  0  0  0  0  0  0  0  0  0
  189.3960  177.1470  139.0170 C   0  0  2  0  0  0  0  0  0  0  0  0
  188.5090  175.5050  137.2280 C   0  0  0  0  0  1  0  0  0  0  0  0
  190.1090  176.0920  139.5920 O   0  0  0  0  0  1  0  0  0  0  0  0
  1  4  1  0  0  0  0
  1 13  1  0  0  0  0
  2  1  2  0  0  0  0
  3 13  2  0  0  0  0
  4 16  1  6  0  0  0
  4  7  1  0  0  0  0
  5  8  2  0  0  0  0
  6  3  1  0  0  0  0
  7 14  2  0  0  0  0
  7  8  1  0  0  0  0
  9 18  1  0  0  0  0
 10  9  1  0  0  0  0
 11  2  1  0  0  0  0
 12  5  1  0  0  0  0
 13 14  1  0  0  0  0
 15 17  1  0  0  0  0
 15  9  1  0  0  0  0
 16 12  2  0  0  0  0
 17 19  1  6  0  0  0
 17 11  1  0  0  0  0
 18  2  1  0  0  0  0
 18  6  2  0  0  0  0
 20 21  1  0  0  0  0
 20 23  1  0  0  0  0
 21 24  1  6  0  0  0
 21 23  1  0  0  0  0
 22 21  1  0  0  0  0
 23 25  1  1  0  0  0
 23 19  1  0  0  0  0
M  END
>  <MODEL>
5

>  <REMARK>
 VINA RESULT:      -9.0      1.311      1.527
  Name = 
  2 active torsions:
  status: ('A' for Active; 'I' for Inactive)
    1  A    between atoms: N_6  and  C_15
    2  A    between atoms: N_6  and  C_23
                            x       y       z     vdW  Elec       q    Type
                         _______ _______ _______ _____ _____    ______ ____

>  <TORSDO>
F 2

$$$$
=
 OpenBabel11052412423D

 25 29  0  0  1  0  0  0  0  0999 V2000
  184.2590  178.9670  143.2650 C   0  0  0  0  0  0  0  0  0  0  0  0
  184.1040  178.9770  141.8800 C   0  0  0  0  0  0  0  0  0  0  0  0
  181.8800  179.0000  143.5880 C   0  0  0  0  0  3  0  0  0  0  0  0
  185.4820  179.0320  144.1070 C   0  0  1  0  0  3  0  0  0  0  0  0
  186.7070  177.7730  146.3890 C   0  0  0  0  0  3  0  0  0  0  0  0
  181.7190  179.0000  142.2330 N   0  0  0  0  0  0  0  0  0  0  0  0
  184.8440  178.9730  145.4720 C   0  0  0  0  0  0  0  0  0  0  0  0
  185.6360  178.5410  146.6270 C   0  0  0  0  0  3  0  0  0  0  0  0
  182.5750  178.9850  139.9490 N   0  0  0  0  0  0  0  0  0  0  0  0
  181.2440  178.8190  139.3910 C   0  0  0  0  0  1  0  0  0  0  0  0
  185.2860  179.0300  140.9560 C   0  0  0  0  0  2  0  0  0  0  0  0
  187.0440  177.3380  145.0070 C   0  0  0  0  0  3  0  0  0  0  0  0
  183.1730  179.0010  144.1000 C   0  0  0  0  0  0  0  0  0  0  0  0
  183.5460  178.9630  145.4670 N   0  0  0  0  0  0  0  0  0  0  0  0
  183.7020  179.1460  139.0310 C   0  0  0  0  0  2  0  0  0  0  0  0
  186.4310  177.8740  143.9390 C   0  0  0  0  0  3  0  0  0  0  0  0
  184.9380  178.4450  139.5870 C   0  0  1  0  0  3  0  0  0  0  0  0
  182.7850  179.0000  141.3700 C   0  0  0  0  0  0  0  0  0  0  0  0
  186.0570  178.6280  138.6740 N   0  0  0  0  0  2  0  0  0  0  0  0
  187.2080  176.9730  137.3830 O   0  0  0  0  0  0  0  0  0  0  0  0
  186.7200  177.8350  136.3750 C   0  0  2  0  0  0  0  0  0  0  0  0
  187.4970  178.9730  136.2610 F   0  0  0  0  0  0  0  0  0  0  0  0
  185.9780  177.6120  137.6290 C   0  0  2  0  0  0  0  0  0  0  0  0
  186.3260  177.0680  135.1260 C   0  0  0  0  0  1  0  0  0  0  0  0
  184.8960  176.7290  137.6420 O   0  0  0  0  0  1  0  0  0  0  0  0
  1 13  1  0  0  0  0
  1  4  1  0  0  0  0
  2  1  2  0  0  0  0
  3 13  2  0  0  0  0
  4 16  1  6  0  0  0
  4  7  1  0  0  0  0
  5  8  2  0  0  0  0
  6  3  1  0  0  0  0
  7  8  1  0  0  0  0
  9 18  1  0  0  0  0
 10  9  1  0  0  0  0
 11  2  1  0  0  0  0
 12  5  1  0  0  0  0
 13 14  1  0  0  0  0
 14  7  2  0  0  0  0
 15 17  1  0  0  0  0
 15  9  1  0  0  0  0
 16 12  2  0  0  0  0
 17 19  1  6  0  0  0
 17 11  1  0  0  0  0
 18  2  1  0  0  0  0
 18  6  2  0  0  0  0
 20 23  1  0  0  0  0
 21 24  1  6  0  0  0
 21 20  1  0  0  0  0
 21 23  1  0  0  0  0
 22 21  1  0  0  0  0
 23 25  1  6  0  0  0
 23 19  1  0  0  0  0
M  END
>  <MODEL>
6

>  <REMARK>
 VINA RESULT:      -8.4      3.744      4.976
  Name = 
  2 active torsions:
  status: ('A' for Active; 'I' for Inactive)
    1  A    between atoms: N_6  and  C_15
    2  A    between atoms: N_6  and  C_23
                            x       y       z     vdW  Elec       q    Type
                         _______ _______ _______ _____ _____    ______ ____

>  <TORSDO>
F 2

$$$$
=
 OpenBabel11052412423D

 25 29  0  0  1  0  0  0  0  0999 V2000
  188.2140  177.5580  144.2170 C   0  0  0  0  0  0  0  0  0  0  0  0
  187.5970  177.8310  142.9960 C   0  0  0  0  0  0  0  0  0  0  0  0
  190.3840  177.5840  143.1880 C   0  0  0  0  0  3  0  0  0  0  0  0
  187.6370  177.2630  145.5540 C   0  0  1  0  0  3  0  0  0  0  0  0
  187.9200  177.9790  148.3290 C   0  0  0  0  0  3  0  0  0  0  0  0
  189.7880  177.8620  141.9920 N   0  0  0  0  0  0  0  0  0  0  0  0
  188.9120  177.0830  146.3370 C   0  0  0  0  0  0  0  0  0  0  0  0
  188.8980  177.2360  147.7950 C   0  0  0  0  0  3  0  0  0  0  0  0
  187.8380  178.2860  140.5880 N   0  0  0  0  0  0  0  0  0  0  0  0
  188.6670  178.6280  139.4440 C   0  0  0  0  0  1  0  0  0  0  0  0
  186.1030  177.9020  142.8690 C   0  0  0  0  0  2  0  0  0  0  0  0
  186.9210  178.6620  147.4640 C   0  0  0  0  0  3  0  0  0  0  0  0
  189.5740  177.4150  144.3050 C   0  0  0  0  0  0  0  0  0  0  0  0
  190.0000  177.1610  145.6340 N   0  0  0  0  0  0  0  0  0  0  0  0
  186.3870  178.2530  140.4150 C   0  0  0  0  0  2  0  0  0  0  0  0
  186.8240  178.3810  146.1540 C   0  0  0  0  0  3  0  0  0  0  0  0
  185.6950  178.7640  141.6750 C   0  0  1  0  0  3  0  0  0  0  0  0
  188.4280  177.9780  141.8620 C   0  0  0  0  0  0  0  0  0  0  0  0
  184.2520  178.7090  141.4960 N   0  0  0  0  0  2  0  0  0  0  0  0
  182.5720  178.8610  139.7970 O   0  0  0  0  0  0  0  0  0  0  0  0
  183.4200  177.8590  139.2730 C   0  0  2  0  0  0  0  0  0  0  0  0
  183.1960  176.6370  139.8800 F   0  0  0  0  0  0  0  0  0  0  0  0
  183.9440  178.9670  140.0930 C   0  0  2  0  0  0  0  0  0  0  0  0
  183.5110  177.9390  137.7610 C   0  0  0  0  0  1  0  0  0  0  0  0
  184.5560  180.0560  139.4690 O   0  0  0  0  0  1  0  0  0  0  0  0
  1 13  1  0  0  0  0
  1  4  1  0  0  0  0
  2  1  2  0  0  0  0
  3 13  2  0  0  0  0
  4 16  1  1  0  0  0
  4  7  1  0  0  0  0
  6  3  1  0  0  0  0
  7  8  1  0  0  0  0
  8  5  2  0  0  0  0
  9 18  1  0  0  0  0
 10  9  1  0  0  0  0
 11  2  1  0  0  0  0
 12  5  1  0  0  0  0
 13 14  1  0  0  0  0
 14  7  2  0  0  0  0
 15  9  1  0  0  0  0
 15 17  1  0  0  0  0
 16 12  2  0  0  0  0
 17 19  1  6  0  0  0
 17 11  1  0  0  0  0
 18  6  2  0  0  0  0
 18  2  1  0  0  0  0
 20 23  1  0  0  0  0
 21 24  1  6  0  0  0
 21 20  1  0  0  0  0
 21 22  1  0  0  0  0
 21 23  1  0  0  0  0
 23 25  1  6  0  0  0
 23 19  1  0  0  0  0
M  END
>  <MODEL>
7

>  <REMARK>
 VINA RESULT:      -8.4      3.157      4.767
  Name = 
  2 active torsions:
  status: ('A' for Active; 'I' for Inactive)
    1  A    between atoms: N_6  and  C_15
    2  A    between atoms: N_6  and  C_23
                            x       y       z     vdW  Elec       q    Type
                         _______ _______ _______ _____ _____    ______ ____

>  <TORSDO>
F 2

$$$$
=
 OpenBabel11052412423D

 25 29  0  0  1  0  0  0  0  0999 V2000
  187.9750  177.8010  144.4980 C   0  0  0  0  0  0  0  0  0  0  0  0
  186.7900  178.2060  143.8840 C   0  0  0  0  0  0  0  0  0  0  0  0
  186.9060  177.7440  146.6470 C   0  0  0  0  0  3  0  0  0  0  0  0
  189.3440  177.6220  143.9490 C   0  0  1  0  0  3  0  0  0  0  0  0
  191.5430  175.7620  143.9610 C   0  0  0  0  0  3  0  0  0  0  0  0
  185.7390  178.1300  146.0520 N   0  0  0  0  0  0  0  0  0  0  0  0
  190.0550  177.1770  145.2010 C   0  0  0  0  0  0  0  0  0  0  0  0
  191.3130  176.4320  145.0980 C   0  0  0  0  0  3  0  0  0  0  0  0
  184.4030  178.7670  144.1120 N   0  0  0  0  0  0  0  0  0  0  0  0
  183.1760  178.7680  144.8890 C   0  0  0  0  0  1  0  0  0  0  0  0
  186.7330  178.5180  142.4160 C   0  0  0  0  0  2  0  0  0  0  0  0
  190.5320  175.7400  142.8700 C   0  0  0  0  0  3  0  0  0  0  0  0
  188.0360  177.5970  145.8510 C   0  0  0  0  0  0  0  0  0  0  0  0
  189.3220  177.1710  146.2720 N   0  0  0  0  0  0  0  0  0  0  0  0
  184.3450  179.1800  142.7110 C   0  0  0  0  0  2  0  0  0  0  0  0
  189.4680  176.5590  142.8880 C   0  0  0  0  0  3  0  0  0  0  0  0
  185.3130  178.3480  141.8760 C   0  0  1  0  0  3  0  0  0  0  0  0
  185.6520  178.3750  144.7050 C   0  0  0  0  0  0  0  0  0  0  0  0
  185.2590  178.7820  140.4880 N   0  0  0  0  0  2  0  0  0  0  0  0
  184.0340  178.2610  138.4970 O   0  0  0  0  0  0  0  0  0  0  0  0
  183.2260  179.2660  139.0770 C   0  0  2  0  0  0  0  0  0  0  0  0
  183.7450  180.5270  138.8500 F   0  0  0  0  0  0  0  0  0  0  0  0
  184.0030  178.3230  139.9030 C   0  0  2  0  0  0  0  0  0  0  0  0
  181.7520  179.0060  138.8310 C   0  0  0  0  0  1  0  0  0  0  0  0
  183.3610  177.2270  140.4840 O   0  0  0  0  0  1  0  0  0  0  0  0
  1 13  1  0  0  0  0
  2  1  2  0  0  0  0
  2 18  1  0  0  0  0
  4 16  1  6  0  0  0
  4  1  1  0  0  0  0
  4  7  1  0  0  0  0
  5  8  2  0  0  0  0
  6  3  1  0  0  0  0
  7 14  2  0  0  0  0
  8  7  1  0  0  0  0
  9 18  1  0  0  0  0
  9 10  1  0  0  0  0
 11  2  1  0  0  0  0
 12 16  2  0  0  0  0
 12  5  1  0  0  0  0
 13 14  1  0  0  0  0
 13  3  2  0  0  0  0
 15  9  1  0  0  0  0
 17 19  1  6  0  0  0
 17 11  1  0  0  0  0
 17 15  1  0  0  0  0
 18  6  2  0  0  0  0
 20 21  1  0  0  0  0
 20 23  1  0  0  0  0
 21 24  1  6  0  0  0
 21 23  1  0  0  0  0
 22 21  1  0  0  0  0
 23 25  1  1  0  0  0
 23 19  1  0  0  0  0
M  END
>  <MODEL>
8

>  <REMARK>
 VINA RESULT:      -8.3      3.105      4.282
  Name = 
  2 active torsions:
  status: ('A' for Active; 'I' for Inactive)
    1  A    between atoms: N_6  and  C_15
    2  A    between atoms: N_6  and  C_23
                            x       y       z     vdW  Elec       q    Type
                         _______ _______ _______ _____ _____    ______ ____

>  <TORSDO>
F 2

$$$$
=
 OpenBabel11052412423D

 25 29  0  0  1  0  0  0  0  0999 V2000
  186.1380  178.7820  141.5780 C   0  0  0  0  0  0  0  0  0  0  0  0
  187.3430  178.4280  140.9740 C   0  0  0  0  0  0  0  0  0  0  0  0
  184.9850  178.6620  139.4750 C   0  0  0  0  0  3  0  0  0  0  0  0
  185.8300  179.1770  142.9770 C   0  0  1  0  0  3  0  0  0  0  0  0
  183.9480  178.6570  145.0950 C   0  0  0  0  0  3  0  0  0  0  0  0
  186.1590  178.3050  138.8780 N   0  0  0  0  0  0  0  0  0  0  0  0
  184.3450  179.3990  142.8490 C   0  0  0  0  0  0  0  0  0  0  0  0
  183.4960  179.3510  144.0430 C   0  0  0  0  0  3  0  0  0  0  0  0
  188.5460  177.8010  138.9180 N   0  0  0  0  0  0  0  0  0  0  0  0
  188.5340  177.3710  137.5300 C   0  0  0  0  0  1  0  0  0  0  0  0
  188.6250  178.3630  141.7540 C   0  0  0  0  0  2  0  0  0  0  0  0
  185.2410  177.9240  145.0270 C   0  0  0  0  0  3  0  0  0  0  0  0
  184.9900  178.9170  140.8420 C   0  0  0  0  0  0  0  0  0  0  0  0
  183.8740  179.2620  141.6470 N   0  0  0  0  0  0  0  0  0  0  0  0
  189.8220  177.8360  139.6290 C   0  0  0  0  0  2  0  0  0  0  0  0
  186.0970  178.1120  144.0100 C   0  0  0  0  0  3  0  0  0  0  0  0
  189.6260  177.4220  141.0840 C   0  0  1  0  0  3  0  0  0  0  0  0
  187.3320  178.1930  139.5800 C   0  0  0  0  0  0  0  0  0  0  0  0
  190.9000  177.4780  141.7850 N   0  0  0  0  0  2  0  0  0  0  0  0
  190.0680  177.3190  144.0240 O   0  0  0  0  0  0  0  0  0  0  0  0
  191.4600  177.1790  144.2250 C   0  0  2  0  0  0  0  0  0  0  0  0
  192.1040  178.4010  144.1760 F   0  0  0  0  0  0  0  0  0  0  0  0
  190.7990  176.6820  143.0040 C   0  0  2  0  0  0  0  0  0  0  0  0
  191.7670  176.2140  145.3550 C   0  0  0  0  0  1  0  0  0  0  0  0
  190.5030  175.3220  142.8860 O   0  0  0  0  0  1  0  0  0  0  0  0
  1  4  1  0  0  0  0
  2  1  1  0  0  0  0
  2 11  1  0  0  0  0
  3 13  1  0  0  0  0
  4 16  1  1  0  0  0
  6  3  2  0  0  0  0
  6 18  1  0  0  0  0
  7  4  1  0  0  0  0
  7  8  1  0  0  0  0
  8  5  2  0  0  0  0
  9 18  1  0  0  0  0
  9 15  1  0  0  0  0
 10  9  1  0  0  0  0
 12  5  1  0  0  0  0
 13  1  2  0  0  0  0
 13 14  1  0  0  0  0
 14  7  2  0  0  0  0
 15 17  1  0  0  0  0
 16 12  2  0  0  0  0
 17 11  1  0  0  0  0
 17 19  1  1  0  0  0
 18  2  2  0  0  0  0
 19 23  1  0  0  0  0
 20 21  1  0  0  0  0
 21 24  1  1  0  0  0
 22 21  1  0  0  0  0
 23 25  1  6  0  0  0
 23 20  1  0  0  0  0
 23 21  1  0  0  0  0
M  END
>  <MODEL>
9

>  <REMARK>
 VINA RESULT:      -8.2      2.606      5.529
  Name = 
  2 active torsions:
  status: ('A' for Active; 'I' for Inactive)
    1  A    between atoms: N_6  and  C_15
    2  A    between atoms: N_6  and  C_23
                            x       y       z     vdW  Elec       q    Type
                         _______ _______ _______ _____ _____    ______ ____

>  <TORSDO>
F 2

$$$$
