=
 OpenBabel11052414373D

 32 37  0  0  1  0  0  0  0  0999 V2000
  185.1750  178.0930  142.8510 N   0  0  0  0  0  0  0  0  0  0  0  0
  185.3210  178.4340  140.4560 C   0  0  0  0  0  0  0  0  0  0  0  0
  184.5530  178.4030  141.5790 C   0  0  0  0  0  0  0  0  0  0  0  0
  184.7170  178.6030  139.0860 C   0  0  1  0  0  3  0  0  0  0  0  0
  189.7670  178.1480  138.4140 C   0  0  0  0  0  3  0  0  0  0  0  0
  186.7850  178.2050  140.5540 C   0  0  0  0  0  0  0  0  0  0  0  0
  187.8260  178.6160  137.0560 C   0  0  0  0  0  3  0  0  0  0  0  0
  186.9980  178.5280  138.1810 C   0  0  0  0  0  0  0  0  0  0  0  0
  182.7000  177.1960  139.5020 C   0  0  0  0  0  0  0  0  0  0  0  0
  183.0530  178.7020  141.6320 C   0  0  2  0  0  3  0  0  0  0  0  0
  185.7200  178.7040  138.0260 N   0  0  0  0  0  0  0  0  0  0  0  0
  182.1130  178.0720  140.5980 C   0  0  1  0  0  3  0  0  0  0  0  0
  182.4890  179.5470  140.4980 C   0  0  0  0  0  2  0  0  0  0  0  0
  187.3720  177.9750  141.8850 C   0  0  0  0  0  3  0  0  0  0  0  0
  181.9990  176.0820  139.1720 F   0  0  0  0  0  0  0  0  0  0  0  0
  186.6060  177.9380  142.9750 C   0  0  0  0  0  0  0  0  0  0  0  0
  187.5620  178.2570  139.4530 C   0  0  0  0  0  0  0  0  0  0  0  0
  183.8220  177.4420  138.8090 C   0  0  0  0  0  3  0  0  0  0  0  0
  189.2030  178.4250  137.1690 C   0  0  0  0  0  3  0  0  0  0  0  0
  188.9530  178.0660  139.5450 C   0  0  0  0  0  3  0  0  0  0  0  0
  189.4950  177.3320  145.3240 C   0  0  0  0  0  0  0  0  0  0  0  0
  188.3200  178.0930  148.7320 C   0  0  0  0  0  1  0  0  0  0  0  0
  190.8750  176.7700  145.2030 C   0  0  0  0  0  1  0  0  0  0  0  0
  186.8920  178.0330  146.7870 C   0  0  0  0  0  3  0  0  0  0  0  0
  187.2340  177.7350  144.3050 C   0  0  0  0  0  0  0  0  0  0  0  0
  189.2620  178.1320  146.4450 O   0  0  0  0  0  0  0  0  0  0  0  0
  186.5090  178.0800  145.3760 C   0  0  0  0  0  3  0  0  0  0  0  0
  188.5700  177.0790  144.3740 C   0  0  0  0  0  0  0  0  0  0  0  0
  188.9180  176.1410  143.2540 C   0  0  0  0  0  1  0  0  0  0  0  0
  188.1320  178.0630  147.2580 C   0  0  0  0  0  0  0  0  0  0  0  0
  184.3940  177.9740  143.9590 O   0  0  0  0  0  0  0  0  0  0  0  0
  183.9450  179.2680  144.2460 C   0  0  0  0  0  1  0  0  0  0  0  0
  1 16  1  0  0  0  0
  1 31  1  0  0  0  0
  2  6  1  0  0  0  0
  2  3  2  0  0  0  0
  3 10  1  0  0  0  0
  3  1  1  0  0  0  0
  4 18  1  6  0  0  0
  4  2  1  0  0  0  0
  5 20  2  0  0  0  0
  6 14  1  0  0  0  0
  7 19  2  0  0  0  0
  7  8  1  0  0  0  0
  8 17  1  0  0  0  0
  9 12  1  0  0  0  0
 10 13  1  6  0  0  0
 11  8  2  0  0  0  0
 11  4  1  0  0  0  0
 12 13  1  6  0  0  0
 12 10  1  0  0  0  0
 14 16  2  0  0  0  0
 15  9  1  0  0  0  0
 16 25  1  0  0  0  0
 17 20  1  0  0  0  0
 17  6  2  0  0  0  0
 18  9  2  0  0  0  0
 19  5  1  0  0  0  0
 21 26  1  0  0  0  0
 23 21  1  0  0  0  0
 24 30  2  0  0  0  0
 25 28  1  0  0  0  0
 25 27  2  0  0  0  0
 26 30  1  0  0  0  0
 27 24  1  0  0  0  0
 28 21  2  0  0  0  0
 29 28  1  0  0  0  0
 30 22  1  0  0  0  0
 31 32  1  0  0  0  0
M  END
>  <MODEL>
1

>  <REMARK>
 VINA RESULT:     -10.1      0.000      0.000
  Name = 
  2 active torsions:
  status: ('A' for Active; 'I' for Inactive)
    1  A    between atoms: N_1  and  O_4
    2  A    between atoms: C_16  and  C_27
                            x       y       z     vdW  Elec       q    Type
                         _______ _______ _______ _____ _____    ______ ____

>  <TORSDO>
F 2

$$$$
=
 OpenBabel11052414373D

 32 37  0  0  1  0  0  0  0  0999 V2000
  182.2010  178.0480  139.2940 N   0  0  0  0  0  0  0  0  0  0  0  0
  181.9160  178.4200  141.6720 C   0  0  0  0  0  0  0  0  0  0  0  0
  181.3480  178.2670  140.4450 C   0  0  0  0  0  0  0  0  0  0  0  0
  181.1020  178.7960  142.8820 C   0  0  0  0  0  0  0  0  0  0  0  0
  185.9560  178.3990  144.4470 C   0  0  0  0  0  3  0  0  0  0  0  0
  183.3890  178.3070  141.8240 C   0  0  0  0  0  0  0  0  0  0  0  0
  183.7880  178.7640  145.4460 C   0  0  0  0  0  3  0  0  0  0  0  0
  183.1770  178.6750  144.1900 C   0  0  0  0  0  0  0  0  0  0  0  0
  179.5870  180.3910  141.7070 C   0  0  0  0  0  0  0  0  0  0  0  0
  179.8440  178.2760  140.1610 C   0  0  2  0  0  3  0  0  0  0  0  0
  181.8870  178.8160  144.1160 N   0  0  0  0  0  0  0  0  0  0  0  0
  178.9580  179.3640  140.7780 C   0  0  1  0  0  3  0  0  0  0  0  0
  178.9310  177.9430  141.3320 C   0  0  0  0  0  2  0  0  0  0  0  0
  184.1970  178.0030  140.6300 C   0  0  0  0  0  3  0  0  0  0  0  0
  179.1520  181.6700  141.5850 F   0  0  0  0  0  0  0  0  0  0  0  0
  183.6280  177.8650  139.4330 C   0  0  0  0  0  0  0  0  0  0  0  0
  183.9650  178.4320  143.0380 C   0  0  0  0  0  0  0  0  0  0  0  0
  180.5010  180.1420  142.6570 C   0  0  0  0  0  3  0  0  0  0  0  0
  185.1700  178.6280  145.5760 C   0  0  0  0  0  3  0  0  0  0  0  0
  185.3580  178.3000  143.1900 C   0  0  0  0  0  2  0  0  0  0  0  0
  184.3640  176.1730  136.1430 C   0  0  0  0  0  0  0  0  0  0  0  0
  187.3510  177.7920  134.7180 C   0  0  0  0  0  1  0  0  0  0  0  0
  183.8270  174.9910  135.4020 C   0  0  0  0  0  1  0  0  0  0  0  0
  186.4970  178.2320  136.9320 C   0  0  0  0  0  3  0  0  0  0  0  0
  184.4680  177.5280  138.2560 C   0  0  0  0  0  0  0  0  0  0  0  0
  185.0670  177.1030  135.3740 O   0  0  0  0  0  0  0  0  0  0  0  0
  185.5350  178.3040  138.0320 C   0  0  0  0  0  3  0  0  0  0  0  0
  184.1380  176.3080  137.4670 C   0  0  0  0  0  0  0  0  0  0  0  0
  183.4330  175.2020  138.1990 C   0  0  0  0  0  1  0  0  0  0  0  0
  186.2750  177.6950  135.7390 C   0  0  0  0  0  0  0  0  0  0  0  0
  181.6400  177.9850  138.0560 O   0  0  0  0  0  0  0  0  0  0  0  0
  181.6240  179.3020  137.5800 C   0  0  0  0  0  1  0  0  0  0  0  0
  1 16  1  0  0  0  0
  1  3  1  0  0  0  0
  2  6  1  0  0  0  0
  2  4  1  0  0  0  0
  3  2  2  0  0  0  0
  4 11  2  0  0  0  0
  5 19  2  0  0  0  0
  6 17  2  0  0  0  0
  7 19  1  0  0  0  0
  8  7  2  0  0  0  0
  9 18  2  0  0  0  0
 10  3  1  0  0  0  0
 10 12  1  0  0  0  0
 10 13  1  1  0  0  0
 11  8  1  0  0  0  0
 12 13  1  1  0  0  0
 12  9  1  0  0  0  0
 14  6  1  0  0  0  0
 15  9  1  0  0  0  0
 16 14  2  0  0  0  0
 17 20  1  0  0  0  0
 17  8  1  0  0  0  0
 18  4  1  0  0  0  0
 20  5  1  0  0  0  0
 21 28  2  0  0  0  0
 22 30  1  0  0  0  0
 23 21  1  0  0  0  0
 24 27  1  0  0  0  0
 25 16  1  0  0  0  0
 26 30  1  0  0  0  0
 26 21  1  0  0  0  0
 27 25  2  0  0  0  0
 28 29  1  0  0  0  0
 28 25  1  0  0  0  0
 30 24  2  0  0  0  0
 31  1  1  0  0  0  0
 32 31  1  0  0  0  0
M  END
>  <MODEL>
2

>  <REMARK>
 VINA RESULT:     -10.0      3.615      7.482
  Name = 
  2 active torsions:
  status: ('A' for Active; 'I' for Inactive)
    1  A    between atoms: N_1  and  O_4
    2  A    between atoms: C_16  and  C_27
                            x       y       z     vdW  Elec       q    Type
                         _______ _______ _______ _____ _____    ______ ____

>  <TORSDO>
F 2

$$$$
=
 OpenBabel11052414373D

 32 37  0  0  1  0  0  0  0  0999 V2000
  185.6360  178.4940  138.6530 N   0  0  0  0  0  0  0  0  0  0  0  0
  187.5310  178.1960  140.1330 C   0  0  0  0  0  0  0  0  0  0  0  0
  187.0640  178.3710  138.8670 C   0  0  0  0  0  0  0  0  0  0  0  0
  188.9850  177.9140  140.4090 C   0  0  1  0  0  3  0  0  0  0  0  0
  186.6100  177.9380  144.9400 C   0  0  0  0  0  3  0  0  0  0  0  0
  186.5850  178.1890  141.2770 C   0  0  0  0  0  0  0  0  0  0  0  0
  188.8750  177.7760  144.1180 C   0  0  0  0  0  3  0  0  0  0  0  0
  188.4210  177.8890  142.7990 C   0  0  0  0  0  0  0  0  0  0  0  0
  189.3540  176.4270  138.4420 C   0  0  0  0  0  0  0  0  0  0  0  0
  187.9320  178.4810  137.6120 C   0  0  2  0  0  3  0  0  0  0  0  0
  189.2960  177.8540  141.8380 N   0  0  0  0  0  0  0  0  0  0  0  0
  189.0730  177.4830  137.3830 C   0  0  1  0  0  3  0  0  0  0  0  0
  189.3760  178.9130  137.8220 C   0  0  0  0  0  2  0  0  0  0  0  0
  185.1530  178.4000  141.0050 C   0  0  0  0  0  3  0  0  0  0  0  0
  189.6710  175.1870  137.9940 F   0  0  0  0  0  0  0  0  0  0  0  0
  184.7080  178.5600  139.7590 C   0  0  0  0  0  0  0  0  0  0  0  0
  187.0370  178.0420  142.5390 C   0  0  0  0  0  0  0  0  0  0  0  0
  189.3530  176.6180  139.7690 C   0  0  0  0  0  3  0  0  0  0  0  0
  187.9760  177.7980  145.1840 C   0  0  0  0  0  3  0  0  0  0  0  0
  186.1460  178.0600  143.6290 C   0  0  0  0  0  3  0  0  0  0  0  0
  181.0240  177.8440  140.1450 C   0  0  0  0  0  0  0  0  0  0  0  0
  179.1970  180.8180  138.9660 C   0  0  0  0  0  1  0  0  0  0  0  0
  180.1960  176.6580  140.5240 C   0  0  0  0  0  1  0  0  0  0  0  0
  181.5820  180.5210  138.7550 C   0  0  0  0  0  3  0  0  0  0  0  0
  183.2620  178.8020  139.5230 C   0  0  0  0  0  0  0  0  0  0  0  0
  180.3950  179.0860  140.2630 O   0  0  0  0  0  0  0  0  0  0  0  0
  182.9210  180.0010  139.0350 C   0  0  0  0  0  3  0  0  0  0  0  0
  182.3030  177.6840  139.7440 C   0  0  0  0  0  0  0  0  0  0  0  0
  182.8440  176.2920  139.5840 C   0  0  0  0  0  1  0  0  0  0  0  0
  180.4540  180.1070  139.3160 C   0  0  0  0  0  0  0  0  0  0  0  0
  185.1610  178.5780  137.3800 O   0  0  0  0  0  0  0  0  0  0  0  0
  185.0180  177.2560  136.9420 C   0  0  0  0  0  1  0  0  0  0  0  0
  1  3  1  0  0  0  0
  1 16  1  0  0  0  0
  2  4  1  0  0  0  0
  2  6  1  0  0  0  0
  3  2  2  0  0  0  0
  4 18  1  1  0  0  0
  4 11  1  0  0  0  0
  5 19  1  0  0  0  0
  6 17  2  0  0  0  0
  7 19  2  0  0  0  0
  8  7  1  0  0  0  0
  9 18  2  0  0  0  0
 10 13  1  1  0  0  0
 10  3  1  0  0  0  0
 11  8  2  0  0  0  0
 12 10  1  0  0  0  0
 12 13  1  1  0  0  0
 12  9  1  0  0  0  0
 14  6  1  0  0  0  0
 15  9  1  0  0  0  0
 16 14  2  0  0  0  0
 17  8  1  0  0  0  0
 17 20  1  0  0  0  0
 20  5  2  0  0  0  0
 21 26  1  0  0  0  0
 21 23  1  0  0  0  0
 22 30  1  0  0  0  0
 24 27  1  0  0  0  0
 24 30  2  0  0  0  0
 25 28  1  0  0  0  0
 25 16  1  0  0  0  0
 27 25  2  0  0  0  0
 28 21  2  0  0  0  0
 29 28  1  0  0  0  0
 30 26  1  0  0  0  0
 31  1  1  0  0  0  0
 32 31  1  0  0  0  0
M  END
>  <MODEL>
3

>  <REMARK>
 VINA RESULT:      -9.9      2.893      7.294
  Name = 
  2 active torsions:
  status: ('A' for Active; 'I' for Inactive)
    1  A    between atoms: N_1  and  O_4
    2  A    between atoms: C_16  and  C_27
                            x       y       z     vdW  Elec       q    Type
                         _______ _______ _______ _____ _____    ______ ____

>  <TORSDO>
F 2

$$$$
=
 OpenBabel11052414373D

 32 37  0  0  1  0  0  0  0  0999 V2000
  187.2020  178.1310  143.5060 N   0  0  0  0  0  0  0  0  0  0  0  0
  189.1720  177.5060  142.2420 C   0  0  0  0  0  0  0  0  0  0  0  0
  188.5750  177.6700  143.4530 C   0  0  0  0  0  0  0  0  0  0  0  0
  190.6360  177.1730  142.1180 C   0  0  0  0  0  0  0  0  0  0  0  0
  188.8130  177.5530  137.3540 C   0  0  0  0  0  3  0  0  0  0  0  0
  188.4000  177.7470  140.9970 C   0  0  0  0  0  0  0  0  0  0  0  0
  190.8850  176.9220  138.4220 C   0  0  0  0  0  3  0  0  0  0  0  0
  190.3200  177.1430  139.6830 C   0  0  0  0  0  0  0  0  0  0  0  0
  191.4050  178.6160  144.0020 C   0  0  0  0  0  0  0  0  0  0  0  0
  189.2260  177.3770  144.8070 C   0  0  2  0  0  3  0  0  0  0  0  0
  191.0580  176.9470  140.7360 N   0  0  0  0  0  0  0  0  0  0  0  0
  190.6470  177.8770  145.0940 C   0  0  1  0  0  3  0  0  0  0  0  0
  190.3950  176.4010  144.8000 C   0  0  0  0  0  2  0  0  0  0  0  0
  186.9840  178.1360  141.1130 C   0  0  0  0  0  3  0  0  0  0  0  0
  192.1500  179.6810  144.3920 F   0  0  0  0  0  0  0  0  0  0  0  0
  186.4150  178.3030  142.3070 C   0  0  0  0  0  0  0  0  0  0  0  0
  188.9720  177.5660  139.7890 C   0  0  0  0  0  0  0  0  0  0  0  0
  191.4340  178.2910  142.7000 C   0  0  0  0  0  3  0  0  0  0  0  0
  190.1380  177.1280  137.2620 C   0  0  0  0  0  3  0  0  0  0  0  0
  188.2350  177.7690  138.6070 C   0  0  0  0  0  2  0  0  0  0  0  0
  182.8580  178.4390  141.0580 C   0  0  0  0  0  0  0  0  0  0  0  0
  180.7270  179.3900  143.9090 C   0  0  0  0  0  1  0  0  0  0  0  0
  182.1830  178.3260  139.7280 C   0  0  0  0  0  1  0  0  0  0  0  0
  183.1390  179.3690  143.9670 C   0  0  0  0  0  3  0  0  0  0  0  0
  184.9770  178.6650  142.3890 C   0  0  0  0  0  0  0  0  0  0  0  0
  182.0430  178.2210  142.1720 O   0  0  0  0  0  0  0  0  0  0  0  0
  184.5090  179.0160  143.5920 C   0  0  0  0  0  3  0  0  0  0  0  0
  184.1770  178.7120  141.1320 C   0  0  0  0  0  0  0  0  0  0  0  0
  184.9310  179.0030  139.8660 C   0  0  0  0  0  1  0  0  0  0  0  0
  182.0370  179.0030  143.3260 C   0  0  0  0  0  0  0  0  0  0  0  0
  186.6330  178.3810  144.7170 O   0  0  0  0  0  0  0  0  0  0  0  0
  186.4410  177.1280  145.3110 C   0  0  0  0  0  1  0  0  0  0  0  0
  1 31  1  0  0  0  0
  2  3  2  0  0  0  0
  3  1  1  0  0  0  0
  3 10  1  0  0  0  0
  4  2  1  0  0  0  0
  4 18  1  0  0  0  0
  5 20  1  0  0  0  0
  6 14  1  0  0  0  0
  6  2  1  0  0  0  0
  7  8  2  0  0  0  0
  8 17  1  0  0  0  0
  8 11  1  0  0  0  0
  9 15  1  0  0  0  0
  9 12  1  0  0  0  0
 10 13  1  6  0  0  0
 10 12  1  0  0  0  0
 11  4  2  0  0  0  0
 12 13  1  6  0  0  0
 14 16  2  0  0  0  0
 16 25  1  0  0  0  0
 16  1  1  0  0  0  0
 17  6  2  0  0  0  0
 18  9  2  0  0  0  0
 19  5  2  0  0  0  0
 19  7  1  0  0  0  0
 20 17  1  0  0  0  0
 21 28  2  0  0  0  0
 21 26  1  0  0  0  0
 23 21  1  0  0  0  0
 25 27  2  0  0  0  0
 26 30  1  0  0  0  0
 27 24  1  0  0  0  0
 28 25  1  0  0  0  0
 29 28  1  0  0  0  0
 30 22  1  0  0  0  0
 30 24  2  0  0  0  0
 31 32  1  0  0  0  0
M  END
>  <MODEL>
4

>  <REMARK>
 VINA RESULT:      -9.5      2.855      6.189
  Name = 
  2 active torsions:
  status: ('A' for Active; 'I' for Inactive)
    1  A    between atoms: N_1  and  O_4
    2  A    between atoms: C_16  and  C_27
                            x       y       z     vdW  Elec       q    Type
                         _______ _______ _______ _____ _____    ______ ____

>  <TORSDO>
F 2

$$$$
=
 OpenBabel11052414373D

 32 37  0  0  1  0  0  0  0  0999 V2000
  186.0080  177.9230  145.3580 N   0  0  0  0  0  0  0  0  0  0  0  0
  188.3440  177.3010  145.1870 C   0  0  0  0  0  0  0  0  0  0  0  0
  187.2330  177.4360  145.9600 C   0  0  0  0  0  0  0  0  0  0  0  0
  189.6830  176.9430  145.7760 C   0  0  0  0  0  0  0  0  0  0  0  0
  190.4070  177.5220  140.7460 C   0  0  0  0  0  3  0  0  0  0  0  0
  188.2750  177.6000  143.7340 C   0  0  0  0  0  0  0  0  0  0  0  0
  191.6980  176.8130  142.6600 C   0  0  0  0  0  3  0  0  0  0  0  0
  190.5900  177.0020  143.4960 C   0  0  0  0  0  0  0  0  0  0  0  0
  189.4410  178.3050  147.8510 C   0  0  0  0  0  0  0  0  0  0  0  0
  187.1430  177.0840  147.4470 C   0  0  2  0  0  3  0  0  0  0  0  0
  190.7230  176.7550  144.7650 N   0  0  0  0  0  0  0  0  0  0  0  0
  188.2460  177.5450  148.4070 C   0  0  1  0  0  3  0  0  0  0  0  0
  188.1670  176.0850  147.9700 C   0  0  0  0  0  2  0  0  0  0  0  0
  186.9810  178.0140  143.1630 C   0  0  0  0  0  3  0  0  0  0  0  0
  189.9030  179.3410  148.5960 F   0  0  0  0  0  0  0  0  0  0  0  0
  185.9040  178.1510  143.9350 C   0  0  0  0  0  0  0  0  0  0  0  0
  189.3620  177.4480  142.9500 C   0  0  0  0  0  0  0  0  0  0  0  0
  190.0980  178.0240  146.7170 C   0  0  0  0  0  3  0  0  0  0  0  0
  191.6080  177.0720  141.2920 C   0  0  0  0  0  3  0  0  0  0  0  0
  189.2930  177.7060  141.5680 C   0  0  0  0  0  2  0  0  0  0  0  0
  183.4440  178.4990  141.0960 C   0  0  0  0  0  0  0  0  0  0  0  0
  180.1490  179.2190  142.5780 C   0  0  0  0  0  1  0  0  0  0  0  0
  183.5270  178.5340  139.6030 C   0  0  0  0  0  1  0  0  0  0  0  0
  182.2090  179.1320  143.8310 C   0  0  0  0  0  3  0  0  0  0  0  0
  184.6080  178.5390  143.3220 C   0  0  0  0  0  0  0  0  0  0  0  0
  182.1880  178.1930  141.6260 O   0  0  0  0  0  0  0  0  0  0  0  0
  183.5920  178.7830  144.1580 C   0  0  0  0  0  3  0  0  0  0  0  0
  184.5420  178.7300  141.8460 C   0  0  0  0  0  0  0  0  0  0  0  0
  185.8190  179.1240  141.1600 C   0  0  0  0  0  1  0  0  0  0  0  0
  181.5850  178.8580  142.6930 C   0  0  0  0  0  0  0  0  0  0  0  0
  184.9230  178.1440  146.1490 O   0  0  0  0  0  0  0  0  0  0  0  0
  185.2660  179.2250  146.9690 C   0  0  0  0  0  1  0  0  0  0  0  0
  1  3  1  0  0  0  0
  1 31  1  0  0  0  0
  2  4  1  0  0  0  0
  2  3  2  0  0  0  0
  3 10  1  0  0  0  0
  4 18  1  0  0  0  0
  5 19  2  0  0  0  0
  5 20  1  0  0  0  0
  6  2  1  0  0  0  0
  7  8  2  0  0  0  0
  8 11  1  0  0  0  0
  9 12  1  0  0  0  0
  9 15  1  0  0  0  0
 10 13  1  6  0  0  0
 10 12  1  0  0  0  0
 11  4  2  0  0  0  0
 12 13  1  6  0  0  0
 14  6  1  0  0  0  0
 14 16  2  0  0  0  0
 16  1  1  0  0  0  0
 17  8  1  0  0  0  0
 17  6  2  0  0  0  0
 18  9  2  0  0  0  0
 19  7  1  0  0  0  0
 20 17  1  0  0  0  0
 21 26  1  0  0  0  0
 21 28  2  0  0  0  0
 22 30  1  0  0  0  0
 23 21  1  0  0  0  0
 24 27  1  0  0  0  0
 25 16  1  0  0  0  0
 25 27  2  0  0  0  0
 26 30  1  0  0  0  0
 28 25  1  0  0  0  0
 29 28  1  0  0  0  0
 30 24  2  0  0  0  0
 31 32  1  0  0  0  0
M  END
>  <MODEL>
5

>  <REMARK>
 VINA RESULT:      -9.2      3.254      6.864
  Name = 
  2 active torsions:
  status: ('A' for Active; 'I' for Inactive)
    1  A    between atoms: N_1  and  O_4
    2  A    between atoms: C_16  and  C_27
                            x       y       z     vdW  Elec       q    Type
                         _______ _______ _______ _____ _____    ______ ____

>  <TORSDO>
F 2

$$$$
=
 OpenBabel11052414373D

 32 37  0  0  1  0  0  0  0  0999 V2000
  189.4470  177.5040  143.3830 N   0  0  0  0  0  0  0  0  0  0  0  0
  187.5940  178.0930  144.8290 C   0  0  0  0  0  0  0  0  0  0  0  0
  188.9240  177.8390  144.6920 C   0  0  0  0  0  0  0  0  0  0  0  0
  186.9620  178.3000  146.1800 C   0  0  0  0  0  0  0  0  0  0  0  0
  183.2050  178.6790  142.7290 C   0  0  0  0  0  3  0  0  0  0  0  0
  186.7110  178.0790  143.6350 C   0  0  0  0  0  0  0  0  0  0  0  0
  183.4710  178.9780  145.1110 C   0  0  0  0  0  3  0  0  0  0  0  0
  184.8300  178.6580  145.0150 C   0  0  0  0  0  0  0  0  0  0  0  0
  188.3020  176.5720  147.3780 C   0  0  0  0  0  0  0  0  0  0  0  0
  189.9560  177.9010  145.8190 C   0  0  2  0  0  3  0  0  0  0  0  0
  185.5440  178.6540  146.1010 N   0  0  0  0  0  0  0  0  0  0  0  0
  189.6530  177.2390  147.1690 C   0  0  1  0  0  3  0  0  0  0  0  0
  189.5930  178.7570  147.0250 C   0  0  0  0  0  2  0  0  0  0  0  0
  187.3150  177.8130  142.3180 C   0  0  0  0  0  3  0  0  0  0  0  0
  188.3010  175.4030  148.0650 F   0  0  0  0  0  0  0  0  0  0  0  0
  188.6180  177.5560  142.2000 C   0  0  0  0  0  0  0  0  0  0  0  0
  185.3960  178.3540  143.7520 C   0  0  0  0  0  0  0  0  0  0  0  0
  187.1140  177.0500  146.9790 C   0  0  0  0  0  3  0  0  0  0  0  0
  182.6600  178.9870  143.9750 C   0  0  0  0  0  3  0  0  0  0  0  0
  184.5610  178.3670  142.6190 C   0  0  0  0  0  2  0  0  0  0  0  0
  189.2310  178.3580  138.5660 C   0  0  0  0  0  0  0  0  0  0  0  0
  192.0650  176.2890  137.4450 C   0  0  0  0  0  1  0  0  0  0  0  0
  188.5470  179.1780  137.5190 C   0  0  0  0  0  1  0  0  0  0  0  0
  191.0010  176.0770  139.6010 C   0  0  0  0  0  3  0  0  0  0  0  0
  189.2000  177.3220  140.8540 C   0  0  0  0  0  0  0  0  0  0  0  0
  190.5720  178.0570  138.3190 O   0  0  0  0  0  0  0  0  0  0  0  0
  190.2170  176.4560  140.7770 C   0  0  0  0  0  3  0  0  0  0  0  0
  188.5650  177.9770  139.6760 C   0  0  0  0  0  0  0  0  0  0  0  0
  187.1020  178.2980  139.7910 C   0  0  0  0  0  1  0  0  0  0  0  0
  191.1590  176.8060  138.5030 C   0  0  0  0  0  0  0  0  0  0  0  0
  190.7590  177.1620  143.2600 O   0  0  0  0  0  0  0  0  0  0  0  0
  191.4720  178.3650  143.3250 C   0  0  0  0  0  1  0  0  0  0  0  0
  1  3  1  0  0  0  0
  2  4  1  0  0  0  0
  3  2  2  0  0  0  0
  3 10  1  0  0  0  0
  4 18  1  0  0  0  0
  5 19  2  0  0  0  0
  6 17  2  0  0  0  0
  6  2  1  0  0  0  0
  8  7  2  0  0  0  0
  8 11  1  0  0  0  0
  9 15  1  0  0  0  0
 10 13  1  1  0  0  0
 10 12  1  0  0  0  0
 11  4  2  0  0  0  0
 12 13  1  1  0  0  0
 12  9  1  0  0  0  0
 14  6  1  0  0  0  0
 16 14  2  0  0  0  0
 16  1  1  0  0  0  0
 17  8  1  0  0  0  0
 18  9  2  0  0  0  0
 19  7  1  0  0  0  0
 20  5  1  0  0  0  0
 20 17  1  0  0  0  0
 21 28  2  0  0  0  0
 22 30  1  0  0  0  0
 23 21  1  0  0  0  0
 24 27  1  0  0  0  0
 25 16  1  0  0  0  0
 26 30  1  0  0  0  0
 26 21  1  0  0  0  0
 27 25  2  0  0  0  0
 28 29  1  0  0  0  0
 28 25  1  0  0  0  0
 30 24  2  0  0  0  0
 31 32  1  0  0  0  0
 31  1  1  0  0  0  0
M  END
>  <MODEL>
6

>  <REMARK>
 VINA RESULT:      -9.1      3.076      7.464
  Name = 
  2 active torsions:
  status: ('A' for Active; 'I' for Inactive)
    1  A    between atoms: N_1  and  O_4
    2  A    between atoms: C_16  and  C_27
                            x       y       z     vdW  Elec       q    Type
                         _______ _______ _______ _____ _____    ______ ____

>  <TORSDO>
F 2

$$$$
=
 OpenBabel11052414373D

 32 37  0  0  1  0  0  0  0  0999 V2000
  186.7600  178.0680  143.2390 N   0  0  0  0  0  0  0  0  0  0  0  0
  187.6080  177.5020  145.4370 C   0  0  0  0  0  0  0  0  0  0  0  0
  186.5610  177.8980  144.6640 C   0  0  0  0  0  0  0  0  0  0  0  0
  187.5100  177.4500  146.9390 C   0  0  0  0  0  0  0  0  0  0  0  0
  192.2650  176.0030  145.7310 C   0  0  0  0  0  3  0  0  0  0  0  0
  188.9180  177.1960  144.8090 C   0  0  0  0  0  0  0  0  0  0  0  0
  190.9020  176.1540  147.7190 C   0  0  0  0  0  3  0  0  0  0  0  0
  189.8230  176.6250  146.9610 C   0  0  0  0  0  0  0  0  0  0  0  0
  186.1370  179.5160  147.1960 C   0  0  0  0  0  0  0  0  0  0  0  0
  185.1410  178.1640  145.1690 C   0  0  2  0  0  3  0  0  0  0  0  0
  188.7120  176.9080  147.5740 N   0  0  0  0  0  0  0  0  0  0  0  0
  184.9250  179.0030  146.4340 C   0  0  1  0  0  3  0  0  0  0  0  0
  184.7480  177.4880  146.4750 C   0  0  0  0  0  2  0  0  0  0  0  0
  189.0370  177.3090  143.3450 C   0  0  0  0  0  3  0  0  0  0  0  0
  186.0560  180.7760  147.6920 F   0  0  0  0  0  0  0  0  0  0  0  0
  188.0060  177.7080  142.6010 C   0  0  0  0  0  0  0  0  0  0  0  0
  189.9580  176.7790  145.5590 C   0  0  0  0  0  0  0  0  0  0  0  0
  187.2600  178.8280  147.4530 C   0  0  0  0  0  3  0  0  0  0  0  0
  192.1180  175.8460  147.1090 C   0  0  0  0  0  3  0  0  0  0  0  0
  191.1940  176.4640  144.9630 C   0  0  0  0  0  2  0  0  0  0  0  0
  189.6100  176.8780  139.2890 C   0  0  0  0  0  0  0  0  0  0  0  0
  187.2630  177.9070  136.6420 C   0  0  0  0  0  1  0  0  0  0  0  0
  190.9460  176.3780  138.8400 C   0  0  0  0  0  1  0  0  0  0  0  0
  186.9570  178.3870  138.9870 C   0  0  0  0  0  3  0  0  0  0  0  0
  188.1510  177.7790  141.1250 C   0  0  0  0  0  0  0  0  0  0  0  0
  188.5650  176.7170  138.3770 O   0  0  0  0  0  0  0  0  0  0  0  0
  187.1050  178.2530  140.4360 C   0  0  0  0  0  3  0  0  0  0  0  0
  189.4630  177.4220  140.5160 C   0  0  0  0  0  0  0  0  0  0  0  0
  190.6790  177.6110  141.3770 C   0  0  0  0  0  1  0  0  0  0  0  0
  187.6130  177.6880  138.0700 C   0  0  0  0  0  0  0  0  0  0  0  0
  185.7390  178.5500  142.4790 O   0  0  0  0  0  0  0  0  0  0  0  0
  185.5670  179.8810  142.8780 C   0  0  0  0  0  1  0  0  0  0  0  0
  1  3  1  0  0  0  0
  2  4  1  0  0  0  0
  3 10  1  0  0  0  0
  3  2  2  0  0  0  0
  4 18  1  0  0  0  0
  4 11  2  0  0  0  0
  5 19  2  0  0  0  0
  6  2  1  0  0  0  0
  6 17  2  0  0  0  0
  8 11  1  0  0  0  0
  8  7  2  0  0  0  0
  9 18  2  0  0  0  0
  9 15  1  0  0  0  0
 10 12  1  0  0  0  0
 10 13  1  1  0  0  0
 12 13  1  1  0  0  0
 12  9  1  0  0  0  0
 14  6  1  0  0  0  0
 16  1  1  0  0  0  0
 16 14  2  0  0  0  0
 17  8  1  0  0  0  0
 19  7  1  0  0  0  0
 20 17  1  0  0  0  0
 20  5  1  0  0  0  0
 21 28  2  0  0  0  0
 22 30  1  0  0  0  0
 23 21  1  0  0  0  0
 24 27  1  0  0  0  0
 25 16  1  0  0  0  0
 26 21  1  0  0  0  0
 27 25  2  0  0  0  0
 28 25  1  0  0  0  0
 28 29  1  0  0  0  0
 30 26  1  0  0  0  0
 30 24  2  0  0  0  0
 31 32  1  0  0  0  0
 31  1  1  0  0  0  0
M  END
>  <MODEL>
7

>  <REMARK>
 VINA RESULT:      -9.0      3.006      7.114
  Name = 
  2 active torsions:
  status: ('A' for Active; 'I' for Inactive)
    1  A    between atoms: N_1  and  O_4
    2  A    between atoms: C_16  and  C_27
                            x       y       z     vdW  Elec       q    Type
                         _______ _______ _______ _____ _____    ______ ____

>  <TORSDO>
F 2

$$$$
=
 OpenBabel11052414373D

 32 37  0  0  1  0  0  0  0  0999 V2000
  189.1170  178.0110  141.5950 N   0  0  0  0  0  0  0  0  0  0  0  0
  188.9360  178.1560  144.0070 C   0  0  0  0  0  0  0  0  0  0  0  0
  189.7300  178.1330  142.9020 C   0  0  0  0  0  0  0  0  0  0  0  0
  189.5120  178.1320  145.3980 C   0  0  0  0  0  0  0  0  0  0  0  0
  184.4250  178.2190  145.9210 C   0  0  0  0  0  3  0  0  0  0  0  0
  187.4590  178.1110  143.8580 C   0  0  0  0  0  0  0  0  0  0  0  0
  186.3640  178.3340  147.3560 C   0  0  0  0  0  3  0  0  0  0  0  0
  187.2110  178.2480  146.2450 C   0  0  0  0  0  0  0  0  0  0  0  0
  191.3650  176.5390  144.8990 C   0  0  0  0  0  0  0  0  0  0  0  0
  191.2550  178.2560  142.9070 C   0  0  2  0  0  3  0  0  0  0  0  0
  188.4950  178.2580  146.4420 N   0  0  0  0  0  0  0  0  0  0  0  0
  192.0840  177.4310  143.8990 C   0  0  1  0  0  3  0  0  0  0  0  0
  191.8770  178.9260  144.1240 C   0  0  0  0  0  2  0  0  0  0  0  0
  186.8920  178.0690  142.4990 C   0  0  0  0  0  3  0  0  0  0  0  0
  191.9220  175.3260  145.1420 F   0  0  0  0  0  0  0  0  0  0  0  0
  187.6820  178.0370  141.4270 C   0  0  0  0  0  0  0  0  0  0  0  0
  186.6590  178.1580  144.9430 C   0  0  0  0  0  0  0  0  0  0  0  0
  190.2570  176.8540  145.5880 C   0  0  0  0  0  3  0  0  0  0  0  0
  184.9780  178.3180  147.1980 C   0  0  0  0  0  3  0  0  0  0  0  0
  185.2590  178.1410  144.8040 C   0  0  0  0  0  2  0  0  0  0  0  0
  185.1910  179.0940  138.7980 C   0  0  0  0  0  0  0  0  0  0  0  0
  186.5020  177.9910  135.5350 C   0  0  0  0  0  1  0  0  0  0  0  0
  183.8260  179.7050  138.7970 C   0  0  0  0  0  1  0  0  0  0  0  0
  187.4880  177.4100  137.6600 C   0  0  0  0  0  3  0  0  0  0  0  0
  187.0760  178.0270  140.0710 C   0  0  0  0  0  0  0  0  0  0  0  0
  185.9080  179.2110  137.6040 O   0  0  0  0  0  0  0  0  0  0  0  0
  187.8130  177.5040  139.0830 C   0  0  0  0  0  3  0  0  0  0  0  0
  185.6720  178.4990  139.9090 C   0  0  0  0  0  0  0  0  0  0  0  0
  184.7760  178.3690  141.1080 C   0  0  0  0  0  1  0  0  0  0  0  0
  186.6350  178.1850  137.0030 C   0  0  0  0  0  0  0  0  0  0  0  0
  189.9130  177.8970  140.4970 O   0  0  0  0  0  0  0  0  0  0  0  0
  190.4630  176.6110  140.5600 C   0  0  0  0  0  1  0  0  0  0  0  0
  1  3  1  0  0  0  0
  2  4  1  0  0  0  0
  3 10  1  0  0  0  0
  3  2  2  0  0  0  0
  4 18  1  0  0  0  0
  4 11  2  0  0  0  0
  5 19  2  0  0  0  0
  6  2  1  0  0  0  0
  6 17  2  0  0  0  0
  8 11  1  0  0  0  0
  8  7  2  0  0  0  0
  9 15  1  0  0  0  0
  9 18  2  0  0  0  0
 10 12  1  0  0  0  0
 10 13  1  1  0  0  0
 12 13  1  1  0  0  0
 12  9  1  0  0  0  0
 14  6  1  0  0  0  0
 16  1  1  0  0  0  0
 16 14  2  0  0  0  0
 17  8  1  0  0  0  0
 19  7  1  0  0  0  0
 20 17  1  0  0  0  0
 20  5  1  0  0  0  0
 21 28  2  0  0  0  0
 22 30  1  0  0  0  0
 23 21  1  0  0  0  0
 24 27  1  0  0  0  0
 25 16  1  0  0  0  0
 26 21  1  0  0  0  0
 27 25  2  0  0  0  0
 28 25  1  0  0  0  0
 28 29  1  0  0  0  0
 30 26  1  0  0  0  0
 30 24  2  0  0  0  0
 31 32  1  0  0  0  0
 31  1  1  0  0  0  0
M  END
>  <MODEL>
8

>  <REMARK>
 VINA RESULT:      -8.9      3.158      8.162
  Name = 
  2 active torsions:
  status: ('A' for Active; 'I' for Inactive)
    1  A    between atoms: N_1  and  O_4
    2  A    between atoms: C_16  and  C_27
                            x       y       z     vdW  Elec       q    Type
                         _______ _______ _______ _____ _____    ______ ____

>  <TORSDO>
F 2

$$$$
=
 OpenBabel11052414373D

 32 37  0  0  1  0  0  0  0  0999 V2000
  186.2630  178.3410  139.7860 N   0  0  0  0  0  0  0  0  0  0  0  0
  188.6500  177.9970  140.0250 C   0  0  0  0  0  0  0  0  0  0  0  0
  187.5960  178.2990  139.2200 C   0  0  0  0  0  0  0  0  0  0  0  0
  190.0370  177.7910  139.4730 C   0  0  1  0  0  3  0  0  0  0  0  0
  190.3440  177.0440  144.5250 C   0  0  0  0  0  3  0  0  0  0  0  0
  188.4310  177.7690  141.4760 C   0  0  0  0  0  0  0  0  0  0  0  0
  191.8590  177.1620  142.6470 C   0  0  0  0  0  3  0  0  0  0  0  0
  190.7890  177.4120  141.7800 C   0  0  0  0  0  0  0  0  0  0  0  0
  189.3320  176.6060  137.3960 C   0  0  0  0  0  0  0  0  0  0  0  0
  187.6910  178.6370  137.7300 C   0  0  2  0  0  3  0  0  0  0  0  0
  191.0400  177.5680  140.5140 N   0  0  0  0  0  0  0  0  0  0  0  0
  188.5480  177.7670  136.8030 C   0  0  1  0  0  3  0  0  0  0  0  0
  189.0380  179.1460  137.2340 C   0  0  0  0  0  2  0  0  0  0  0  0
  187.0650  177.9050  142.0090 C   0  0  0  0  0  3  0  0  0  0  0  0
  189.3690  175.4620  136.6670 F   0  0  0  0  0  0  0  0  0  0  0  0
  186.0410  178.1920  141.2070 C   0  0  0  0  0  0  0  0  0  0  0  0
  189.4700  177.4920  142.2910 C   0  0  0  0  0  0  0  0  0  0  0  0
  190.0180  176.6210  138.5490 C   0  0  0  0  0  3  0  0  0  0  0  0
  191.6390  176.9760  144.0120 C   0  0  0  0  0  3  0  0  0  0  0  0
  189.2690  177.3010  143.6710 C   0  0  0  0  0  3  0  0  0  0  0  0
  183.5690  179.0710  143.9170 C   0  0  0  0  0  0  0  0  0  0  0  0
  180.2530  179.3450  142.3350 C   0  0  0  0  0  1  0  0  0  0  0  0
  183.6110  179.1990  145.4060 C   0  0  0  0  0  1  0  0  0  0  0  0
  182.2350  178.5600  141.2030 C   0  0  0  0  0  3  0  0  0  0  0  0
  184.6810  178.3530  141.7820 C   0  0  0  0  0  0  0  0  0  0  0  0
  182.5070  179.7200  143.2830 O   0  0  0  0  0  0  0  0  0  0  0  0
  183.6570  178.3700  140.9200 C   0  0  0  0  0  3  0  0  0  0  0  0
  184.5300  178.3850  143.2640 C   0  0  0  0  0  0  0  0  0  0  0  0
  185.5790  177.6660  144.0640 C   0  0  0  0  0  1  0  0  0  0  0  0
  181.7270  179.1740  142.2650 C   0  0  0  0  0  0  0  0  0  0  0  0
  185.2000  178.5540  138.9650 O   0  0  0  0  0  0  0  0  0  0  0  0
  185.0950  177.4030  138.1750 C   0  0  0  0  0  1  0  0  0  0  0  0
  1 16  1  0  0  0  0
  2  6  1  0  0  0  0
  3  1  1  0  0  0  0
  3  2  2  0  0  0  0
  4 18  1  6  0  0  0
  4  2  1  0  0  0  0
  4 11  1  0  0  0  0
  6 14  1  0  0  0  0
  6 17  2  0  0  0  0
  7 19  2  0  0  0  0
  8 17  1  0  0  0  0
  8  7  1  0  0  0  0
  9 18  2  0  0  0  0
 10 13  1  1  0  0  0
 10  3  1  0  0  0  0
 11  8  2  0  0  0  0
 12 13  1  1  0  0  0
 12  9  1  0  0  0  0
 12 10  1  0  0  0  0
 15  9  1  0  0  0  0
 16 25  1  0  0  0  0
 16 14  2  0  0  0  0
 17 20  1  0  0  0  0
 19  5  1  0  0  0  0
 20  5  2  0  0  0  0
 21 23  1  0  0  0  0
 24 30  2  0  0  0  0
 25 28  1  0  0  0  0
 26 21  1  0  0  0  0
 27 24  1  0  0  0  0
 27 25  2  0  0  0  0
 28 21  2  0  0  0  0
 28 29  1  0  0  0  0
 30 22  1  0  0  0  0
 30 26  1  0  0  0  0
 31  1  1  0  0  0  0
 32 31  1  0  0  0  0
M  END
>  <MODEL>
9

>  <REMARK>
 VINA RESULT:      -8.7      2.594      5.952
  Name = 
  2 active torsions:
  status: ('A' for Active; 'I' for Inactive)
    1  A    between atoms: N_1  and  O_4
    2  A    between atoms: C_16  and  C_27
                            x       y       z     vdW  Elec       q    Type
                         _______ _______ _______ _____ _____    ______ ____

>  <TORSDO>
F 2

$$$$
