=
 OpenBabel11052416303D

 43 47  0  0  1  0  0  0  0  0999 V2000
  185.6490  178.6420  143.1910 C   0  0  0  0  0  0  0  0  0  0  0  0
  188.1010  177.5720  142.3280 C   0  0  0  0  0  0  0  0  0  0  0  0
  184.9140  178.4470  145.9000 C   0  0  0  0  0  0  0  0  0  0  0  0
  186.1400  177.9060  145.4780 C   0  0  0  0  0  0  0  0  0  0  0  0
  184.5260  178.3730  147.2330 O   0  0  0  0  0  1  0  0  0  0  0  0
  187.7290  177.4740  143.6680 C   0  0  0  0  0  3  0  0  0  0  0  0
  186.5110  178.0000  144.1190 C   0  0  0  0  0  0  0  0  0  0  0  0
  184.4320  179.1720  143.6410 C   0  0  0  0  0  3  0  0  0  0  0  0
  186.0280  178.7450  141.8370 C   0  0  0  0  0  0  0  0  0  0  0  0
  187.2520  178.2130  141.4170 C   0  0  0  0  0  3  0  0  0  0  0  0
  184.0690  179.0740  144.9830 C   0  0  0  0  0  3  0  0  0  0  0  0
  189.4290  177.0290  141.9080 C   0  0  1  0  0  3  0  0  0  0  0  0
  189.8730  175.8770  142.7950 C   0  0  0  0  0  1  0  0  0  0  0  0
  189.4030  176.6090  140.4450 C   0  0  0  0  0  2  0  0  0  0  0  0
  190.6580  177.0380  139.7550 C   0  0  0  0  0  0  0  0  0  0  0  0
  191.5650  177.5460  140.3960 O   0  0  0  0  0  0  0  0  0  0  0  0
  190.8250  176.7870  138.2790 C   0  0  0  0  0  2  0  0  0  0  0  0
  189.5610  176.6360  137.5370 N   0  0  0  0  0  0  0  0  0  0  0  0
  188.8990  178.9630  137.2230 C   0  0  0  0  0  2  0  0  0  0  0  0
  189.4070  177.7000  136.5470 C   0  0  0  0  0  3  0  0  0  0  0  0
  187.9440  178.0930  136.4360 C   0  0  0  0  0  2  0  0  0  0  0  0
  189.4790  175.0830  136.7460 S   0  0  0  0  0  0  0  0  0  0  0  0
  189.9340  175.2000  135.3180 O   0  0  0  0  0  0  0  0  0  0  0  0
  190.3570  174.0970  137.4670 O   0  0  0  0  0  0  0  0  0  0  0  0
  187.7960  174.4950  136.7720 C   0  0  0  0  0  3  0  0  0  0  0  0
  186.5380  172.2840  136.4240 C   0  0  0  0  0  2  0  0  0  0  0  0
  185.6040  174.4500  135.5160 C   0  0  0  0  0  2  0  0  0  0  0  0
  185.3340  173.2210  136.3950 C   0  0  0  0  0  2  0  0  0  0  0  0
  187.0820  174.8610  135.4730 C   0  0  0  0  0  2  0  0  0  0  0  0
  187.7660  172.9800  137.0240 C   0  0  0  0  0  2  0  0  0  0  0  0
  185.1410  179.3900  140.8150 C   0  0  0  0  0  2  0  0  0  0  0  0
  182.8010  176.6120  139.7260 C   0  0  0  0  0  3  0  0  0  0  0  0
  183.2340  176.3840  138.4150 C   0  0  0  0  0  0  0  0  0  0  0  0
  184.8940  178.1310  138.6640 C   0  0  0  0  0  3  0  0  0  0  0  0
  183.4180  177.5940  140.5060 C   0  0  0  0  0  3  0  0  0  0  0  0
  184.4650  178.3570  139.9760 C   0  0  0  0  0  0  0  0  0  0  0  0
  184.2780  177.1480  137.8830 C   0  0  0  0  0  3  0  0  0  0  0  0
  182.5670  175.3470  137.5800 C   0  0  0  0  0  2  0  0  0  0  0  0
  181.5970  175.9980  136.6120 C   0  0  0  0  0  1  0  0  0  0  0  0
  187.0290  177.2250  146.4830 C   0  0  0  0  0  2  0  0  0  0  0  0
  188.1510  178.1440  146.9480 C   0  0  0  0  0  2  0  0  0  0  0  0
  189.4610  177.5330  146.6990 C   0  0  0  0  0  0  0  0  0  0  0  0
  190.5390  177.0310  146.4950 C   0  0  0  0  0  3  0  0  0  0  0  0
  1  8  1  0  0  0  0
  1  7  1  0  0  0  0
  2  6  1  0  0  0  0
  3  5  1  0  0  0  0
  4  3  2  0  0  0  0
  4 40  1  0  0  0  0
  6  7  2  0  0  0  0
  7  4  1  0  0  0  0
  8 11  2  0  0  0  0
  9  1  2  0  0  0  0
 10  9  1  0  0  0  0
 10  2  2  0  0  0  0
 11  3  1  0  0  0  0
 12  2  1  0  0  0  0
 12 13  1  1  0  0  0
 14 12  1  0  0  0  0
 15 16  2  0  0  0  0
 15 14  1  0  0  0  0
 17 15  1  0  0  0  0
 18 17  1  0  0  0  0
 20 19  1  0  0  0  0
 20 18  1  0  0  0  0
 21 20  1  0  0  0  0
 21 19  1  0  0  0  0
 22 25  1  0  0  0  0
 22 24  2  0  0  0  0
 22 18  1  0  0  0  0
 23 22  2  0  0  0  0
 25 30  1  0  0  0  0
 26 30  1  0  0  0  0
 27 28  1  0  0  0  0
 28 26  1  0  0  0  0
 29 27  1  0  0  0  0
 29 25  1  0  0  0  0
 31  9  1  0  0  0  0
 32 35  1  0  0  0  0
 33 32  2  0  0  0  0
 34 36  1  0  0  0  0
 36 35  2  0  0  0  0
 36 31  1  0  0  0  0
 37 33  1  0  0  0  0
 37 34  2  0  0  0  0
 38 33  1  0  0  0  0
 39 38  1  0  0  0  0
 40 41  1  0  0  0  0
 42 41  1  0  0  0  0
 43 42  3  0  0  0  0
M  END
>  <MODEL>
1

>  <REMARK>
 VINA RESULT:      -8.2      0.000      0.000
  Name = 
  14 active torsions:
  status: ('A' for Active; 'I' for Inactive)
    1  A    between atoms: C_1  and  C_34
    2  A    between atoms: C_1  and  C_35
    3  A    between atoms: C_2  and  C_6
    4  A    between atoms: C_2  and  C_13
    5  A    between atoms: C_3  and  N_4
    6  A    between atoms: C_3  and  C_12
    7  A    between atoms: N_4  and  S_14
    8  A    between atoms: N_4  and  C_15
    9  A    between atoms: C_5  and  C_18
   10  A    between atoms: C_6  and  C_12
   11  A    between atoms: C_11  and  S_14
   12  A    between atoms: C_18  and  C_24
   13  A    between atoms: C_19  and  C_25
   14  A    between atoms: C_21  and  C_24
                            x       y       z     vdW  Elec       q    Type
                         _______ _______ _______ _____ _____    ______ ____

>  <TORSDO>
F 14

$$$$
=
 OpenBabel11052416303D

 43 47  0  0  1  0  0  0  0  0999 V2000
  185.6390  178.5450  145.0620 C   0  0  0  0  0  0  0  0  0  0  0  0
  186.3660  178.2650  142.3610 C   0  0  0  0  0  0  0  0  0  0  0  0
  187.4010  177.6870  147.0810 C   0  0  0  0  0  0  0  0  0  0  0  0
  187.7720  177.5390  145.7330 C   0  0  0  0  0  0  0  0  0  0  0  0
  188.2530  177.2790  148.1010 O   0  0  0  0  0  1  0  0  0  0  0  0
  187.2320  177.8370  143.3650 C   0  0  0  0  0  3  0  0  0  0  0  0
  186.8890  177.9670  144.7170 C   0  0  0  0  0  0  0  0  0  0  0  0
  185.2960  178.6790  146.4140 C   0  0  0  0  0  3  0  0  0  0  0  0
  184.7650  178.9830  144.0440 C   0  0  0  0  0  0  0  0  0  0  0  0
  185.1370  178.8420  142.7040 C   0  0  0  0  0  3  0  0  0  0  0  0
  186.1690  178.2520  147.4130 C   0  0  0  0  0  3  0  0  0  0  0  0
  186.7980  178.1390  140.9350 C   0  0  1  0  0  3  0  0  0  0  0  0
  185.7950  178.7720  139.9840 C   0  0  0  0  0  1  0  0  0  0  0  0
  188.1840  178.7340  140.7360 C   0  0  0  0  0  2  0  0  0  0  0  0
  188.7660  178.2840  139.4350 C   0  0  0  0  0  0  0  0  0  0  0  0
  188.9550  179.0900  138.5380 O   0  0  0  0  0  0  0  0  0  0  0  0
  189.1770  176.8450  139.2550 C   0  0  0  0  0  2  0  0  0  0  0  0
  189.9430  176.5770  138.0250 N   0  0  0  0  0  0  0  0  0  0  0  0
  192.2960  176.7440  138.6470 C   0  0  0  0  0  2  0  0  0  0  0  0
  191.1480  175.8040  138.3180 C   0  0  0  0  0  3  0  0  0  0  0  0
  192.2160  176.1000  137.2810 C   0  0  0  0  0  2  0  0  0  0  0  0
  188.9710  175.7260  136.8530 S   0  0  0  0  0  0  0  0  0  0  0  0
  189.2410  176.2510  135.4700 O   0  0  0  0  0  0  0  0  0  0  0  0
  189.2910  174.2560  136.8960 O   0  0  0  0  0  0  0  0  0  0  0  0
  187.2450  175.9590  137.2350 C   0  0  0  0  0  3  0  0  0  0  0  0
  185.0070  174.7910  136.7650 C   0  0  0  0  0  2  0  0  0  0  0  0
  185.1770  177.3120  136.7060 C   0  0  0  0  0  2  0  0  0  0  0  0
  184.4520  176.1020  137.3120 C   0  0  0  0  0  2  0  0  0  0  0  0
  186.6360  177.0260  136.3280 C   0  0  0  0  0  2  0  0  0  0  0  0
  186.4900  174.6260  137.1220 C   0  0  0  0  0  2  0  0  0  0  0  0
  183.4250  179.5750  144.3570 C   0  0  0  0  0  2  0  0  0  0  0  0
  181.6350  178.3660  141.2400 C   0  0  0  0  0  3  0  0  0  0  0  0
  180.3880  178.0050  141.7600 C   0  0  0  0  0  0  0  0  0  0  0  0
  181.1300  178.6470  143.9760 C   0  0  0  0  0  3  0  0  0  0  0  0
  182.6260  178.8720  142.0860 C   0  0  0  0  0  3  0  0  0  0  0  0
  182.3750  179.0120  143.4560 C   0  0  0  0  0  0  0  0  0  0  0  0
  180.1370  178.1410  143.1300 C   0  0  0  0  0  3  0  0  0  0  0  0
  179.3370  177.4520  140.8610 C   0  0  0  0  0  2  0  0  0  0  0  0
  179.9750  176.7630  139.6700 C   0  0  0  0  0  1  0  0  0  0  0  0
  189.1000  176.9160  145.4000 C   0  0  0  0  0  2  0  0  0  0  0  0
  190.1970  177.9660  145.2880 C   0  0  0  0  0  2  0  0  0  0  0  0
  190.8060  177.9420  143.9530 C   0  0  0  0  0  0  0  0  0  0  0  0
  191.3070  177.9230  142.8560 C   0  0  0  0  0  3  0  0  0  0  0  0
  1  8  1  0  0  0  0
  2 10  2  0  0  0  0
  2  6  1  0  0  0  0
  3 11  1  0  0  0  0
  3  5  1  0  0  0  0
  4  3  2  0  0  0  0
  6  7  2  0  0  0  0
  7  1  1  0  0  0  0
  7  4  1  0  0  0  0
  8 11  2  0  0  0  0
  9 31  1  0  0  0  0
  9  1  2  0  0  0  0
 10  9  1  0  0  0  0
 12 13  1  6  0  0  0
 12  2  1  0  0  0  0
 14 12  1  0  0  0  0
 15 14  1  0  0  0  0
 16 15  2  0  0  0  0
 17 15  1  0  0  0  0
 18 20  1  0  0  0  0
 18 17  1  0  0  0  0
 20 19  1  0  0  0  0
 21 20  1  0  0  0  0
 21 19  1  0  0  0  0
 22 24  2  0  0  0  0
 22 25  1  0  0  0  0
 22 18  1  0  0  0  0
 23 22  2  0  0  0  0
 26 30  1  0  0  0  0
 26 28  1  0  0  0  0
 27 28  1  0  0  0  0
 29 27  1  0  0  0  0
 29 25  1  0  0  0  0
 30 25  1  0  0  0  0
 32 33  2  0  0  0  0
 32 35  1  0  0  0  0
 33 37  1  0  0  0  0
 35 36  2  0  0  0  0
 36 34  1  0  0  0  0
 36 31  1  0  0  0  0
 37 34  2  0  0  0  0
 38 33  1  0  0  0  0
 39 38  1  0  0  0  0
 40  4  1  0  0  0  0
 41 40  1  0  0  0  0
 42 41  1  0  0  0  0
 43 42  3  0  0  0  0
M  END
>  <MODEL>
2

>  <REMARK>
 VINA RESULT:      -7.9      1.938      3.280
  Name = 
  14 active torsions:
  status: ('A' for Active; 'I' for Inactive)
    1  A    between atoms: C_1  and  C_34
    2  A    between atoms: C_1  and  C_35
    3  A    between atoms: C_2  and  C_6
    4  A    between atoms: C_2  and  C_13
    5  A    between atoms: C_3  and  N_4
    6  A    between atoms: C_3  and  C_12
    7  A    between atoms: N_4  and  S_14
    8  A    between atoms: N_4  and  C_15
    9  A    between atoms: C_5  and  C_18
   10  A    between atoms: C_6  and  C_12
   11  A    between atoms: C_11  and  S_14
   12  A    between atoms: C_18  and  C_24
   13  A    between atoms: C_19  and  C_25
   14  A    between atoms: C_21  and  C_24
                            x       y       z     vdW  Elec       q    Type
                         _______ _______ _______ _____ _____    ______ ____

>  <TORSDO>
F 14

$$$$
=
 OpenBabel11052416303D

 43 47  0  0  1  0  0  0  0  0999 V2000
  183.9720  178.6600  143.5020 C   0  0  0  0  0  0  0  0  0  0  0  0
  186.3570  178.5510  142.0170 C   0  0  0  0  0  0  0  0  0  0  0  0
  181.5020  178.8530  142.1700 C   0  0  0  0  0  0  0  0  0  0  0  0
  182.6880  178.8030  141.4180 C   0  0  0  0  0  0  0  0  0  0  0  0
  180.2650  178.9420  141.5400 O   0  0  0  0  0  1  0  0  0  0  0  0
  185.1300  178.6520  141.3620 C   0  0  0  0  0  3  0  0  0  0  0  0
  183.9300  178.7080  142.0840 C   0  0  0  0  0  0  0  0  0  0  0  0
  182.7730  178.7130  144.2250 C   0  0  0  0  0  3  0  0  0  0  0  0
  185.2140  178.5520  144.1630 C   0  0  0  0  0  0  0  0  0  0  0  0
  186.3940  178.4950  143.4150 C   0  0  0  0  0  3  0  0  0  0  0  0
  181.5500  178.8100  143.5640 C   0  0  0  0  0  3  0  0  0  0  0  0
  187.6040  178.4540  141.1980 C   0  0  1  0  0  3  0  0  0  0  0  0
  188.6220  177.5190  141.8300 C   0  0  0  0  0  1  0  0  0  0  0  0
  187.2830  178.0240  139.7740 C   0  0  0  0  0  2  0  0  0  0  0  0
  188.4900  178.1580  138.9020 C   0  0  0  0  0  0  0  0  0  0  0  0
  189.0270  179.2460  138.7650 O   0  0  0  0  0  0  0  0  0  0  0  0
  189.0780  176.9380  138.2420 C   0  0  0  0  0  2  0  0  0  0  0  0
  188.2870  176.4110  137.1150 N   0  0  0  0  0  0  0  0  0  0  0  0
  187.2040  178.2100  135.8720 C   0  0  0  0  0  2  0  0  0  0  0  0
  188.4030  177.2800  135.9450 C   0  0  0  0  0  3  0  0  0  0  0  0
  187.2710  176.9930  134.9760 C   0  0  0  0  0  2  0  0  0  0  0  0
  188.7890  174.7940  136.6970 S   0  0  0  0  0  0  0  0  0  0  0  0
  189.2840  174.7520  135.2770 O   0  0  0  0  0  0  0  0  0  0  0  0
  189.8920  174.3480  137.6190 O   0  0  0  0  0  0  0  0  0  0  0  0
  187.4050  173.6830  136.8620 C   0  0  0  0  0  3  0  0  0  0  0  0
  185.7390  172.4640  135.3350 C   0  0  0  0  0  2  0  0  0  0  0  0
  184.9680  173.5010  137.5080 C   0  0  0  0  0  2  0  0  0  0  0  0
  185.0280  172.2200  136.6630 C   0  0  0  0  0  2  0  0  0  0  0  0
  186.1480  174.4510  137.2650 C   0  0  0  0  0  2  0  0  0  0  0  0
  187.1930  172.9000  135.5570 C   0  0  0  0  0  2  0  0  0  0  0  0
  185.3120  178.5250  145.6580 C   0  0  0  0  0  2  0  0  0  0  0  0
  188.7750  176.9820  145.6240 C   0  0  0  0  0  3  0  0  0  0  0  0
  189.2170  177.2650  146.9200 C   0  0  0  0  0  0  0  0  0  0  0  0
  187.1210  178.3890  147.3850 C   0  0  0  0  0  3  0  0  0  0  0  0
  187.5060  177.3960  145.2100 C   0  0  0  0  0  3  0  0  0  0  0  0
  186.6770  178.1020  146.0900 C   0  0  0  0  0  0  0  0  0  0  0  0
  188.3900  177.9740  147.8000 C   0  0  0  0  0  3  0  0  0  0  0  0
  190.5750  176.8360  147.3560 C   0  0  0  0  0  2  0  0  0  0  0  0
  191.5020  176.7370  146.1600 C   0  0  0  0  0  1  0  0  0  0  0  0
  182.6110  178.8630  139.9160 C   0  0  0  0  0  2  0  0  0  0  0  0
  182.4820  177.4730  139.3080 C   0  0  0  0  0  2  0  0  0  0  0  0
  183.2190  177.3890  138.0430 C   0  0  0  0  0  0  0  0  0  0  0  0
  183.8260  177.3180  137.0030 C   0  0  0  0  0  3  0  0  0  0  0  0
  1  9  1  0  0  0  0
  1  8  1  0  0  0  0
  2 10  1  0  0  0  0
  3 11  1  0  0  0  0
  4  7  1  0  0  0  0
  4  3  2  0  0  0  0
  5  3  1  0  0  0  0
  6  2  2  0  0  0  0
  6  7  1  0  0  0  0
  7  1  2  0  0  0  0
  9 31  1  0  0  0  0
 10  9  2  0  0  0  0
 11  8  2  0  0  0  0
 12 13  1  1  0  0  0
 12  2  1  0  0  0  0
 14 12  1  0  0  0  0
 15 14  1  0  0  0  0
 16 15  2  0  0  0  0
 17 15  1  0  0  0  0
 18 17  1  0  0  0  0
 19 20  1  0  0  0  0
 20 18  1  0  0  0  0
 21 19  1  0  0  0  0
 21 20  1  0  0  0  0
 22 25  1  0  0  0  0
 22 18  1  0  0  0  0
 22 24  2  0  0  0  0
 23 22  2  0  0  0  0
 25 29  1  0  0  0  0
 26 30  1  0  0  0  0
 26 28  1  0  0  0  0
 28 27  1  0  0  0  0
 29 27  1  0  0  0  0
 30 25  1  0  0  0  0
 31 36  1  0  0  0  0
 32 33  1  0  0  0  0
 33 38  1  0  0  0  0
 33 37  2  0  0  0  0
 34 37  1  0  0  0  0
 35 32  2  0  0  0  0
 35 36  1  0  0  0  0
 36 34  2  0  0  0  0
 39 38  1  0  0  0  0
 40  4  1  0  0  0  0
 41 40  1  0  0  0  0
 42 41  1  0  0  0  0
 43 42  3  0  0  0  0
M  END
>  <MODEL>
3

>  <REMARK>
 VINA RESULT:      -7.7      1.777      5.845
  Name = 
  14 active torsions:
  status: ('A' for Active; 'I' for Inactive)
    1  A    between atoms: C_1  and  C_34
    2  A    between atoms: C_1  and  C_35
    3  A    between atoms: C_2  and  C_6
    4  A    between atoms: C_2  and  C_13
    5  A    between atoms: C_3  and  N_4
    6  A    between atoms: C_3  and  C_12
    7  A    between atoms: N_4  and  S_14
    8  A    between atoms: N_4  and  C_15
    9  A    between atoms: C_5  and  C_18
   10  A    between atoms: C_6  and  C_12
   11  A    between atoms: C_11  and  S_14
   12  A    between atoms: C_18  and  C_24
   13  A    between atoms: C_19  and  C_25
   14  A    between atoms: C_21  and  C_24
                            x       y       z     vdW  Elec       q    Type
                         _______ _______ _______ _____ _____    ______ ____

>  <TORSDO>
F 14

$$$$
=
 OpenBabel11052416303D

 43 47  0  0  1  0  0  0  0  0999 V2000
  189.8700  177.3310  143.8170 C   0  0  0  0  0  0  0  0  0  0  0  0
  187.1460  177.8640  143.3740 C   0  0  0  0  0  0  0  0  0  0  0  0
  190.7670  176.6820  146.4040 C   0  0  0  0  0  0  0  0  0  0  0  0
  189.4030  176.9510  146.1940 C   0  0  0  0  0  0  0  0  0  0  0  0
  191.2390  176.3520  147.6700 O   0  0  0  0  0  1  0  0  0  0  0  0
  187.5970  177.5480  144.6550 C   0  0  0  0  0  3  0  0  0  0  0  0
  188.9500  177.2790  144.8970 C   0  0  0  0  0  0  0  0  0  0  0  0
  191.2240  177.0590  144.0570 C   0  0  0  0  0  3  0  0  0  0  0  0
  189.4120  177.6460  142.5210 C   0  0  0  0  0  0  0  0  0  0  0  0
  188.0550  177.9070  142.3100 C   0  0  0  0  0  3  0  0  0  0  0  0
  191.6670  176.7390  145.3390 C   0  0  0  0  0  3  0  0  0  0  0  0
  185.6850  178.1030  143.1640 C   0  0  1  0  0  3  0  0  0  0  0  0
  184.9430  178.2490  144.4830 C   0  0  0  0  0  1  0  0  0  0  0  0
  185.4580  179.3170  142.2760 C   0  0  0  0  0  2  0  0  0  0  0  0
  184.7150  178.9300  141.0380 C   0  0  0  0  0  0  0  0  0  0  0  0
  184.8180  179.6060  140.0270 O   0  0  0  0  0  0  0  0  0  0  0  0
  183.8890  177.6690  141.0230 C   0  0  0  0  0  2  0  0  0  0  0  0
  182.4330  177.8930  140.9600 N   0  0  0  0  0  0  0  0  0  0  0  0
  181.6030  179.0080  142.9650 C   0  0  0  0  0  2  0  0  0  0  0  0
  182.0800  179.1910  141.5340 C   0  0  0  0  0  3  0  0  0  0  0  0
  180.5970  179.2250  141.8570 C   0  0  0  0  0  2  0  0  0  0  0  0
  181.8550  177.8020  139.3170 S   0  0  0  0  0  0  0  0  0  0  0  0
  180.4680  177.2200  139.2840 O   0  0  0  0  0  0  0  0  0  0  0  0
  181.8300  179.1780  138.7080 O   0  0  0  0  0  0  0  0  0  0  0  0
  182.9430  176.7600  138.3640 C   0  0  0  0  0  3  0  0  0  0  0  0
  183.8750  176.6480  135.9750 C   0  0  0  0  0  2  0  0  0  0  0  0
  183.1590  174.5410  137.1740 C   0  0  0  0  0  2  0  0  0  0  0  0
  184.2990  175.2560  136.4330 C   0  0  0  0  0  2  0  0  0  0  0  0
  182.2130  175.4970  137.9120 C   0  0  0  0  0  2  0  0  0  0  0  0
  183.5140  177.5390  137.1700 C   0  0  0  0  0  2  0  0  0  0  0  0
  190.3480  177.7390  141.3540 C   0  0  0  0  0  2  0  0  0  0  0  0
  189.4560  176.2660  137.9770 C   0  0  0  0  0  3  0  0  0  0  0  0
  188.3040  176.9900  137.6540 C   0  0  0  0  0  0  0  0  0  0  0  0
  188.4730  178.1860  139.7550 C   0  0  0  0  0  3  0  0  0  0  0  0
  190.1190  176.5050  139.1830 C   0  0  0  0  0  3  0  0  0  0  0  0
  189.6280  177.4650  140.0760 C   0  0  0  0  0  0  0  0  0  0  0  0
  187.8090  177.9470  138.5470 C   0  0  0  0  0  3  0  0  0  0  0  0
  187.5890  176.7240  136.3750 C   0  0  0  0  0  2  0  0  0  0  0  0
  187.4930  177.9960  135.5540 C   0  0  0  0  0  1  0  0  0  0  0  0
  188.4540  176.8950  147.3600 C   0  0  0  0  0  2  0  0  0  0  0  0
  188.3570  178.2410  148.0650 C   0  0  0  0  0  2  0  0  0  0  0  0
  187.0770  178.8930  147.7680 C   0  0  0  0  0  0  0  0  0  0  0  0
  186.0240  179.4280  147.5230 C   0  0  0  0  0  3  0  0  0  0  0  0
  1  8  1  0  0  0  0
  1  7  1  0  0  0  0
  2  6  1  0  0  0  0
  3  5  1  0  0  0  0
  4  3  2  0  0  0  0
  4 40  1  0  0  0  0
  6  7  2  0  0  0  0
  7  4  1  0  0  0  0
  8 11  2  0  0  0  0
  9  1  2  0  0  0  0
 10  9  1  0  0  0  0
 10  2  2  0  0  0  0
 11  3  1  0  0  0  0
 12  2  1  0  0  0  0
 12 13  1  1  0  0  0
 14 12  1  0  0  0  0
 15 14  1  0  0  0  0
 16 15  2  0  0  0  0
 17 15  1  0  0  0  0
 18 17  1  0  0  0  0
 18 20  1  0  0  0  0
 20 21  1  0  0  0  0
 20 19  1  0  0  0  0
 21 19  1  0  0  0  0
 22 18  1  0  0  0  0
 23 22  2  0  0  0  0
 24 22  2  0  0  0  0
 25 22  1  0  0  0  0
 26 28  1  0  0  0  0
 26 30  1  0  0  0  0
 27 29  1  0  0  0  0
 28 27  1  0  0  0  0
 29 25  1  0  0  0  0
 30 25  1  0  0  0  0
 31  9  1  0  0  0  0
 32 35  1  0  0  0  0
 33 32  2  0  0  0  0
 33 37  1  0  0  0  0
 34 36  1  0  0  0  0
 35 36  2  0  0  0  0
 36 31  1  0  0  0  0
 37 34  2  0  0  0  0
 38 33  1  0  0  0  0
 39 38  1  0  0  0  0
 40 41  1  0  0  0  0
 42 41  1  0  0  0  0
 43 42  3  0  0  0  0
M  END
>  <MODEL>
4

>  <REMARK>
 VINA RESULT:      -7.7      3.355      5.973
  Name = 
  14 active torsions:
  status: ('A' for Active; 'I' for Inactive)
    1  A    between atoms: C_1  and  C_34
    2  A    between atoms: C_1  and  C_35
    3  A    between atoms: C_2  and  C_6
    4  A    between atoms: C_2  and  C_13
    5  A    between atoms: C_3  and  N_4
    6  A    between atoms: C_3  and  C_12
    7  A    between atoms: N_4  and  S_14
    8  A    between atoms: N_4  and  C_15
    9  A    between atoms: C_5  and  C_18
   10  A    between atoms: C_6  and  C_12
   11  A    between atoms: C_11  and  S_14
   12  A    between atoms: C_18  and  C_24
   13  A    between atoms: C_19  and  C_25
   14  A    between atoms: C_21  and  C_24
                            x       y       z     vdW  Elec       q    Type
                         _______ _______ _______ _____ _____    ______ ____

>  <TORSDO>
F 14

$$$$
=
 OpenBabel11052416303D

 43 47  0  0  1  0  0  0  0  0999 V2000
  185.6250  178.4960  145.1870 C   0  0  0  0  0  0  0  0  0  0  0  0
  186.2670  178.2380  142.4630 C   0  0  0  0  0  0  0  0  0  0  0  0
  187.4870  177.7130  147.1440 C   0  0  0  0  0  0  0  0  0  0  0  0
  187.8170  177.5770  145.7850 C   0  0  0  0  0  0  0  0  0  0  0  0
  188.3900  177.3410  148.1350 O   0  0  0  0  0  1  0  0  0  0  0  0
  187.1840  177.8470  143.4370 C   0  0  0  0  0  3  0  0  0  0  0  0
  186.8830  177.9670  144.8000 C   0  0  0  0  0  0  0  0  0  0  0  0
  185.3230  178.6200  146.5500 C   0  0  0  0  0  3  0  0  0  0  0  0
  184.6990  178.8970  144.2000 C   0  0  0  0  0  0  0  0  0  0  0  0
  185.0290  178.7680  142.8480 C   0  0  0  0  0  3  0  0  0  0  0  0
  186.2470  178.2310  147.5190 C   0  0  0  0  0  3  0  0  0  0  0  0
  186.6540  178.1260  141.0230 C   0  0  1  0  0  3  0  0  0  0  0  0
  185.6370  178.7950  140.1120 C   0  0  0  0  0  1  0  0  0  0  0  0
  188.0470  178.6940  140.7920 C   0  0  0  0  0  2  0  0  0  0  0  0
  188.9790  177.6220  140.3300 C   0  0  0  0  0  0  0  0  0  0  0  0
  189.0820  176.5850  140.9670 O   0  0  0  0  0  0  0  0  0  0  0  0
  189.7460  177.7970  139.0440 C   0  0  0  0  0  2  0  0  0  0  0  0
  189.0580  177.2800  137.8470 N   0  0  0  0  0  0  0  0  0  0  0  0
  187.6300  178.9640  136.8090 C   0  0  0  0  0  2  0  0  0  0  0  0
  188.9960  178.2980  136.8000 C   0  0  0  0  0  3  0  0  0  0  0  0
  187.9510  177.9140  135.7690 C   0  0  0  0  0  2  0  0  0  0  0  0
  189.8540  175.8540  137.2330 S   0  0  0  0  0  0  0  0  0  0  0  0
  190.7850  176.2200  136.1100 O   0  0  0  0  0  0  0  0  0  0  0  0
  190.6400  175.1940  138.3330 O   0  0  0  0  0  0  0  0  0  0  0  0
  188.6300  174.7110  136.6210 C   0  0  0  0  0  3  0  0  0  0  0  0
  186.3630  173.7590  137.3610 C   0  0  0  0  0  2  0  0  0  0  0  0
  188.0830  172.2710  136.2580 C   0  0  0  0  0  2  0  0  0  0  0  0
  186.6380  172.7890  136.2170 C   0  0  0  0  0  2  0  0  0  0  0  0
  189.0750  173.2710  136.8650 C   0  0  0  0  0  2  0  0  0  0  0  0
  187.2660  174.9960  137.2670 C   0  0  0  0  0  2  0  0  0  0  0  0
  183.3480  179.4370  144.5590 C   0  0  0  0  0  2  0  0  0  0  0  0
  180.0820  178.1840  143.0950 C   0  0  0  0  0  3  0  0  0  0  0  0
  180.4090  178.0810  141.7390 C   0  0  0  0  0  0  0  0  0  0  0  0
  182.6440  178.8830  142.2200 C   0  0  0  0  0  3  0  0  0  0  0  0
  181.0370  178.6310  144.0130 C   0  0  0  0  0  3  0  0  0  0  0  0
  182.3200  178.9830  143.5760 C   0  0  0  0  0  0  0  0  0  0  0  0
  181.6900  178.4350  141.3010 C   0  0  0  0  0  3  0  0  0  0  0  0
  179.3870  177.6180  140.7590 C   0  0  0  0  0  2  0  0  0  0  0  0
  179.5410  176.1320  140.5030 C   0  0  0  0  0  1  0  0  0  0  0  0
  189.1570  177.0050  145.4060 C   0  0  0  0  0  2  0  0  0  0  0  0
  190.1860  178.1030  145.1740 C   0  0  0  0  0  2  0  0  0  0  0  0
  190.9990  177.8120  143.9880 C   0  0  0  0  0  0  0  0  0  0  0  0
  191.6680  177.5720  143.0140 C   0  0  0  0  0  3  0  0  0  0  0  0
  1  8  1  0  0  0  0
  2 10  2  0  0  0  0
  2  6  1  0  0  0  0
  3 11  1  0  0  0  0
  3  5  1  0  0  0  0
  4  3  2  0  0  0  0
  6  7  2  0  0  0  0
  7  1  1  0  0  0  0
  7  4  1  0  0  0  0
  8 11  2  0  0  0  0
  9 31  1  0  0  0  0
  9  1  2  0  0  0  0
 10  9  1  0  0  0  0
 12 13  1  6  0  0  0
 12  2  1  0  0  0  0
 14 12  1  0  0  0  0
 15 14  1  0  0  0  0
 15 16  2  0  0  0  0
 17 15  1  0  0  0  0
 18 17  1  0  0  0  0
 20 19  1  0  0  0  0
 20 18  1  0  0  0  0
 21 20  1  0  0  0  0
 21 19  1  0  0  0  0
 22 18  1  0  0  0  0
 22 24  2  0  0  0  0
 23 22  2  0  0  0  0
 25 29  1  0  0  0  0
 25 22  1  0  0  0  0
 25 30  1  0  0  0  0
 27 29  1  0  0  0  0
 28 27  1  0  0  0  0
 28 26  1  0  0  0  0
 30 26  1  0  0  0  0
 32 35  1  0  0  0  0
 33 32  2  0  0  0  0
 34 36  1  0  0  0  0
 36 35  2  0  0  0  0
 36 31  1  0  0  0  0
 37 33  1  0  0  0  0
 37 34  2  0  0  0  0
 38 33  1  0  0  0  0
 39 38  1  0  0  0  0
 40  4  1  0  0  0  0
 41 40  1  0  0  0  0
 42 41  1  0  0  0  0
 43 42  3  0  0  0  0
M  END
>  <MODEL>
5

>  <REMARK>
 VINA RESULT:      -7.7      1.876      3.023
  Name = 
  14 active torsions:
  status: ('A' for Active; 'I' for Inactive)
    1  A    between atoms: C_1  and  C_34
    2  A    between atoms: C_1  and  C_35
    3  A    between atoms: C_2  and  C_6
    4  A    between atoms: C_2  and  C_13
    5  A    between atoms: C_3  and  N_4
    6  A    between atoms: C_3  and  C_12
    7  A    between atoms: N_4  and  S_14
    8  A    between atoms: N_4  and  C_15
    9  A    between atoms: C_5  and  C_18
   10  A    between atoms: C_6  and  C_12
   11  A    between atoms: C_11  and  S_14
   12  A    between atoms: C_18  and  C_24
   13  A    between atoms: C_19  and  C_25
   14  A    between atoms: C_21  and  C_24
                            x       y       z     vdW  Elec       q    Type
                         _______ _______ _______ _____ _____    ______ ____

>  <TORSDO>
F 14

$$$$
=
 OpenBabel11052416303D

 43 47  0  0  1  0  0  0  0  0999 V2000
  189.5730  177.7590  142.3710 C   0  0  0  0  0  0  0  0  0  0  0  0
  186.7850  178.0720  142.5440 C   0  0  0  0  0  0  0  0  0  0  0  0
  191.0260  176.8880  144.6170 C   0  0  0  0  0  0  0  0  0  0  0  0
  189.6320  177.0450  144.7150 C   0  0  0  0  0  0  0  0  0  0  0  0
  191.7710  176.4530  145.7080 O   0  0  0  0  0  1  0  0  0  0  0  0
  187.5100  177.6460  143.6560 C   0  0  0  0  0  3  0  0  0  0  0  0
  188.9010  177.4840  143.5900 C   0  0  0  0  0  0  0  0  0  0  0  0
  190.9630  177.5950  142.3020 C   0  0  0  0  0  3  0  0  0  0  0  0
  188.8370  178.1850  141.2450 C   0  0  0  0  0  0  0  0  0  0  0  0
  187.4500  178.3350  141.3400 C   0  0  0  0  0  3  0  0  0  0  0  0
  191.6820  177.1640  143.4160 C   0  0  0  0  0  3  0  0  0  0  0  0
  185.2980  178.1900  142.6570 C   0  0  1  0  0  3  0  0  0  0  0  0
  184.8470  178.2520  144.1080 C   0  0  0  0  0  1  0  0  0  0  0  0
  184.7910  179.3950  141.8780 C   0  0  0  0  0  2  0  0  0  0  0  0
  184.4370  179.0030  140.4800 C   0  0  0  0  0  0  0  0  0  0  0  0
  184.9030  179.6200  139.5360 O   0  0  0  0  0  0  0  0  0  0  0  0
  183.5540  177.8060  140.2370 C   0  0  0  0  0  2  0  0  0  0  0  0
  182.8670  177.8080  138.9330 N   0  0  0  0  0  0  0  0  0  0  0  0
  184.4790  176.6060  137.5520 C   0  0  0  0  0  2  0  0  0  0  0  0
  183.1110  176.5600  138.2120 C   0  0  0  0  0  3  0  0  0  0  0  0
  183.2340  176.8390  136.7250 C   0  0  0  0  0  2  0  0  0  0  0  0
  181.1500  178.0460  139.1280 S   0  0  0  0  0  0  0  0  0  0  0  0
  180.3920  176.8900  138.5350 O   0  0  0  0  0  0  0  0  0  0  0  0
  180.8140  178.1610  140.5900 O   0  0  0  0  0  0  0  0  0  0  0  0
  180.6620  179.5460  138.2970 C   0  0  0  0  0  3  0  0  0  0  0  0
  180.8050  180.5610  135.9430 C   0  0  0  0  0  2  0  0  0  0  0  0
  181.1850  181.9990  137.9870 C   0  0  0  0  0  2  0  0  0  0  0  0
  180.3800  181.8200  136.6920 C   0  0  0  0  0  2  0  0  0  0  0  0
  181.6410  180.6750  138.6130 C   0  0  0  0  0  2  0  0  0  0  0  0
  180.5510  179.3040  136.7840 C   0  0  0  0  0  2  0  0  0  0  0  0
  189.5040  178.5130  139.9440 C   0  0  0  0  0  2  0  0  0  0  0  0
  188.2350  175.9260  137.4800 C   0  0  0  0  0  3  0  0  0  0  0  0
  189.3650  175.1150  137.3230 C   0  0  0  0  0  0  0  0  0  0  0  0
  190.5900  176.5350  138.8580 C   0  0  0  0  0  3  0  0  0  0  0  0
  188.2810  177.0350  138.3290 C   0  0  0  0  0  3  0  0  0  0  0  0
  189.4600  177.3420  139.0180 C   0  0  0  0  0  0  0  0  0  0  0  0
  190.5450  175.4240  138.0100 C   0  0  0  0  0  3  0  0  0  0  0  0
  189.3190  173.9410  136.4080 C   0  0  0  0  0  2  0  0  0  0  0  0
  188.1390  173.0540  136.7510 C   0  0  0  0  0  1  0  0  0  0  0  0
  188.9500  176.7530  146.0240 C   0  0  0  0  0  2  0  0  0  0  0  0
  188.8430  178.0020  146.8890 C   0  0  0  0  0  2  0  0  0  0  0  0
  187.4380  178.3400  147.1430 C   0  0  0  0  0  0  0  0  0  0  0  0
  186.2840  178.6180  147.3530 C   0  0  0  0  0  3  0  0  0  0  0  0
  1  7  1  0  0  0  0
  2 12  1  0  0  0  0
  2  6  1  0  0  0  0
  3  4  2  0  0  0  0
  3  5  1  0  0  0  0
  4 40  1  0  0  0  0
  7  6  2  0  0  0  0
  7  4  1  0  0  0  0
  8  1  1  0  0  0  0
  8 11  2  0  0  0  0
  9 10  1  0  0  0  0
  9  1  2  0  0  0  0
 10  2  2  0  0  0  0
 11  3  1  0  0  0  0
 12 13  1  1  0  0  0
 14 12  1  0  0  0  0
 15 14  1  0  0  0  0
 16 15  2  0  0  0  0
 17 15  1  0  0  0  0
 18 22  1  0  0  0  0
 18 17  1  0  0  0  0
 19 20  1  0  0  0  0
 20 18  1  0  0  0  0
 21 19  1  0  0  0  0
 21 20  1  0  0  0  0
 22 24  2  0  0  0  0
 23 22  2  0  0  0  0
 25 29  1  0  0  0  0
 25 22  1  0  0  0  0
 26 28  1  0  0  0  0
 26 30  1  0  0  0  0
 27 29  1  0  0  0  0
 28 27  1  0  0  0  0
 30 25  1  0  0  0  0
 31  9  1  0  0  0  0
 32 35  1  0  0  0  0
 33 32  2  0  0  0  0
 33 37  1  0  0  0  0
 34 36  1  0  0  0  0
 35 36  2  0  0  0  0
 36 31  1  0  0  0  0
 37 34  2  0  0  0  0
 38 39  1  0  0  0  0
 38 33  1  0  0  0  0
 40 41  1  0  0  0  0
 41 42  1  0  0  0  0
 42 43  3  0  0  0  0
M  END
>  <MODEL>
6

>  <REMARK>
 VINA RESULT:      -7.2      3.569      6.514
  Name = 
  14 active torsions:
  status: ('A' for Active; 'I' for Inactive)
    1  A    between atoms: C_1  and  C_34
    2  A    between atoms: C_1  and  C_35
    3  A    between atoms: C_2  and  C_6
    4  A    between atoms: C_2  and  C_13
    5  A    between atoms: C_3  and  N_4
    6  A    between atoms: C_3  and  C_12
    7  A    between atoms: N_4  and  S_14
    8  A    between atoms: N_4  and  C_15
    9  A    between atoms: C_5  and  C_18
   10  A    between atoms: C_6  and  C_12
   11  A    between atoms: C_11  and  S_14
   12  A    between atoms: C_18  and  C_24
   13  A    between atoms: C_19  and  C_25
   14  A    between atoms: C_21  and  C_24
                            x       y       z     vdW  Elec       q    Type
                         _______ _______ _______ _____ _____    ______ ____

>  <TORSDO>
F 14

$$$$
=
 OpenBabel11052416303D

 43 47  0  0  1  0  0  0  0  0999 V2000
  183.5670  178.8710  142.9900 C   0  0  0  0  0  0  0  0  0  0  0  0
  186.0680  178.7200  141.7150 C   0  0  0  0  0  0  0  0  0  0  0  0
  181.2140  178.9580  141.4500 C   0  0  0  0  0  0  0  0  0  0  0  0
  182.4590  178.8870  140.8030 C   0  0  0  0  0  0  0  0  0  0  0  0
  180.0330  178.9960  140.7170 O   0  0  0  0  0  1  0  0  0  0  0  0
  184.8990  178.7690  140.9570 C   0  0  0  0  0  3  0  0  0  0  0  0
  183.6420  178.8450  141.5730 C   0  0  0  0  0  0  0  0  0  0  0  0
  182.3110  178.9430  143.6080 C   0  0  0  0  0  3  0  0  0  0  0  0
  184.7500  178.8160  143.7560 C   0  0  0  0  0  0  0  0  0  0  0  0
  185.9890  178.7370  143.1130 C   0  0  0  0  0  3  0  0  0  0  0  0
  181.1460  178.9870  142.8440 C   0  0  0  0  0  3  0  0  0  0  0  0
  187.3800  178.6000  141.0080 C   0  0  1  0  0  3  0  0  0  0  0  0
  188.4250  177.9150  141.8730 C   0  0  0  0  0  1  0  0  0  0  0  0
  187.2130  177.8760  139.6800 C   0  0  0  0  0  2  0  0  0  0  0  0
  188.1620  178.4230  138.6630 C   0  0  0  0  0  0  0  0  0  0  0  0
  189.0540  179.1820  139.0050 O   0  0  0  0  0  0  0  0  0  0  0  0
  188.0530  177.9870  137.2240 C   0  0  0  0  0  2  0  0  0  0  0  0
  187.2370  176.7780  137.0120 N   0  0  0  0  0  0  0  0  0  0  0  0
  184.8920  177.4500  136.9800 C   0  0  0  0  0  2  0  0  0  0  0  0
  186.0980  177.0630  136.1410 C   0  0  0  0  0  3  0  0  0  0  0  0
  184.9900  176.0580  136.3960 C   0  0  0  0  0  2  0  0  0  0  0  0
  188.1910  175.4890  136.3260 S   0  0  0  0  0  0  0  0  0  0  0  0
  187.8270  174.1750  136.9610 O   0  0  0  0  0  0  0  0  0  0  0  0
  187.9480  175.4080  134.8430 O   0  0  0  0  0  0  0  0  0  0  0  0
  189.9200  175.8130  136.6180 C   0  0  0  0  0  3  0  0  0  0  0  0
  192.1050  175.8890  135.2720 C   0  0  0  0  0  2  0  0  0  0  0  0
  192.0600  174.8860  137.5920 C   0  0  0  0  0  2  0  0  0  0  0  0
  192.7150  175.9250  136.6700 C   0  0  0  0  0  2  0  0  0  0  0  0
  190.5950  174.5940  137.2420 C   0  0  0  0  0  2  0  0  0  0  0  0
  190.6100  176.2320  135.3110 C   0  0  0  0  0  2  0  0  0  0  0  0
  184.7240  178.8660  145.2540 C   0  0  0  0  0  2  0  0  0  0  0  0
  187.6050  178.2750  147.6460 C   0  0  0  0  0  3  0  0  0  0  0  0
  188.4520  177.4790  146.8670 C   0  0  0  0  0  0  0  0  0  0  0  0
  186.8570  177.5700  145.0460 C   0  0  0  0  0  3  0  0  0  0  0  0
  186.3890  178.7230  147.1230 C   0  0  0  0  0  3  0  0  0  0  0  0
  186.0120  178.3690  145.8220 C   0  0  0  0  0  0  0  0  0  0  0  0
  188.0740  177.1230  145.5680 C   0  0  0  0  0  3  0  0  0  0  0  0
  189.7420  176.9910  147.4300 C   0  0  0  0  0  2  0  0  0  0  0  0
  190.8340  177.0690  146.3810 C   0  0  0  0  0  1  0  0  0  0  0  0
  182.5070  178.8690  139.2990 C   0  0  0  0  0  2  0  0  0  0  0  0
  182.6670  180.2720  138.7290 C   0  0  0  0  0  2  0  0  0  0  0  0
  181.4790  180.6600  137.9610 C   0  0  0  0  0  0  0  0  0  0  0  0
  180.5030  180.9790  137.3280 C   0  0  0  0  0  3  0  0  0  0  0  0
  1  8  1  0  0  0  0
  1  9  1  0  0  0  0
  2 10  1  0  0  0  0
  3 11  1  0  0  0  0
  4  3  2  0  0  0  0
  4  7  1  0  0  0  0
  5  3  1  0  0  0  0
  6  7  1  0  0  0  0
  6  2  2  0  0  0  0
  7  1  2  0  0  0  0
  9 31  1  0  0  0  0
 10  9  2  0  0  0  0
 11  8  2  0  0  0  0
 12  2  1  0  0  0  0
 12 13  1  1  0  0  0
 14 12  1  0  0  0  0
 15 16  2  0  0  0  0
 15 14  1  0  0  0  0
 17 15  1  0  0  0  0
 18 17  1  0  0  0  0
 20 21  1  0  0  0  0
 20 19  1  0  0  0  0
 20 18  1  0  0  0  0
 21 19  1  0  0  0  0
 22 25  1  0  0  0  0
 22 23  2  0  0  0  0
 22 18  1  0  0  0  0
 24 22  2  0  0  0  0
 25 29  1  0  0  0  0
 26 30  1  0  0  0  0
 26 28  1  0  0  0  0
 28 27  1  0  0  0  0
 29 27  1  0  0  0  0
 30 25  1  0  0  0  0
 31 36  1  0  0  0  0
 33 38  1  0  0  0  0
 33 32  2  0  0  0  0
 34 37  2  0  0  0  0
 34 36  1  0  0  0  0
 35 32  1  0  0  0  0
 36 35  2  0  0  0  0
 37 33  1  0  0  0  0
 39 38  1  0  0  0  0
 40  4  1  0  0  0  0
 41 40  1  0  0  0  0
 42 41  1  0  0  0  0
 43 42  3  0  0  0  0
M  END
>  <MODEL>
7

>  <REMARK>
 VINA RESULT:      -7.1      2.391      6.476
  Name = 
  14 active torsions:
  status: ('A' for Active; 'I' for Inactive)
    1  A    between atoms: C_1  and  C_34
    2  A    between atoms: C_1  and  C_35
    3  A    between atoms: C_2  and  C_6
    4  A    between atoms: C_2  and  C_13
    5  A    between atoms: C_3  and  N_4
    6  A    between atoms: C_3  and  C_12
    7  A    between atoms: N_4  and  S_14
    8  A    between atoms: N_4  and  C_15
    9  A    between atoms: C_5  and  C_18
   10  A    between atoms: C_6  and  C_12
   11  A    between atoms: C_11  and  S_14
   12  A    between atoms: C_18  and  C_24
   13  A    between atoms: C_19  and  C_25
   14  A    between atoms: C_21  and  C_24
                            x       y       z     vdW  Elec       q    Type
                         _______ _______ _______ _____ _____    ______ ____

>  <TORSDO>
F 14

$$$$
=
 OpenBabel11052416303D

 43 47  0  0  1  0  0  0  0  0999 V2000
  189.6950  177.4350  143.5730 C   0  0  0  0  0  0  0  0  0  0  0  0
  187.0380  177.9470  142.8100 C   0  0  0  0  0  0  0  0  0  0  0  0
  190.2970  176.8840  146.2650 C   0  0  0  0  0  0  0  0  0  0  0  0
  188.9660  177.1420  145.8950 C   0  0  0  0  0  0  0  0  0  0  0  0
  190.6250  176.6010  147.5860 O   0  0  0  0  0  1  0  0  0  0  0  0
  187.3430  177.6790  144.1440 C   0  0  0  0  0  3  0  0  0  0  0  0
  188.6610  177.4210  144.5450 C   0  0  0  0  0  0  0  0  0  0  0  0
  191.0140  177.1750  143.9710 C   0  0  0  0  0  3  0  0  0  0  0  0
  189.3850  177.7020  142.2230 C   0  0  0  0  0  0  0  0  0  0  0  0
  188.0600  177.9520  141.8530 C   0  0  0  0  0  3  0  0  0  0  0  0
  191.3100  176.9030  145.3050 C   0  0  0  0  0  3  0  0  0  0  0  0
  185.6100  178.1760  142.4310 C   0  0  1  0  0  3  0  0  0  0  0  0
  184.9280  179.1580  143.3690 C   0  0  0  0  0  1  0  0  0  0  0  0
  185.5030  178.6410  140.9860 C   0  0  0  0  0  2  0  0  0  0  0  0
  184.2380  178.1400  140.3670 C   0  0  0  0  0  0  0  0  0  0  0  0
  183.4400  177.5040  141.0370 O   0  0  0  0  0  0  0  0  0  0  0  0
  183.9210  178.4740  138.9320 C   0  0  0  0  0  2  0  0  0  0  0  0
  182.4970  178.3400  138.5740 N   0  0  0  0  0  0  0  0  0  0  0  0
  181.2870  180.2970  139.3830 C   0  0  0  0  0  2  0  0  0  0  0  0
  181.9340  179.6300  138.1810 C   0  0  0  0  0  3  0  0  0  0  0  0
  180.4260  179.6060  138.3490 C   0  0  0  0  0  2  0  0  0  0  0  0
  182.2820  177.1880  137.2810 S   0  0  0  0  0  0  0  0  0  0  0  0
  181.0690  176.3360  137.5380 O   0  0  0  0  0  0  0  0  0  0  0  0
  182.1100  177.9140  135.9750 O   0  0  0  0  0  0  0  0  0  0  0  0
  183.7180  176.1360  137.1810 C   0  0  0  0  0  3  0  0  0  0  0  0
  185.0740  174.9180  135.3740 C   0  0  0  0  0  2  0  0  0  0  0  0
  184.6040  173.8060  137.5940 C   0  0  0  0  0  2  0  0  0  0  0  0
  185.6860  174.2360  136.5930 C   0  0  0  0  0  2  0  0  0  0  0  0
  183.3610  174.7060  137.5790 C   0  0  0  0  0  2  0  0  0  0  0  0
  184.3230  176.1950  135.7710 C   0  0  0  0  0  2  0  0  0  0  0  0
  190.4450  177.7540  141.1640 C   0  0  0  0  0  2  0  0  0  0  0  0
  188.5110  178.4400  137.9760 C   0  0  0  0  0  3  0  0  0  0  0  0
  188.6790  177.2350  137.2850 C   0  0  0  0  0  0  0  0  0  0  0  0
  190.0170  176.3780  139.1150 C   0  0  0  0  0  3  0  0  0  0  0  0
  189.0900  178.6120  139.2360 C   0  0  0  0  0  3  0  0  0  0  0  0
  189.8460  177.5810  139.8080 C   0  0  0  0  0  0  0  0  0  0  0  0
  189.4380  176.2050  137.8540 C   0  0  0  0  0  3  0  0  0  0  0  0
  188.0740  177.0580  135.9360 C   0  0  0  0  0  2  0  0  0  0  0  0
  187.2050  178.2510  135.5910 C   0  0  0  0  0  1  0  0  0  0  0  0
  187.8930  177.1280  146.9500 C   0  0  0  0  0  2  0  0  0  0  0  0
  187.3540  178.5270  147.2160 C   0  0  0  0  0  2  0  0  0  0  0  0
  185.9090  178.5830  146.9700 C   0  0  0  0  0  0  0  0  0  0  0  0
  184.7210  178.6280  146.7670 C   0  0  0  0  0  3  0  0  0  0  0  0
  1  8  1  0  0  0  0
  1  7  1  0  0  0  0
  2  6  1  0  0  0  0
  3  5  1  0  0  0  0
  4  3  2  0  0  0  0
  4 40  1  0  0  0  0
  6  7  2  0  0  0  0
  7  4  1  0  0  0  0
  8 11  2  0  0  0  0
  9  1  2  0  0  0  0
 10  9  1  0  0  0  0
 10  2  2  0  0  0  0
 11  3  1  0  0  0  0
 12  2  1  0  0  0  0
 12 13  1  1  0  0  0
 14 12  1  0  0  0  0
 15 14  1  0  0  0  0
 15 16  2  0  0  0  0
 17 15  1  0  0  0  0
 18 17  1  0  0  0  0
 20 21  1  0  0  0  0
 20 18  1  0  0  0  0
 20 19  1  0  0  0  0
 21 19  1  0  0  0  0
 22 23  2  0  0  0  0
 22 18  1  0  0  0  0
 24 22  2  0  0  0  0
 25 22  1  0  0  0  0
 25 29  1  0  0  0  0
 26 30  1  0  0  0  0
 26 28  1  0  0  0  0
 28 27  1  0  0  0  0
 29 27  1  0  0  0  0
 30 25  1  0  0  0  0
 31  9  1  0  0  0  0
 32 35  1  0  0  0  0
 33 37  1  0  0  0  0
 33 32  2  0  0  0  0
 34 36  1  0  0  0  0
 35 36  2  0  0  0  0
 36 31  1  0  0  0  0
 37 34  2  0  0  0  0
 38 33  1  0  0  0  0
 39 38  1  0  0  0  0
 40 41  1  0  0  0  0
 42 41  1  0  0  0  0
 43 42  3  0  0  0  0
M  END
>  <MODEL>
8

>  <REMARK>
 VINA RESULT:      -7.0      3.186      5.607
  Name = 
  14 active torsions:
  status: ('A' for Active; 'I' for Inactive)
    1  A    between atoms: C_1  and  C_34
    2  A    between atoms: C_1  and  C_35
    3  A    between atoms: C_2  and  C_6
    4  A    between atoms: C_2  and  C_13
    5  A    between atoms: C_3  and  N_4
    6  A    between atoms: C_3  and  C_12
    7  A    between atoms: N_4  and  S_14
    8  A    between atoms: N_4  and  C_15
    9  A    between atoms: C_5  and  C_18
   10  A    between atoms: C_6  and  C_12
   11  A    between atoms: C_11  and  S_14
   12  A    between atoms: C_18  and  C_24
   13  A    between atoms: C_19  and  C_25
   14  A    between atoms: C_21  and  C_24
                            x       y       z     vdW  Elec       q    Type
                         _______ _______ _______ _____ _____    ______ ____

>  <TORSDO>
F 14

$$$$
=
 OpenBabel11052416303D

 43 47  0  0  1  0  0  0  0  0999 V2000
  185.7050  178.4150  145.0540 C   0  0  0  0  0  0  0  0  0  0  0  0
  186.3000  178.2500  142.3120 C   0  0  0  0  0  0  0  0  0  0  0  0
  187.5700  177.4930  146.9490 C   0  0  0  0  0  0  0  0  0  0  0  0
  187.8760  177.4030  145.5800 C   0  0  0  0  0  0  0  0  0  0  0  0
  188.4740  177.0520  147.9090 O   0  0  0  0  0  1  0  0  0  0  0  0
  187.2180  177.7900  143.2550 C   0  0  0  0  0  3  0  0  0  0  0  0
  186.9410  177.8630  144.6270 C   0  0  0  0  0  0  0  0  0  0  0  0
  185.4270  178.4910  146.4260 C   0  0  0  0  0  3  0  0  0  0  0  0
  184.7790  178.8850  144.0990 C   0  0  0  0  0  0  0  0  0  0  0  0
  185.0860  178.8020  142.7380 C   0  0  0  0  0  3  0  0  0  0  0  0
  186.3520  178.0330  147.3630 C   0  0  0  0  0  3  0  0  0  0  0  0
  186.6630  178.1860  140.8630 C   0  0  1  0  0  3  0  0  0  0  0  0
  185.6260  178.8760  139.9920 C   0  0  0  0  0  1  0  0  0  0  0  0
  188.0480  178.7710  140.6260 C   0  0  0  0  0  2  0  0  0  0  0  0
  188.6150  178.2690  139.3380 C   0  0  0  0  0  0  0  0  0  0  0  0
  188.5920  178.9770  138.3430 O   0  0  0  0  0  0  0  0  0  0  0  0
  189.2710  176.9130  139.2840 C   0  0  0  0  0  2  0  0  0  0  0  0
  190.6430  176.9190  138.7470 N   0  0  0  0  0  0  0  0  0  0  0  0
  191.6780  177.5120  140.8750 C   0  0  0  0  0  2  0  0  0  0  0  0
  191.6020  176.4820  139.7600 C   0  0  0  0  0  3  0  0  0  0  0  0
  192.7640  177.4570  139.8230 C   0  0  0  0  0  2  0  0  0  0  0  0
  190.7700  175.8960  137.3390 S   0  0  0  0  0  0  0  0  0  0  0  0
  190.3540  174.4910  137.6770 O   0  0  0  0  0  0  0  0  0  0  0  0
  189.8870  176.4250  136.2430 O   0  0  0  0  0  0  0  0  0  0  0  0
  192.4600  175.8790  136.7710 C   0  0  0  0  0  3  0  0  0  0  0  0
  193.7440  175.3920  134.6020 C   0  0  0  0  0  2  0  0  0  0  0  0
  194.6460  174.6120  136.8300 C   0  0  0  0  0  2  0  0  0  0  0  0
  194.9360  175.4140  135.5530 C   0  0  0  0  0  2  0  0  0  0  0  0
  193.1630  174.6010  137.2240 C   0  0  0  0  0  2  0  0  0  0  0  0
  192.5100  176.0390  135.2450 C   0  0  0  0  0  2  0  0  0  0  0  0
  183.4510  179.4520  144.5010 C   0  0  0  0  0  2  0  0  0  0  0  0
  180.1330  178.2340  143.1270 C   0  0  0  0  0  3  0  0  0  0  0  0
  180.4040  178.1810  141.7560 C   0  0  0  0  0  0  0  0  0  0  0  0
  182.6540  178.9780  142.1740 C   0  0  0  0  0  3  0  0  0  0  0  0
  181.1230  178.6530  144.0210 C   0  0  0  0  0  3  0  0  0  0  0  0
  182.3850  179.0270  143.5450 C   0  0  0  0  0  0  0  0  0  0  0  0
  181.6650  178.5590  141.2790 C   0  0  0  0  0  3  0  0  0  0  0  0
  179.3450  177.7490  140.8030 C   0  0  0  0  0  2  0  0  0  0  0  0
  179.8460  176.6030  139.9460 C   0  0  0  0  0  1  0  0  0  0  0  0
  189.1910  176.8060  145.1570 C   0  0  0  0  0  2  0  0  0  0  0  0
  190.3660  177.6300  145.6660 C   0  0  0  0  0  2  0  0  0  0  0  0
  190.6950  178.7040  144.7220 C   0  0  0  0  0  0  0  0  0  0  0  0
  190.9660  179.5860  143.9450 C   0  0  0  0  0  3  0  0  0  0  0  0
  1  8  1  0  0  0  0
  2 10  2  0  0  0  0
  2  6  1  0  0  0  0
  3 11  1  0  0  0  0
  3  5  1  0  0  0  0
  4  3  2  0  0  0  0
  6  7  2  0  0  0  0
  7  1  1  0  0  0  0
  7  4  1  0  0  0  0
  8 11  2  0  0  0  0
  9 31  1  0  0  0  0
  9  1  2  0  0  0  0
 10  9  1  0  0  0  0
 12 13  1  6  0  0  0
 12  2  1  0  0  0  0
 14 12  1  0  0  0  0
 15 14  1  0  0  0  0
 16 15  2  0  0  0  0
 17 15  1  0  0  0  0
 18 17  1  0  0  0  0
 18 20  1  0  0  0  0
 20 21  1  0  0  0  0
 20 19  1  0  0  0  0
 21 19  1  0  0  0  0
 22 23  2  0  0  0  0
 22 18  1  0  0  0  0
 24 22  2  0  0  0  0
 25 29  1  0  0  0  0
 25 22  1  0  0  0  0
 26 30  1  0  0  0  0
 26 28  1  0  0  0  0
 27 29  1  0  0  0  0
 28 27  1  0  0  0  0
 30 25  1  0  0  0  0
 32 35  1  0  0  0  0
 33 32  2  0  0  0  0
 34 36  1  0  0  0  0
 36 35  2  0  0  0  0
 36 31  1  0  0  0  0
 37 33  1  0  0  0  0
 37 34  2  0  0  0  0
 38 33  1  0  0  0  0
 39 38  1  0  0  0  0
 40  4  1  0  0  0  0
 40 41  1  0  0  0  0
 42 41  1  0  0  0  0
 43 42  3  0  0  0  0
M  END
>  <MODEL>
9

>  <REMARK>
 VINA RESULT:      -7.0      2.778      4.305
  Name = 
  14 active torsions:
  status: ('A' for Active; 'I' for Inactive)
    1  A    between atoms: C_1  and  C_34
    2  A    between atoms: C_1  and  C_35
    3  A    between atoms: C_2  and  C_6
    4  A    between atoms: C_2  and  C_13
    5  A    between atoms: C_3  and  N_4
    6  A    between atoms: C_3  and  C_12
    7  A    between atoms: N_4  and  S_14
    8  A    between atoms: N_4  and  C_15
    9  A    between atoms: C_5  and  C_18
   10  A    between atoms: C_6  and  C_12
   11  A    between atoms: C_11  and  S_14
   12  A    between atoms: C_18  and  C_24
   13  A    between atoms: C_19  and  C_25
   14  A    between atoms: C_21  and  C_24
                            x       y       z     vdW  Elec       q    Type
                         _______ _______ _______ _____ _____    ______ ____

>  <TORSDO>
F 14

$$$$
