=
 OpenBabel11052413283D

 28 31  0  0  1  0  0  0  0  0999 V2000
  190.3140  176.7240  143.9760 C   0  0  1  0  0  3  0  0  0  0  0  0
  185.4450  178.1600  142.9410 C   0  0  0  0  0  3  0  0  0  0  0  0
  188.2640  177.5630  148.4930 C   0  0  0  0  0  1  0  0  0  0  0  0
  184.4770  178.5520  145.1350 C   0  0  0  0  0  0  0  0  0  0  0  0
  186.8100  177.8440  144.9620 C   0  0  0  0  0  0  0  0  0  0  0  0
  183.1370  178.8630  143.1420 C   0  0  0  0  0  0  0  0  0  0  0  0
  185.5880  178.1820  144.3390 C   0  0  0  0  0  0  0  0  0  0  0  0
  185.7950  178.2480  147.1400 C   0  0  0  0  0  3  0  0  0  0  0  0
  183.2620  178.8890  144.5330 C   0  0  0  0  0  3  0  0  0  0  0  0
  189.2410  177.1800  146.2210 C   0  0  0  0  0  0  0  0  0  0  0  0
  187.9280  177.4710  144.2030 C   0  0  0  0  0  3  0  0  0  0  0  0
  184.5890  178.5820  146.5240 C   0  0  0  0  0  3  0  0  0  0  0  0
  191.6690  176.7290  146.1100 C   0  0  0  0  0  2  0  0  0  0  0  0
  188.1310  177.5390  147.0010 C   0  0  0  0  0  0  0  0  0  0  0  0
  190.4500  176.8330  146.8410 O   0  0  0  0  0  0  0  0  0  0  0  0
  181.9280  179.1990  142.5490 O   0  0  0  0  0  1  0  0  0  0  0  0
  184.2260  178.4990  142.3470 C   0  0  0  0  0  3  0  0  0  0  0  0
  186.9130  177.8770  146.3770 C   0  0  0  0  0  0  0  0  0  0  0  0
  191.4340  176.0380  144.7740 C   0  0  0  0  0  2  0  0  0  0  0  0
  189.1370  177.1460  144.8190 C   0  0  0  0  0  0  0  0  0  0  0  0
  190.7800  177.7830  142.9580 C   0  0  2  0  0  3  0  0  0  0  0  0
  191.0090  179.1540  143.5720 C   0  0  0  0  0  1  0  0  0  0  0  0
  190.0760  177.8260  141.5930 C   0  0  0  0  0  2  0  0  0  0  0  0
  190.2200  176.6840  139.3480 C   0  0  0  0  0  0  0  0  0  0  0  0
  192.2860  177.4660  140.5050 C   0  0  0  0  0  1  0  0  0  0  0  0
  190.8530  177.2200  140.5170 N   0  0  0  0  0  0  0  0  0  0  0  0
  188.8540  176.8400  139.1490 O   0  0  0  0  0  1  0  0  0  0  0  0
  190.9020  176.0810  138.4760 O   0  0  0  0  0  0  0  0  0  0  0  0
  1 21  1  1  0  0  0
  1 19  1  0  0  0  0
  1 20  1  0  0  0  0
  2  7  1  0  0  0  0
  4 12  1  0  0  0  0
  5 18  1  0  0  0  0
  6  9  2  0  0  0  0
  7  5  1  0  0  0  0
  7  4  2  0  0  0  0
  9  4  1  0  0  0  0
 10 15  1  0  0  0  0
 10 14  1  0  0  0  0
 11 20  1  0  0  0  0
 11  5  2  0  0  0  0
 12  8  2  0  0  0  0
 13 15  1  0  0  0  0
 14  3  1  0  0  0  0
 16  6  1  0  0  0  0
 17  2  2  0  0  0  0
 17  6  1  0  0  0  0
 18 14  2  0  0  0  0
 18  8  1  0  0  0  0
 19 13  1  0  0  0  0
 20 10  2  0  0  0  0
 21 22  1  1  0  0  0
 23 21  1  0  0  0  0
 24 26  1  0  0  0  0
 25 26  1  0  0  0  0
 26 23  1  0  0  0  0
 27 24  1  0  0  0  0
 28 24  2  0  0  0  0
M  END
>  <MODEL>
1

>  <REMARK>
 VINA RESULT:     -11.8      0.000      0.000
  Name = 
  3 active torsions:
  status: ('A' for Active; 'I' for Inactive)
    1  A    between atoms: C_1  and  C_2
    2  A    between atoms: C_2  and  C_3
    3  A    between atoms: C_3  and  N_11
                            x       y       z     vdW  Elec       q    Type
                         _______ _______ _______ _____ _____    ______ ____

>  <TORSDO>
F 3

$$$$
=
 OpenBabel11052413283D

 28 31  0  0  1  0  0  0  0  0999 V2000
  190.0880  176.2540  143.4330 C   0  0  1  0  0  3  0  0  0  0  0  0
  185.2150  177.9830  143.1100 C   0  0  0  0  0  3  0  0  0  0  0  0
  188.9920  177.7950  148.0940 C   0  0  0  0  0  1  0  0  0  0  0  0
  184.7090  178.7130  145.3720 C   0  0  0  0  0  0  0  0  0  0  0  0
  186.9160  177.7870  144.8760 C   0  0  0  0  0  0  0  0  0  0  0  0
  183.0380  178.9050  143.6290 C   0  0  0  0  0  0  0  0  0  0  0  0
  185.6220  178.1560  144.4440 C   0  0  0  0  0  0  0  0  0  0  0  0
  186.3600  178.5320  147.1290 C   0  0  0  0  0  3  0  0  0  0  0  0
  183.4260  179.0840  144.9590 C   0  0  0  0  0  3  0  0  0  0  0  0
  189.4930  177.0630  145.7540 C   0  0  0  0  0  0  0  0  0  0  0  0
  187.8430  177.2300  143.9840 C   0  0  0  0  0  3  0  0  0  0  0  0
  185.0840  178.8970  146.7020 C   0  0  0  0  0  3  0  0  0  0  0  0
  191.8210  176.3900  145.2680 C   0  0  0  0  0  2  0  0  0  0  0  0
  188.5770  177.6080  146.6670 C   0  0  0  0  0  0  0  0  0  0  0  0
  190.7720  176.6850  146.1860 O   0  0  0  0  0  0  0  0  0  0  0  0
  181.7630  179.2750  143.2240 O   0  0  0  0  0  1  0  0  0  0  0  0
  183.9310  178.3570  142.7060 C   0  0  0  0  0  3  0  0  0  0  0  0
  187.2870  177.9770  146.2320 C   0  0  0  0  0  0  0  0  0  0  0  0
  191.2920  175.5700  144.0990 C   0  0  0  0  0  2  0  0  0  0  0  0
  189.1230  176.8740  144.4100 C   0  0  0  0  0  0  0  0  0  0  0  0
  190.4210  177.1410  142.2170 C   0  0  2  0  0  3  0  0  0  0  0  0
  190.3980  178.6280  142.5270 C   0  0  0  0  0  1  0  0  0  0  0  0
  189.7790  176.7800  140.8680 C   0  0  0  0  0  2  0  0  0  0  0  0
  189.5070  178.3000  138.8720 C   0  0  0  0  0  0  0  0  0  0  0  0
  187.9150  178.4280  140.7870 C   0  0  0  0  0  1  0  0  0  0  0  0
  189.1430  177.9130  140.2040 N   0  0  0  0  0  0  0  0  0  0  0  0
  190.3900  177.5270  138.1280 O   0  0  0  0  0  0  0  0  0  0  0  0
  189.0130  179.3380  138.3550 O   0  0  0  0  0  1  0  0  0  0  0  0
  1 21  1  6  0  0  0
  1 19  1  0  0  0  0
  1 20  1  0  0  0  0
  2  7  1  0  0  0  0
  4 12  1  0  0  0  0
  5 18  1  0  0  0  0
  6  9  2  0  0  0  0
  7  5  1  0  0  0  0
  7  4  2  0  0  0  0
  9  4  1  0  0  0  0
 10 15  1  0  0  0  0
 10 14  1  0  0  0  0
 11 20  1  0  0  0  0
 11  5  2  0  0  0  0
 12  8  2  0  0  0  0
 13 15  1  0  0  0  0
 14  3  1  0  0  0  0
 16  6  1  0  0  0  0
 17  2  2  0  0  0  0
 17  6  1  0  0  0  0
 18 14  2  0  0  0  0
 18  8  1  0  0  0  0
 19 13  1  0  0  0  0
 20 10  2  0  0  0  0
 21 22  1  1  0  0  0
 23 21  1  0  0  0  0
 24 26  1  0  0  0  0
 26 25  1  0  0  0  0
 26 23  1  0  0  0  0
 27 24  2  0  0  0  0
 28 24  1  0  0  0  0
M  END
>  <MODEL>
2

>  <REMARK>
 VINA RESULT:     -11.1      1.071      1.419
  Name = 
  3 active torsions:
  status: ('A' for Active; 'I' for Inactive)
    1  A    between atoms: C_1  and  C_2
    2  A    between atoms: C_2  and  C_3
    3  A    between atoms: C_3  and  N_11
                            x       y       z     vdW  Elec       q    Type
                         _______ _______ _______ _____ _____    ______ ____

>  <TORSDO>
F 3

$$$$
=
 OpenBabel11052413283D

 28 31  0  0  1  0  0  0  0  0999 V2000
  189.9260  176.1370  142.8740 C   0  0  1  0  0  3  0  0  0  0  0  0
  185.0900  177.9800  142.6500 C   0  0  0  0  0  3  0  0  0  0  0  0
  188.9490  177.6720  147.5640 C   0  0  0  0  0  1  0  0  0  0  0  0
  184.6410  178.7060  144.9250 C   0  0  0  0  0  0  0  0  0  0  0  0
  186.8160  177.7320  144.3840 C   0  0  0  0  0  0  0  0  0  0  0  0
  182.9440  178.9480  143.2140 C   0  0  0  0  0  0  0  0  0  0  0  0
  185.5240  178.1340  143.9780 C   0  0  0  0  0  0  0  0  0  0  0  0
  186.3190  178.4750  146.6510 C   0  0  0  0  0  3  0  0  0  0  0  0
  183.3600  179.1090  144.5370 C   0  0  0  0  0  3  0  0  0  0  0  0
  189.3920  176.9440  145.2110 C   0  0  0  0  0  0  0  0  0  0  0  0
  187.7150  177.1610  143.4720 C   0  0  0  0  0  3  0  0  0  0  0  0
  185.0440  178.8720  146.2490 C   0  0  0  0  0  3  0  0  0  0  0  0
  191.6950  176.2200  144.6790 C   0  0  0  0  0  2  0  0  0  0  0  0
  188.5040  177.5040  146.1430 C   0  0  0  0  0  0  0  0  0  0  0  0
  190.6690  176.5340  145.6170 O   0  0  0  0  0  0  0  0  0  0  0  0
  181.6710  179.3500  142.8340 O   0  0  0  0  0  1  0  0  0  0  0  0
  183.8070  178.3850  142.2710 C   0  0  0  0  0  3  0  0  0  0  0  0
  187.2160  177.9050  145.7350 C   0  0  0  0  0  0  0  0  0  0  0  0
  191.1260  175.4210  143.5140 C   0  0  0  0  0  2  0  0  0  0  0  0
  188.9930  176.7720  143.8730 C   0  0  0  0  0  0  0  0  0  0  0  0
  190.2580  177.0240  141.6580 C   0  0  2  0  0  3  0  0  0  0  0  0
  191.5120  177.8610  141.8430 C   0  0  0  0  0  1  0  0  0  0  0  0
  189.1020  177.7810  140.9850 C   0  0  0  0  0  2  0  0  0  0  0  0
  187.6790  177.7640  138.9020 C   0  0  0  0  0  0  0  0  0  0  0  0
  190.0080  176.8740  138.8510 C   0  0  0  0  0  1  0  0  0  0  0  0
  188.8710  177.3810  139.6020 N   0  0  0  0  0  0  0  0  0  0  0  0
  186.7660  178.6350  139.4840 O   0  0  0  0  0  1  0  0  0  0  0  0
  187.4560  177.3280  137.7410 O   0  0  0  0  0  0  0  0  0  0  0  0
  1 21  1  6  0  0  0
  1 19  1  0  0  0  0
  1 20  1  0  0  0  0
  2  7  1  0  0  0  0
  4 12  1  0  0  0  0
  5 18  1  0  0  0  0
  6  9  2  0  0  0  0
  7  5  1  0  0  0  0
  7  4  2  0  0  0  0
  9  4  1  0  0  0  0
 10 15  1  0  0  0  0
 10 14  1  0  0  0  0
 11 20  1  0  0  0  0
 11  5  2  0  0  0  0
 12  8  2  0  0  0  0
 13 15  1  0  0  0  0
 14  3  1  0  0  0  0
 16  6  1  0  0  0  0
 17  2  2  0  0  0  0
 17  6  1  0  0  0  0
 18 14  2  0  0  0  0
 18  8  1  0  0  0  0
 19 13  1  0  0  0  0
 20 10  2  0  0  0  0
 21 22  1  1  0  0  0
 23 21  1  0  0  0  0
 24 27  1  0  0  0  0
 24 26  1  0  0  0  0
 25 26  1  0  0  0  0
 26 23  1  0  0  0  0
 28 24  2  0  0  0  0
M  END
>  <MODEL>
3

>  <REMARK>
 VINA RESULT:     -10.8      1.275      1.545
  Name = 
  3 active torsions:
  status: ('A' for Active; 'I' for Inactive)
    1  A    between atoms: C_1  and  C_2
    2  A    between atoms: C_2  and  C_3
    3  A    between atoms: C_3  and  N_11
                            x       y       z     vdW  Elec       q    Type
                         _______ _______ _______ _____ _____    ______ ____

>  <TORSDO>
F 3

$$$$
=
 OpenBabel11052413283D

 28 31  0  0  1  0  0  0  0  0999 V2000
  189.4620  177.0290  143.8810 C   0  0  1  0  0  3  0  0  0  0  0  0
  184.7570  178.2630  142.1000 C   0  0  0  0  0  3  0  0  0  0  0  0
  186.8120  178.1520  148.0070 C   0  0  0  0  0  1  0  0  0  0  0  0
  183.4970  178.7930  144.1090 C   0  0  0  0  0  0  0  0  0  0  0  0
  185.8420  178.1320  144.3030 C   0  0  0  0  0  0  0  0  0  0  0  0
  182.4330  178.9210  141.9370 C   0  0  0  0  0  0  0  0  0  0  0  0
  184.7100  178.3920  143.4990 C   0  0  0  0  0  0  0  0  0  0  0  0
  184.5370  178.6720  146.2890 C   0  0  0  0  0  3  0  0  0  0  0  0
  182.3690  179.0550  143.3260 C   0  0  0  0  0  3  0  0  0  0  0  0
  188.0910  177.6240  145.9220 C   0  0  0  0  0  0  0  0  0  0  0  0
  187.0580  177.7310  143.7310 C   0  0  0  0  0  3  0  0  0  0  0  0
  183.4210  178.9300  145.4950 C   0  0  0  0  0  3  0  0  0  0  0  0
  190.5180  177.2260  146.1700 C   0  0  0  0  0  2  0  0  0  0  0  0
  186.8810  178.0130  146.5170 C   0  0  0  0  0  0  0  0  0  0  0  0
  189.2110  177.3540  146.7210 O   0  0  0  0  0  0  0  0  0  0  0  0
  181.3090  179.1820  141.1650 O   0  0  0  0  0  1  0  0  0  0  0  0
  183.6240  178.5260  141.3250 C   0  0  0  0  0  3  0  0  0  0  0  0
  185.7530  178.2730  145.7120 C   0  0  0  0  0  0  0  0  0  0  0  0
  190.4740  176.4320  144.8710 C   0  0  0  0  0  2  0  0  0  0  0  0
  188.1770  177.4830  144.5250 C   0  0  0  0  0  0  0  0  0  0  0  0
  190.0460  178.0200  142.8560 C   0  0  2  0  0  3  0  0  0  0  0  0
  190.7310  179.2170  143.4920 C   0  0  0  0  0  1  0  0  0  0  0  0
  189.1860  178.3770  141.6330 C   0  0  0  0  0  2  0  0  0  0  0  0
  188.5350  177.5320  139.3460 C   0  0  0  0  0  0  0  0  0  0  0  0
  190.6540  176.7730  140.4190 C   0  0  0  0  0  1  0  0  0  0  0  0
  189.3870  177.4820  140.4980 N   0  0  0  0  0  0  0  0  0  0  0  0
  187.5690  178.5240  139.2240 O   0  0  0  0  0  1  0  0  0  0  0  0
  188.6680  176.6870  138.4200 O   0  0  0  0  0  0  0  0  0  0  0  0
  1 21  1  1  0  0  0
  1 20  1  0  0  0  0
  1 19  1  0  0  0  0
  2  7  1  0  0  0  0
  4 12  1  0  0  0  0
  5 18  1  0  0  0  0
  6  9  2  0  0  0  0
  7  4  2  0  0  0  0
  7  5  1  0  0  0  0
  9  4  1  0  0  0  0
 10 14  1  0  0  0  0
 10 15  1  0  0  0  0
 11  5  2  0  0  0  0
 11 20  1  0  0  0  0
 12  8  2  0  0  0  0
 13 15  1  0  0  0  0
 14  3  1  0  0  0  0
 16  6  1  0  0  0  0
 17  6  1  0  0  0  0
 17  2  2  0  0  0  0
 18  8  1  0  0  0  0
 18 14  2  0  0  0  0
 19 13  1  0  0  0  0
 20 10  2  0  0  0  0
 21 22  1  1  0  0  0
 23 21  1  0  0  0  0
 24 26  1  0  0  0  0
 25 26  1  0  0  0  0
 26 23  1  0  0  0  0
 27 24  1  0  0  0  0
 28 24  2  0  0  0  0
M  END
>  <MODEL>
4

>  <REMARK>
 VINA RESULT:     -10.3      1.126      1.408
  Name = 
  3 active torsions:
  status: ('A' for Active; 'I' for Inactive)
    1  A    between atoms: C_1  and  C_2
    2  A    between atoms: C_2  and  C_3
    3  A    between atoms: C_3  and  N_11
                            x       y       z     vdW  Elec       q    Type
                         _______ _______ _______ _____ _____    ______ ____

>  <TORSDO>
F 3

$$$$
=
 OpenBabel11052413283D

 28 31  0  0  1  0  0  0  0  0999 V2000
  189.2630  178.2040  139.3940 C   0  0  1  0  0  3  0  0  0  0  0  0
  190.9230  177.2440  144.2060 C   0  0  0  0  0  3  0  0  0  0  0  0
  185.1050  178.3970  142.2190 C   0  0  0  0  0  1  0  0  0  0  0  0
  188.9010  177.3490  145.5490 C   0  0  0  0  0  0  0  0  0  0  0  0
  188.7600  177.7180  143.1370 C   0  0  0  0  0  0  0  0  0  0  0  0
  191.0340  176.8820  146.5970 C   0  0  0  0  0  0  0  0  0  0  0  0
  189.5340  177.4380  144.2850 C   0  0  0  0  0  0  0  0  0  0  0  0
  186.7600  177.8140  144.5250 C   0  0  0  0  0  3  0  0  0  0  0  0
  189.6530  177.0730  146.6940 C   0  0  0  0  0  3  0  0  0  0  0  0
  187.2000  178.2690  140.8560 C   0  0  0  0  0  0  0  0  0  0  0  0
  189.3550  177.8140  141.8710 C   0  0  0  0  0  3  0  0  0  0  0  0
  187.5240  177.5370  145.6580 C   0  0  0  0  0  3  0  0  0  0  0  0
  186.9450  178.3840  138.4000 C   0  0  0  0  0  2  0  0  0  0  0  0
  186.5850  178.1880  142.1150 C   0  0  0  0  0  0  0  0  0  0  0  0
  186.4340  178.5590  139.7190 O   0  0  0  0  0  0  0  0  0  0  0  0
  191.7760  176.6080  147.7370 O   0  0  0  0  0  1  0  0  0  0  0  0
  191.6680  176.9670  145.3560 C   0  0  0  0  0  3  0  0  0  0  0  0
  187.3590  177.9080  143.2590 C   0  0  0  0  0  0  0  0  0  0  0  0
  188.3870  178.8670  138.3190 C   0  0  0  0  0  2  0  0  0  0  0  0
  188.5890  178.0820  140.7370 C   0  0  0  0  0  0  0  0  0  0  0  0
  190.0200  176.9400  138.9430 C   0  0  2  0  0  3  0  0  0  0  0  0
  191.3920  176.7970  139.5790 C   0  0  0  0  0  1  0  0  0  0  0  0
  189.9890  176.5790  137.4490 C   0  0  0  0  0  2  0  0  0  0  0  0
  190.0080  174.0700  137.1830 C   0  0  0  0  0  0  0  0  0  0  0  0
  187.8530  175.3250  137.1990 C   0  0  0  0  0  1  0  0  0  0  0  0
  189.3070  175.3210  137.1680 N   0  0  0  0  0  0  0  0  0  0  0  0
  191.3350  174.0080  137.5890 O   0  0  0  0  0  1  0  0  0  0  0  0
  189.4200  173.0080  136.8440 O   0  0  0  0  0  0  0  0  0  0  0  0
  1 21  1  6  0  0  0
  1 20  1  0  0  0  0
  2  7  2  0  0  0  0
  2 17  1  0  0  0  0
  4 12  1  0  0  0  0
  4  9  2  0  0  0  0
  5 18  1  0  0  0  0
  5  7  1  0  0  0  0
  6  9  1  0  0  0  0
  6 16  1  0  0  0  0
  7  4  1  0  0  0  0
  8 12  2  0  0  0  0
 10 14  1  0  0  0  0
 11  5  2  0  0  0  0
 13 15  1  0  0  0  0
 14  3  1  0  0  0  0
 14 18  2  0  0  0  0
 15 10  1  0  0  0  0
 17  6  2  0  0  0  0
 18  8  1  0  0  0  0
 19 13  1  0  0  0  0
 19  1  1  0  0  0  0
 20 10  2  0  0  0  0
 20 11  1  0  0  0  0
 21 22  1  6  0  0  0
 23 21  1  0  0  0  0
 24 27  1  0  0  0  0
 26 24  1  0  0  0  0
 26 25  1  0  0  0  0
 26 23  1  0  0  0  0
 28 24  2  0  0  0  0
M  END
>  <MODEL>
5

>  <REMARK>
 VINA RESULT:      -9.5      2.123      5.844
  Name = 
  3 active torsions:
  status: ('A' for Active; 'I' for Inactive)
    1  A    between atoms: C_1  and  C_2
    2  A    between atoms: C_2  and  C_3
    3  A    between atoms: C_3  and  N_11
                            x       y       z     vdW  Elec       q    Type
                         _______ _______ _______ _____ _____    ______ ____

>  <TORSDO>
F 3

$$$$
=
 OpenBabel11052413283D

 28 31  0  0  1  0  0  0  0  0999 V2000
  184.5690  179.0930  139.4710 C   0  0  1  0  0  3  0  0  0  0  0  0
  188.6480  177.8190  142.4000 C   0  0  0  0  0  3  0  0  0  0  0  0
  182.7020  178.7170  144.1270 C   0  0  0  0  0  1  0  0  0  0  0  0
  187.7220  177.6510  144.6400 C   0  0  0  0  0  0  0  0  0  0  0  0
  186.2520  178.2280  142.7750 C   0  0  0  0  0  0  0  0  0  0  0  0
  190.0810  177.2480  144.2650 C   0  0  0  0  0  0  0  0  0  0  0  0
  187.5380  177.9020  143.2590 C   0  0  0  0  0  0  0  0  0  0  0  0
  185.3700  178.0480  145.0400 C   0  0  0  0  0  3  0  0  0  0  0  0
  188.9890  177.3260  145.1330 C   0  0  0  0  0  3  0  0  0  0  0  0
  183.6780  178.8700  141.8270 C   0  0  0  0  0  0  0  0  0  0  0  0
  186.0360  178.4840  141.4140 C   0  0  0  0  0  3  0  0  0  0  0  0
  186.6400  177.7260  145.5160 C   0  0  0  0  0  3  0  0  0  0  0  0
  182.0910  179.1910  139.9590 C   0  0  0  0  0  2  0  0  0  0  0  0
  183.8730  178.6290  143.1960 C   0  0  0  0  0  0  0  0  0  0  0  0
  182.4030  179.2060  141.3490 O   0  0  0  0  0  0  0  0  0  0  0  0
  191.3370  176.9260  144.7600 O   0  0  0  0  0  1  0  0  0  0  0  0
  189.9110  177.4930  142.9010 C   0  0  0  0  0  3  0  0  0  0  0  0
  185.1580  178.3020  143.6760 C   0  0  0  0  0  0  0  0  0  0  0  0
  183.2350  179.7850  139.1490 C   0  0  0  0  0  2  0  0  0  0  0  0
  184.7640  178.7980  140.9360 C   0  0  0  0  0  0  0  0  0  0  0  0
  184.9570  177.9350  138.5300 C   0  0  2  0  0  3  0  0  0  0  0  0
  186.2890  178.1430  137.8300 C   0  0  0  0  0  1  0  0  0  0  0  0
  183.8640  177.3520  137.6200 C   0  0  0  0  0  2  0  0  0  0  0  0
  184.1810  174.8680  137.3120 C   0  0  0  0  0  0  0  0  0  0  0  0
  182.7190  175.7410  139.1340 C   0  0  0  0  0  1  0  0  0  0  0  0
  183.5150  175.9720  137.9390 N   0  0  0  0  0  0  0  0  0  0  0  0
  185.2680  175.0820  136.4740 O   0  0  0  0  0  0  0  0  0  0  0  0
  183.7990  173.6870  137.5320 O   0  0  0  0  0  1  0  0  0  0  0  0
  1 21  1  6  0  0  0
  1 20  1  0  0  0  0
  2 17  2  0  0  0  0
  2  7  1  0  0  0  0
  4  9  1  0  0  0  0
  4 12  1  0  0  0  0
  5  7  1  0  0  0  0
  5 18  1  0  0  0  0
  6 16  1  0  0  0  0
  6  9  2  0  0  0  0
  7  4  2  0  0  0  0
  8 12  2  0  0  0  0
 10 14  1  0  0  0  0
 11  5  2  0  0  0  0
 13 15  1  0  0  0  0
 14 18  2  0  0  0  0
 14  3  1  0  0  0  0
 15 10  1  0  0  0  0
 17  6  1  0  0  0  0
 18  8  1  0  0  0  0
 19  1  1  0  0  0  0
 19 13  1  0  0  0  0
 20 11  1  0  0  0  0
 20 10  2  0  0  0  0
 21 22  1  6  0  0  0
 23 26  1  0  0  0  0
 23 21  1  0  0  0  0
 24 28  1  0  0  0  0
 24 26  1  0  0  0  0
 26 25  1  0  0  0  0
 27 24  2  0  0  0  0
M  END
>  <MODEL>
6

>  <REMARK>
 VINA RESULT:      -9.0      3.246      6.856
  Name = 
  3 active torsions:
  status: ('A' for Active; 'I' for Inactive)
    1  A    between atoms: C_1  and  C_2
    2  A    between atoms: C_2  and  C_3
    3  A    between atoms: C_3  and  N_11
                            x       y       z     vdW  Elec       q    Type
                         _______ _______ _______ _____ _____    ______ ____

>  <TORSDO>
F 3

$$$$
=
 OpenBabel11052413283D

 28 31  0  0  1  0  0  0  0  0999 V2000
  188.8850  178.2530  138.5330 C   0  0  1  0  0  3  0  0  0  0  0  0
  189.5350  177.4100  143.6030 C   0  0  0  0  0  3  0  0  0  0  0  0
  184.3200  178.9720  140.5210 C   0  0  0  0  0  1  0  0  0  0  0  0
  187.3220  177.7700  144.5390 C   0  0  0  0  0  0  0  0  0  0  0  0
  187.6610  178.0180  142.1310 C   0  0  0  0  0  0  0  0  0  0  0  0
  189.1710  177.1710  145.9840 C   0  0  0  0  0  0  0  0  0  0  0  0
  188.1810  177.7320  143.4130 C   0  0  0  0  0  0  0  0  0  0  0  0
  185.4610  178.3690  143.1170 C   0  0  0  0  0  3  0  0  0  0  0  0
  187.8220  177.4890  145.8140 C   0  0  0  0  0  3  0  0  0  0  0  0
  186.6060  178.5820  139.5800 C   0  0  0  0  0  0  0  0  0  0  0  0
  188.4840  177.9910  140.9960 C   0  0  0  0  0  3  0  0  0  0  0  0
  185.9740  178.0870  144.3820 C   0  0  0  0  0  3  0  0  0  0  0  0
  186.8170  178.5860  137.1180 C   0  0  0  0  0  2  0  0  0  0  0  0
  185.7660  178.6260  140.7040 C   0  0  0  0  0  0  0  0  0  0  0  0
  186.0930  178.8780  138.3100 O   0  0  0  0  0  0  0  0  0  0  0  0
  189.6620  176.8930  147.2520 O   0  0  0  0  0  1  0  0  0  0  0  0
  190.0270  177.1300  144.8810 C   0  0  0  0  0  3  0  0  0  0  0  0
  186.2870  178.3390  141.9830 C   0  0  0  0  0  0  0  0  0  0  0  0
  188.2900  178.9310  137.2890 C   0  0  0  0  0  2  0  0  0  0  0  0
  187.9680  178.2640  139.7300 C   0  0  0  0  0  0  0  0  0  0  0  0
  189.5830  176.9020  138.2780 C   0  0  2  0  0  3  0  0  0  0  0  0
  188.6560  175.8370  137.7200 C   0  0  0  0  0  1  0  0  0  0  0  0
  190.5500  176.3800  139.3530 C   0  0  0  0  0  2  0  0  0  0  0  0
  192.7570  177.3400  140.1130 C   0  0  0  0  0  0  0  0  0  0  0  0
  192.5790  176.1490  137.9290 C   0  0  0  0  0  1  0  0  0  0  0  0
  191.9440  176.7290  139.1010 N   0  0  0  0  0  0  0  0  0  0  0  0
  192.2730  177.5030  141.4050 O   0  0  0  0  0  1  0  0  0  0  0  0
  193.9280  177.7180  139.8440 O   0  0  0  0  0  0  0  0  0  0  0  0
  1 21  1  6  0  0  0
  1 20  1  0  0  0  0
  2 17  1  0  0  0  0
  3 14  1  0  0  0  0
  4  9  2  0  0  0  0
  5  7  1  0  0  0  0
  6 16  1  0  0  0  0
  7  2  2  0  0  0  0
  7  4  1  0  0  0  0
  8 12  2  0  0  0  0
  9  6  1  0  0  0  0
 10 20  2  0  0  0  0
 10 14  1  0  0  0  0
 11  5  2  0  0  0  0
 12  4  1  0  0  0  0
 13 19  1  0  0  0  0
 13 15  1  0  0  0  0
 14 18  2  0  0  0  0
 15 10  1  0  0  0  0
 17  6  2  0  0  0  0
 18  5  1  0  0  0  0
 18  8  1  0  0  0  0
 19  1  1  0  0  0  0
 20 11  1  0  0  0  0
 21 22  1  1  0  0  0
 21 23  1  0  0  0  0
 24 27  1  0  0  0  0
 25 26  1  0  0  0  0
 26 23  1  0  0  0  0
 26 24  1  0  0  0  0
 28 24  2  0  0  0  0
M  END
>  <MODEL>
7

>  <REMARK>
 VINA RESULT:      -9.0      2.237      5.830
  Name = 
  3 active torsions:
  status: ('A' for Active; 'I' for Inactive)
    1  A    between atoms: C_1  and  C_2
    2  A    between atoms: C_2  and  C_3
    3  A    between atoms: C_3  and  N_11
                            x       y       z     vdW  Elec       q    Type
                         _______ _______ _______ _____ _____    ______ ____

>  <TORSDO>
F 3

$$$$
