=
 OpenBabel11052412303D

 30 34  0  0  1  0  0  0  0  0999 V2000
  184.0840  179.2280  139.0770 C   0  0  0  0  0  2  0  0  0  0  0  0
  184.2360  178.9540  141.5830 C   0  0  0  0  0  0  0  0  0  0  0  0
  183.2790  178.6960  137.9720 N   0  0  2  0  0  0  0  0  0  0  0  0
  183.6340  178.7780  142.8320 C   0  0  0  0  0  3  0  0  0  0  0  0
  185.7230  179.0400  141.5140 C   0  0  0  0  0  1  0  0  0  0  0  0
  181.1510  178.9870  139.3090 C   0  0  1  0  0  3  0  0  0  0  0  0
  182.2460  178.6820  142.9370 C   0  0  0  0  0  3  0  0  0  0  0  0
  183.4390  179.0350  140.4230 C   0  0  0  0  0  0  0  0  0  0  0  0
  181.9110  179.2430  137.9960 C   0  0  2  0  0  3  0  0  0  0  0  0
  181.1020  178.8170  136.7790 C   0  0  0  0  0  1  0  0  0  0  0  0
  181.4530  178.7710  141.7930 C   0  0  0  0  0  3  0  0  0  0  0  0
  182.0350  178.9710  140.5340 C   0  0  0  0  0  0  0  0  0  0  0  0
  183.3960  177.2260  137.8500 C   0  0  1  0  0  0  0  0  0  0  0  0
  183.5030  176.8050  136.5120 O   0  0  0  0  0  0  0  0  0  0  0  0
  184.6720  176.6970  137.2970 C   0  0  1  0  0  3  0  0  0  0  0  0
  182.9610  176.0750  139.8660 O   0  0  0  0  0  0  0  0  0  0  0  0
  182.6030  176.2850  138.7170 C   0  0  0  0  0  0  0  0  0  0  0  0
  181.4160  175.5580  138.1540 C   0  0  1  0  0  3  0  0  0  0  0  0
  181.8120  174.3030  137.6800 O   0  0  0  0  0  0  0  0  0  0  0  0
  181.1720  174.1660  136.4460 C   0  0  0  0  0  1  0  0  0  0  0  0
  180.3350  175.3940  139.2140 C   0  0  0  0  0  2  0  0  0  0  0  0
  179.0690  176.1100  138.7890 C   0  0  0  0  0  1  0  0  0  0  0  0
  185.5560  177.7230  136.9520 O   0  0  0  0  0  0  0  0  0  0  0  0
  186.8240  177.1970  137.2000 C   0  0  2  0  0  3  0  0  0  0  0  0
  187.4620  177.9360  138.3600 C   0  0  2  0  0  3  0  0  0  0  0  0
  187.8710  178.2660  136.9510 C   0  0  1  0  0  3  0  0  0  0  0  0
  188.9260  178.1630  138.0360 C   0  0  0  0  0  2  0  0  0  0  0  0
  179.9690  179.9510  139.4600 C   0  0  0  0  0  2  0  0  0  0  0  0
  180.3960  181.4060  139.3250 C   0  0  0  0  0  2  0  0  0  0  0  0
  179.7010  181.9970  138.2700 O   0  0  0  0  0  1  0  0  0  0  0  0
  1  8  1  0  0  0  0
  2  4  1  0  0  0  0
  3  9  1  0  0  0  0
  3  1  1  1  0  0  0
  4  7  2  0  0  0  0
  5  2  1  0  0  0  0
  6 28  1  1  0  0  0
  6 12  1  0  0  0  0
  8 12  1  0  0  0  0
  8  2  2  0  0  0  0
  9 10  1  6  0  0  0
  9  6  1  0  0  0  0
 11  7  1  0  0  0  0
 12 11  2  0  0  0  0
 13  3  1  0  0  0  0
 13 17  1  1  0  0  0
 14 15  1  0  0  0  0
 14 13  1  0  0  0  0
 15 23  1  6  0  0  0
 15 13  1  0  0  0  0
 17 16  2  0  0  0  0
 18 17  1  0  0  0  0
 18 21  1  1  0  0  0
 19 18  1  0  0  0  0
 20 19  1  0  0  0  0
 22 21  1  0  0  0  0
 24 23  1  6  0  0  0
 24 25  1  0  0  0  0
 25 27  1  1  0  0  0
 26 24  1  0  0  0  0
 26 27  1  1  0  0  0
 26 25  1  0  0  0  0
 29 28  1  0  0  0  0
 30 29  1  0  0  0  0
M  END
>  <MODEL>
1

>  <REMARK>
 VINA RESULT:      -4.6      0.000      0.000
  Name = 
  9 active torsions:
  status: ('A' for Active; 'I' for Inactive)
    1  A    between atoms: C_3  and  C_11
    2  A    between atoms: C_3  and  C_19
    3  A    between atoms: N_4  and  C_13
    4  A    between atoms: O_5  and  C_12
    5  A    between atoms: C_7  and  O_16
    6  A    between atoms: C_8  and  C_12
    7  A    between atoms: C_8  and  C_13
    8  A    between atoms: C_9  and  C_12
    9  A    between atoms: O_16  and  C_30
                            x       y       z     vdW  Elec       q    Type
                         _______ _______ _______ _____ _____    ______ ____

>  <TORSDO>
F 9

$$$$
=
 OpenBabel11052412303D

 30 34  0  0  1  0  0  0  0  0999 V2000
  182.6150  176.9200  139.8450 C   0  0  0  0  0  2  0  0  0  0  0  0
  180.0980  176.9920  140.0350 C   0  0  0  0  0  0  0  0  0  0  0  0
  183.7450  177.8390  140.0200 N   0  0  2  0  0  0  0  0  0  0  0  0
  178.9320  177.4340  140.6660 C   0  0  0  0  0  3  0  0  0  0  0  0
  179.9700  176.1050  138.8430 C   0  0  0  0  0  1  0  0  0  0  0  0
  182.7620  178.7270  142.1750 C   0  0  1  0  0  3  0  0  0  0  0  0
  179.0080  178.2740  141.7770 C   0  0  0  0  0  3  0  0  0  0  0  0
  181.3580  177.3960  140.5200 C   0  0  0  0  0  0  0  0  0  0  0  0
  183.9790  178.1340  141.4440 C   0  0  2  0  0  3  0  0  0  0  0  0
  185.2330  178.9700  141.6580 C   0  0  0  0  0  1  0  0  0  0  0  0
  180.2520  178.6690  142.2680 C   0  0  0  0  0  3  0  0  0  0  0  0
  181.4340  178.2190  141.6640 C   0  0  0  0  0  0  0  0  0  0  0  0
  183.6650  179.0060  139.1120 C   0  0  1  0  0  0  0  0  0  0  0  0
  184.5330  180.0440  139.4940 O   0  0  0  0  0  0  0  0  0  0  0  0
  184.8850  179.3320  138.3260 C   0  0  1  0  0  3  0  0  0  0  0  0
  181.8570  178.9100  137.5950 O   0  0  0  0  0  0  0  0  0  0  0  0
  182.3570  179.4920  138.5470 C   0  0  0  0  0  0  0  0  0  0  0  0
  181.7010  180.7200  139.1070 C   0  0  1  0  0  3  0  0  0  0  0  0
  182.1630  181.8530  138.4280 O   0  0  0  0  0  0  0  0  0  0  0  0
  181.1830  182.1250  137.4710 C   0  0  0  0  0  1  0  0  0  0  0  0
  180.1870  180.6250  138.9830 C   0  0  0  0  0  2  0  0  0  0  0  0
  179.5170  181.3900  140.1070 C   0  0  0  0  0  1  0  0  0  0  0  0
  185.9400  178.4620  138.6170 O   0  0  0  0  0  0  0  0  0  0  0  0
  186.4900  178.1450  137.3740 C   0  0  2  0  0  3  0  0  0  0  0  0
  186.2470  176.6780  137.0710 C   0  0  2  0  0  3  0  0  0  0  0  0
  187.5980  177.1250  137.5580 C   0  0  1  0  0  3  0  0  0  0  0  0
  187.5010  176.1070  136.4390 C   0  0  0  0  0  2  0  0  0  0  0  0
  182.8980  178.5680  143.6930 C   0  0  0  0  0  2  0  0  0  0  0  0
  183.6790  179.7120  144.3220 C   0  0  0  0  0  2  0  0  0  0  0  0
  184.1730  179.3110  145.5620 O   0  0  0  0  0  1  0  0  0  0  0  0
  1  8  1  0  0  0  0
  2  8  2  0  0  0  0
  2  4  1  0  0  0  0
  3  1  1  1  0  0  0
  3  9  1  0  0  0  0
  4  7  2  0  0  0  0
  5  2  1  0  0  0  0
  6 28  1  1  0  0  0
  7 11  1  0  0  0  0
  8 12  1  0  0  0  0
  9 10  1  6  0  0  0
  9  6  1  0  0  0  0
 12  6  1  0  0  0  0
 12 11  2  0  0  0  0
 13 17  1  6  0  0  0
 13 14  1  0  0  0  0
 13  3  1  0  0  0  0
 15 23  1  1  0  0  0
 15 13  1  0  0  0  0
 15 14  1  0  0  0  0
 16 17  2  0  0  0  0
 17 18  1  0  0  0  0
 18 21  1  6  0  0  0
 19 18  1  0  0  0  0
 20 19  1  0  0  0  0
 21 22  1  0  0  0  0
 24 26  1  0  0  0  0
 24 23  1  1  0  0  0
 25 27  1  6  0  0  0
 25 24  1  0  0  0  0
 25 26  1  0  0  0  0
 26 27  1  6  0  0  0
 28 29  1  0  0  0  0
 29 30  1  0  0  0  0
M  END
>  <MODEL>
2

>  <REMARK>
 VINA RESULT:      -4.6      2.033      4.613
  Name = 
  9 active torsions:
  status: ('A' for Active; 'I' for Inactive)
    1  A    between atoms: C_3  and  C_11
    2  A    between atoms: C_3  and  C_19
    3  A    between atoms: N_4  and  C_13
    4  A    between atoms: O_5  and  C_12
    5  A    between atoms: C_7  and  O_16
    6  A    between atoms: C_8  and  C_12
    7  A    between atoms: C_8  and  C_13
    8  A    between atoms: C_9  and  C_12
    9  A    between atoms: O_16  and  C_30
                            x       y       z     vdW  Elec       q    Type
                         _______ _______ _______ _____ _____    ______ ____

>  <TORSDO>
F 9

$$$$
=
 OpenBabel11052412303D

 30 34  0  0  1  0  0  0  0  0999 V2000
  180.6490  177.9210  140.5130 C   0  0  0  0  0  2  0  0  0  0  0  0
  179.6700  175.7860  139.5880 C   0  0  0  0  0  0  0  0  0  0  0  0
  181.6890  178.8890  140.1450 N   0  0  2  0  0  0  0  0  0  0  0  0
  179.2510  174.9990  138.5110 C   0  0  0  0  0  3  0  0  0  0  0  0
  179.5520  175.2280  140.9660 C   0  0  0  0  0  1  0  0  0  0  0  0
  180.8970  178.9120  137.7430 C   0  0  1  0  0  3  0  0  0  0  0  0
  179.3550  175.4790  137.2060 C   0  0  0  0  0  3  0  0  0  0  0  0
  180.2000  177.0710  139.3560 C   0  0  0  0  0  0  0  0  0  0  0  0
  181.2690  179.7160  139.0010 C   0  0  2  0  0  3  0  0  0  0  0  0
  182.2710  180.8210  138.6930 C   0  0  0  0  0  1  0  0  0  0  0  0
  179.8700  176.7530  136.9710 C   0  0  0  0  0  3  0  0  0  0  0  0
  180.2740  177.5680  138.0380 C   0  0  0  0  0  0  0  0  0  0  0  0
  183.0270  178.2640  140.0490 C   0  0  1  0  0  0  0  0  0  0  0  0
  184.0640  179.1640  140.3570 O   0  0  0  0  0  0  0  0  0  0  0  0
  183.8090  178.1510  141.3090 C   0  0  1  0  0  3  0  0  0  0  0  0
  183.1090  176.1070  139.0900 O   0  0  0  0  0  0  0  0  0  0  0  0
  183.3790  177.2910  138.9550 C   0  0  0  0  0  0  0  0  0  0  0  0
  184.1140  177.7600  137.7330 C   0  0  1  0  0  3  0  0  0  0  0  0
  185.4330  178.0830  138.0700 O   0  0  0  0  0  0  0  0  0  0  0  0
  186.2180  177.1530  137.3850 C   0  0  0  0  0  1  0  0  0  0  0  0
  184.1040  176.6860  136.6540 C   0  0  0  0  0  2  0  0  0  0  0  0
  183.1390  177.0620  135.5470 C   0  0  0  0  0  1  0  0  0  0  0  0
  183.1270  178.7030  142.3970 O   0  0  0  0  0  0  0  0  0  0  0  0
  184.1200  179.3080  143.1670 C   0  0  2  0  0  3  0  0  0  0  0  0
  184.9180  178.2430  143.8950 C   0  0  2  0  0  3  0  0  0  0  0  0
  183.8660  179.0220  144.6350 C   0  0  1  0  0  3  0  0  0  0  0  0
  185.1950  178.7320  145.3030 C   0  0  0  0  0  2  0  0  0  0  0  0
  180.0420  179.7500  136.7850 C   0  0  0  0  0  2  0  0  0  0  0  0
  180.7690  180.0510  135.4830 C   0  0  0  0  0  2  0  0  0  0  0  0
  180.8360  181.4310  135.2980 O   0  0  0  0  0  1  0  0  0  0  0  0
  2  5  1  0  0  0  0
  3  1  1  6  0  0  0
  4  2  2  0  0  0  0
  6 28  1  6  0  0  0
  6 12  1  0  0  0  0
  6  9  1  0  0  0  0
  7  4  1  0  0  0  0
  8  2  1  0  0  0  0
  8  1  1  0  0  0  0
  9 10  1  6  0  0  0
  9  3  1  0  0  0  0
 11  7  2  0  0  0  0
 11 12  1  0  0  0  0
 12  8  2  0  0  0  0
 13 17  1  6  0  0  0
 13  3  1  0  0  0  0
 13 14  1  0  0  0  0
 13 15  1  0  0  0  0
 14 15  1  0  0  0  0
 15 23  1  1  0  0  0
 17 16  2  0  0  0  0
 18 21  1  6  0  0  0
 18 19  1  0  0  0  0
 18 17  1  0  0  0  0
 20 19  1  0  0  0  0
 22 21  1  0  0  0  0
 24 23  1  6  0  0  0
 24 25  1  0  0  0  0
 24 26  1  0  0  0  0
 25 26  1  0  0  0  0
 25 27  1  1  0  0  0
 26 27  1  1  0  0  0
 29 28  1  0  0  0  0
 30 29  1  0  0  0  0
M  END
>  <MODEL>
3

>  <REMARK>
 VINA RESULT:      -4.6      1.848      5.019
  Name = 
  9 active torsions:
  status: ('A' for Active; 'I' for Inactive)
    1  A    between atoms: C_3  and  C_11
    2  A    between atoms: C_3  and  C_19
    3  A    between atoms: N_4  and  C_13
    4  A    between atoms: O_5  and  C_12
    5  A    between atoms: C_7  and  O_16
    6  A    between atoms: C_8  and  C_12
    7  A    between atoms: C_8  and  C_13
    8  A    between atoms: C_9  and  C_12
    9  A    between atoms: O_16  and  C_30
                            x       y       z     vdW  Elec       q    Type
                         _______ _______ _______ _____ _____    ______ ____

>  <TORSDO>
F 9

$$$$
=
 OpenBabel11052412303D

 30 34  0  0  1  0  0  0  0  0999 V2000
  188.9710  178.9280  144.6570 C   0  0  0  0  0  2  0  0  0  0  0  0
  191.2430  177.8360  144.7970 C   0  0  0  0  0  0  0  0  0  0  0  0
  187.5620  178.5200  144.7200 N   0  0  2  0  0  0  0  0  0  0  0  0
  192.1110  176.8870  145.3440 C   0  0  0  0  0  3  0  0  0  0  0  0
  191.7610  178.7490  143.7380 C   0  0  0  0  0  1  0  0  0  0  0  0
  188.0240  177.0360  146.7160 C   0  0  1  0  0  3  0  0  0  0  0  0
  191.6630  176.0070  146.3290 C   0  0  0  0  0  3  0  0  0  0  0  0
  189.9070  177.9060  145.2410 C   0  0  0  0  0  0  0  0  0  0  0  0
  187.1720  178.1560  146.0930 C   0  0  2  0  0  3  0  0  0  0  0  0
  185.6820  177.8670  146.2080 C   0  0  0  0  0  1  0  0  0  0  0  0
  190.3450  176.0780  146.7790 C   0  0  0  0  0  3  0  0  0  0  0  0
  189.4640  177.0370  146.2600 C   0  0  0  0  0  0  0  0  0  0  0  0
  187.2120  177.5500  143.6580 C   0  0  1  0  0  0  0  0  0  0  0  0
  186.1010  176.7580  144.0000 O   0  0  0  0  0  0  0  0  0  0  0  0
  185.8930  177.7270  142.9930 C   0  0  1  0  0  3  0  0  0  0  0  0
  188.5020  175.6400  143.1390 O   0  0  0  0  0  0  0  0  0  0  0  0
  188.2610  176.8090  142.8730 C   0  0  0  0  0  0  0  0  0  0  0  0
  189.0530  177.5170  141.8120 C   0  0  1  0  0  3  0  0  0  0  0  0
  189.4790  176.5970  140.8480 O   0  0  0  0  0  0  0  0  0  0  0  0
  190.8650  176.7530  140.7890 C   0  0  0  0  0  1  0  0  0  0  0  0
  188.2170  178.6060  141.1550 C   0  0  0  0  0  2  0  0  0  0  0  0
  187.9290  178.2490  139.7100 C   0  0  0  0  0  1  0  0  0  0  0  0
  185.1800  178.8030  143.5300 O   0  0  0  0  0  0  0  0  0  0  0  0
  183.8700  178.3380  143.6430 C   0  0  2  0  0  3  0  0  0  0  0  0
  183.0010  179.0030  142.5920 C   0  0  2  0  0  3  0  0  0  0  0  0
  182.9550  179.4890  144.0140 C   0  0  1  0  0  3  0  0  0  0  0  0
  181.6680  179.3520  143.2240 C   0  0  0  0  0  2  0  0  0  0  0  0
  187.8990  177.0330  148.2440 C   0  0  0  0  0  2  0  0  0  0  0  0
  188.1340  178.4130  148.8400 C   0  0  0  0  0  2  0  0  0  0  0  0
  189.5010  178.6060  149.0370 O   0  0  0  0  0  1  0  0  0  0  0  0
  1  8  1  0  0  0  0
  2  8  2  0  0  0  0
  2  4  1  0  0  0  0
  3  1  1  1  0  0  0
  3  9  1  0  0  0  0
  4  7  2  0  0  0  0
  5  2  1  0  0  0  0
  6 28  1  1  0  0  0
  7 11  1  0  0  0  0
  8 12  1  0  0  0  0
  9 10  1  6  0  0  0
  9  6  1  0  0  0  0
 12  6  1  0  0  0  0
 12 11  2  0  0  0  0
 13 17  1  6  0  0  0
 13 14  1  0  0  0  0
 13  3  1  0  0  0  0
 15 23  1  1  0  0  0
 15 13  1  0  0  0  0
 15 14  1  0  0  0  0
 17 16  2  0  0  0  0
 18 21  1  6  0  0  0
 18 17  1  0  0  0  0
 19 18  1  0  0  0  0
 20 19  1  0  0  0  0
 22 21  1  0  0  0  0
 24 23  1  6  0  0  0
 24 26  1  0  0  0  0
 25 27  1  1  0  0  0
 25 24  1  0  0  0  0
 25 26  1  0  0  0  0
 26 27  1  1  0  0  0
 28 29  1  0  0  0  0
 29 30  1  0  0  0  0
M  END
>  <MODEL>
4

>  <REMARK>
 VINA RESULT:      -4.1      5.587      9.093
  Name = 
  9 active torsions:
  status: ('A' for Active; 'I' for Inactive)
    1  A    between atoms: C_3  and  C_11
    2  A    between atoms: C_3  and  C_19
    3  A    between atoms: N_4  and  C_13
    4  A    between atoms: O_5  and  C_12
    5  A    between atoms: C_7  and  O_16
    6  A    between atoms: C_8  and  C_12
    7  A    between atoms: C_8  and  C_13
    8  A    between atoms: C_9  and  C_12
    9  A    between atoms: O_16  and  C_30
                            x       y       z     vdW  Elec       q    Type
                         _______ _______ _______ _____ _____    ______ ____

>  <TORSDO>
F 9

$$$$
=
 OpenBabel11052412303D

 30 34  0  0  1  0  0  0  0  0999 V2000
  182.9230  176.9750  139.5010 C   0  0  0  0  0  2  0  0  0  0  0  0
  183.7590  177.1680  137.1270 C   0  0  0  0  0  0  0  0  0  0  0  0
  181.7110  177.3100  140.2580 N   0  0  2  0  0  0  0  0  0  0  0  0
  183.5440  177.1150  135.7470 C   0  0  0  0  0  3  0  0  0  0  0  0
  185.1250  177.5030  137.6220 C   0  0  0  0  0  1  0  0  0  0  0  0
  180.2400  176.3800  138.4220 C   0  0  1  0  0  3  0  0  0  0  0  0
  182.2790  176.8160  135.2430 C   0  0  0  0  0  3  0  0  0  0  0  0
  182.6940  176.9210  138.0150 C   0  0  0  0  0  0  0  0  0  0  0  0
  180.6010  176.4040  139.9180 C   0  0  2  0  0  3  0  0  0  0  0  0
  179.3780  176.6410  140.7930 C   0  0  0  0  0  1  0  0  0  0  0  0
  181.2230  176.5610  136.1180 C   0  0  0  0  0  3  0  0  0  0  0  0
  181.4220  176.5870  137.5050 C   0  0  0  0  0  0  0  0  0  0  0  0
  181.4110  178.7590  140.2220 C   0  0  1  0  0  0  0  0  0  0  0  0
  180.2550  179.0860  140.9530 O   0  0  0  0  0  0  0  0  0  0  0  0
  181.4860  179.4930  141.5140 C   0  0  1  0  0  3  0  0  0  0  0  0
  182.6830  180.0620  138.7180 O   0  0  0  0  0  0  0  0  0  0  0  0
  181.5890  179.5830  138.9750 C   0  0  0  0  0  0  0  0  0  0  0  0
  180.4150  179.8680  138.0840 C   0  0  1  0  0  3  0  0  0  0  0  0
  179.5190  180.7190  138.7400 O   0  0  0  0  0  0  0  0  0  0  0  0
  180.0540  181.9990  138.5780 C   0  0  0  0  0  1  0  0  0  0  0  0
  180.8730  180.5050  136.7790 C   0  0  0  0  0  2  0  0  0  0  0  0
  180.1240  179.9020  135.6080 C   0  0  0  0  0  1  0  0  0  0  0  0
  181.8110  178.6450  142.5770 O   0  0  0  0  0  0  0  0  0  0  0  0
  182.6420  179.4100  143.3980 C   0  0  2  0  0  3  0  0  0  0  0  0
  183.9450  178.6690  143.6320 C   0  0  2  0  0  3  0  0  0  0  0  0
  182.8850  178.6690  144.6990 C   0  0  1  0  0  3  0  0  0  0  0  0
  184.3400  178.8460  145.0850 C   0  0  0  0  0  2  0  0  0  0  0  0
  179.4440  175.1190  138.0670 C   0  0  0  0  0  2  0  0  0  0  0  0
  180.1530  173.8490  138.5140 C   0  0  0  0  0  2  0  0  0  0  0  0
  180.0010  172.8640  137.5390 O   0  0  0  0  0  1  0  0  0  0  0  0
  2  5  1  0  0  0  0
  2  8  1  0  0  0  0
  3  1  1  6  0  0  0
  4  2  2  0  0  0  0
  6 28  1  6  0  0  0
  6  9  1  0  0  0  0
  7  4  1  0  0  0  0
  7 11  2  0  0  0  0
  8  1  1  0  0  0  0
  9  3  1  0  0  0  0
  9 10  1  1  0  0  0
 11 12  1  0  0  0  0
 12  8  2  0  0  0  0
 12  6  1  0  0  0  0
 13 17  1  6  0  0  0
 13  3  1  0  0  0  0
 13 14  1  0  0  0  0
 13 15  1  0  0  0  0
 14 15  1  0  0  0  0
 15 23  1  1  0  0  0
 16 17  2  0  0  0  0
 18 21  1  6  0  0  0
 18 19  1  0  0  0  0
 18 17  1  0  0  0  0
 20 19  1  0  0  0  0
 22 21  1  0  0  0  0
 24 23  1  6  0  0  0
 24 25  1  0  0  0  0
 24 26  1  0  0  0  0
 25 26  1  0  0  0  0
 25 27  1  1  0  0  0
 26 27  1  1  0  0  0
 28 29  1  0  0  0  0
 30 29  1  0  0  0  0
M  END
>  <MODEL>
5

>  <REMARK>
 VINA RESULT:      -4.1      2.190      5.939
  Name = 
  9 active torsions:
  status: ('A' for Active; 'I' for Inactive)
    1  A    between atoms: C_3  and  C_11
    2  A    between atoms: C_3  and  C_19
    3  A    between atoms: N_4  and  C_13
    4  A    between atoms: O_5  and  C_12
    5  A    between atoms: C_7  and  O_16
    6  A    between atoms: C_8  and  C_12
    7  A    between atoms: C_8  and  C_13
    8  A    between atoms: C_9  and  C_12
    9  A    between atoms: O_16  and  C_30
                            x       y       z     vdW  Elec       q    Type
                         _______ _______ _______ _____ _____    ______ ____

>  <TORSDO>
F 9

$$$$
=
 OpenBabel11052412303D

 30 34  0  0  1  0  0  0  0  0999 V2000
  182.1370  179.0690  137.5140 C   0  0  0  0  0  2  0  0  0  0  0  0
  180.9410  180.6160  139.1110 C   0  0  0  0  0  0  0  0  0  0  0  0
  183.0740  177.9420  137.5890 N   0  0  2  0  0  0  0  0  0  0  0  0
  180.2700  180.8500  140.3140 C   0  0  0  0  0  3  0  0  0  0  0  0
  181.1450  181.7590  138.1750 C   0  0  0  0  0  1  0  0  0  0  0  0
  181.7370  176.8840  139.4580 C   0  0  1  0  0  3  0  0  0  0  0  0
  180.0690  179.8100  141.2210 C   0  0  0  0  0  3  0  0  0  0  0  0
  181.4180  179.3250  138.8100 C   0  0  0  0  0  0  0  0  0  0  0  0
  182.4060  176.7250  138.0820 C   0  0  2  0  0  3  0  0  0  0  0  0
  183.3210  175.5080  138.0320 C   0  0  0  0  0  1  0  0  0  0  0  0
  180.5300  178.5270  140.9250 C   0  0  0  0  0  3  0  0  0  0  0  0
  181.1850  178.2670  139.7140 C   0  0  0  0  0  0  0  0  0  0  0  0
  184.3430  178.3100  138.2550 C   0  0  1  0  0  0  0  0  0  0  0  0
  185.1760  177.1980  138.4760 O   0  0  0  0  0  0  0  0  0  0  0  0
  185.5950  178.1050  137.4770 C   0  0  1  0  0  3  0  0  0  0  0  0
  184.1910  180.5110  139.0970 O   0  0  0  0  0  0  0  0  0  0  0  0
  184.4010  179.3350  139.3550 C   0  0  0  0  0  0  0  0  0  0  0  0
  184.7780  178.9270  140.7500 C   0  0  1  0  0  3  0  0  0  0  0  0
  185.9280  179.6160  141.1490 O   0  0  0  0  0  0  0  0  0  0  0  0
  186.9240  178.6400  141.2270 C   0  0  0  0  0  1  0  0  0  0  0  0
  183.6400  179.2140  141.7190 C   0  0  0  0  0  2  0  0  0  0  0  0
  183.9510  178.6310  143.0830 C   0  0  0  0  0  1  0  0  0  0  0  0
  185.3410  177.5520  136.2180 O   0  0  0  0  0  0  0  0  0  0  0  0
  186.3580  176.6150  136.0320 C   0  0  2  0  0  3  0  0  0  0  0  0
  187.6580  177.3320  135.7170 C   0  0  2  0  0  3  0  0  0  0  0  0
  186.8670  176.7000  134.6050 C   0  0  1  0  0  3  0  0  0  0  0  0
  188.3770  176.5630  134.6270 C   0  0  0  0  0  2  0  0  0  0  0  0
  180.6910  175.7890  139.6940 C   0  0  0  0  0  2  0  0  0  0  0  0
  179.7310  175.6520  138.5200 C   0  0  0  0  0  2  0  0  0  0  0  0
  179.3300  174.3220  138.4020 O   0  0  0  0  0  1  0  0  0  0  0  0
  1  8  1  0  0  0  0
  2  4  1  0  0  0  0
  3  1  1  1  0  0  0
  3  9  1  0  0  0  0
  3 13  1  0  0  0  0
  4  7  2  0  0  0  0
  5  2  1  0  0  0  0
  6 28  1  6  0  0  0
  6 12  1  0  0  0  0
  8  2  2  0  0  0  0
  8 12  1  0  0  0  0
  9 10  1  1  0  0  0
  9  6  1  0  0  0  0
 11  7  1  0  0  0  0
 12 11  2  0  0  0  0
 13 14  1  0  0  0  0
 13 17  1  1  0  0  0
 15 23  1  6  0  0  0
 15 13  1  0  0  0  0
 15 14  1  0  0  0  0
 16 17  2  0  0  0  0
 17 18  1  0  0  0  0
 18 19  1  0  0  0  0
 18 21  1  1  0  0  0
 19 20  1  0  0  0  0
 21 22  1  0  0  0  0
 24 23  1  6  0  0  0
 25 27  1  1  0  0  0
 25 24  1  0  0  0  0
 26 27  1  1  0  0  0
 26 25  1  0  0  0  0
 26 24  1  0  0  0  0
 29 28  1  0  0  0  0
 30 29  1  0  0  0  0
M  END
>  <MODEL>
6

>  <REMARK>
 VINA RESULT:      -4.0      1.751      4.361
  Name = 
  9 active torsions:
  status: ('A' for Active; 'I' for Inactive)
    1  A    between atoms: C_3  and  C_11
    2  A    between atoms: C_3  and  C_19
    3  A    between atoms: N_4  and  C_13
    4  A    between atoms: O_5  and  C_12
    5  A    between atoms: C_7  and  O_16
    6  A    between atoms: C_8  and  C_12
    7  A    between atoms: C_8  and  C_13
    8  A    between atoms: C_9  and  C_12
    9  A    between atoms: O_16  and  C_30
                            x       y       z     vdW  Elec       q    Type
                         _______ _______ _______ _____ _____    ______ ____

>  <TORSDO>
F 9

$$$$
=
 OpenBabel11052412303D

 30 34  0  0  1  0  0  0  0  0999 V2000
  188.9150  179.1020  143.0500 C   0  0  0  0  0  2  0  0  0  0  0  0
  189.2860  178.2480  145.3960 C   0  0  0  0  0  0  0  0  0  0  0  0
  188.2620  178.6470  141.8170 N   0  0  2  0  0  0  0  0  0  0  0  0
  188.8430  177.5670  146.5340 C   0  0  0  0  0  3  0  0  0  0  0  0
  190.6620  178.8230  145.4020 C   0  0  0  0  0  1  0  0  0  0  0  0
  186.2300  177.8770  143.1140 C   0  0  1  0  0  3  0  0  0  0  0  0
  187.5670  177.0050  146.5650 C   0  0  0  0  0  3  0  0  0  0  0  0
  188.4420  178.3680  144.2740 C   0  0  0  0  0  0  0  0  0  0  0  0
  186.7940  178.6980  141.9410 C   0  0  2  0  0  3  0  0  0  0  0  0
  186.0970  178.3670  140.6290 C   0  0  0  0  0  1  0  0  0  0  0  0
  186.7240  177.1290  145.4600 C   0  0  0  0  0  3  0  0  0  0  0  0
  187.1400  177.8270  144.3190 C   0  0  0  0  0  0  0  0  0  0  0  0
  188.8350  177.3790  141.3140 C   0  0  1  0  0  0  0  0  0  0  0  0
  188.0490  176.7990  140.3020 O   0  0  0  0  0  0  0  0  0  0  0  0
  189.2810  177.3590  139.8940 C   0  0  1  0  0  3  0  0  0  0  0  0
  188.7780  175.5780  142.8410 O   0  0  0  0  0  0  0  0  0  0  0  0
  189.4780  176.3720  142.2290 C   0  0  0  0  0  0  0  0  0  0  0  0
  190.9640  176.3830  142.4410 C   0  0  1  0  0  3  0  0  0  0  0  0
  191.4960  177.5980  141.9970 O   0  0  0  0  0  0  0  0  0  0  0  0
  192.4790  177.2450  141.0710 C   0  0  0  0  0  1  0  0  0  0  0  0
  191.3000  176.1770  143.9120 C   0  0  0  0  0  2  0  0  0  0  0  0
  192.0550  174.8780  144.1030 C   0  0  0  0  0  1  0  0  0  0  0  0
  189.0420  178.5800  139.2570 O   0  0  0  0  0  0  0  0  0  0  0  0
  188.3630  178.2410  138.0860 C   0  0  2  0  0  3  0  0  0  0  0  0
  189.2720  177.4210  137.1900 C   0  0  2  0  0  3  0  0  0  0  0  0
  189.0550  178.8800  136.8970 C   0  0  1  0  0  3  0  0  0  0  0  0
  189.0730  177.8790  135.7590 C   0  0  0  0  0  2  0  0  0  0  0  0
  184.8130  178.3340  143.4760 C   0  0  0  0  0  2  0  0  0  0  0  0
  184.8180  179.5900  144.3350 C   0  0  0  0  0  2  0  0  0  0  0  0
  184.0410  179.3770  145.4730 O   0  0  0  0  0  1  0  0  0  0  0  0
  1  8  1  0  0  0  0
  2  5  1  0  0  0  0
  2  4  1  0  0  0  0
  3  9  1  0  0  0  0
  3  1  1  1  0  0  0
  4  7  2  0  0  0  0
  6 28  1  1  0  0  0
  6 12  1  0  0  0  0
  8 12  1  0  0  0  0
  8  2  2  0  0  0  0
  9 10  1  6  0  0  0
  9  6  1  0  0  0  0
 11  7  1  0  0  0  0
 12 11  2  0  0  0  0
 13  3  1  0  0  0  0
 13 17  1  1  0  0  0
 14 13  1  0  0  0  0
 15 23  1  6  0  0  0
 15 14  1  0  0  0  0
 15 13  1  0  0  0  0
 17 18  1  0  0  0  0
 17 16  2  0  0  0  0
 18 21  1  1  0  0  0
 19 18  1  0  0  0  0
 20 19  1  0  0  0  0
 21 22  1  0  0  0  0
 24 23  1  1  0  0  0
 25 27  1  6  0  0  0
 25 24  1  0  0  0  0
 26 27  1  6  0  0  0
 26 25  1  0  0  0  0
 26 24  1  0  0  0  0
 28 29  1  0  0  0  0
 29 30  1  0  0  0  0
M  END
>  <MODEL>
7

>  <REMARK>
 VINA RESULT:      -3.9      4.976      7.384
  Name = 
  9 active torsions:
  status: ('A' for Active; 'I' for Inactive)
    1  A    between atoms: C_3  and  C_11
    2  A    between atoms: C_3  and  C_19
    3  A    between atoms: N_4  and  C_13
    4  A    between atoms: O_5  and  C_12
    5  A    between atoms: C_7  and  O_16
    6  A    between atoms: C_8  and  C_12
    7  A    between atoms: C_8  and  C_13
    8  A    between atoms: C_9  and  C_12
    9  A    between atoms: O_16  and  C_30
                            x       y       z     vdW  Elec       q    Type
                         _______ _______ _______ _____ _____    ______ ____

>  <TORSDO>
F 9

$$$$
=
 OpenBabel11052412303D

 30 34  0  0  1  0  0  0  0  0999 V2000
  188.5450  178.6180  137.0260 C   0  0  0  0  0  2  0  0  0  0  0  0
  190.1490  177.0130  135.9190 C   0  0  0  0  0  0  0  0  0  0  0  0
  187.5390  178.5870  138.0940 N   0  0  2  0  0  0  0  0  0  0  0  0
  191.0460  175.9440  135.9830 C   0  0  0  0  0  3  0  0  0  0  0  0
  189.8830  177.6430  134.5940 C   0  0  0  0  0  1  0  0  0  0  0  0
  189.0910  177.2670  139.5940 C   0  0  1  0  0  3  0  0  0  0  0  0
  191.3140  175.3200  137.2010 C   0  0  0  0  0  3  0  0  0  0  0  0
  189.5090  177.4650  137.0910 C   0  0  0  0  0  0  0  0  0  0  0  0
  188.1710  178.4880  139.4210 C   0  0  2  0  0  3  0  0  0  0  0  0
  187.1550  178.5980  140.5500 C   0  0  0  0  0  1  0  0  0  0  0  0
  190.6900  175.7700  138.3650 C   0  0  0  0  0  3  0  0  0  0  0  0
  189.8050  176.8550  138.3280 C   0  0  0  0  0  0  0  0  0  0  0  0
  186.4510  177.6240  137.8110 C   0  0  1  0  0  0  0  0  0  0  0  0
  185.7900  177.2030  138.9790 O   0  0  0  0  0  0  0  0  0  0  0  0
  185.0650  178.0640  138.1250 C   0  0  1  0  0  3  0  0  0  0  0  0
  186.4240  176.8120  135.5930 O   0  0  0  0  0  0  0  0  0  0  0  0
  186.5900  176.5420  136.7740 C   0  0  0  0  0  0  0  0  0  0  0  0
  186.8660  175.1260  137.1900 C   0  0  1  0  0  3  0  0  0  0  0  0
  185.6600  174.4680  137.4550 O   0  0  0  0  0  0  0  0  0  0  0  0
  185.2050  174.0330  136.2090 C   0  0  0  0  0  1  0  0  0  0  0  0
  187.6310  174.3860  136.1020 C   0  0  0  0  0  2  0  0  0  0  0  0
  188.5590  173.3580  136.7180 C   0  0  0  0  0  1  0  0  0  0  0  0
  185.0380  179.3470  138.6790 O   0  0  0  0  0  0  0  0  0  0  0  0
  183.8260  179.4100  139.3670 C   0  0  2  0  0  3  0  0  0  0  0  0
  182.6950  178.9990  138.4430 C   0  0  2  0  0  3  0  0  0  0  0  0
  182.9350  180.4570  138.7260 C   0  0  1  0  0  3  0  0  0  0  0  0
  181.5180  179.9210  138.6900 C   0  0  0  0  0  2  0  0  0  0  0  0
  190.0580  177.4660  140.7660 C   0  0  0  0  0  2  0  0  0  0  0  0
  189.5130  176.8880  142.0630 C   0  0  0  0  0  2  0  0  0  0  0  0
  190.2090  175.7220  142.3800 O   0  0  0  0  0  1  0  0  0  0  0  0
  1  8  1  0  0  0  0
  2  4  2  0  0  0  0
  2  8  1  0  0  0  0
  3  1  1  6  0  0  0
  3  9  1  0  0  0  0
  4  7  1  0  0  0  0
  5  2  1  0  0  0  0
  6 28  1  1  0  0  0
  7 11  2  0  0  0  0
  8 12  2  0  0  0  0
  9  6  1  0  0  0  0
  9 10  1  1  0  0  0
 12 11  1  0  0  0  0
 12  6  1  0  0  0  0
 13 17  1  6  0  0  0
 13  3  1  0  0  0  0
 13 15  1  0  0  0  0
 13 14  1  0  0  0  0
 15 23  1  1  0  0  0
 15 14  1  0  0  0  0
 16 17  2  0  0  0  0
 17 18  1  0  0  0  0
 18 21  1  6  0  0  0
 18 19  1  0  0  0  0
 20 19  1  0  0  0  0
 21 22  1  0  0  0  0
 24 23  1  6  0  0  0
 25 27  1  1  0  0  0
 25 26  1  0  0  0  0
 25 24  1  0  0  0  0
 26 27  1  1  0  0  0
 26 24  1  0  0  0  0
 28 29  1  0  0  0  0
 29 30  1  0  0  0  0
M  END
>  <MODEL>
8

>  <REMARK>
 VINA RESULT:      -3.8      2.869      7.372
  Name = 
  9 active torsions:
  status: ('A' for Active; 'I' for Inactive)
    1  A    between atoms: C_3  and  C_11
    2  A    between atoms: C_3  and  C_19
    3  A    between atoms: N_4  and  C_13
    4  A    between atoms: O_5  and  C_12
    5  A    between atoms: C_7  and  O_16
    6  A    between atoms: C_8  and  C_12
    7  A    between atoms: C_8  and  C_13
    8  A    between atoms: C_9  and  C_12
    9  A    between atoms: O_16  and  C_30
                            x       y       z     vdW  Elec       q    Type
                         _______ _______ _______ _____ _____    ______ ____

>  <TORSDO>
F 9

$$$$
=
 OpenBabel11052412303D

 30 34  0  0  1  0  0  0  0  0999 V2000
  181.7880  175.9530  139.4700 C   0  0  0  0  0  2  0  0  0  0  0  0
  179.8930  176.8160  140.8980 C   0  0  0  0  0  0  0  0  0  0  0  0
  182.6870  176.4670  138.4300 N   0  0  2  0  0  0  0  0  0  0  0  0
  179.2930  177.8290  141.6510 C   0  0  0  0  0  3  0  0  0  0  0  0
  179.1800  175.5130  140.7610 C   0  0  0  0  0  1  0  0  0  0  0  0
  183.0910  178.5870  139.7500 C   0  0  1  0  0  3  0  0  0  0  0  0
  179.9210  179.0650  141.7950 C   0  0  0  0  0  3  0  0  0  0  0  0
  181.1380  177.0420  140.2790 C   0  0  0  0  0  0  0  0  0  0  0  0
  183.6890  177.3860  138.9980 C   0  0  2  0  0  3  0  0  0  0  0  0
  184.7190  177.8190  137.9640 C   0  0  0  0  0  1  0  0  0  0  0  0
  181.1590  179.2920  141.1920 C   0  0  0  0  0  3  0  0  0  0  0  0
  181.7880  178.2830  140.4510 C   0  0  0  0  0  0  0  0  0  0  0  0
  181.9500  176.9510  137.2410 C   0  0  1  0  0  0  0  0  0  0  0  0
  182.7510  176.9700  136.0850 O   0  0  0  0  0  0  0  0  0  0  0  0
  181.7460  175.9780  136.1340 C   0  0  1  0  0  3  0  0  0  0  0  0
  179.8190  177.8780  137.6610 O   0  0  0  0  0  0  0  0  0  0  0  0
  180.9720  178.0920  137.3160 C   0  0  0  0  0  0  0  0  0  0  0  0
  181.3900  179.4750  136.9070 C   0  0  1  0  0  3  0  0  0  0  0  0
  181.1800  179.6460  135.5350 O   0  0  0  0  0  0  0  0  0  0  0  0
  180.0110  180.4040  135.4400 C   0  0  0  0  0  1  0  0  0  0  0  0
  180.6080  180.5250  137.6850 C   0  0  0  0  0  2  0  0  0  0  0  0
  181.5560  181.5080  138.3420 C   0  0  0  0  0  1  0  0  0  0  0  0
  182.3340  174.7410  136.4140 O   0  0  0  0  0  0  0  0  0  0  0  0
  181.3680  173.8010  136.0530 C   0  0  2  0  0  3  0  0  0  0  0  0
  180.5740  173.3920  137.2790 C   0  0  2  0  0  3  0  0  0  0  0  0
  181.6550  172.4870  136.7550 C   0  0  1  0  0  3  0  0  0  0  0  0
  180.3390  171.8960  137.2190 C   0  0  0  0  0  2  0  0  0  0  0  0
  184.1230  179.2180  140.6930 C   0  0  0  0  0  2  0  0  0  0  0  0
  184.5690  178.2530  141.7810 C   0  0  0  0  0  2  0  0  0  0  0  0
  184.1800  178.7470  143.0260 O   0  0  0  0  0  1  0  0  0  0  0  0
  1  8  1  0  0  0  0
  2  4  1  0  0  0  0
  3  9  1  0  0  0  0
  3  1  1  1  0  0  0
  4  7  2  0  0  0  0
  5  2  1  0  0  0  0
  6 12  1  0  0  0  0
  6 28  1  1  0  0  0
  8 12  1  0  0  0  0
  8  2  2  0  0  0  0
  9 10  1  6  0  0  0
  9  6  1  0  0  0  0
 11  7  1  0  0  0  0
 12 11  2  0  0  0  0
 13 17  1  1  0  0  0
 13  3  1  0  0  0  0
 14 15  1  0  0  0  0
 14 13  1  0  0  0  0
 15 23  1  1  0  0  0
 15 13  1  0  0  0  0
 17 16  2  0  0  0  0
 18 17  1  0  0  0  0
 18 21  1  1  0  0  0
 19 18  1  0  0  0  0
 20 19  1  0  0  0  0
 21 22  1  0  0  0  0
 24 23  1  1  0  0  0
 24 26  1  0  0  0  0
 24 25  1  0  0  0  0
 25 27  1  6  0  0  0
 26 27  1  6  0  0  0
 26 25  1  0  0  0  0
 28 29  1  0  0  0  0
 29 30  1  0  0  0  0
M  END
>  <MODEL>
9

>  <REMARK>
 VINA RESULT:      -3.7      2.051      5.118
  Name = 
  9 active torsions:
  status: ('A' for Active; 'I' for Inactive)
    1  A    between atoms: C_3  and  C_11
    2  A    between atoms: C_3  and  C_19
    3  A    between atoms: N_4  and  C_13
    4  A    between atoms: O_5  and  C_12
    5  A    between atoms: C_7  and  O_16
    6  A    between atoms: C_8  and  C_12
    7  A    between atoms: C_8  and  C_13
    8  A    between atoms: C_9  and  C_12
    9  A    between atoms: O_16  and  C_30
                            x       y       z     vdW  Elec       q    Type
                         _______ _______ _______ _____ _____    ______ ____

>  <TORSDO>
F 9

$$$$
