=
 OpenBabel11052416403D

 43 47  0  0  1  0  0  0  0  0999 V2000
  183.6910  178.6920  141.5040 N   0  0  0  0  0  2  0  0  0  0  0  0
  188.1430  178.1260  147.6720 C   0  0  2  0  0  3  0  0  0  0  0  0
  185.5020  178.7590  143.2960 C   0  0  2  0  0  3  0  0  0  0  0  0
  187.7910  178.1570  142.5190 C   0  0  0  0  0  3  0  0  0  0  0  0
  186.1740  177.9490  146.0350 C   0  0  1  0  0  3  0  0  0  0  0  0
  188.7090  177.0230  146.7850 C   0  0  0  0  0  2  0  0  0  0  0  0
  188.3940  177.8320  149.0100 O   0  0  0  0  0  1  0  0  0  0  0  0
  187.2830  178.2130  144.9980 C   0  0  1  0  0  3  0  0  0  0  0  0
  186.6340  178.3000  147.4570 C   0  0  0  0  0  2  0  0  0  0  0  0
  188.5290  177.3580  145.2990 C   0  0  0  0  0  2  0  0  0  0  0  0
  187.3930  178.3230  141.2500 C   0  0  0  0  0  0  0  0  0  0  0  0
  186.7600  177.9300  143.5870 C   0  0  1  0  0  3  0  0  0  0  0  0
  184.4120  178.3930  144.2980 C   0  0  0  0  0  2  0  0  0  0  0  0
  185.0760  178.5580  141.8600 C   0  0  0  0  0  0  0  0  0  0  0  0
  185.9900  178.4100  140.9410 N   0  0  0  0  0  0  0  0  0  0  0  0
  184.8950  178.7190  145.7090 C   0  0  0  0  0  2  0  0  0  0  0  0
  182.4550  179.2720  138.0040 C   0  0  0  0  0  3  0  0  0  0  0  0
  181.9610  178.0030  137.6860 C   0  0  0  0  0  0  0  0  0  0  0  0
  182.6110  177.2170  139.8910 C   0  0  0  0  0  3  0  0  0  0  0  0
  183.0250  179.5130  139.2570 C   0  0  0  0  0  3  0  0  0  0  0  0
  183.1030  178.4860  140.2110 C   0  0  0  0  0  0  0  0  0  0  0  0
  182.0420  176.9740  138.6380 C   0  0  0  0  0  3  0  0  0  0  0  0
  182.1810  177.5580  135.2630 C   0  0  0  0  0  1  0  0  0  0  0  0
  181.3970  177.7920  136.4250 O   0  0  0  0  0  0  0  0  0  0  0  0
  188.3930  178.4090  140.1360 C   0  0  1  0  0  3  0  0  0  0  0  0
  189.6850  177.7130  140.5250 C   0  0  0  0  0  1  0  0  0  0  0  0
  187.8550  177.8070  138.9240 N   0  0  0  0  0  2  0  0  0  0  0  0
  188.0050  178.4160  137.6390 C   0  0  0  0  0  0  0  0  0  0  0  0
  188.8300  179.3520  137.4660 O   0  0  0  0  0  0  0  0  0  0  0  0
  187.1420  177.9760  136.5070 C   0  0  0  0  0  2  0  0  0  0  0  0
  187.1930  176.5200  136.3720 N   0  0  0  0  0  0  0  0  0  0  0  0
  186.1150  174.2610  136.9580 C   0  0  0  0  0  1  0  0  0  0  0  0
  186.1000  175.7520  136.9220 C   0  0  0  0  0  0  0  0  0  0  0  0
  188.2940  175.9210  135.6470 C   0  0  0  0  0  0  0  0  0  0  0  0
  188.2680  174.7060  135.3190 O   0  0  0  0  0  0  0  0  0  0  0  0
  185.1000  176.3420  137.4130 O   0  0  0  0  0  0  0  0  0  0  0  0
  189.4980  176.7270  135.2710 C   0  0  0  0  0  2  0  0  0  0  0  0
  190.7180  176.1980  135.9450 C   0  0  0  0  0  0  0  0  0  0  0  0
  192.8630  175.0760  135.8330 C   0  0  0  0  0  3  0  0  0  0  0  0
  191.9900  175.8040  137.9720 C   0  0  0  0  0  3  0  0  0  0  0  0
  192.9960  175.1900  137.2210 C   0  0  0  0  0  3  0  0  0  0  0  0
  190.8500  176.3070  137.3350 C   0  0  0  0  0  3  0  0  0  0  0  0
  191.7240  175.5790  135.1960 C   0  0  0  0  0  3  0  0  0  0  0  0
  1 14  1  0  0  0  0
  2  7  1  1  0  0  0
  3 12  1  0  0  0  0
  3 13  1  1  0  0  0
  5 16  1  6  0  0  0
  5  9  1  0  0  0  0
  6  2  1  0  0  0  0
  8 10  1  1  0  0  0
  8  5  1  0  0  0  0
  9  2  1  0  0  0  0
 10  6  1  0  0  0  0
 11  4  2  0  0  0  0
 12  4  1  6  0  0  0
 12  8  1  0  0  0  0
 13 16  1  0  0  0  0
 14  3  1  0  0  0  0
 15 11  1  0  0  0  0
 15 14  2  0  0  0  0
 17 20  1  0  0  0  0
 18 17  2  0  0  0  0
 18 22  1  0  0  0  0
 19 21  1  0  0  0  0
 20 21  2  0  0  0  0
 21  1  1  0  0  0  0
 22 19  2  0  0  0  0
 23 24  1  0  0  0  0
 24 18  1  0  0  0  0
 25 26  1  1  0  0  0
 25 11  1  0  0  0  0
 27 25  1  0  0  0  0
 28 27  1  0  0  0  0
 29 28  2  0  0  0  0
 30 28  1  0  0  0  0
 31 30  1  0  0  0  0
 31 33  1  0  0  0  0
 33 32  1  0  0  0  0
 33 36  2  0  0  0  0
 34 31  1  0  0  0  0
 35 34  2  0  0  0  0
 37 34  1  0  0  0  0
 37 38  1  0  0  0  0
 38 42  1  0  0  0  0
 39 41  2  0  0  0  0
 41 40  1  0  0  0  0
 42 40  2  0  0  0  0
 43 39  1  0  0  0  0
 43 38  2  0  0  0  0
M  END
>  <MODEL>
1

>  <REMARK>
 VINA RESULT:      -9.4      0.000      0.000
  Name = 
  8 active torsions:
  status: ('A' for Active; 'I' for Inactive)
    1  A    between atoms: N_1  and  C_35
    2  A    between atoms: C_2  and  N_6
    3  A    between atoms: C_2  and  C_27
    4  A    between atoms: C_3  and  N_4
    5  A    between atoms: C_3  and  C_12
    6  A    between atoms: C_11  and  C_14
    7  A    between atoms: C_14  and  C_22
    8  A    between atoms: C_19  and  O_37
                            x       y       z     vdW  Elec       q    Type
                         _______ _______ _______ _____ _____    ______ ____

>  <TORSDO>
F 8

$$$$
=
 OpenBabel11052416403D

 43 47  0  0  1  0  0  0  0  0999 V2000
  186.0370  177.6910  144.3950 N   0  0  0  0  0  2  0  0  0  0  0  0
  181.1290  179.6310  138.8880 C   0  0  2  0  0  3  0  0  0  0  0  0
  184.6920  178.0730  142.2640 C   0  0  2  0  0  3  0  0  0  0  0  0
  186.0260  178.7420  140.2690 C   0  0  0  0  0  3  0  0  0  0  0  0
  182.3050  179.3690  141.1540 C   0  0  1  0  0  3  0  0  0  0  0  0
  182.2620  180.6230  138.6500 C   0  0  0  0  0  2  0  0  0  0  0  0
  179.9310  180.1580  138.4080 O   0  0  0  0  0  1  0  0  0  0  0  0
  183.5120  179.0400  140.2540 C   0  0  1  0  0  3  0  0  0  0  0  0
  180.9830  179.2930  140.3770 C   0  0  0  0  0  2  0  0  0  0  0  0
  183.6120  180.0390  139.0860 C   0  0  0  0  0  2  0  0  0  0  0  0
  187.1420  178.3390  140.8930 C   0  0  0  0  0  0  0  0  0  0  0  0
  184.8010  179.0450  141.0820 C   0  0  1  0  0  3  0  0  0  0  0  0
  183.5370  178.4970  143.1640 C   0  0  0  0  0  2  0  0  0  0  0  0
  186.0140  178.0020  142.9930 C   0  0  0  0  0  0  0  0  0  0  0  0
  187.1220  178.0800  142.3080 N   0  0  0  0  0  0  0  0  0  0  0  0
  182.2340  178.4460  142.3700 C   0  0  0  0  0  2  0  0  0  0  0  0
  188.2470  177.8430  147.4300 C   0  0  0  0  0  3  0  0  0  0  0  0
  189.4770  177.4710  146.8790 C   0  0  0  0  0  0  0  0  0  0  0  0
  188.4160  177.2570  144.7030 C   0  0  0  0  0  3  0  0  0  0  0  0
  187.1080  177.9220  146.6240 C   0  0  0  0  0  3  0  0  0  0  0  0
  187.1860  177.6330  145.2520 C   0  0  0  0  0  0  0  0  0  0  0  0
  189.5560  177.1770  145.5070 C   0  0  0  0  0  3  0  0  0  0  0  0
  191.6380  176.4520  147.5160 C   0  0  0  0  0  1  0  0  0  0  0  0
  190.5980  177.4010  147.7090 O   0  0  0  0  0  0  0  0  0  0  0  0
  188.4240  178.1640  140.1360 C   0  0  1  0  0  3  0  0  0  0  0  0
  189.3680  177.2460  140.8910 C   0  0  0  0  0  1  0  0  0  0  0  0
  188.1610  177.6200  138.8110 N   0  0  0  0  0  2  0  0  0  0  0  0
  188.3520  178.3860  137.6200 C   0  0  0  0  0  0  0  0  0  0  0  0
  189.0030  179.4640  137.6490 O   0  0  0  0  0  0  0  0  0  0  0  0
  187.7320  177.9350  136.3430 C   0  0  0  0  0  2  0  0  0  0  0  0
  187.3050  176.5390  136.4570 N   0  0  0  0  0  0  0  0  0  0  0  0
  187.9200  174.0640  136.1340 C   0  0  0  0  0  1  0  0  0  0  0  0
  188.2810  175.5110  136.1780 C   0  0  0  0  0  0  0  0  0  0  0  0
  185.9570  176.2510  136.8980 C   0  0  0  0  0  0  0  0  0  0  0  0
  185.6160  175.0830  137.2180 O   0  0  0  0  0  0  0  0  0  0  0  0
  189.4780  175.8270  135.9400 O   0  0  0  0  0  0  0  0  0  0  0  0
  184.9260  177.3340  136.9810 C   0  0  0  0  0  2  0  0  0  0  0  0
  183.6220  176.7850  137.4480 C   0  0  0  0  0  0  0  0  0  0  0  0
  181.2870  176.2760  137.0410 C   0  0  0  0  0  3  0  0  0  0  0  0
  182.2770  175.7720  139.1940 C   0  0  0  0  0  3  0  0  0  0  0  0
  181.1710  175.7680  138.3400 C   0  0  0  0  0  3  0  0  0  0  0  0
  183.5020  176.2820  138.7490 C   0  0  0  0  0  3  0  0  0  0  0  0
  182.5120  176.7840  136.5960 C   0  0  0  0  0  3  0  0  0  0  0  0
  1 21  1  0  0  0  0
  2  7  1  1  0  0  0
  2  9  1  0  0  0  0
  3 14  1  0  0  0  0
  3 13  1  1  0  0  0
  4 11  2  0  0  0  0
  5  9  1  6  0  0  0
  5 16  1  0  0  0  0
  6  2  1  0  0  0  0
  6 10  1  0  0  0  0
  8 10  1  6  0  0  0
  8 12  1  0  0  0  0
  8  5  1  0  0  0  0
 11 15  1  0  0  0  0
 12  4  1  6  0  0  0
 12  3  1  0  0  0  0
 14  1  1  0  0  0  0
 15 14  2  0  0  0  0
 16 13  1  0  0  0  0
 18 17  1  0  0  0  0
 18 24  1  0  0  0  0
 19 21  2  0  0  0  0
 19 22  1  0  0  0  0
 20 17  2  0  0  0  0
 21 20  1  0  0  0  0
 22 18  2  0  0  0  0
 23 24  1  0  0  0  0
 25 26  1  1  0  0  0
 25 11  1  0  0  0  0
 27 25  1  0  0  0  0
 28 29  2  0  0  0  0
 28 27  1  0  0  0  0
 30 31  1  0  0  0  0
 30 28  1  0  0  0  0
 31 34  1  0  0  0  0
 32 33  1  0  0  0  0
 33 31  1  0  0  0  0
 34 37  1  0  0  0  0
 34 35  2  0  0  0  0
 36 33  2  0  0  0  0
 37 38  1  0  0  0  0
 38 42  1  0  0  0  0
 39 41  2  0  0  0  0
 41 40  1  0  0  0  0
 42 40  2  0  0  0  0
 43 39  1  0  0  0  0
 43 38  2  0  0  0  0
M  END
>  <MODEL>
2

>  <REMARK>
 VINA RESULT:      -9.2      1.990      7.431
  Name = 
  8 active torsions:
  status: ('A' for Active; 'I' for Inactive)
    1  A    between atoms: N_1  and  C_35
    2  A    between atoms: C_2  and  N_6
    3  A    between atoms: C_2  and  C_27
    4  A    between atoms: C_3  and  N_4
    5  A    between atoms: C_3  and  C_12
    6  A    between atoms: C_11  and  C_14
    7  A    between atoms: C_14  and  C_22
    8  A    between atoms: C_19  and  O_37
                            x       y       z     vdW  Elec       q    Type
                         _______ _______ _______ _____ _____    ______ ____

>  <TORSDO>
F 8

$$$$
=
 OpenBabel11052416403D

 43 47  0  0  1  0  0  0  0  0999 V2000
  185.5520  178.5840  142.5150 N   0  0  0  0  0  2  0  0  0  0  0  0
  191.5880  176.8090  146.8260 C   0  0  2  0  0  3  0  0  0  0  0  0
  187.8200  178.2620  143.6300 C   0  0  2  0  0  3  0  0  0  0  0  0
  189.6790  177.6280  142.0970 C   0  0  0  0  0  3  0  0  0  0  0  0
  189.2060  177.0100  145.8940 C   0  0  1  0  0  3  0  0  0  0  0  0
  191.7290  175.8130  145.6800 C   0  0  0  0  0  2  0  0  0  0  0  0
  192.2030  176.3030  147.9690 O   0  0  0  0  0  1  0  0  0  0  0  0
  189.9660  177.3500  144.5970 C   0  0  1  0  0  3  0  0  0  0  0  0
  190.1150  177.1140  147.1260 C   0  0  0  0  0  2  0  0  0  0  0  0
  191.1400  176.3770  144.3800 C   0  0  0  0  0  2  0  0  0  0  0  0
  188.9320  178.0080  141.0510 C   0  0  0  0  0  0  0  0  0  0  0  0
  189.0070  177.3160  143.4030 C   0  0  1  0  0  3  0  0  0  0  0  0
  187.0570  177.8260  144.8760 C   0  0  0  0  0  2  0  0  0  0  0  0
  186.9550  178.3060  142.3920 C   0  0  0  0  0  0  0  0  0  0  0  0
  187.5210  178.2340  141.2190 N   0  0  0  0  0  0  0  0  0  0  0  0
  187.9820  177.9050  146.0870 C   0  0  0  0  0  2  0  0  0  0  0  0
  183.8030  179.3530  139.2790 C   0  0  0  0  0  3  0  0  0  0  0  0
  182.6320  178.6020  139.4280 C   0  0  0  0  0  0  0  0  0  0  0  0
  183.4070  177.8610  141.6090 C   0  0  0  0  0  3  0  0  0  0  0  0
  184.7710  179.3570  140.2870 C   0  0  0  0  0  3  0  0  0  0  0  0
  184.5770  178.6140  141.4620 C   0  0  0  0  0  0  0  0  0  0  0  0
  182.4390  177.8540  140.6010 C   0  0  0  0  0  3  0  0  0  0  0  0
  180.3260  178.2460  138.6090 C   0  0  0  0  0  1  0  0  0  0  0  0
  181.6830  178.6170  138.4030 O   0  0  0  0  0  0  0  0  0  0  0  0
  189.5460  178.1900  139.6950 C   0  0  1  0  0  3  0  0  0  0  0  0
  190.8350  177.3970  139.5820 C   0  0  0  0  0  1  0  0  0  0  0  0
  188.6160  177.7690  138.6570 N   0  0  0  0  0  2  0  0  0  0  0  0
  188.2940  178.5990  137.5380 C   0  0  0  0  0  0  0  0  0  0  0  0
  188.9970  179.6090  137.2670 O   0  0  0  0  0  0  0  0  0  0  0  0
  187.0870  178.2990  136.7170 C   0  0  0  0  0  2  0  0  0  0  0  0
  187.1220  176.9090  136.2620 N   0  0  0  0  0  0  0  0  0  0  0  0
  188.0940  175.2110  134.5940 C   0  0  0  0  0  1  0  0  0  0  0  0
  188.0650  176.5630  135.2240 C   0  0  0  0  0  0  0  0  0  0  0  0
  186.2630  175.9380  136.9050 C   0  0  0  0  0  0  0  0  0  0  0  0
  186.4130  174.7040  136.7010 O   0  0  0  0  0  0  0  0  0  0  0  0
  188.8870  177.4230  134.8070 O   0  0  0  0  0  0  0  0  0  0  0  0
  185.1660  176.3710  137.8280 C   0  0  0  0  0  2  0  0  0  0  0  0
  183.8310  176.0910  137.2280 C   0  0  0  0  0  0  0  0  0  0  0  0
  182.1990  176.4450  135.4720 C   0  0  0  0  0  3  0  0  0  0  0  0
  181.6860  174.9640  137.3190 C   0  0  0  0  0  3  0  0  0  0  0  0
  181.3150  175.5740  136.1170 C   0  0  0  0  0  3  0  0  0  0  0  0
  182.9430  175.2240  137.8760 C   0  0  0  0  0  3  0  0  0  0  0  0
  183.4570  176.7030  136.0270 C   0  0  0  0  0  3  0  0  0  0  0  0
  2  9  1  0  0  0  0
  2  7  1  1  0  0  0
  3 13  1  1  0  0  0
  5 16  1  1  0  0  0
  5  9  1  0  0  0  0
  6  2  1  0  0  0  0
  8 10  1  6  0  0  0
  8  5  1  0  0  0  0
 10  6  1  0  0  0  0
 11 15  1  0  0  0  0
 11  4  2  0  0  0  0
 12  4  1  6  0  0  0
 12  3  1  0  0  0  0
 12  8  1  0  0  0  0
 13 16  1  0  0  0  0
 14  1  1  0  0  0  0
 14  3  1  0  0  0  0
 15 14  2  0  0  0  0
 17 18  2  0  0  0  0
 17 20  1  0  0  0  0
 18 22  1  0  0  0  0
 20 21  2  0  0  0  0
 21 19  1  0  0  0  0
 21  1  1  0  0  0  0
 22 19  2  0  0  0  0
 24 23  1  0  0  0  0
 24 18  1  0  0  0  0
 25 26  1  1  0  0  0
 25 11  1  0  0  0  0
 27 25  1  0  0  0  0
 28 27  1  0  0  0  0
 29 28  2  0  0  0  0
 30 28  1  0  0  0  0
 31 30  1  0  0  0  0
 31 34  1  0  0  0  0
 32 33  1  0  0  0  0
 33 31  1  0  0  0  0
 34 37  1  0  0  0  0
 35 34  2  0  0  0  0
 36 33  2  0  0  0  0
 38 37  1  0  0  0  0
 38 42  1  0  0  0  0
 39 43  1  0  0  0  0
 39 41  2  0  0  0  0
 40 42  2  0  0  0  0
 41 40  1  0  0  0  0
 43 38  2  0  0  0  0
M  END
>  <MODEL>
3

>  <REMARK>
 VINA RESULT:      -9.1      1.969      4.315
  Name = 
  8 active torsions:
  status: ('A' for Active; 'I' for Inactive)
    1  A    between atoms: N_1  and  C_35
    2  A    between atoms: C_2  and  N_6
    3  A    between atoms: C_2  and  C_27
    4  A    between atoms: C_3  and  N_4
    5  A    between atoms: C_3  and  C_12
    6  A    between atoms: C_11  and  C_14
    7  A    between atoms: C_14  and  C_22
    8  A    between atoms: C_19  and  O_37
                            x       y       z     vdW  Elec       q    Type
                         _______ _______ _______ _____ _____    ______ ____

>  <TORSDO>
F 8

$$$$
=
 OpenBabel11052416403D

 43 47  0  0  1  0  0  0  0  0999 V2000
  186.3330  177.5570  144.3650 N   0  0  0  0  0  2  0  0  0  0  0  0
  181.3290  179.4900  138.9440 C   0  0  2  0  0  3  0  0  0  0  0  0
  184.9560  177.9450  142.2560 C   0  0  2  0  0  3  0  0  0  0  0  0
  186.2550  178.6610  140.2550 C   0  0  0  0  0  3  0  0  0  0  0  0
  182.5360  179.2170  141.1920 C   0  0  1  0  0  3  0  0  0  0  0  0
  182.4420  180.5030  138.7060 C   0  0  0  0  0  2  0  0  0  0  0  0
  180.1170  180.0040  138.4860 O   0  0  0  0  0  1  0  0  0  0  0  0
  183.7370  178.9190  140.2730 C   0  0  1  0  0  3  0  0  0  0  0  0
  181.2060  179.1300  140.4300 C   0  0  0  0  0  2  0  0  0  0  0  0
  183.8060  179.9350  139.1170 C   0  0  0  0  0  2  0  0  0  0  0  0
  187.3850  178.2680  140.8590 C   0  0  0  0  0  0  0  0  0  0  0  0
  185.0350  178.9350  141.0860 C   0  0  1  0  0  3  0  0  0  0  0  0
  183.8060  178.3390  143.1760 C   0  0  0  0  0  2  0  0  0  0  0  0
  186.2880  177.8850  142.9680 C   0  0  0  0  0  0  0  0  0  0  0  0
  187.3860  177.9910  142.2710 N   0  0  0  0  0  0  0  0  0  0  0  0
  182.4940  178.2770  142.3960 C   0  0  0  0  0  2  0  0  0  0  0  0
  189.8690  177.1280  145.5630 C   0  0  0  0  0  3  0  0  0  0  0  0
  189.7290  177.4540  146.9160 C   0  0  0  0  0  0  0  0  0  0  0  0
  187.3560  177.8350  146.5600 C   0  0  0  0  0  3  0  0  0  0  0  0
  188.7600  177.1560  144.7130 C   0  0  0  0  0  3  0  0  0  0  0  0
  187.4930  177.5060  145.2080 C   0  0  0  0  0  0  0  0  0  0  0  0
  188.4640  177.8080  147.4110 C   0  0  0  0  0  3  0  0  0  0  0  0
  191.8170  176.3710  147.6830 C   0  0  0  0  0  1  0  0  0  0  0  0
  190.8560  177.4170  147.7410 O   0  0  0  0  0  0  0  0  0  0  0  0
  188.6600  178.1240  140.0850 C   0  0  1  0  0  3  0  0  0  0  0  0
  189.5900  177.1370  140.7670 C   0  0  0  0  0  1  0  0  0  0  0  0
  188.3810  177.6800  138.7260 N   0  0  0  0  0  2  0  0  0  0  0  0
  188.4750  178.5590  137.6020 C   0  0  0  0  0  0  0  0  0  0  0  0
  189.0550  179.6710  137.7060 O   0  0  0  0  0  0  0  0  0  0  0  0
  187.8360  178.1780  136.3110 C   0  0  0  0  0  2  0  0  0  0  0  0
  187.6980  176.7230  136.2280 N   0  0  0  0  0  0  0  0  0  0  0  0
  186.3040  174.6520  136.8430 C   0  0  0  0  0  1  0  0  0  0  0  0
  186.4910  176.1300  136.7550 C   0  0  0  0  0  0  0  0  0  0  0  0
  188.7360  175.9560  135.5740 C   0  0  0  0  0  0  0  0  0  0  0  0
  188.5610  174.7430  135.2870 O   0  0  0  0  0  0  0  0  0  0  0  0
  185.5600  176.8660  137.1800 O   0  0  0  0  0  0  0  0  0  0  0  0
  190.0510  176.5800  135.2250 C   0  0  0  0  0  2  0  0  0  0  0  0
  191.1480  175.9910  136.0430 C   0  0  0  0  0  0  0  0  0  0  0  0
  193.0320  174.4800  136.2600 C   0  0  0  0  0  3  0  0  0  0  0  0
  192.3330  175.8220  138.1520 C   0  0  0  0  0  3  0  0  0  0  0  0
  193.1940  174.8740  137.5920 C   0  0  0  0  0  3  0  0  0  0  0  0
  191.3090  176.3790  137.3790 C   0  0  0  0  0  3  0  0  0  0  0  0
  192.0090  175.0380  135.4860 C   0  0  0  0  0  3  0  0  0  0  0  0
  1 21  1  0  0  0  0
  2  7  1  1  0  0  0
  2  9  1  0  0  0  0
  3 14  1  0  0  0  0
  3 13  1  1  0  0  0
  4 11  2  0  0  0  0
  5  9  1  6  0  0  0
  5 16  1  0  0  0  0
  6  2  1  0  0  0  0
  6 10  1  0  0  0  0
  8 10  1  6  0  0  0
  8 12  1  0  0  0  0
  8  5  1  0  0  0  0
 11 15  1  0  0  0  0
 12  4  1  6  0  0  0
 12  3  1  0  0  0  0
 14  1  1  0  0  0  0
 15 14  2  0  0  0  0
 16 13  1  0  0  0  0
 17 18  1  0  0  0  0
 18 22  2  0  0  0  0
 18 24  1  0  0  0  0
 19 22  1  0  0  0  0
 20 21  1  0  0  0  0
 20 17  2  0  0  0  0
 21 19  2  0  0  0  0
 23 24  1  0  0  0  0
 25 26  1  1  0  0  0
 25 11  1  0  0  0  0
 27 25  1  0  0  0  0
 28 29  2  0  0  0  0
 28 27  1  0  0  0  0
 30 28  1  0  0  0  0
 31 30  1  0  0  0  0
 31 33  1  0  0  0  0
 33 32  1  0  0  0  0
 33 36  2  0  0  0  0
 34 31  1  0  0  0  0
 35 34  2  0  0  0  0
 37 34  1  0  0  0  0
 37 38  1  0  0  0  0
 38 42  1  0  0  0  0
 39 41  2  0  0  0  0
 41 40  1  0  0  0  0
 42 40  2  0  0  0  0
 43 38  2  0  0  0  0
 43 39  1  0  0  0  0
M  END
>  <MODEL>
4

>  <REMARK>
 VINA RESULT:      -8.6      1.525      6.365
  Name = 
  8 active torsions:
  status: ('A' for Active; 'I' for Inactive)
    1  A    between atoms: N_1  and  C_35
    2  A    between atoms: C_2  and  N_6
    3  A    between atoms: C_2  and  C_27
    4  A    between atoms: C_3  and  N_4
    5  A    between atoms: C_3  and  C_12
    6  A    between atoms: C_11  and  C_14
    7  A    between atoms: C_14  and  C_22
    8  A    between atoms: C_19  and  O_37
                            x       y       z     vdW  Elec       q    Type
                         _______ _______ _______ _____ _____    ______ ____

>  <TORSDO>
F 8

$$$$
=
 OpenBabel11052416403D

 43 47  0  0  1  0  0  0  0  0999 V2000
  185.4140  178.6040  142.5480 N   0  0  0  0  0  2  0  0  0  0  0  0
  191.6260  176.7210  146.5530 C   0  0  2  0  0  3  0  0  0  0  0  0
  187.7280  178.2460  143.5520 C   0  0  2  0  0  3  0  0  0  0  0  0
  189.5060  177.6070  141.9280 C   0  0  0  0  0  3  0  0  0  0  0  0
  189.2040  176.9570  145.7360 C   0  0  1  0  0  3  0  0  0  0  0  0
  191.7000  175.7350  145.3930 C   0  0  0  0  0  2  0  0  0  0  0  0
  192.2880  176.1960  147.6620 O   0  0  0  0  0  1  0  0  0  0  0  0
  189.9060  177.3020  144.4080 C   0  0  1  0  0  3  0  0  0  0  0  0
  190.1720  177.0390  146.9250 C   0  0  0  0  0  2  0  0  0  0  0  0
  191.0580  176.3180  144.1270 C   0  0  0  0  0  2  0  0  0  0  0  0
  188.7150  178.0060  140.9210 C   0  0  0  0  0  0  0  0  0  0  0  0
  188.8920  177.2890  143.2600 C   0  0  1  0  0  3  0  0  0  0  0  0
  187.0190  177.8060  144.8280 C   0  0  0  0  0  2  0  0  0  0  0  0
  186.8070  178.3120  142.3560 C   0  0  0  0  0  0  0  0  0  0  0  0
  187.3160  178.2460  141.1570 N   0  0  0  0  0  0  0  0  0  0  0  0
  188.0010  177.8630  145.9960 C   0  0  0  0  0  2  0  0  0  0  0  0
  183.6370  179.0970  139.2740 C   0  0  0  0  0  3  0  0  0  0  0  0
  182.3400  178.7020  139.6170 C   0  0  0  0  0  0  0  0  0  0  0  0
  183.0940  178.2570  141.8830 C   0  0  0  0  0  3  0  0  0  0  0  0
  184.6570  179.0720  140.2290 C   0  0  0  0  0  3  0  0  0  0  0  0
  184.3910  178.6550  141.5420 C   0  0  0  0  0  0  0  0  0  0  0  0
  182.0730  178.2810  140.9300 C   0  0  0  0  0  3  0  0  0  0  0  0
  181.0560  177.6330  137.7930 C   0  0  0  0  0  1  0  0  0  0  0  0
  181.3400  178.7380  138.6410 O   0  0  0  0  0  0  0  0  0  0  0  0
  189.2660  178.1940  139.5400 C   0  0  1  0  0  3  0  0  0  0  0  0
  190.6320  177.5430  139.4170 C   0  0  0  0  0  1  0  0  0  0  0  0
  188.3600  177.6290  138.5500 N   0  0  0  0  0  2  0  0  0  0  0  0
  188.2120  178.1900  137.2440 C   0  0  0  0  0  0  0  0  0  0  0  0
  189.0450  179.0260  136.8070 O   0  0  0  0  0  0  0  0  0  0  0  0
  187.0310  177.8220  136.4110 C   0  0  0  0  0  2  0  0  0  0  0  0
  186.9080  176.3660  136.3290 N   0  0  0  0  0  0  0  0  0  0  0  0
  185.6670  174.2600  137.1260 C   0  0  0  0  0  1  0  0  0  0  0  0
  185.8110  175.7420  137.0330 C   0  0  0  0  0  0  0  0  0  0  0  0
  187.8430  175.6270  135.5070 C   0  0  0  0  0  0  0  0  0  0  0  0
  187.6470  174.4140  135.2340 O   0  0  0  0  0  0  0  0  0  0  0  0
  184.9470  176.4540  137.6110 O   0  0  0  0  0  0  0  0  0  0  0  0
  189.0750  176.2820  134.9630 C   0  0  0  0  0  2  0  0  0  0  0  0
  190.2940  175.7500  135.6340 C   0  0  0  0  0  0  0  0  0  0  0  0
  191.3270  174.4920  137.4310 C   0  0  0  0  0  3  0  0  0  0  0  0
  192.7080  175.5400  135.7390 C   0  0  0  0  0  3  0  0  0  0  0  0
  192.5900  174.7700  136.8990 C   0  0  0  0  0  3  0  0  0  0  0  0
  191.5600  176.0320  135.1070 C   0  0  0  0  0  3  0  0  0  0  0  0
  190.1790  174.9820  136.7990 C   0  0  0  0  0  3  0  0  0  0  0  0
  2  9  1  0  0  0  0
  2  7  1  1  0  0  0
  3 13  1  1  0  0  0
  5 16  1  1  0  0  0
  5  9  1  0  0  0  0
  6  2  1  0  0  0  0
  8 10  1  6  0  0  0
  8  5  1  0  0  0  0
 10  6  1  0  0  0  0
 11 15  1  0  0  0  0
 11  4  2  0  0  0  0
 12  4  1  6  0  0  0
 12  3  1  0  0  0  0
 12  8  1  0  0  0  0
 13 16  1  0  0  0  0
 14  1  1  0  0  0  0
 14  3  1  0  0  0  0
 15 14  2  0  0  0  0
 17 18  2  0  0  0  0
 17 20  1  0  0  0  0
 18 22  1  0  0  0  0
 20 21  2  0  0  0  0
 21 19  1  0  0  0  0
 21  1  1  0  0  0  0
 22 19  2  0  0  0  0
 23 24  1  0  0  0  0
 24 18  1  0  0  0  0
 25 26  1  1  0  0  0
 25 11  1  0  0  0  0
 27 25  1  0  0  0  0
 28 27  1  0  0  0  0
 29 28  2  0  0  0  0
 30 28  1  0  0  0  0
 31 30  1  0  0  0  0
 31 33  1  0  0  0  0
 33 32  1  0  0  0  0
 33 36  2  0  0  0  0
 34 31  1  0  0  0  0
 35 34  2  0  0  0  0
 37 34  1  0  0  0  0
 37 38  1  0  0  0  0
 38 43  1  0  0  0  0
 40 41  2  0  0  0  0
 41 39  1  0  0  0  0
 42 38  2  0  0  0  0
 42 40  1  0  0  0  0
 43 39  2  0  0  0  0
M  END
>  <MODEL>
5

>  <REMARK>
 VINA RESULT:      -8.5      1.508      2.165
  Name = 
  8 active torsions:
  status: ('A' for Active; 'I' for Inactive)
    1  A    between atoms: N_1  and  C_35
    2  A    between atoms: C_2  and  N_6
    3  A    between atoms: C_2  and  C_27
    4  A    between atoms: C_3  and  N_4
    5  A    between atoms: C_3  and  C_12
    6  A    between atoms: C_11  and  C_14
    7  A    between atoms: C_14  and  C_22
    8  A    between atoms: C_19  and  O_37
                            x       y       z     vdW  Elec       q    Type
                         _______ _______ _______ _____ _____    ______ ____

>  <TORSDO>
F 8

$$$$
=
 OpenBabel11052416403D

 43 47  0  0  1  0  0  0  0  0999 V2000
  189.6700  176.7760  140.2150 N   0  0  0  0  0  2  0  0  0  0  0  0
  191.1510  176.5390  147.6930 C   0  0  2  0  0  3  0  0  0  0  0  0
  189.6950  176.5560  142.7540 C   0  0  2  0  0  3  0  0  0  0  0  0
  187.7830  177.6310  143.9340 C   0  0  0  0  0  3  0  0  0  0  0  0
  191.3690  176.8080  145.1510 C   0  0  1  0  0  3  0  0  0  0  0  0
  190.4430  177.8820  147.5650 C   0  0  0  0  0  2  0  0  0  0  0  0
  191.9950  176.5530  148.8020 O   0  0  0  0  0  1  0  0  0  0  0  0
  189.8360  176.9430  145.2430 C   0  0  1  0  0  3  0  0  0  0  0  0
  191.9630  176.2110  146.4340 C   0  0  0  0  0  2  0  0  0  0  0  0
  189.4390  177.8720  146.4060 C   0  0  0  0  0  2  0  0  0  0  0  0
  187.1190  177.7040  142.7710 C   0  0  0  0  0  0  0  0  0  0  0  0
  189.2740  177.4640  143.9170 C   0  0  1  0  0  3  0  0  0  0  0  0
  191.2160  176.5300  142.6570 C   0  0  0  0  0  2  0  0  0  0  0  0
  189.0290  177.0160  141.4780 C   0  0  0  0  0  0  0  0  0  0  0  0
  187.8170  177.4950  141.5310 N   0  0  0  0  0  0  0  0  0  0  0  0
  191.7940  175.9620  143.9510 C   0  0  0  0  0  2  0  0  0  0  0  0
  188.6340  178.8990  137.2930 C   0  0  0  0  0  3  0  0  0  0  0  0
  188.3390  177.9150  136.3440 C   0  0  0  0  0  0  0  0  0  0  0  0
  188.9220  176.2020  137.9670 C   0  0  0  0  0  3  0  0  0  0  0  0
  189.0700  178.5380  138.5710 C   0  0  0  0  0  3  0  0  0  0  0  0
  189.2130  177.1860  138.9180 C   0  0  0  0  0  0  0  0  0  0  0  0
  188.4860  176.5610  136.6890 C   0  0  0  0  0  3  0  0  0  0  0  0
  186.5440  178.2200  134.6690 C   0  0  0  0  0  1  0  0  0  0  0  0
  187.9040  178.3060  135.0750 O   0  0  0  0  0  0  0  0  0  0  0  0
  185.6530  178.0130  142.7420 C   0  0  1  0  0  3  0  0  0  0  0  0
  185.2130  178.6390  144.0530 C   0  0  0  0  0  1  0  0  0  0  0  0
  185.3460  178.9120  141.6390 N   0  0  0  0  0  2  0  0  0  0  0  0
  184.2220  178.7100  140.7790 C   0  0  0  0  0  0  0  0  0  0  0  0
  183.3080  177.9040  141.0990 O   0  0  0  0  0  0  0  0  0  0  0  0
  184.1560  179.4160  139.4690 C   0  0  0  0  0  2  0  0  0  0  0  0
  183.4680  178.5840  138.4820 N   0  0  0  0  0  0  0  0  0  0  0  0
  183.6820  176.8130  136.6300 C   0  0  0  0  0  1  0  0  0  0  0  0
  184.2530  177.6170  137.7490 C   0  0  0  0  0  0  0  0  0  0  0  0
  182.0350  178.7190  138.3270 C   0  0  0  0  0  0  0  0  0  0  0  0
  181.3740  177.8830  137.6570 O   0  0  0  0  0  0  0  0  0  0  0  0
  185.4690  177.4480  138.0350 O   0  0  0  0  0  0  0  0  0  0  0  0
  181.2970  179.8610  138.9540 C   0  0  0  0  0  2  0  0  0  0  0  0
  181.1140  180.9710  137.9750 C   0  0  0  0  0  0  0  0  0  0  0  0
  180.4380  181.7500  135.7820 C   0  0  0  0  0  3  0  0  0  0  0  0
  181.3080  183.3200  137.4080 C   0  0  0  0  0  3  0  0  0  0  0  0
  180.7910  183.0560  136.1370 C   0  0  0  0  0  3  0  0  0  0  0  0
  181.4710  182.2780  138.3270 C   0  0  0  0  0  3  0  0  0  0  0  0
  180.6000  180.7070  136.7000 C   0  0  0  0  0  3  0  0  0  0  0  0
  1 14  1  0  0  0  0
  2  7  1  1  0  0  0
  3 13  1  6  0  0  0
  3 12  1  0  0  0  0
  5 16  1  6  0  0  0
  5  8  1  0  0  0  0
  5  9  1  0  0  0  0
  6  2  1  0  0  0  0
  8 10  1  1  0  0  0
  9  2  1  0  0  0  0
 10  6  1  0  0  0  0
 11  4  2  0  0  0  0
 12  4  1  1  0  0  0
 12  8  1  0  0  0  0
 13 16  1  0  0  0  0
 14 15  2  0  0  0  0
 14  3  1  0  0  0  0
 15 11  1  0  0  0  0
 17 20  1  0  0  0  0
 18 22  1  0  0  0  0
 18 17  2  0  0  0  0
 19 21  1  0  0  0  0
 20 21  2  0  0  0  0
 21  1  1  0  0  0  0
 22 19  2  0  0  0  0
 23 24  1  0  0  0  0
 24 18  1  0  0  0  0
 25 11  1  0  0  0  0
 25 26  1  1  0  0  0
 27 25  1  0  0  0  0
 28 29  2  0  0  0  0
 28 27  1  0  0  0  0
 30 28  1  0  0  0  0
 31 30  1  0  0  0  0
 32 33  1  0  0  0  0
 33 36  2  0  0  0  0
 33 31  1  0  0  0  0
 34 31  1  0  0  0  0
 34 37  1  0  0  0  0
 35 34  2  0  0  0  0
 38 42  1  0  0  0  0
 38 37  1  0  0  0  0
 39 41  2  0  0  0  0
 39 43  1  0  0  0  0
 40 42  2  0  0  0  0
 41 40  1  0  0  0  0
 43 38  2  0  0  0  0
M  END
>  <MODEL>
6

>  <REMARK>
 VINA RESULT:      -8.5      2.390      6.837
  Name = 
  8 active torsions:
  status: ('A' for Active; 'I' for Inactive)
    1  A    between atoms: N_1  and  C_35
    2  A    between atoms: C_2  and  N_6
    3  A    between atoms: C_2  and  C_27
    4  A    between atoms: C_3  and  N_4
    5  A    between atoms: C_3  and  C_12
    6  A    between atoms: C_11  and  C_14
    7  A    between atoms: C_14  and  C_22
    8  A    between atoms: C_19  and  O_37
                            x       y       z     vdW  Elec       q    Type
                         _______ _______ _______ _____ _____    ______ ____

>  <TORSDO>
F 8

$$$$
=
 OpenBabel11052416403D

 43 47  0  0  1  0  0  0  0  0999 V2000
  187.2810  177.4180  144.9110 N   0  0  0  0  0  2  0  0  0  0  0  0
  182.2990  179.2310  139.4260 C   0  0  2  0  0  3  0  0  0  0  0  0
  185.8880  177.7240  142.7980 C   0  0  2  0  0  3  0  0  0  0  0  0
  187.1890  178.1930  140.7260 C   0  0  0  0  0  3  0  0  0  0  0  0
  183.5320  179.0610  141.6700 C   0  0  1  0  0  3  0  0  0  0  0  0
  183.4700  180.1480  139.0900 C   0  0  0  0  0  2  0  0  0  0  0  0
  181.1140  179.7830  138.9460 O   0  0  0  0  0  1  0  0  0  0  0  0
  184.6930  178.6140  140.7610 C   0  0  1  0  0  3  0  0  0  0  0  0
  182.1840  179.0000  140.9380 C   0  0  0  0  0  2  0  0  0  0  0  0
  184.8030  179.5280  139.5260 C   0  0  0  0  0  2  0  0  0  0  0  0
  188.3040  177.7780  141.3430 C   0  0  0  0  0  0  0  0  0  0  0  0
  186.0060  178.6100  141.5510 C   0  0  1  0  0  3  0  0  0  0  0  0
  184.7840  178.2650  143.7000 C   0  0  0  0  0  2  0  0  0  0  0  0
  187.2280  177.6360  143.4920 C   0  0  0  0  0  0  0  0  0  0  0  0
  188.3160  177.6140  142.7730 N   0  0  0  0  0  0  0  0  0  0  0  0
  183.4560  178.2260  142.9480 C   0  0  0  0  0  2  0  0  0  0  0  0
  189.5670  177.5550  147.8890 C   0  0  0  0  0  3  0  0  0  0  0  0
  190.7850  177.1990  147.3020 C   0  0  0  0  0  0  0  0  0  0  0  0
  189.6700  177.0010  145.1520 C   0  0  0  0  0  3  0  0  0  0  0  0
  188.4070  177.6330  147.1140 C   0  0  0  0  0  3  0  0  0  0  0  0
  188.4520  177.3600  145.7370 C   0  0  0  0  0  0  0  0  0  0  0  0
  190.8310  176.9210  145.9260 C   0  0  0  0  0  3  0  0  0  0  0  0
  192.7810  175.9920  148.1250 C   0  0  0  0  0  1  0  0  0  0  0  0
  191.9290  177.1290  148.1020 O   0  0  0  0  0  0  0  0  0  0  0  0
  189.5520  177.4900  140.5640 C   0  0  1  0  0  3  0  0  0  0  0  0
  190.5760  176.7860  141.4370 C   0  0  0  0  0  1  0  0  0  0  0  0
  189.2460  176.6670  139.4020 N   0  0  0  0  0  2  0  0  0  0  0  0
  190.1850  176.4610  138.3440 C   0  0  0  0  0  0  0  0  0  0  0  0
  191.3980  176.7610  138.4980 O   0  0  0  0  0  0  0  0  0  0  0  0
  189.7150  175.9360  137.0310 C   0  0  0  0  0  2  0  0  0  0  0  0
  188.3370  176.3600  136.7840 N   0  0  0  0  0  0  0  0  0  0  0  0
  186.7120  178.3260  136.4600 C   0  0  0  0  0  1  0  0  0  0  0  0
  188.0900  177.7700  136.5860 C   0  0  0  0  0  0  0  0  0  0  0  0
  187.3000  175.3560  136.6880 C   0  0  0  0  0  0  0  0  0  0  0  0
  186.1510  175.6490  136.2640 O   0  0  0  0  0  0  0  0  0  0  0  0
  189.0570  178.5780  136.5370 O   0  0  0  0  0  0  0  0  0  0  0  0
  187.5600  173.9380  137.0960 C   0  0  0  0  0  2  0  0  0  0  0  0
  186.4030  173.0680  136.7430 C   0  0  0  0  0  0  0  0  0  0  0  0
  185.3580  171.4550  135.2660 C   0  0  0  0  0  3  0  0  0  0  0  0
  184.1680  172.2560  137.2190 C   0  0  0  0  0  3  0  0  0  0  0  0
  184.2180  171.4500  136.0780 C   0  0  0  0  0  3  0  0  0  0  0  0
  185.2590  173.0660  137.5510 C   0  0  0  0  0  3  0  0  0  0  0  0
  186.4490  172.2640  135.5990 C   0  0  0  0  0  3  0  0  0  0  0  0
  1 21  1  0  0  0  0
  2  7  1  1  0  0  0
  2  9  1  0  0  0  0
  3 14  1  0  0  0  0
  3 13  1  1  0  0  0
  4 11  2  0  0  0  0
  5  9  1  6  0  0  0
  5 16  1  0  0  0  0
  6  2  1  0  0  0  0
  6 10  1  0  0  0  0
  8 10  1  6  0  0  0
  8 12  1  0  0  0  0
  8  5  1  0  0  0  0
 11 15  1  0  0  0  0
 12  4  1  6  0  0  0
 12  3  1  0  0  0  0
 14  1  1  0  0  0  0
 15 14  2  0  0  0  0
 16 13  1  0  0  0  0
 18 17  1  0  0  0  0
 18 24  1  0  0  0  0
 19 21  2  0  0  0  0
 19 22  1  0  0  0  0
 20 17  2  0  0  0  0
 21 20  1  0  0  0  0
 22 18  2  0  0  0  0
 24 23  1  0  0  0  0
 25 11  1  0  0  0  0
 25 26  1  1  0  0  0
 27 25  1  0  0  0  0
 28 29  2  0  0  0  0
 28 27  1  0  0  0  0
 30 28  1  0  0  0  0
 31 30  1  0  0  0  0
 32 33  1  0  0  0  0
 33 31  1  0  0  0  0
 34 31  1  0  0  0  0
 34 37  1  0  0  0  0
 35 34  2  0  0  0  0
 36 33  2  0  0  0  0
 38 37  1  0  0  0  0
 38 42  1  0  0  0  0
 39 43  1  0  0  0  0
 39 41  2  0  0  0  0
 40 42  2  0  0  0  0
 41 40  1  0  0  0  0
 43 38  2  0  0  0  0
M  END
>  <MODEL>
7

>  <REMARK>
 VINA RESULT:      -8.1      2.079      7.256
  Name = 
  8 active torsions:
  status: ('A' for Active; 'I' for Inactive)
    1  A    between atoms: N_1  and  C_35
    2  A    between atoms: C_2  and  N_6
    3  A    between atoms: C_2  and  C_27
    4  A    between atoms: C_3  and  N_4
    5  A    between atoms: C_3  and  C_12
    6  A    between atoms: C_11  and  C_14
    7  A    between atoms: C_14  and  C_22
    8  A    between atoms: C_19  and  O_37
                            x       y       z     vdW  Elec       q    Type
                         _______ _______ _______ _____ _____    ______ ____

>  <TORSDO>
F 8

$$$$
=
 OpenBabel11052416403D

 43 47  0  0  1  0  0  0  0  0999 V2000
  188.9680  177.8410  141.5210 N   0  0  0  0  0  2  0  0  0  0  0  0
  193.3220  175.9500  135.5500 C   0  0  2  0  0  3  0  0  0  0  0  0
  190.1590  177.5490  139.2870 C   0  0  2  0  0  3  0  0  0  0  0  0
  188.6650  177.3330  137.3050 C   0  0  0  0  0  3  0  0  0  0  0  0
  192.2860  176.0840  137.8940 C   0  0  1  0  0  3  0  0  0  0  0  0
  192.0480  175.1650  135.2600 C   0  0  0  0  0  2  0  0  0  0  0  0
  194.4100  175.3270  134.9430 O   0  0  0  0  0  1  0  0  0  0  0  0
  191.1060  176.6900  137.1110 C   0  0  1  0  0  3  0  0  0  0  0  0
  193.5740  176.0720  137.0580 C   0  0  0  0  0  2  0  0  0  0  0  0
  190.8160  175.8710  135.8380 C   0  0  0  0  0  2  0  0  0  0  0  0
  187.6450  177.8050  138.0350 C   0  0  0  0  0  0  0  0  0  0  0  0
  189.8640  176.7600  138.0050 C   0  0  1  0  0  3  0  0  0  0  0  0
  191.2740  176.8560  140.0620 C   0  0  0  0  0  2  0  0  0  0  0  0
  188.8910  177.7110  140.0930 C   0  0  0  0  0  0  0  0  0  0  0  0
  187.7580  177.8760  139.4680 N   0  0  0  0  0  0  0  0  0  0  0  0
  192.5380  176.8250  139.2070 C   0  0  0  0  0  2  0  0  0  0  0  0
  186.8490  177.5360  144.6080 C   0  0  0  0  0  3  0  0  0  0  0  0
  185.7010  178.2260  144.2090 C   0  0  0  0  0  0  0  0  0  0  0  0
  186.7270  178.6440  142.0460 C   0  0  0  0  0  3  0  0  0  0  0  0
  187.9300  177.3990  143.7330 C   0  0  0  0  0  3  0  0  0  0  0  0
  187.8750  177.9500  142.4430 C   0  0  0  0  0  0  0  0  0  0  0  0
  185.6450  178.7820  142.9200 C   0  0  0  0  0  3  0  0  0  0  0  0
  183.4080  178.9750  144.7580 C   0  0  0  0  0  1  0  0  0  0  0  0
  184.6360  178.3460  145.1050 O   0  0  0  0  0  0  0  0  0  0  0  0
  186.3730  178.2520  137.3790 C   0  0  1  0  0  3  0  0  0  0  0  0
  186.3780  177.8910  135.9050 C   0  0  0  0  0  1  0  0  0  0  0  0
  185.2240  177.6430  138.0320 N   0  0  0  0  0  2  0  0  0  0  0  0
  184.4240  178.3480  138.9850 C   0  0  0  0  0  0  0  0  0  0  0  0
  184.5190  179.5980  139.1000 O   0  0  0  0  0  0  0  0  0  0  0  0
  183.5100  177.5920  139.8870 C   0  0  0  0  0  2  0  0  0  0  0  0
  182.2500  177.3040  139.2000 N   0  0  0  0  0  0  0  0  0  0  0  0
  181.0070  175.8180  137.5100 C   0  0  0  0  0  1  0  0  0  0  0  0
  182.1940  176.1310  138.3580 C   0  0  0  0  0  0  0  0  0  0  0  0
  181.1090  178.1620  139.4370 C   0  0  0  0  0  0  0  0  0  0  0  0
  179.9590  177.8340  139.0460 O   0  0  0  0  0  0  0  0  0  0  0  0
  183.1770  175.3440  138.3080 O   0  0  0  0  0  0  0  0  0  0  0  0
  181.2640  179.4700  140.1500 C   0  0  0  0  0  2  0  0  0  0  0  0
  180.5390  179.4500  141.4520 C   0  0  0  0  0  0  0  0  0  0  0  0
  180.0370  178.3690  143.5630 C   0  0  0  0  0  3  0  0  0  0  0  0
  178.9660  180.4660  142.9920 C   0  0  0  0  0  3  0  0  0  0  0  0
  179.1580  179.4090  143.8860 C   0  0  0  0  0  3  0  0  0  0  0  0
  179.6540  180.4860  141.7740 C   0  0  0  0  0  3  0  0  0  0  0  0
  180.7270  178.3900  142.3460 C   0  0  0  0  0  3  0  0  0  0  0  0
  1 21  1  0  0  0  0
  2  7  1  6  0  0  0
  2  9  1  0  0  0  0
  3 13  1  1  0  0  0
  3 14  1  0  0  0  0
  4 11  2  0  0  0  0
  5  9  1  6  0  0  0
  5 16  1  0  0  0  0
  6  2  1  0  0  0  0
  6 10  1  0  0  0  0
  8 10  1  6  0  0  0
  8  5  1  0  0  0  0
  8 12  1  0  0  0  0
 11 15  1  0  0  0  0
 12  4  1  6  0  0  0
 12  3  1  0  0  0  0
 14  1  1  0  0  0  0
 15 14  2  0  0  0  0
 16 13  1  0  0  0  0
 18 17  1  0  0  0  0
 18 24  1  0  0  0  0
 19 21  2  0  0  0  0
 19 22  1  0  0  0  0
 20 17  2  0  0  0  0
 21 20  1  0  0  0  0
 22 18  2  0  0  0  0
 23 24  1  0  0  0  0
 25 26  1  6  0  0  0
 25 27  1  0  0  0  0
 25 11  1  0  0  0  0
 27 28  1  0  0  0  0
 28 29  2  0  0  0  0
 28 30  1  0  0  0  0
 31 34  1  0  0  0  0
 31 30  1  0  0  0  0
 32 33  1  0  0  0  0
 33 31  1  0  0  0  0
 34 37  1  0  0  0  0
 35 34  2  0  0  0  0
 36 33  2  0  0  0  0
 37 38  1  0  0  0  0
 38 42  2  0  0  0  0
 38 43  1  0  0  0  0
 39 41  1  0  0  0  0
 40 41  2  0  0  0  0
 42 40  1  0  0  0  0
 43 39  2  0  0  0  0
M  END
>  <MODEL>
8

>  <REMARK>
 VINA RESULT:      -7.8      2.537      8.951
  Name = 
  8 active torsions:
  status: ('A' for Active; 'I' for Inactive)
    1  A    between atoms: N_1  and  C_35
    2  A    between atoms: C_2  and  N_6
    3  A    between atoms: C_2  and  C_27
    4  A    between atoms: C_3  and  N_4
    5  A    between atoms: C_3  and  C_12
    6  A    between atoms: C_11  and  C_14
    7  A    between atoms: C_14  and  C_22
    8  A    between atoms: C_19  and  O_37
                            x       y       z     vdW  Elec       q    Type
                         _______ _______ _______ _____ _____    ______ ____

>  <TORSDO>
F 8

$$$$
=
 OpenBabel11052416403D

 43 47  0  0  1  0  0  0  0  0999 V2000
  190.4550  176.5760  140.8600 N   0  0  0  0  0  2  0  0  0  0  0  0
  185.0280  178.3250  145.9260 C   0  0  2  0  0  3  0  0  0  0  0  0
  188.3320  177.0510  142.1860 C   0  0  2  0  0  3  0  0  0  0  0  0
  186.6450  178.4690  141.0230 C   0  0  0  0  0  3  0  0  0  0  0  0
  187.2920  177.8880  144.8000 C   0  0  1  0  0  3  0  0  0  0  0  0
  185.1020  179.6070  145.1040 C   0  0  0  0  0  2  0  0  0  0  0  0
  184.5570  178.6120  147.2060 O   0  0  0  0  0  1  0  0  0  0  0  0
  186.4590  178.0930  143.5190 C   0  0  1  0  0  3  0  0  0  0  0  0
  186.3980  177.6410  146.0230 C   0  0  0  0  0  2  0  0  0  0  0  0
  185.5320  179.3160  143.6600 C   0  0  0  0  0  2  0  0  0  0  0  0
  187.2740  178.2450  139.8600 C   0  0  0  0  0  0  0  0  0  0  0  0
  187.3870  178.2540  142.3110 C   0  0  1  0  0  3  0  0  0  0  0  0
  189.1890  176.9490  143.4430 C   0  0  0  0  0  2  0  0  0  0  0  0
  189.1490  177.1700  140.9210 C   0  0  0  0  0  0  0  0  0  0  0  0
  188.5990  177.6850  139.8560 N   0  0  0  0  0  0  0  0  0  0  0  0
  188.2840  176.7340  144.6540 C   0  0  0  0  0  2  0  0  0  0  0  0
  193.5610  177.1840  138.8360 C   0  0  0  0  0  3  0  0  0  0  0  0
  193.1650  176.6880  137.5900 C   0  0  0  0  0  0  0  0  0  0  0  0
  190.9900  176.1340  138.5230 C   0  0  0  0  0  3  0  0  0  0  0  0
  192.6790  177.1550  139.9190 C   0  0  0  0  0  3  0  0  0  0  0  0
  191.3850  176.6330  139.7680 C   0  0  0  0  0  0  0  0  0  0  0  0
  191.8710  176.1620  137.4380 C   0  0  0  0  0  3  0  0  0  0  0  0
  194.6740  175.5630  135.9860 C   0  0  0  0  0  1  0  0  0  0  0  0
  194.0690  176.7300  136.5250 O   0  0  0  0  0  0  0  0  0  0  0  0
  186.6190  178.5840  138.5550 C   0  0  1  0  0  3  0  0  0  0  0  0
  187.3800  177.9610  137.3990 C   0  0  0  0  0  1  0  0  0  0  0  0
  185.2390  178.1180  138.5450 N   0  0  0  0  0  2  0  0  0  0  0  0
  184.1500  178.9520  138.9460 C   0  0  0  0  0  0  0  0  0  0  0  0
  184.3070  180.1950  139.0710 O   0  0  0  0  0  0  0  0  0  0  0  0
  182.8310  178.3390  139.2720 C   0  0  0  0  0  2  0  0  0  0  0  0
  181.9160  178.4810  138.1390 N   0  0  0  0  0  0  0  0  0  0  0  0
  181.2790  177.7030  135.7730 C   0  0  0  0  0  1  0  0  0  0  0  0
  182.0660  177.5650  137.0320 C   0  0  0  0  0  0  0  0  0  0  0  0
  180.8730  179.4830  138.2000 C   0  0  0  0  0  0  0  0  0  0  0  0
  179.9390  179.4970  137.3570 O   0  0  0  0  0  0  0  0  0  0  0  0
  182.9000  176.6220  137.1040 O   0  0  0  0  0  0  0  0  0  0  0  0
  180.8780  180.5360  139.2640 C   0  0  0  0  0  2  0  0  0  0  0  0
  180.6030  181.8790  138.6780 C   0  0  0  0  0  0  0  0  0  0  0  0
  181.3270  183.7980  137.3880 C   0  0  0  0  0  3  0  0  0  0  0  0
  179.1040  183.7560  138.3490 C   0  0  0  0  0  3  0  0  0  0  0  0
  180.0850  184.4070  137.5970 C   0  0  0  0  0  3  0  0  0  0  0  0
  179.3630  182.4920  138.8920 C   0  0  0  0  0  3  0  0  0  0  0  0
  181.5860  182.5340  137.9280 C   0  0  0  0  0  3  0  0  0  0  0  0
  1 14  1  0  0  0  0
  2  9  1  0  0  0  0
  2  7  1  1  0  0  0
  3 12  1  0  0  0  0
  3 13  1  1  0  0  0
  5 16  1  6  0  0  0
  5  9  1  0  0  0  0
  6  2  1  0  0  0  0
  8 10  1  1  0  0  0
  8  5  1  0  0  0  0
 10  6  1  0  0  0  0
 11  4  2  0  0  0  0
 12  4  1  6  0  0  0
 12  8  1  0  0  0  0
 13 16  1  0  0  0  0
 14  3  1  0  0  0  0
 15 11  1  0  0  0  0
 15 14  2  0  0  0  0
 17 20  1  0  0  0  0
 18 17  2  0  0  0  0
 19 21  1  0  0  0  0
 21 20  2  0  0  0  0
 21  1  1  0  0  0  0
 22 18  1  0  0  0  0
 22 19  2  0  0  0  0
 23 24  1  0  0  0  0
 24 18  1  0  0  0  0
 25 26  1  6  0  0  0
 25 11  1  0  0  0  0
 27 25  1  0  0  0  0
 27 28  1  0  0  0  0
 28 29  2  0  0  0  0
 28 30  1  0  0  0  0
 31 34  1  0  0  0  0
 31 30  1  0  0  0  0
 32 33  1  0  0  0  0
 33 36  2  0  0  0  0
 33 31  1  0  0  0  0
 34 37  1  0  0  0  0
 35 34  2  0  0  0  0
 38 42  1  0  0  0  0
 38 37  1  0  0  0  0
 39 41  2  0  0  0  0
 39 43  1  0  0  0  0
 40 42  2  0  0  0  0
 41 40  1  0  0  0  0
 43 38  2  0  0  0  0
M  END
>  <MODEL>
9

>  <REMARK>
 VINA RESULT:      -7.8      2.623      8.029
  Name = 
  8 active torsions:
  status: ('A' for Active; 'I' for Inactive)
    1  A    between atoms: N_1  and  C_35
    2  A    between atoms: C_2  and  N_6
    3  A    between atoms: C_2  and  C_27
    4  A    between atoms: C_3  and  N_4
    5  A    between atoms: C_3  and  C_12
    6  A    between atoms: C_11  and  C_14
    7  A    between atoms: C_14  and  C_22
    8  A    between atoms: C_19  and  O_37
                            x       y       z     vdW  Elec       q    Type
                         _______ _______ _______ _____ _____    ______ ____

>  <TORSDO>
F 8

$$$$
