=
 OpenBabel11052412273D

 30 33  0  0  1  0  0  0  0  0999 V2000
  186.1530  177.8340  142.6980 C   0  0  0  0  0  3  0  0  0  0  0  0
  183.8370  178.4650  142.2930 C   0  0  0  0  0  0  0  0  0  0  0  0
  185.6830  178.5250  146.8280 C   0  0  0  0  0  3  0  0  0  0  0  0
  187.2330  177.6270  143.5570 C   0  0  0  0  0  0  0  0  0  0  0  0
  186.7570  178.3240  147.6970 C   0  0  0  0  0  3  0  0  0  0  0  0
  182.6020  178.8920  142.7840 C   0  0  0  0  0  3  0  0  0  0  0  0
  183.9850  178.2340  140.8940 N   0  0  0  0  0  1  0  0  0  0  0  0
  185.8240  178.3000  145.4470 C   0  0  0  0  0  0  0  0  0  0  0  0
  182.4280  179.1270  144.1480 C   0  0  0  0  0  3  0  0  0  0  0  0
  184.9140  178.2660  143.1780 C   0  0  0  0  0  0  0  0  0  0  0  0
  187.0780  177.8610  144.9420 C   0  0  0  0  0  0  0  0  0  0  0  0
  187.9870  177.8930  147.2000 C   0  0  0  0  0  3  0  0  0  0  0  0
  188.1450  177.6630  145.8330 C   0  0  0  0  0  3  0  0  0  0  0  0
  183.4900  178.9330  145.0330 C   0  0  0  0  0  3  0  0  0  0  0  0
  184.7430  178.5010  144.5640 C   0  0  0  0  0  0  0  0  0  0  0  0
  188.5280  177.1660  142.9370 C   0  0  1  0  0  3  0  0  0  0  0  0
  190.3850  178.6150  142.4750 O   0  0  0  0  0  1  0  0  0  0  0  0
  189.1290  178.2240  142.0080 C   0  0  1  0  0  3  0  0  0  0  0  0
  188.2400  177.7250  139.7230 N   0  0  0  0  0  0  0  0  0  0  0  0
  190.6040  176.9520  139.9650 S   0  0  0  0  0  0  0  0  0  0  0  0
  189.2530  177.7070  140.6100 C   0  0  0  0  0  0  0  0  0  0  0  0
  188.5820  177.1430  138.5410 C   0  0  0  0  0  3  0  0  0  0  0  0
  189.8820  176.6400  138.4760 C   0  0  0  0  0  3  0  0  0  0  0  0
  189.4440  176.8010  143.9290 O   0  0  0  0  0  0  0  0  0  0  0  0
  190.2070  175.7760  143.3610 C   0  0  0  0  0  2  0  0  0  0  0  0
  191.5520  175.6800  144.0590 C   0  0  0  0  0  2  0  0  0  0  0  0
  191.6870  176.7850  145.0920 C   0  0  0  0  0  2  0  0  0  0  0  0
  191.7100  176.9420  147.5770 O   0  0  0  0  0  1  0  0  0  0  0  0
  191.9550  176.1980  146.4310 C   0  0  0  0  0  0  0  0  0  0  0  0
  192.3700  175.0150  146.5270 O   0  0  0  0  0  0  0  0  0  0  0  0
  1 10  2  0  0  0  0
  1  4  1  0  0  0  0
  2  6  2  0  0  0  0
  2 10  1  0  0  0  0
  3  5  2  0  0  0  0
  4 11  2  0  0  0  0
  6  9  1  0  0  0  0
  7  2  1  0  0  0  0
  8  3  1  0  0  0  0
  9 14  2  0  0  0  0
 10 15  1  0  0  0  0
 11  8  1  0  0  0  0
 11 13  1  0  0  0  0
 12  5  1  0  0  0  0
 13 12  2  0  0  0  0
 15 14  1  0  0  0  0
 15  8  2  0  0  0  0
 16  4  1  0  0  0  0
 16 24  1  1  0  0  0
 18 17  1  1  0  0  0
 18 16  1  0  0  0  0
 19 21  2  0  0  0  0
 20 21  1  0  0  0  0
 21 18  1  0  0  0  0
 22 19  1  0  0  0  0
 23 22  2  0  0  0  0
 23 20  1  0  0  0  0
 25 24  1  0  0  0  0
 25 26  1  0  0  0  0
 26 27  1  0  0  0  0
 27 29  1  0  0  0  0
 29 30  2  0  0  0  0
 29 28  1  0  0  0  0
M  END
>  <MODEL>
1

>  <REMARK>
 VINA RESULT:      -9.6      0.000      0.000
  Name = 
  8 active torsions:
  status: ('A' for Active; 'I' for Inactive)
    1  A    between atoms: C_4  and  C_13
    2  A    between atoms: C_7  and  C_15
    3  A    between atoms: C_7  and  C_16
    4  A    between atoms: C_8  and  C_12
    5  A    between atoms: C_8  and  C_13
    6  A    between atoms: C_13  and  O_27
    7  A    between atoms: C_16  and  C_30
    8  A    between atoms: O_27  and  C_30
                            x       y       z     vdW  Elec       q    Type
                         _______ _______ _______ _____ _____    ______ ____

>  <TORSDO>
F 8

$$$$
=
 OpenBabel11052412273D

 30 33  0  0  1  0  0  0  0  0999 V2000
  188.8710  177.4690  143.4330 C   0  0  0  0  0  3  0  0  0  0  0  0
  190.8790  176.8330  144.6540 C   0  0  0  0  0  0  0  0  0  0  0  0
  186.7440  177.9160  147.0430 C   0  0  0  0  0  3  0  0  0  0  0  0
  187.5310  177.8590  143.3980 C   0  0  0  0  0  0  0  0  0  0  0  0
  185.4030  178.3040  147.0210 C   0  0  0  0  0  3  0  0  0  0  0  0
  191.5250  176.5940  145.8690 C   0  0  0  0  0  3  0  0  0  0  0  0
  191.6080  176.6780  143.4390 N   0  0  0  0  0  1  0  0  0  0  0  0
  187.4670  177.7620  145.8470 C   0  0  0  0  0  0  0  0  0  0  0  0
  190.8370  176.7370  147.0740 C   0  0  0  0  0  3  0  0  0  0  0  0
  189.5260  177.2230  144.6420 C   0  0  0  0  0  0  0  0  0  0  0  0
  186.8170  178.0070  144.6080 C   0  0  0  0  0  0  0  0  0  0  0  0
  184.7650  178.5450  145.8040 C   0  0  0  0  0  3  0  0  0  0  0  0
  185.4680  178.3970  144.6080 C   0  0  0  0  0  3  0  0  0  0  0  0
  189.4950  177.1220  147.0720 C   0  0  0  0  0  3  0  0  0  0  0  0
  188.8230  177.3700  145.8630 C   0  0  0  0  0  0  0  0  0  0  0  0
  186.9180  178.0940  142.0410 C   0  0  1  0  0  3  0  0  0  0  0  0
  185.9670  180.2860  142.2720 O   0  0  0  0  0  1  0  0  0  0  0  0
  185.6420  178.9360  142.1260 C   0  0  1  0  0  3  0  0  0  0  0  0
  184.9410  179.4900  139.7890 N   0  0  0  0  0  0  0  0  0  0  0  0
  183.4930  177.7050  140.7720 S   0  0  0  0  0  0  0  0  0  0  0  0
  184.7940  178.7550  140.9080 C   0  0  0  0  0  0  0  0  0  0  0  0
  184.0100  179.1790  138.8450 C   0  0  0  0  0  3  0  0  0  0  0  0
  183.0960  178.1900  139.2080 C   0  0  0  0  0  3  0  0  0  0  0  0
  187.8460  178.6880  141.1800 O   0  0  0  0  0  0  0  0  0  0  0  0
  188.0650  177.7420  140.1730 C   0  0  0  0  0  2  0  0  0  0  0  0
  189.3930  178.0110  139.4870 C   0  0  0  0  0  2  0  0  0  0  0  0
  190.4550  177.0600  140.0100 C   0  0  0  0  0  2  0  0  0  0  0  0
  190.4540  175.2210  138.3310 O   0  0  0  0  0  0  0  0  0  0  0  0
  191.0850  176.3300  138.8790 C   0  0  0  0  0  0  0  0  0  0  0  0
  192.1720  176.7370  138.3960 O   0  0  0  0  0  1  0  0  0  0  0  0
  1 10  1  0  0  0  0
  2  6  1  0  0  0  0
  4  1  2  0  0  0  0
  4 11  1  0  0  0  0
  5  3  1  0  0  0  0
  6  9  2  0  0  0  0
  7  2  1  0  0  0  0
  8 15  1  0  0  0  0
  8  3  2  0  0  0  0
 10  2  2  0  0  0  0
 10 15  1  0  0  0  0
 11  8  1  0  0  0  0
 12  5  2  0  0  0  0
 13 11  2  0  0  0  0
 13 12  1  0  0  0  0
 14  9  1  0  0  0  0
 15 14  2  0  0  0  0
 16 24  1  6  0  0  0
 16 18  1  0  0  0  0
 16  4  1  0  0  0  0
 18 17  1  6  0  0  0
 19 21  2  0  0  0  0
 20 21  1  0  0  0  0
 21 18  1  0  0  0  0
 22 23  2  0  0  0  0
 22 19  1  0  0  0  0
 23 20  1  0  0  0  0
 25 24  1  0  0  0  0
 26 27  1  0  0  0  0
 26 25  1  0  0  0  0
 28 29  2  0  0  0  0
 29 27  1  0  0  0  0
 30 29  1  0  0  0  0
M  END
>  <MODEL>
2

>  <REMARK>
 VINA RESULT:      -8.8      2.932      5.589
  Name = 
  8 active torsions:
  status: ('A' for Active; 'I' for Inactive)
    1  A    between atoms: C_4  and  C_13
    2  A    between atoms: C_7  and  C_15
    3  A    between atoms: C_7  and  C_16
    4  A    between atoms: C_8  and  C_12
    5  A    between atoms: C_8  and  C_13
    6  A    between atoms: C_13  and  O_27
    7  A    between atoms: C_16  and  C_30
    8  A    between atoms: O_27  and  C_30
                            x       y       z     vdW  Elec       q    Type
                         _______ _______ _______ _____ _____    ______ ____

>  <TORSDO>
F 8

$$$$
=
 OpenBabel11052412273D

 30 33  0  0  1  0  0  0  0  0999 V2000
  186.9160  177.8690  143.0990 C   0  0  0  0  0  3  0  0  0  0  0  0
  185.0680  178.4130  144.5880 C   0  0  0  0  0  0  0  0  0  0  0  0
  189.4720  177.2620  146.3930 C   0  0  0  0  0  3  0  0  0  0  0  0
  188.2430  177.4990  142.8800 C   0  0  0  0  0  0  0  0  0  0  0  0
  190.8020  176.8930  146.1860 C   0  0  0  0  0  3  0  0  0  0  0  0
  184.5740  178.5790  145.8840 C   0  0  0  0  0  3  0  0  0  0  0  0
  184.1940  178.6210  143.4810 N   0  0  0  0  0  1  0  0  0  0  0  0
  188.6060  177.4690  145.3040 C   0  0  0  0  0  0  0  0  0  0  0  0
  185.4050  178.3830  146.9860 C   0  0  0  0  0  3  0  0  0  0  0  0
  186.4120  178.0420  144.3900 C   0  0  0  0  0  0  0  0  0  0  0  0
  189.1020  177.2980  143.9840 C   0  0  0  0  0  0  0  0  0  0  0  0
  191.2880  176.7250  144.8900 C   0  0  0  0  0  3  0  0  0  0  0  0
  190.4430  176.9260  143.7980 C   0  0  0  0  0  3  0  0  0  0  0  0
  186.7400  178.0160  146.8000 C   0  0  0  0  0  3  0  0  0  0  0  0
  187.2600  177.8410  145.5060 C   0  0  0  0  0  0  0  0  0  0  0  0
  188.6870  177.3440  141.4480 C   0  0  1  0  0  3  0  0  0  0  0  0
  187.5800  179.3900  140.8520 O   0  0  0  0  0  1  0  0  0  0  0  0
  187.7440  178.0560  140.4740 C   0  0  1  0  0  3  0  0  0  0  0  0
  188.8720  179.0310  138.4640 N   0  0  0  0  0  0  0  0  0  0  0  0
  188.1020  176.6930  138.0270 S   0  0  0  0  0  0  0  0  0  0  0  0
  188.2670  177.9940  139.0740 C   0  0  0  0  0  0  0  0  0  0  0  0
  189.2010  178.7470  137.1740 C   0  0  0  0  0  3  0  0  0  0  0  0
  188.8490  177.4720  136.7330 C   0  0  0  0  0  3  0  0  0  0  0  0
  189.9990  177.8030  141.2890 O   0  0  0  0  0  0  0  0  0  0  0  0
  190.6830  176.7450  140.6810 C   0  0  0  0  0  2  0  0  0  0  0  0
  191.8550  177.2770  139.8750 C   0  0  0  0  0  2  0  0  0  0  0  0
  191.9570  176.5420  138.5510 C   0  0  0  0  0  2  0  0  0  0  0  0
  193.7920  176.7060  136.8750 O   0  0  0  0  0  0  0  0  0  0  0  0
  193.3840  176.3900  138.1630 C   0  0  0  0  0  0  0  0  0  0  0  0
  194.2290  176.0070  139.0130 O   0  0  0  0  0  1  0  0  0  0  0  0
  1 10  1  0  0  0  0
  2  6  1  0  0  0  0
  4  1  2  0  0  0  0
  4 11  1  0  0  0  0
  5  3  1  0  0  0  0
  6  9  2  0  0  0  0
  7  2  1  0  0  0  0
  8 15  1  0  0  0  0
  8  3  2  0  0  0  0
 10  2  2  0  0  0  0
 10 15  1  0  0  0  0
 11  8  1  0  0  0  0
 12  5  2  0  0  0  0
 13 11  2  0  0  0  0
 13 12  1  0  0  0  0
 14  9  1  0  0  0  0
 15 14  2  0  0  0  0
 16 24  1  1  0  0  0
 16  4  1  0  0  0  0
 18 17  1  1  0  0  0
 18 16  1  0  0  0  0
 19 21  2  0  0  0  0
 20 21  1  0  0  0  0
 21 18  1  0  0  0  0
 22 19  1  0  0  0  0
 23 22  2  0  0  0  0
 23 20  1  0  0  0  0
 25 24  1  0  0  0  0
 26 25  1  0  0  0  0
 27 26  1  0  0  0  0
 28 29  2  0  0  0  0
 29 27  1  0  0  0  0
 29 30  1  0  0  0  0
M  END
>  <MODEL>
3

>  <REMARK>
 VINA RESULT:      -8.7      2.349      4.185
  Name = 
  8 active torsions:
  status: ('A' for Active; 'I' for Inactive)
    1  A    between atoms: C_4  and  C_13
    2  A    between atoms: C_7  and  C_15
    3  A    between atoms: C_7  and  C_16
    4  A    between atoms: C_8  and  C_12
    5  A    between atoms: C_8  and  C_13
    6  A    between atoms: C_13  and  O_27
    7  A    between atoms: C_16  and  C_30
    8  A    between atoms: O_27  and  C_30
                            x       y       z     vdW  Elec       q    Type
                         _______ _______ _______ _____ _____    ______ ____

>  <TORSDO>
F 8

$$$$
=
 OpenBabel11052412273D

 30 33  0  0  1  0  0  0  0  0999 V2000
  186.7720  178.1820  144.5070 C   0  0  0  0  0  3  0  0  0  0  0  0
  186.5670  178.3710  146.9260 C   0  0  0  0  0  0  0  0  0  0  0  0
  190.6160  176.5020  144.9020 C   0  0  0  0  0  3  0  0  0  0  0  0
  187.4850  177.8190  143.3640 C   0  0  0  0  0  0  0  0  0  0  0  0
  191.3390  176.1370  143.7650 C   0  0  0  0  0  3  0  0  0  0  0  0
  187.1090  178.1790  148.1990 C   0  0  0  0  0  3  0  0  0  0  0  0
  185.2660  178.9400  146.8040 N   0  0  0  0  0  1  0  0  0  0  0  0
  189.3330  177.0650  144.7870 C   0  0  0  0  0  0  0  0  0  0  0  0
  188.3800  177.6260  148.3490 C   0  0  0  0  0  3  0  0  0  0  0  0
  187.3050  178.0000  145.7850 C   0  0  0  0  0  0  0  0  0  0  0  0
  188.7750  177.2580  143.4950 C   0  0  0  0  0  0  0  0  0  0  0  0
  190.7910  176.3270  142.4970 C   0  0  0  0  0  3  0  0  0  0  0  0
  189.5180  176.8830  142.3650 C   0  0  0  0  0  3  0  0  0  0  0  0
  189.1200  177.2560  147.2240 C   0  0  0  0  0  3  0  0  0  0  0  0
  188.5960  177.4360  145.9320 C   0  0  0  0  0  0  0  0  0  0  0  0
  186.8200  178.0630  142.0320 C   0  0  1  0  0  3  0  0  0  0  0  0
  185.6610  180.1040  142.5400 O   0  0  0  0  0  1  0  0  0  0  0  0
  185.4690  178.7670  142.1850 C   0  0  1  0  0  3  0  0  0  0  0  0
  184.7480  179.6240  139.9480 N   0  0  0  0  0  0  0  0  0  0  0  0
  183.5270  177.5290  140.5520 S   0  0  0  0  0  0  0  0  0  0  0  0
  184.6770  178.6940  140.9190 C   0  0  0  0  0  0  0  0  0  0  0  0
  183.8860  179.3670  138.9270 C   0  0  0  0  0  3  0  0  0  0  0  0
  183.1020  178.2240  139.0780 C   0  0  0  0  0  3  0  0  0  0  0  0
  187.6650  178.7930  141.1890 O   0  0  0  0  0  0  0  0  0  0  0  0
  187.7570  178.0330  140.0190 C   0  0  0  0  0  2  0  0  0  0  0  0
  188.9570  178.4770  139.2030 C   0  0  0  0  0  2  0  0  0  0  0  0
  189.3610  177.3860  138.2270 C   0  0  0  0  0  2  0  0  0  0  0  0
  190.6760  175.2930  138.5330 O   0  0  0  0  0  0  0  0  0  0  0  0
  190.5520  176.6600  138.7420 C   0  0  0  0  0  0  0  0  0  0  0  0
  191.4640  177.2910  139.3350 O   0  0  0  0  0  1  0  0  0  0  0  0
  1 10  1  0  0  0  0
  2  6  1  0  0  0  0
  4 11  1  0  0  0  0
  4  1  2  0  0  0  0
  5  3  2  0  0  0  0
  6  9  2  0  0  0  0
  7  2  1  0  0  0  0
  8  3  1  0  0  0  0
  8 15  1  0  0  0  0
 10 15  1  0  0  0  0
 10  2  2  0  0  0  0
 11  8  2  0  0  0  0
 12  5  1  0  0  0  0
 13 12  2  0  0  0  0
 13 11  1  0  0  0  0
 14  9  1  0  0  0  0
 15 14  2  0  0  0  0
 16 24  1  6  0  0  0
 16 18  1  0  0  0  0
 16  4  1  0  0  0  0
 18 17  1  6  0  0  0
 19 21  2  0  0  0  0
 20 21  1  0  0  0  0
 21 18  1  0  0  0  0
 22 23  2  0  0  0  0
 22 19  1  0  0  0  0
 23 20  1  0  0  0  0
 25 24  1  0  0  0  0
 26 25  1  0  0  0  0
 27 29  1  0  0  0  0
 27 26  1  0  0  0  0
 28 29  2  0  0  0  0
 29 30  1  0  0  0  0
M  END
>  <MODEL>
4

>  <REMARK>
 VINA RESULT:      -8.7      3.017      5.553
  Name = 
  8 active torsions:
  status: ('A' for Active; 'I' for Inactive)
    1  A    between atoms: C_4  and  C_13
    2  A    between atoms: C_7  and  C_15
    3  A    between atoms: C_7  and  C_16
    4  A    between atoms: C_8  and  C_12
    5  A    between atoms: C_8  and  C_13
    6  A    between atoms: C_13  and  O_27
    7  A    between atoms: C_16  and  C_30
    8  A    between atoms: O_27  and  C_30
                            x       y       z     vdW  Elec       q    Type
                         _______ _______ _______ _____ _____    ______ ____

>  <TORSDO>
F 8

$$$$
=
 OpenBabel11052412273D

 30 33  0  0  1  0  0  0  0  0999 V2000
  185.3540  178.2670  142.1070 C   0  0  0  0  0  3  0  0  0  0  0  0
  183.0390  178.6250  141.4450 C   0  0  0  0  0  0  0  0  0  0  0  0
  184.3130  178.6380  146.1730 C   0  0  0  0  0  3  0  0  0  0  0  0
  186.3430  178.1460  143.0840 C   0  0  0  0  0  0  0  0  0  0  0  0
  185.2940  178.5190  147.1590 C   0  0  0  0  0  3  0  0  0  0  0  0
  181.7080  178.8620  141.7970 C   0  0  0  0  0  3  0  0  0  0  0  0
  183.3790  178.5020  140.0660 N   0  0  0  0  0  1  0  0  0  0  0  0
  184.6440  178.5170  144.8120 C   0  0  0  0  0  0  0  0  0  0  0  0
  181.3450  178.9880  143.1380 C   0  0  0  0  0  3  0  0  0  0  0  0
  184.0210  178.5090  142.4470 C   0  0  0  0  0  0  0  0  0  0  0  0
  185.9950  178.2720  144.4470 C   0  0  0  0  0  0  0  0  0  0  0  0
  186.6200  178.2790  146.8010 C   0  0  0  0  0  3  0  0  0  0  0  0
  186.9670  178.1560  145.4550 C   0  0  0  0  0  3  0  0  0  0  0  0
  182.3120  178.8760  144.1390 C   0  0  0  0  0  3  0  0  0  0  0  0
  183.6570  178.6350  143.8100 C   0  0  0  0  0  0  0  0  0  0  0  0
  187.7510  177.8910  142.6100 C   0  0  1  0  0  3  0  0  0  0  0  0
  188.6860  175.6910  142.8410 O   0  0  0  0  0  1  0  0  0  0  0  0
  188.4910  176.9000  143.5130 C   0  0  1  0  0  3  0  0  0  0  0  0
  190.3360  178.5900  143.4600 N   0  0  0  0  0  0  0  0  0  0  0  0
  190.8740  176.7060  145.0130 S   0  0  0  0  0  0  0  0  0  0  0  0
  189.8120  177.4490  143.9490 C   0  0  0  0  0  0  0  0  0  0  0  0
  191.5730  178.8430  143.9660 C   0  0  0  0  0  3  0  0  0  0  0  0
  192.0600  177.8940  144.8650 C   0  0  0  0  0  3  0  0  0  0  0  0
  187.7490  177.4440  141.2840 O   0  0  0  0  0  0  0  0  0  0  0  0
  188.4770  178.4050  140.5750 C   0  0  0  0  0  2  0  0  0  0  0  0
  189.5410  177.7310  139.7270 C   0  0  0  0  0  2  0  0  0  0  0  0
  188.9750  177.3740  138.3640 C   0  0  0  0  0  2  0  0  0  0  0  0
  186.9680  178.6350  137.5980 O   0  0  0  0  0  1  0  0  0  0  0  0
  188.3470  178.5700  137.7450 C   0  0  0  0  0  0  0  0  0  0  0  0
  189.0630  179.5400  137.3850 O   0  0  0  0  0  0  0  0  0  0  0  0
  1 10  2  0  0  0  0
  1  4  1  0  0  0  0
  2  6  2  0  0  0  0
  2 10  1  0  0  0  0
  3  5  2  0  0  0  0
  4 11  2  0  0  0  0
  6  9  1  0  0  0  0
  7  2  1  0  0  0  0
  8  3  1  0  0  0  0
  9 14  2  0  0  0  0
 10 15  1  0  0  0  0
 11  8  1  0  0  0  0
 11 13  1  0  0  0  0
 12  5  1  0  0  0  0
 13 12  2  0  0  0  0
 15 14  1  0  0  0  0
 15  8  2  0  0  0  0
 16 24  1  6  0  0  0
 16  4  1  0  0  0  0
 16 18  1  0  0  0  0
 18 17  1  6  0  0  0
 18 21  1  0  0  0  0
 19 21  2  0  0  0  0
 19 22  1  0  0  0  0
 21 20  1  0  0  0  0
 22 23  2  0  0  0  0
 23 20  1  0  0  0  0
 25 24  1  0  0  0  0
 26 25  1  0  0  0  0
 27 26  1  0  0  0  0
 28 29  1  0  0  0  0
 29 27  1  0  0  0  0
 30 29  2  0  0  0  0
M  END
>  <MODEL>
5

>  <REMARK>
 VINA RESULT:      -8.6      2.260      4.584
  Name = 
  8 active torsions:
  status: ('A' for Active; 'I' for Inactive)
    1  A    between atoms: C_4  and  C_13
    2  A    between atoms: C_7  and  C_15
    3  A    between atoms: C_7  and  C_16
    4  A    between atoms: C_8  and  C_12
    5  A    between atoms: C_8  and  C_13
    6  A    between atoms: C_13  and  O_27
    7  A    between atoms: C_16  and  C_30
    8  A    between atoms: O_27  and  C_30
                            x       y       z     vdW  Elec       q    Type
                         _______ _______ _______ _____ _____    ______ ____

>  <TORSDO>
F 8

$$$$
=
 OpenBabel11052412273D

 30 33  0  0  1  0  0  0  0  0999 V2000
  189.2810  177.2990  143.9650 C   0  0  0  0  0  3  0  0  0  0  0  0
  190.0670  177.1260  146.2630 C   0  0  0  0  0  0  0  0  0  0  0  0
  185.3990  178.2530  145.2990 C   0  0  0  0  0  3  0  0  0  0  0  0
  188.2730  177.5380  143.0310 C   0  0  0  0  0  0  0  0  0  0  0  0
  184.3820  178.4930  144.3740 C   0  0  0  0  0  3  0  0  0  0  0  0
  189.8080  177.2040  147.6340 C   0  0  0  0  0  3  0  0  0  0  0  0
  191.3830  176.8020  145.8240 N   0  0  0  0  0  1  0  0  0  0  0  0
  186.7000  177.9330  144.8700 C   0  0  0  0  0  0  0  0  0  0  0  0
  188.5290  177.5180  148.0930 C   0  0  0  0  0  3  0  0  0  0  0  0
  189.0330  177.3690  145.3380 C   0  0  0  0  0  0  0  0  0  0  0  0
  186.9700  177.8560  143.4770 C   0  0  0  0  0  0  0  0  0  0  0  0
  184.6480  178.4180  143.0070 C   0  0  0  0  0  3  0  0  0  0  0  0
  185.9330  178.1020  142.5630 C   0  0  0  0  0  3  0  0  0  0  0  0
  187.4980  177.7590  147.1840 C   0  0  0  0  0  3  0  0  0  0  0  0
  187.7330  177.6890  145.8000 C   0  0  0  0  0  0  0  0  0  0  0  0
  188.6440  177.4320  141.5740 C   0  0  1  0  0  3  0  0  0  0  0  0
  188.3040  179.7560  141.0800 O   0  0  0  0  0  1  0  0  0  0  0  0
  187.9110  178.4670  140.7170 C   0  0  1  0  0  3  0  0  0  0  0  0
  189.0290  179.0170  138.5470 N   0  0  0  0  0  0  0  0  0  0  0  0
  187.4230  177.1200  138.2840 S   0  0  0  0  0  0  0  0  0  0  0  0
  188.1810  178.2520  139.2620 C   0  0  0  0  0  0  0  0  0  0  0  0
  189.0560  178.6630  137.2330 C   0  0  0  0  0  3  0  0  0  0  0  0
  188.2150  177.6080  136.8800 C   0  0  0  0  0  3  0  0  0  0  0  0
  190.0290  177.5480  141.4110 O   0  0  0  0  0  0  0  0  0  0  0  0
  190.4090  176.4030  140.7040 C   0  0  0  0  0  2  0  0  0  0  0  0
  191.4760  176.7530  139.6820 C   0  0  0  0  0  2  0  0  0  0  0  0
  191.2190  176.0130  138.3820 C   0  0  0  0  0  2  0  0  0  0  0  0
  193.5560  176.7490  137.9330 O   0  0  0  0  0  1  0  0  0  0  0  0
  192.3830  176.1690  137.4700 C   0  0  0  0  0  0  0  0  0  0  0  0
  192.3170  175.7430  136.2880 O   0  0  0  0  0  0  0  0  0  0  0  0
  1 10  1  0  0  0  0
  2  6  1  0  0  0  0
  4 11  1  0  0  0  0
  4  1  2  0  0  0  0
  5  3  2  0  0  0  0
  6  9  2  0  0  0  0
  7  2  1  0  0  0  0
  8  3  1  0  0  0  0
  8 15  1  0  0  0  0
 10 15  1  0  0  0  0
 10  2  2  0  0  0  0
 11  8  2  0  0  0  0
 12  5  1  0  0  0  0
 13 12  2  0  0  0  0
 13 11  1  0  0  0  0
 14  9  1  0  0  0  0
 15 14  2  0  0  0  0
 16 24  1  1  0  0  0
 16  4  1  0  0  0  0
 18 17  1  1  0  0  0
 18 16  1  0  0  0  0
 19 21  2  0  0  0  0
 20 21  1  0  0  0  0
 21 18  1  0  0  0  0
 22 19  1  0  0  0  0
 23 22  2  0  0  0  0
 23 20  1  0  0  0  0
 25 24  1  0  0  0  0
 26 25  1  0  0  0  0
 27 26  1  0  0  0  0
 29 28  1  0  0  0  0
 29 27  1  0  0  0  0
 30 29  2  0  0  0  0
M  END
>  <MODEL>
6

>  <REMARK>
 VINA RESULT:      -8.6      2.595      5.207
  Name = 
  8 active torsions:
  status: ('A' for Active; 'I' for Inactive)
    1  A    between atoms: C_4  and  C_13
    2  A    between atoms: C_7  and  C_15
    3  A    between atoms: C_7  and  C_16
    4  A    between atoms: C_8  and  C_12
    5  A    between atoms: C_8  and  C_13
    6  A    between atoms: C_13  and  O_27
    7  A    between atoms: C_16  and  C_30
    8  A    between atoms: O_27  and  C_30
                            x       y       z     vdW  Elec       q    Type
                         _______ _______ _______ _____ _____    ______ ____

>  <TORSDO>
F 8

$$$$
=
 OpenBabel11052412273D

 30 33  0  0  1  0  0  0  0  0999 V2000
  185.4440  178.4390  143.0600 C   0  0  0  0  0  3  0  0  0  0  0  0
  184.5470  178.7270  145.3050 C   0  0  0  0  0  0  0  0  0  0  0  0
  189.0900  177.0280  144.6330 C   0  0  0  0  0  3  0  0  0  0  0  0
  186.4710  178.0690  142.1900 C   0  0  0  0  0  0  0  0  0  0  0  0
  190.1250  176.6560  143.7730 C   0  0  0  0  0  3  0  0  0  0  0  0
  184.7090  178.6310  146.6890 C   0  0  0  0  0  3  0  0  0  0  0  0
  183.3090  179.2060  144.7840 N   0  0  0  0  0  1  0  0  0  0  0  0
  187.8680  177.5010  144.1230 C   0  0  0  0  0  0  0  0  0  0  0  0
  185.9090  178.1670  147.2270 C   0  0  0  0  0  3  0  0  0  0  0  0
  185.5970  178.3510  144.4460 C   0  0  0  0  0  0  0  0  0  0  0  0
  187.6940  177.5970  142.7170 C   0  0  0  0  0  0  0  0  0  0  0  0
  189.9540  176.7510  142.3920 C   0  0  0  0  0  3  0  0  0  0  0  0
  188.7470  177.2180  141.8690 C   0  0  0  0  0  3  0  0  0  0  0  0
  186.9570  177.7920  146.3840 C   0  0  0  0  0  3  0  0  0  0  0  0
  186.8170  177.8780  144.9880 C   0  0  0  0  0  0  0  0  0  0  0  0
  186.2050  178.2070  140.7130 C   0  0  1  0  0  3  0  0  0  0  0  0
  184.9300  179.9550  139.6710 O   0  0  0  0  0  1  0  0  0  0  0  0
  184.8170  178.7890  140.4310 C   0  0  1  0  0  3  0  0  0  0  0  0
  183.0550  177.0150  140.3310 N   0  0  0  0  0  0  0  0  0  0  0  0
  184.0290  177.4560  138.0710 S   0  0  0  0  0  0  0  0  0  0  0  0
  183.9540  177.8040  139.7100 C   0  0  0  0  0  0  0  0  0  0  0  0
  182.4400  176.1600  139.4680 C   0  0  0  0  0  3  0  0  0  0  0  0
  182.8520  176.2520  138.1390 C   0  0  0  0  0  3  0  0  0  0  0  0
  187.1980  178.9830  140.1060 O   0  0  0  0  0  0  0  0  0  0  0  0
  187.5920  178.2530  138.9800 C   0  0  0  0  0  2  0  0  0  0  0  0
  189.0410  178.5590  138.6430 C   0  0  0  0  0  2  0  0  0  0  0  0
  189.5170  177.6600  137.5160 C   0  0  0  0  0  2  0  0  0  0  0  0
  190.4050  175.9500  139.0940 O   0  0  0  0  0  1  0  0  0  0  0  0
  190.6110  176.7770  137.9980 C   0  0  0  0  0  0  0  0  0  0  0  0
  191.7130  176.7530  137.3910 O   0  0  0  0  0  0  0  0  0  0  0  0
  1 10  1  0  0  0  0
  2  6  1  0  0  0  0
  4 11  1  0  0  0  0
  4  1  2  0  0  0  0
  5  3  2  0  0  0  0
  6  9  2  0  0  0  0
  7  2  1  0  0  0  0
  8  3  1  0  0  0  0
  8 15  1  0  0  0  0
 10 15  1  0  0  0  0
 10  2  2  0  0  0  0
 11  8  2  0  0  0  0
 12  5  1  0  0  0  0
 13 12  2  0  0  0  0
 13 11  1  0  0  0  0
 14  9  1  0  0  0  0
 15 14  2  0  0  0  0
 16 24  1  1  0  0  0
 16  4  1  0  0  0  0
 18 17  1  6  0  0  0
 18 16  1  0  0  0  0
 20 23  1  0  0  0  0
 20 21  1  0  0  0  0
 21 19  2  0  0  0  0
 21 18  1  0  0  0  0
 22 19  1  0  0  0  0
 23 22  2  0  0  0  0
 25 24  1  0  0  0  0
 26 25  1  0  0  0  0
 27 29  1  0  0  0  0
 27 26  1  0  0  0  0
 29 28  1  0  0  0  0
 30 29  2  0  0  0  0
M  END
>  <MODEL>
7

>  <REMARK>
 VINA RESULT:      -8.4      3.190      5.361
  Name = 
  8 active torsions:
  status: ('A' for Active; 'I' for Inactive)
    1  A    between atoms: C_4  and  C_13
    2  A    between atoms: C_7  and  C_15
    3  A    between atoms: C_7  and  C_16
    4  A    between atoms: C_8  and  C_12
    5  A    between atoms: C_8  and  C_13
    6  A    between atoms: C_13  and  O_27
    7  A    between atoms: C_16  and  C_30
    8  A    between atoms: O_27  and  C_30
                            x       y       z     vdW  Elec       q    Type
                         _______ _______ _______ _____ _____    ______ ____

>  <TORSDO>
F 8

$$$$
=
 OpenBabel11052412273D

 30 33  0  0  1  0  0  0  0  0999 V2000
  187.1920  177.8940  142.2370 C   0  0  0  0  0  3  0  0  0  0  0  0
  185.3270  178.4410  143.7020 C   0  0  0  0  0  0  0  0  0  0  0  0
  189.6630  177.1350  145.5650 C   0  0  0  0  0  3  0  0  0  0  0  0
  188.5150  177.4980  142.0350 C   0  0  0  0  0  0  0  0  0  0  0  0
  190.9880  176.7400  145.3760 C   0  0  0  0  0  3  0  0  0  0  0  0
  184.8090  178.5830  144.9910 C   0  0  0  0  0  3  0  0  0  0  0  0
  184.4820  178.7010  142.5840 N   0  0  0  0  0  1  0  0  0  0  0  0
  188.8260  177.3930  144.4650 C   0  0  0  0  0  0  0  0  0  0  0  0
  185.6120  178.3370  146.1050 C   0  0  0  0  0  3  0  0  0  0  0  0
  186.6650  178.0440  143.5220 C   0  0  0  0  0  0  0  0  0  0  0  0
  189.3450  177.2460  143.1510 C   0  0  0  0  0  0  0  0  0  0  0  0
  191.4970  176.5960  144.0860 C   0  0  0  0  0  3  0  0  0  0  0  0
  190.6810  176.8470  142.9820 C   0  0  0  0  0  3  0  0  0  0  0  0
  186.9410  177.9440  145.9360 C   0  0  0  0  0  3  0  0  0  0  0  0
  187.4850  177.7910  144.6490 C   0  0  0  0  0  0  0  0  0  0  0  0
  188.9860  177.3720  140.6090 C   0  0  1  0  0  3  0  0  0  0  0  0
  189.0630  179.2240  139.0830 O   0  0  0  0  0  1  0  0  0  0  0  0
  188.2040  178.2870  139.6630 C   0  0  1  0  0  3  0  0  0  0  0  0
  188.0820  176.4270  137.9940 N   0  0  0  0  0  0  0  0  0  0  0  0
  186.0420  177.8690  137.8970 S   0  0  0  0  0  0  0  0  0  0  0  0
  187.5250  177.5000  138.5890 C   0  0  0  0  0  0  0  0  0  0  0  0
  187.2940  175.9210  137.0060 C   0  0  0  0  0  3  0  0  0  0  0  0
  186.0920  176.5970  136.7930 C   0  0  0  0  0  3  0  0  0  0  0  0
  190.3590  177.6270  140.5210 O   0  0  0  0  0  0  0  0  0  0  0  0
  190.8850  176.5460  139.8070 C   0  0  0  0  0  2  0  0  0  0  0  0
  191.6790  177.0470  138.6140 C   0  0  0  0  0  2  0  0  0  0  0  0
  192.2100  175.8750  137.8080 C   0  0  0  0  0  2  0  0  0  0  0  0
  194.5450  175.6010  138.6290 O   0  0  0  0  0  1  0  0  0  0  0  0
  193.6790  176.0090  137.6240 C   0  0  0  0  0  0  0  0  0  0  0  0
  194.1380  176.4580  136.5430 O   0  0  0  0  0  0  0  0  0  0  0  0
  1 10  1  0  0  0  0
  2  6  1  0  0  0  0
  4  1  2  0  0  0  0
  4 11  1  0  0  0  0
  5  3  1  0  0  0  0
  6  9  2  0  0  0  0
  7  2  1  0  0  0  0
  8 15  1  0  0  0  0
  8  3  2  0  0  0  0
 10  2  2  0  0  0  0
 10 15  1  0  0  0  0
 11  8  1  0  0  0  0
 12  5  2  0  0  0  0
 13 11  2  0  0  0  0
 13 12  1  0  0  0  0
 14  9  1  0  0  0  0
 15 14  2  0  0  0  0
 16 24  1  1  0  0  0
 16  4  1  0  0  0  0
 18 17  1  6  0  0  0
 18 16  1  0  0  0  0
 19 21  2  0  0  0  0
 20 21  1  0  0  0  0
 21 18  1  0  0  0  0
 22 19  1  0  0  0  0
 23 22  2  0  0  0  0
 23 20  1  0  0  0  0
 25 24  1  0  0  0  0
 26 25  1  0  0  0  0
 27 26  1  0  0  0  0
 29 27  1  0  0  0  0
 29 28  1  0  0  0  0
 30 29  2  0  0  0  0
M  END
>  <MODEL>
8

>  <REMARK>
 VINA RESULT:      -8.3      2.635      4.618
  Name = 
  8 active torsions:
  status: ('A' for Active; 'I' for Inactive)
    1  A    between atoms: C_4  and  C_13
    2  A    between atoms: C_7  and  C_15
    3  A    between atoms: C_7  and  C_16
    4  A    between atoms: C_8  and  C_12
    5  A    between atoms: C_8  and  C_13
    6  A    between atoms: C_13  and  O_27
    7  A    between atoms: C_16  and  C_30
    8  A    between atoms: O_27  and  C_30
                            x       y       z     vdW  Elec       q    Type
                         _______ _______ _______ _____ _____    ______ ____

>  <TORSDO>
F 8

$$$$
=
 OpenBabel11052412273D

 30 33  0  0  1  0  0  0  0  0999 V2000
  187.0270  178.1750  143.1080 C   0  0  0  0  0  3  0  0  0  0  0  0
  184.8720  178.5540  144.1750 C   0  0  0  0  0  0  0  0  0  0  0  0
  188.8330  177.4990  146.8550 C   0  0  0  0  0  3  0  0  0  0  0  0
  188.3890  177.8760  143.1710 C   0  0  0  0  0  0  0  0  0  0  0  0
  190.1950  177.2000  146.9300 C   0  0  0  0  0  3  0  0  0  0  0  0
  184.0990  178.6260  145.3360 C   0  0  0  0  0  3  0  0  0  0  0  0
  184.2510  178.7850  142.9140 N   0  0  0  0  0  1  0  0  0  0  0  0
  188.2160  177.7280  145.6120 C   0  0  0  0  0  0  0  0  0  0  0  0
  184.6800  178.4060  146.5850 C   0  0  0  0  0  3  0  0  0  0  0  0
  186.2450  178.2540  144.2630 C   0  0  0  0  0  0  0  0  0  0  0  0
  188.9960  177.6510  144.4270 C   0  0  0  0  0  0  0  0  0  0  0  0
  190.9600  177.1260  145.7670 C   0  0  0  0  0  3  0  0  0  0  0  0
  190.3640  177.3500  144.5250 C   0  0  0  0  0  3  0  0  0  0  0  0
  186.0410  178.1090  146.6820 C   0  0  0  0  0  3  0  0  0  0  0  0
  186.8400  178.0290  145.5290 C   0  0  0  0  0  0  0  0  0  0  0  0
  189.1420  177.8200  141.8670 C   0  0  1  0  0  3  0  0  0  0  0  0
  189.6820  175.4940  142.1210 O   0  0  0  0  0  1  0  0  0  0  0  0
  190.2400  176.7520  141.8830 C   0  0  1  0  0  3  0  0  0  0  0  0
  190.6020  176.0040  139.5230 N   0  0  0  0  0  0  0  0  0  0  0  0
  192.4490  177.5020  140.2930 S   0  0  0  0  0  0  0  0  0  0  0  0
  190.9900  176.7290  140.5900 C   0  0  0  0  0  0  0  0  0  0  0  0
  191.4830  176.1000  138.4900 C   0  0  0  0  0  3  0  0  0  0  0  0
  192.5990  176.9030  138.7260 C   0  0  0  0  0  3  0  0  0  0  0  0
  188.2620  177.6070  140.8000 O   0  0  0  0  0  0  0  0  0  0  0  0
  188.5440  178.6280  139.8870 C   0  0  0  0  0  2  0  0  0  0  0  0
  188.0130  178.2580  138.5130 C   0  0  0  0  0  2  0  0  0  0  0  0
  189.0180  178.6440  137.4420 C   0  0  0  0  0  2  0  0  0  0  0  0
  187.5230  177.9770  135.5650 O   0  0  0  0  0  0  0  0  0  0  0  0
  188.7540  177.8760  136.1980 C   0  0  0  0  0  0  0  0  0  0  0  0
  189.6600  177.1600  135.6980 O   0  0  0  0  0  1  0  0  0  0  0  0
  1  4  2  0  0  0  0
  1 10  1  0  0  0  0
  2 10  2  0  0  0  0
  2  6  1  0  0  0  0
  3  5  1  0  0  0  0
  4 11  1  0  0  0  0
  6  9  2  0  0  0  0
  7  2  1  0  0  0  0
  8  3  2  0  0  0  0
  9 14  1  0  0  0  0
 10 15  1  0  0  0  0
 11 13  2  0  0  0  0
 11  8  1  0  0  0  0
 12  5  2  0  0  0  0
 13 12  1  0  0  0  0
 15  8  1  0  0  0  0
 15 14  2  0  0  0  0
 16 24  1  6  0  0  0
 16 18  1  0  0  0  0
 16  4  1  0  0  0  0
 18 17  1  6  0  0  0
 19 21  2  0  0  0  0
 20 21  1  0  0  0  0
 21 18  1  0  0  0  0
 22 23  2  0  0  0  0
 22 19  1  0  0  0  0
 23 20  1  0  0  0  0
 25 24  1  0  0  0  0
 26 25  1  0  0  0  0
 27 26  1  0  0  0  0
 28 29  2  0  0  0  0
 29 27  1  0  0  0  0
 30 29  1  0  0  0  0
M  END
>  <MODEL>
9

>  <REMARK>
 VINA RESULT:      -8.0      2.467      4.886
  Name = 
  8 active torsions:
  status: ('A' for Active; 'I' for Inactive)
    1  A    between atoms: C_4  and  C_13
    2  A    between atoms: C_7  and  C_15
    3  A    between atoms: C_7  and  C_16
    4  A    between atoms: C_8  and  C_12
    5  A    between atoms: C_8  and  C_13
    6  A    between atoms: C_13  and  O_27
    7  A    between atoms: C_16  and  C_30
    8  A    between atoms: O_27  and  C_30
                            x       y       z     vdW  Elec       q    Type
                         _______ _______ _______ _____ _____    ______ ____

>  <TORSDO>
F 8

$$$$
