=
 OpenBabel11052412173D

 30 34  0  0  1  0  0  0  0  0999 V2000
  190.5010  177.1010  139.2660 C   0  0  0  0  0  0  0  0  0  0  0  0
  192.9270  176.5240  138.6870 C   0  0  0  0  0  0  0  0  0  0  0  0
  190.3680  175.7350  135.2120 C   0  0  0  0  0  2  0  0  0  0  0  0
  189.2850  177.7730  138.9170 C   0  0  0  0  0  0  0  0  0  0  0  0
  190.7100  176.6690  140.5940 C   0  0  0  0  0  3  0  0  0  0  0  0
  187.8150  177.7440  142.3090 N   0  0  0  0  0  0  0  0  0  0  0  0
  188.5830  177.6010  141.2170 C   0  0  0  0  0  0  0  0  0  0  0  0
  189.7500  176.6490  142.8430 N   0  0  0  0  0  2  0  0  0  0  0  0
  189.5020  176.9360  135.4140 C   0  0  0  0  0  0  0  0  0  0  0  0
  189.7310  176.9500  141.5370 C   0  0  0  0  0  0  0  0  0  0  0  0
  188.3100  178.0280  139.9160 C   0  0  0  0  0  0  0  0  0  0  0  0
  193.7060  175.3210  138.2150 C   0  0  0  0  0  2  0  0  0  0  0  0
  188.1260  177.0690  144.6910 C   0  0  0  0  0  1  0  0  0  0  0  0
  193.5550  177.4860  139.2570 N   0  0  0  0  0  2  0  0  0  0  0  0
  191.5200  175.8470  136.1930 C   0  0  2  0  0  3  0  0  0  0  0  0
  193.9150  175.3370  136.6950 C   0  0  0  0  0  2  0  0  0  0  0  0
  188.5640  177.1490  143.2720 C   0  0  0  0  0  0  0  0  0  0  0  0
  191.5080  176.7470  138.2020 C   0  0  1  0  0  3  0  0  0  0  0  0
  189.0040  178.2090  137.4950 C   0  0  0  0  0  2  0  0  0  0  0  0
  189.5650  177.8900  134.5940 O   0  0  0  0  0  0  0  0  0  0  0  0
  188.7260  177.0740  136.6120 N   0  0  0  0  0  0  0  0  0  0  0  0
  192.6700  174.8960  135.9110 C   0  0  0  0  0  2  0  0  0  0  0  0
  191.0540  175.6360  137.4910 O   0  0  0  0  0  0  0  0  0  0  0  0
  187.3040  175.3350  135.8770 O   0  0  0  0  0  0  0  0  0  0  0  0
  187.7870  176.0230  137.0130 C   0  0  2  0  0  3  0  0  0  0  0  0
  186.4200  176.2550  136.4660 C   0  0  0  0  0  0  0  0  0  0  0  0
  186.1160  177.3890  135.5020 C   0  0  0  0  0  1  0  0  0  0  0  0
  185.2690  175.5430  137.1440 C   0  0  0  0  0  1  0  0  0  0  0  0
  185.9850  177.8400  139.5260 O   0  0  0  0  0  1  0  0  0  0  0  0
  187.0360  178.7520  139.6140 C   0  0  0  0  0  2  0  0  0  0  0  0
  1  5  1  0  0  0  0
  2 14  2  0  0  0  0
  3  9  1  0  0  0  0
  4  1  2  0  0  0  0
  4 11  1  0  0  0  0
  5 10  2  0  0  0  0
  6 17  2  0  0  0  0
  7 10  1  0  0  0  0
  7  6  1  0  0  0  0
  8 17  1  0  0  0  0
  9 21  1  0  0  0  0
 10  8  1  0  0  0  0
 11  7  2  0  0  0  0
 12  2  1  0  0  0  0
 15  3  1  6  0  0  0
 15 23  1  0  0  0  0
 16 12  1  0  0  0  0
 17 13  1  0  0  0  0
 18 23  1  1  0  0  0
 18  2  1  0  0  0  0
 18  1  1  0  0  0  0
 19  4  1  0  0  0  0
 20  9  2  0  0  0  0
 21 19  1  0  0  0  0
 22 15  1  0  0  0  0
 22 16  1  0  0  0  0
 24 26  1  0  0  0  0
 24 25  1  0  0  0  0
 25 21  1  6  0  0  0
 26 25  1  0  0  0  0
 26 28  1  0  0  0  0
 27 26  1  0  0  0  0
 29 30  1  0  0  0  0
 30 11  1  0  0  0  0
M  END
>  <MODEL>
1

>  <REMARK>
 VINA RESULT:      -6.2      0.000      0.000
  Name = 
  2 active torsions:
  status: ('A' for Active; 'I' for Inactive)
    1  A    between atoms: C_10  and  N_25
    2  A    between atoms: C_13  and  C_30
                            x       y       z     vdW  Elec       q    Type
                         _______ _______ _______ _____ _____    ______ ____

>  <TORSDO>
F 2

$$$$
=
 OpenBabel11052412173D

 30 34  0  0  1  0  0  0  0  0999 V2000
  186.7120  177.4230  137.4940 C   0  0  0  0  0  0  0  0  0  0  0  0
  189.0460  178.2680  138.1190 C   0  0  0  0  0  0  0  0  0  0  0  0
  189.2940  174.0630  136.8950 C   0  0  0  0  0  2  0  0  0  0  0  0
  185.8650  176.7430  136.5590 C   0  0  0  0  0  0  0  0  0  0  0  0
  186.1420  178.2420  138.4930 C   0  0  0  0  0  3  0  0  0  0  0  0
  182.6710  178.0810  137.8540 N   0  0  0  0  0  0  0  0  0  0  0  0
  183.9550  177.7640  137.6170 C   0  0  0  0  0  0  0  0  0  0  0  0
  184.0360  179.1370  139.3540 N   0  0  0  0  0  2  0  0  0  0  0  0
  188.2970  174.1910  135.7890 C   0  0  0  0  0  0  0  0  0  0  0  0
  184.7630  178.3920  138.5100 C   0  0  0  0  0  0  0  0  0  0  0  0
  184.4590  176.9220  136.6240 C   0  0  0  0  0  0  0  0  0  0  0  0
  190.1390  177.9060  139.0950 C   0  0  0  0  0  2  0  0  0  0  0  0
  181.5830  179.5540  139.5490 C   0  0  0  0  0  1  0  0  0  0  0  0
  189.0280  179.4470  137.6170 N   0  0  0  0  0  2  0  0  0  0  0  0
  189.5760  175.4630  137.4040 C   0  0  2  0  0  3  0  0  0  0  0  0
  191.2200  177.0330  138.4430 C   0  0  0  0  0  2  0  0  0  0  0  0
  182.7700  178.9160  138.9200 C   0  0  0  0  0  0  0  0  0  0  0  0
  188.1990  177.1790  137.4910 C   0  0  1  0  0  3  0  0  0  0  0  0
  186.4350  175.8200  135.5040 C   0  0  0  0  0  2  0  0  0  0  0  0
  188.6840  174.1020  134.5940 O   0  0  0  0  0  0  0  0  0  0  0  0
  186.9440  174.5720  136.0760 N   0  0  0  0  0  0  0  0  0  0  0  0
  190.8010  175.5640  138.2970 C   0  0  0  0  0  2  0  0  0  0  0  0
  188.4630  175.9470  138.0920 O   0  0  0  0  0  0  0  0  0  0  0  0
  186.4140  172.4250  136.9110 O   0  0  0  0  0  0  0  0  0  0  0  0
  186.1470  173.8070  137.0390 C   0  0  2  0  0  3  0  0  0  0  0  0
  185.2000  172.8740  136.3650 C   0  0  0  0  0  0  0  0  0  0  0  0
  185.1910  172.6770  134.8580 C   0  0  0  0  0  1  0  0  0  0  0  0
  184.0230  172.3730  137.1750 C   0  0  0  0  0  1  0  0  0  0  0  0
  183.2500  177.1280  134.6010 O   0  0  0  0  0  1  0  0  0  0  0  0
  183.5300  176.2600  135.6560 C   0  0  0  0  0  2  0  0  0  0  0  0
  1  5  1  0  0  0  0
  2 12  1  0  0  0  0
  4 11  1  0  0  0  0
  4  1  2  0  0  0  0
  5 10  2  0  0  0  0
  6 17  2  0  0  0  0
  7  6  1  0  0  0  0
  7 10  1  0  0  0  0
  9 21  1  0  0  0  0
  9  3  1  0  0  0  0
 10  8  1  0  0  0  0
 11  7  2  0  0  0  0
 14  2  2  0  0  0  0
 15  3  1  1  0  0  0
 15 23  1  0  0  0  0
 15 22  1  0  0  0  0
 16 12  1  0  0  0  0
 17  8  1  0  0  0  0
 17 13  1  0  0  0  0
 18  1  1  1  0  0  0
 18 23  1  0  0  0  0
 18  2  1  0  0  0  0
 19 21  1  0  0  0  0
 19  4  1  0  0  0  0
 20  9  2  0  0  0  0
 22 16  1  0  0  0  0
 24 25  1  0  0  0  0
 25 21  1  6  0  0  0
 26 24  1  0  0  0  0
 26 25  1  0  0  0  0
 26 28  1  0  0  0  0
 27 26  1  0  0  0  0
 29 30  1  0  0  0  0
 30 11  1  0  0  0  0
M  END
>  <MODEL>
2

>  <REMARK>
 VINA RESULT:      -6.1      3.016      4.801
  Name = 
  2 active torsions:
  status: ('A' for Active; 'I' for Inactive)
    1  A    between atoms: C_10  and  N_25
    2  A    between atoms: C_13  and  C_30
                            x       y       z     vdW  Elec       q    Type
                         _______ _______ _______ _____ _____    ______ ____

>  <TORSDO>
F 2

$$$$
=
 OpenBabel11052412173D

 30 34  0  0  1  0  0  0  0  0999 V2000
  187.3880  178.0100  139.0670 C   0  0  0  0  0  0  0  0  0  0  0  0
  186.7630  178.5820  141.4830 C   0  0  0  0  0  0  0  0  0  0  0  0
  190.6380  176.5260  141.4250 C   0  0  0  0  0  2  0  0  0  0  0  0
  188.3620  178.0300  138.0170 C   0  0  0  0  0  0  0  0  0  0  0  0
  186.0270  177.7920  138.7610 C   0  0  0  0  0  3  0  0  0  0  0  0
  185.9770  177.5060  135.2400 N   0  0  0  0  0  0  0  0  0  0  0  0
  186.5860  177.6750  136.4250 C   0  0  0  0  0  0  0  0  0  0  0  0
  184.4400  177.4510  136.9320 N   0  0  0  0  0  2  0  0  0  0  0  0
  191.1250  177.2050  140.1850 C   0  0  0  0  0  0  0  0  0  0  0  0
  185.6710  177.6410  137.4280 C   0  0  0  0  0  0  0  0  0  0  0  0
  187.9480  177.8610  136.6700 C   0  0  0  0  0  0  0  0  0  0  0  0
  186.5470  177.8480  142.7830 C   0  0  0  0  0  2  0  0  0  0  0  0
  183.5870  177.1740  134.6030 C   0  0  0  0  0  1  0  0  0  0  0  0
  186.2600  179.7530  141.3400 N   0  0  0  0  0  2  0  0  0  0  0  0
  189.3410  177.2060  141.8220 C   0  0  2  0  0  3  0  0  0  0  0  0
  187.7990  177.8790  143.6710 C   0  0  0  0  0  2  0  0  0  0  0  0
  184.6750  177.3720  135.5990 C   0  0  0  0  0  0  0  0  0  0  0  0
  187.8200  178.1040  140.5080 C   0  0  1  0  0  3  0  0  0  0  0  0
  189.8350  178.2130  138.3090 C   0  0  0  0  0  2  0  0  0  0  0  0
  192.0670  178.0370  140.2650 O   0  0  0  0  0  0  0  0  0  0  0  0
  190.4260  177.0330  138.9450 N   0  0  0  0  0  0  0  0  0  0  0  0
  188.8740  176.8760  143.2300 C   0  0  0  0  0  2  0  0  0  0  0  0
  188.3370  176.8720  140.9130 O   0  0  0  0  0  0  0  0  0  0  0  0
  191.3230  174.8770  138.5820 O   0  0  0  0  0  0  0  0  0  0  0  0
  190.1800  175.6910  138.4110 C   0  0  2  0  0  3  0  0  0  0  0  0
  191.0960  175.3610  137.2830 C   0  0  0  0  0  0  0  0  0  0  0  0
  192.2240  176.2870  136.8580 C   0  0  0  0  0  1  0  0  0  0  0  0
  190.6790  174.2430  136.3520 C   0  0  0  0  0  1  0  0  0  0  0  0
  188.9560  176.6590  134.8990 O   0  0  0  0  0  1  0  0  0  0  0  0
  188.9180  177.9020  135.5310 C   0  0  0  0  0  2  0  0  0  0  0  0
  2 12  1  0  0  0  0
  4 19  1  0  0  0  0
  4  1  2  0  0  0  0
  5  1  1  0  0  0  0
  6 17  2  0  0  0  0
  6  7  1  0  0  0  0
  7 11  2  0  0  0  0
  7 10  1  0  0  0  0
  8 10  1  0  0  0  0
  9 20  2  0  0  0  0
  9  3  1  0  0  0  0
 10  5  2  0  0  0  0
 11  4  1  0  0  0  0
 12 16  1  0  0  0  0
 13 17  1  0  0  0  0
 14  2  2  0  0  0  0
 15  3  1  6  0  0  0
 15 22  1  0  0  0  0
 17  8  1  0  0  0  0
 18  1  1  6  0  0  0
 18 23  1  0  0  0  0
 18  2  1  0  0  0  0
 19 21  1  0  0  0  0
 21  9  1  0  0  0  0
 22 16  1  0  0  0  0
 23 15  1  0  0  0  0
 25 24  1  0  0  0  0
 25 21  1  1  0  0  0
 26 25  1  0  0  0  0
 26 24  1  0  0  0  0
 27 26  1  0  0  0  0
 28 26  1  0  0  0  0
 29 30  1  0  0  0  0
 30 11  1  0  0  0  0
M  END
>  <MODEL>
3

>  <REMARK>
 VINA RESULT:      -6.0      1.949      6.195
  Name = 
  2 active torsions:
  status: ('A' for Active; 'I' for Inactive)
    1  A    between atoms: C_10  and  N_25
    2  A    between atoms: C_13  and  C_30
                            x       y       z     vdW  Elec       q    Type
                         _______ _______ _______ _____ _____    ______ ____

>  <TORSDO>
F 2

$$$$
=
 OpenBabel11052412173D

 30 34  0  0  1  0  0  0  0  0999 V2000
  186.1720  178.2820  139.0670 C   0  0  0  0  0  0  0  0  0  0  0  0
  188.5010  178.2110  138.0080 C   0  0  0  0  0  0  0  0  0  0  0  0
  185.7120  175.8700  135.5620 C   0  0  0  0  0  2  0  0  0  0  0  0
  184.7630  178.4980  138.9150 C   0  0  0  0  0  0  0  0  0  0  0  0
  186.7520  178.3000  140.3550 C   0  0  0  0  0  3  0  0  0  0  0  0
  184.0430  179.0250  142.5030 N   0  0  0  0  0  0  0  0  0  0  0  0
  184.5970  178.7900  141.3030 C   0  0  0  0  0  0  0  0  0  0  0  0
  186.2880  178.6520  142.7290 N   0  0  0  0  0  2  0  0  0  0  0  0
  184.5670  176.8170  135.7290 C   0  0  0  0  0  0  0  0  0  0  0  0
  185.9300  178.5680  141.4410 C   0  0  0  0  0  0  0  0  0  0  0  0
  183.9640  178.7590  140.0590 C   0  0  0  0  0  0  0  0  0  0  0  0
  189.5140  177.1660  137.6100 C   0  0  0  0  0  2  0  0  0  0  0  0
  184.9940  179.1320  144.8090 C   0  0  0  0  0  1  0  0  0  0  0  0
  188.8920  179.4200  138.1840 N   0  0  0  0  0  2  0  0  0  0  0  0
  186.9330  176.5390  136.1640 C   0  0  2  0  0  3  0  0  0  0  0  0
  189.4170  176.8170  136.1180 C   0  0  0  0  0  2  0  0  0  0  0  0
  185.1090  178.9290  143.3400 C   0  0  0  0  0  0  0  0  0  0  0  0
  187.0190  177.9210  137.8750 C   0  0  1  0  0  3  0  0  0  0  0  0
  184.0970  178.4400  137.5580 C   0  0  0  0  0  2  0  0  0  0  0  0
  184.1730  177.4910  134.7420 O   0  0  0  0  0  0  0  0  0  0  0  0
  184.0280  177.0740  137.0330 N   0  0  0  0  0  0  0  0  0  0  0  0
  188.2490  175.8750  135.7950 C   0  0  0  0  0  2  0  0  0  0  0  0
  186.8110  176.5790  137.5530 O   0  0  0  0  0  0  0  0  0  0  0  0
  182.9110  174.9920  137.0840 O   0  0  0  0  0  0  0  0  0  0  0  0
  183.5590  175.9690  137.8730 C   0  0  2  0  0  3  0  0  0  0  0  0
  182.0750  175.8310  137.8400 C   0  0  0  0  0  0  0  0  0  0  0  0
  181.2040  176.6750  136.9240 C   0  0  0  0  0  1  0  0  0  0  0  0
  181.4220  175.0690  138.9720 C   0  0  0  0  0  1  0  0  0  0  0  0
  181.7880  177.9890  140.5750 O   0  0  0  0  0  1  0  0  0  0  0  0
  182.4950  179.0200  139.9560 C   0  0  0  0  0  2  0  0  0  0  0  0
  1  5  1  0  0  0  0
  2 14  2  0  0  0  0
  3  9  1  0  0  0  0
  4  1  2  0  0  0  0
  4 11  1  0  0  0  0
  5 10  2  0  0  0  0
  6 17  2  0  0  0  0
  7 10  1  0  0  0  0
  7  6  1  0  0  0  0
  8 17  1  0  0  0  0
  9 21  1  0  0  0  0
 10  8  1  0  0  0  0
 11  7  2  0  0  0  0
 12  2  1  0  0  0  0
 15  3  1  6  0  0  0
 15 23  1  0  0  0  0
 16 12  1  0  0  0  0
 17 13  1  0  0  0  0
 18 23  1  1  0  0  0
 18  2  1  0  0  0  0
 18  1  1  0  0  0  0
 19  4  1  0  0  0  0
 20  9  2  0  0  0  0
 21 19  1  0  0  0  0
 22 16  1  0  0  0  0
 22 15  1  0  0  0  0
 24 26  1  0  0  0  0
 24 25  1  0  0  0  0
 25 21  1  6  0  0  0
 26 25  1  0  0  0  0
 26 28  1  0  0  0  0
 27 26  1  0  0  0  0
 30 11  1  0  0  0  0
 30 29  1  0  0  0  0
M  END
>  <MODEL>
4

>  <REMARK>
 VINA RESULT:      -5.9      2.956      4.537
  Name = 
  2 active torsions:
  status: ('A' for Active; 'I' for Inactive)
    1  A    between atoms: C_10  and  N_25
    2  A    between atoms: C_13  and  C_30
                            x       y       z     vdW  Elec       q    Type
                         _______ _______ _______ _____ _____    ______ ____

>  <TORSDO>
F 2

$$$$
=
 OpenBabel11052412173D

 30 34  0  0  1  0  0  0  0  0999 V2000
  184.8580  178.6280  139.8170 C   0  0  0  0  0  0  0  0  0  0  0  0
  182.3870  179.2930  139.7330 C   0  0  0  0  0  0  0  0  0  0  0  0
  183.5800  178.6280  143.9020 C   0  0  0  0  0  2  0  0  0  0  0  0
  186.1590  178.8190  140.3860 C   0  0  0  0  0  0  0  0  0  0  0  0
  184.7190  177.9370  138.5940 C   0  0  0  0  0  3  0  0  0  0  0  0
  188.0390  177.1670  137.6650 N   0  0  0  0  0  0  0  0  0  0  0  0
  187.1080  177.6880  138.4800 C   0  0  0  0  0  0  0  0  0  0  0  0
  185.9530  176.8470  136.7860 N   0  0  0  0  0  2  0  0  0  0  0  0
  184.9300  179.2500  143.7510 C   0  0  0  0  0  0  0  0  0  0  0  0
  185.8700  177.4950  137.9560 C   0  0  0  0  0  0  0  0  0  0  0  0
  187.3050  178.3400  139.6990 C   0  0  0  0  0  0  0  0  0  0  0  0
  181.0610  178.7150  140.1630 C   0  0  0  0  0  2  0  0  0  0  0  0
  187.8920  175.9880  135.4710 C   0  0  0  0  0  1  0  0  0  0  0  0
  182.4050  180.2030  138.8300 N   0  0  0  0  0  2  0  0  0  0  0  0
  182.8210  178.8950  142.6160 C   0  0  2  0  0  3  0  0  0  0  0  0
  180.6080  179.2760  141.5180 C   0  0  0  0  0  2  0  0  0  0  0  0
  187.2900  176.6660  136.6500 C   0  0  0  0  0  0  0  0  0  0  0  0
  183.6260  179.0560  140.5740 C   0  0  1  0  0  3  0  0  0  0  0  0
  186.3450  179.5120  141.7180 C   0  0  0  0  0  2  0  0  0  0  0  0
  185.1740  180.3460  144.3210 O   0  0  0  0  0  0  0  0  0  0  0  0
  185.8860  178.6900  142.8400 N   0  0  0  0  0  0  0  0  0  0  0  0
  181.3280  178.6280  142.7090 C   0  0  0  0  0  2  0  0  0  0  0  0
  183.3620  178.1290  141.5830 O   0  0  0  0  0  0  0  0  0  0  0  0
  186.4610  176.9220  144.2990 O   0  0  0  0  0  0  0  0  0  0  0  0
  186.2730  177.2800  142.9460 C   0  0  2  0  0  3  0  0  0  0  0  0
  187.6290  177.1160  143.5430 C   0  0  0  0  0  0  0  0  0  0  0  0
  188.4230  178.2930  144.0860 C   0  0  0  0  0  1  0  0  0  0  0  0
  188.3420  175.8040  143.2990 C   0  0  0  0  0  1  0  0  0  0  0  0
  189.2690  177.3000  140.5070 O   0  0  0  0  0  1  0  0  0  0  0  0
  188.6880  178.5370  140.2320 C   0  0  0  0  0  2  0  0  0  0  0  0
  1  4  1  0  0  0  0
  1 18  1  0  0  0  0
  2 12  1  0  0  0  0
  4 19  1  0  0  0  0
  5  1  2  0  0  0  0
  6  7  1  0  0  0  0
  7 11  1  0  0  0  0
  8 10  1  0  0  0  0
  9  3  1  0  0  0  0
  9 20  2  0  0  0  0
 10  7  2  0  0  0  0
 10  5  1  0  0  0  0
 11 30  1  0  0  0  0
 11  4  2  0  0  0  0
 12 16  1  0  0  0  0
 13 17  1  0  0  0  0
 14  2  2  0  0  0  0
 15 22  1  1  0  0  0
 15  3  1  0  0  0  0
 16 22  1  0  0  0  0
 17  8  1  0  0  0  0
 17  6  2  0  0  0  0
 18  2  1  6  0  0  0
 18 23  1  0  0  0  0
 19 21  1  0  0  0  0
 21  9  1  0  0  0  0
 23 15  1  0  0  0  0
 25 21  1  1  0  0  0
 25 26  1  0  0  0  0
 25 24  1  0  0  0  0
 26 27  1  0  0  0  0
 26 24  1  0  0  0  0
 28 26  1  0  0  0  0
 30 29  1  0  0  0  0
M  END
>  <MODEL>
5

>  <REMARK>
 VINA RESULT:      -5.7      3.662      8.516
  Name = 
  2 active torsions:
  status: ('A' for Active; 'I' for Inactive)
    1  A    between atoms: C_10  and  N_25
    2  A    between atoms: C_13  and  C_30
                            x       y       z     vdW  Elec       q    Type
                         _______ _______ _______ _____ _____    ______ ____

>  <TORSDO>
F 2

$$$$
=
 OpenBabel11052412173D

 30 34  0  0  1  0  0  0  0  0999 V2000
  184.1660  177.9210  139.1560 C   0  0  0  0  0  0  0  0  0  0  0  0
  186.2110  177.7770  137.6240 C   0  0  0  0  0  0  0  0  0  0  0  0
  183.0460  175.1600  136.0830 C   0  0  0  0  0  2  0  0  0  0  0  0
  182.7510  178.0990  139.2960 C   0  0  0  0  0  0  0  0  0  0  0  0
  185.0100  178.0770  140.2770 C   0  0  0  0  0  3  0  0  0  0  0  0
  182.8060  178.9750  142.8880 N   0  0  0  0  0  0  0  0  0  0  0  0
  183.0950  178.6280  141.6230 C   0  0  0  0  0  0  0  0  0  0  0  0
  185.0580  178.6600  142.6510 N   0  0  0  0  0  2  0  0  0  0  0  0
  181.9310  176.1020  136.4060 C   0  0  0  0  0  0  0  0  0  0  0  0
  184.4340  178.4410  141.4860 C   0  0  0  0  0  0  0  0  0  0  0  0
  182.2100  178.4620  140.5570 C   0  0  0  0  0  0  0  0  0  0  0  0
  187.1520  176.7120  137.1150 C   0  0  0  0  0  2  0  0  0  0  0  0
  184.2280  179.3290  144.9080 C   0  0  0  0  0  1  0  0  0  0  0  0
  186.5870  179.0030  137.5930 N   0  0  0  0  0  2  0  0  0  0  0  0
  184.3440  175.9040  136.3360 C   0  0  2  0  0  3  0  0  0  0  0  0
  186.7470  176.2130  135.7210 C   0  0  0  0  0  2  0  0  0  0  0  0
  184.0300  178.9800  143.4760 C   0  0  0  0  0  0  0  0  0  0  0  0
  184.7480  177.4530  137.8460 C   0  0  1  0  0  3  0  0  0  0  0  0
  181.8090  177.8940  138.1300 C   0  0  0  0  0  2  0  0  0  0  0  0
  181.3080  176.6670  135.4690 O   0  0  0  0  0  0  0  0  0  0  0  0
  181.6780  176.4820  137.7650 N   0  0  0  0  0  0  0  0  0  0  0  0
  185.5720  175.2250  135.7530 C   0  0  0  0  0  2  0  0  0  0  0  0
  184.5240  176.0830  137.7080 O   0  0  0  0  0  0  0  0  0  0  0  0
  180.5770  174.4590  138.2950 O   0  0  0  0  0  0  0  0  0  0  0  0
  181.4420  175.4600  138.7890 C   0  0  2  0  0  3  0  0  0  0  0  0
  180.0070  175.3850  139.1850 C   0  0  0  0  0  0  0  0  0  0  0  0
  178.9310  176.1990  138.4860 C   0  0  0  0  0  1  0  0  0  0  0  0
  179.6850  174.7340  140.5130 C   0  0  0  0  0  1  0  0  0  0  0  0
  180.4550  180.0470  140.6180 O   0  0  0  0  0  1  0  0  0  0  0  0
  180.7440  178.6900  140.7540 C   0  0  0  0  0  2  0  0  0  0  0  0
  1  4  2  0  0  0  0
  1  5  1  0  0  0  0
  3 15  1  0  0  0  0
  3  9  1  0  0  0  0
  4 11  1  0  0  0  0
  5 10  2  0  0  0  0
  6 17  2  0  0  0  0
  7  6  1  0  0  0  0
  8 17  1  0  0  0  0
  9 21  1  0  0  0  0
 10  7  1  0  0  0  0
 10  8  1  0  0  0  0
 11 30  1  0  0  0  0
 11  7  2  0  0  0  0
 12  2  1  0  0  0  0
 14  2  2  0  0  0  0
 15 22  1  1  0  0  0
 15 23  1  0  0  0  0
 16 22  1  0  0  0  0
 16 12  1  0  0  0  0
 17 13  1  0  0  0  0
 18  2  1  1  0  0  0
 18  1  1  0  0  0  0
 19  4  1  0  0  0  0
 20  9  2  0  0  0  0
 21 19  1  0  0  0  0
 23 18  1  0  0  0  0
 24 25  1  0  0  0  0
 24 26  1  0  0  0  0
 25 21  1  6  0  0  0
 25 26  1  0  0  0  0
 26 28  1  0  0  0  0
 27 26  1  0  0  0  0
 29 30  1  0  0  0  0
M  END
>  <MODEL>
6

>  <REMARK>
 VINA RESULT:      -5.6      4.409      6.639
  Name = 
  2 active torsions:
  status: ('A' for Active; 'I' for Inactive)
    1  A    between atoms: C_10  and  N_25
    2  A    between atoms: C_13  and  C_30
                            x       y       z     vdW  Elec       q    Type
                         _______ _______ _______ _____ _____    ______ ____

>  <TORSDO>
F 2

$$$$
=
 OpenBabel11052412173D

 30 34  0  0  1  0  0  0  0  0999 V2000
  183.9080  177.8200  140.3210 C   0  0  0  0  0  0  0  0  0  0  0  0
  184.5100  178.3850  142.7430 C   0  0  0  0  0  0  0  0  0  0  0  0
  180.1730  178.7480  142.1930 C   0  0  0  0  0  2  0  0  0  0  0  0
  183.0880  177.0870  139.4010 C   0  0  0  0  0  0  0  0  0  0  0  0
  185.1200  178.3930  139.8800 C   0  0  0  0  0  3  0  0  0  0  0  0
  185.3320  177.4400  136.4850 N   0  0  0  0  0  0  0  0  0  0  0  0
  184.7360  177.4850  137.6870 C   0  0  0  0  0  0  0  0  0  0  0  0
  186.6150  178.6280  137.9590 N   0  0  0  0  0  2  0  0  0  0  0  0
  180.0550  177.5560  141.2990 C   0  0  0  0  0  0  0  0  0  0  0  0
  185.5000  178.1910  138.5600 C   0  0  0  0  0  0  0  0  0  0  0  0
  183.5160  176.9170  138.0590 C   0  0  0  0  0  0  0  0  0  0  0  0
  184.3500  179.5490  143.6900 C   0  0  0  0  0  2  0  0  0  0  0  0
  187.4880  178.3690  135.6350 C   0  0  0  0  0  1  0  0  0  0  0  0
  185.4070  177.5030  142.9900 N   0  0  0  0  0  2  0  0  0  0  0  0
  181.5920  178.7650  142.7280 C   0  0  2  0  0  3  0  0  0  0  0  0
  183.1270  179.3780  144.6030 C   0  0  0  0  0  2  0  0  0  0  0  0
  186.4700  178.1500  136.6980 C   0  0  0  0  0  0  0  0  0  0  0  0
  183.4290  178.0810  141.7260 C   0  0  1  0  0  3  0  0  0  0  0  0
  181.7590  176.4990  139.8230 C   0  0  0  0  0  2  0  0  0  0  0  0
  179.4690  176.5240  141.7190 O   0  0  0  0  0  0  0  0  0  0  0  0
  180.7400  177.5280  140.0400 N   0  0  0  0  0  0  0  0  0  0  0  0
  181.8020  179.7060  143.9020 C   0  0  0  0  0  2  0  0  0  0  0  0
  182.4770  179.1020  141.7040 O   0  0  0  0  0  0  0  0  0  0  0  0
  179.1570  178.9140  138.9640 O   0  0  0  0  0  0  0  0  0  0  0  0
  180.5300  178.5950  139.0570 C   0  0  2  0  0  3  0  0  0  0  0  0
  179.6860  178.1450  137.9140 C   0  0  0  0  0  0  0  0  0  0  0  0
  179.0320  176.7730  137.8810 C   0  0  0  0  0  1  0  0  0  0  0  0
  179.7600  178.9500  136.6350 C   0  0  0  0  0  1  0  0  0  0  0  0
  183.1360  174.8090  137.0560 O   0  0  0  0  0  1  0  0  0  0  0  0
  182.7140  176.1380  137.0640 C   0  0  0  0  0  2  0  0  0  0  0  0
  2 14  2  0  0  0  0
  2 12  1  0  0  0  0
  4 19  1  0  0  0  0
  4  1  2  0  0  0  0
  5  1  1  0  0  0  0
  6 17  2  0  0  0  0
  6  7  1  0  0  0  0
  7 11  2  0  0  0  0
  7 10  1  0  0  0  0
  8 10  1  0  0  0  0
  9 20  2  0  0  0  0
  9  3  1  0  0  0  0
 10  5  2  0  0  0  0
 11  4  1  0  0  0  0
 12 16  1  0  0  0  0
 13 17  1  0  0  0  0
 15  3  1  6  0  0  0
 15 22  1  0  0  0  0
 17  8  1  0  0  0  0
 18  1  1  6  0  0  0
 18  2  1  0  0  0  0
 19 21  1  0  0  0  0
 21  9  1  0  0  0  0
 22 16  1  0  0  0  0
 23 18  1  0  0  0  0
 23 15  1  0  0  0  0
 24 25  1  0  0  0  0
 25 21  1  1  0  0  0
 26 24  1  0  0  0  0
 26 25  1  0  0  0  0
 27 26  1  0  0  0  0
 28 26  1  0  0  0  0
 29 30  1  0  0  0  0
 30 11  1  0  0  0  0
M  END
>  <MODEL>
7

>  <REMARK>
 VINA RESULT:      -5.5      4.904      8.919
  Name = 
  2 active torsions:
  status: ('A' for Active; 'I' for Inactive)
    1  A    between atoms: C_10  and  N_25
    2  A    between atoms: C_13  and  C_30
                            x       y       z     vdW  Elec       q    Type
                         _______ _______ _______ _____ _____    ______ ____

>  <TORSDO>
F 2

$$$$
=
 OpenBabel11052412173D

 30 34  0  0  1  0  0  0  0  0999 V2000
  187.6200  177.7280  139.3030 C   0  0  0  0  0  0  0  0  0  0  0  0
  190.0730  177.1440  138.8660 C   0  0  0  0  0  0  0  0  0  0  0  0
  187.5670  175.3390  135.7520 C   0  0  0  0  0  2  0  0  0  0  0  0
  186.3710  178.2210  138.8030 C   0  0  0  0  0  0  0  0  0  0  0  0
  187.8480  177.6720  140.6950 C   0  0  0  0  0  3  0  0  0  0  0  0
  184.8970  179.0100  142.1010 N   0  0  0  0  0  0  0  0  0  0  0  0
  185.6740  178.6250  141.0760 C   0  0  0  0  0  0  0  0  0  0  0  0
  186.8860  178.1950  142.8810 N   0  0  0  0  0  2  0  0  0  0  0  0
  186.6380  176.5050  135.6420 C   0  0  0  0  0  0  0  0  0  0  0  0
  186.8540  178.1400  141.5430 C   0  0  0  0  0  0  0  0  0  0  0  0
  185.3820  178.6800  139.7130 C   0  0  0  0  0  0  0  0  0  0  0  0
  190.9160  175.9010  138.7180 C   0  0  0  0  0  2  0  0  0  0  0  0
  185.2390  179.0020  144.5740 C   0  0  0  0  0  1  0  0  0  0  0  0
  190.6490  178.2530  139.1570 N   0  0  0  0  0  2  0  0  0  0  0  0
  188.7090  175.7640  136.6550 C   0  0  2  0  0  3  0  0  0  0  0  0
  191.1270  175.5270  137.2440 C   0  0  0  0  0  2  0  0  0  0  0  0
  185.6750  178.7290  143.1780 C   0  0  0  0  0  0  0  0  0  0  0  0
  188.6460  177.1590  138.3570 C   0  0  1  0  0  3  0  0  0  0  0  0
  186.0700  178.2530  137.3210 C   0  0  0  0  0  2  0  0  0  0  0  0
  186.6530  177.2110  134.5990 O   0  0  0  0  0  0  0  0  0  0  0  0
  185.8540  176.9130  136.7700 N   0  0  0  0  0  0  0  0  0  0  0  0
  189.9080  174.8320  136.6190 C   0  0  0  0  0  2  0  0  0  0  0  0
  188.2530  175.8780  137.9690 O   0  0  0  0  0  0  0  0  0  0  0  0
  184.2790  175.1720  136.4950 O   0  0  0  0  0  0  0  0  0  0  0  0
  184.9710  175.9570  137.4440 C   0  0  2  0  0  3  0  0  0  0  0  0
  183.5360  176.1910  137.1140 C   0  0  0  0  0  0  0  0  0  0  0  0
  183.1000  177.2250  136.0890 C   0  0  0  0  0  1  0  0  0  0  0  0
  182.5020  175.6130  138.0550 C   0  0  0  0  0  1  0  0  0  0  0  0
  184.1730  180.6140  139.0840 O   0  0  0  0  0  1  0  0  0  0  0  0
  184.0720  179.2320  139.2460 C   0  0  0  0  0  2  0  0  0  0  0  0
  1  5  1  0  0  0  0
  2 14  2  0  0  0  0
  4  1  2  0  0  0  0
  4 11  1  0  0  0  0
  5 10  2  0  0  0  0
  6 17  2  0  0  0  0
  7 10  1  0  0  0  0
  7  6  1  0  0  0  0
  8 17  1  0  0  0  0
  9  3  1  0  0  0  0
  9 21  1  0  0  0  0
 10  8  1  0  0  0  0
 11  7  2  0  0  0  0
 12  2  1  0  0  0  0
 15  3  1  6  0  0  0
 15 23  1  0  0  0  0
 16 12  1  0  0  0  0
 17 13  1  0  0  0  0
 18 23  1  1  0  0  0
 18  2  1  0  0  0  0
 18  1  1  0  0  0  0
 19  4  1  0  0  0  0
 20  9  2  0  0  0  0
 21 19  1  0  0  0  0
 22 15  1  0  0  0  0
 22 16  1  0  0  0  0
 24 26  1  0  0  0  0
 24 25  1  0  0  0  0
 25 21  1  6  0  0  0
 26 25  1  0  0  0  0
 26 28  1  0  0  0  0
 27 26  1  0  0  0  0
 29 30  1  0  0  0  0
 30 11  1  0  0  0  0
M  END
>  <MODEL>
8

>  <REMARK>
 VINA RESULT:      -5.4      2.177      3.015
  Name = 
  2 active torsions:
  status: ('A' for Active; 'I' for Inactive)
    1  A    between atoms: C_10  and  N_25
    2  A    between atoms: C_13  and  C_30
                            x       y       z     vdW  Elec       q    Type
                         _______ _______ _______ _____ _____    ______ ____

>  <TORSDO>
F 2

$$$$
=
 OpenBabel11052412173D

 30 34  0  0  1  0  0  0  0  0999 V2000
  184.7470  174.9400  136.6910 C   0  0  0  0  0  0  0  0  0  0  0  0
  183.1760  173.0290  136.0340 C   0  0  0  0  0  0  0  0  0  0  0  0
  180.9800  175.9620  138.4460 C   0  0  0  0  0  2  0  0  0  0  0  0
  184.9930  176.3500  136.7750 C   0  0  0  0  0  0  0  0  0  0  0  0
  185.8240  174.0320  136.7840 C   0  0  0  0  0  3  0  0  0  0  0  0
  188.6670  176.1020  137.1050 N   0  0  0  0  0  0  0  0  0  0  0  0
  187.3490  175.8790  136.9800 C   0  0  0  0  0  0  0  0  0  0  0  0
  188.2530  173.8560  136.9950 N   0  0  0  0  0  2  0  0  0  0  0  0
  181.6390  177.1540  137.8320 C   0  0  0  0  0  0  0  0  0  0  0  0
  187.1060  174.5450  136.9160 C   0  0  0  0  0  0  0  0  0  0  0  0
  186.3230  176.8240  136.9210 C   0  0  0  0  0  0  0  0  0  0  0  0
  182.3080  172.0100  136.7300 C   0  0  0  0  0  2  0  0  0  0  0  0
  190.6340  174.5700  137.2180 C   0  0  0  0  0  1  0  0  0  0  0  0
  183.5380  172.8140  134.8230 N   0  0  0  0  0  2  0  0  0  0  0  0
  181.4140  174.7500  137.6430 C   0  0  2  0  0  3  0  0  0  0  0  0
  180.8440  172.4650  136.8060 C   0  0  0  0  0  2  0  0  0  0  0  0
  189.1760  174.8430  137.1120 C   0  0  0  0  0  0  0  0  0  0  0  0
  183.3350  174.4170  136.6220 C   0  0  1  0  0  3  0  0  0  0  0  0
  183.8620  177.3530  136.7280 C   0  0  0  0  0  2  0  0  0  0  0  0
  180.9660  177.9200  137.0910 O   0  0  0  0  0  0  0  0  0  0  0  0
  183.0560  177.3380  137.9510 N   0  0  0  0  0  0  0  0  0  0  0  0
  180.5920  173.5010  137.9110 C   0  0  0  0  0  2  0  0  0  0  0  0
  182.7600  174.4790  137.8920 O   0  0  0  0  0  0  0  0  0  0  0  0
  182.8460  177.9770  140.2170 O   0  0  0  0  0  0  0  0  0  0  0  0
  183.6920  177.3570  139.2710 C   0  0  2  0  0  3  0  0  0  0  0  0
  183.9280  178.7460  139.7580 C   0  0  0  0  0  0  0  0  0  0  0  0
  183.4300  179.9650  139.0010 C   0  0  0  0  0  1  0  0  0  0  0  0
  184.9610  178.9340  140.8490 C   0  0  0  0  0  1  0  0  0  0  0  0
  187.0830  178.6160  138.2650 O   0  0  0  0  0  1  0  0  0  0  0  0
  186.6400  178.2850  136.9850 C   0  0  0  0  0  2  0  0  0  0  0  0
  1  4  2  0  0  0  0
  1  5  1  0  0  0  0
  2 12  1  0  0  0  0
  4 11  1  0  0  0  0
  5 10  2  0  0  0  0
  6 17  2  0  0  0  0
  7  6  1  0  0  0  0
  8 17  1  0  0  0  0
  9 21  1  0  0  0  0
  9  3  1  0  0  0  0
 10  7  1  0  0  0  0
 10  8  1  0  0  0  0
 11  7  2  0  0  0  0
 11 30  1  0  0  0  0
 12 16  1  0  0  0  0
 14  2  2  0  0  0  0
 15 23  1  0  0  0  0
 15 22  1  1  0  0  0
 15  3  1  0  0  0  0
 16 22  1  0  0  0  0
 17 13  1  0  0  0  0
 18  2  1  1  0  0  0
 18  1  1  0  0  0  0
 18 23  1  0  0  0  0
 19  4  1  0  0  0  0
 19 21  1  0  0  0  0
 20  9  2  0  0  0  0
 25 21  1  6  0  0  0
 25 26  1  0  0  0  0
 25 24  1  0  0  0  0
 26 24  1  0  0  0  0
 26 28  1  0  0  0  0
 27 26  1  0  0  0  0
 30 29  1  0  0  0  0
M  END
>  <MODEL>
9

>  <REMARK>
 VINA RESULT:      -5.3      3.553      7.780
  Name = 
  2 active torsions:
  status: ('A' for Active; 'I' for Inactive)
    1  A    between atoms: C_10  and  N_25
    2  A    between atoms: C_13  and  C_30
                            x       y       z     vdW  Elec       q    Type
                         _______ _______ _______ _____ _____    ______ ____

>  <TORSDO>
F 2

$$$$
