=
 OpenBabel11052416593D

 32 36  0  0  1  0  0  0  0  0999 V2000
  180.4930  177.7900  140.6630 C   0  0  0  0  0  3  0  0  0  0  0  0
  185.2280  178.7820  140.9930 C   0  0  0  0  0  0  0  0  0  0  0  0
  185.3050  178.6230  146.5280 C   0  0  0  0  0  2  0  0  0  0  0  0
  186.2310  177.4770  146.2380 C   0  0  0  0  0  3  0  0  0  0  0  0
  182.9800  178.0800  139.4660 C   0  0  0  0  0  0  0  0  0  0  0  0
  183.9860  178.6210  141.6370 C   0  0  0  0  0  0  0  0  0  0  0  0
  181.5920  178.1320  141.4490 C   0  0  0  0  0  3  0  0  0  0  0  0
  184.2000  178.7230  145.4750 C   0  0  0  0  0  2  0  0  0  0  0  0
  183.8310  178.8200  143.1010 C   0  0  0  0  0  3  0  0  0  0  0  0
  184.7380  178.6340  144.0700 C   0  0  0  0  0  0  0  0  0  0  0  0
  186.8420  178.2280  142.7600 C   0  0  0  0  0  0  0  0  0  0  0  0
  181.9530  177.5400  137.4650 O   0  0  0  0  0  0  0  0  0  0  0  0
  181.8470  177.7320  138.7100 C   0  0  0  0  0  0  0  0  0  0  0  0
  182.8520  178.2850  140.8600 C   0  0  0  0  0  0  0  0  0  0  0  0
  184.2320  178.2280  138.8580 C   0  0  0  0  0  3  0  0  0  0  0  0
  180.6300  177.5990  139.3220 N   0  0  0  0  0  0  0  0  0  0  0  0
  186.6350  177.2380  144.9900 C   0  0  0  0  0  3  0  0  0  0  0  0
  186.0910  178.0260  143.8620 C   0  0  0  0  0  0  0  0  0  0  0  0
  185.3440  178.5830  139.6160 C   0  0  0  0  0  3  0  0  0  0  0  0
  186.4300  179.2400  141.7370 C   0  0  0  0  0  2  0  0  0  0  0  0
  190.4850  177.0590  143.4910 C   0  0  2  0  0  3  0  0  0  0  0  0
  190.5880  176.2330  142.2000 C   0  0  0  0  0  2  0  0  0  0  0  0
  188.6470  177.4810  141.1210 C   0  0  2  0  0  3  0  0  0  0  0  0
  190.2610  176.2660  139.8320 O   0  0  0  0  0  1  0  0  0  0  0  0
  190.1090  177.0310  140.9880 C   0  0  2  0  0  3  0  0  0  0  0  0
  189.2630  177.9860  143.5380 C   0  0  0  0  0  2  0  0  0  0  0  0
  191.6450  177.8130  143.6640 O   0  0  0  0  0  1  0  0  0  0  0  0
  188.5040  178.7330  140.5200 O   0  0  0  0  0  1  0  0  0  0  0  0
  188.1620  177.5120  142.5860 C   0  0  1  0  0  3  0  0  0  0  0  0
  179.4410  177.2420  138.5530 C   0  0  0  0  0  2  0  0  0  0  0  0
  178.9320  175.8610  138.9450 C   0  0  0  0  0  2  0  0  0  0  0  0
  179.7380  174.7800  138.2510 C   0  0  0  0  0  1  0  0  0  0  0  0
  1  7  2  0  0  0  0
  2  6  1  0  0  0  0
  2 20  1  0  0  0  0
  4  3  1  0  0  0  0
  5 14  1  0  0  0  0
  6  9  1  0  0  0  0
  8  3  1  0  0  0  0
  9 10  2  0  0  0  0
 10  8  1  0  0  0  0
 11 18  2  0  0  0  0
 12 13  2  0  0  0  0
 13 16  1  0  0  0  0
 13  5  1  0  0  0  0
 14  7  1  0  0  0  0
 14  6  2  0  0  0  0
 15  5  2  0  0  0  0
 15 19  1  0  0  0  0
 16  1  1  0  0  0  0
 17  4  2  0  0  0  0
 18 10  1  0  0  0  0
 18 17  1  0  0  0  0
 19  2  2  0  0  0  0
 20 11  1  0  0  0  0
 21 26  1  0  0  0  0
 21 27  1  6  0  0  0
 22 21  1  0  0  0  0
 23 28  1  1  0  0  0
 23 29  1  0  0  0  0
 25 24  1  6  0  0  0
 25 23  1  0  0  0  0
 25 22  1  0  0  0  0
 29 11  1  6  0  0  0
 29 26  1  0  0  0  0
 30 31  1  0  0  0  0
 30 16  1  0  0  0  0
 32 31  1  0  0  0  0
M  END
>  <MODEL>
1

>  <REMARK>
 VINA RESULT:      -9.9      0.000      0.000
  Name = 
  3 active torsions:
  status: ('A' for Active; 'I' for Inactive)
    1  A    between atoms: C_1  and  C_10
    2  A    between atoms: C_10  and  N_24
    3  A    between atoms: C_16  and  C_32
                            x       y       z     vdW  Elec       q    Type
                         _______ _______ _______ _____ _____    ______ ____

>  <TORSDO>
F 3

$$$$
=
 OpenBabel11052416593D

 32 36  0  0  1  0  0  0  0  0999 V2000
  188.3040  176.4740  137.1630 C   0  0  0  0  0  3  0  0  0  0  0  0
  189.8890  177.8530  141.5330 C   0  0  0  0  0  0  0  0  0  0  0  0
  184.8680  179.3070  143.3610 C   0  0  0  0  0  2  0  0  0  0  0  0
  185.1650  178.1950  144.3250 C   0  0  0  0  0  3  0  0  0  0  0  0
  190.3190  176.5820  139.0680 C   0  0  0  0  0  0  0  0  0  0  0  0
  188.8370  177.7970  140.5990 C   0  0  0  0  0  0  0  0  0  0  0  0
  188.0570  177.1060  138.3800 C   0  0  0  0  0  3  0  0  0  0  0  0
  185.4630  179.0190  141.9820 C   0  0  0  0  0  2  0  0  0  0  0  0
  187.5080  178.4000  140.8790 C   0  0  0  0  0  3  0  0  0  0  0  0
  186.8980  178.5670  142.0600 C   0  0  0  0  0  0  0  0  0  0  0  0
  188.7110  177.9500  143.6860 C   0  0  0  0  0  0  0  0  0  0  0  0
  191.6410  175.4150  137.5710 O   0  0  0  0  0  0  0  0  0  0  0  0
  190.5250  175.9500  137.8290 C   0  0  0  0  0  0  0  0  0  0  0  0
  189.0640  177.1710  139.3500 C   0  0  0  0  0  0  0  0  0  0  0  0
  191.3390  176.6360  140.0250 C   0  0  0  0  0  3  0  0  0  0  0  0
  189.5180  175.9140  136.9030 N   0  0  0  0  0  0  0  0  0  0  0  0
  186.3750  177.6350  144.3520 C   0  0  0  0  0  3  0  0  0  0  0  0
  187.4030  178.0220  143.3620 C   0  0  0  0  0  0  0  0  0  0  0  0
  191.1260  177.2730  141.2440 C   0  0  0  0  0  3  0  0  0  0  0  0
  189.7450  178.5900  142.8150 C   0  0  0  0  0  2  0  0  0  0  0  0
  188.8700  177.1710  147.5000 C   0  0  2  0  0  3  0  0  0  0  0  0
  190.0160  176.1590  147.3490 C   0  0  0  0  0  2  0  0  0  0  0  0
  190.6700  177.0790  145.0660 C   0  0  2  0  0  3  0  0  0  0  0  0
  192.1820  175.7910  146.4080 O   0  0  0  0  0  1  0  0  0  0  0  0
  191.1430  176.7180  146.4820 C   0  0  2  0  0  3  0  0  0  0  0  0
  188.6100  178.0060  146.2380 C   0  0  0  0  0  2  0  0  0  0  0  0
  189.1290  178.0220  148.5730 O   0  0  0  0  0  1  0  0  0  0  0  0
  191.3710  178.2060  144.6310 O   0  0  0  0  0  1  0  0  0  0  0  0
  189.1470  177.3090  144.9850 C   0  0  1  0  0  3  0  0  0  0  0  0
  189.7140  175.2670  135.6100 C   0  0  0  0  0  2  0  0  0  0  0  0
  188.6860  174.1640  135.3900 C   0  0  0  0  0  2  0  0  0  0  0  0
  188.9940  172.9660  136.2680 C   0  0  0  0  0  1  0  0  0  0  0  0
  1  7  2  0  0  0  0
  2 20  1  0  0  0  0
  3  4  1  0  0  0  0
  4 17  2  0  0  0  0
  5 14  2  0  0  0  0
  5 15  1  0  0  0  0
  6  9  1  0  0  0  0
  6  2  2  0  0  0  0
  7 14  1  0  0  0  0
  8 10  1  0  0  0  0
  8  3  1  0  0  0  0
  9 10  2  0  0  0  0
 10 18  1  0  0  0  0
 12 13  2  0  0  0  0
 13  5  1  0  0  0  0
 14  6  1  0  0  0  0
 15 19  2  0  0  0  0
 16  1  1  0  0  0  0
 16 13  1  0  0  0  0
 18 11  2  0  0  0  0
 18 17  1  0  0  0  0
 19  2  1  0  0  0  0
 20 11  1  0  0  0  0
 21 27  1  1  0  0  0
 22 21  1  0  0  0  0
 23 28  1  1  0  0  0
 23 25  1  0  0  0  0
 25 24  1  6  0  0  0
 25 22  1  0  0  0  0
 26 21  1  0  0  0  0
 29 11  1  6  0  0  0
 29 23  1  0  0  0  0
 29 26  1  0  0  0  0
 30 16  1  0  0  0  0
 31 30  1  0  0  0  0
 31 32  1  0  0  0  0
M  END
>  <MODEL>
2

>  <REMARK>
 VINA RESULT:      -9.9      4.085      6.235
  Name = 
  3 active torsions:
  status: ('A' for Active; 'I' for Inactive)
    1  A    between atoms: C_1  and  C_10
    2  A    between atoms: C_10  and  N_24
    3  A    between atoms: C_16  and  C_32
                            x       y       z     vdW  Elec       q    Type
                         _______ _______ _______ _____ _____    ______ ____

>  <TORSDO>
F 3

$$$$
=
 OpenBabel11052416593D

 32 36  0  0  1  0  0  0  0  0999 V2000
  188.2620  177.4620  144.3160 C   0  0  0  0  0  3  0  0  0  0  0  0
  185.0170  178.9640  141.0410 C   0  0  0  0  0  0  0  0  0  0  0  0
  188.2420  177.8000  136.6920 C   0  0  0  0  0  2  0  0  0  0  0  0
  187.1110  176.8530  136.4160 C   0  0  0  0  0  3  0  0  0  0  0  0
  185.6870  178.2780  143.6780 C   0  0  0  0  0  0  0  0  0  0  0  0
  186.3270  178.5330  141.3240 C   0  0  0  0  0  0  0  0  0  0  0  0
  187.9590  177.7890  142.9960 C   0  0  0  0  0  3  0  0  0  0  0  0
  188.4850  177.9520  138.1940 C   0  0  0  0  0  2  0  0  0  0  0  0
  187.3670  178.4380  140.2670 C   0  0  0  0  0  3  0  0  0  0  0  0
  187.2090  178.1920  138.9590 C   0  0  0  0  0  0  0  0  0  0  0  0
  184.7140  178.3010  138.6950 C   0  0  0  0  0  0  0  0  0  0  0  0
  185.1650  177.9910  145.9130 O   0  0  0  0  0  0  0  0  0  0  0  0
  186.0340  177.9360  144.9980 C   0  0  0  0  0  0  0  0  0  0  0  0
  186.6660  178.2050  142.6590 C   0  0  0  0  0  0  0  0  0  0  0  0
  184.3880  178.6920  143.3620 C   0  0  0  0  0  3  0  0  0  0  0  0
  187.3120  177.5400  145.2880 N   0  0  0  0  0  0  0  0  0  0  0  0
  186.0000  176.9000  137.1530 C   0  0  0  0  0  3  0  0  0  0  0  0
  185.9110  177.8070  138.3180 C   0  0  0  0  0  0  0  0  0  0  0  0
  184.0600  179.0380  142.0540 C   0  0  0  0  0  3  0  0  0  0  0  0
  184.6330  179.4240  139.6810 C   0  0  0  0  0  2  0  0  0  0  0  0
  181.1580  178.3660  137.1060 C   0  0  2  0  0  3  0  0  0  0  0  0
  181.0920  176.8400  136.9420 C   0  0  0  0  0  2  0  0  0  0  0  0
  182.9400  176.4700  138.6540 C   0  0  2  0  0  3  0  0  0  0  0  0
  181.3890  174.7450  138.0520 O   0  0  0  0  0  1  0  0  0  0  0  0
  181.5070  176.1230  138.2260 C   0  0  2  0  0  3  0  0  0  0  0  0
  182.3210  178.8460  137.9850 C   0  0  0  0  0  2  0  0  0  0  0  0
  179.9550  178.8380  137.6300 O   0  0  0  0  0  1  0  0  0  0  0  0
  182.9990  176.4960  140.0500 O   0  0  0  0  0  1  0  0  0  0  0  0
  183.4380  177.8010  138.0550 C   0  0  1  0  0  3  0  0  0  0  0  0
  187.6920  177.1850  146.6520 C   0  0  0  0  0  2  0  0  0  0  0  0
  189.0610  177.7550  147.0030 C   0  0  0  0  0  2  0  0  0  0  0  0
  189.0760  178.2630  148.4320 C   0  0  0  0  0  1  0  0  0  0  0  0
  1 16  1  0  0  0  0
  2  6  2  0  0  0  0
  2 19  1  0  0  0  0
  3  8  1  0  0  0  0
  4  3  1  0  0  0  0
  4 17  2  0  0  0  0
  5 13  1  0  0  0  0
  6 14  1  0  0  0  0
  7  1  2  0  0  0  0
  8 10  1  0  0  0  0
  9  6  1  0  0  0  0
 10  9  2  0  0  0  0
 11 20  1  0  0  0  0
 13 16  1  0  0  0  0
 13 12  2  0  0  0  0
 14  7  1  0  0  0  0
 14  5  2  0  0  0  0
 15  5  1  0  0  0  0
 16 30  1  0  0  0  0
 17 18  1  0  0  0  0
 18 11  2  0  0  0  0
 18 10  1  0  0  0  0
 19 15  2  0  0  0  0
 20  2  1  0  0  0  0
 21 27  1  1  0  0  0
 21 26  1  0  0  0  0
 22 21  1  0  0  0  0
 22 25  1  0  0  0  0
 23 28  1  1  0  0  0
 25 24  1  6  0  0  0
 25 23  1  0  0  0  0
 26 29  1  0  0  0  0
 29 23  1  0  0  0  0
 29 11  1  1  0  0  0
 30 31  1  0  0  0  0
 31 32  1  0  0  0  0
M  END
>  <MODEL>
3

>  <REMARK>
 VINA RESULT:      -9.7      3.104      8.211
  Name = 
  3 active torsions:
  status: ('A' for Active; 'I' for Inactive)
    1  A    between atoms: C_1  and  C_10
    2  A    between atoms: C_10  and  N_24
    3  A    between atoms: C_16  and  C_32
                            x       y       z     vdW  Elec       q    Type
                         _______ _______ _______ _____ _____    ______ ____

>  <TORSDO>
F 3

$$$$
=
 OpenBabel11052416593D

 32 36  0  0  1  0  0  0  0  0999 V2000
  190.6430  176.8070  145.2710 C   0  0  0  0  0  3  0  0  0  0  0  0
  188.6770  178.0130  141.0060 C   0  0  0  0  0  0  0  0  0  0  0  0
  193.1780  176.6660  138.0740 C   0  0  0  0  0  2  0  0  0  0  0  0
  192.2080  175.6730  137.5010 C   0  0  0  0  0  3  0  0  0  0  0  0
  188.4280  177.5120  143.7560 C   0  0  0  0  0  0  0  0  0  0  0  0
  189.8180  177.6360  141.7390 C   0  0  0  0  0  0  0  0  0  0  0  0
  190.7990  177.0430  143.9070 C   0  0  0  0  0  3  0  0  0  0  0  0
  192.9020  176.9180  139.5570 C   0  0  0  0  0  2  0  0  0  0  0  0
  191.1530  177.5030  141.1000 C   0  0  0  0  0  3  0  0  0  0  0  0
  191.4430  177.1710  139.8340 C   0  0  0  0  0  0  0  0  0  0  0  0
  189.1800  177.1970  138.7440 C   0  0  0  0  0  0  0  0  0  0  0  0
  187.1890  177.3520  145.7030 O   0  0  0  0  0  0  0  0  0  0  0  0
  188.3140  177.2620  145.1360 C   0  0  0  0  0  0  0  0  0  0  0  0
  189.6910  177.4020  143.1300 C   0  0  0  0  0  0  0  0  0  0  0  0
  187.3080  177.8700  142.9970 C   0  0  0  0  0  3  0  0  0  0  0  0
  189.4220  176.9200  145.8630 N   0  0  0  0  0  0  0  0  0  0  0  0
  190.9140  175.7370  137.8190 C   0  0  0  0  0  3  0  0  0  0  0  0
  190.4360  176.7130  138.8230 C   0  0  0  0  0  0  0  0  0  0  0  0
  187.4350  178.1250  141.6340 C   0  0  0  0  0  3  0  0  0  0  0  0
  188.7690  178.3770  139.5690 C   0  0  0  0  0  2  0  0  0  0  0  0
  187.3790  174.5910  136.4780 C   0  0  2  0  0  3  0  0  0  0  0  0
  186.4130  175.6250  135.8820 C   0  0  0  0  0  2  0  0  0  0  0  0
  187.9040  177.5720  136.5690 C   0  0  2  0  0  3  0  0  0  0  0  0
  186.2510  177.7730  134.8450 O   0  0  0  0  0  1  0  0  0  0  0  0
  187.1530  176.8800  135.4210 C   0  0  2  0  0  3  0  0  0  0  0  0
  188.5360  175.2100  137.2740 C   0  0  0  0  0  2  0  0  0  0  0  0
  187.8940  173.7850  135.4640 O   0  0  0  0  0  1  0  0  0  0  0  0
  189.0850  178.1230  136.0670 O   0  0  0  0  0  1  0  0  0  0  0  0
  188.1940  176.6240  137.7510 C   0  0  1  0  0  3  0  0  0  0  0  0
  189.3250  176.6610  147.2960 C   0  0  0  0  0  2  0  0  0  0  0  0
  189.4590  177.9520  148.0940 C   0  0  0  0  0  2  0  0  0  0  0  0
  188.1750  178.2510  148.8430 C   0  0  0  0  0  1  0  0  0  0  0  0
  1 16  1  0  0  0  0
  2 19  2  0  0  0  0
  2  6  1  0  0  0  0
  3  8  1  0  0  0  0
  4 17  2  0  0  0  0
  4  3  1  0  0  0  0
  5 13  1  0  0  0  0
  6 14  2  0  0  0  0
  7  1  2  0  0  0  0
  8 10  1  0  0  0  0
  9  6  1  0  0  0  0
 10  9  2  0  0  0  0
 11 18  2  0  0  0  0
 11 20  1  0  0  0  0
 13 12  2  0  0  0  0
 13 16  1  0  0  0  0
 14  5  1  0  0  0  0
 14  7  1  0  0  0  0
 15  5  2  0  0  0  0
 16 30  1  0  0  0  0
 17 18  1  0  0  0  0
 18 10  1  0  0  0  0
 19 15  1  0  0  0  0
 20  2  1  0  0  0  0
 21 27  1  6  0  0  0
 21 26  1  0  0  0  0
 22 21  1  0  0  0  0
 23 28  1  6  0  0  0
 23 29  1  0  0  0  0
 25 24  1  1  0  0  0
 25 22  1  0  0  0  0
 25 23  1  0  0  0  0
 26 29  1  0  0  0  0
 29 11  1  6  0  0  0
 30 31  1  0  0  0  0
 31 32  1  0  0  0  0
M  END
>  <MODEL>
4

>  <REMARK>
 VINA RESULT:      -9.4      4.548      8.530
  Name = 
  3 active torsions:
  status: ('A' for Active; 'I' for Inactive)
    1  A    between atoms: C_1  and  C_10
    2  A    between atoms: C_10  and  N_24
    3  A    between atoms: C_16  and  C_32
                            x       y       z     vdW  Elec       q    Type
                         _______ _______ _______ _____ _____    ______ ____

>  <TORSDO>
F 3

$$$$
=
 OpenBabel11052416593D

 32 36  0  0  1  0  0  0  0  0999 V2000
  191.4230  176.8090  143.4350 C   0  0  0  0  0  3  0  0  0  0  0  0
  189.2770  177.9630  139.2430 C   0  0  0  0  0  0  0  0  0  0  0  0
  193.3460  175.8960  136.1060 C   0  0  0  0  0  2  0  0  0  0  0  0
  192.2260  174.9920  135.6790 C   0  0  0  0  0  3  0  0  0  0  0  0
  189.1900  177.6750  142.0330 C   0  0  0  0  0  0  0  0  0  0  0  0
  190.4210  177.4990  139.9190 C   0  0  0  0  0  0  0  0  0  0  0  0
  191.4950  176.9350  142.0490 C   0  0  0  0  0  3  0  0  0  0  0  0
  193.2190  176.2750  137.5820 C   0  0  0  0  0  2  0  0  0  0  0  0
  191.6760  177.1650  139.1980 C   0  0  0  0  0  3  0  0  0  0  0  0
  191.8260  176.7190  137.9420 C   0  0  0  0  0  0  0  0  0  0  0  0
  189.5010  176.9470  137.0170 C   0  0  0  0  0  0  0  0  0  0  0  0
  188.0990  177.7920  144.0690 O   0  0  0  0  0  0  0  0  0  0  0  0
  189.1580  177.5310  143.4320 C   0  0  0  0  0  0  0  0  0  0  0  0
  190.3790  177.3730  141.3280 C   0  0  0  0  0  0  0  0  0  0  0  0
  188.0620  178.1150  141.3300 C   0  0  0  0  0  3  0  0  0  0  0  0
  190.2730  177.1060  144.1010 N   0  0  0  0  0  0  0  0  0  0  0  0
  190.9780  175.2310  136.0820 C   0  0  0  0  0  3  0  0  0  0  0  0
  190.6960  176.3210  137.0420 C   0  0  0  0  0  0  0  0  0  0  0  0
  188.1090  178.2640  139.9470 C   0  0  0  0  0  3  0  0  0  0  0  0
  189.2960  178.2190  137.7790 C   0  0  0  0  0  2  0  0  0  0  0  0
  186.3590  176.9790  134.7160 C   0  0  2  0  0  3  0  0  0  0  0  0
  186.3060  175.4490  134.5940 C   0  0  0  0  0  2  0  0  0  0  0  0
  187.7490  175.1280  136.6680 C   0  0  2  0  0  3  0  0  0  0  0  0
  186.3340  173.3930  135.8120 O   0  0  0  0  0  1  0  0  0  0  0  0
  186.4320  174.7760  135.9600 C   0  0  2  0  0  3  0  0  0  0  0  0
  187.3190  177.4820  135.8030 C   0  0  0  0  0  2  0  0  0  0  0  0
  185.0800  177.4790  134.9610 O   0  0  0  0  0  1  0  0  0  0  0  0
  187.5150  175.2040  138.0420 O   0  0  0  0  0  1  0  0  0  0  0  0
  188.3810  176.4330  136.1410 C   0  0  1  0  0  3  0  0  0  0  0  0
  190.2610  176.9550  145.5530 C   0  0  0  0  0  2  0  0  0  0  0  0
  191.6730  176.7680  146.0940 C   0  0  0  0  0  2  0  0  0  0  0  0
  191.6540  175.9200  147.3510 C   0  0  0  0  0  1  0  0  0  0  0  0
  1 16  1  0  0  0  0
  2  6  2  0  0  0  0
  2 19  1  0  0  0  0
  3  8  1  0  0  0  0
  4 17  2  0  0  0  0
  4  3  1  0  0  0  0
  5 13  1  0  0  0  0
  6 14  1  0  0  0  0
  7  1  2  0  0  0  0
  8 10  1  0  0  0  0
  9  6  1  0  0  0  0
 10  9  2  0  0  0  0
 11 18  2  0  0  0  0
 11 20  1  0  0  0  0
 13 12  2  0  0  0  0
 13 16  1  0  0  0  0
 14  5  2  0  0  0  0
 14  7  1  0  0  0  0
 15  5  1  0  0  0  0
 16 30  1  0  0  0  0
 17 18  1  0  0  0  0
 18 10  1  0  0  0  0
 19 15  2  0  0  0  0
 20  2  1  0  0  0  0
 21 27  1  1  0  0  0
 21 26  1  0  0  0  0
 22 21  1  0  0  0  0
 22 25  1  0  0  0  0
 23 28  1  1  0  0  0
 25 24  1  6  0  0  0
 25 23  1  0  0  0  0
 26 29  1  0  0  0  0
 29 23  1  0  0  0  0
 29 11  1  1  0  0  0
 30 31  1  0  0  0  0
 31 32  1  0  0  0  0
M  END
>  <MODEL>
5

>  <REMARK>
 VINA RESULT:      -8.9      4.785      9.229
  Name = 
  3 active torsions:
  status: ('A' for Active; 'I' for Inactive)
    1  A    between atoms: C_1  and  C_10
    2  A    between atoms: C_10  and  N_24
    3  A    between atoms: C_16  and  C_32
                            x       y       z     vdW  Elec       q    Type
                         _______ _______ _______ _____ _____    ______ ____

>  <TORSDO>
F 3

$$$$
=
 OpenBabel11052416593D

 32 36  0  0  1  0  0  0  0  0999 V2000
  186.4940  178.2350  142.9250 C   0  0  0  0  0  3  0  0  0  0  0  0
  183.2710  178.5840  139.3180 C   0  0  0  0  0  0  0  0  0  0  0  0
  178.9500  179.3690  142.6920 C   0  0  0  0  0  2  0  0  0  0  0  0
  178.9310  180.6810  141.9620 C   0  0  0  0  0  3  0  0  0  0  0  0
  185.9270  178.4880  140.2200 C   0  0  0  0  0  0  0  0  0  0  0  0
  183.5220  178.4780  140.7000 C   0  0  0  0  0  0  0  0  0  0  0  0
  185.1640  178.2870  142.5100 C   0  0  0  0  0  3  0  0  0  0  0  0
  180.3800  178.8630  142.8840 C   0  0  0  0  0  2  0  0  0  0  0  0
  182.4190  178.4080  141.6930 C   0  0  0  0  0  3  0  0  0  0  0  0
  181.1890  178.9350  141.6160 C   0  0  0  0  0  0  0  0  0  0  0  0
  181.1050  179.7400  139.2380 C   0  0  0  0  0  0  0  0  0  0  0  0
  188.2120  178.5100  139.8610 O   0  0  0  0  0  0  0  0  0  0  0  0
  187.2540  178.4350  140.6820 C   0  0  0  0  0  0  0  0  0  0  0  0
  184.8620  178.4120  141.1490 C   0  0  0  0  0  0  0  0  0  0  0  0
  185.6460  178.6130  138.8540 C   0  0  0  0  0  3  0  0  0  0  0  0
  187.5090  178.3060  142.0210 N   0  0  0  0  0  0  0  0  0  0  0  0
  179.7320  180.8800  140.9150 C   0  0  0  0  0  3  0  0  0  0  0  0
  180.7270  179.8550  140.5270 C   0  0  0  0  0  0  0  0  0  0  0  0
  184.3280  178.6530  138.4090 C   0  0  0  0  0  3  0  0  0  0  0  0
  181.8870  178.5480  138.7800 C   0  0  0  0  0  2  0  0  0  0  0  0
  180.0820  181.2440  135.7930 C   0  0  2  0  0  3  0  0  0  0  0  0
  179.9100  182.6660  136.3500 C   0  0  0  0  0  2  0  0  0  0  0  0
  181.3140  182.1430  138.4100 C   0  0  2  0  0  3  0  0  0  0  0  0
  180.9340  184.3860  137.6560 O   0  0  0  0  0  1  0  0  0  0  0  0
  181.1050  183.0770  137.2080 C   0  0  2  0  0  3  0  0  0  0  0  0
  180.7790  180.2790  136.7620 C   0  0  0  0  0  2  0  0  0  0  0  0
  180.7920  181.2890  134.5940 O   0  0  0  0  0  1  0  0  0  0  0  0
  182.6830  182.0220  138.6540 O   0  0  0  0  0  1  0  0  0  0  0  0
  180.6620  180.7590  138.2110 C   0  0  1  0  0  3  0  0  0  0  0  0
  188.8790  178.2460  142.5190 C   0  0  0  0  0  2  0  0  0  0  0  0
  188.9790  177.3320  143.7340 C   0  0  0  0  0  2  0  0  0  0  0  0
  189.7730  177.9990  144.8390 C   0  0  0  0  0  1  0  0  0  0  0  0
  2  6  1  0  0  0  0
  3  8  1  0  0  0  0
  4  3  1  0  0  0  0
  5 13  1  0  0  0  0
  5 14  1  0  0  0  0
  6 14  2  0  0  0  0
  6  9  1  0  0  0  0
  7  1  2  0  0  0  0
 10  9  2  0  0  0  0
 10  8  1  0  0  0  0
 11 18  2  0  0  0  0
 12 13  2  0  0  0  0
 13 16  1  0  0  0  0
 14  7  1  0  0  0  0
 15  5  2  0  0  0  0
 16 30  1  0  0  0  0
 16  1  1  0  0  0  0
 17  4  2  0  0  0  0
 18 17  1  0  0  0  0
 18 10  1  0  0  0  0
 19 15  1  0  0  0  0
 19  2  2  0  0  0  0
 20 11  1  0  0  0  0
 20  2  1  0  0  0  0
 21 27  1  6  0  0  0
 21 22  1  0  0  0  0
 21 26  1  0  0  0  0
 22 25  1  0  0  0  0
 23 28  1  6  0  0  0
 25 24  1  1  0  0  0
 25 23  1  0  0  0  0
 26 29  1  0  0  0  0
 29 23  1  0  0  0  0
 29 11  1  1  0  0  0
 30 31  1  0  0  0  0
 31 32  1  0  0  0  0
M  END
>  <MODEL>
6

>  <REMARK>
 VINA RESULT:      -8.9      3.255      8.289
  Name = 
  3 active torsions:
  status: ('A' for Active; 'I' for Inactive)
    1  A    between atoms: C_1  and  C_10
    2  A    between atoms: C_10  and  N_24
    3  A    between atoms: C_16  and  C_32
                            x       y       z     vdW  Elec       q    Type
                         _______ _______ _______ _____ _____    ______ ____

>  <TORSDO>
F 3

$$$$
=
 OpenBabel11052416593D

 32 36  0  0  1  0  0  0  0  0999 V2000
  183.1860  178.6000  143.3280 C   0  0  0  0  0  3  0  0  0  0  0  0
  187.0250  178.5910  140.3650 C   0  0  0  0  0  0  0  0  0  0  0  0
  190.6290  177.2550  144.3530 C   0  0  0  0  0  2  0  0  0  0  0  0
  190.7720  176.0430  143.4790 C   0  0  0  0  0  3  0  0  0  0  0  0
  184.2480  178.6630  140.7650 C   0  0  0  0  0  0  0  0  0  0  0  0
  186.5210  178.5340  141.6790 C   0  0  0  0  0  0  0  0  0  0  0  0
  184.5690  178.5560  143.1630 C   0  0  0  0  0  3  0  0  0  0  0  0
  189.1920  177.7810  144.3400 C   0  0  0  0  0  2  0  0  0  0  0  0
  187.4180  178.4450  142.8600 C   0  0  0  0  0  3  0  0  0  0  0  0
  188.6350  177.8920  142.9450 C   0  0  0  0  0  0  0  0  0  0  0  0
  189.1560  177.3820  140.5410 C   0  0  0  0  0  0  0  0  0  0  0  0
  182.0710  178.7610  139.9890 O   0  0  0  0  0  0  0  0  0  0  0  0
  182.8580  178.7020  140.9760 C   0  0  0  0  0  0  0  0  0  0  0  0
  185.1200  178.5900  141.8760 C   0  0  0  0  0  0  0  0  0  0  0  0
  184.7790  178.6980  139.4700 C   0  0  0  0  0  3  0  0  0  0  0  0
  182.3590  178.6750  142.2500 N   0  0  0  0  0  0  0  0  0  0  0  0
  190.1800  176.0010  142.2850 C   0  0  0  0  0  3  0  0  0  0  0  0
  189.2850  177.0970  141.8530 C   0  0  0  0  0  0  0  0  0  0  0  0
  186.1570  178.6680  139.2750 C   0  0  0  0  0  3  0  0  0  0  0  0
  188.4860  178.6460  140.1020 C   0  0  0  0  0  2  0  0  0  0  0  0
  191.8730  175.7360  138.2860 C   0  0  2  0  0  3  0  0  0  0  0  0
  190.8600  174.8670  137.5250 C   0  0  0  0  0  2  0  0  0  0  0  0
  188.9060  176.3420  138.2260 C   0  0  2  0  0  3  0  0  0  0  0  0
  188.7880  174.8770  136.3340 O   0  0  0  0  0  1  0  0  0  0  0  0
  189.6590  175.6890  137.0580 C   0  0  2  0  0  3  0  0  0  0  0  0
  191.2270  176.8260  139.1520 C   0  0  0  0  0  2  0  0  0  0  0  0
  192.7610  176.3240  137.3860 O   0  0  0  0  0  1  0  0  0  0  0  0
  188.4210  177.5840  137.8100 O   0  0  0  0  0  1  0  0  0  0  0  0
  189.7740  176.4830  139.4930 C   0  0  1  0  0  3  0  0  0  0  0  0
  180.9190  178.7190  142.4900 C   0  0  0  0  0  2  0  0  0  0  0  0
  180.5960  178.3770  143.9390 C   0  0  0  0  0  2  0  0  0  0  0  0
  179.2850  179.0140  144.3570 C   0  0  0  0  0  1  0  0  0  0  0  0
  2  6  1  0  0  0  0
  4  3  1  0  0  0  0
  5 13  1  0  0  0  0
  5 14  1  0  0  0  0
  6 14  2  0  0  0  0
  6  9  1  0  0  0  0
  7  1  2  0  0  0  0
  8  3  1  0  0  0  0
  9 10  2  0  0  0  0
 10  8  1  0  0  0  0
 11 18  2  0  0  0  0
 12 13  2  0  0  0  0
 13 16  1  0  0  0  0
 14  7  1  0  0  0  0
 15  5  2  0  0  0  0
 16 30  1  0  0  0  0
 16  1  1  0  0  0  0
 17  4  2  0  0  0  0
 18 17  1  0  0  0  0
 18 10  1  0  0  0  0
 19 15  1  0  0  0  0
 19  2  2  0  0  0  0
 20  2  1  0  0  0  0
 20 11  1  0  0  0  0
 21 27  1  6  0  0  0
 21 26  1  0  0  0  0
 22 21  1  0  0  0  0
 23 28  1  6  0  0  0
 23 29  1  0  0  0  0
 25 24  1  1  0  0  0
 25 22  1  0  0  0  0
 25 23  1  0  0  0  0
 26 29  1  0  0  0  0
 29 11  1  1  0  0  0
 30 31  1  0  0  0  0
 31 32  1  0  0  0  0
M  END
>  <MODEL>
7

>  <REMARK>
 VINA RESULT:      -8.3      2.641      4.146
  Name = 
  3 active torsions:
  status: ('A' for Active; 'I' for Inactive)
    1  A    between atoms: C_1  and  C_10
    2  A    between atoms: C_10  and  N_24
    3  A    between atoms: C_16  and  C_32
                            x       y       z     vdW  Elec       q    Type
                         _______ _______ _______ _____ _____    ______ ____

>  <TORSDO>
F 3

$$$$
=
 OpenBabel11052416593D

 32 36  0  0  1  0  0  0  0  0999 V2000
  182.4580  177.5580  138.6820 C   0  0  0  0  0  3  0  0  0  0  0  0
  186.5890  178.7750  140.9100 C   0  0  0  0  0  0  0  0  0  0  0  0
  184.3340  178.8400  145.9680 C   0  0  0  0  0  2  0  0  0  0  0  0
  185.3240  177.7260  146.1560 C   0  0  0  0  0  3  0  0  0  0  0  0
  185.2100  177.9130  138.6230 C   0  0  0  0  0  0  0  0  0  0  0  0
  185.1960  178.5840  140.9820 C   0  0  0  0  0  0  0  0  0  0  0  0
  183.1150  177.9810  139.8360 C   0  0  0  0  0  3  0  0  0  0  0  0
  183.7730  178.8470  144.5450 C   0  0  0  0  0  2  0  0  0  0  0  0
  184.4350  178.8340  142.2330 C   0  0  0  0  0  3  0  0  0  0  0  0
  184.8530  178.7280  143.5020 C   0  0  0  0  0  0  0  0  0  0  0  0
  187.3230  178.3650  143.2180 C   0  0  0  0  0  0  0  0  0  0  0  0
  185.1340  177.2480  136.4090 O   0  0  0  0  0  0  0  0  0  0  0  0
  184.5090  177.4840  137.4820 C   0  0  0  0  0  0  0  0  0  0  0  0
  184.5020  178.1670  139.8210 C   0  0  0  0  0  0  0  0  0  0  0  0
  186.5980  178.0930  138.5880 C   0  0  0  0  0  3  0  0  0  0  0  0
  183.1510  177.3210  137.5340 N   0  0  0  0  0  0  0  0  0  0  0  0
  186.2210  177.4560  145.2070 C   0  0  0  0  0  3  0  0  0  0  0  0
  186.1830  178.1740  143.9140 C   0  0  0  0  0  0  0  0  0  0  0  0
  187.2790  178.5270  139.7210 C   0  0  0  0  0  3  0  0  0  0  0  0
  187.3550  179.3160  142.0630 C   0  0  0  0  0  2  0  0  0  0  0  0
  191.0060  177.9880  144.4290 C   0  0  2  0  0  3  0  0  0  0  0  0
  190.9710  176.4530  144.3840 C   0  0  0  0  0  2  0  0  0  0  0  0
  188.9490  176.4380  142.8370 C   0  0  2  0  0  3  0  0  0  0  0  0
  190.4130  174.5530  143.0450 O   0  0  0  0  0  1  0  0  0  0  0  0
  190.3850  175.9470  143.0670 C   0  0  2  0  0  3  0  0  0  0  0  0
  189.8060  178.6560  143.7440 C   0  0  0  0  0  2  0  0  0  0  0  0
  192.1870  178.4520  143.8500 O   0  0  0  0  0  1  0  0  0  0  0  0
  188.7620  176.6600  141.4700 O   0  0  0  0  0  1  0  0  0  0  0  0
  188.6110  177.7030  143.6530 C   0  0  1  0  0  3  0  0  0  0  0  0
  182.4050  176.8810  136.3590 C   0  0  0  0  0  2  0  0  0  0  0  0
  181.2350  177.8140  136.0740 C   0  0  0  0  0  2  0  0  0  0  0  0
  181.3240  178.3660  134.6640 C   0  0  0  0  0  1  0  0  0  0  0  0
  1  7  2  0  0  0  0
  2  6  1  0  0  0  0
  2 20  1  0  0  0  0
  3  4  1  0  0  0  0
  5 14  1  0  0  0  0
  6  9  1  0  0  0  0
  8  3  1  0  0  0  0
  9 10  2  0  0  0  0
 10 18  1  0  0  0  0
 10  8  1  0  0  0  0
 11 18  2  0  0  0  0
 12 13  2  0  0  0  0
 13 16  1  0  0  0  0
 13  5  1  0  0  0  0
 14  7  1  0  0  0  0
 14  6  2  0  0  0  0
 15  5  2  0  0  0  0
 15 19  1  0  0  0  0
 16  1  1  0  0  0  0
 17  4  2  0  0  0  0
 18 17  1  0  0  0  0
 19  2  2  0  0  0  0
 20 11  1  0  0  0  0
 21 27  1  6  0  0  0
 22 21  1  0  0  0  0
 23 28  1  6  0  0  0
 23 25  1  0  0  0  0
 23 29  1  0  0  0  0
 25 24  1  1  0  0  0
 25 22  1  0  0  0  0
 26 21  1  0  0  0  0
 29 11  1  6  0  0  0
 29 26  1  0  0  0  0
 30 16  1  0  0  0  0
 31 30  1  0  0  0  0
 32 31  1  0  0  0  0
M  END
>  <MODEL>
8

>  <REMARK>
 VINA RESULT:      -8.1      1.831      2.298
  Name = 
  3 active torsions:
  status: ('A' for Active; 'I' for Inactive)
    1  A    between atoms: C_1  and  C_10
    2  A    between atoms: C_10  and  N_24
    3  A    between atoms: C_16  and  C_32
                            x       y       z     vdW  Elec       q    Type
                         _______ _______ _______ _____ _____    ______ ____

>  <TORSDO>
F 3

$$$$
=
 OpenBabel11052416593D

 32 36  0  0  1  0  0  0  0  0999 V2000
  190.4710  177.4430  138.4300 C   0  0  0  0  0  3  0  0  0  0  0  0
  187.9690  176.9550  142.5550 C   0  0  0  0  0  0  0  0  0  0  0  0
  192.2840  175.0170  145.4360 C   0  0  0  0  0  2  0  0  0  0  0  0
  192.0330  176.2860  146.1980 C   0  0  0  0  0  3  0  0  0  0  0  0
  188.1830  177.9170  139.9280 C   0  0  0  0  0  0  0  0  0  0  0  0
  189.1540  176.7160  141.8330 C   0  0  0  0  0  0  0  0  0  0  0  0
  190.3980  176.9580  139.7350 C   0  0  0  0  0  3  0  0  0  0  0  0
  191.9840  175.1960  143.9470 C   0  0  0  0  0  2  0  0  0  0  0  0
  190.2910  175.9610  142.4200 C   0  0  0  0  0  3  0  0  0  0  0  0
  190.6590  175.8700  143.7060 C   0  0  0  0  0  0  0  0  0  0  0  0
  188.7410  176.9830  144.8870 C   0  0  0  0  0  0  0  0  0  0  0  0
  187.3530  179.0500  138.0900 O   0  0  0  0  0  0  0  0  0  0  0  0
  188.2990  178.3910  138.6090 C   0  0  0  0  0  0  0  0  0  0  0  0
  189.2500  177.1870  140.5020 C   0  0  0  0  0  0  0  0  0  0  0  0
  187.0260  178.1560  140.6780 C   0  0  0  0  0  3  0  0  0  0  0  0
  189.4350  178.1410  137.8890 N   0  0  0  0  0  0  0  0  0  0  0  0
  190.9540  177.0240  145.9370 C   0  0  0  0  0  3  0  0  0  0  0  0
  190.0510  176.6640  144.8210 C   0  0  0  0  0  0  0  0  0  0  0  0
  186.9190  177.6720  141.9790 C   0  0  0  0  0  3  0  0  0  0  0  0
  187.7680  176.3930  143.9160 C   0  0  0  0  0  2  0  0  0  0  0  0
  188.2350  178.4140  148.4750 C   0  0  2  0  0  3  0  0  0  0  0  0
  187.1880  179.4450  148.0260 C   0  0  0  0  0  2  0  0  0  0  0  0
  186.7150  178.1810  145.8660 C   0  0  2  0  0  3  0  0  0  0  0  0
  185.1670  179.7600  146.7910 O   0  0  0  0  0  1  0  0  0  0  0  0
  186.1220  178.8060  147.1380 C   0  0  2  0  0  3  0  0  0  0  0  0
  188.5670  177.3620  147.4070 C   0  0  0  0  0  2  0  0  0  0  0  0
  187.8030  177.7750  149.6370 O   0  0  0  0  0  1  0  0  0  0  0  0
  185.9840  177.0350  145.5450 O   0  0  0  0  0  1  0  0  0  0  0  0
  188.2170  177.8590  146.0020 C   0  0  1  0  0  3  0  0  0  0  0  0
  189.5720  178.6210  136.5170 C   0  0  0  0  0  2  0  0  0  0  0  0
  189.4170  177.4790  135.5210 C   0  0  0  0  0  2  0  0  0  0  0  0
  187.9900  177.4050  135.0130 C   0  0  0  0  0  1  0  0  0  0  0  0
  1  7  2  0  0  0  0
  2 20  1  0  0  0  0
  3  4  1  0  0  0  0
  5 14  2  0  0  0  0
  5 15  1  0  0  0  0
  6  9  1  0  0  0  0
  6  2  2  0  0  0  0
  7 14  1  0  0  0  0
  8  3  1  0  0  0  0
  9 10  2  0  0  0  0
 10  8  1  0  0  0  0
 10 18  1  0  0  0  0
 12 13  2  0  0  0  0
 13  5  1  0  0  0  0
 14  6  1  0  0  0  0
 15 19  2  0  0  0  0
 16  1  1  0  0  0  0
 16 13  1  0  0  0  0
 17  4  2  0  0  0  0
 18 11  2  0  0  0  0
 18 17  1  0  0  0  0
 19  2  1  0  0  0  0
 20 11  1  0  0  0  0
 21 27  1  1  0  0  0
 22 21  1  0  0  0  0
 23 28  1  1  0  0  0
 23 29  1  0  0  0  0
 23 25  1  0  0  0  0
 25 24  1  6  0  0  0
 25 22  1  0  0  0  0
 26 21  1  0  0  0  0
 29 11  1  6  0  0  0
 29 26  1  0  0  0  0
 30 16  1  0  0  0  0
 31 30  1  0  0  0  0
 32 31  1  0  0  0  0
M  END
>  <MODEL>
9

>  <REMARK>
 VINA RESULT:      -7.9      4.303      6.827
  Name = 
  3 active torsions:
  status: ('A' for Active; 'I' for Inactive)
    1  A    between atoms: C_1  and  C_10
    2  A    between atoms: C_10  and  N_24
    3  A    between atoms: C_16  and  C_32
                            x       y       z     vdW  Elec       q    Type
                         _______ _______ _______ _____ _____    ______ ____

>  <TORSDO>
F 3

$$$$
