=
 OpenBabel11052416583D

 32 35  0  0  1  0  0  0  0  0999 V2000
  186.3360  178.9090  141.8370 C   0  0  1  0  0  3  0  0  0  0  0  0
  182.1810  178.9010  144.5130 C   0  0  0  0  0  3  0  0  0  0  0  0
  181.4550  179.0290  143.3280 C   0  0  0  0  0  3  0  0  0  0  0  0
  188.4390  178.1390  143.0380 C   0  0  2  0  0  3  0  0  0  0  0  0
  186.1530  177.1770  143.6870 C   0  0  0  0  0  2  0  0  0  0  0  0
  187.9890  175.7620  143.1220 O   0  0  0  0  0  1  0  0  0  0  0  0
  183.5680  178.7520  144.4690 C   0  0  0  0  0  3  0  0  0  0  0  0
  185.7360  178.5780  143.2240 C   0  0  2  0  0  3  0  0  0  0  0  0
  184.2390  178.7230  143.2390 C   0  0  0  0  0  0  0  0  0  0  0  0
  184.2350  178.8890  140.7060 C   0  0  1  0  0  3  0  0  0  0  0  0
  187.6770  176.9870  143.7190 C   0  0  1  0  0  3  0  0  0  0  0  0
  182.1150  179.0040  142.0970 C   0  0  0  0  0  3  0  0  0  0  0  0
  183.5070  178.8300  142.0360 C   0  0  0  0  0  0  0  0  0  0  0  0
  187.8080  178.4920  141.6950 C   0  0  0  0  0  2  0  0  0  0  0  0
  185.5570  178.2640  140.7830 N   0  0  0  0  0  2  0  0  0  0  0  0
  182.5700  176.2830  138.4850 C   0  0  0  0  0  0  0  0  0  0  0  0
  181.9620  177.0900  137.5200 C   0  0  0  0  0  3  0  0  0  0  0  0
  182.8250  179.0700  138.6200 C   0  0  0  0  0  0  0  0  0  0  0  0
  181.4850  179.2520  136.6490 F   0  0  0  0  0  0  0  0  0  0  0  0
  182.0840  178.4800  137.5880 C   0  0  0  0  0  0  0  0  0  0  0  0
  183.3120  176.8680  139.5160 C   0  0  0  0  0  3  0  0  0  0  0  0
  182.4600  174.9360  138.4090 F   0  0  0  0  0  0  0  0  0  0  0  0
  182.9360  180.4550  138.6830 O   0  0  0  0  0  1  0  0  0  0  0  0
  183.4460  178.2630  139.5880 C   0  0  0  0  0  0  0  0  0  0  0  0
  189.9190  177.8220  142.8700 C   0  0  0  0  0  2  0  0  0  0  0  0
  191.3890  179.6940  144.1770 S   0  0  0  0  0  1  0  0  0  0  0  0
  190.6560  178.0160  144.1940 C   0  0  2  0  0  3  0  0  0  0  0  0
  191.3170  175.8280  143.5620 C   0  0  0  0  0  1  0  0  0  0  0  0
  191.6910  176.9870  144.3680 N   0  0  0  0  0  0  0  0  0  0  0  0
  191.6530  176.5190  145.7500 C   0  0  0  0  0  2  0  0  0  0  0  0
  190.3020  176.8250  146.3730 C   0  0  0  0  0  2  0  0  0  0  0  0
  190.4580  177.1490  147.7230 O   0  0  0  0  0  1  0  0  0  0  0  0
  1 14  1  1  0  0  0
  1  8  1  0  0  0  0
  3  2  2  0  0  0  0
  4 25  1  6  0  0  0
  4 11  1  0  0  0  0
  5 11  1  0  0  0  0
  7  2  1  0  0  0  0
  8  9  1  0  0  0  0
  8  5  1  6  0  0  0
  9  7  2  0  0  0  0
 10 24  1  6  0  0  0
 10 15  1  0  0  0  0
 10 13  1  0  0  0  0
 11  6  1  6  0  0  0
 12  3  1  0  0  0  0
 13 12  2  0  0  0  0
 13  9  1  0  0  0  0
 14  4  1  0  0  0  0
 15  1  1  0  0  0  0
 16 21  1  0  0  0  0
 17 20  1  0  0  0  0
 17 16  2  0  0  0  0
 18 23  1  0  0  0  0
 18 24  1  0  0  0  0
 19 20  1  0  0  0  0
 20 18  2  0  0  0  0
 21 24  2  0  0  0  0
 22 16  1  0  0  0  0
 25 27  1  0  0  0  0
 27 26  1  6  0  0  0
 27 29  1  0  0  0  0
 28 29  1  0  0  0  0
 29 30  1  0  0  0  0
 30 31  1  0  0  0  0
 31 32  1  0  0  0  0
M  END
>  <MODEL>
1

>  <REMARK>
 VINA RESULT:      -7.5      0.000      0.000
  Name = 
  6 active torsions:
  status: ('A' for Active; 'I' for Inactive)
    1  A    between atoms: C_1  and  C_10
    2  A    between atoms: C_8  and  C_23
    3  A    between atoms: C_10  and  N_24
    4  A    between atoms: C_16  and  C_32
    5  A    between atoms: C_19  and  C_23
    6  A    between atoms: C_19  and  N_24
                            x       y       z     vdW  Elec       q    Type
                         _______ _______ _______ _____ _____    ______ ____

>  <TORSDO>
F 6

$$$$
=
 OpenBabel11052416583D

 32 35  0  0  1  0  0  0  0  0999 V2000
  185.8920  177.4630  143.9770 C   0  0  1  0  0  3  0  0  0  0  0  0
  187.9010  177.7230  148.4850 C   0  0  0  0  0  3  0  0  0  0  0  0
  189.1300  177.3740  147.9230 C   0  0  0  0  0  3  0  0  0  0  0  0
  183.5890  178.5070  143.7190 C   0  0  2  0  0  3  0  0  0  0  0  0
  185.2600  179.4610  145.4140 C   0  0  0  0  0  2  0  0  0  0  0  0
  184.2150  180.8450  143.7740 O   0  0  0  0  0  1  0  0  0  0  0  0
  186.7890  177.9220  147.6650 C   0  0  0  0  0  3  0  0  0  0  0  0
  185.6810  177.9870  145.4170 C   0  0  2  0  0  3  0  0  0  0  0  0
  186.9000  177.7810  146.2740 C   0  0  0  0  0  0  0  0  0  0  0  0
  188.2530  177.2080  144.2040 C   0  0  1  0  0  3  0  0  0  0  0  0
  183.9990  179.7200  144.5760 C   0  0  1  0  0  3  0  0  0  0  0  0
  189.2500  177.2280  146.5390 C   0  0  0  0  0  3  0  0  0  0  0  0
  188.1470  177.4500  145.6990 C   0  0  0  0  0  0  0  0  0  0  0  0
  184.7960  177.9140  142.9990 C   0  0  0  0  0  2  0  0  0  0  0  0
  187.1900  177.8950  143.4670 N   0  0  0  0  0  2  0  0  0  0  0  0
  191.6520  178.8850  143.8420 C   0  0  0  0  0  0  0  0  0  0  0  0
  192.0960  178.3510  142.6300 C   0  0  0  0  0  3  0  0  0  0  0  0
  190.0470  177.0710  142.4350 C   0  0  0  0  0  0  0  0  0  0  0  0
  191.7440  176.9280  140.7560 F   0  0  0  0  0  0  0  0  0  0  0  0
  191.2990  177.4430  141.9290 C   0  0  0  0  0  0  0  0  0  0  0  0
  190.4030  178.5170  144.3500 C   0  0  0  0  0  3  0  0  0  0  0  0
  192.4210  179.7750  144.5140 F   0  0  0  0  0  0  0  0  0  0  0  0
  189.2630  176.1620  141.7320 O   0  0  0  0  0  1  0  0  0  0  0  0
  189.5930  177.6110  143.6490 C   0  0  0  0  0  0  0  0  0  0  0  0
  182.4880  178.8560  142.7270 C   0  0  0  0  0  2  0  0  0  0  0  0
  180.2680  177.9230  143.9800 S   0  0  0  0  0  1  0  0  0  0  0  0
  181.2550  179.3760  143.4630 C   0  0  2  0  0  3  0  0  0  0  0  0
  179.0810  180.2240  143.0400 C   0  0  0  0  0  1  0  0  0  0  0  0
  180.4720  180.2690  142.5980 N   0  0  0  0  0  0  0  0  0  0  0  0
  180.4610  179.7140  141.2480 C   0  0  0  0  0  2  0  0  0  0  0  0
  179.8060  180.6880  140.2830 C   0  0  0  0  0  2  0  0  0  0  0  0
  180.7500  181.1710  139.3750 O   0  0  0  0  0  1  0  0  0  0  0  0
  1 14  1  6  0  0  0
  1  8  1  0  0  0  0
  3  2  1  0  0  0  0
  4 25  1  6  0  0  0
  4 11  1  0  0  0  0
  7  2  2  0  0  0  0
  8  5  1  6  0  0  0
  8  9  1  0  0  0  0
  9  7  1  0  0  0  0
 10 24  1  6  0  0  0
 10 13  1  0  0  0  0
 11  6  1  6  0  0  0
 11  5  1  0  0  0  0
 12  3  2  0  0  0  0
 13  9  2  0  0  0  0
 13 12  1  0  0  0  0
 14  4  1  0  0  0  0
 15  1  1  0  0  0  0
 15 10  1  0  0  0  0
 16 21  1  0  0  0  0
 16 22  1  0  0  0  0
 17 16  2  0  0  0  0
 18 24  1  0  0  0  0
 19 20  1  0  0  0  0
 20 18  2  0  0  0  0
 20 17  1  0  0  0  0
 23 18  1  0  0  0  0
 24 21  2  0  0  0  0
 25 27  1  0  0  0  0
 27 26  1  6  0  0  0
 29 28  1  0  0  0  0
 29 27  1  0  0  0  0
 30 29  1  0  0  0  0
 31 30  1  0  0  0  0
 32 31  1  0  0  0  0
M  END
>  <MODEL>
2

>  <REMARK>
 VINA RESULT:      -7.3      4.240      8.719
  Name = 
  6 active torsions:
  status: ('A' for Active; 'I' for Inactive)
    1  A    between atoms: C_1  and  C_10
    2  A    between atoms: C_8  and  C_23
    3  A    between atoms: C_10  and  N_24
    4  A    between atoms: C_16  and  C_32
    5  A    between atoms: C_19  and  C_23
    6  A    between atoms: C_19  and  N_24
                            x       y       z     vdW  Elec       q    Type
                         _______ _______ _______ _____ _____    ______ ____

>  <TORSDO>
F 6

$$$$
=
 OpenBabel11052416583D

 32 35  0  0  1  0  0  0  0  0999 V2000
  186.0560  177.4010  143.8190 C   0  0  1  0  0  3  0  0  0  0  0  0
  187.8450  177.6600  148.4190 C   0  0  0  0  0  3  0  0  0  0  0  0
  189.1030  177.3290  147.9140 C   0  0  0  0  0  3  0  0  0  0  0  0
  183.7560  178.4190  143.4560 C   0  0  2  0  0  3  0  0  0  0  0  0
  185.3320  179.3830  145.2340 C   0  0  0  0  0  2  0  0  0  0  0  0
  184.3500  180.7640  143.5530 O   0  0  0  0  0  1  0  0  0  0  0  0
  186.7710  177.8510  147.5470 C   0  0  0  0  0  3  0  0  0  0  0  0
  185.7710  177.9150  145.2500 C   0  0  2  0  0  3  0  0  0  0  0  0
  186.9500  177.7190  146.1630 C   0  0  0  0  0  0  0  0  0  0  0  0
  188.4070  177.1740  144.1570 C   0  0  1  0  0  3  0  0  0  0  0  0
  184.1100  179.6320  144.3380 C   0  0  1  0  0  3  0  0  0  0  0  0
  189.2910  177.1920  146.5360 C   0  0  0  0  0  3  0  0  0  0  0  0
  188.2270  177.4060  145.6460 C   0  0  0  0  0  0  0  0  0  0  0  0
  185.0030  177.8450  142.7920 C   0  0  0  0  0  2  0  0  0  0  0  0
  187.3730  177.8520  143.3730 N   0  0  0  0  0  2  0  0  0  0  0  0
  191.7440  178.9870  143.8970 C   0  0  0  0  0  0  0  0  0  0  0  0
  192.3060  178.3730  142.7750 C   0  0  0  0  0  3  0  0  0  0  0  0
  190.3390  176.9750  142.5460 C   0  0  0  0  0  0  0  0  0  0  0  0
  192.1680  176.7740  141.0180 F   0  0  0  0  0  0  0  0  0  0  0  0
  191.6090  177.3660  142.1030 C   0  0  0  0  0  0  0  0  0  0  0  0
  190.4770  178.6000  144.3410 C   0  0  0  0  0  3  0  0  0  0  0  0
  192.4170  179.9720  144.5390 F   0  0  0  0  0  0  0  0  0  0  0  0
  189.6560  175.9680  141.8730 O   0  0  0  0  0  1  0  0  0  0  0  0
  189.7670  177.5960  143.6680 C   0  0  0  0  0  0  0  0  0  0  0  0
  182.7000  178.7610  142.4140 C   0  0  0  0  0  2  0  0  0  0  0  0
  183.5660  179.3480  139.9090 S   0  0  0  0  0  1  0  0  0  0  0  0
  183.0150  178.0640  141.0920 C   0  0  2  0  0  3  0  0  0  0  0  0
  182.0590  177.0420  139.1780 C   0  0  0  0  0  1  0  0  0  0  0  0
  181.8340  177.3490  140.5870 N   0  0  0  0  0  0  0  0  0  0  0  0
  180.6970  178.2650  140.6010 C   0  0  0  0  0  2  0  0  0  0  0  0
  179.4390  177.5350  141.0390 C   0  0  0  0  0  2  0  0  0  0  0  0
  179.3350  177.5520  142.4320 O   0  0  0  0  0  1  0  0  0  0  0  0
  1 14  1  6  0  0  0
  1  8  1  0  0  0  0
  3  2  1  0  0  0  0
  4 25  1  6  0  0  0
  4 11  1  0  0  0  0
  7  2  2  0  0  0  0
  8  5  1  6  0  0  0
  8  9  1  0  0  0  0
  9  7  1  0  0  0  0
 10 24  1  6  0  0  0
 10 13  1  0  0  0  0
 11  6  1  6  0  0  0
 11  5  1  0  0  0  0
 12  3  2  0  0  0  0
 13  9  2  0  0  0  0
 13 12  1  0  0  0  0
 14  4  1  0  0  0  0
 15  1  1  0  0  0  0
 15 10  1  0  0  0  0
 16 21  1  0  0  0  0
 16 22  1  0  0  0  0
 17 16  2  0  0  0  0
 18 24  1  0  0  0  0
 19 20  1  0  0  0  0
 20 18  2  0  0  0  0
 20 17  1  0  0  0  0
 23 18  1  0  0  0  0
 24 21  2  0  0  0  0
 27 26  1  6  0  0  0
 27 25  1  0  0  0  0
 28 29  1  0  0  0  0
 29 30  1  0  0  0  0
 29 27  1  0  0  0  0
 30 31  1  0  0  0  0
 31 32  1  0  0  0  0
M  END
>  <MODEL>
3

>  <REMARK>
 VINA RESULT:      -7.1      4.036      8.397
  Name = 
  6 active torsions:
  status: ('A' for Active; 'I' for Inactive)
    1  A    between atoms: C_1  and  C_10
    2  A    between atoms: C_8  and  C_23
    3  A    between atoms: C_10  and  N_24
    4  A    between atoms: C_16  and  C_32
    5  A    between atoms: C_19  and  C_23
    6  A    between atoms: C_19  and  N_24
                            x       y       z     vdW  Elec       q    Type
                         _______ _______ _______ _____ _____    ______ ____

>  <TORSDO>
F 6

$$$$
=
 OpenBabel11052416583D

 32 35  0  0  1  0  0  0  0  0999 V2000
  183.9060  179.3850  139.8580 C   0  0  1  0  0  3  0  0  0  0  0  0
  188.4220  177.9190  138.4850 C   0  0  0  0  0  3  0  0  0  0  0  0
  188.8470  178.1020  139.8010 C   0  0  0  0  0  3  0  0  0  0  0  0
  182.0270  178.8980  138.2170 C   0  0  2  0  0  3  0  0  0  0  0  0
  184.0540  177.3350  138.3630 C   0  0  0  0  0  2  0  0  0  0  0  0
  181.8230  176.5100  138.5580 O   0  0  0  0  0  1  0  0  0  0  0  0
  187.0780  178.1010  138.1540 C   0  0  0  0  0  3  0  0  0  0  0  0
  184.7100  178.6660  138.7480 C   0  0  2  0  0  3  0  0  0  0  0  0
  186.1480  178.4610  139.1390 C   0  0  0  0  0  0  0  0  0  0  0  0
  185.5860  179.1040  141.5290 C   0  0  1  0  0  3  0  0  0  0  0  0
  182.5900  177.4940  137.9270 C   0  0  1  0  0  3  0  0  0  0  0  0
  187.9280  178.4650  140.7890 C   0  0  0  0  0  3  0  0  0  0  0  0
  186.5690  178.6270  140.4760 C   0  0  0  0  0  0  0  0  0  0  0  0
  182.3870  179.3490  139.6290 C   0  0  0  0  0  2  0  0  0  0  0  0
  184.2030  178.7930  141.1600 N   0  0  0  0  0  2  0  0  0  0  0  0
  187.2800  177.1940  144.3530 C   0  0  0  0  0  0  0  0  0  0  0  0
  186.4510  177.5040  145.4330 C   0  0  0  0  0  3  0  0  0  0  0  0
  185.0560  178.8560  143.9840 C   0  0  0  0  0  0  0  0  0  0  0  0
  184.5490  178.6340  146.3100 F   0  0  0  0  0  0  0  0  0  0  0  0
  185.3440  178.3360  145.2520 C   0  0  0  0  0  0  0  0  0  0  0  0
  186.9960  177.7110  143.0850 C   0  0  0  0  0  3  0  0  0  0  0  0
  188.3460  176.3770  144.5280 F   0  0  0  0  0  0  0  0  0  0  0  0
  183.9540  179.6890  143.8150 O   0  0  0  0  0  1  0  0  0  0  0  0
  185.8820  178.5410  142.8930 C   0  0  0  0  0  0  0  0  0  0  0  0
  180.5210  178.9640  137.9980 C   0  0  0  0  0  2  0  0  0  0  0  0
  180.8060  179.9140  135.4710 S   0  0  0  0  0  1  0  0  0  0  0  0
  180.1610  180.1910  137.1620 C   0  0  2  0  0  3  0  0  0  0  0  0
  179.7780  181.9250  138.7320 C   0  0  0  0  0  1  0  0  0  0  0  0
  180.7300  181.4090  137.7540 N   0  0  0  0  0  0  0  0  0  0  0  0
  180.8070  182.4360  136.7180 C   0  0  0  0  0  2  0  0  0  0  0  0
  180.7090  183.8190  137.3400 C   0  0  0  0  0  2  0  0  0  0  0  0
  181.9290  184.4870  137.2180 O   0  0  0  0  0  1  0  0  0  0  0  0
  1 14  1  6  0  0  0
  1 15  1  0  0  0  0
  2  3  1  0  0  0  0
  3 12  2  0  0  0  0
  4 25  1  1  0  0  0
  4 14  1  0  0  0  0
  7  2  2  0  0  0  0
  7  9  1  0  0  0  0
  8  5  1  1  0  0  0
  8  9  1  0  0  0  0
  8  1  1  0  0  0  0
  9 13  2  0  0  0  0
 10 24  1  1  0  0  0
 11  4  1  0  0  0  0
 11  5  1  0  0  0  0
 11  6  1  1  0  0  0
 13 12  1  0  0  0  0
 13 10  1  0  0  0  0
 15 10  1  0  0  0  0
 16 22  1  0  0  0  0
 16 17  1  0  0  0  0
 18 20  1  0  0  0  0
 20 17  2  0  0  0  0
 20 19  1  0  0  0  0
 21 16  2  0  0  0  0
 23 18  1  0  0  0  0
 24 21  1  0  0  0  0
 24 18  2  0  0  0  0
 27 26  1  6  0  0  0
 27 29  1  0  0  0  0
 27 25  1  0  0  0  0
 29 28  1  0  0  0  0
 30 31  1  0  0  0  0
 30 29  1  0  0  0  0
 32 31  1  0  0  0  0
M  END
>  <MODEL>
4

>  <REMARK>
 VINA RESULT:      -6.4      4.594      8.981
  Name = 
  6 active torsions:
  status: ('A' for Active; 'I' for Inactive)
    1  A    between atoms: C_1  and  C_10
    2  A    between atoms: C_8  and  C_23
    3  A    between atoms: C_10  and  N_24
    4  A    between atoms: C_16  and  C_32
    5  A    between atoms: C_19  and  C_23
    6  A    between atoms: C_19  and  N_24
                            x       y       z     vdW  Elec       q    Type
                         _______ _______ _______ _____ _____    ______ ____

>  <TORSDO>
F 6

$$$$
=
 OpenBabel11052416583D

 32 35  0  0  1  0  0  0  0  0999 V2000
  186.4180  179.0080  141.8590 C   0  0  1  0  0  3  0  0  0  0  0  0
  182.3900  178.8470  144.7190 C   0  0  0  0  0  3  0  0  0  0  0  0
  181.6080  178.9850  143.5700 C   0  0  0  0  0  3  0  0  0  0  0  0
  188.5900  178.2580  142.9460 C   0  0  2  0  0  3  0  0  0  0  0  0
  186.3560  177.2310  143.6740 C   0  0  0  0  0  2  0  0  0  0  0  0
  188.1950  175.8700  142.9940 O   0  0  0  0  0  1  0  0  0  0  0  0
  183.7770  178.7300  144.6090 C   0  0  0  0  0  3  0  0  0  0  0  0
  185.8890  178.6320  143.2630 C   0  0  2  0  0  3  0  0  0  0  0  0
  184.3920  178.7440  143.3490 C   0  0  0  0  0  0  0  0  0  0  0  0
  184.2690  178.9670  140.8240 C   0  0  1  0  0  3  0  0  0  0  0  0
  187.8840  177.0740  143.6330 C   0  0  1  0  0  3  0  0  0  0  0  0
  182.2120  179.0030  142.3110 C   0  0  0  0  0  3  0  0  0  0  0  0
  183.6030  178.8610  142.1830 C   0  0  0  0  0  0  0  0  0  0  0  0
  187.8900  178.6270  141.6410 C   0  0  0  0  0  2  0  0  0  0  0  0
  185.6060  178.3690  140.8260 N   0  0  0  0  0  2  0  0  0  0  0  0
  182.4340  176.3880  138.7070 C   0  0  0  0  0  0  0  0  0  0  0  0
  181.8910  177.1920  137.7020 C   0  0  0  0  0  3  0  0  0  0  0  0
  182.8880  179.1530  138.7190 C   0  0  0  0  0  0  0  0  0  0  0  0
  181.5760  179.3410  136.7290 F   0  0  0  0  0  0  0  0  0  0  0  0
  182.1120  178.5710  137.7080 C   0  0  0  0  0  0  0  0  0  0  0  0
  183.2090  176.9650  139.7170 C   0  0  0  0  0  3  0  0  0  0  0  0
  182.2280  175.0500  138.6910 F   0  0  0  0  0  0  0  0  0  0  0  0
  183.0980  180.5280  138.7200 O   0  0  0  0  0  1  0  0  0  0  0  0
  183.4430  178.3480  139.7270 C   0  0  0  0  0  0  0  0  0  0  0  0
  190.0670  177.9790  142.7050 C   0  0  0  0  0  2  0  0  0  0  0  0
  191.3500  175.7580  143.5940 S   0  0  0  0  0  1  0  0  0  0  0  0
  190.2730  176.5140  142.3210 C   0  0  2  0  0  3  0  0  0  0  0  0
  191.8270  177.5030  140.8280 C   0  0  0  0  0  1  0  0  0  0  0  0
  190.8750  176.4080  140.9850 N   0  0  0  0  0  0  0  0  0  0  0  0
  189.8380  176.6580  139.9880 C   0  0  0  0  0  2  0  0  0  0  0  0
  190.3900  177.5060  138.8550 C   0  0  0  0  0  2  0  0  0  0  0  0
  189.4280  178.4240  138.4290 O   0  0  0  0  0  1  0  0  0  0  0  0
  1 14  1  1  0  0  0
  1  8  1  0  0  0  0
  3  2  2  0  0  0  0
  4 25  1  6  0  0  0
  4 11  1  0  0  0  0
  7  2  1  0  0  0  0
  8  9  1  0  0  0  0
  8  5  1  6  0  0  0
  9  7  2  0  0  0  0
 10 24  1  6  0  0  0
 10 15  1  0  0  0  0
 10 13  1  0  0  0  0
 11  6  1  6  0  0  0
 11  5  1  0  0  0  0
 12  3  1  0  0  0  0
 13 12  2  0  0  0  0
 13  9  1  0  0  0  0
 14  4  1  0  0  0  0
 15  1  1  0  0  0  0
 16 21  1  0  0  0  0
 17 20  1  0  0  0  0
 17 16  2  0  0  0  0
 18 23  1  0  0  0  0
 18 24  1  0  0  0  0
 19 20  1  0  0  0  0
 20 18  2  0  0  0  0
 21 24  2  0  0  0  0
 22 16  1  0  0  0  0
 27 25  1  0  0  0  0
 27 26  1  1  0  0  0
 28 29  1  0  0  0  0
 29 27  1  0  0  0  0
 30 29  1  0  0  0  0
 31 30  1  0  0  0  0
 32 31  1  0  0  0  0
M  END
>  <MODEL>
5

>  <REMARK>
 VINA RESULT:      -6.1      1.733      2.672
  Name = 
  6 active torsions:
  status: ('A' for Active; 'I' for Inactive)
    1  A    between atoms: C_1  and  C_10
    2  A    between atoms: C_8  and  C_23
    3  A    between atoms: C_10  and  N_24
    4  A    between atoms: C_16  and  C_32
    5  A    between atoms: C_19  and  C_23
    6  A    between atoms: C_19  and  N_24
                            x       y       z     vdW  Elec       q    Type
                         _______ _______ _______ _____ _____    ______ ____

>  <TORSDO>
F 6

$$$$
=
 OpenBabel11052416583D

 32 35  0  0  1  0  0  0  0  0999 V2000
  188.0440  176.7140  142.5680 C   0  0  1  0  0  3  0  0  0  0  0  0
  184.0940  178.9770  144.4920 C   0  0  0  0  0  3  0  0  0  0  0  0
  184.5480  178.6180  145.7630 C   0  0  0  0  0  3  0  0  0  0  0  0
  188.5540  177.2370  140.1330 C   0  0  2  0  0  3  0  0  0  0  0  0
  187.4470  178.9990  141.6300 C   0  0  0  0  0  2  0  0  0  0  0  0
  189.4310  179.4790  140.3940 O   0  0  0  0  0  1  0  0  0  0  0  0
  184.8670  178.6840  143.3670 C   0  0  0  0  0  3  0  0  0  0  0  0
  186.9040  177.7170  142.2730 C   0  0  2  0  0  3  0  0  0  0  0  0
  186.1020  178.0350  143.5050 C   0  0  0  0  0  0  0  0  0  0  0  0
  187.8670  176.9080  144.9390 C   0  0  1  0  0  3  0  0  0  0  0  0
  188.2500  178.7310  140.3490 C   0  0  1  0  0  3  0  0  0  0  0  0
  185.7750  177.9680  145.9100 C   0  0  0  0  0  3  0  0  0  0  0  0
  186.5750  177.6890  144.7900 C   0  0  0  0  0  0  0  0  0  0  0  0
  189.0580  176.5920  141.4200 C   0  0  0  0  0  2  0  0  0  0  0  0
  188.7510  177.0970  143.7870 N   0  0  0  0  0  2  0  0  0  0  0  0
  188.5980  178.0970  148.4810 C   0  0  0  0  0  0  0  0  0  0  0  0
  189.9740  177.8770  148.5680 C   0  0  0  0  0  3  0  0  0  0  0  0
  189.9900  177.0260  146.2990 C   0  0  0  0  0  0  0  0  0  0  0  0
  192.0060  177.1270  147.5810 F   0  0  0  0  0  0  0  0  0  0  0  0
  190.6700  177.3400  147.4820 C   0  0  0  0  0  0  0  0  0  0  0  0
  187.9160  177.7860  147.3010 C   0  0  0  0  0  3  0  0  0  0  0  0
  187.9290  178.6300  149.5310 F   0  0  0  0  0  0  0  0  0  0  0  0
  190.6900  176.4850  145.2250 O   0  0  0  0  0  1  0  0  0  0  0  0
  188.6070  177.2520  146.2030 C   0  0  0  0  0  0  0  0  0  0  0  0
  189.5430  177.0150  138.9970 C   0  0  0  0  0  2  0  0  0  0  0  0
  189.0290  178.5830  136.8410 S   0  0  0  0  0  1  0  0  0  0  0  0
  188.8090  176.9590  137.6580 C   0  0  2  0  0  3  0  0  0  0  0  0
  187.1000  175.3760  137.2160 C   0  0  0  0  0  1  0  0  0  0  0  0
  187.3860  176.6550  137.8590 N   0  0  0  0  0  0  0  0  0  0  0  0
  186.5930  177.6370  137.1230 C   0  0  0  0  0  2  0  0  0  0  0  0
  185.2680  177.8780  137.8270 C   0  0  0  0  0  2  0  0  0  0  0  0
  185.3590  179.0050  138.6460 O   0  0  0  0  0  1  0  0  0  0  0  0
  1 14  1  6  0  0  0
  1 15  1  0  0  0  0
  2  3  1  0  0  0  0
  3 12  2  0  0  0  0
  4 25  1  6  0  0  0
  4 11  1  0  0  0  0
  4 14  1  0  0  0  0
  7  9  1  0  0  0  0
  7  2  2  0  0  0  0
  8  5  1  1  0  0  0
  8  1  1  0  0  0  0
  8  9  1  0  0  0  0
  9 13  2  0  0  0  0
 10 24  1  1  0  0  0
 11  6  1  1  0  0  0
 11  5  1  0  0  0  0
 13 10  1  0  0  0  0
 13 12  1  0  0  0  0
 15 10  1  0  0  0  0
 16 17  1  0  0  0  0
 16 22  1  0  0  0  0
 18 20  1  0  0  0  0
 20 19  1  0  0  0  0
 20 17  2  0  0  0  0
 21 16  2  0  0  0  0
 23 18  1  0  0  0  0
 24 18  2  0  0  0  0
 24 21  1  0  0  0  0
 27 26  1  1  0  0  0
 27 29  1  0  0  0  0
 27 25  1  0  0  0  0
 28 29  1  0  0  0  0
 30 31  1  0  0  0  0
 30 29  1  0  0  0  0
 31 32  1  0  0  0  0
M  END
>  <MODEL>
6

>  <REMARK>
 VINA RESULT:      -6.0      4.348      7.997
  Name = 
  6 active torsions:
  status: ('A' for Active; 'I' for Inactive)
    1  A    between atoms: C_1  and  C_10
    2  A    between atoms: C_8  and  C_23
    3  A    between atoms: C_10  and  N_24
    4  A    between atoms: C_16  and  C_32
    5  A    between atoms: C_19  and  C_23
    6  A    between atoms: C_19  and  N_24
                            x       y       z     vdW  Elec       q    Type
                         _______ _______ _______ _____ _____    ______ ____

>  <TORSDO>
F 6

$$$$
=
 OpenBabel11052416583D

 32 35  0  0  1  0  0  0  0  0999 V2000
  190.8630  177.7160  140.6770 C   0  0  1  0  0  3  0  0  0  0  0  0
  187.2880  178.2730  137.3100 C   0  0  0  0  0  3  0  0  0  0  0  0
  188.1810  177.8250  136.3350 C   0  0  0  0  0  3  0  0  0  0  0  0
  190.1230  177.7550  143.1080 C   0  0  2  0  0  3  0  0  0  0  0  0
  188.5500  176.8620  141.2910 C   0  0  0  0  0  2  0  0  0  0  0  0
  189.0770  175.5750  143.2300 O   0  0  0  0  0  1  0  0  0  0  0  0
  187.6720  178.2900  138.6520 C   0  0  0  0  0  3  0  0  0  0  0  0
  189.3390  177.8980  140.4820 C   0  0  2  0  0  3  0  0  0  0  0  0
  188.9490  177.8520  139.0300 C   0  0  0  0  0  0  0  0  0  0  0  0
  191.2610  176.9880  138.4400 C   0  0  1  0  0  3  0  0  0  0  0  0
  188.8900  176.8890  142.7890 C   0  0  1  0  0  3  0  0  0  0  0  0
  189.4570  177.3900  136.7010 C   0  0  0  0  0  3  0  0  0  0  0  0
  189.8480  177.3780  138.0500 C   0  0  0  0  0  0  0  0  0  0  0  0
  191.2630  177.4600  142.1380 C   0  0  0  0  0  2  0  0  0  0  0  0
  191.3490  176.6120  139.8530 N   0  0  0  0  0  2  0  0  0  0  0  0
  191.5080  173.7350  136.4760 C   0  0  0  0  0  0  0  0  0  0  0  0
  192.8140  173.8060  135.9860 C   0  0  0  0  0  3  0  0  0  0  0  0
  193.1180  175.9450  137.0860 C   0  0  0  0  0  0  0  0  0  0  0  0
  194.8820  174.9690  135.7990 F   0  0  0  0  0  0  0  0  0  0  0  0
  193.6170  174.9090  136.2850 C   0  0  0  0  0  0  0  0  0  0  0  0
  191.0070  174.7660  137.2760 C   0  0  0  0  0  3  0  0  0  0  0  0
  190.7360  172.6590  136.1950 F   0  0  0  0  0  0  0  0  0  0  0  0
  193.9240  177.0420  137.3730 O   0  0  0  0  0  1  0  0  0  0  0  0
  191.8090  175.8740  137.5880 C   0  0  0  0  0  0  0  0  0  0  0  0
  190.5840  177.5810  144.5490 C   0  0  0  0  0  2  0  0  0  0  0  0
  188.1600  178.2480  145.5730 S   0  0  0  0  0  1  0  0  0  0  0  0
  189.4640  176.9760  145.3940 C   0  0  2  0  0  3  0  0  0  0  0  0
  189.4600  177.4750  147.7120 C   0  0  0  0  0  1  0  0  0  0  0  0
  189.9750  176.5520  146.7050 N   0  0  0  0  0  0  0  0  0  0  0  0
  191.4230  176.7390  146.7220 C   0  0  0  0  0  2  0  0  0  0  0  0
  192.0930  175.6020  147.4740 C   0  0  0  0  0  2  0  0  0  0  0  0
  192.9930  176.1120  148.4120 O   0  0  0  0  0  1  0  0  0  0  0  0
  1 14  1  1  0  0  0
  2  7  1  0  0  0  0
  3 12  1  0  0  0  0
  3  2  2  0  0  0  0
  4 25  1  1  0  0  0
  5 11  1  0  0  0  0
  7  9  2  0  0  0  0
  8  1  1  0  0  0  0
  8  5  1  1  0  0  0
  9  8  1  0  0  0  0
 10 24  1  6  0  0  0
 10 15  1  0  0  0  0
 11  4  1  0  0  0  0
 11  6  1  6  0  0  0
 12 13  2  0  0  0  0
 13 10  1  0  0  0  0
 13  9  1  0  0  0  0
 14  4  1  0  0  0  0
 15  1  1  0  0  0  0
 16 21  1  0  0  0  0
 17 20  1  0  0  0  0
 17 16  2  0  0  0  0
 18 23  1  0  0  0  0
 18 24  1  0  0  0  0
 19 20  1  0  0  0  0
 20 18  2  0  0  0  0
 21 24  2  0  0  0  0
 22 16  1  0  0  0  0
 25 27  1  0  0  0  0
 27 26  1  1  0  0  0
 27 29  1  0  0  0  0
 29 30  1  0  0  0  0
 29 28  1  0  0  0  0
 30 31  1  0  0  0  0
 31 32  1  0  0  0  0
M  END
>  <MODEL>
7

>  <REMARK>
 VINA RESULT:      -5.9      5.079      7.278
  Name = 
  6 active torsions:
  status: ('A' for Active; 'I' for Inactive)
    1  A    between atoms: C_1  and  C_10
    2  A    between atoms: C_8  and  C_23
    3  A    between atoms: C_10  and  N_24
    4  A    between atoms: C_16  and  C_32
    5  A    between atoms: C_19  and  C_23
    6  A    between atoms: C_19  and  N_24
                            x       y       z     vdW  Elec       q    Type
                         _______ _______ _______ _____ _____    ______ ____

>  <TORSDO>
F 6

$$$$
=
 OpenBabel11052416583D

 32 35  0  0  1  0  0  0  0  0999 V2000
  191.0340  177.0160  139.6650 C   0  0  1  0  0  3  0  0  0  0  0  0
  187.7240  178.7280  136.4190 C   0  0  0  0  0  3  0  0  0  0  0  0
  188.3000  177.9080  135.4480 C   0  0  0  0  0  3  0  0  0  0  0  0
  190.5460  177.4890  142.1140 C   0  0  2  0  0  3  0  0  0  0  0  0
  188.6220  177.1790  140.4470 C   0  0  0  0  0  2  0  0  0  0  0  0
  188.7460  175.9070  142.4630 O   0  0  0  0  0  1  0  0  0  0  0  0
  188.1800  178.6740  137.7380 C   0  0  0  0  0  3  0  0  0  0  0  0
  189.6920  177.7690  139.5210 C   0  0  2  0  0  3  0  0  0  0  0  0
  189.2110  177.7940  138.0960 C   0  0  0  0  0  0  0  0  0  0  0  0
  190.9560  176.0560  137.4820 C   0  0  1  0  0  3  0  0  0  0  0  0
  189.0530  177.1590  141.9210 C   0  0  1  0  0  3  0  0  0  0  0  0
  189.3290  177.0290  135.7940 C   0  0  0  0  0  3  0  0  0  0  0  0
  189.7810  176.9460  137.1210 C   0  0  0  0  0  0  0  0  0  0  0  0
  191.4080  176.7120  141.1240 C   0  0  0  0  0  2  0  0  0  0  0  0
  190.9930  175.7620  138.9160 N   0  0  0  0  0  2  0  0  0  0  0  0
  189.8160  172.7740  135.9260 C   0  0  0  0  0  0  0  0  0  0  0  0
  190.9670  172.3780  135.2410 C   0  0  0  0  0  3  0  0  0  0  0  0
  192.1170  174.3690  136.0070 C   0  0  0  0  0  0  0  0  0  0  0  0
  193.2240  172.7810  134.6040 F   0  0  0  0  0  0  0  0  0  0  0  0
  192.1140  173.1740  135.2760 C   0  0  0  0  0  0  0  0  0  0  0  0
  189.8150  173.9660  136.6560 C   0  0  0  0  0  3  0  0  0  0  0  0
  188.7090  171.9940  135.8990 F   0  0  0  0  0  0  0  0  0  0  0  0
  193.2630  175.1580  136.0320 O   0  0  0  0  0  1  0  0  0  0  0  0
  190.9650  174.7680  136.7040 C   0  0  0  0  0  0  0  0  0  0  0  0
  191.0050  177.2360  143.5430 C   0  0  0  0  0  2  0  0  0  0  0  0
  191.3100  179.8120  144.3420 S   0  0  0  0  0  1  0  0  0  0  0  0
  190.3690  178.2490  144.4930 C   0  0  2  0  0  3  0  0  0  0  0  0
  191.3590  176.6620  145.9500 C   0  0  0  0  0  1  0  0  0  0  0  0
  190.3880  177.7490  145.8740 N   0  0  0  0  0  0  0  0  0  0  0  0
  189.0970  177.1280  146.1610 C   0  0  0  0  0  2  0  0  0  0  0  0
  187.9830  177.8740  145.4480 C   0  0  0  0  0  2  0  0  0  0  0  0
  186.7770  177.1860  145.5910 O   0  0  0  0  0  1  0  0  0  0  0  0
  1 14  1  1  0  0  0
  2  7  1  0  0  0  0
  3 12  1  0  0  0  0
  3  2  2  0  0  0  0
  4 25  1  1  0  0  0
  5 11  1  0  0  0  0
  7  9  2  0  0  0  0
  8  1  1  0  0  0  0
  8  5  1  1  0  0  0
  9  8  1  0  0  0  0
 10 24  1  6  0  0  0
 10 15  1  0  0  0  0
 11  4  1  0  0  0  0
 11  6  1  6  0  0  0
 12 13  2  0  0  0  0
 13 10  1  0  0  0  0
 13  9  1  0  0  0  0
 14  4  1  0  0  0  0
 15  1  1  0  0  0  0
 16 21  1  0  0  0  0
 17 20  1  0  0  0  0
 17 16  2  0  0  0  0
 18 23  1  0  0  0  0
 18 24  1  0  0  0  0
 19 20  1  0  0  0  0
 20 18  2  0  0  0  0
 21 24  2  0  0  0  0
 22 16  1  0  0  0  0
 25 27  1  0  0  0  0
 27 26  1  1  0  0  0
 27 29  1  0  0  0  0
 29 28  1  0  0  0  0
 29 30  1  0  0  0  0
 31 32  1  0  0  0  0
 31 30  1  0  0  0  0
M  END
>  <MODEL>
8

>  <REMARK>
 VINA RESULT:      -5.9      5.420      7.260
  Name = 
  6 active torsions:
  status: ('A' for Active; 'I' for Inactive)
    1  A    between atoms: C_1  and  C_10
    2  A    between atoms: C_8  and  C_23
    3  A    between atoms: C_10  and  N_24
    4  A    between atoms: C_16  and  C_32
    5  A    between atoms: C_19  and  C_23
    6  A    between atoms: C_19  and  N_24
                            x       y       z     vdW  Elec       q    Type
                         _______ _______ _______ _____ _____    ______ ____

>  <TORSDO>
F 6

$$$$
=
 OpenBabel11052416583D

 32 35  0  0  1  0  0  0  0  0999 V2000
  188.3090  178.6270  141.5300 C   0  0  1  0  0  3  0  0  0  0  0  0
  183.6560  178.9630  139.8980 C   0  0  0  0  0  3  0  0  0  0  0  0
  184.1410  178.8610  138.5930 C   0  0  0  0  0  3  0  0  0  0  0  0
  188.5910  178.1390  144.0090 C   0  0  2  0  0  3  0  0  0  0  0  0
  186.5560  177.2380  142.7350 C   0  0  0  0  0  2  0  0  0  0  0  0
  187.9650  175.8000  144.0160 O   0  0  0  0  0  1  0  0  0  0  0  0
  184.5330  178.8490  140.9780 C   0  0  0  0  0  3  0  0  0  0  0  0
  186.8230  178.5240  141.9450 C   0  0  2  0  0  3  0  0  0  0  0  0
  185.9000  178.6260  140.7610 C   0  0  0  0  0  0  0  0  0  0  0  0
  187.8820  178.3500  139.1990 C   0  0  1  0  0  3  0  0  0  0  0  0
  187.4530  177.1000  143.9740 C   0  0  1  0  0  3  0  0  0  0  0  0
  185.5020  178.6430  138.3660 C   0  0  0  0  0  3  0  0  0  0  0  0
  186.3920  178.5010  139.4430 C   0  0  0  0  0  0  0  0  0  0  0  0
  189.2830  178.2350  142.6520 C   0  0  0  0  0  2  0  0  0  0  0  0
  188.5670  177.7860  140.3640 N   0  0  0  0  0  2  0  0  0  0  0  0
  188.1370  175.3750  136.8370 C   0  0  0  0  0  0  0  0  0  0  0  0
  188.7290  175.9610  135.7160 C   0  0  0  0  0  3  0  0  0  0  0  0
  188.7740  178.1030  136.8510 C   0  0  0  0  0  0  0  0  0  0  0  0
  189.6150  177.8810  134.6240 F   0  0  0  0  0  0  0  0  0  0  0  0
  189.0440  177.3220  135.7200 C   0  0  0  0  0  0  0  0  0  0  0  0
  187.8660  176.1500  137.9680 C   0  0  0  0  0  3  0  0  0  0  0  0
  187.8440  174.0520  136.8360 F   0  0  0  0  0  0  0  0  0  0  0  0
  189.0850  179.4590  136.8420 O   0  0  0  0  0  1  0  0  0  0  0  0
  188.1850  177.5160  137.9830 C   0  0  0  0  0  0  0  0  0  0  0  0
  189.6010  177.8410  145.1080 C   0  0  0  0  0  2  0  0  0  0  0  0
  187.6240  178.2450  146.9240 S   0  0  0  0  0  1  0  0  0  0  0  0
  188.9200  177.1270  146.2740 C   0  0  2  0  0  3  0  0  0  0  0  0
  189.9350  177.8830  148.2790 C   0  0  0  0  0  1  0  0  0  0  0  0
  189.8980  176.7860  147.3170 N   0  0  0  0  0  0  0  0  0  0  0  0
  191.2280  176.7620  146.7150 C   0  0  0  0  0  2  0  0  0  0  0  0
  192.0490  175.6240  147.2970 C   0  0  0  0  0  2  0  0  0  0  0  0
  192.9590  176.1190  148.2330 O   0  0  0  0  0  1  0  0  0  0  0  0
  1  8  1  0  0  0  0
  1 14  1  1  0  0  0
  2  7  1  0  0  0  0
  3  2  2  0  0  0  0
  4 25  1  1  0  0  0
  5 11  1  0  0  0  0
  8  5  1  6  0  0  0
  9  7  2  0  0  0  0
  9  8  1  0  0  0  0
 10 24  1  6  0  0  0
 10 13  1  0  0  0  0
 10 15  1  0  0  0  0
 11  4  1  0  0  0  0
 11  6  1  6  0  0  0
 12  3  1  0  0  0  0
 12 13  2  0  0  0  0
 13  9  1  0  0  0  0
 14  4  1  0  0  0  0
 15  1  1  0  0  0  0
 16 21  1  0  0  0  0
 17 20  1  0  0  0  0
 17 16  2  0  0  0  0
 18 24  1  0  0  0  0
 19 20  1  0  0  0  0
 20 18  2  0  0  0  0
 21 24  2  0  0  0  0
 22 16  1  0  0  0  0
 23 18  1  0  0  0  0
 25 27  1  0  0  0  0
 27 26  1  1  0  0  0
 27 29  1  0  0  0  0
 29 28  1  0  0  0  0
 30 31  1  0  0  0  0
 30 29  1  0  0  0  0
 31 32  1  0  0  0  0
M  END
>  <MODEL>
9

>  <REMARK>
 VINA RESULT:      -5.8      3.588      4.398
  Name = 
  6 active torsions:
  status: ('A' for Active; 'I' for Inactive)
    1  A    between atoms: C_1  and  C_10
    2  A    between atoms: C_8  and  C_23
    3  A    between atoms: C_10  and  N_24
    4  A    between atoms: C_16  and  C_32
    5  A    between atoms: C_19  and  C_23
    6  A    between atoms: C_19  and  N_24
                            x       y       z     vdW  Elec       q    Type
                         _______ _______ _______ _____ _____    ______ ____

>  <TORSDO>
F 6

$$$$
