=
 OpenBabel11052413433D

 27 32  0  0  1  0  0  0  0  0999 V2000
  188.4500  177.1260  146.2130 C   0  0  1  0  0  3  0  0  0  0  0  0
  190.0590  178.4260  145.0510 N   0  0  0  0  0  0  0  0  0  0  0  0
  188.1010  177.1240  144.6980 C   0  0  2  0  0  3  0  0  0  0  0  0
  191.7370  177.8390  141.2460 C   0  0  0  0  0  2  0  0  0  0  0  0
  190.1430  176.4950  139.7790 C   0  0  0  0  0  2  0  0  0  0  0  0
  191.3450  178.8910  144.7160 N   0  0  0  0  0  0  0  0  0  0  0  0
  188.8580  177.1490  141.7850 N   0  0  0  0  0  2  0  0  0  0  0  0
  184.6500  178.5520  143.8410 C   0  0  0  0  0  3  0  0  0  0  0  0
  189.4080  176.0260  141.0370 C   0  0  0  0  0  2  0  0  0  0  0  0
  184.2850  178.9350  145.1470 C   0  0  0  0  0  3  0  0  0  0  0  0
  189.8090  177.4440  142.8510 C   0  0  1  0  0  3  0  0  0  0  0  0
  189.7350  177.9280  146.3770 C   0  0  2  0  0  3  0  0  0  0  0  0
  190.9450  177.7890  139.9460 C   0  0  0  0  0  2  0  0  0  0  0  0
  190.8790  178.4340  142.3570 C   0  0  1  0  0  3  0  0  0  0  0  0
  187.3670  177.7900  146.8650 O   0  0  0  0  0  0  0  0  0  0  0  0
  189.0860  178.0780  144.0330 C   0  0  2  0  0  3  0  0  0  0  0  0
  185.8910  177.9400  143.6010 C   0  0  0  0  0  3  0  0  0  0  0  0
  191.7620  178.8950  143.4850 C   0  0  0  0  0  3  0  0  0  0  0  0
  185.1600  178.7080  146.2220 C   0  0  0  0  0  3  0  0  0  0  0  0
  186.3830  178.0990  145.9530 C   0  0  0  0  0  0  0  0  0  0  0  0
  186.7410  177.7270  144.6870 C   0  0  0  0  0  0  0  0  0  0  0  0
  192.8670  175.4390  147.9570 C   0  0  0  0  0  3  0  0  0  0  0  0
  190.8250  177.0490  146.9130 C   0  0  0  0  0  0  0  0  0  0  0  0
  191.2960  175.9430  146.1860 C   0  0  0  0  0  3  0  0  0  0  0  0
  192.3140  175.1410  146.7080 C   0  0  0  0  0  3  0  0  0  0  0  0
  192.4010  176.5380  148.6840 C   0  0  0  0  0  3  0  0  0  0  0  0
  191.3820  177.3410  148.1630 C   0  0  0  0  0  3  0  0  0  0  0  0
  1 12  1  0  0  0  0
  1 15  1  1  0  0  0
  2 12  1  0  0  0  0
  3 21  1  1  0  0  0
  3  1  1  0  0  0  0
  5 13  1  0  0  0  0
  5  9  1  0  0  0  0
  6  2  1  0  0  0  0
  8 10  1  0  0  0  0
  9  7  1  0  0  0  0
 10 19  2  0  0  0  0
 11  7  1  6  0  0  0
 11 16  1  0  0  0  0
 12 23  1  6  0  0  0
 13  4  1  0  0  0  0
 14  4  1  6  0  0  0
 14 11  1  0  0  0  0
 14 18  1  0  0  0  0
 16  3  1  0  0  0  0
 16  2  1  1  0  0  0
 17  8  2  0  0  0  0
 17 21  1  0  0  0  0
 18  6  2  0  0  0  0
 20 19  1  0  0  0  0
 20 15  1  0  0  0  0
 21 20  2  0  0  0  0
 22 26  1  0  0  0  0
 23 27  1  0  0  0  0
 24 25  1  0  0  0  0
 24 23  2  0  0  0  0
 25 22  2  0  0  0  0
 27 26  2  0  0  0  0
M  END
>  <MODEL>
1

>  <REMARK>
 VINA RESULT:      -7.3      0.000      0.000
  Name = 
  1 active torsions:
  status: ('A' for Active; 'I' for Inactive)
    1  A    between atoms: C_9  and  C_15
                            x       y       z     vdW  Elec       q    Type
                         _______ _______ _______ _____ _____    ______ ____

>  <TORSDO>
F 1

$$$$
=
 OpenBabel11052413433D

 27 32  0  0  1  0  0  0  0  0999 V2000
  188.7420  177.8110  138.9940 C   0  0  1  0  0  3  0  0  0  0  0  0
  189.0790  175.6280  138.1280 N   0  0  0  0  0  0  0  0  0  0  0  0
  190.2520  177.4550  139.0960 C   0  0  2  0  0  3  0  0  0  0  0  0
  192.2980  174.0940  135.9080 C   0  0  0  0  0  2  0  0  0  0  0  0
  194.4180  175.4220  136.4000 C   0  0  0  0  0  2  0  0  0  0  0  0
  188.9280  174.5610  137.2220 N   0  0  0  0  0  0  0  0  0  0  0  0
  192.7530  176.1200  138.0860 N   0  0  0  0  0  2  0  0  0  0  0  0
  191.6810  177.5020  142.6510 C   0  0  0  0  0  3  0  0  0  0  0  0
  193.5570  176.5600  136.9530 C   0  0  0  0  0  2  0  0  0  0  0  0
  190.4750  177.7840  143.3250 C   0  0  0  0  0  3  0  0  0  0  0  0
  191.4270  175.8140  137.5610 C   0  0  1  0  0  3  0  0  0  0  0  0
  188.0480  176.6310  138.3250 C   0  0  2  0  0  3  0  0  0  0  0  0
  193.7420  174.0470  136.3900 C   0  0  0  0  0  2  0  0  0  0  0  0
  191.3620  174.3520  137.0840 C   0  0  1  0  0  3  0  0  0  0  0  0
  188.2810  177.9560  140.3380 O   0  0  0  0  0  0  0  0  0  0  0  0
  190.3800  176.0040  138.6510 C   0  0  2  0  0  3  0  0  0  0  0  0
  191.7010  177.3820  141.2520 C   0  0  0  0  0  3  0  0  0  0  0  0
  189.9600  173.9590  136.7090 C   0  0  0  0  0  3  0  0  0  0  0  0
  189.2820  177.9490  142.6030 C   0  0  0  0  0  3  0  0  0  0  0  0
  189.3340  177.8250  141.2160 C   0  0  0  0  0  0  0  0  0  0  0  0
  190.5010  177.5500  140.5600 C   0  0  0  0  0  0  0  0  0  0  0  0
  186.2810  177.8420  134.5940 C   0  0  0  0  0  3  0  0  0  0  0  0
  187.4470  177.0620  137.0190 C   0  0  0  0  0  0  0  0  0  0  0  0
  188.1970  177.7800  136.0720 C   0  0  0  0  0  3  0  0  0  0  0  0
  187.6140  178.1680  134.8630 C   0  0  0  0  0  3  0  0  0  0  0  0
  185.5310  177.1290  135.5340 C   0  0  0  0  0  3  0  0  0  0  0  0
  186.1130  176.7410  136.7440 C   0  0  0  0  0  3  0  0  0  0  0  0
  1  3  1  0  0  0  0
  1 15  1  1  0  0  0
  2 12  1  0  0  0  0
  3 21  1  1  0  0  0
  4 13  1  0  0  0  0
  5  9  1  0  0  0  0
  6  2  1  0  0  0  0
  8 10  1  0  0  0  0
  9  7  1  0  0  0  0
 11  7  1  1  0  0  0
 11 16  1  0  0  0  0
 12 23  1  6  0  0  0
 12  1  1  0  0  0  0
 13  5  1  0  0  0  0
 14  4  1  6  0  0  0
 14 11  1  0  0  0  0
 15 20  1  0  0  0  0
 16  2  1  6  0  0  0
 16  3  1  0  0  0  0
 17  8  2  0  0  0  0
 18 14  1  0  0  0  0
 18  6  2  0  0  0  0
 19 10  2  0  0  0  0
 20 19  1  0  0  0  0
 21 20  2  0  0  0  0
 21 17  1  0  0  0  0
 22 25  2  0  0  0  0
 22 26  1  0  0  0  0
 24 23  2  0  0  0  0
 25 24  1  0  0  0  0
 26 27  2  0  0  0  0
 27 23  1  0  0  0  0
M  END
>  <MODEL>
2

>  <REMARK>
 VINA RESULT:      -6.5      4.213      8.451
  Name = 
  1 active torsions:
  status: ('A' for Active; 'I' for Inactive)
    1  A    between atoms: C_9  and  C_15
                            x       y       z     vdW  Elec       q    Type
                         _______ _______ _______ _____ _____    ______ ____

>  <TORSDO>
F 1

$$$$
=
 OpenBabel11052413433D

 27 32  0  0  1  0  0  0  0  0999 V2000
  183.1610  178.4770  143.0300 C   0  0  1  0  0  3  0  0  0  0  0  0
  184.5140  179.1090  141.1860 N   0  0  0  0  0  0  0  0  0  0  0  0
  182.4800  177.9980  141.7180 C   0  0  2  0  0  3  0  0  0  0  0  0
  185.2680  177.0680  137.5940 C   0  0  0  0  0  2  0  0  0  0  0  0
  183.3360  175.4940  137.0530 C   0  0  0  0  0  2  0  0  0  0  0  0
  185.7070  179.2810  140.4590 N   0  0  0  0  0  0  0  0  0  0  0  0
  182.5610  176.9370  138.9020 N   0  0  0  0  0  2  0  0  0  0  0  0
  178.9790  179.4300  141.1060 C   0  0  0  0  0  3  0  0  0  0  0  0
  182.8870  175.5710  138.5150 C   0  0  0  0  0  2  0  0  0  0  0  0
  178.9320  180.2760  142.2320 C   0  0  0  0  0  3  0  0  0  0  0  0
  183.7380  177.4690  139.5810 C   0  0  1  0  0  3  0  0  0  0  0  0
  184.4780  179.1350  142.6380 C   0  0  2  0  0  3  0  0  0  0  0  0
  184.2020  176.6670  136.5820 C   0  0  0  0  0  2  0  0  0  0  0  0
  184.7050  178.1010  138.5630 C   0  0  1  0  0  3  0  0  0  0  0  0
  182.2780  179.4440  143.6010 O   0  0  0  0  0  0  0  0  0  0  0  0
  183.3230  178.5470  140.5740 C   0  0  2  0  0  3  0  0  0  0  0  0
  180.1110  178.6360  140.8610 C   0  0  0  0  0  3  0  0  0  0  0  0
  185.8360  178.8160  139.2520 C   0  0  0  0  0  3  0  0  0  0  0  0
  180.0180  180.3330  143.1210 C   0  0  0  0  0  3  0  0  0  0  0  0
  181.1250  179.5320  142.8520 C   0  0  0  0  0  0  0  0  0  0  0  0
  181.1750  178.7120  141.7600 C   0  0  0  0  0  0  0  0  0  0  0  0
  187.7610  176.9650  144.3760 C   0  0  0  0  0  3  0  0  0  0  0  0
  185.6290  178.3750  143.2270 C   0  0  0  0  0  0  0  0  0  0  0  0
  186.6290  177.8170  142.4130 C   0  0  0  0  0  3  0  0  0  0  0  0
  187.6910  177.1140  142.9870 C   0  0  0  0  0  3  0  0  0  0  0  0
  186.7670  177.5170  145.1890 C   0  0  0  0  0  3  0  0  0  0  0  0
  185.7030  178.2200  144.6160 C   0  0  0  0  0  3  0  0  0  0  0  0
  1 15  1  6  0  0  0
  2 12  1  0  0  0  0
  3 21  1  6  0  0  0
  3  1  1  0  0  0  0
  5  9  1  0  0  0  0
  6  2  1  0  0  0  0
  8 10  1  0  0  0  0
  9  7  1  0  0  0  0
 10 19  2  0  0  0  0
 11  7  1  6  0  0  0
 11 16  1  0  0  0  0
 12  1  1  0  0  0  0
 12 23  1  1  0  0  0
 13  5  1  0  0  0  0
 13  4  1  0  0  0  0
 14  4  1  6  0  0  0
 14 18  1  0  0  0  0
 14 11  1  0  0  0  0
 16  2  1  1  0  0  0
 16  3  1  0  0  0  0
 17  8  2  0  0  0  0
 17 21  1  0  0  0  0
 18  6  2  0  0  0  0
 20 19  1  0  0  0  0
 20 15  1  0  0  0  0
 21 20  2  0  0  0  0
 22 26  1  0  0  0  0
 23 27  1  0  0  0  0
 24 25  1  0  0  0  0
 24 23  2  0  0  0  0
 25 22  2  0  0  0  0
 27 26  2  0  0  0  0
M  END
>  <MODEL>
3

>  <REMARK>
 VINA RESULT:      -6.5      4.546      6.711
  Name = 
  1 active torsions:
  status: ('A' for Active; 'I' for Inactive)
    1  A    between atoms: C_9  and  C_15
                            x       y       z     vdW  Elec       q    Type
                         _______ _______ _______ _____ _____    ______ ____

>  <TORSDO>
F 1

$$$$
=
 OpenBabel11052413433D

 27 32  0  0  1  0  0  0  0  0999 V2000
  185.5500  177.9360  141.2630 C   0  0  1  0  0  3  0  0  0  0  0  0
  184.3510  179.6080  140.0820 N   0  0  0  0  0  0  0  0  0  0  0  0
  184.0960  177.9930  141.8080 C   0  0  2  0  0  3  0  0  0  0  0  0
  180.3330  179.6630  138.8580 C   0  0  0  0  0  2  0  0  0  0  0  0
  178.9320  178.1650  140.3730 C   0  0  0  0  0  2  0  0  0  0  0  0
  183.9170  180.3330  138.9560 N   0  0  0  0  0  0  0  0  0  0  0  0
  181.1320  178.3980  141.4690 N   0  0  0  0  0  2  0  0  0  0  0  0
  183.8080  178.8070  145.5420 C   0  0  0  0  0  3  0  0  0  0  0  0
  180.2110  177.4640  140.8360 C   0  0  0  0  0  2  0  0  0  0  0  0
  185.1810  179.0060  145.7880 C   0  0  0  0  0  3  0  0  0  0  0  0
  182.1040  178.7800  140.4500 C   0  0  1  0  0  3  0  0  0  0  0  0
  185.6450  178.9510  140.1310 C   0  0  2  0  0  3  0  0  0  0  0  0
  179.1380  179.5700  139.7970 C   0  0  0  0  0  2  0  0  0  0  0  0
  181.5950  179.9910  139.6490 C   0  0  1  0  0  3  0  0  0  0  0  0
  186.3930  178.3270  142.3480 O   0  0  0  0  0  0  0  0  0  0  0  0
  183.4230  179.1660  141.1080 C   0  0  2  0  0  3  0  0  0  0  0  0
  183.3600  178.4630  144.2560 C   0  0  0  0  0  3  0  0  0  0  0  0
  182.6520  180.5170  138.7170 C   0  0  0  0  0  3  0  0  0  0  0  0
  186.1150  178.8620  144.7490 C   0  0  0  0  0  3  0  0  0  0  0  0
  185.6400  178.5180  143.4860 C   0  0  0  0  0  0  0  0  0  0  0  0
  184.3090  178.3260  143.2420 C   0  0  0  0  0  0  0  0  0  0  0  0
  186.5790  176.9650  136.4310 C   0  0  0  0  0  3  0  0  0  0  0  0
  185.9540  178.2530  138.8390 C   0  0  0  0  0  0  0  0  0  0  0  0
  184.9430  177.6330  138.0840 C   0  0  0  0  0  3  0  0  0  0  0  0
  185.2570  176.9910  136.8840 C   0  0  0  0  0  3  0  0  0  0  0  0
  187.5880  177.5790  137.1790 C   0  0  0  0  0  3  0  0  0  0  0  0
  187.2750  178.2210  138.3810 C   0  0  0  0  0  3  0  0  0  0  0  0
  1  3  1  0  0  0  0
  1 15  1  1  0  0  0
  2 12  1  0  0  0  0
  3 21  1  1  0  0  0
  4 14  1  0  0  0  0
  4 13  1  0  0  0  0
  5  9  1  0  0  0  0
  6  2  1  0  0  0  0
  8 10  1  0  0  0  0
  9  7  1  0  0  0  0
 11 16  1  0  0  0  0
 11  7  1  1  0  0  0
 12 23  1  6  0  0  0
 12  1  1  0  0  0  0
 13  5  1  0  0  0  0
 14 18  1  6  0  0  0
 14 11  1  0  0  0  0
 15 20  1  0  0  0  0
 16  2  1  6  0  0  0
 16  3  1  0  0  0  0
 17  8  2  0  0  0  0
 18  6  2  0  0  0  0
 19 10  2  0  0  0  0
 20 19  1  0  0  0  0
 21 20  2  0  0  0  0
 21 17  1  0  0  0  0
 22 25  2  0  0  0  0
 22 26  1  0  0  0  0
 24 23  2  0  0  0  0
 25 24  1  0  0  0  0
 26 27  2  0  0  0  0
 27 23  1  0  0  0  0
M  END
>  <MODEL>
4

>  <REMARK>
 VINA RESULT:      -6.4      5.013      8.567
  Name = 
  1 active torsions:
  status: ('A' for Active; 'I' for Inactive)
    1  A    between atoms: C_9  and  C_15
                            x       y       z     vdW  Elec       q    Type
                         _______ _______ _______ _____ _____    ______ ____

>  <TORSDO>
F 1

$$$$
=
 OpenBabel11052413433D

 27 32  0  0  1  0  0  0  0  0999 V2000
  189.2680  174.9750  136.7760 C   0  0  1  0  0  3  0  0  0  0  0  0
  188.2740  176.9220  137.6980 N   0  0  0  0  0  0  0  0  0  0  0  0
  190.1650  175.5000  137.9320 C   0  0  2  0  0  3  0  0  0  0  0  0
  188.1400  178.2290  141.6870 C   0  0  0  0  0  2  0  0  0  0  0  0
  190.1150  177.2780  142.9910 C   0  0  0  0  0  2  0  0  0  0  0  0
  187.2310  177.7300  138.1910 N   0  0  0  0  0  0  0  0  0  0  0  0
  190.5690  176.8190  140.6070 N   0  0  0  0  0  2  0  0  0  0  0  0
  193.7390  176.4230  136.9050 C   0  0  0  0  0  3  0  0  0  0  0  0
  190.2980  176.2150  141.9050 C   0  0  0  0  0  2  0  0  0  0  0  0
  193.5970  176.1810  135.5240 C   0  0  0  0  0  3  0  0  0  0  0  0
  189.2990  176.8560  139.8920 C   0  0  1  0  0  3  0  0  0  0  0  0
  188.0510  175.8890  136.7020 C   0  0  2  0  0  3  0  0  0  0  0  0
  189.3630  178.5360  142.5420 C   0  0  0  0  0  2  0  0  0  0  0  0
  188.5370  178.1530  140.2170 C   0  0  1  0  0  3  0  0  0  0  0  0
  190.0490  175.0970  135.5860 O   0  0  0  0  0  0  0  0  0  0  0  0
  189.5460  176.8140  138.3890 C   0  0  2  0  0  3  0  0  0  0  0  0
  192.6570  176.2190  137.7770 C   0  0  0  0  0  3  0  0  0  0  0  0
  187.3120  178.3010  139.3560 C   0  0  0  0  0  3  0  0  0  0  0  0
  192.3710  175.7300  135.0060 C   0  0  0  0  0  3  0  0  0  0  0  0
  191.3180  175.5350  135.8970 C   0  0  0  0  0  0  0  0  0  0  0  0
  191.4510  175.7710  137.2360 C   0  0  0  0  0  0  0  0  0  0  0  0
  184.5010  173.6080  137.5390 C   0  0  0  0  0  3  0  0  0  0  0  0
  186.8030  175.1090  136.9910 C   0  0  0  0  0  0  0  0  0  0  0  0
  185.5350  175.7110  136.9300 C   0  0  0  0  0  3  0  0  0  0  0  0
  184.3880  174.9610  137.2030 C   0  0  0  0  0  3  0  0  0  0  0  0
  185.7610  173.0060  137.6020 C   0  0  0  0  0  3  0  0  0  0  0  0
  186.9090  173.7550  137.3290 C   0  0  0  0  0  3  0  0  0  0  0  0
  1 15  1  6  0  0  0
  1  3  1  0  0  0  0
  2  6  1  0  0  0  0
  3 21  1  6  0  0  0
  3 16  1  0  0  0  0
  4 13  1  0  0  0  0
  6 18  2  0  0  0  0
  7  9  1  0  0  0  0
  8 17  1  0  0  0  0
  9  5  1  0  0  0  0
 10  8  2  0  0  0  0
 11 14  1  0  0  0  0
 11  7  1  1  0  0  0
 12  1  1  0  0  0  0
 12 23  1  1  0  0  0
 12  2  1  0  0  0  0
 13  5  1  0  0  0  0
 14 18  1  6  0  0  0
 14  4  1  0  0  0  0
 15 20  1  0  0  0  0
 16  2  1  6  0  0  0
 16 11  1  0  0  0  0
 19 10  1  0  0  0  0
 19 20  2  0  0  0  0
 20 21  1  0  0  0  0
 21 17  2  0  0  0  0
 22 26  1  0  0  0  0
 23 27  1  0  0  0  0
 24 23  2  0  0  0  0
 24 25  1  0  0  0  0
 25 22  2  0  0  0  0
 27 26  2  0  0  0  0
M  END
>  <MODEL>
5

>  <REMARK>
 VINA RESULT:      -6.2      4.483      9.324
  Name = 
  1 active torsions:
  status: ('A' for Active; 'I' for Inactive)
    1  A    between atoms: C_9  and  C_15
                            x       y       z     vdW  Elec       q    Type
                         _______ _______ _______ _____ _____    ______ ____

>  <TORSDO>
F 1

$$$$
=
 OpenBabel11052413433D

 27 32  0  0  1  0  0  0  0  0999 V2000
  183.0830  178.9770  139.5580 C   0  0  1  0  0  3  0  0  0  0  0  0
  185.2480  178.6670  138.6370 N   0  0  0  0  0  0  0  0  0  0  0  0
  182.9870  177.9840  138.3660 C   0  0  2  0  0  3  0  0  0  0  0  0
  187.0080  175.2080  137.0340 C   0  0  0  0  0  2  0  0  0  0  0  0
  185.2070  173.6260  136.1650 C   0  0  0  0  0  2  0  0  0  0  0  0
  186.6400  178.4540  138.6540 N   0  0  0  0  0  0  0  0  0  0  0  0
  184.0780  175.7710  136.6410 N   0  0  0  0  0  2  0  0  0  0  0  0
  180.6880  179.1090  135.5140 C   0  0  0  0  0  3  0  0  0  0  0  0
  184.1710  174.3660  137.0150 C   0  0  0  0  0  2  0  0  0  0  0  0
  180.3520  180.3710  136.0430 C   0  0  0  0  0  3  0  0  0  0  0  0
  184.9000  176.5100  137.5940 C   0  0  1  0  0  3  0  0  0  0  0  0
  184.5530  179.3430  139.7190 C   0  0  2  0  0  3  0  0  0  0  0  0
  186.4680  174.4320  135.8390 C   0  0  0  0  0  2  0  0  0  0  0  0
  186.3570  176.5850  137.1000 C   0  0  1  0  0  3  0  0  0  0  0  0
  182.3280  180.1270  139.1730 O   0  0  0  0  0  0  0  0  0  0  0  0
  184.3750  177.9320  137.7410 C   0  0  2  0  0  3  0  0  0  0  0  0
  181.5490  178.2510  136.2180 C   0  0  0  0  0  3  0  0  0  0  0  0
  187.1840  177.4930  137.9690 C   0  0  0  0  0  3  0  0  0  0  0  0
  180.8740  180.7830  137.2800 C   0  0  0  0  0  3  0  0  0  0  0  0
  181.7230  179.9090  137.9550 C   0  0  0  0  0  0  0  0  0  0  0  0
  182.0530  178.6850  137.4440 C   0  0  0  0  0  0  0  0  0  0  0  0
  185.9360  178.0420  143.5790 C   0  0  0  0  0  3  0  0  0  0  0  0
  185.0520  178.8890  141.0590 C   0  0  0  0  0  0  0  0  0  0  0  0
  186.4210  178.6750  141.2940 C   0  0  0  0  0  3  0  0  0  0  0  0
  186.8600  178.2530  142.5510 C   0  0  0  0  0  3  0  0  0  0  0  0
  184.5730  178.2530  143.3490 C   0  0  0  0  0  3  0  0  0  0  0  0
  184.1330  178.6750  142.0910 C   0  0  0  0  0  3  0  0  0  0  0  0
  1 15  1  6  0  0  0
  1 12  1  0  0  0  0
  2  6  1  0  0  0  0
  2 12  1  0  0  0  0
  3 21  1  6  0  0  0
  3  1  1  0  0  0  0
  5  9  1  0  0  0  0
  7  9  1  0  0  0  0
  8 10  2  0  0  0  0
  8 17  1  0  0  0  0
 10 19  1  0  0  0  0
 11  7  1  6  0  0  0
 11 16  1  0  0  0  0
 12 23  1  1  0  0  0
 13  5  1  0  0  0  0
 13  4  1  0  0  0  0
 14  4  1  1  0  0  0
 14 11  1  0  0  0  0
 14 18  1  0  0  0  0
 16  3  1  0  0  0  0
 16  2  1  1  0  0  0
 17 21  2  0  0  0  0
 18  6  2  0  0  0  0
 19 20  2  0  0  0  0
 20 15  1  0  0  0  0
 21 20  1  0  0  0  0
 23 24  2  0  0  0  0
 23 27  1  0  0  0  0
 24 25  1  0  0  0  0
 25 22  2  0  0  0  0
 26 22  1  0  0  0  0
 27 26  2  0  0  0  0
M  END
>  <MODEL>
6

>  <REMARK>
 VINA RESULT:      -6.1      5.815      8.288
  Name = 
  1 active torsions:
  status: ('A' for Active; 'I' for Inactive)
    1  A    between atoms: C_9  and  C_15
                            x       y       z     vdW  Elec       q    Type
                         _______ _______ _______ _____ _____    ______ ____

>  <TORSDO>
F 1

$$$$
=
 OpenBabel11052413433D

 27 32  0  0  1  0  0  0  0  0999 V2000
  183.4780  179.3400  140.7580 C   0  0  1  0  0  3  0  0  0  0  0  0
  183.3620  177.5950  139.1540 N   0  0  0  0  0  0  0  0  0  0  0  0
  184.9150  179.0150  140.2620 C   0  0  2  0  0  3  0  0  0  0  0  0
  185.6290  177.0060  135.6680 C   0  0  0  0  0  2  0  0  0  0  0  0
  187.8990  178.1480  135.8910 C   0  0  0  0  0  2  0  0  0  0  0  0
  182.8600  176.8980  138.0390 N   0  0  0  0  0  0  0  0  0  0  0  0
  186.8800  178.1790  138.1410 N   0  0  0  0  0  2  0  0  0  0  0  0
  187.3460  177.8870  143.0000 C   0  0  0  0  0  3  0  0  0  0  0  0
  187.3380  179.0030  137.0300 C   0  0  0  0  0  2  0  0  0  0  0  0
  186.4260  177.8860  144.0670 C   0  0  0  0  0  3  0  0  0  0  0  0
  185.4370  178.0320  137.9840 C   0  0  1  0  0  3  0  0  0  0  0  0
  182.5220  178.4410  139.9840 C   0  0  2  0  0  3  0  0  0  0  0  0
  187.1430  176.8400  135.6340 C   0  0  0  0  0  2  0  0  0  0  0  0
  185.1150  176.8200  137.0920 C   0  0  1  0  0  3  0  0  0  0  0  0
  183.4560  179.0040  142.1460 O   0  0  0  0  0  0  0  0  0  0  0  0
  184.7860  177.8080  139.3430 C   0  0  2  0  0  3  0  0  0  0  0  0
  186.9340  178.2520  141.7080 C   0  0  0  0  0  3  0  0  0  0  0  0
  183.6380  176.5370  137.0610 C   0  0  0  0  0  3  0  0  0  0  0  0
  185.0880  178.2530  143.8500 C   0  0  0  0  0  3  0  0  0  0  0  0
  184.7110  178.6120  142.5570 C   0  0  0  0  0  0  0  0  0  0  0  0
  185.5990  178.6120  141.5190 C   0  0  0  0  0  0  0  0  0  0  0  0
  179.8170  180.7980  137.6110 C   0  0  0  0  0  3  0  0  0  0  0  0
  181.5920  179.2740  139.1520 C   0  0  0  0  0  0  0  0  0  0  0  0
  182.0670  180.3490  138.3810 C   0  0  0  0  0  3  0  0  0  0  0  0
  181.1810  181.1080  137.6140 C   0  0  0  0  0  3  0  0  0  0  0  0
  179.3400  179.7310  138.3780 C   0  0  0  0  0  3  0  0  0  0  0  0
  180.2270  178.9710  139.1460 C   0  0  0  0  0  3  0  0  0  0  0  0
  1 15  1  1  0  0  0
  2 12  1  0  0  0  0
  3  1  1  0  0  0  0
  3 21  1  1  0  0  0
  5  9  1  0  0  0  0
  6  2  1  0  0  0  0
  8 10  1  0  0  0  0
  9  7  1  0  0  0  0
 11  7  1  1  0  0  0
 11 16  1  0  0  0  0
 12 23  1  6  0  0  0
 12  1  1  0  0  0  0
 13  4  1  0  0  0  0
 13  5  1  0  0  0  0
 14  4  1  6  0  0  0
 14 11  1  0  0  0  0
 15 20  1  0  0  0  0
 16  2  1  6  0  0  0
 16  3  1  0  0  0  0
 17  8  2  0  0  0  0
 18 14  1  0  0  0  0
 18  6  2  0  0  0  0
 19 10  2  0  0  0  0
 20 19  1  0  0  0  0
 21 17  1  0  0  0  0
 21 20  2  0  0  0  0
 22 25  2  0  0  0  0
 22 26  1  0  0  0  0
 24 23  2  0  0  0  0
 25 24  1  0  0  0  0
 26 27  2  0  0  0  0
 27 23  1  0  0  0  0
M  END
>  <MODEL>
7

>  <REMARK>
 VINA RESULT:      -6.1      5.228      9.172
  Name = 
  1 active torsions:
  status: ('A' for Active; 'I' for Inactive)
    1  A    between atoms: C_9  and  C_15
                            x       y       z     vdW  Elec       q    Type
                         _______ _______ _______ _____ _____    ______ ____

>  <TORSDO>
F 1

$$$$
=
 OpenBabel11052413433D

 27 32  0  0  1  0  0  0  0  0999 V2000
  188.6810  177.1450  139.6020 C   0  0  1  0  0  3  0  0  0  0  0  0
  190.9920  177.6690  139.4890 N   0  0  0  0  0  0  0  0  0  0  0  0
  189.3040  176.4170  138.3780 C   0  0  2  0  0  3  0  0  0  0  0  0
  194.2340  175.2580  138.3440 C   0  0  0  0  0  2  0  0  0  0  0  0
  193.4460  173.4150  136.7680 C   0  0  0  0  0  2  0  0  0  0  0  0
  192.2940  177.8760  139.9830 N   0  0  0  0  0  0  0  0  0  0  0  0
  191.5630  174.9990  136.9820 N   0  0  0  0  0  2  0  0  0  0  0  0
  187.7600  177.3440  134.9960 C   0  0  0  0  0  3  0  0  0  0  0  0
  192.0110  173.6390  137.2510 C   0  0  0  0  0  2  0  0  0  0  0  0
  186.8660  178.3240  135.4700 C   0  0  0  0  0  3  0  0  0  0  0  0
  191.7450  175.7490  138.2210 C   0  0  1  0  0  3  0  0  0  0  0  0
  189.8100  177.8890  140.3040 C   0  0  2  0  0  3  0  0  0  0  0  0
  194.3900  174.6040  136.9770 C   0  0  0  0  0  2  0  0  0  0  0  0
  193.1640  176.3420  138.2850 C   0  0  1  0  0  3  0  0  0  0  0  0
  187.7360  178.0730  139.0680 O   0  0  0  0  0  0  0  0  0  0  0  0
  190.7470  176.8970  138.2850 C   0  0  2  0  0  3  0  0  0  0  0  0
  188.6000  176.6580  135.8880 C   0  0  0  0  0  3  0  0  0  0  0  0
  193.3190  177.2680  139.4600 C   0  0  0  0  0  3  0  0  0  0  0  0
  186.8060  178.6250  136.8400 C   0  0  0  0  0  3  0  0  0  0  0  0
  187.6500  177.9260  137.7010 C   0  0  0  0  0  0  0  0  0  0  0  0
  188.5200  176.9760  137.2440 C   0  0  0  0  0  0  0  0  0  0  0  0
  190.3300  176.3960  144.3050 C   0  0  0  0  0  3  0  0  0  0  0  0
  189.9940  177.3520  141.6920 C   0  0  0  0  0  0  0  0  0  0  0  0
  190.3510  176.0110  141.9150 C   0  0  0  0  0  3  0  0  0  0  0  0
  190.5180  175.5360  143.2180 C   0  0  0  0  0  3  0  0  0  0  0  0
  189.9740  177.7300  144.0870 C   0  0  0  0  0  3  0  0  0  0  0  0
  189.8060  178.2070  142.7840 C   0  0  0  0  0  3  0  0  0  0  0  0
  1 15  1  6  0  0  0
  1 12  1  0  0  0  0
  2  6  1  0  0  0  0
  2 12  1  0  0  0  0
  3 21  1  6  0  0  0
  3  1  1  0  0  0  0
  5 13  1  0  0  0  0
  5  9  1  0  0  0  0
  7  9  1  0  0  0  0
  8 10  2  0  0  0  0
  8 17  1  0  0  0  0
 10 19  1  0  0  0  0
 11  7  1  6  0  0  0
 11 14  1  0  0  0  0
 11 16  1  0  0  0  0
 12 23  1  1  0  0  0
 13  4  1  0  0  0  0
 14  4  1  1  0  0  0
 14 18  1  0  0  0  0
 16  3  1  0  0  0  0
 16  2  1  1  0  0  0
 17 21  2  0  0  0  0
 18  6  2  0  0  0  0
 19 20  2  0  0  0  0
 20 15  1  0  0  0  0
 21 20  1  0  0  0  0
 23 24  2  0  0  0  0
 23 27  1  0  0  0  0
 24 25  1  0  0  0  0
 25 22  2  0  0  0  0
 26 22  1  0  0  0  0
 27 26  2  0  0  0  0
M  END
>  <MODEL>
8

>  <REMARK>
 VINA RESULT:      -5.9      3.787      6.436
  Name = 
  1 active torsions:
  status: ('A' for Active; 'I' for Inactive)
    1  A    between atoms: C_9  and  C_15
                            x       y       z     vdW  Elec       q    Type
                         _______ _______ _______ _____ _____    ______ ____

>  <TORSDO>
F 1

$$$$
=
 OpenBabel11052413433D

 27 32  0  0  1  0  0  0  0  0999 V2000
  183.4030  177.8580  139.3240 C   0  0  1  0  0  3  0  0  0  0  0  0
  181.3650  178.6090  140.2790 N   0  0  0  0  0  0  0  0  0  0  0  0
  182.6630  178.7570  138.2930 C   0  0  2  0  0  3  0  0  0  0  0  0
  179.4180  182.3080  139.8750 C   0  0  0  0  0  2  0  0  0  0  0  0
  180.0710  183.4090  137.6690 C   0  0  0  0  0  2  0  0  0  0  0  0
  180.5230  179.1290  141.2800 N   0  0  0  0  0  0  0  0  0  0  0  0
  180.9050  181.0870  137.5610 N   0  0  0  0  0  2  0  0  0  0  0  0
  181.8020  177.0310  134.9810 C   0  0  0  0  0  3  0  0  0  0  0  0
  181.2930  182.4910  137.5920 C   0  0  0  0  0  2  0  0  0  0  0  0
  182.2760  175.7480  135.3200 C   0  0  0  0  0  3  0  0  0  0  0  0
  181.0310  180.5900  138.9270 C   0  0  1  0  0  3  0  0  0  0  0  0
  182.5560  177.8380  140.5900 C   0  0  2  0  0  3  0  0  0  0  0  0
  178.9320  182.8940  138.5550 C   0  0  0  0  0  2  0  0  0  0  0  0
  179.7240  180.8240  139.7050 C   0  0  1  0  0  3  0  0  0  0  0  0
  183.4540  176.5540  138.7440 O   0  0  0  0  0  0  0  0  0  0  0  0
  181.3130  179.0930  138.9120 C   0  0  2  0  0  3  0  0  0  0  0  0
  181.8960  178.0880  135.9020 C   0  0  0  0  0  3  0  0  0  0  0  0
  179.7630  180.1600  141.0550 C   0  0  0  0  0  3  0  0  0  0  0  0
  182.8470  175.5130  136.5810 C   0  0  0  0  0  3  0  0  0  0  0  0
  182.9280  176.5820  137.4710 C   0  0  0  0  0  0  0  0  0  0  0  0
  182.4670  177.8270  137.1480 C   0  0  0  0  0  0  0  0  0  0  0  0
  184.7880  179.5820  143.8280 C   0  0  0  0  0  3  0  0  0  0  0  0
  183.3190  178.4460  141.7290 C   0  0  0  0  0  0  0  0  0  0  0  0
  182.7180  178.6540  142.9830 C   0  0  0  0  0  3  0  0  0  0  0  0
  183.4520  179.2210  144.0270 C   0  0  0  0  0  3  0  0  0  0  0  0
  185.3890  179.3780  142.5820 C   0  0  0  0  0  3  0  0  0  0  0  0
  184.6560  178.8110  141.5360 C   0  0  0  0  0  3  0  0  0  0  0  0
  1 15  1  6  0  0  0
  1 12  1  0  0  0  0
  2 12  1  0  0  0  0
  2  6  1  0  0  0  0
  3 21  1  6  0  0  0
  3 16  1  0  0  0  0
  3  1  1  0  0  0  0
  5 13  1  0  0  0  0
  7  9  1  0  0  0  0
  8 10  2  0  0  0  0
  8 17  1  0  0  0  0
  9  5  1  0  0  0  0
 10 19  1  0  0  0  0
 11  7  1  6  0  0  0
 11 14  1  0  0  0  0
 12 23  1  1  0  0  0
 13  4  1  0  0  0  0
 14  4  1  1  0  0  0
 14 18  1  0  0  0  0
 16 11  1  0  0  0  0
 16  2  1  1  0  0  0
 17 21  2  0  0  0  0
 18  6  2  0  0  0  0
 19 20  2  0  0  0  0
 20 15  1  0  0  0  0
 21 20  1  0  0  0  0
 22 25  1  0  0  0  0
 23 24  1  0  0  0  0
 24 25  2  0  0  0  0
 26 22  2  0  0  0  0
 27 23  2  0  0  0  0
 27 26  1  0  0  0  0
M  END
>  <MODEL>
9

>  <REMARK>
 VINA RESULT:      -5.5      6.815     10.265
  Name = 
  1 active torsions:
  status: ('A' for Active; 'I' for Inactive)
    1  A    between atoms: C_9  and  C_15
                            x       y       z     vdW  Elec       q    Type
                         _______ _______ _______ _____ _____    ______ ____

>  <TORSDO>
F 1

$$$$
