=
 OpenBabel11052413253D

 28 31  0  0  1  0  0  0  0  0999 V2000
  189.2160  178.0680  145.3730 C   0  0  2  0  0  3  0  0  0  0  0  0
  187.7180  177.8430  149.4080 C   0  0  0  0  0  1  0  0  0  0  0  0
  185.4600  178.5890  144.8870 C   0  0  0  0  0  0  0  0  0  0  0  0
  187.2220  177.7800  146.9440 C   0  0  0  0  0  0  0  0  0  0  0  0
  186.8400  178.5170  144.6600 C   0  0  0  0  0  3  0  0  0  0  0  0
  189.5930  177.6870  147.8090 C   0  0  0  0  0  2  0  0  0  0  0  0
  185.8360  177.8100  147.1580 C   0  0  0  0  0  3  0  0  0  0  0  0
  188.1380  177.3000  148.0510 C   0  0  1  0  0  3  0  0  0  0  0  0
  184.9660  178.2110  146.1440 C   0  0  0  0  0  3  0  0  0  0  0  0
  190.0120  177.2740  146.4090 C   0  0  0  0  0  2  0  0  0  0  0  0
  187.7270  178.0880  145.6580 C   0  0  0  0  0  0  0  0  0  0  0  0
  183.2410  179.2070  144.1030 C   0  0  0  0  0  3  0  0  0  0  0  0
  184.4200  177.9600  141.5280 C   0  0  0  0  0  2  0  0  0  0  0  0
  181.9830  178.3110  142.1570 C   0  0  2  0  0  3  0  0  0  0  0  0
  184.5320  179.0050  143.8010 C   0  0  0  0  0  0  0  0  0  0  0  0
  186.3530  179.2080  142.2110 O   0  0  0  0  0  1  0  0  0  0  0  0
  183.0150  178.2890  141.0310 C   0  0  0  0  0  2  0  0  0  0  0  0
  184.9680  179.1140  142.3540 C   0  0  1  0  0  3  0  0  0  0  0  0
  180.5990  178.3910  141.5500 C   0  0  0  0  0  1  0  0  0  0  0  0
  182.1900  179.5100  143.0790 C   0  0  0  0  0  2  0  0  0  0  0  0
  189.5400  177.5930  143.9810 C   0  0  0  0  0  0  0  0  0  0  0  0
  188.7990  176.6430  143.3980 C   0  0  0  0  0  3  0  0  0  0  0  0
  191.0590  177.6930  141.8800 C   0  0  1  0  0  3  0  0  0  0  0  0
  189.0690  176.1940  142.0220 C   0  0  0  0  0  3  0  0  0  0  0  0
  191.2810  179.1870  143.7290 O   0  0  0  0  0  0  0  0  0  0  0  0
  190.6510  178.2160  143.2310 C   0  0  0  0  0  0  0  0  0  0  0  0
  192.3160  177.1260  141.9630 F   0  0  0  0  0  0  0  0  0  0  0  0
  190.0940  176.6820  141.3190 C   0  0  0  0  0  3  0  0  0  0  0  0
  1 21  1  6  0  0  0
  1 11  1  0  0  0  0
  1 10  1  0  0  0  0
  3  9  1  0  0  0  0
  4  7  1  0  0  0  0
  4  8  1  0  0  0  0
  5  3  2  0  0  0  0
  5 11  1  0  0  0  0
  6  8  1  0  0  0  0
  8  2  1  1  0  0  0
  9  7  2  0  0  0  0
 10  6  1  0  0  0  0
 11  4  2  0  0  0  0
 13 18  1  0  0  0  0
 14 19  1  6  0  0  0
 14 20  1  0  0  0  0
 15 12  2  0  0  0  0
 15  3  1  0  0  0  0
 17 13  1  0  0  0  0
 17 14  1  0  0  0  0
 18 16  1  1  0  0  0
 18 15  1  0  0  0  0
 20 12  1  0  0  0  0
 22 21  2  0  0  0  0
 23 27  1  1  0  0  0
 23 26  1  0  0  0  0
 24 22  1  0  0  0  0
 26 25  2  0  0  0  0
 26 21  1  0  0  0  0
 28 23  1  0  0  0  0
 28 24  2  0  0  0  0
M  END
>  <MODEL>
1

>  <REMARK>
 VINA RESULT:     -10.0      0.000      0.000
  Name = 
  2 active torsions:
  status: ('A' for Active; 'I' for Inactive)
    1  A    between atoms: C_1  and  C_2
    2  A    between atoms: C_10  and  C_13
                            x       y       z     vdW  Elec       q    Type
                         _______ _______ _______ _____ _____    ______ ____

>  <TORSDO>
F 2

$$$$
=
 OpenBabel11052413253D

 28 31  0  0  1  0  0  0  0  0999 V2000
  188.6310  176.7830  144.4590 C   0  0  2  0  0  3  0  0  0  0  0  0
  190.5410  176.6990  140.5960 C   0  0  0  0  0  1  0  0  0  0  0  0
  186.0630  178.5330  142.2330 C   0  0  0  0  0  0  0  0  0  0  0  0
  188.7510  177.6740  142.0680 C   0  0  0  0  0  0  0  0  0  0  0  0
  186.6810  177.9030  143.3200 C   0  0  0  0  0  3  0  0  0  0  0  0
  190.5930  176.2320  143.0200 C   0  0  0  0  0  2  0  0  0  0  0  0
  188.1460  178.3450  140.9950 C   0  0  0  0  0  3  0  0  0  0  0  0
  190.2070  177.2650  141.9670 C   0  0  1  0  0  3  0  0  0  0  0  0
  186.8180  178.7670  141.0750 C   0  0  0  0  0  3  0  0  0  0  0  0
  190.1570  176.7080  144.3950 C   0  0  0  0  0  2  0  0  0  0  0  0
  188.0230  177.4980  143.2680 C   0  0  0  0  0  0  0  0  0  0  0  0
  184.0720  179.0520  143.5310 C   0  0  0  0  0  3  0  0  0  0  0  0
  182.7880  178.2160  140.8420 C   0  0  0  0  0  2  0  0  0  0  0  0
  181.7380  178.2880  143.1550 C   0  0  2  0  0  3  0  0  0  0  0  0
  184.6510  178.9940  142.3240 C   0  0  0  0  0  0  0  0  0  0  0  0
  184.5900  179.5320  139.9580 O   0  0  0  0  0  1  0  0  0  0  0  0
  181.5250  178.4840  141.6550 C   0  0  0  0  0  2  0  0  0  0  0  0
  183.8170  179.3070  141.0980 C   0  0  1  0  0  3  0  0  0  0  0  0
  180.3930  178.3240  143.8480 C   0  0  0  0  0  1  0  0  0  0  0  0
  182.6250  179.3850  143.7380 C   0  0  0  0  0  2  0  0  0  0  0  0
  188.1860  177.3570  145.7790 C   0  0  0  0  0  0  0  0  0  0  0  0
  187.0510  178.0610  145.8640 C   0  0  0  0  0  3  0  0  0  0  0  0
  188.6090  177.7390  148.3100 C   0  0  1  0  0  3  0  0  0  0  0  0
  186.5720  178.5940  147.1500 C   0  0  0  0  0  3  0  0  0  0  0  0
  189.9850  176.3400  146.9480 O   0  0  0  0  0  0  0  0  0  0  0  0
  188.9770  177.0950  146.9990 C   0  0  0  0  0  0  0  0  0  0  0  0
  189.5880  178.6440  148.6720 F   0  0  0  0  0  0  0  0  0  0  0  0
  187.2750  178.4360  148.2740 C   0  0  0  0  0  3  0  0  0  0  0  0
  1 21  1  1  0  0  0
  3 15  1  0  0  0  0
  3  5  1  0  0  0  0
  4 11  1  0  0  0  0
  6 10  1  0  0  0  0
  7  9  1  0  0  0  0
  7  4  2  0  0  0  0
  8  2  1  6  0  0  0
  8  4  1  0  0  0  0
  8  6  1  0  0  0  0
  9  3  2  0  0  0  0
 10  1  1  0  0  0  0
 11  5  2  0  0  0  0
 11  1  1  0  0  0  0
 12 20  1  0  0  0  0
 13 18  1  0  0  0  0
 13 17  1  0  0  0  0
 14 20  1  0  0  0  0
 14 19  1  1  0  0  0
 15 12  2  0  0  0  0
 17 14  1  0  0  0  0
 18 16  1  6  0  0  0
 18 15  1  0  0  0  0
 21 22  2  0  0  0  0
 21 26  1  0  0  0  0
 22 24  1  0  0  0  0
 23 27  1  6  0  0  0
 24 28  2  0  0  0  0
 25 26  2  0  0  0  0
 26 23  1  0  0  0  0
 28 23  1  0  0  0  0
M  END
>  <MODEL>
2

>  <REMARK>
 VINA RESULT:      -9.8      2.115      4.465
  Name = 
  2 active torsions:
  status: ('A' for Active; 'I' for Inactive)
    1  A    between atoms: C_1  and  C_2
    2  A    between atoms: C_10  and  C_13
                            x       y       z     vdW  Elec       q    Type
                         _______ _______ _______ _____ _____    ______ ____

>  <TORSDO>
F 2

$$$$
=
 OpenBabel11052413253D

 28 31  0  0  1  0  0  0  0  0999 V2000
  186.8900  177.2700  144.9840 C   0  0  2  0  0  3  0  0  0  0  0  0
  190.4960  177.1420  147.3420 C   0  0  0  0  0  1  0  0  0  0  0  0
  189.6080  177.8610  142.3620 C   0  0  0  0  0  0  0  0  0  0  0  0
  189.3850  177.7830  145.1790 C   0  0  0  0  0  0  0  0  0  0  0  0
  188.3750  177.6040  142.9760 C   0  0  0  0  0  3  0  0  0  0  0  0
  188.0320  177.0850  147.1940 C   0  0  0  0  0  2  0  0  0  0  0  0
  190.6100  178.0830  144.5650 C   0  0  0  0  0  3  0  0  0  0  0  0
  189.2850  177.7930  146.6910 C   0  0  1  0  0  3  0  0  0  0  0  0
  190.7210  178.1200  143.1750 C   0  0  0  0  0  3  0  0  0  0  0  0
  186.8090  177.6210  146.4700 C   0  0  0  0  0  2  0  0  0  0  0  0
  188.2380  177.5930  144.3710 C   0  0  0  0  0  0  0  0  0  0  0  0
  188.6410  178.2500  140.1640 C   0  0  0  0  0  3  0  0  0  0  0  0
  190.8100  176.1560  139.4620 C   0  0  0  0  0  2  0  0  0  0  0  0
  188.7220  176.7860  138.1580 C   0  0  2  0  0  3  0  0  0  0  0  0
  189.7230  177.9120  140.8800 C   0  0  0  0  0  0  0  0  0  0  0  0
  192.1120  177.4940  140.9700 O   0  0  0  0  0  1  0  0  0  0  0  0
  190.1820  176.3440  138.0840 C   0  0  0  0  0  2  0  0  0  0  0  0
  190.9850  177.5030  140.1470 C   0  0  1  0  0  3  0  0  0  0  0  0
  188.1150  176.7020  136.7740 C   0  0  0  0  0  1  0  0  0  0  0  0
  188.6000  178.2200  138.6660 C   0  0  0  0  0  2  0  0  0  0  0  0
  185.7400  177.8880  144.2330 C   0  0  0  0  0  0  0  0  0  0  0  0
  185.6100  177.6960  142.9140 C   0  0  0  0  0  3  0  0  0  0  0  0
  183.6150  179.3760  144.2230 C   0  0  1  0  0  3  0  0  0  0  0  0
  184.4710  178.2530  142.1660 C   0  0  0  0  0  3  0  0  0  0  0  0
  184.7710  178.7560  146.2180 O   0  0  0  0  0  0  0  0  0  0  0  0
  184.7170  178.6660  144.9620 C   0  0  0  0  0  0  0  0  0  0  0  0
  183.7820  180.7420  144.3430 F   0  0  0  0  0  0  0  0  0  0  0  0
  183.5480  179.0100  142.7640 C   0  0  0  0  0  3  0  0  0  0  0  0
  1 21  1  6  0  0  0
  1 10  1  0  0  0  0
  3  5  2  0  0  0  0
  3  9  1  0  0  0  0
  4  8  1  0  0  0  0
  5 11  1  0  0  0  0
  7  4  1  0  0  0  0
  8  6  1  0  0  0  0
  8  2  1  1  0  0  0
  9  7  2  0  0  0  0
 10  6  1  0  0  0  0
 11  1  1  0  0  0  0
 11  4  2  0  0  0  0
 12 15  2  0  0  0  0
 13 18  1  0  0  0  0
 14 19  1  6  0  0  0
 14 20  1  0  0  0  0
 15  3  1  0  0  0  0
 17 14  1  0  0  0  0
 17 13  1  0  0  0  0
 18 15  1  0  0  0  0
 18 16  1  1  0  0  0
 20 12  1  0  0  0  0
 21 26  1  0  0  0  0
 22 21  2  0  0  0  0
 23 27  1  6  0  0  0
 23 26  1  0  0  0  0
 24 28  2  0  0  0  0
 24 22  1  0  0  0  0
 26 25  2  0  0  0  0
 28 23  1  0  0  0  0
M  END
>  <MODEL>
3

>  <REMARK>
 VINA RESULT:      -9.4      2.763      5.903
  Name = 
  2 active torsions:
  status: ('A' for Active; 'I' for Inactive)
    1  A    between atoms: C_1  and  C_2
    2  A    between atoms: C_10  and  C_13
                            x       y       z     vdW  Elec       q    Type
                         _______ _______ _______ _____ _____    ______ ____

>  <TORSDO>
F 2

$$$$
=
 OpenBabel11052413253D

 28 31  0  0  1  0  0  0  0  0999 V2000
  189.6150  177.8730  139.6230 C   0  0  2  0  0  3  0  0  0  0  0  0
  191.6510  177.1680  143.3570 C   0  0  0  0  0  1  0  0  0  0  0  0
  186.8360  178.4150  142.1910 C   0  0  0  0  0  0  0  0  0  0  0  0
  189.4690  177.3880  142.1280 C   0  0  0  0  0  0  0  0  0  0  0  0
  187.5620  178.3810  140.9940 C   0  0  0  0  0  3  0  0  0  0  0  0
  191.6630  177.2160  140.8880 C   0  0  0  0  0  2  0  0  0  0  0  0
  188.7260  177.3810  143.3170 C   0  0  0  0  0  3  0  0  0  0  0  0
  190.8610  176.7900  142.1140 C   0  0  1  0  0  3  0  0  0  0  0  0
  187.4270  177.8900  143.3490 C   0  0  0  0  0  3  0  0  0  0  0  0
  190.8500  176.9710  139.6290 C   0  0  0  0  0  2  0  0  0  0  0  0
  188.8580  177.8480  140.9370 C   0  0  0  0  0  0  0  0  0  0  0  0
  184.8870  179.2080  143.4130 C   0  0  0  0  0  3  0  0  0  0  0  0
  183.5310  178.0370  140.8890 C   0  0  0  0  0  2  0  0  0  0  0  0
  182.5180  178.4990  143.1730 C   0  0  2  0  0  3  0  0  0  0  0  0
  185.4460  178.9460  142.2230 C   0  0  0  0  0  0  0  0  0  0  0  0
  185.3740  179.1270  139.8040 O   0  0  0  0  0  1  0  0  0  0  0  0
  182.2920  178.4780  141.6620 C   0  0  0  0  0  2  0  0  0  0  0  0
  184.6080  179.1080  140.9700 C   0  0  1  0  0  3  0  0  0  0  0  0
  181.1860  178.6970  143.8640 C   0  0  0  0  0  1  0  0  0  0  0  0
  183.4590  179.6300  143.5790 C   0  0  0  0  0  2  0  0  0  0  0  0
  188.7420  177.5660  138.4350 C   0  0  0  0  0  0  0  0  0  0  0  0
  188.1570  176.3680  138.3150 C   0  0  0  0  0  3  0  0  0  0  0  0
  187.7000  178.2980  136.1750 C   0  0  1  0  0  3  0  0  0  0  0  0
  187.2650  176.0580  137.1860 C   0  0  0  0  0  3  0  0  0  0  0  0
  188.9410  179.7730  137.5850 O   0  0  0  0  0  0  0  0  0  0  0  0
  188.4850  178.6090  137.4220 C   0  0  0  0  0  0  0  0  0  0  0  0
  188.5300  178.3720  135.0740 F   0  0  0  0  0  0  0  0  0  0  0  0
  187.0410  176.9440  136.2120 C   0  0  0  0  0  3  0  0  0  0  0  0
  1 21  1  6  0  0  0
  1 10  1  0  0  0  0
  1 11  1  0  0  0  0
  3 15  1  0  0  0  0
  3  9  1  0  0  0  0
  4  7  1  0  0  0  0
  5  3  2  0  0  0  0
  6  8  1  0  0  0  0
  7  9  2  0  0  0  0
  8  4  1  0  0  0  0
  8  2  1  1  0  0  0
 10  6  1  0  0  0  0
 11  5  1  0  0  0  0
 11  4  2  0  0  0  0
 12 20  1  0  0  0  0
 13 18  1  0  0  0  0
 13 17  1  0  0  0  0
 14 20  1  0  0  0  0
 14 19  1  1  0  0  0
 15 12  2  0  0  0  0
 17 14  1  0  0  0  0
 18 16  1  6  0  0  0
 18 15  1  0  0  0  0
 22 21  2  0  0  0  0
 23 27  1  6  0  0  0
 23 28  1  0  0  0  0
 23 26  1  0  0  0  0
 24 22  1  0  0  0  0
 26 25  2  0  0  0  0
 26 21  1  0  0  0  0
 28 24  2  0  0  0  0
M  END
>  <MODEL>
4

>  <REMARK>
 VINA RESULT:      -9.3      3.155      4.915
  Name = 
  2 active torsions:
  status: ('A' for Active; 'I' for Inactive)
    1  A    between atoms: C_1  and  C_2
    2  A    between atoms: C_10  and  C_13
                            x       y       z     vdW  Elec       q    Type
                         _______ _______ _______ _____ _____    ______ ____

>  <TORSDO>
F 2

$$$$
=
 OpenBabel11052413253D

 28 31  0  0  1  0  0  0  0  0999 V2000
  187.6860  178.2670  144.1700 C   0  0  2  0  0  3  0  0  0  0  0  0
  183.5080  179.1730  144.7120 C   0  0  0  0  0  1  0  0  0  0  0  0
  186.3850  178.3300  140.5760 C   0  0  0  0  0  0  0  0  0  0  0  0
  185.3250  178.3240  143.1960 C   0  0  0  0  0  0  0  0  0  0  0  0
  187.2320  178.2960  141.6910 C   0  0  0  0  0  3  0  0  0  0  0  0
  185.7320  178.6780  145.6640 C   0  0  0  0  0  2  0  0  0  0  0  0
  184.4760  178.3130  142.0800 C   0  0  0  0  0  3  0  0  0  0  0  0
  184.7290  178.2750  144.5890 C   0  0  1  0  0  3  0  0  0  0  0  0
  184.9990  178.3180  140.7860 C   0  0  0  0  0  3  0  0  0  0  0  0
  187.0180  177.8900  145.4920 C   0  0  0  0  0  2  0  0  0  0  0  0
  186.7250  178.2610  142.9970 C   0  0  0  0  0  0  0  0  0  0  0  0
  186.0910  178.3090  138.1610 C   0  0  0  0  0  3  0  0  0  0  0  0
  188.8100  176.8510  138.4090 C   0  0  0  0  0  2  0  0  0  0  0  0
  187.1480  176.8070  136.4870 C   0  0  2  0  0  3  0  0  0  0  0  0
  186.9430  178.3230  139.1970 C   0  0  0  0  0  0  0  0  0  0  0  0
  189.2090  178.5810  140.0240 O   0  0  0  0  0  1  0  0  0  0  0  0
  188.6200  176.7790  136.8970 C   0  0  0  0  0  2  0  0  0  0  0  0
  188.4300  178.2330  138.9200 C   0  0  1  0  0  3  0  0  0  0  0  0
  187.0450  176.4790  135.0140 C   0  0  0  0  0  1  0  0  0  0  0  0
  186.5290  178.1810  136.7330 C   0  0  0  0  0  2  0  0  0  0  0  0
  188.9060  177.4150  143.9330 C   0  0  0  0  0  0  0  0  0  0  0  0
  188.7970  176.2270  143.3270 C   0  0  0  0  0  3  0  0  0  0  0  0
  191.4610  177.0460  144.1900 C   0  0  1  0  0  3  0  0  0  0  0  0
  189.9790  175.3960  143.0450 C   0  0  0  0  0  3  0  0  0  0  0  0
  190.3650  179.0800  144.7910 O   0  0  0  0  0  0  0  0  0  0  0  0
  190.2400  177.9160  144.3230 C   0  0  0  0  0  0  0  0  0  0  0  0
  191.9470  176.7330  145.4450 F   0  0  0  0  0  0  0  0  0  0  0  0
  191.2020  175.7740  143.4250 C   0  0  0  0  0  3  0  0  0  0  0  0
  1 21  1  6  0  0  0
  1 10  1  0  0  0  0
  3  9  2  0  0  0  0
  3  5  1  0  0  0  0
  4  8  1  0  0  0  0
  5 11  2  0  0  0  0
  7  4  2  0  0  0  0
  8  2  1  6  0  0  0
  8  6  1  0  0  0  0
  9  7  1  0  0  0  0
 10  6  1  0  0  0  0
 11  4  1  0  0  0  0
 11  1  1  0  0  0  0
 12 15  2  0  0  0  0
 13 18  1  0  0  0  0
 14 19  1  6  0  0  0
 14 20  1  0  0  0  0
 14 17  1  0  0  0  0
 15  3  1  0  0  0  0
 17 13  1  0  0  0  0
 18 15  1  0  0  0  0
 18 16  1  1  0  0  0
 20 12  1  0  0  0  0
 21 26  1  0  0  0  0
 22 21  2  0  0  0  0
 23 26  1  0  0  0  0
 23 27  1  1  0  0  0
 24 22  1  0  0  0  0
 24 28  2  0  0  0  0
 26 25  2  0  0  0  0
 28 23  1  0  0  0  0
M  END
>  <MODEL>
5

>  <REMARK>
 VINA RESULT:      -9.3      2.919      4.795
  Name = 
  2 active torsions:
  status: ('A' for Active; 'I' for Inactive)
    1  A    between atoms: C_1  and  C_2
    2  A    between atoms: C_10  and  C_13
                            x       y       z     vdW  Elec       q    Type
                         _______ _______ _______ _____ _____    ______ ____

>  <TORSDO>
F 2

$$$$
=
 OpenBabel11052413253D

 28 31  0  0  1  0  0  0  0  0999 V2000
  185.4040  178.9880  145.1390 C   0  0  2  0  0  3  0  0  0  0  0  0
  181.7870  179.1200  142.7980 C   0  0  0  0  0  1  0  0  0  0  0  0
  186.7020  178.4280  141.5870 C   0  0  0  0  0  0  0  0  0  0  0  0
  184.2170  178.4860  142.9330 C   0  0  0  0  0  0  0  0  0  0  0  0
  186.6400  178.6740  142.9640 C   0  0  0  0  0  3  0  0  0  0  0  0
  182.9200  179.1660  144.9910 C   0  0  0  0  0  2  0  0  0  0  0  0
  184.2830  178.1970  141.5620 C   0  0  0  0  0  3  0  0  0  0  0  0
  182.8750  178.4670  143.6370 C   0  0  1  0  0  3  0  0  0  0  0  0
  185.5090  178.1700  140.8970 C   0  0  0  0  0  3  0  0  0  0  0  0
  184.0790  178.6280  145.8120 C   0  0  0  0  0  2  0  0  0  0  0  0
  185.4190  178.6760  143.6550 C   0  0  0  0  0  0  0  0  0  0  0  0
  188.0190  178.4460  139.5410 C   0  0  0  0  0  3  0  0  0  0  0  0
  189.8650  176.7800  141.3840 C   0  0  0  0  0  2  0  0  0  0  0  0
  189.8160  176.8770  138.8450 C   0  0  2  0  0  3  0  0  0  0  0  0
  188.0110  178.3870  140.8810 C   0  0  0  0  0  0  0  0  0  0  0  0
  189.2350  178.4630  142.9740 O   0  0  0  0  0  1  0  0  0  0  0  0
  190.6810  176.7320  140.0950 C   0  0  0  0  0  2  0  0  0  0  0  0
  189.3240  178.1830  141.6100 C   0  0  1  0  0  3  0  0  0  0  0  0
  190.6590  176.5670  137.6280 C   0  0  0  0  0  1  0  0  0  0  0  0
  189.2590  178.2930  138.7150 C   0  0  0  0  0  2  0  0  0  0  0  0
  186.5590  178.3690  145.8810 C   0  0  0  0  0  0  0  0  0  0  0  0
  187.3430  177.4640  145.2830 C   0  0  0  0  0  3  0  0  0  0  0  0
  187.9480  178.1280  148.0590 C   0  0  1  0  0  3  0  0  0  0  0  0
  188.5040  176.8780  145.9730 C   0  0  0  0  0  3  0  0  0  0  0  0
  186.2000  179.7320  147.7910 O   0  0  0  0  0  0  0  0  0  0  0  0
  186.8630  178.8010  147.2610 C   0  0  0  0  0  0  0  0  0  0  0  0
  187.3850  177.4320  149.1110 F   0  0  0  0  0  0  0  0  0  0  0  0
  188.7920  177.1900  147.2380 C   0  0  0  0  0  3  0  0  0  0  0  0
  1 10  1  0  0  0  0
  1 21  1  1  0  0  0
  3  5  1  0  0  0  0
  4  8  1  0  0  0  0
  4 11  1  0  0  0  0
  5 11  2  0  0  0  0
  6 10  1  0  0  0  0
  7  4  2  0  0  0  0
  8  2  1  6  0  0  0
  8  6  1  0  0  0  0
  9  7  1  0  0  0  0
  9  3  2  0  0  0  0
 11  1  1  0  0  0  0
 12 15  2  0  0  0  0
 13 18  1  0  0  0  0
 14 19  1  6  0  0  0
 14 17  1  0  0  0  0
 15  3  1  0  0  0  0
 15 18  1  0  0  0  0
 17 13  1  0  0  0  0
 18 16  1  1  0  0  0
 20 14  1  0  0  0  0
 20 12  1  0  0  0  0
 21 26  1  0  0  0  0
 22 21  2  0  0  0  0
 22 24  1  0  0  0  0
 23 27  1  1  0  0  0
 24 28  2  0  0  0  0
 26 25  2  0  0  0  0
 26 23  1  0  0  0  0
 28 23  1  0  0  0  0
M  END
>  <MODEL>
6

>  <REMARK>
 VINA RESULT:      -9.2      2.583      6.187
  Name = 
  2 active torsions:
  status: ('A' for Active; 'I' for Inactive)
    1  A    between atoms: C_1  and  C_2
    2  A    between atoms: C_10  and  C_13
                            x       y       z     vdW  Elec       q    Type
                         _______ _______ _______ _____ _____    ______ ____

>  <TORSDO>
F 2

$$$$
=
 OpenBabel11052413253D

 28 31  0  0  1  0  0  0  0  0999 V2000
  188.7900  177.8460  145.8820 C   0  0  2  0  0  3  0  0  0  0  0  0
  184.5840  178.7700  145.6950 C   0  0  0  0  0  1  0  0  0  0  0  0
  188.1530  178.0190  142.1170 C   0  0  0  0  0  0  0  0  0  0  0  0
  186.6410  177.9480  144.5050 C   0  0  0  0  0  0  0  0  0  0  0  0
  188.7870  177.9480  143.3640 C   0  0  0  0  0  3  0  0  0  0  0  0
  186.6010  178.2320  147.0140 C   0  0  0  0  0  2  0  0  0  0  0  0
  186.0060  177.9750  143.2550 C   0  0  0  0  0  3  0  0  0  0  0  0
  185.8050  177.8660  145.7660 C   0  0  1  0  0  3  0  0  0  0  0  0
  186.7520  178.0120  142.0760 C   0  0  0  0  0  3  0  0  0  0  0  0
  187.8960  177.4380  147.0530 C   0  0  0  0  0  2  0  0  0  0  0  0
  188.0540  177.8810  144.5570 C   0  0  0  0  0  0  0  0  0  0  0  0
  188.3080  178.2530  139.7010 C   0  0  0  0  0  3  0  0  0  0  0  0
  190.7110  176.3780  140.2400 C   0  0  0  0  0  2  0  0  0  0  0  0
  189.4400  176.7570  138.0720 C   0  0  2  0  0  3  0  0  0  0  0  0
  188.9490  178.0460  140.8600 C   0  0  0  0  0  0  0  0  0  0  0  0
  191.0380  177.8800  142.0830 O   0  0  0  0  0  1  0  0  0  0  0  0
  190.7940  176.4670  138.7190 C   0  0  0  0  0  2  0  0  0  0  0  0
  190.4350  177.7520  140.8310 C   0  0  1  0  0  3  0  0  0  0  0  0
  189.5660  176.5770  136.5740 C   0  0  0  0  0  1  0  0  0  0  0  0
  188.9790  178.1830  138.3630 C   0  0  0  0  0  2  0  0  0  0  0  0
  190.0310  176.9920  145.8430 C   0  0  0  0  0  0  0  0  0  0  0  0
  190.4070  176.3940  144.7060 C   0  0  0  0  0  3  0  0  0  0  0  0
  192.0550  175.9300  147.0690 C   0  0  1  0  0  3  0  0  0  0  0  0
  191.6380  175.5900  144.6320 C   0  0  0  0  0  3  0  0  0  0  0  0
  190.5830  177.5050  148.0950 O   0  0  0  0  0  0  0  0  0  0  0  0
  190.8680  176.8560  147.0530 C   0  0  0  0  0  0  0  0  0  0  0  0
  191.8110  174.8780  147.9300 F   0  0  0  0  0  0  0  0  0  0  0  0
  192.4030  175.3880  145.7070 C   0  0  0  0  0  3  0  0  0  0  0  0
  1 21  1  6  0  0  0
  1 10  1  0  0  0  0
  3  5  1  0  0  0  0
  4 11  1  0  0  0  0
  4  8  1  0  0  0  0
  5 11  2  0  0  0  0
  6 10  1  0  0  0  0
  7  4  2  0  0  0  0
  8  2  1  6  0  0  0
  8  6  1  0  0  0  0
  9  3  2  0  0  0  0
  9  7  1  0  0  0  0
 11  1  1  0  0  0  0
 12 15  2  0  0  0  0
 13 18  1  0  0  0  0
 14 19  1  6  0  0  0
 14 20  1  0  0  0  0
 14 17  1  0  0  0  0
 15  3  1  0  0  0  0
 17 13  1  0  0  0  0
 18 15  1  0  0  0  0
 18 16  1  1  0  0  0
 20 12  1  0  0  0  0
 21 26  1  0  0  0  0
 22 21  2  0  0  0  0
 23 27  1  1  0  0  0
 24 22  1  0  0  0  0
 24 28  2  0  0  0  0
 26 23  1  0  0  0  0
 26 25  2  0  0  0  0
 28 23  1  0  0  0  0
M  END
>  <MODEL>
7

>  <REMARK>
 VINA RESULT:      -9.2      2.618      5.254
  Name = 
  2 active torsions:
  status: ('A' for Active; 'I' for Inactive)
    1  A    between atoms: C_1  and  C_2
    2  A    between atoms: C_10  and  C_13
                            x       y       z     vdW  Elec       q    Type
                         _______ _______ _______ _____ _____    ______ ____

>  <TORSDO>
F 2

$$$$
=
 OpenBabel11052413253D

 28 31  0  0  1  0  0  0  0  0999 V2000
  187.5730  177.1740  144.4770 C   0  0  2  0  0  3  0  0  0  0  0  0
  191.6810  177.1280  145.7820 C   0  0  0  0  0  1  0  0  0  0  0  0
  189.4870  177.1520  141.1690 C   0  0  0  0  0  0  0  0  0  0  0  0
  190.0410  177.5180  143.9160 C   0  0  0  0  0  0  0  0  0  0  0  0
  188.4620  177.0870  142.1200 C   0  0  0  0  0  3  0  0  0  0  0  0
  189.2700  177.2370  146.3050 C   0  0  0  0  0  2  0  0  0  0  0  0
  191.0600  177.6280  142.9590 C   0  0  0  0  0  3  0  0  0  0  0  0
  190.3600  177.7640  145.3770 C   0  0  1  0  0  3  0  0  0  0  0  0
  190.7880  177.4450  141.6030 C   0  0  0  0  0  3  0  0  0  0  0  0
  187.9140  177.7500  145.8520 C   0  0  0  0  0  2  0  0  0  0  0  0
  188.7120  177.2960  143.4840 C   0  0  0  0  0  0  0  0  0  0  0  0
  189.8390  176.0030  139.0530 C   0  0  0  0  0  3  0  0  0  0  0  0
  189.0560  178.8210  138.0390 C   0  0  0  0  0  2  0  0  0  0  0  0
  190.3220  176.9840  136.8220 C   0  0  2  0  0  3  0  0  0  0  0  0
  189.1940  176.9700  139.7210 C   0  0  0  0  0  0  0  0  0  0  0  0
  187.4230  178.6280  139.7880 O   0  0  0  0  0  1  0  0  0  0  0  0
  189.3240  178.1350  136.7030 C   0  0  0  0  0  2  0  0  0  0  0  0
  188.2690  177.8950  138.9550 C   0  0  1  0  0  3  0  0  0  0  0  0
  190.7180  176.5340  135.4330 C   0  0  0  0  0  1  0  0  0  0  0  0
  189.7190  175.8000  137.5730 C   0  0  0  0  0  2  0  0  0  0  0  0
  186.2820  177.7570  143.9660 C   0  0  0  0  0  0  0  0  0  0  0  0
  186.0660  177.8780  142.6500 C   0  0  0  0  0  3  0  0  0  0  0  0
  183.9660  178.8260  144.4400 C   0  0  1  0  0  3  0  0  0  0  0  0
  184.7960  178.4040  142.1250 C   0  0  0  0  0  3  0  0  0  0  0  0
  185.3730  177.9350  146.1510 O   0  0  0  0  0  0  0  0  0  0  0  0
  185.2230  178.1490  144.9180 C   0  0  0  0  0  0  0  0  0  0  0  0
  183.9370  180.1280  144.9010 F   0  0  0  0  0  0  0  0  0  0  0  0
  183.8270  178.8250  142.9410 C   0  0  0  0  0  3  0  0  0  0  0  0
  1 21  1  6  0  0  0
  1 10  1  0  0  0  0
  3  9  2  0  0  0  0
  3  5  1  0  0  0  0
  4  8  1  0  0  0  0
  5 11  2  0  0  0  0
  7  4  2  0  0  0  0
  8  2  1  1  0  0  0
  8  6  1  0  0  0  0
  9  7  1  0  0  0  0
 10  6  1  0  0  0  0
 11  4  1  0  0  0  0
 11  1  1  0  0  0  0
 12 15  2  0  0  0  0
 13 18  1  0  0  0  0
 14 19  1  6  0  0  0
 14 20  1  0  0  0  0
 15  3  1  0  0  0  0
 17 14  1  0  0  0  0
 17 13  1  0  0  0  0
 18 15  1  0  0  0  0
 18 16  1  1  0  0  0
 20 12  1  0  0  0  0
 21 26  1  0  0  0  0
 22 21  2  0  0  0  0
 23 27  1  6  0  0  0
 23 26  1  0  0  0  0
 24 22  1  0  0  0  0
 24 28  2  0  0  0  0
 26 25  2  0  0  0  0
 28 23  1  0  0  0  0
M  END
>  <MODEL>
8

>  <REMARK>
 VINA RESULT:      -9.0      3.056      6.326
  Name = 
  2 active torsions:
  status: ('A' for Active; 'I' for Inactive)
    1  A    between atoms: C_1  and  C_2
    2  A    between atoms: C_10  and  C_13
                            x       y       z     vdW  Elec       q    Type
                         _______ _______ _______ _____ _____    ______ ____

>  <TORSDO>
F 2

$$$$
=
 OpenBabel11052413253D

 28 31  0  0  1  0  0  0  0  0999 V2000
  190.2160  177.7530  143.1670 C   0  0  2  0  0  3  0  0  0  0  0  0
  190.5410  176.8660  147.3730 C   0  0  0  0  0  1  0  0  0  0  0  0
  186.6440  178.3190  144.4060 C   0  0  0  0  0  0  0  0  0  0  0  0
  189.0530  177.2000  145.3740 C   0  0  0  0  0  0  0  0  0  0  0  0
  187.7940  178.2950  143.6070 C   0  0  0  0  0  3  0  0  0  0  0  0
  191.5570  176.9850  145.1260 C   0  0  0  0  0  2  0  0  0  0  0  0
  187.8900  177.1850  146.1580 C   0  0  0  0  0  3  0  0  0  0  0  0
  190.3180  176.5530  145.9020 C   0  0  1  0  0  3  0  0  0  0  0  0
  186.7010  177.7390  145.6820 C   0  0  0  0  0  3  0  0  0  0  0  0
  191.3230  176.8070  143.6360 C   0  0  0  0  0  2  0  0  0  0  0  0
  188.9890  177.7160  144.0580 C   0  0  0  0  0  0  0  0  0  0  0  0
  184.3550  179.0700  144.7490 C   0  0  0  0  0  3  0  0  0  0  0  0
  184.2240  178.1970  141.7820 C   0  0  0  0  0  2  0  0  0  0  0  0
  182.3240  178.4800  143.4460 C   0  0  2  0  0  3  0  0  0  0  0  0
  185.3740  178.8990  143.8930 C   0  0  0  0  0  0  0  0  0  0  0  0
  186.3480  179.3100  141.7100 O   0  0  0  0  0  1  0  0  0  0  0  0
  182.7700  178.6110  141.9900 C   0  0  0  0  0  2  0  0  0  0  0  0
  185.1550  179.2120  142.4260 C   0  0  1  0  0  3  0  0  0  0  0  0
  180.8230  178.6630  143.5150 C   0  0  0  0  0  1  0  0  0  0  0  0
  182.9930  179.5300  144.3290 C   0  0  0  0  0  2  0  0  0  0  0  0
  189.8960  177.5120  141.7150 C   0  0  0  0  0  0  0  0  0  0  0  0
  188.6240  177.4190  141.3080 C   0  0  0  0  0  3  0  0  0  0  0  0
  190.7020  177.0940  139.2860 C   0  0  1  0  0  3  0  0  0  0  0  0
  188.2840  177.2280  139.8880 C   0  0  0  0  0  3  0  0  0  0  0  0
  192.1800  177.6310  141.0820 O   0  0  0  0  0  0  0  0  0  0  0  0
  190.9880  177.4320  140.7240 C   0  0  0  0  0  0  0  0  0  0  0  0
  191.2370  175.8550  138.9860 F   0  0  0  0  0  0  0  0  0  0  0  0
  189.2320  177.0930  138.9580 C   0  0  0  0  0  3  0  0  0  0  0  0
  1 21  1  6  0  0  0
  1 10  1  0  0  0  0
  1 11  1  0  0  0  0
  3  9  1  0  0  0  0
  4  8  1  0  0  0  0
  4  7  1  0  0  0  0
  5 11  1  0  0  0  0
  5  3  2  0  0  0  0
  6  8  1  0  0  0  0
  8  2  1  1  0  0  0
  9  7  2  0  0  0  0
 10  6  1  0  0  0  0
 11  4  2  0  0  0  0
 13 17  1  0  0  0  0
 13 18  1  0  0  0  0
 14 19  1  6  0  0  0
 14 20  1  0  0  0  0
 15  3  1  0  0  0  0
 15 12  2  0  0  0  0
 17 14  1  0  0  0  0
 18 16  1  6  0  0  0
 18 15  1  0  0  0  0
 20 12  1  0  0  0  0
 22 21  2  0  0  0  0
 23 27  1  1  0  0  0
 23 26  1  0  0  0  0
 24 22  1  0  0  0  0
 26 25  2  0  0  0  0
 26 21  1  0  0  0  0
 28 23  1  0  0  0  0
 28 24  2  0  0  0  0
M  END
>  <MODEL>
9

>  <REMARK>
 VINA RESULT:      -8.9      1.526      2.271
  Name = 
  2 active torsions:
  status: ('A' for Active; 'I' for Inactive)
    1  A    between atoms: C_1  and  C_2
    2  A    between atoms: C_10  and  C_13
                            x       y       z     vdW  Elec       q    Type
                         _______ _______ _______ _____ _____    ______ ____

>  <TORSDO>
F 2

$$$$
