=
 OpenBabel11052413003D

 31 35  0  0  1  0  0  0  0  0999 V2000
  189.0270  176.3670  138.4290 C   0  0  2  0  0  3  0  0  0  0  0  0
  190.5260  176.0260  138.6430 C   0  0  2  0  0  3  0  0  0  0  0  0
  192.8600  176.9570  138.5170 C   0  0  0  0  0  2  0  0  0  0  0  0
  191.3740  177.2600  138.3370 C   0  0  0  0  0  2  0  0  0  0  0  0
  190.3170  173.8000  137.7170 O   0  0  0  0  0  0  0  0  0  0  0  0
  193.2800  175.7820  137.6790 C   0  0  0  0  0  0  0  0  0  0  0  0
  194.5840  175.7130  137.2100 O   0  0  0  0  0  1  0  0  0  0  0  0
  191.0430  174.8150  137.8900 C   0  0  0  0  0  0  0  0  0  0  0  0
  192.4370  174.7800  137.4200 C   0  0  0  0  0  3  0  0  0  0  0  0
  186.2090  176.2000  136.6110 C   0  0  0  0  0  2  0  0  0  0  0  0
  188.4960  175.9920  137.1050 N   0  0  0  0  0  0  0  0  0  0  0  0
  186.8920  177.1140  135.8060 O   0  0  0  0  0  0  0  0  0  0  0  0
  187.2350  175.2890  137.2190 C   0  0  0  0  0  2  0  0  0  0  0  0
  188.1880  177.2000  136.3440 C   0  0  2  0  0  3  0  0  0  0  0  0
  189.6620  176.0090  134.7310 C   0  0  0  0  0  1  0  0  0  0  0  0
  189.1960  177.3660  135.2210 C   0  0  0  0  0  2  0  0  0  0  0  0
  187.9440  177.8540  140.1560 C   0  0  2  0  0  0  0  0  0  0  0  0
  187.1110  178.9700  140.1960 O   0  0  0  0  0  1  0  0  0  0  0  0
  188.6280  177.7950  138.8080 C   0  0  1  0  0  3  0  0  0  0  0  0
  188.8800  177.8880  141.3610 C   0  0  2  0  0  3  0  0  0  0  0  0
  189.4070  178.3110  139.9960 C   0  0  2  0  0  3  0  0  0  0  0  0
  188.5130  175.9950  142.8540 C   0  0  0  0  0  1  0  0  0  0  0  0
  189.3770  176.5690  141.8320 N   0  0  0  0  0  0  0  0  0  0  0  0
  190.7600  176.5360  142.3000 C   0  0  0  0  0  2  0  0  0  0  0  0
  191.7200  176.0860  145.9360 C   0  0  0  0  0  0  0  0  0  0  0  0
  190.0280  177.8130  145.7910 C   0  0  0  0  0  3  0  0  0  0  0  0
  192.5590  175.3250  146.6780 F   0  0  0  0  0  0  0  0  0  0  0  0
  191.6760  175.9270  144.5480 C   0  0  0  0  0  3  0  0  0  0  0  0
  189.9850  177.6550  144.4030 C   0  0  0  0  0  3  0  0  0  0  0  0
  190.8110  176.7130  143.7790 C   0  0  0  0  0  0  0  0  0  0  0  0
  190.8950  177.0290  146.5580 C   0  0  0  0  0  3  0  0  0  0  0  0
  1 11  1  6  0  0  0
  2  1  1  6  0  0  0
  4  3  1  0  0  0  0
  4  2  1  0  0  0  0
  5  8  2  0  0  0  0
  6  3  1  0  0  0  0
  7  6  1  0  0  0  0
  8  2  1  0  0  0  0
  9  6  2  0  0  0  0
  9  8  1  0  0  0  0
 10 13  1  0  0  0  0
 11 13  1  0  0  0  0
 12 14  1  0  0  0  0
 12 10  1  0  0  0  0
 14 16  1  6  0  0  0
 14 11  1  0  0  0  0
 15 16  1  0  0  0  0
 17 18  1  1  0  0  0
 17 20  1  0  0  0  0
 19  1  1  1  0  0  0
 19 21  1  0  0  0  0
 19 17  1  0  0  0  0
 20 23  1  6  0  0  0
 21 17  1  0  0  0  0
 21 20  1  0  0  0  0
 23 24  1  0  0  0  0
 23 22  1  0  0  0  0
 24 30  1  0  0  0  0
 25 31  1  0  0  0  0
 25 27  1  0  0  0  0
 26 31  2  0  0  0  0
 28 25  2  0  0  0  0
 29 26  1  0  0  0  0
 30 29  2  0  0  0  0
 30 28  1  0  0  0  0
M  END
>  <MODEL>
1

>  <REMARK>
 VINA RESULT:      -6.8      0.000      0.000
  Name = 
  7 active torsions:
  status: ('A' for Active; 'I' for Inactive)
    1  A    between atoms: C_3  and  N_9
    2  A    between atoms: C_3  and  C_22
    3  A    between atoms: C_4  and  C_5
    4  A    between atoms: C_4  and  N_12
    5  A    between atoms: C_4  and  C_21
    6  A    between atoms: N_9  and  C_23
    7  A    between atoms: C_27  and  C_28
                            x       y       z     vdW  Elec       q    Type
                         _______ _______ _______ _____ _____    ______ ____

>  <TORSDO>
F 7

$$$$
=
 OpenBabel11052413003D

 31 35  0  0  1  0  0  0  0  0999 V2000
  181.3840  178.1900  140.2200 C   0  0  2  0  0  3  0  0  0  0  0  0
  182.0230  178.8920  141.4480 C   0  0  2  0  0  3  0  0  0  0  0  0
  184.1240  179.0700  142.8210 C   0  0  0  0  0  2  0  0  0  0  0  0
  183.4670  178.4160  141.6070 C   0  0  0  0  0  2  0  0  0  0  0  0
  180.0040  178.7610  142.7750 O   0  0  0  0  0  0  0  0  0  0  0  0
  183.3240  178.8250  144.0700 C   0  0  0  0  0  0  0  0  0  0  0  0
  183.9770  178.7660  145.2930 O   0  0  0  0  0  1  0  0  0  0  0  0
  181.2630  178.7610  142.7550 C   0  0  0  0  0  0  0  0  0  0  0  0
  181.9960  178.7120  144.0300 C   0  0  0  0  0  3  0  0  0  0  0  0
  178.9400  180.4930  140.2770 C   0  0  0  0  0  2  0  0  0  0  0  0
  180.5740  179.0750  139.3620 N   0  0  0  0  0  0  0  0  0  0  0  0
  179.9450  181.3060  139.7460 O   0  0  0  0  0  0  0  0  0  0  0  0
  179.1880  179.0980  139.7820 C   0  0  0  0  0  2  0  0  0  0  0  0
  181.0370  180.4530  139.5060 C   0  0  2  0  0  3  0  0  0  0  0  0
  181.1770  180.1620  137.0390 C   0  0  0  0  0  1  0  0  0  0  0  0
  181.7540  180.8850  138.2400 C   0  0  0  0  0  2  0  0  0  0  0  0
  180.0190  176.2800  139.2960 C   0  0  2  0  0  0  0  0  0  0  0  0
  178.9310  175.4970  139.6750 O   0  0  0  0  0  1  0  0  0  0  0  0
  180.6460  176.8850  140.5320 C   0  0  1  0  0  3  0  0  0  0  0  0
  180.9580  175.4420  138.4320 C   0  0  2  0  0  3  0  0  0  0  0  0
  181.3100  175.6870  139.8940 C   0  0  2  0  0  3  0  0  0  0  0  0
  181.0470  176.5490  136.2610 C   0  0  0  0  0  1  0  0  0  0  0  0
  181.7920  176.1980  137.4620 N   0  0  0  0  0  0  0  0  0  0  0  0
  183.0540  175.5720  137.0770 C   0  0  0  0  0  2  0  0  0  0  0  0
  185.0410  178.5410  138.3340 C   0  0  0  0  0  0  0  0  0  0  0  0
  186.5670  176.9730  137.2940 C   0  0  0  0  0  3  0  0  0  0  0  0
  184.8190  179.7140  138.9730 F   0  0  0  0  0  0  0  0  0  0  0  0
  183.9710  177.6880  138.0480 C   0  0  0  0  0  3  0  0  0  0  0  0
  185.4960  176.1200  137.0100 C   0  0  0  0  0  3  0  0  0  0  0  0
  184.1970  176.4750  137.3880 C   0  0  0  0  0  0  0  0  0  0  0  0
  186.3390  178.1830  137.9560 C   0  0  0  0  0  3  0  0  0  0  0  0
  1 11  1  1  0  0  0
  2  1  1  6  0  0  0
  2  4  1  0  0  0  0
  2  8  1  0  0  0  0
  3  6  1  0  0  0  0
  4  3  1  0  0  0  0
  6  7  1  0  0  0  0
  8  5  2  0  0  0  0
  8  9  1  0  0  0  0
  9  6  2  0  0  0  0
 11 14  1  0  0  0  0
 11 13  1  0  0  0  0
 12 10  1  0  0  0  0
 13 10  1  0  0  0  0
 14 16  1  6  0  0  0
 14 12  1  0  0  0  0
 15 16  1  0  0  0  0
 17 18  1  1  0  0  0
 17 21  1  0  0  0  0
 17 19  1  0  0  0  0
 19  1  1  6  0  0  0
 20 23  1  6  0  0  0
 20 17  1  0  0  0  0
 20 21  1  0  0  0  0
 21 19  1  0  0  0  0
 22 23  1  0  0  0  0
 24 30  1  0  0  0  0
 24 23  1  0  0  0  0
 25 27  1  0  0  0  0
 26 31  1  0  0  0  0
 28 25  1  0  0  0  0
 29 26  2  0  0  0  0
 29 30  1  0  0  0  0
 30 28  2  0  0  0  0
 31 25  2  0  0  0  0
M  END
>  <MODEL>
2

>  <REMARK>
 VINA RESULT:      -6.7      6.686      9.864
  Name = 
  7 active torsions:
  status: ('A' for Active; 'I' for Inactive)
    1  A    between atoms: C_3  and  N_9
    2  A    between atoms: C_3  and  C_22
    3  A    between atoms: C_4  and  C_5
    4  A    between atoms: C_4  and  N_12
    5  A    between atoms: C_4  and  C_21
    6  A    between atoms: N_9  and  C_23
    7  A    between atoms: C_27  and  C_28
                            x       y       z     vdW  Elec       q    Type
                         _______ _______ _______ _____ _____    ______ ____

>  <TORSDO>
F 7

$$$$
=
 OpenBabel11052413003D

 31 35  0  0  1  0  0  0  0  0999 V2000
  189.5870  176.9220  138.2650 C   0  0  2  0  0  3  0  0  0  0  0  0
  189.6680  177.6560  139.6300 C   0  0  2  0  0  3  0  0  0  0  0  0
  190.5660  177.4950  141.9740 C   0  0  0  0  0  2  0  0  0  0  0  0
  190.4820  176.8130  140.6100 C   0  0  0  0  0  2  0  0  0  0  0  0
  187.3870  178.4540  139.5160 O   0  0  0  0  0  0  0  0  0  0  0  0
  189.1970  177.7980  142.5150 C   0  0  0  0  0  0  0  0  0  0  0  0
  189.0000  177.8240  143.8890 O   0  0  0  0  0  1  0  0  0  0  0  0
  188.3410  178.0650  140.2400 C   0  0  0  0  0  0  0  0  0  0  0  0
  188.1800  178.0890  141.7020 C   0  0  0  0  0  3  0  0  0  0  0  0
  190.4010  174.3690  136.2410 C   0  0  0  0  0  2  0  0  0  0  0  0
  190.4280  175.7150  138.1670 N   0  0  0  0  0  0  0  0  0  0  0  0
  191.6710  174.9470  136.3260 O   0  0  0  0  0  0  0  0  0  0  0  0
  189.7120  174.6170  137.5510 C   0  0  0  0  0  2  0  0  0  0  0  0
  191.5560  175.9770  137.2760 C   0  0  2  0  0  3  0  0  0  0  0  0
  193.7640  174.9240  137.7300 C   0  0  0  0  0  1  0  0  0  0  0  0
  192.8360  176.0670  138.0880 C   0  0  0  0  0  2  0  0  0  0  0  0
  188.8600  177.3880  135.8940 C   0  0  2  0  0  0  0  0  0  0  0  0
  189.4290  177.7990  134.6900 O   0  0  0  0  0  1  0  0  0  0  0  0
  189.7520  177.8200  137.0360 C   0  0  1  0  0  3  0  0  0  0  0  0
  187.4210  177.8940  135.9620 C   0  0  2  0  0  3  0  0  0  0  0  0
  188.5070  178.6250  136.7430 C   0  0  2  0  0  3  0  0  0  0  0  0
  186.7430  175.6630  136.6760 C   0  0  0  0  0  1  0  0  0  0  0  0
  186.4930  177.0930  136.8010 N   0  0  0  0  0  0  0  0  0  0  0  0
  185.0690  177.3490  136.6040 C   0  0  0  0  0  2  0  0  0  0  0  0
  182.8420  176.4970  139.5460 C   0  0  0  0  0  0  0  0  0  0  0  0
  183.9080  178.6290  139.9750 C   0  0  0  0  0  3  0  0  0  0  0  0
  182.0040  175.5050  139.9320 F   0  0  0  0  0  0  0  0  0  0  0  0
  183.5040  176.4140  138.3180 C   0  0  0  0  0  3  0  0  0  0  0  0
  184.5710  178.5450  138.7470 C   0  0  0  0  0  3  0  0  0  0  0  0
  184.3710  177.4360  137.9180 C   0  0  0  0  0  0  0  0  0  0  0  0
  183.0440  177.6050  140.3750 C   0  0  0  0  0  3  0  0  0  0  0  0
  1 11  1  1  0  0  0
  2  1  1  6  0  0  0
  2  8  1  0  0  0  0
  2  4  1  0  0  0  0
  3  6  1  0  0  0  0
  4  3  1  0  0  0  0
  5  8  2  0  0  0  0
  6  7  1  0  0  0  0
  8  9  1  0  0  0  0
  9  6  2  0  0  0  0
 10 12  1  0  0  0  0
 10 13  1  0  0  0  0
 12 14  1  0  0  0  0
 13 11  1  0  0  0  0
 14 16  1  1  0  0  0
 14 11  1  0  0  0  0
 15 16  1  0  0  0  0
 17 18  1  6  0  0  0
 17 20  1  0  0  0  0
 17 21  1  0  0  0  0
 17 19  1  0  0  0  0
 19  1  1  1  0  0  0
 20 21  1  0  0  0  0
 20 23  1  1  0  0  0
 21 19  1  0  0  0  0
 22 23  1  0  0  0  0
 24 23  1  0  0  0  0
 24 30  1  0  0  0  0
 25 27  1  0  0  0  0
 25 31  1  0  0  0  0
 26 31  2  0  0  0  0
 28 25  2  0  0  0  0
 29 26  1  0  0  0  0
 30 28  1  0  0  0  0
 30 29  2  0  0  0  0
M  END
>  <MODEL>
3

>  <REMARK>
 VINA RESULT:      -6.6      3.200      6.523
  Name = 
  7 active torsions:
  status: ('A' for Active; 'I' for Inactive)
    1  A    between atoms: C_3  and  N_9
    2  A    between atoms: C_3  and  C_22
    3  A    between atoms: C_4  and  C_5
    4  A    between atoms: C_4  and  N_12
    5  A    between atoms: C_4  and  C_21
    6  A    between atoms: N_9  and  C_23
    7  A    between atoms: C_27  and  C_28
                            x       y       z     vdW  Elec       q    Type
                         _______ _______ _______ _____ _____    ______ ____

>  <TORSDO>
F 7

$$$$
=
 OpenBabel11052413003D

 31 35  0  0  1  0  0  0  0  0999 V2000
  180.7560  178.4350  139.8640 C   0  0  2  0  0  3  0  0  0  0  0  0
  182.1620  179.0730  140.0190 C   0  0  2  0  0  3  0  0  0  0  0  0
  184.4340  179.2680  138.9560 C   0  0  0  0  0  2  0  0  0  0  0  0
  183.0330  178.6740  138.8280 C   0  0  0  0  0  2  0  0  0  0  0  0
  182.2370  178.7140  142.4100 O   0  0  0  0  0  0  0  0  0  0  0  0
  185.0730  178.8750  140.2580 C   0  0  0  0  0  0  0  0  0  0  0  0
  186.4550  178.7580  140.3290 O   0  0  0  0  0  1  0  0  0  0  0  0
  182.8750  178.7910  141.3280 C   0  0  0  0  0  0  0  0  0  0  0  0
  184.3420  178.6850  141.3580 C   0  0  0  0  0  3  0  0  0  0  0  0
  179.3340  180.6340  141.9650 C   0  0  0  0  0  2  0  0  0  0  0  0
  179.6340  179.3820  140.0000 N   0  0  0  0  0  0  0  0  0  0  0  0
  179.6470  181.5340  140.9440 O   0  0  0  0  0  0  0  0  0  0  0  0
  179.0380  179.3120  141.3180 C   0  0  0  0  0  2  0  0  0  0  0  0
  180.1340  180.7500  139.8820 C   0  0  2  0  0  3  0  0  0  0  0  0
  180.8850  181.7670  137.7400 C   0  0  0  0  0  1  0  0  0  0  0  0
  179.6830  181.3450  138.5610 C   0  0  0  0  0  2  0  0  0  0  0  0
  179.5430  176.2280  140.0320 C   0  0  2  0  0  0  0  0  0  0  0  0
  178.9310  175.4470  141.0100 O   0  0  0  0  0  1  0  0  0  0  0  0
  180.5240  177.1700  140.6950 C   0  0  1  0  0  3  0  0  0  0  0  0
  180.1380  175.3120  138.9650 C   0  0  2  0  0  3  0  0  0  0  0  0
  181.0560  175.9310  140.0120 C   0  0  2  0  0  3  0  0  0  0  0  0
  178.9900  176.3780  137.0960 C   0  0  0  0  0  1  0  0  0  0  0  0
  180.2680  175.9020  137.6070 N   0  0  0  0  0  0  0  0  0  0  0  0
  180.9010  175.0560  136.5990 C   0  0  0  0  0  2  0  0  0  0  0  0
  184.4360  174.0560  137.5200 C   0  0  0  0  0  0  0  0  0  0  0  0
  184.5010  176.2250  136.4450 C   0  0  0  0  0  3  0  0  0  0  0  0
  185.0770  173.0220  138.1150 F   0  0  0  0  0  0  0  0  0  0  0  0
  183.0470  174.0230  137.3680 C   0  0  0  0  0  3  0  0  0  0  0  0
  183.1120  176.1920  136.2920 C   0  0  0  0  0  3  0  0  0  0  0  0
  182.3830  175.0890  136.7520 C   0  0  0  0  0  0  0  0  0  0  0  0
  185.1630  175.1580  137.0580 C   0  0  0  0  0  3  0  0  0  0  0  0
  1 11  1  1  0  0  0
  2  1  1  1  0  0  0
  2  8  1  0  0  0  0
  3  6  1  0  0  0  0
  4  3  1  0  0  0  0
  4  2  1  0  0  0  0
  6  7  1  0  0  0  0
  6  9  2  0  0  0  0
  8  9  1  0  0  0  0
  8  5  2  0  0  0  0
 11 13  1  0  0  0  0
 12 10  1  0  0  0  0
 13 10  1  0  0  0  0
 14 16  1  6  0  0  0
 14 11  1  0  0  0  0
 14 12  1  0  0  0  0
 15 16  1  0  0  0  0
 17 19  1  0  0  0  0
 17 18  1  1  0  0  0
 19  1  1  6  0  0  0
 20 23  1  6  0  0  0
 20 21  1  0  0  0  0
 20 17  1  0  0  0  0
 21 17  1  0  0  0  0
 21 19  1  0  0  0  0
 22 23  1  0  0  0  0
 24 30  1  0  0  0  0
 24 23  1  0  0  0  0
 25 27  1  0  0  0  0
 26 31  1  0  0  0  0
 28 25  1  0  0  0  0
 29 26  2  0  0  0  0
 29 30  1  0  0  0  0
 30 28  2  0  0  0  0
 31 25  2  0  0  0  0
M  END
>  <MODEL>
4

>  <REMARK>
 VINA RESULT:      -6.6      6.588     10.026
  Name = 
  7 active torsions:
  status: ('A' for Active; 'I' for Inactive)
    1  A    between atoms: C_3  and  N_9
    2  A    between atoms: C_3  and  C_22
    3  A    between atoms: C_4  and  C_5
    4  A    between atoms: C_4  and  N_12
    5  A    between atoms: C_4  and  C_21
    6  A    between atoms: N_9  and  C_23
    7  A    between atoms: C_27  and  C_28
                            x       y       z     vdW  Elec       q    Type
                         _______ _______ _______ _____ _____    ______ ____

>  <TORSDO>
F 7

$$$$
=
 OpenBabel11052413003D

 31 35  0  0  1  0  0  0  0  0999 V2000
  184.5600  176.7880  137.8450 C   0  0  2  0  0  3  0  0  0  0  0  0
  185.8270  176.5260  136.9880 C   0  0  2  0  0  3  0  0  0  0  0  0
  188.3360  176.7120  136.9590 C   0  0  0  0  0  2  0  0  0  0  0  0
  187.0680  176.9360  137.7800 C   0  0  0  0  0  2  0  0  0  0  0  0
  184.7770  177.2410  134.9290 O   0  0  0  0  0  0  0  0  0  0  0  0
  188.2640  177.4310  135.6410 C   0  0  0  0  0  0  0  0  0  0  0  0
  189.4360  177.8770  135.0460 O   0  0  0  0  0  1  0  0  0  0  0  0
  185.8340  177.1560  135.6080 C   0  0  0  0  0  0  0  0  0  0  0  0
  187.1010  177.6050  135.0100 C   0  0  0  0  0  3  0  0  0  0  0  0
  182.2180  175.1810  136.0530 C   0  0  0  0  0  2  0  0  0  0  0  0
  183.6050  175.6650  137.8870 N   0  0  0  0  0  0  0  0  0  0  0  0
  183.1050  174.1100  136.1970 O   0  0  0  0  0  0  0  0  0  0  0  0
  182.3360  176.0250  137.2890 C   0  0  0  0  0  2  0  0  0  0  0  0
  184.1100  174.5640  137.0690 C   0  0  2  0  0  3  0  0  0  0  0  0
  185.9280  172.9330  137.5460 C   0  0  0  0  0  1  0  0  0  0  0  0
  184.5580  173.4260  137.9680 C   0  0  0  0  0  2  0  0  0  0  0  0
  183.1090  178.6300  138.7760 C   0  0  2  0  0  0  0  0  0  0  0  0
  182.0580  179.4430  138.3550 O   0  0  0  0  0  1  0  0  0  0  0  0
  183.8510  178.1150  137.5620 C   0  0  1  0  0  3  0  0  0  0  0  0
  183.9600  179.3990  139.7830 C   0  0  2  0  0  3  0  0  0  0  0  0
  184.4480  179.2610  138.3460 C   0  0  2  0  0  3  0  0  0  0  0  0
  183.8040  177.8160  141.6310 C   0  0  0  0  0  1  0  0  0  0  0  0
  184.7020  178.5710  140.7680 N   0  0  0  0  0  0  0  0  0  0  0  0
  185.6780  179.2780  141.5930 C   0  0  0  0  0  2  0  0  0  0  0  0
  188.9970  177.5010  141.1880 C   0  0  0  0  0  0  0  0  0  0  0  0
  188.0150  176.8320  143.2980 C   0  0  0  0  0  3  0  0  0  0  0  0
  190.0050  177.4250  140.2860 F   0  0  0  0  0  0  0  0  0  0  0  0
  187.8960  178.3240  140.9370 C   0  0  0  0  0  3  0  0  0  0  0  0
  186.9140  177.6570  143.0470 C   0  0  0  0  0  3  0  0  0  0  0  0
  186.8540  178.4060  141.8670 C   0  0  0  0  0  0  0  0  0  0  0  0
  189.0560  176.7540  142.3690 C   0  0  0  0  0  3  0  0  0  0  0  0
  1 11  1  6  0  0  0
  2  4  1  0  0  0  0
  2  1  1  1  0  0  0
  3  4  1  0  0  0  0
  5  8  2  0  0  0  0
  6  3  1  0  0  0  0
  7  6  1  0  0  0  0
  8  2  1  0  0  0  0
  9  8  1  0  0  0  0
  9  6  2  0  0  0  0
 10 12  1  0  0  0  0
 10 13  1  0  0  0  0
 12 14  1  0  0  0  0
 13 11  1  0  0  0  0
 14 11  1  0  0  0  0
 14 16  1  1  0  0  0
 15 16  1  0  0  0  0
 17 18  1  6  0  0  0
 17 20  1  0  0  0  0
 19  1  1  1  0  0  0
 19 21  1  0  0  0  0
 19 17  1  0  0  0  0
 20 23  1  1  0  0  0
 21 17  1  0  0  0  0
 21 20  1  0  0  0  0
 23 24  1  0  0  0  0
 23 22  1  0  0  0  0
 24 30  1  0  0  0  0
 25 31  1  0  0  0  0
 27 25  1  0  0  0  0
 28 25  2  0  0  0  0
 28 30  1  0  0  0  0
 29 26  1  0  0  0  0
 30 29  2  0  0  0  0
 31 26  2  0  0  0  0
M  END
>  <MODEL>
5

>  <REMARK>
 VINA RESULT:      -6.6      3.575      5.336
  Name = 
  7 active torsions:
  status: ('A' for Active; 'I' for Inactive)
    1  A    between atoms: C_3  and  N_9
    2  A    between atoms: C_3  and  C_22
    3  A    between atoms: C_4  and  C_5
    4  A    between atoms: C_4  and  N_12
    5  A    between atoms: C_4  and  C_21
    6  A    between atoms: N_9  and  C_23
    7  A    between atoms: C_27  and  C_28
                            x       y       z     vdW  Elec       q    Type
                         _______ _______ _______ _____ _____    ______ ____

>  <TORSDO>
F 7

$$$$
=
 OpenBabel11052413003D

 31 35  0  0  1  0  0  0  0  0999 V2000
  189.0280  176.2720  137.1280 C   0  0  2  0  0  3  0  0  0  0  0  0
  190.5190  176.3350  136.7050 C   0  0  2  0  0  3  0  0  0  0  0  0
  192.0710  176.3630  134.7250 C   0  0  0  0  0  2  0  0  0  0  0  0
  190.6140  176.3240  135.1790 C   0  0  0  0  0  2  0  0  0  0  0  0
  191.2520  174.8780  138.4920 O   0  0  0  0  0  0  0  0  0  0  0  0
  192.8600  175.2370  135.3320 C   0  0  0  0  0  0  0  0  0  0  0  0
  193.9450  174.7170  134.6380 O   0  0  0  0  0  1  0  0  0  0  0  0
  191.4230  175.2770  137.3100 C   0  0  0  0  0  0  0  0  0  0  0  0
  192.5680  174.7620  136.5430 C   0  0  0  0  0  3  0  0  0  0  0  0
  186.4890  174.0760  137.2130 C   0  0  0  0  0  2  0  0  0  0  0  0
  188.1860  175.4070  136.2810 N   0  0  0  0  0  0  0  0  0  0  0  0
  185.8680  175.0420  136.4170 O   0  0  0  0  0  0  0  0  0  0  0  0
  187.9560  174.1180  136.9010 C   0  0  0  0  0  2  0  0  0  0  0  0
  186.8580  176.0020  136.1430 C   0  0  2  0  0  3  0  0  0  0  0  0
  185.3530  177.2510  134.6050 C   0  0  0  0  0  1  0  0  0  0  0  0
  186.6810  176.5300  134.7310 C   0  0  0  0  0  2  0  0  0  0  0  0
  187.8810  177.7800  138.7950 C   0  0  2  0  0  0  0  0  0  0  0  0
  186.8270  178.6910  138.8250 O   0  0  0  0  0  1  0  0  0  0  0  0
  188.3660  177.6320  137.3700 C   0  0  1  0  0  3  0  0  0  0  0  0
  188.9420  178.2140  139.8030 C   0  0  2  0  0  3  0  0  0  0  0  0
  189.1630  178.4940  138.3220 C   0  0  2  0  0  3  0  0  0  0  0  0
  189.1030  176.3790  141.4000 C   0  0  0  0  0  1  0  0  0  0  0  0
  189.7910  177.1270  140.3580 N   0  0  0  0  0  0  0  0  0  0  0  0
  191.1080  177.5280  140.8440 C   0  0  0  0  0  2  0  0  0  0  0  0
  191.6110  176.3780  144.4170 C   0  0  0  0  0  0  0  0  0  0  0  0
  190.7080  178.6250  144.4480 C   0  0  0  0  0  3  0  0  0  0  0  0
  192.0550  175.2830  145.0790 F   0  0  0  0  0  0  0  0  0  0  0  0
  191.5920  176.3900  143.0190 C   0  0  0  0  0  3  0  0  0  0  0  0
  190.6900  178.6370  143.0500 C   0  0  0  0  0  3  0  0  0  0  0  0
  191.1350  177.5200  142.3340 C   0  0  0  0  0  0  0  0  0  0  0  0
  191.1680  177.4960  145.1310 C   0  0  0  0  0  3  0  0  0  0  0  0
  1 11  1  6  0  0  0
  2  1  1  6  0  0  0
  2  8  1  0  0  0  0
  3  4  1  0  0  0  0
  3  6  1  0  0  0  0
  4  2  1  0  0  0  0
  6  9  2  0  0  0  0
  7  6  1  0  0  0  0
  8  5  2  0  0  0  0
  9  8  1  0  0  0  0
 11 13  1  0  0  0  0
 12 10  1  0  0  0  0
 13 10  1  0  0  0  0
 14 16  1  6  0  0  0
 14 11  1  0  0  0  0
 14 12  1  0  0  0  0
 15 16  1  0  0  0  0
 17 18  1  1  0  0  0
 17 20  1  0  0  0  0
 19  1  1  1  0  0  0
 19 21  1  0  0  0  0
 19 17  1  0  0  0  0
 20 23  1  6  0  0  0
 21 17  1  0  0  0  0
 21 20  1  0  0  0  0
 23 24  1  0  0  0  0
 23 22  1  0  0  0  0
 24 30  1  0  0  0  0
 25 27  1  0  0  0  0
 25 31  1  0  0  0  0
 26 31  2  0  0  0  0
 28 25  2  0  0  0  0
 29 26  1  0  0  0  0
 30 28  1  0  0  0  0
 30 29  2  0  0  0  0
M  END
>  <MODEL>
6

>  <REMARK>
 VINA RESULT:      -6.5      1.567      2.079
  Name = 
  7 active torsions:
  status: ('A' for Active; 'I' for Inactive)
    1  A    between atoms: C_3  and  N_9
    2  A    between atoms: C_3  and  C_22
    3  A    between atoms: C_4  and  C_5
    4  A    between atoms: C_4  and  N_12
    5  A    between atoms: C_4  and  C_21
    6  A    between atoms: N_9  and  C_23
    7  A    between atoms: C_27  and  C_28
                            x       y       z     vdW  Elec       q    Type
                         _______ _______ _______ _____ _____    ______ ____

>  <TORSDO>
F 7

$$$$
=
 OpenBabel11052413003D

 31 35  0  0  1  0  0  0  0  0999 V2000
  189.8490  176.5580  139.0640 C   0  0  2  0  0  3  0  0  0  0  0  0
  190.0980  176.5720  140.5960 C   0  0  2  0  0  3  0  0  0  0  0  0
  189.0230  177.0210  142.8260 C   0  0  0  0  0  2  0  0  0  0  0  0
  188.8100  176.9750  141.3140 C   0  0  0  0  0  2  0  0  0  0  0  0
  192.3230  177.4990  140.3860 O   0  0  0  0  0  0  0  0  0  0  0  0
  190.1620  177.9330  143.1870 C   0  0  0  0  0  0  0  0  0  0  0  0
  190.1440  178.5900  144.4100 O   0  0  0  0  0  1  0  0  0  0  0  0
  191.2670  177.4160  141.0680 C   0  0  0  0  0  0  0  0  0  0  0  0
  191.2100  178.0850  142.3760 C   0  0  0  0  0  3  0  0  0  0  0  0
  189.9720  174.9770  136.1040 C   0  0  0  0  0  2  0  0  0  0  0  0
  190.4880  175.4380  138.3490 N   0  0  0  0  0  0  0  0  0  0  0  0
  191.3070  175.3890  136.1470 O   0  0  0  0  0  0  0  0  0  0  0  0
  189.5390  174.7260  137.5190 C   0  0  0  0  0  2  0  0  0  0  0  0
  191.4880  175.9590  137.4200 C   0  0  2  0  0  3  0  0  0  0  0  0
  193.7280  175.0630  136.8130 C   0  0  0  0  0  1  0  0  0  0  0  0
  192.8790  175.6340  137.9320 C   0  0  0  0  0  2  0  0  0  0  0  0
  189.0670  178.1690  137.2860 C   0  0  2  0  0  0  0  0  0  0  0  0
  189.6230  179.0080  136.3220 O   0  0  0  0  0  1  0  0  0  0  0  0
  190.1010  177.8910  138.3550 C   0  0  1  0  0  3  0  0  0  0  0  0
  187.7620  178.7820  137.7860 C   0  0  2  0  0  3  0  0  0  0  0  0
  189.0180  178.9050  138.6400 C   0  0  2  0  0  3  0  0  0  0  0  0
  186.7160  176.5950  137.5230 C   0  0  0  0  0  1  0  0  0  0  0  0
  186.7540  177.8220  138.3070 N   0  0  0  0  0  0  0  0  0  0  0  0
  185.3960  178.3370  138.4570 C   0  0  0  0  0  2  0  0  0  0  0  0
  183.4200  178.5120  141.6830 C   0  0  0  0  0  0  0  0  0  0  0  0
  185.7460  178.9760  142.1750 C   0  0  0  0  0  3  0  0  0  0  0  0
  182.1390  178.3670  142.0990 F   0  0  0  0  0  0  0  0  0  0  0  0
  183.7380  178.3520  140.3310 C   0  0  0  0  0  3  0  0  0  0  0  0
  186.0640  178.8140  140.8230 C   0  0  0  0  0  3  0  0  0  0  0  0
  185.0610  178.5000  139.9000 C   0  0  0  0  0  0  0  0  0  0  0  0
  184.4240  178.8240  142.6050 C   0  0  0  0  0  3  0  0  0  0  0  0
  1 11  1  6  0  0  0
  2  1  1  6  0  0  0
  2  8  1  0  0  0  0
  2  4  1  0  0  0  0
  3  6  1  0  0  0  0
  4  3  1  0  0  0  0
  5  8  2  0  0  0  0
  6  7  1  0  0  0  0
  8  9  1  0  0  0  0
  9  6  2  0  0  0  0
 10 12  1  0  0  0  0
 10 13  1  0  0  0  0
 12 14  1  0  0  0  0
 13 11  1  0  0  0  0
 14 16  1  1  0  0  0
 14 11  1  0  0  0  0
 15 16  1  0  0  0  0
 17 18  1  6  0  0  0
 17 20  1  0  0  0  0
 17 19  1  0  0  0  0
 17 21  1  0  0  0  0
 19 21  1  0  0  0  0
 19  1  1  1  0  0  0
 20 23  1  1  0  0  0
 20 21  1  0  0  0  0
 22 23  1  0  0  0  0
 23 24  1  0  0  0  0
 24 30  1  0  0  0  0
 25 27  1  0  0  0  0
 25 31  1  0  0  0  0
 26 31  2  0  0  0  0
 28 25  2  0  0  0  0
 29 26  1  0  0  0  0
 30 28  1  0  0  0  0
 30 29  2  0  0  0  0
M  END
>  <MODEL>
7

>  <REMARK>
 VINA RESULT:      -6.5      3.313      5.707
  Name = 
  7 active torsions:
  status: ('A' for Active; 'I' for Inactive)
    1  A    between atoms: C_3  and  N_9
    2  A    between atoms: C_3  and  C_22
    3  A    between atoms: C_4  and  C_5
    4  A    between atoms: C_4  and  N_12
    5  A    between atoms: C_4  and  C_21
    6  A    between atoms: N_9  and  C_23
    7  A    between atoms: C_27  and  C_28
                            x       y       z     vdW  Elec       q    Type
                         _______ _______ _______ _____ _____    ______ ____

>  <TORSDO>
F 7

$$$$
=
 OpenBabel11052413003D

 31 35  0  0  1  0  0  0  0  0999 V2000
  184.0940  176.6510  137.3150 C   0  0  2  0  0  3  0  0  0  0  0  0
  185.6240  176.8980  137.2470 C   0  0  2  0  0  3  0  0  0  0  0  0
  187.5830  177.8730  138.4880 C   0  0  0  0  0  2  0  0  0  0  0  0
  186.0820  177.5940  138.5280 C   0  0  0  0  0  2  0  0  0  0  0  0
  185.5890  177.4600  134.8940 O   0  0  0  0  0  0  0  0  0  0  0  0
  187.9550  178.6690  137.2690 C   0  0  0  0  0  0  0  0  0  0  0  0
  189.0460  179.5260  137.3240 O   0  0  0  0  0  1  0  0  0  0  0  0
  186.1200  177.6430  136.0210 C   0  0  0  0  0  0  0  0  0  0  0  0
  187.2870  178.5320  136.1230 C   0  0  0  0  0  3  0  0  0  0  0  0
  183.8500  174.6990  134.5940 C   0  0  0  0  0  2  0  0  0  0  0  0
  183.6670  175.3170  136.8530 N   0  0  0  0  0  0  0  0  0  0  0  0
  184.7340  173.8940  135.3170 O   0  0  0  0  0  0  0  0  0  0  0  0
  182.9660  175.3930  135.5880 C   0  0  0  0  0  2  0  0  0  0  0  0
  184.8440  174.4940  136.5840 C   0  0  2  0  0  3  0  0  0  0  0  0
  184.1830  172.1880  137.2430 C   0  0  0  0  0  1  0  0  0  0  0  0
  184.9680  173.4190  137.6490 C   0  0  0  0  0  2  0  0  0  0  0  0
  181.8900  177.8770  137.3920 C   0  0  2  0  0  0  0  0  0  0  0  0
  180.9670  178.4190  136.4990 O   0  0  0  0  0  1  0  0  0  0  0  0
  183.2310  177.7580  136.7030 C   0  0  1  0  0  3  0  0  0  0  0  0
  181.8860  178.7040  138.6740 C   0  0  2  0  0  3  0  0  0  0  0  0
  183.0070  178.9050  137.6610 C   0  0  2  0  0  3  0  0  0  0  0  0
  181.7950  176.6170  139.9310 C   0  0  0  0  0  1  0  0  0  0  0  0
  182.2940  177.9850  139.9090 N   0  0  0  0  0  0  0  0  0  0  0  0
  181.9590  178.6380  141.1710 C   0  0  0  0  0  2  0  0  0  0  0  0
  184.0130  178.6810  144.3530 C   0  0  0  0  0  0  0  0  0  0  0  0
  185.5130  178.4430  142.4660 C   0  0  0  0  0  3  0  0  0  0  0  0
  183.8150  178.7850  145.6880 F   0  0  0  0  0  0  0  0  0  0  0  0
  182.9210  178.7090  143.4800 C   0  0  0  0  0  3  0  0  0  0  0  0
  184.4210  178.4690  141.5940 C   0  0  0  0  0  3  0  0  0  0  0  0
  183.1230  178.6000  142.1000 C   0  0  0  0  0  0  0  0  0  0  0  0
  185.3090  178.5490  143.8450 C   0  0  0  0  0  3  0  0  0  0  0  0
  1 11  1  6  0  0  0
  2  1  1  6  0  0  0
  2  4  1  0  0  0  0
  3  4  1  0  0  0  0
  5  8  2  0  0  0  0
  6  7  1  0  0  0  0
  6  3  1  0  0  0  0
  8  9  1  0  0  0  0
  8  2  1  0  0  0  0
  9  6  2  0  0  0  0
 10 12  1  0  0  0  0
 10 13  1  0  0  0  0
 12 14  1  0  0  0  0
 13 11  1  0  0  0  0
 14 11  1  0  0  0  0
 14 16  1  1  0  0  0
 15 16  1  0  0  0  0
 17 18  1  6  0  0  0
 17 21  1  0  0  0  0
 17 20  1  0  0  0  0
 19  1  1  1  0  0  0
 19 17  1  0  0  0  0
 19 21  1  0  0  0  0
 20 23  1  1  0  0  0
 21 20  1  0  0  0  0
 23 22  1  0  0  0  0
 23 24  1  0  0  0  0
 24 30  1  0  0  0  0
 25 27  1  0  0  0  0
 26 31  2  0  0  0  0
 28 25  2  0  0  0  0
 29 30  2  0  0  0  0
 29 26  1  0  0  0  0
 30 28  1  0  0  0  0
 31 25  1  0  0  0  0
M  END
>  <MODEL>
8

>  <REMARK>
 VINA RESULT:      -6.5      4.850      6.578
  Name = 
  7 active torsions:
  status: ('A' for Active; 'I' for Inactive)
    1  A    between atoms: C_3  and  N_9
    2  A    between atoms: C_3  and  C_22
    3  A    between atoms: C_4  and  C_5
    4  A    between atoms: C_4  and  N_12
    5  A    between atoms: C_4  and  C_21
    6  A    between atoms: N_9  and  C_23
    7  A    between atoms: C_27  and  C_28
                            x       y       z     vdW  Elec       q    Type
                         _______ _______ _______ _____ _____    ______ ____

>  <TORSDO>
F 7

$$$$
=
 OpenBabel11052413003D

 31 35  0  0  1  0  0  0  0  0999 V2000
  181.8900  177.2450  139.0560 C   0  0  2  0  0  3  0  0  0  0  0  0
  183.4330  177.2250  138.8880 C   0  0  2  0  0  3  0  0  0  0  0  0
  185.4230  178.6090  138.2150 C   0  0  0  0  0  2  0  0  0  0  0  0
  183.9080  178.5970  138.4110 C   0  0  0  0  0  2  0  0  0  0  0  0
  183.4660  174.9770  137.9950 O   0  0  0  0  0  0  0  0  0  0  0  0
  185.8580  177.5200  137.2750 C   0  0  0  0  0  0  0  0  0  0  0  0
  186.9940  177.7060  136.4990 O   0  0  0  0  0  1  0  0  0  0  0  0
  183.9880  176.1230  138.0060 C   0  0  0  0  0  0  0  0  0  0  0  0
  185.2010  176.3600  137.2080 C   0  0  0  0  0  3  0  0  0  0  0  0
  178.9310  175.6650  138.9150 C   0  0  0  0  0  2  0  0  0  0  0  0
  181.1920  176.0970  138.4490 N   0  0  0  0  0  0  0  0  0  0  0  0
  179.0160  176.0130  137.5650 O   0  0  0  0  0  0  0  0  0  0  0  0
  180.3310  175.4330  139.4050 C   0  0  0  0  0  2  0  0  0  0  0  0
  180.2960  176.5720  137.3970 C   0  0  2  0  0  3  0  0  0  0  0  0
  181.5250  177.3690  135.3860 C   0  0  0  0  0  1  0  0  0  0  0  0
  180.8500  176.1800  136.0390 C   0  0  0  0  0  2  0  0  0  0  0  0
  180.1110  178.9330  139.6510 C   0  0  2  0  0  0  0  0  0  0  0  0
  179.1870  179.7470  138.9990 O   0  0  0  0  0  1  0  0  0  0  0  0
  181.2160  178.5690  138.6850 C   0  0  1  0  0  3  0  0  0  0  0  0
  180.5660  179.6240  140.9330 C   0  0  2  0  0  3  0  0  0  0  0  0
  181.4740  179.6500  139.7100 C   0  0  2  0  0  3  0  0  0  0  0  0
  179.9900  177.7870  142.4300 C   0  0  0  0  0  1  0  0  0  0  0  0
  181.0270  178.7260  142.0240 N   0  0  0  0  0  0  0  0  0  0  0  0
  181.5690  179.3830  143.2100 C   0  0  0  0  0  2  0  0  0  0  0  0
  184.8760  178.6500  144.9020 C   0  0  0  0  0  0  0  0  0  0  0  0
  185.1130  178.2340  142.5270 C   0  0  0  0  0  3  0  0  0  0  0  0
  185.4080  178.6760  146.1470 F   0  0  0  0  0  0  0  0  0  0  0  0
  183.5410  179.0140  144.7040 C   0  0  0  0  0  3  0  0  0  0  0  0
  183.7780  178.5980  142.3300 C   0  0  0  0  0  3  0  0  0  0  0  0
  182.9890  178.9860  143.4190 C   0  0  0  0  0  0  0  0  0  0  0  0
  185.6620  178.2600  143.8130 C   0  0  0  0  0  3  0  0  0  0  0  0
  1 11  1  6  0  0  0
  2  1  1  6  0  0  0
  3  4  1  0  0  0  0
  4  2  1  0  0  0  0
  5  8  2  0  0  0  0
  6  3  1  0  0  0  0
  7  6  1  0  0  0  0
  8  2  1  0  0  0  0
  9  6  2  0  0  0  0
  9  8  1  0  0  0  0
 10 13  1  0  0  0  0
 11 13  1  0  0  0  0
 12 10  1  0  0  0  0
 14 16  1  6  0  0  0
 14 12  1  0  0  0  0
 14 11  1  0  0  0  0
 15 16  1  0  0  0  0
 17 18  1  6  0  0  0
 17 21  1  0  0  0  0
 17 20  1  0  0  0  0
 19  1  1  1  0  0  0
 19 17  1  0  0  0  0
 19 21  1  0  0  0  0
 20 23  1  1  0  0  0
 21 20  1  0  0  0  0
 23 22  1  0  0  0  0
 23 24  1  0  0  0  0
 24 30  1  0  0  0  0
 25 27  1  0  0  0  0
 26 31  1  0  0  0  0
 28 25  1  0  0  0  0
 29 26  2  0  0  0  0
 29 30  1  0  0  0  0
 30 28  2  0  0  0  0
 31 25  2  0  0  0  0
M  END
>  <MODEL>
9

>  <REMARK>
 VINA RESULT:      -6.5      5.876      7.766
  Name = 
  7 active torsions:
  status: ('A' for Active; 'I' for Inactive)
    1  A    between atoms: C_3  and  N_9
    2  A    between atoms: C_3  and  C_22
    3  A    between atoms: C_4  and  C_5
    4  A    between atoms: C_4  and  N_12
    5  A    between atoms: C_4  and  C_21
    6  A    between atoms: N_9  and  C_23
    7  A    between atoms: C_27  and  C_28
                            x       y       z     vdW  Elec       q    Type
                         _______ _______ _______ _____ _____    ______ ____

>  <TORSDO>
F 7

$$$$
