=
 OpenBabel11052415073D

 55 63  0  0  1  0  0  0  0  0999 V2000
  188.4770  177.9760  137.8090 C   0  0  0  0  0  2  0  0  0  0  0  0
  186.2760  176.2820  136.8800 N   0  0  0  0  0  0  0  0  0  0  0  0
  187.5230  175.5480  137.1640 C   0  0  0  0  0  2  0  0  0  0  0  0
  187.5880  178.5590  136.7340 C   0  0  0  0  0  2  0  0  0  0  0  0
  188.6140  176.4420  137.9550 C   0  0  2  0  0  3  0  0  0  0  0  0
  186.2440  177.7550  136.6630 C   0  0  0  0  0  2  0  0  0  0  0  0
  188.7060  176.2600  139.3580 O   0  0  0  0  0  0  0  0  0  0  0  0
  189.2050  177.4200  140.0020 C   0  0  2  0  0  3  0  0  0  0  0  0
  192.3010  177.3350  141.9620 O   0  0  0  0  0  0  0  0  0  0  0  0
  191.1250  177.5450  144.4100 C   0  0  0  0  0  2  0  0  0  0  0  0
  191.3120  177.0590  145.8870 C   0  0  0  0  0  2  0  0  0  0  0  0
  188.6600  176.9590  144.3770 C   0  0  2  0  0  3  0  0  0  0  0  0
  188.8050  177.4290  145.8920 C   0  0  0  0  0  2  0  0  0  0  0  0
  190.8230  177.4610  140.0670 C   0  0  1  0  0  3  0  0  0  0  0  0
  190.0260  176.8490  146.6480 C   0  0  0  0  0  2  0  0  0  0  0  0
  189.9760  176.8790  143.6900 C   0  0  1  0  0  3  0  0  0  0  0  0
  187.5230  177.3620  142.3630 C   0  0  2  0  0  3  0  0  0  0  0  0
  187.7290  177.7730  143.7340 O   0  0  0  0  0  0  0  0  0  0  0  0
  191.0800  177.3020  141.5010 C   0  0  0  0  0  0  0  0  0  0  0  0
  189.9770  177.3660  142.2890 N   0  0  0  0  0  0  0  0  0  0  0  0
  188.7570  177.4830  141.5440 C   0  0  1  0  0  3  0  0  0  0  0  0
  186.3180  178.4150  140.2820 C   0  0  0  0  0  3  0  0  0  0  0  0
  183.8760  179.0730  140.3540 C   0  0  2  0  0  3  0  0  0  0  0  0
  184.9540  178.0370  142.3870 C   0  0  0  0  0  2  0  0  0  0  0  0
  184.1150  179.1910  141.8820 C   0  0  0  0  0  2  0  0  0  0  0  0
  185.1870  178.7790  139.6380 C   0  0  0  0  0  3  0  0  0  0  0  0
  186.3990  178.2660  141.8300 C   0  0  1  0  0  3  0  0  0  0  0  0
  183.3300  180.2620  139.8800 O   0  0  0  0  0  0  0  0  0  0  0  0
  182.7120  179.9200  138.6650 C   0  0  0  0  0  2  0  0  0  0  0  0
  181.7020  180.9350  138.2030 C   0  0  0  0  0  1  0  0  0  0  0  0
  191.9520  176.9940  138.1240 C   0  0  0  0  0  2  0  0  0  0  0  0
  192.8660  176.9910  139.1500 O   0  0  0  0  0  0  0  0  0  0  0  0
  191.6150  176.4130  139.4230 C   0  0  1  0  0  3  0  0  0  0  0  0
  185.5760  175.6590  135.7350 C   0  0  0  0  0  2  0  0  0  0  0  0
  183.4390  174.8200  136.6750 C   0  0  1  0  0  3  0  0  0  0  0  0
  184.4860  173.8690  137.2860 C   0  0  2  0  0  3  0  0  0  0  0  0
  184.6710  174.3870  135.8750 C   0  0  2  0  0  3  0  0  0  0  0  0
  184.4100  171.4290  136.4040 C   0  0  0  0  0  1  0  0  0  0  0  0
  183.9060  172.4490  137.4390 C   0  0  0  0  0  2  0  0  0  0  0  0
  182.0840  174.1850  136.1670 C   0  0  2  0  0  3  0  0  0  0  0  0
  181.8380  174.3160  134.7770 O   0  0  0  0  0  1  0  0  0  0  0  0
  179.9050  173.7320  141.1520 O   0  0  0  0  0  1  0  0  0  0  0  0
  179.3290  178.0230  137.4340 O   0  0  0  0  0  1  0  0  0  0  0  0
  180.9230  174.6970  137.0560 C   0  0  1  0  0  0  0  0  0  0  0  0
  181.8530  176.9560  136.9280 O   0  0  0  0  0  1  0  0  0  0  0  0
  180.7900  176.1390  137.3700 C   0  0  2  0  0  0  0  0  0  0  0  0
  179.2630  174.2400  138.9220 N   0  0  0  0  0  2  0  0  0  0  0  0
  180.1980  177.1680  139.5930 C   0  0  2  0  0  3  0  0  0  0  0  0
  180.1030  174.6050  140.0690 C   0  0  1  0  0  3  0  0  0  0  0  0
  179.7040  176.9040  138.1440 C   0  0  1  0  0  3  0  0  0  0  0  0
  180.1680  175.5710  136.2790 O   0  0  0  0  0  0  0  0  0  0  0  0
  179.7290  176.0080  140.4990 C   0  0  0  0  0  2  0  0  0  0  0  0
  180.0550  173.6780  137.8170 C   0  0  0  0  0  2  0  0  0  0  0  0
  179.6960  178.5350  140.1100 C   0  0  0  0  0  2  0  0  0  0  0  0
  180.4070  178.9040  141.2590 O   0  0  0  0  0  1  0  0  0  0  0  0
  1  5  1  0  0  0  0
  2  3  1  0  0  0  0
  3  5  1  0  0  0  0
  4  1  1  0  0  0  0
  5  7  1  1  0  0  0
  6  4  1  0  0  0  0
  6  2  1  0  0  0  0
  8  7  1  1  0  0  0
  8 14  1  0  0  0  0
  8 21  1  0  0  0  0
 10 11  1  0  0  0  0
 11 15  1  0  0  0  0
 12 13  1  1  0  0  0
 13 15  1  0  0  0  0
 14 19  1  1  0  0  0
 16 12  1  0  0  0  0
 16 10  1  1  0  0  0
 17 18  1  1  0  0  0
 18 12  1  0  0  0  0
 19  9  2  0  0  0  0
 19 20  1  0  0  0  0
 20 16  1  0  0  0  0
 21 20  1  1  0  0  0
 21 17  1  0  0  0  0
 23 28  1  6  0  0  0
 23 25  1  0  0  0  0
 25 24  1  0  0  0  0
 26 22  2  0  0  0  0
 26 23  1  0  0  0  0
 27 22  1  6  0  0  0
 27 17  1  0  0  0  0
 27 24  1  0  0  0  0
 29 28  1  0  0  0  0
 30 29  1  0  0  0  0
 31 32  1  0  0  0  0
 32 33  1  0  0  0  0
 33 31  1  6  0  0  0
 33 14  1  0  0  0  0
 34  2  1  0  0  0  0
 35 40  1  6  0  0  0
 35 36  1  0  0  0  0
 36 39  1  6  0  0  0
 37 34  1  1  0  0  0
 37 35  1  0  0  0  0
 37 36  1  0  0  0  0
 38 39  1  0  0  0  0
 40 41  1  6  0  0  0
 44 40  1  6  0  0  0
 44 46  1  0  0  0  0
 44 53  1  0  0  0  0
 46 45  1  6  0  0  0
 46 50  1  0  0  0  0
 47 49  1  0  0  0  0
 48 54  1  1  0  0  0
 48 52  1  0  0  0  0
 49 52  1  0  0  0  0
 49 42  1  1  0  0  0
 50 43  1  6  0  0  0
 50 48  1  0  0  0  0
 51 44  1  0  0  0  0
 51 46  1  0  0  0  0
 53 47  1  0  0  0  0
 54 55  1  0  0  0  0
M  END
>  <MODEL>
1

>  <REMARK>
 VINA RESULT:      -7.6      0.000      0.000
  Name = 
  12 active torsions:
  status: ('A' for Active; 'I' for Inactive)
    1  A    between atoms: C_2  and  O_28
    2  A    between atoms: C_6  and  C_20
    3  A    between atoms: C_8  and  C_43
    4  A    between atoms: O_10  and  C_18
    5  A    between atoms: O_10  and  C_32
    6  A    between atoms: C_11  and  C_29
    7  A    between atoms: C_19  and  C_37
    8  A    between atoms: C_20  and  C_22
    9  A    between atoms: N_27  and  C_54
   10  A    between atoms: O_28  and  C_44
   11  A    between atoms: C_33  and  C_52
   12  A    between atoms: C_51  and  C_54
                            x       y       z     vdW  Elec       q    Type
                         _______ _______ _______ _____ _____    ______ ____

>  <TORSDO>
F 12

$$$$
=
 OpenBabel11052415073D

 55 63  0  0  1  0  0  0  0  0999 V2000
  181.7090  177.4820  139.1820 C   0  0  0  0  0  2  0  0  0  0  0  0
  183.8410  178.9580  140.5460 N   0  0  0  0  0  0  0  0  0  0  0  0
  184.2790  178.2530  139.3280 C   0  0  0  0  0  2  0  0  0  0  0  0
  181.6790  177.4640  140.6940 C   0  0  0  0  0  2  0  0  0  0  0  0
  183.0450  177.7070  138.4370 C   0  0  2  0  0  3  0  0  0  0  0  0
  182.5770  178.6180  141.2580 C   0  0  0  0  0  2  0  0  0  0  0  0
  182.6610  178.4850  137.3160 O   0  0  0  0  0  0  0  0  0  0  0  0
  182.7910  177.7570  136.1070 C   0  0  2  0  0  3  0  0  0  0  0  0
  180.1370  175.5180  134.9310 O   0  0  0  0  0  0  0  0  0  0  0  0
  181.4430  173.1860  135.4560 C   0  0  0  0  0  2  0  0  0  0  0  0
  181.1560  171.7160  135.9120 C   0  0  0  0  0  2  0  0  0  0  0  0
  183.3610  173.4710  137.0870 C   0  0  2  0  0  3  0  0  0  0  0  0
  183.5490  171.9340  136.7160 C   0  0  0  0  0  2  0  0  0  0  0  0
  181.3780  177.5380  135.3450 C   0  0  1  0  0  3  0  0  0  0  0  0
  182.2530  171.0870  136.7360 C   0  0  0  0  0  2  0  0  0  0  0  0
  182.1100  174.0340  136.5140 C   0  0  1  0  0  3  0  0  0  0  0  0
  184.4170  175.5680  137.0930 C   0  0  2  0  0  3  0  0  0  0  0  0
  184.5140  174.1700  136.7350 O   0  0  0  0  0  0  0  0  0  0  0  0
  181.1750  176.0930  135.4770 C   0  0  0  0  0  0  0  0  0  0  0  0
  182.2360  175.4110  135.9760 N   0  0  0  0  0  0  0  0  0  0  0  0
  183.3210  176.2620  136.3670 C   0  0  1  0  0  3  0  0  0  0  0  0
  187.0260  175.2790  137.0700 C   0  0  0  0  0  3  0  0  0  0  0  0
  188.4830  176.5010  135.4010 C   0  0  2  0  0  3  0  0  0  0  0  0
  185.9780  176.8070  135.3380 C   0  0  0  0  0  2  0  0  0  0  0  0
  187.3140  177.5200  135.3640 C   0  0  0  0  0  2  0  0  0  0  0  0
  188.2220  175.4400  136.4610 C   0  0  0  0  0  3  0  0  0  0  0  0
  185.7900  176.1730  136.7570 C   0  0  1  0  0  3  0  0  0  0  0  0
  189.6690  177.1730  135.6800 O   0  0  0  0  0  0  0  0  0  0  0  0
  190.6430  176.1630  135.7830 C   0  0  0  0  0  2  0  0  0  0  0  0
  191.5220  176.3030  136.9960 C   0  0  0  0  0  1  0  0  0  0  0  0
  180.1460  179.4740  135.2700 C   0  0  0  0  0  2  0  0  0  0  0  0
  179.3720  178.4650  134.7500 O   0  0  0  0  0  0  0  0  0  0  0  0
  180.1540  178.1410  135.8720 C   0  0  1  0  0  3  0  0  0  0  0  0
  184.9240  178.9420  141.5530 C   0  0  0  0  0  2  0  0  0  0  0  0
  187.1000  178.4010  142.6150 C   0  0  1  0  0  3  0  0  0  0  0  0
  187.5120  178.9690  141.2440 C   0  0  2  0  0  3  0  0  0  0  0  0
  186.2540  178.1350  141.3660 C   0  0  2  0  0  3  0  0  0  0  0  0
  188.5450  177.3500  139.4970 C   0  0  0  0  0  1  0  0  0  0  0  0
  188.7740  178.2560  140.7180 C   0  0  0  0  0  2  0  0  0  0  0  0
  187.8820  177.1350  143.1460 C   0  0  2  0  0  3  0  0  0  0  0  0
  187.1030  175.9590  143.2930 O   0  0  0  0  0  1  0  0  0  0  0  0
  187.7550  176.7930  148.5930 O   0  0  0  0  0  1  0  0  0  0  0  0
  192.2840  177.6230  145.2230 O   0  0  0  0  0  1  0  0  0  0  0  0
  188.6650  177.5270  144.4240 C   0  0  1  0  0  0  0  0  0  0  0  0
  190.5160  176.1000  143.7020 O   0  0  0  0  0  1  0  0  0  0  0  0
  190.0450  177.0370  144.6470 C   0  0  2  0  0  0  0  0  0  0  0  0
  188.6130  178.1910  146.8750 N   0  0  0  0  0  2  0  0  0  0  0  0
  191.0320  176.1810  146.8020 C   0  0  2  0  0  3  0  0  0  0  0  0
  188.6020  176.8520  147.4740 C   0  0  1  0  0  3  0  0  0  0  0  0
  191.0520  177.3400  145.7690 C   0  0  1  0  0  3  0  0  0  0  0  0
  189.7910  178.2340  144.0130 O   0  0  0  0  0  0  0  0  0  0  0  0
  190.0130  176.5200  147.9130 C   0  0  0  0  0  2  0  0  0  0  0  0
  187.9170  178.2200  145.5780 C   0  0  0  0  0  2  0  0  0  0  0  0
  192.4430  175.9270  147.3800 C   0  0  0  0  0  2  0  0  0  0  0  0
  192.6440  176.7160  148.5200 O   0  0  0  0  0  1  0  0  0  0  0  0
  1  4  1  0  0  0  0
  2  6  1  0  0  0  0
  2 34  1  0  0  0  0
  3  2  1  0  0  0  0
  4  6  1  0  0  0  0
  5  7  1  6  0  0  0
  5  1  1  0  0  0  0
  5  3  1  0  0  0  0
  8 21  1  0  0  0  0
  8  7  1  1  0  0  0
  9 19  2  0  0  0  0
 10 11  1  0  0  0  0
 11 15  1  0  0  0  0
 12 13  1  6  0  0  0
 13 15  1  0  0  0  0
 14 19  1  1  0  0  0
 14 33  1  0  0  0  0
 14  8  1  0  0  0  0
 16 10  1  6  0  0  0
 16 12  1  0  0  0  0
 17 18  1  6  0  0  0
 18 12  1  0  0  0  0
 19 20  1  0  0  0  0
 20 16  1  0  0  0  0
 21 20  1  1  0  0  0
 21 17  1  0  0  0  0
 23 28  1  1  0  0  0
 23 26  1  0  0  0  0
 24 25  1  0  0  0  0
 25 23  1  0  0  0  0
 26 22  2  0  0  0  0
 27 24  1  6  0  0  0
 27 22  1  0  0  0  0
 27 17  1  0  0  0  0
 28 29  1  0  0  0  0
 29 30  1  0  0  0  0
 32 31  1  0  0  0  0
 32 33  1  0  0  0  0
 33 31  1  6  0  0  0
 35 40  1  6  0  0  0
 36 39  1  6  0  0  0
 36 37  1  0  0  0  0
 36 35  1  0  0  0  0
 37 34  1  1  0  0  0
 37 35  1  0  0  0  0
 38 39  1  0  0  0  0
 40 41  1  1  0  0  0
 44 40  1  6  0  0  0
 44 46  1  0  0  0  0
 44 53  1  0  0  0  0
 46 45  1  6  0  0  0
 46 50  1  0  0  0  0
 47 49  1  0  0  0  0
 48 54  1  1  0  0  0
 48 52  1  0  0  0  0
 49 52  1  0  0  0  0
 49 42  1  1  0  0  0
 50 43  1  6  0  0  0
 50 48  1  0  0  0  0
 51 44  1  0  0  0  0
 51 46  1  0  0  0  0
 53 47  1  0  0  0  0
 54 55  1  0  0  0  0
M  END
>  <MODEL>
2

>  <REMARK>
 VINA RESULT:      -7.0      2.403     10.311
  Name = 
  12 active torsions:
  status: ('A' for Active; 'I' for Inactive)
    1  A    between atoms: C_2  and  O_28
    2  A    between atoms: C_6  and  C_20
    3  A    between atoms: C_8  and  C_43
    4  A    between atoms: O_10  and  C_18
    5  A    between atoms: O_10  and  C_32
    6  A    between atoms: C_11  and  C_29
    7  A    between atoms: C_19  and  C_37
    8  A    between atoms: C_20  and  C_22
    9  A    between atoms: N_27  and  C_54
   10  A    between atoms: O_28  and  C_44
   11  A    between atoms: C_33  and  C_52
   12  A    between atoms: C_51  and  C_54
                            x       y       z     vdW  Elec       q    Type
                         _______ _______ _______ _____ _____    ______ ____

>  <TORSDO>
F 12

$$$$
=
 OpenBabel11052415073D

 55 63  0  0  1  0  0  0  0  0999 V2000
  180.8300  178.0650  138.8750 C   0  0  0  0  0  2  0  0  0  0  0  0
  182.7470  178.5030  141.0460 N   0  0  0  0  0  0  0  0  0  0  0  0
  183.2850  177.7280  139.9130 C   0  0  0  0  0  2  0  0  0  0  0  0
  180.2790  178.0040  140.2820 C   0  0  0  0  0  2  0  0  0  0  0  0
  182.3230  177.7590  138.6140 C   0  0  2  0  0  3  0  0  0  0  0  0
  181.2860  178.6760  141.2770 C   0  0  0  0  0  2  0  0  0  0  0  0
  182.6610  178.6680  137.5790 O   0  0  0  0  0  0  0  0  0  0  0  0
  182.9060  177.9960  136.3560 C   0  0  2  0  0  3  0  0  0  0  0  0
  180.3370  175.9160  134.7710 O   0  0  0  0  0  0  0  0  0  0  0  0
  181.5030  173.5150  135.3160 C   0  0  0  0  0  2  0  0  0  0  0  0
  181.1210  172.0360  135.6590 C   0  0  0  0  0  2  0  0  0  0  0  0
  183.2300  173.6490  137.1650 C   0  0  2  0  0  3  0  0  0  0  0  0
  183.4130  172.1260  136.7370 C   0  0  0  0  0  2  0  0  0  0  0  0
  181.5840  177.8660  135.4290 C   0  0  1  0  0  3  0  0  0  0  0  0
  182.0970  171.3270  136.5660 C   0  0  0  0  0  2  0  0  0  0  0  0
  182.0700  174.2840  136.4850 C   0  0  1  0  0  3  0  0  0  0  0  0
  184.3420  175.7030  137.4010 C   0  0  2  0  0  3  0  0  0  0  0  0
  184.4370  174.3220  136.9830 O   0  0  0  0  0  0  0  0  0  0  0  0
  181.3230  176.4250  135.4610 C   0  0  0  0  0  0  0  0  0  0  0  0
  182.2990  175.6800  136.0390 N   0  0  0  0  0  0  0  0  0  0  0  0
  183.3580  176.4720  136.5940 C   0  0  1  0  0  3  0  0  0  0  0  0
  186.4870  175.9660  135.9100 C   0  0  0  0  0  3  0  0  0  0  0  0
  188.0400  177.9480  136.1570 C   0  0  2  0  0  3  0  0  0  0  0  0
  185.9800  177.7830  137.6060 C   0  0  0  0  0  2  0  0  0  0  0  0
  187.4780  178.0090  137.6010 C   0  0  0  0  0  2  0  0  0  0  0  0
  187.5040  176.7190  135.4360 C   0  0  0  0  0  3  0  0  0  0  0  0
  185.7620  176.2740  137.2540 C   0  0  1  0  0  3  0  0  0  0  0  0
  189.4300  177.9030  136.2070 O   0  0  0  0  0  0  0  0  0  0  0  0
  189.7340  177.4970  137.5180 C   0  0  0  0  0  2  0  0  0  0  0  0
  190.9770  176.6540  137.6090 C   0  0  0  0  0  1  0  0  0  0  0  0
  180.4570  179.8660  135.3770 C   0  0  0  0  0  2  0  0  0  0  0  0
  179.7180  178.9500  134.6680 O   0  0  0  0  0  0  0  0  0  0  0  0
  180.3260  178.4860  135.8460 C   0  0  1  0  0  3  0  0  0  0  0  0
  183.3330  178.0150  142.3130 C   0  0  0  0  0  2  0  0  0  0  0  0
  185.5960  177.8200  143.3100 C   0  0  1  0  0  3  0  0  0  0  0  0
  184.7300  178.2860  144.4970 C   0  0  2  0  0  3  0  0  0  0  0  0
  184.4360  178.7990  143.1030 C   0  0  2  0  0  3  0  0  0  0  0  0
  185.2120  179.0700  146.9230 C   0  0  0  0  0  1  0  0  0  0  0  0
  185.5370  179.2130  145.4270 C   0  0  0  0  0  2  0  0  0  0  0  0
  187.0270  178.4730  143.1510 C   0  0  2  0  0  3  0  0  0  0  0  0
  187.2830  179.0680  141.8900 O   0  0  0  0  0  1  0  0  0  0  0  0
  192.0710  176.7220  142.0140 O   0  0  0  0  0  1  0  0  0  0  0  0
  189.1670  176.1640  146.8950 O   0  0  0  0  0  1  0  0  0  0  0  0
  188.1000  177.4420  143.5820 C   0  0  1  0  0  0  0  0  0  0  0  0
  188.2420  178.5370  145.7650 O   0  0  0  0  0  1  0  0  0  0  0  0
  188.6530  177.4550  144.9560 C   0  0  2  0  0  0  0  0  0  0  0  0
  190.0290  175.9250  142.9290 N   0  0  0  0  0  2  0  0  0  0  0  0
  191.0600  177.1510  145.6360 C   0  0  2  0  0  3  0  0  0  0  0  0
  191.1270  176.8910  143.0410 C   0  0  1  0  0  3  0  0  0  0  0  0
  189.6470  176.5090  145.6510 C   0  0  1  0  0  3  0  0  0  0  0  0
  187.5540  176.6940  144.6210 O   0  0  0  0  0  0  0  0  0  0  0  0
  191.8120  176.6720  144.3730 C   0  0  0  0  0  2  0  0  0  0  0  0
  188.7720  176.5660  142.5090 C   0  0  0  0  0  2  0  0  0  0  0  0
  191.8390  176.8100  146.9270 C   0  0  0  0  0  2  0  0  0  0  0  0
  192.2530  175.4720  146.9000 O   0  0  0  0  0  1  0  0  0  0  0  0
  1  4  1  0  0  0  0
  2  6  1  0  0  0  0
  2 34  1  0  0  0  0
  3  2  1  0  0  0  0
  4  6  1  0  0  0  0
  5  7  1  6  0  0  0
  5  1  1  0  0  0  0
  5  3  1  0  0  0  0
  8 21  1  0  0  0  0
  8  7  1  1  0  0  0
  9 19  2  0  0  0  0
 10 11  1  0  0  0  0
 11 15  1  0  0  0  0
 12 13  1  6  0  0  0
 14 19  1  1  0  0  0
 14 33  1  0  0  0  0
 14  8  1  0  0  0  0
 15 13  1  0  0  0  0
 16 10  1  6  0  0  0
 16 12  1  0  0  0  0
 17 18  1  6  0  0  0
 18 12  1  0  0  0  0
 19 20  1  0  0  0  0
 20 16  1  0  0  0  0
 21 20  1  1  0  0  0
 21 17  1  0  0  0  0
 23 28  1  1  0  0  0
 23 25  1  0  0  0  0
 25 24  1  0  0  0  0
 26 22  2  0  0  0  0
 26 23  1  0  0  0  0
 27 22  1  6  0  0  0
 27 17  1  0  0  0  0
 27 24  1  0  0  0  0
 28 29  1  0  0  0  0
 29 30  1  0  0  0  0
 32 31  1  0  0  0  0
 32 33  1  0  0  0  0
 33 31  1  1  0  0  0
 35 40  1  1  0  0  0
 35 36  1  0  0  0  0
 36 39  1  1  0  0  0
 37 34  1  6  0  0  0
 37 35  1  0  0  0  0
 37 36  1  0  0  0  0
 39 38  1  0  0  0  0
 40 41  1  6  0  0  0
 44 40  1  6  0  0  0
 44 51  1  0  0  0  0
 44 46  1  0  0  0  0
 46 50  1  0  0  0  0
 46 45  1  1  0  0  0
 47 49  1  0  0  0  0
 48 50  1  0  0  0  0
 48 54  1  1  0  0  0
 49 42  1  6  0  0  0
 49 52  1  0  0  0  0
 50 43  1  1  0  0  0
 51 46  1  0  0  0  0
 52 48  1  0  0  0  0
 53 47  1  0  0  0  0
 53 44  1  0  0  0  0
 55 54  1  0  0  0  0
M  END
>  <MODEL>
3

>  <REMARK>
 VINA RESULT:      -6.8      2.273     10.183
  Name = 
  12 active torsions:
  status: ('A' for Active; 'I' for Inactive)
    1  A    between atoms: C_2  and  O_28
    2  A    between atoms: C_6  and  C_20
    3  A    between atoms: C_8  and  C_43
    4  A    between atoms: O_10  and  C_18
    5  A    between atoms: O_10  and  C_32
    6  A    between atoms: C_11  and  C_29
    7  A    between atoms: C_19  and  C_37
    8  A    between atoms: C_20  and  C_22
    9  A    between atoms: N_27  and  C_54
   10  A    between atoms: O_28  and  C_44
   11  A    between atoms: C_33  and  C_52
   12  A    between atoms: C_51  and  C_54
                            x       y       z     vdW  Elec       q    Type
                         _______ _______ _______ _____ _____    ______ ____

>  <TORSDO>
F 12

$$$$
=
 OpenBabel11052415073D

 55 63  0  0  1  0  0  0  0  0999 V2000
  186.9810  178.3620  141.0970 C   0  0  0  0  0  2  0  0  0  0  0  0
  184.1240  178.0220  140.5490 N   0  0  0  0  0  0  0  0  0  0  0  0
  184.8640  178.7200  139.4820 C   0  0  0  0  0  2  0  0  0  0  0  0
  186.0470  178.5170  142.2770 C   0  0  0  0  0  2  0  0  0  0  0  0
  186.4680  178.6270  139.6630 C   0  0  2  0  0  3  0  0  0  0  0  0
  184.6520  177.8880  141.9360 C   0  0  0  0  0  2  0  0  0  0  0  0
  187.1510  177.6530  138.8920 O   0  0  0  0  0  0  0  0  0  0  0  0
  188.3740  178.1560  138.3830 C   0  0  2  0  0  3  0  0  0  0  0  0
  189.4270  177.4880  134.9360 O   0  0  0  0  0  0  0  0  0  0  0  0
  191.4150  175.7310  135.5540 C   0  0  0  0  0  2  0  0  0  0  0  0
  192.1060  174.4420  134.9950 C   0  0  0  0  0  2  0  0  0  0  0  0
  191.2030  174.7780  137.8920 C   0  0  2  0  0  3  0  0  0  0  0  0
  192.5930  174.1300  137.4620 C   0  0  0  0  0  2  0  0  0  0  0  0
  188.3050  178.5090  136.8040 C   0  0  1  0  0  3  0  0  0  0  0  0
  192.6140  173.4910  136.0510 C   0  0  0  0  0  2  0  0  0  0  0  0
  190.5420  175.4800  136.7600 C   0  0  1  0  0  3  0  0  0  0  0  0
  190.1590  176.1520  139.4830 C   0  0  2  0  0  3  0  0  0  0  0  0
  191.4000  175.5730  139.0200 O   0  0  0  0  0  0  0  0  0  0  0  0
  189.1870  177.4950  136.2200 C   0  0  0  0  0  0  0  0  0  0  0  0
  189.8900  176.7630  137.1200 N   0  0  0  0  0  0  0  0  0  0  0  0
  189.5520  177.0670  138.4800 C   0  0  1  0  0  3  0  0  0  0  0  0
  189.8840  176.3240  142.0880 C   0  0  0  0  0  3  0  0  0  0  0  0
  191.6700  177.3660  143.5460 C   0  0  2  0  0  3  0  0  0  0  0  0
  192.0230  177.2100  141.0520 C   0  0  0  0  0  2  0  0  0  0  0  0
  192.0580  178.1310  142.2530 C   0  0  0  0  0  2  0  0  0  0  0  0
  190.4080  176.5470  143.3140 C   0  0  0  0  0  3  0  0  0  0  0  0
  190.5140  176.8930  140.7830 C   0  0  1  0  0  3  0  0  0  0  0  0
  191.4630  178.2800  144.5750 O   0  0  0  0  0  0  0  0  0  0  0  0
  190.7260  177.5760  145.5430 C   0  0  0  0  0  2  0  0  0  0  0  0
  191.5830  176.7510  146.4630 C   0  0  0  0  0  1  0  0  0  0  0  0
  186.5630  179.7570  135.9780 C   0  0  0  0  0  2  0  0  0  0  0  0
  187.1900  179.1570  134.9120 O   0  0  0  0  0  0  0  0  0  0  0  0
  187.0440  178.3780  136.0730 C   0  0  1  0  0  3  0  0  0  0  0  0
  182.7560  178.5760  140.6580 C   0  0  0  0  0  2  0  0  0  0  0  0
  181.9060  177.1030  138.8520 C   0  0  1  0  0  3  0  0  0  0  0  0
  180.9390  178.3020  138.8080 C   0  0  2  0  0  3  0  0  0  0  0  0
  181.4850  177.8220  140.1370 C   0  0  2  0  0  3  0  0  0  0  0  0
  179.0530  178.2670  137.0260 C   0  0  0  0  0  1  0  0  0  0  0  0
  179.5190  177.8410  138.4290 C   0  0  0  0  0  2  0  0  0  0  0  0
  181.2850  175.6580  138.6870 C   0  0  2  0  0  3  0  0  0  0  0  0
  181.0810  174.9460  139.8960 O   0  0  0  0  0  1  0  0  0  0  0  0
  185.9740  172.9570  137.9670 O   0  0  0  0  0  1  0  0  0  0  0  0
  181.1430  172.4870  134.9660 O   0  0  0  0  0  1  0  0  0  0  0  0
  182.1060  174.8750  137.6340 C   0  0  1  0  0  0  0  0  0  0  0  0
  180.3360  173.1900  137.5380 O   0  0  0  0  0  1  0  0  0  0  0  0
  181.5610  173.6480  137.0070 C   0  0  2  0  0  0  0  0  0  0  0  0
  184.3810  174.2060  136.7240 N   0  0  0  0  0  2  0  0  0  0  0  0
  182.7890  171.4990  136.5340 C   0  0  2  0  0  3  0  0  0  0  0  0
  184.6290  173.0330  137.5690 C   0  0  1  0  0  3  0  0  0  0  0  0
  182.1260  172.7490  135.8950 C   0  0  1  0  0  3  0  0  0  0  0  0
  181.3760  174.8950  136.4490 O   0  0  0  0  0  0  0  0  0  0  0  0
  184.2880  171.7940  136.7670 C   0  0  0  0  0  2  0  0  0  0  0  0
  183.5900  175.2310  137.4230 C   0  0  0  0  0  2  0  0  0  0  0  0
  182.5830  170.2480  135.6510 C   0  0  0  0  0  2  0  0  0  0  0  0
  183.8240  169.7260  135.2630 O   0  0  0  0  0  1  0  0  0  0  0  0
  1  4  1  0  0  0  0
  2 34  1  0  0  0  0
  2  6  1  0  0  0  0
  3  5  1  0  0  0  0
  3  2  1  0  0  0  0
  5  7  1  6  0  0  0
  5  1  1  0  0  0  0
  6  4  1  0  0  0  0
  8 21  1  0  0  0  0
  8  7  1  6  0  0  0
  9 19  2  0  0  0  0
 11 10  1  0  0  0  0
 11 15  1  0  0  0  0
 12 13  1  6  0  0  0
 12 18  1  0  0  0  0
 14 19  1  6  0  0  0
 14  8  1  0  0  0  0
 15 13  1  0  0  0  0
 16 10  1  6  0  0  0
 16 20  1  0  0  0  0
 16 12  1  0  0  0  0
 17 18  1  6  0  0  0
 17 27  1  0  0  0  0
 19 20  1  0  0  0  0
 21 20  1  6  0  0  0
 21 17  1  0  0  0  0
 22 26  2  0  0  0  0
 23 28  1  1  0  0  0
 24 25  1  0  0  0  0
 25 23  1  0  0  0  0
 26 23  1  0  0  0  0
 27 24  1  1  0  0  0
 27 22  1  0  0  0  0
 28 29  1  0  0  0  0
 29 30  1  0  0  0  0
 32 31  1  0  0  0  0
 32 33  1  0  0  0  0
 33 31  1  1  0  0  0
 33 14  1  0  0  0  0
 35 40  1  1  0  0  0
 35 37  1  0  0  0  0
 36 39  1  1  0  0  0
 36 35  1  0  0  0  0
 36 37  1  0  0  0  0
 37 34  1  6  0  0  0
 38 39  1  0  0  0  0
 40 41  1  1  0  0  0
 44 40  1  1  0  0  0
 46 45  1  1  0  0  0
 46 44  1  0  0  0  0
 47 53  1  0  0  0  0
 47 49  1  0  0  0  0
 48 54  1  6  0  0  0
 48 52  1  0  0  0  0
 49 42  1  6  0  0  0
 50 43  1  6  0  0  0
 50 48  1  0  0  0  0
 50 46  1  0  0  0  0
 51 46  1  0  0  0  0
 51 44  1  0  0  0  0
 52 49  1  0  0  0  0
 53 44  1  0  0  0  0
 55 54  1  0  0  0  0
M  END
>  <MODEL>
4

>  <REMARK>
 VINA RESULT:      -6.4      2.304      6.768
  Name = 
  12 active torsions:
  status: ('A' for Active; 'I' for Inactive)
    1  A    between atoms: C_2  and  O_28
    2  A    between atoms: C_6  and  C_20
    3  A    between atoms: C_8  and  C_43
    4  A    between atoms: O_10  and  C_18
    5  A    between atoms: O_10  and  C_32
    6  A    between atoms: C_11  and  C_29
    7  A    between atoms: C_19  and  C_37
    8  A    between atoms: C_20  and  C_22
    9  A    between atoms: N_27  and  C_54
   10  A    between atoms: O_28  and  C_44
   11  A    between atoms: C_33  and  C_52
   12  A    between atoms: C_51  and  C_54
                            x       y       z     vdW  Elec       q    Type
                         _______ _______ _______ _____ _____    ______ ____

>  <TORSDO>
F 12

$$$$
=
 OpenBabel11052415073D

 55 63  0  0  1  0  0  0  0  0999 V2000
  183.1920  177.3370  140.1310 C   0  0  0  0  0  2  0  0  0  0  0  0
  185.5520  178.6720  139.0240 N   0  0  0  0  0  0  0  0  0  0  0  0
  185.0880  177.5150  138.2360 C   0  0  0  0  0  2  0  0  0  0  0  0
  184.2100  177.8410  141.1300 C   0  0  0  0  0  2  0  0  0  0  0  0
  183.6280  176.9890  138.6890 C   0  0  2  0  0  3  0  0  0  0  0  0
  185.1540  178.8860  140.4430 C   0  0  0  0  0  2  0  0  0  0  0  0
  182.5190  177.4050  137.9090 O   0  0  0  0  0  0  0  0  0  0  0  0
  182.5700  176.8630  136.6010 C   0  0  2  0  0  3  0  0  0  0  0  0
  179.5130  175.9890  134.7750 O   0  0  0  0  0  0  0  0  0  0  0  0
  179.8020  173.2870  134.9630 C   0  0  0  0  0  2  0  0  0  0  0  0
  178.9410  171.9860  135.1000 C   0  0  0  0  0  2  0  0  0  0  0  0
  181.4130  172.5880  136.7890 C   0  0  2  0  0  3  0  0  0  0  0  0
  181.0970  171.1640  136.1500 C   0  0  0  0  0  2  0  0  0  0  0  0
  181.3110  177.3070  135.6830 C   0  0  1  0  0  3  0  0  0  0  0  0
  179.5980  170.8770  135.8870 C   0  0  0  0  0  2  0  0  0  0  0  0
  180.5510  173.6580  136.2210 C   0  0  1  0  0  3  0  0  0  0  0  0
  183.1320  174.1040  137.2950 C   0  0  2  0  0  3  0  0  0  0  0  0
  182.7790  172.8410  136.6870 O   0  0  0  0  0  0  0  0  0  0  0  0
  180.5880  176.0430  135.5160 C   0  0  0  0  0  0  0  0  0  0  0  0
  181.2430  174.9460  135.9710 N   0  0  0  0  0  0  0  0  0  0  0  0
  182.4850  175.2580  136.6170 C   0  0  1  0  0  3  0  0  0  0  0  0
  185.4440  172.9230  137.6830 C   0  0  0  0  0  3  0  0  0  0  0  0
  187.4890  173.5290  136.3230 C   0  0  2  0  0  3  0  0  0  0  0  0
  185.2940  174.6890  135.8680 C   0  0  0  0  0  2  0  0  0  0  0  0
  186.7700  174.8920  136.1390 C   0  0  0  0  0  2  0  0  0  0  0  0
  186.7040  172.6450  137.2820 C   0  0  0  0  0  3  0  0  0  0  0  0
  184.6650  174.1860  137.2100 C   0  0  1  0  0  3  0  0  0  0  0  0
  188.7710  173.7500  136.8170 O   0  0  0  0  0  0  0  0  0  0  0  0
  189.5830  173.8790  135.6770 C   0  0  0  0  0  2  0  0  0  0  0  0
  190.2430  172.5900  135.2650 C   0  0  0  0  0  1  0  0  0  0  0  0
  180.8250  179.5490  135.7730 C   0  0  0  0  0  2  0  0  0  0  0  0
  179.8150  178.9300  135.0790 O   0  0  0  0  0  0  0  0  0  0  0  0
  180.3150  178.2460  136.1990 C   0  0  1  0  0  3  0  0  0  0  0  0
  187.0280  178.7590  138.9690 C   0  0  0  0  0  2  0  0  0  0  0  0
  189.1280  177.9840  140.0390 C   0  0  1  0  0  3  0  0  0  0  0  0
  189.3470  177.6430  138.5530 C   0  0  2  0  0  3  0  0  0  0  0  0
  187.9650  177.5170  139.1580 C   0  0  2  0  0  3  0  0  0  0  0  0
  191.4090  176.4630  137.5080 C   0  0  0  0  0  1  0  0  0  0  0  0
  190.1680  176.3470  138.4080 C   0  0  0  0  0  2  0  0  0  0  0  0
  189.5950  176.9180  141.1090 C   0  0  2  0  0  3  0  0  0  0  0  0
  188.9680  175.6500  141.0140 O   0  0  0  0  0  1  0  0  0  0  0  0
  186.4830  177.1350  145.5890 O   0  0  0  0  0  1  0  0  0  0  0  0
  192.0590  178.2540  145.1180 O   0  0  0  0  0  1  0  0  0  0  0  0
  189.5090  177.5510  142.5200 C   0  0  1  0  0  0  0  0  0  0  0  0
  191.5340  176.3400  143.1640 O   0  0  0  0  0  1  0  0  0  0  0  0
  190.5590  177.2920  143.5320 C   0  0  2  0  0  0  0  0  0  0  0  0
  188.0620  178.4540  144.4020 N   0  0  0  0  0  2  0  0  0  0  0  0
  190.2340  176.8190  145.9850 C   0  0  2  0  0  3  0  0  0  0  0  0
  187.8040  177.1980  145.1140 C   0  0  1  0  0  3  0  0  0  0  0  0
  190.7520  177.8540  144.9500 C   0  0  1  0  0  3  0  0  0  0  0  0
  190.6260  178.3670  142.6710 O   0  0  0  0  0  0  0  0  0  0  0  0
  188.7500  177.1220  146.2940 C   0  0  0  0  0  2  0  0  0  0  0  0
  188.2040  178.2460  142.9520 C   0  0  0  0  0  2  0  0  0  0  0  0
  191.0980  176.8350  147.2670 C   0  0  0  0  0  2  0  0  0  0  0  0
  192.2600  176.0780  147.0710 O   0  0  0  0  0  1  0  0  0  0  0  0
  1  4  1  0  0  0  0
  2  6  1  0  0  0  0
  3  5  1  0  0  0  0
  3  2  1  0  0  0  0
  5  7  1  6  0  0  0
  5  1  1  0  0  0  0
  6  4  1  0  0  0  0
  8 21  1  0  0  0  0
  8  7  1  1  0  0  0
  9 19  2  0  0  0  0
 10 11  1  0  0  0  0
 11 15  1  0  0  0  0
 12 13  1  6  0  0  0
 14 19  1  1  0  0  0
 14 33  1  0  0  0  0
 14  8  1  0  0  0  0
 15 13  1  0  0  0  0
 16 10  1  6  0  0  0
 16 12  1  0  0  0  0
 17 18  1  6  0  0  0
 18 12  1  0  0  0  0
 19 20  1  0  0  0  0
 20 16  1  0  0  0  0
 21 20  1  1  0  0  0
 21 17  1  0  0  0  0
 23 28  1  1  0  0  0
 23 26  1  0  0  0  0
 24 25  1  0  0  0  0
 25 23  1  0  0  0  0
 26 22  2  0  0  0  0
 27 24  1  6  0  0  0
 27 17  1  0  0  0  0
 27 22  1  0  0  0  0
 29 28  1  0  0  0  0
 30 29  1  0  0  0  0
 32 31  1  0  0  0  0
 32 33  1  0  0  0  0
 33 31  1  1  0  0  0
 34  2  1  0  0  0  0
 35 40  1  1  0  0  0
 36 39  1  1  0  0  0
 36 37  1  0  0  0  0
 36 35  1  0  0  0  0
 37 34  1  6  0  0  0
 37 35  1  0  0  0  0
 38 39  1  0  0  0  0
 40 41  1  1  0  0  0
 44 40  1  6  0  0  0
 44 51  1  0  0  0  0
 44 53  1  0  0  0  0
 44 46  1  0  0  0  0
 46 45  1  6  0  0  0
 46 50  1  0  0  0  0
 47 49  1  0  0  0  0
 48 52  1  0  0  0  0
 48 54  1  1  0  0  0
 49 42  1  1  0  0  0
 49 52  1  0  0  0  0
 50 43  1  1  0  0  0
 50 48  1  0  0  0  0
 51 46  1  0  0  0  0
 53 47  1  0  0  0  0
 55 54  1  0  0  0  0
M  END
>  <MODEL>
5

>  <REMARK>
 VINA RESULT:      -6.4      2.262     10.286
  Name = 
  12 active torsions:
  status: ('A' for Active; 'I' for Inactive)
    1  A    between atoms: C_2  and  O_28
    2  A    between atoms: C_6  and  C_20
    3  A    between atoms: C_8  and  C_43
    4  A    between atoms: O_10  and  C_18
    5  A    between atoms: O_10  and  C_32
    6  A    between atoms: C_11  and  C_29
    7  A    between atoms: C_19  and  C_37
    8  A    between atoms: C_20  and  C_22
    9  A    between atoms: N_27  and  C_54
   10  A    between atoms: O_28  and  C_44
   11  A    between atoms: C_33  and  C_52
   12  A    between atoms: C_51  and  C_54
                            x       y       z     vdW  Elec       q    Type
                         _______ _______ _______ _____ _____    ______ ____

>  <TORSDO>
F 12

$$$$
=
 OpenBabel11052415073D

 55 63  0  0  1  0  0  0  0  0999 V2000
  185.4330  176.4170  137.1350 C   0  0  0  0  0  2  0  0  0  0  0  0
  188.0800  177.4910  137.7810 N   0  0  0  0  0  0  0  0  0  0  0  0
  187.1830  178.4550  137.1170 C   0  0  0  0  0  2  0  0  0  0  0  0
  186.6020  175.4730  136.9620 C   0  0  0  0  0  2  0  0  0  0  0  0
  185.6500  177.9450  137.0480 C   0  0  2  0  0  3  0  0  0  0  0  0
  187.8460  176.0210  137.7430 C   0  0  0  0  0  2  0  0  0  0  0  0
  184.7530  178.4530  138.0210 O   0  0  0  0  0  0  0  0  0  0  0  0
  184.1380  177.4100  138.7570 C   0  0  2  0  0  3  0  0  0  0  0  0
  180.4940  177.0240  138.8430 O   0  0  0  0  0  0  0  0  0  0  0  0
  180.1540  177.8580  141.4140 C   0  0  0  0  0  2  0  0  0  0  0  0
  179.1280  178.6330  142.3080 C   0  0  0  0  0  2  0  0  0  0  0  0
  182.1340  179.1670  142.3000 C   0  0  2  0  0  3  0  0  0  0  0  0
  181.2460  179.0960  143.6210 C   0  0  0  0  0  2  0  0  0  0  0  0
  182.7700  176.8750  138.0750 C   0  0  1  0  0  3  0  0  0  0  0  0
  179.7470  179.4360  143.4260 C   0  0  0  0  0  2  0  0  0  0  0  0
  181.4110  178.6390  141.1130 C   0  0  1  0  0  3  0  0  0  0  0  0
  184.2290  178.6270  141.3880 C   0  0  2  0  0  3  0  0  0  0  0  0
  183.3610  178.5510  142.5420 O   0  0  0  0  0  0  0  0  0  0  0  0
  181.7520  177.3200  139.0310 C   0  0  0  0  0  0  0  0  0  0  0  0
  182.2400  177.8220  140.1930 N   0  0  0  0  0  0  0  0  0  0  0  0
  183.6720  177.9060  140.2140 C   0  0  1  0  0  3  0  0  0  0  0  0
  186.8460  178.6120  141.1790 C   0  0  0  0  0  3  0  0  0  0  0  0
  188.3260  177.8660  143.0910 C   0  0  2  0  0  3  0  0  0  0  0  0
  185.8180  177.8830  143.3810 C   0  0  0  0  0  2  0  0  0  0  0  0
  187.0780  177.0570  143.5340 C   0  0  0  0  0  2  0  0  0  0  0  0
  188.0700  178.5320  141.7460 C   0  0  0  0  0  3  0  0  0  0  0  0
  185.5670  178.0200  141.8420 C   0  0  1  0  0  3  0  0  0  0  0  0
  189.4200  177.0110  143.0000 O   0  0  0  0  0  0  0  0  0  0  0  0
  189.9710  176.9870  144.2930 C   0  0  0  0  0  2  0  0  0  0  0  0
  190.8020  178.2010  144.6110 C   0  0  0  0  0  1  0  0  0  0  0  0
  182.5740  176.2960  135.8620 C   0  0  0  0  0  2  0  0  0  0  0  0
  181.3110  176.5470  136.3420 O   0  0  0  0  0  0  0  0  0  0  0  0
  182.3320  177.4060  136.7840 C   0  0  1  0  0  3  0  0  0  0  0  0
  189.4750  177.7210  137.3470 C   0  0  0  0  0  2  0  0  0  0  0  0
  191.3500  176.2130  137.9520 C   0  0  1  0  0  3  0  0  0  0  0  0
  190.6180  176.4140  139.2920 C   0  0  2  0  0  3  0  0  0  0  0  0
  190.7060  177.5570  138.3030 C   0  0  2  0  0  3  0  0  0  0  0  0
  191.8940  177.8110  141.0690 C   0  0  0  0  0  1  0  0  0  0  0  0
  191.6200  176.4240  140.4630 C   0  0  0  0  0  2  0  0  0  0  0  0
  192.9300  176.2300  137.9740 C   0  0  2  0  0  3  0  0  0  0  0  0
  193.5180  177.4750  138.3100 O   0  0  0  0  0  1  0  0  0  0  0  0
  197.3250  176.0300  134.7420 O   0  0  0  0  0  1  0  0  0  0  0  0
  192.9890  172.3310  135.0210 O   0  0  0  0  0  1  0  0  0  0  0  0
  193.4580  175.6290  136.6470 C   0  0  1  0  0  0  0  0  0  0  0  0
  193.2110  173.3850  137.5890 O   0  0  0  0  0  1  0  0  0  0  0  0
  193.5220  174.1620  136.4530 C   0  0  2  0  0  0  0  0  0  0  0  0
  194.9590  175.8630  134.6120 N   0  0  0  0  0  2  0  0  0  0  0  0
  195.3860  172.8440  135.3850 C   0  0  2  0  0  3  0  0  0  0  0  0
  196.1970  175.3150  135.1780 C   0  0  1  0  0  3  0  0  0  0  0  0
  193.9190  173.3260  135.2250 C   0  0  1  0  0  3  0  0  0  0  0  0
  192.4150  174.8980  136.0870 O   0  0  0  0  0  0  0  0  0  0  0  0
  196.3260  173.8770  134.7230 C   0  0  0  0  0  2  0  0  0  0  0  0
  194.1490  176.5540  135.6280 C   0  0  0  0  0  2  0  0  0  0  0  0
  195.5760  171.4320  134.7860 C   0  0  0  0  0  2  0  0  0  0  0  0
  196.7270  170.8360  135.3170 O   0  0  0  0  0  1  0  0  0  0  0  0
  3  2  1  0  0  0  0
  4  1  1  0  0  0  0
  4  6  1  0  0  0  0
  5  3  1  0  0  0  0
  5  1  1  0  0  0  0
  5  7  1  1  0  0  0
  6  2  1  0  0  0  0
  8  7  1  6  0  0  0
  8 21  1  0  0  0  0
  9 19  2  0  0  0  0
 10 11  1  0  0  0  0
 11 15  1  0  0  0  0
 12 18  1  0  0  0  0
 12 13  1  1  0  0  0
 14  8  1  0  0  0  0
 14 19  1  1  0  0  0
 15 13  1  0  0  0  0
 16 10  1  1  0  0  0
 16 12  1  0  0  0  0
 17 27  1  0  0  0  0
 17 18  1  1  0  0  0
 19 20  1  0  0  0  0
 20 16  1  0  0  0  0
 21 20  1  6  0  0  0
 21 17  1  0  0  0  0
 22 26  2  0  0  0  0
 23 28  1  6  0  0  0
 23 25  1  0  0  0  0
 24 25  1  0  0  0  0
 26 23  1  0  0  0  0
 27 22  1  1  0  0  0
 27 24  1  0  0  0  0
 28 29  1  0  0  0  0
 29 30  1  0  0  0  0
 31 32  1  0  0  0  0
 32 33  1  0  0  0  0
 33 31  1  6  0  0  0
 33 14  1  0  0  0  0
 34  2  1  0  0  0  0
 35 40  1  1  0  0  0
 35 37  1  0  0  0  0
 35 36  1  0  0  0  0
 36 39  1  1  0  0  0
 37 34  1  6  0  0  0
 37 36  1  0  0  0  0
 39 38  1  0  0  0  0
 40 41  1  6  0  0  0
 44 40  1  1  0  0  0
 46 44  1  0  0  0  0
 46 45  1  1  0  0  0
 47 49  1  0  0  0  0
 47 53  1  0  0  0  0
 48 54  1  6  0  0  0
 49 42  1  6  0  0  0
 50 43  1  1  0  0  0
 50 48  1  0  0  0  0
 50 46  1  0  0  0  0
 51 46  1  0  0  0  0
 51 44  1  0  0  0  0
 52 49  1  0  0  0  0
 52 48  1  0  0  0  0
 53 44  1  0  0  0  0
 54 55  1  0  0  0  0
M  END
>  <MODEL>
6

>  <REMARK>
 VINA RESULT:      -6.0      3.346     10.413
  Name = 
  12 active torsions:
  status: ('A' for Active; 'I' for Inactive)
    1  A    between atoms: C_2  and  O_28
    2  A    between atoms: C_6  and  C_20
    3  A    between atoms: C_8  and  C_43
    4  A    between atoms: O_10  and  C_18
    5  A    between atoms: O_10  and  C_32
    6  A    between atoms: C_11  and  C_29
    7  A    between atoms: C_19  and  C_37
    8  A    between atoms: C_20  and  C_22
    9  A    between atoms: N_27  and  C_54
   10  A    between atoms: O_28  and  C_44
   11  A    between atoms: C_33  and  C_52
   12  A    between atoms: C_51  and  C_54
                            x       y       z     vdW  Elec       q    Type
                         _______ _______ _______ _____ _____    ______ ____

>  <TORSDO>
F 12

$$$$
=
 OpenBabel11052415073D

 55 63  0  0  1  0  0  0  0  0999 V2000
  190.0180  177.5720  137.5360 C   0  0  0  0  0  2  0  0  0  0  0  0
  187.6220  175.9060  137.2870 N   0  0  0  0  0  0  0  0  0  0  0  0
  188.2250  176.2910  135.9980 C   0  0  0  0  0  2  0  0  0  0  0  0
  188.9070  177.8410  138.5250 C   0  0  0  0  0  2  0  0  0  0  0  0
  189.6960  176.9430  136.1600 C   0  0  2  0  0  3  0  0  0  0  0  0
  187.9190  176.6240  138.5580 C   0  0  0  0  0  2  0  0  0  0  0  0
  190.8090  176.0970  135.9250 O   0  0  0  0  0  0  0  0  0  0  0  0
  190.9090  175.0820  136.9100 C   0  0  2  0  0  3  0  0  0  0  0  0
  194.1640  173.8710  138.0820 O   0  0  0  0  0  0  0  0  0  0  0  0
  194.0570  171.4470  136.8450 C   0  0  0  0  0  2  0  0  0  0  0  0
  194.9950  170.3980  136.1580 C   0  0  0  0  0  2  0  0  0  0  0  0
  192.3520  171.3650  134.9730 C   0  0  2  0  0  3  0  0  0  0  0  0
  192.8230  169.8430  134.9740 C   0  0  0  0  0  2  0  0  0  0  0  0
  192.2060  175.2530  137.8650 C   0  0  1  0  0  3  0  0  0  0  0  0
  194.3560  169.6280  135.0270 C   0  0  0  0  0  2  0  0  0  0  0  0
  193.1790  172.2050  135.8780 C   0  0  1  0  0  3  0  0  0  0  0  0
  190.4910  172.7780  135.1990 C   0  0  2  0  0  3  0  0  0  0  0  0
  190.9840  171.4190  135.2350 O   0  0  0  0  0  0  0  0  0  0  0  0
  193.0300  174.1050  137.4780 C   0  0  0  0  0  0  0  0  0  0  0  0
  192.4190  173.2150  136.6560 N   0  0  0  0  0  0  0  0  0  0  0  0
  191.1080  173.6310  136.2490 C   0  0  1  0  0  3  0  0  0  0  0  0
  188.2660  171.5230  134.5940 C   0  0  0  0  0  3  0  0  0  0  0  0
  186.2940  171.4760  136.1790 C   0  0  2  0  0  3  0  0  0  0  0  0
  188.4110  172.6780  136.8470 C   0  0  0  0  0  2  0  0  0  0  0  0
  186.9060  172.7930  136.7280 C   0  0  0  0  0  2  0  0  0  0  0  0
  187.0720  171.0050  134.9570 C   0  0  0  0  0  3  0  0  0  0  0  0
  188.9690  172.6650  135.3850 C   0  0  1  0  0  3  0  0  0  0  0  0
  184.9620  171.6940  135.8410 O   0  0  0  0  0  0  0  0  0  0  0  0
  184.3170  171.9580  137.0620 C   0  0  0  0  0  2  0  0  0  0  0  0
  182.8270  172.1250  136.9260 C   0  0  0  0  0  1  0  0  0  0  0  0
  192.9460  177.1060  139.0000 C   0  0  0  0  0  2  0  0  0  0  0  0
  194.0350  176.3080  138.7470 O   0  0  0  0  0  0  0  0  0  0  0  0
  193.0830  176.4140  137.7190 C   0  0  1  0  0  3  0  0  0  0  0  0
  186.1500  175.8460  137.1560 C   0  0  0  0  0  2  0  0  0  0  0  0
  184.2270  177.0390  138.1730 C   0  0  1  0  0  3  0  0  0  0  0  0
  183.7940  176.8680  136.7050 C   0  0  2  0  0  3  0  0  0  0  0  0
  185.2500  177.1230  137.0360 C   0  0  2  0  0  3  0  0  0  0  0  0
  181.5060  177.7560  135.8620 C   0  0  0  0  0  1  0  0  0  0  0  0
  182.9610  178.0790  136.2400 C   0  0  0  0  0  2  0  0  0  0  0  0
  183.9190  178.4240  138.8690 C   0  0  2  0  0  3  0  0  0  0  0  0
  184.9940  179.3490  138.8780 O   0  0  0  0  0  1  0  0  0  0  0  0
  184.4170  179.7610  144.1380 O   0  0  0  0  0  1  0  0  0  0  0  0
  179.8320  177.6820  141.4520 O   0  0  0  0  0  1  0  0  0  0  0  0
  183.3140  178.1600  140.2700 C   0  0  1  0  0  0  0  0  0  0  0  0
  181.2050  179.1470  139.5200 O   0  0  0  0  0  1  0  0  0  0  0  0
  181.8940  178.4760  140.5530 C   0  0  2  0  0  0  0  0  0  0  0  0
  183.6650  177.9650  142.7770 N   0  0  0  0  0  2  0  0  0  0  0  0
  180.9540  179.5540  142.6270 C   0  0  2  0  0  3  0  0  0  0  0  0
  183.5060  179.3780  143.1400 C   0  0  1  0  0  3  0  0  0  0  0  0
  181.0410  178.2370  141.8100 C   0  0  1  0  0  3  0  0  0  0  0  0
  182.2890  177.2330  140.1040 O   0  0  0  0  0  0  0  0  0  0  0  0
  182.0990  179.5730  143.6650 C   0  0  0  0  0  2  0  0  0  0  0  0
  184.2520  177.8040  141.4380 C   0  0  0  0  0  2  0  0  0  0  0  0
  179.5700  179.6990  143.3010 C   0  0  0  0  0  2  0  0  0  0  0  0
  179.4540  178.7900  144.3600 O   0  0  0  0  0  1  0  0  0  0  0  0
  1  4  1  0  0  0  0
  2  6  1  0  0  0  0
  3  5  1  0  0  0  0
  3  2  1  0  0  0  0
  4  6  1  0  0  0  0
  5  7  1  1  0  0  0
  5  1  1  0  0  0  0
  8  7  1  6  0  0  0
  8 14  1  0  0  0  0
 11 10  1  0  0  0  0
 12 13  1  1  0  0  0
 12 18  1  0  0  0  0
 12 16  1  0  0  0  0
 13 15  1  0  0  0  0
 14 19  1  6  0  0  0
 15 11  1  0  0  0  0
 16 20  1  0  0  0  0
 16 10  1  1  0  0  0
 17 18  1  1  0  0  0
 17 27  1  0  0  0  0
 17 21  1  0  0  0  0
 19  9  2  0  0  0  0
 20 19  1  0  0  0  0
 21 20  1  6  0  0  0
 21  8  1  0  0  0  0
 22 26  2  0  0  0  0
 23 28  1  6  0  0  0
 23 25  1  0  0  0  0
 25 24  1  0  0  0  0
 26 23  1  0  0  0  0
 27 22  1  1  0  0  0
 27 24  1  0  0  0  0
 28 29  1  0  0  0  0
 30 29  1  0  0  0  0
 32 31  1  0  0  0  0
 33 14  1  0  0  0  0
 33 32  1  0  0  0  0
 33 31  1  1  0  0  0
 34  2  1  0  0  0  0
 35 40  1  6  0  0  0
 36 39  1  6  0  0  0
 36 37  1  0  0  0  0
 36 35  1  0  0  0  0
 37 34  1  1  0  0  0
 37 35  1  0  0  0  0
 38 39  1  0  0  0  0
 40 41  1  1  0  0  0
 44 40  1  6  0  0  0
 44 46  1  0  0  0  0
 44 53  1  0  0  0  0
 46 45  1  6  0  0  0
 46 50  1  0  0  0  0
 47 49  1  0  0  0  0
 48 54  1  1  0  0  0
 48 52  1  0  0  0  0
 49 52  1  0  0  0  0
 49 42  1  1  0  0  0
 50 43  1  6  0  0  0
 50 48  1  0  0  0  0
 51 44  1  0  0  0  0
 51 46  1  0  0  0  0
 53 47  1  0  0  0  0
 54 55  1  0  0  0  0
M  END
>  <MODEL>
7

>  <REMARK>
 VINA RESULT:      -5.9      3.640      6.906
  Name = 
  12 active torsions:
  status: ('A' for Active; 'I' for Inactive)
    1  A    between atoms: C_2  and  O_28
    2  A    between atoms: C_6  and  C_20
    3  A    between atoms: C_8  and  C_43
    4  A    between atoms: O_10  and  C_18
    5  A    between atoms: O_10  and  C_32
    6  A    between atoms: C_11  and  C_29
    7  A    between atoms: C_19  and  C_37
    8  A    between atoms: C_20  and  C_22
    9  A    between atoms: N_27  and  C_54
   10  A    between atoms: O_28  and  C_44
   11  A    between atoms: C_33  and  C_52
   12  A    between atoms: C_51  and  C_54
                            x       y       z     vdW  Elec       q    Type
                         _______ _______ _______ _____ _____    ______ ____

>  <TORSDO>
F 12

$$$$
=
 OpenBabel11052415073D

 55 63  0  0  1  0  0  0  0  0999 V2000
  186.5650  174.6330  136.6590 C   0  0  0  0  0  2  0  0  0  0  0  0
  189.2010  175.8800  136.3900 N   0  0  0  0  0  0  0  0  0  0  0  0
  188.2910  176.1440  135.2610 C   0  0  0  0  0  2  0  0  0  0  0  0
  187.7440  173.8240  137.1500 C   0  0  0  0  0  2  0  0  0  0  0  0
  186.7640  175.7090  135.5670 C   0  0  2  0  0  3  0  0  0  0  0  0
  188.9850  174.7610  137.3500 C   0  0  0  0  0  2  0  0  0  0  0  0
  185.8640  176.7330  135.9580 O   0  0  0  0  0  0  0  0  0  0  0  0
  184.9580  176.2800  136.9490 C   0  0  2  0  0  3  0  0  0  0  0  0
  181.3310  176.4650  136.4480 O   0  0  0  0  0  0  0  0  0  0  0  0
  180.8790  178.4940  138.2080 C   0  0  0  0  0  2  0  0  0  0  0  0
  179.9450  179.7360  138.4070 C   0  0  0  0  0  2  0  0  0  0  0  0
  182.9750  179.7990  138.7740 C   0  0  2  0  0  3  0  0  0  0  0  0
  181.9440  180.5060  139.7610 C   0  0  0  0  0  2  0  0  0  0  0  0
  183.5970  175.6610  136.3260 C   0  0  1  0  0  3  0  0  0  0  0  0
  180.5860  180.8970  139.1260 C   0  0  0  0  0  2  0  0  0  0  0  0
  182.3010  178.8540  137.8470 C   0  0  1  0  0  3  0  0  0  0  0  0
  184.9980  178.6120  138.6710 C   0  0  2  0  0  3  0  0  0  0  0  0
  184.0040  179.2290  139.5220 O   0  0  0  0  0  0  0  0  0  0  0  0
  182.5930  176.6480  136.7330 C   0  0  0  0  0  0  0  0  0  0  0  0
  183.0380  177.5890  137.6030 N   0  0  0  0  0  0  0  0  0  0  0  0
  184.4410  177.4850  137.8780 C   0  0  1  0  0  3  0  0  0  0  0  0
  187.5090  177.9080  138.9730 C   0  0  0  0  0  3  0  0  0  0  0  0
  188.7120  178.1920  141.1810 C   0  0  2  0  0  3  0  0  0  0  0  0
  186.3060  178.9230  140.9620 C   0  0  0  0  0  2  0  0  0  0  0  0
  187.2860  178.1170  141.7880 C   0  0  0  0  0  2  0  0  0  0  0  0
  188.6600  177.9300  139.6820 C   0  0  0  0  0  3  0  0  0  0  0  0
  186.1120  178.1400  139.6200 C   0  0  1  0  0  3  0  0  0  0  0  0
  189.5260  177.2500  141.8020 O   0  0  0  0  0  0  0  0  0  0  0  0
  190.0300  177.9000  142.9420 C   0  0  0  0  0  2  0  0  0  0  0  0
  189.8270  177.1190  144.2120 C   0  0  0  0  0  1  0  0  0  0  0  0
  183.6520  174.1110  134.6330 C   0  0  0  0  0  2  0  0  0  0  0  0
  182.3810  174.6310  134.6830 O   0  0  0  0  0  0  0  0  0  0  0  0
  183.4370  175.5370  134.8770 C   0  0  1  0  0  3  0  0  0  0  0  0
  190.5920  175.7680  135.9000 C   0  0  0  0  0  2  0  0  0  0  0  0
  192.7220  175.3580  137.1040 C   0  0  1  0  0  3  0  0  0  0  0  0
  191.9290  176.2380  138.0880 C   0  0  2  0  0  3  0  0  0  0  0  0
  191.8040  176.4750  136.5980 C   0  0  2  0  0  3  0  0  0  0  0  0
  192.4490  177.4660  140.3150 C   0  0  0  0  0  1  0  0  0  0  0  0
  192.8760  177.1720  138.8670 C   0  0  0  0  0  2  0  0  0  0  0  0
  194.2640  175.6620  136.9320 C   0  0  2  0  0  3  0  0  0  0  0  0
  194.5710  176.8790  136.2740 O   0  0  0  0  0  1  0  0  0  0  0  0
  198.9080  173.9960  134.5950 O   0  0  0  0  0  1  0  0  0  0  0  0
  194.9380  170.8230  137.1910 O   0  0  0  0  0  1  0  0  0  0  0  0
  194.9540  174.4240  136.3060 C   0  0  1  0  0  0  0  0  0  0  0  0
  194.8460  173.2950  138.4740 O   0  0  0  0  0  1  0  0  0  0  0  0
  195.1740  173.1950  137.1040 C   0  0  2  0  0  0  0  0  0  0  0  0
  196.5870  173.4890  134.6020 N   0  0  0  0  0  2  0  0  0  0  0  0
  197.2370  171.7480  137.1400 C   0  0  2  0  0  3  0  0  0  0  0  0
  197.8210  173.5910  135.3880 C   0  0  1  0  0  3  0  0  0  0  0  0
  195.7480  171.8260  136.7050 C   0  0  1  0  0  3  0  0  0  0  0  0
  194.0350  173.3790  136.3490 O   0  0  0  0  0  0  0  0  0  0  0  0
  198.1240  172.2260  135.9690 C   0  0  0  0  0  2  0  0  0  0  0  0
  195.6340  174.5600  134.9310 C   0  0  0  0  0  2  0  0  0  0  0  0
  197.6100  170.3190  137.5930 C   0  0  0  0  0  2  0  0  0  0  0  0
  198.5990  169.7920  136.7540 O   0  0  0  0  0  1  0  0  0  0  0  0
  1  4  1  0  0  0  0
  2  6  1  0  0  0  0
  3  5  1  0  0  0  0
  3  2  1  0  0  0  0
  4  6  1  0  0  0  0
  5  7  1  1  0  0  0
  5  1  1  0  0  0  0
  8  7  1  6  0  0  0
  8 21  1  0  0  0  0
  9 19  2  0  0  0  0
 10 11  1  0  0  0  0
 11 15  1  0  0  0  0
 12 18  1  0  0  0  0
 12 13  1  1  0  0  0
 14 19  1  6  0  0  0
 14  8  1  0  0  0  0
 15 13  1  0  0  0  0
 16 10  1  1  0  0  0
 16 12  1  0  0  0  0
 17 18  1  1  0  0  0
 17 27  1  0  0  0  0
 19 20  1  0  0  0  0
 20 16  1  0  0  0  0
 21 20  1  6  0  0  0
 21 17  1  0  0  0  0
 22 26  2  0  0  0  0
 23 25  1  0  0  0  0
 23 28  1  1  0  0  0
 24 25  1  0  0  0  0
 26 23  1  0  0  0  0
 27 22  1  6  0  0  0
 27 24  1  0  0  0  0
 28 29  1  0  0  0  0
 29 30  1  0  0  0  0
 31 32  1  0  0  0  0
 32 33  1  0  0  0  0
 33 31  1  6  0  0  0
 33 14  1  0  0  0  0
 34  2  1  0  0  0  0
 35 40  1  1  0  0  0
 35 36  1  0  0  0  0
 36 39  1  1  0  0  0
 37 34  1  6  0  0  0
 37 35  1  0  0  0  0
 37 36  1  0  0  0  0
 39 38  1  0  0  0  0
 40 41  1  6  0  0  0
 44 51  1  0  0  0  0
 44 40  1  1  0  0  0
 44 46  1  0  0  0  0
 46 45  1  1  0  0  0
 47 53  1  0  0  0  0
 47 49  1  0  0  0  0
 48 54  1  6  0  0  0
 49 42  1  6  0  0  0
 49 52  1  0  0  0  0
 50 46  1  0  0  0  0
 50 48  1  0  0  0  0
 50 43  1  1  0  0  0
 51 46  1  0  0  0  0
 52 48  1  0  0  0  0
 53 44  1  0  0  0  0
 55 54  1  0  0  0  0
M  END
>  <MODEL>
8

>  <REMARK>
 VINA RESULT:      -5.9      3.986     11.257
  Name = 
  12 active torsions:
  status: ('A' for Active; 'I' for Inactive)
    1  A    between atoms: C_2  and  O_28
    2  A    between atoms: C_6  and  C_20
    3  A    between atoms: C_8  and  C_43
    4  A    between atoms: O_10  and  C_18
    5  A    between atoms: O_10  and  C_32
    6  A    between atoms: C_11  and  C_29
    7  A    between atoms: C_19  and  C_37
    8  A    between atoms: C_20  and  C_22
    9  A    between atoms: N_27  and  C_54
   10  A    between atoms: O_28  and  C_44
   11  A    between atoms: C_33  and  C_52
   12  A    between atoms: C_51  and  C_54
                            x       y       z     vdW  Elec       q    Type
                         _______ _______ _______ _____ _____    ______ ____

>  <TORSDO>
F 12

$$$$
=
 OpenBabel11052415073D

 55 63  0  0  1  0  0  0  0  0999 V2000
  184.0320  180.0360  143.6850 C   0  0  0  0  0  2  0  0  0  0  0  0
  184.1310  177.8950  141.6890 N   0  0  0  0  0  0  0  0  0  0  0  0
  185.1620  178.9340  141.5110 C   0  0  0  0  0  2  0  0  0  0  0  0
  182.7010  179.5020  143.2060 C   0  0  0  0  0  2  0  0  0  0  0  0
  185.2820  179.9280  142.7810 C   0  0  2  0  0  3  0  0  0  0  0  0
  182.9070  178.1130  142.5090 C   0  0  0  0  0  2  0  0  0  0  0  0
  186.3260  179.6740  143.7060 O   0  0  0  0  0  0  0  0  0  0  0  0
  186.4520  178.2900  143.9830 C   0  0  2  0  0  3  0  0  0  0  0  0
  187.0880  177.0720  147.3820 O   0  0  0  0  0  0  0  0  0  0  0  0
  189.6770  176.3330  146.9670 C   0  0  0  0  0  2  0  0  0  0  0  0
  191.0480  176.2610  147.7190 C   0  0  0  0  0  2  0  0  0  0  0  0
  190.6960  177.4080  144.9120 C   0  0  2  0  0  3  0  0  0  0  0  0
  191.8970  176.4520  145.3380 C   0  0  0  0  0  2  0  0  0  0  0  0
  185.9020  177.8860  145.4530 C   0  0  1  0  0  3  0  0  0  0  0  0
  192.2590  176.4810  146.8440 C   0  0  0  0  0  2  0  0  0  0  0  0
  189.6100  177.4260  145.9260 C   0  0  1  0  0  3  0  0  0  0  0  0
  189.2120  177.9340  143.1700 C   0  0  2  0  0  3  0  0  0  0  0  0
  190.2740  177.0650  143.6280 O   0  0  0  0  0  0  0  0  0  0  0  0
  187.1330  177.5120  146.1530 C   0  0  0  0  0  0  0  0  0  0  0  0
  188.2360  177.4310  145.3660 N   0  0  0  0  0  0  0  0  0  0  0  0
  187.9900  177.8250  144.0090 C   0  0  1  0  0  3  0  0  0  0  0  0
  188.2330  178.5730  140.8200 C   0  0  0  0  0  3  0  0  0  0  0  0
  189.1040  177.5250  138.6880 C   0  0  2  0  0  3  0  0  0  0  0  0
  190.1210  176.8810  140.9070 C   0  0  0  0  0  2  0  0  0  0  0  0
  189.5220  176.3560  139.6200 C   0  0  0  0  0  2  0  0  0  0  0  0
  188.3120  178.5630  139.4700 C   0  0  0  0  0  3  0  0  0  0  0  0
  188.9390  177.5140  141.7160 C   0  0  1  0  0  3  0  0  0  0  0  0
  188.3350  177.0260  137.6420 O   0  0  0  0  0  0  0  0  0  0  0  0
  189.0560  175.9210  137.1550 C   0  0  0  0  0  2  0  0  0  0  0  0
  189.7950  176.2080  135.8760 C   0  0  0  0  0  1  0  0  0  0  0  0
  183.8460  178.5870  146.1960 C   0  0  0  0  0  2  0  0  0  0  0  0
  184.5680  178.1750  147.2900 O   0  0  0  0  0  0  0  0  0  0  0  0
  185.2720  178.8920  146.3080 C   0  0  1  0  0  3  0  0  0  0  0  0
  183.6870  177.3960  140.3700 C   0  0  0  0  0  2  0  0  0  0  0  0
  182.1530  176.6140  138.5840 C   0  0  1  0  0  3  0  0  0  0  0  0
  181.7610  178.0940  138.7580 C   0  0  2  0  0  3  0  0  0  0  0  0
  182.1780  177.2790  139.9630 C   0  0  2  0  0  3  0  0  0  0  0  0
  179.8730  178.9730  137.2090 C   0  0  0  0  0  1  0  0  0  0  0  0
  180.2490  178.2860  138.5320 C   0  0  0  0  0  2  0  0  0  0  0  0
  180.9840  175.5670  138.3930 C   0  0  2  0  0  3  0  0  0  0  0  0
  180.5980  174.8710  139.5670 O   0  0  0  0  0  1  0  0  0  0  0  0
  184.4720  171.6900  136.7810 O   0  0  0  0  0  1  0  0  0  0  0  0
  179.2320  172.7610  134.7900 O   0  0  0  0  0  1  0  0  0  0  0  0
  181.3300  174.6380  137.2030 C   0  0  1  0  0  0  0  0  0  0  0  0
  179.1650  173.5310  137.4660 O   0  0  0  0  0  1  0  0  0  0  0  0
  180.3460  173.6500  136.7030 C   0  0  2  0  0  0  0  0  0  0  0  0
  183.1000  173.4000  135.8680 N   0  0  0  0  0  2  0  0  0  0  0  0
  180.7910  171.2690  136.0100 C   0  0  2  0  0  3  0  0  0  0  0  0
  183.1550  172.1630  136.6550 C   0  0  1  0  0  3  0  0  0  0  0  0
  180.4070  172.6860  135.5060 C   0  0  1  0  0  3  0  0  0  0  0  0
  180.4260  174.9260  136.1850 O   0  0  0  0  0  0  0  0  0  0  0  0
  182.3270  171.1150  135.9420 C   0  0  0  0  0  2  0  0  0  0  0  0
  182.7850  174.5700  136.7030 C   0  0  0  0  0  2  0  0  0  0  0  0
  180.0710  170.1740  135.1910 C   0  0  0  0  0  2  0  0  0  0  0  0
  178.9310  169.7340  135.8750 O   0  0  0  0  0  1  0  0  0  0  0  0
  2  6  1  0  0  0  0
  3  2  1  0  0  0  0
  3  5  1  0  0  0  0
  4  1  1  0  0  0  0
  5  1  1  0  0  0  0
  5  7  1  1  0  0  0
  6  4  1  0  0  0  0
  8  7  1  1  0  0  0
  8 21  1  0  0  0  0
  8 14  1  0  0  0  0
 10 11  1  0  0  0  0
 12 13  1  1  0  0  0
 12 16  1  0  0  0  0
 13 15  1  0  0  0  0
 14 19  1  1  0  0  0
 14 33  1  0  0  0  0
 15 11  1  0  0  0  0
 16 10  1  1  0  0  0
 17 18  1  1  0  0  0
 17 21  1  0  0  0  0
 18 12  1  0  0  0  0
 19  9  2  0  0  0  0
 20 16  1  0  0  0  0
 20 19  1  0  0  0  0
 21 20  1  1  0  0  0
 23 28  1  6  0  0  0
 23 26  1  0  0  0  0
 23 25  1  0  0  0  0
 24 27  1  0  0  0  0
 25 24  1  0  0  0  0
 26 22  2  0  0  0  0
 27 22  1  6  0  0  0
 27 17  1  0  0  0  0
 29 28  1  0  0  0  0
 30 29  1  0  0  0  0
 31 32  1  0  0  0  0
 33 31  1  6  0  0  0
 33 32  1  0  0  0  0
 34  2  1  0  0  0  0
 35 40  1  1  0  0  0
 35 36  1  0  0  0  0
 35 37  1  0  0  0  0
 36 39  1  1  0  0  0
 36 37  1  0  0  0  0
 37 34  1  6  0  0  0
 38 39  1  0  0  0  0
 40 41  1  1  0  0  0
 44 40  1  1  0  0  0
 46 44  1  0  0  0  0
 46 45  1  1  0  0  0
 47 49  1  0  0  0  0
 47 53  1  0  0  0  0
 48 54  1  6  0  0  0
 49 42  1  6  0  0  0
 50 43  1  1  0  0  0
 50 48  1  0  0  0  0
 50 46  1  0  0  0  0
 51 46  1  0  0  0  0
 51 44  1  0  0  0  0
 52 48  1  0  0  0  0
 52 49  1  0  0  0  0
 53 44  1  0  0  0  0
 54 55  1  0  0  0  0
M  END
>  <MODEL>
9

>  <REMARK>
 VINA RESULT:      -5.5      2.480      6.029
  Name = 
  12 active torsions:
  status: ('A' for Active; 'I' for Inactive)
    1  A    between atoms: C_2  and  O_28
    2  A    between atoms: C_6  and  C_20
    3  A    between atoms: C_8  and  C_43
    4  A    between atoms: O_10  and  C_18
    5  A    between atoms: O_10  and  C_32
    6  A    between atoms: C_11  and  C_29
    7  A    between atoms: C_19  and  C_37
    8  A    between atoms: C_20  and  C_22
    9  A    between atoms: N_27  and  C_54
   10  A    between atoms: O_28  and  C_44
   11  A    between atoms: C_33  and  C_52
   12  A    between atoms: C_51  and  C_54
                            x       y       z     vdW  Elec       q    Type
                         _______ _______ _______ _____ _____    ______ ____

>  <TORSDO>
F 12

$$$$
