=
 OpenBabel11052412353D

 30 34  0  0  1  0  0  0  0  0999 V2000
  181.9110  178.4700  136.6400 C   0  0  0  0  0  2  0  0  0  0  0  0
  179.9570  178.7380  138.1720 C   0  0  0  0  0  0  0  0  0  0  0  0
  183.0720  178.7180  139.5500 C   0  0  0  0  0  2  0  0  0  0  0  0
  182.4270  177.1900  135.9690 C   0  0  2  0  0  3  0  0  0  0  0  0
  181.6050  175.9190  136.2740 C   0  0  2  0  0  3  0  0  0  0  0  0
  184.4240  172.2080  135.8810 C   0  0  0  0  0  2  0  0  0  0  0  0
  182.4120  174.6740  136.2680 N   0  0  0  0  0  0  0  0  0  0  0  0
  185.7440  176.1130  137.2120 O   0  0  0  0  0  0  0  0  0  0  0  0
  184.5070  178.2400  139.3800 C   0  0  0  0  0  2  0  0  0  0  0  0
  180.4270  175.9100  135.2950 C   0  0  0  0  0  1  0  0  0  0  0  0
  182.9290  174.5270  137.6280 C   0  0  0  0  0  2  0  0  0  0  0  0
  179.1930  178.3550  139.4000 C   0  0  0  0  0  2  0  0  0  0  0  0
  185.4420  174.7660  136.8980 C   0  0  2  0  0  3  0  0  0  0  0  0
  185.1310  173.2160  135.0030 C   0  0  0  0  0  3  0  0  0  0  0  0
  179.3930  179.4590  137.3070 O   0  0  0  0  0  0  0  0  0  0  0  0
  182.0910  177.6730  139.0360 C   0  0  2  0  0  3  0  0  0  0  0  0
  180.1290  178.0920  140.5720 C   0  0  0  0  0  2  0  0  0  0  0  0
  181.2820  178.2240  137.9390 N   0  0  0  0  0  0  0  0  0  0  0  0
  183.9530  177.0930  135.9110 C   0  0  0  0  0  2  0  0  0  0  0  0
  184.9040  178.2270  137.9130 C   0  0  0  0  0  2  0  0  0  0  0  0
  184.5710  176.8840  137.2890 C   0  0  2  0  0  3  0  0  0  0  0  0
  185.5550  174.4070  135.4460 C   0  0  0  0  0  3  0  0  0  0  0  0
  184.4990  172.5080  137.3860 C   0  0  0  0  0  2  0  0  0  0  0  0
  181.2460  177.1220  140.1870 C   0  0  1  0  0  3  0  0  0  0  0  0
  180.6930  175.7470  139.8480 C   0  0  0  0  0  1  0  0  0  0  0  0
  184.3770  174.0000  137.7030 C   0  0  2  0  0  3  0  0  0  0  0  0
  181.5490  173.5050  136.0810 C   0  0  0  0  0  2  0  0  0  0  0  0
  180.8160  171.7120  137.4610 O   0  0  0  0  0  0  0  0  0  0  0  0
  179.6350  172.3980  137.1340 C   0  0  0  0  0  2  0  0  0  0  0  0
  180.9000  173.1150  137.3970 C   0  0  2  0  0  3  0  0  0  0  0  0
  1 18  1  0  0  0  0
  2 12  1  0  0  0  0
  4 19  1  1  0  0  0
  4  5  1  0  0  0  0
  4  1  1  0  0  0  0
  5 10  1  6  0  0  0
  6 23  1  0  0  0  0
  7  5  1  0  0  0  0
  7 11  1  0  0  0  0
  8 21  1  0  0  0  0
  9  3  1  0  0  0  0
 11 26  1  0  0  0  0
 12 17  1  0  0  0  0
 13 22  1  6  0  0  0
 13  8  1  0  0  0  0
 13 26  1  0  0  0  0
 14 22  2  0  0  0  0
 14  6  1  0  0  0  0
 15  2  2  0  0  0  0
 16  3  1  1  0  0  0
 16 24  1  0  0  0  0
 18  2  1  0  0  0  0
 18 16  1  0  0  0  0
 20  9  1  0  0  0  0
 21 19  1  6  0  0  0
 21 20  1  0  0  0  0
 24 25  1  6  0  0  0
 24 17  1  0  0  0  0
 26 23  1  6  0  0  0
 27  7  1  0  0  0  0
 29 30  1  0  0  0  0
 29 28  1  0  0  0  0
 30 27  1  6  0  0  0
 30 28  1  0  0  0  0
M  END
>  <MODEL>
1

>  <REMARK>
 VINA RESULT:      -4.6      0.000      0.000
  Name = 
  2 active torsions:
  status: ('A' for Active; 'I' for Inactive)
    1  A    between atoms: C_6  and  N_8
    2  A    between atoms: C_6  and  C_21
                            x       y       z     vdW  Elec       q    Type
                         _______ _______ _______ _____ _____    ______ ____

>  <TORSDO>
F 2

$$$$
=
 OpenBabel11052412353D

 30 34  0  0  1  0  0  0  0  0999 V2000
  181.2360  177.6400  140.6630 C   0  0  0  0  0  2  0  0  0  0  0  0
  180.4130  179.9950  140.5440 C   0  0  0  0  0  0  0  0  0  0  0  0
  178.9310  177.6850  138.5270 C   0  0  0  0  0  2  0  0  0  0  0  0
  182.5140  177.0460  140.0540 C   0  0  2  0  0  3  0  0  0  0  0  0
  183.4030  178.0550  139.2940 C   0  0  2  0  0  3  0  0  0  0  0  0
  185.8360  175.7260  136.0510 C   0  0  0  0  0  2  0  0  0  0  0  0
  184.1640  177.4490  138.1740 N   0  0  0  0  0  0  0  0  0  0  0  0
  181.8550  174.6130  137.3430 O   0  0  0  0  0  0  0  0  0  0  0  0
  179.1170  176.3580  137.8050 C   0  0  0  0  0  2  0  0  0  0  0  0
  184.2740  178.7520  140.3430 C   0  0  0  0  0  1  0  0  0  0  0  0
  183.2830  177.5220  137.0080 C   0  0  0  0  0  2  0  0  0  0  0  0
  180.0370  181.2140  139.7610 C   0  0  0  0  0  2  0  0  0  0  0  0
  183.1040  174.9130  136.7470 C   0  0  2  0  0  3  0  0  0  0  0  0
  185.5370  174.6280  137.0460 C   0  0  0  0  0  3  0  0  0  0  0  0
  180.5590  180.0970  141.7910 O   0  0  0  0  0  0  0  0  0  0  0  0
  180.2190  178.4960  138.5070 C   0  0  2  0  0  3  0  0  0  0  0  0
  179.2850  180.8430  138.4910 C   0  0  0  0  0  2  0  0  0  0  0  0
  180.6880  178.7490  139.8780 N   0  0  0  0  0  0  0  0  0  0  0  0
  182.3300  175.6390  139.4830 C   0  0  0  0  0  2  0  0  0  0  0  0
  180.0090  175.4260  138.6080 C   0  0  0  0  0  2  0  0  0  0  0  0
  181.4650  175.6320  138.2280 C   0  0  2  0  0  3  0  0  0  0  0  0
  184.2950  174.2830  137.4080 C   0  0  0  0  0  3  0  0  0  0  0  0
  184.6190  176.2110  135.2490 C   0  0  0  0  0  2  0  0  0  0  0  0
  180.0330  179.7770  137.6910 C   0  0  1  0  0  3  0  0  0  0  0  0
  181.3670  180.2990  137.1830 C   0  0  0  0  0  1  0  0  0  0  0  0
  183.3430  176.2840  136.0900 C   0  0  2  0  0  3  0  0  0  0  0  0
  185.3060  178.2920  137.8160 C   0  0  0  0  0  2  0  0  0  0  0  0
  187.3620  178.6780  138.9480 O   0  0  0  0  0  0  0  0  0  0  0  0
  187.7500  178.3040  137.6520 C   0  0  0  0  0  2  0  0  0  0  0  0
  186.5960  177.6750  138.3260 C   0  0  2  0  0  3  0  0  0  0  0  0
  2 15  2  0  0  0  0
  4 19  1  6  0  0  0
  4  1  1  0  0  0  0
  5  4  1  0  0  0  0
  5 10  1  1  0  0  0
  6 14  1  0  0  0  0
  7  5  1  0  0  0  0
  8 21  1  0  0  0  0
  9  3  1  0  0  0  0
  9 20  1  0  0  0  0
 11  7  1  0  0  0  0
 12  2  1  0  0  0  0
 13  8  1  0  0  0  0
 13 22  1  1  0  0  0
 14 22  2  0  0  0  0
 16  3  1  1  0  0  0
 16 18  1  0  0  0  0
 17 12  1  0  0  0  0
 18  2  1  0  0  0  0
 18  1  1  0  0  0  0
 21 20  1  1  0  0  0
 21 19  1  0  0  0  0
 23  6  1  0  0  0  0
 24 25  1  1  0  0  0
 24 17  1  0  0  0  0
 24 16  1  0  0  0  0
 26 23  1  1  0  0  0
 26 13  1  0  0  0  0
 26 11  1  0  0  0  0
 27  7  1  0  0  0  0
 29 30  1  0  0  0  0
 29 28  1  0  0  0  0
 30 27  1  6  0  0  0
 30 28  1  0  0  0  0
M  END
>  <MODEL>
2

>  <REMARK>
 VINA RESULT:      -4.3      2.113      4.855
  Name = 
  2 active torsions:
  status: ('A' for Active; 'I' for Inactive)
    1  A    between atoms: C_6  and  N_8
    2  A    between atoms: C_6  and  C_21
                            x       y       z     vdW  Elec       q    Type
                         _______ _______ _______ _____ _____    ______ ____

>  <TORSDO>
F 2

$$$$
=
 OpenBabel11052412353D

 30 34  0  0  1  0  0  0  0  0999 V2000
  181.5260  177.4980  138.8130 C   0  0  0  0  0  2  0  0  0  0  0  0
  180.9970  179.6010  137.5740 C   0  0  0  0  0  0  0  0  0  0  0  0
  179.5530  176.7100  136.4960 C   0  0  0  0  0  2  0  0  0  0  0  0
  182.7990  176.6440  138.7400 C   0  0  2  0  0  3  0  0  0  0  0  0
  183.8910  177.1840  137.7920 C   0  0  2  0  0  3  0  0  0  0  0  0
  186.4670  173.5760  136.3030 C   0  0  0  0  0  2  0  0  0  0  0  0
  184.7250  176.1200  137.1800 N   0  0  0  0  0  0  0  0  0  0  0  0
  182.2460  173.3060  137.2380 O   0  0  0  0  0  0  0  0  0  0  0  0
  179.6850  175.1950  136.4450 C   0  0  0  0  0  2  0  0  0  0  0  0
  184.6840  178.2280  138.5810 C   0  0  0  0  0  1  0  0  0  0  0  0
  184.0250  175.7180  135.9600 C   0  0  0  0  0  2  0  0  0  0  0  0
  180.8720  180.3740  136.2990 C   0  0  0  0  0  2  0  0  0  0  0  0
  183.5910  173.2640  136.7960 C   0  0  2  0  0  3  0  0  0  0  0  0
  185.9120  173.0320  137.6000 C   0  0  0  0  0  3  0  0  0  0  0  0
  180.9820  180.2270  138.6660 O   0  0  0  0  0  0  0  0  0  0  0  0
  180.9150  177.3760  136.3590 C   0  0  2  0  0  3  0  0  0  0  0  0
  180.2630  179.5210  135.1940 C   0  0  0  0  0  2  0  0  0  0  0  0
  181.2180  178.1780  137.5530 N   0  0  0  0  0  0  0  0  0  0  0  0
  182.5380  175.1370  138.7930 C   0  0  0  0  0  2  0  0  0  0  0  0
  180.3490  174.6660  137.7060 C   0  0  0  0  0  2  0  0  0  0  0  0
  181.8560  174.6240  137.5300 C   0  0  2  0  0  3  0  0  0  0  0  0
  184.6010  172.9330  137.8550 C   0  0  0  0  0  3  0  0  0  0  0  0
  185.4320  173.7160  135.1750 C   0  0  0  0  0  2  0  0  0  0  0  0
  180.9880  178.1820  135.0600 C   0  0  1  0  0  3  0  0  0  0  0  0
  182.4290  178.3750  134.6170 C   0  0  0  0  0  1  0  0  0  0  0  0
  184.0700  174.2020  135.6740 C   0  0  2  0  0  3  0  0  0  0  0  0
  185.9930  176.6740  136.7020 C   0  0  0  0  0  2  0  0  0  0  0  0
  187.0740  176.8810  134.5940 O   0  0  0  0  0  0  0  0  0  0  0  0
  186.8330  178.2070  134.9860 C   0  0  0  0  0  2  0  0  0  0  0  0
  185.8600  177.1290  135.2600 C   0  0  2  0  0  3  0  0  0  0  0  0
  2 15  2  0  0  0  0
  4 19  1  6  0  0  0
  4  1  1  0  0  0  0
  5 10  1  1  0  0  0
  5  4  1  0  0  0  0
  6 14  1  0  0  0  0
  7  5  1  0  0  0  0
  8 21  1  0  0  0  0
  9  3  1  0  0  0  0
  9 20  1  0  0  0  0
 11  7  1  0  0  0  0
 12  2  1  0  0  0  0
 13  8  1  0  0  0  0
 13 22  1  1  0  0  0
 14 22  2  0  0  0  0
 16  3  1  1  0  0  0
 16 18  1  0  0  0  0
 17 12  1  0  0  0  0
 18  2  1  0  0  0  0
 18  1  1  0  0  0  0
 21 20  1  1  0  0  0
 21 19  1  0  0  0  0
 23  6  1  0  0  0  0
 24 25  1  1  0  0  0
 24 17  1  0  0  0  0
 24 16  1  0  0  0  0
 26 23  1  1  0  0  0
 26 11  1  0  0  0  0
 26 13  1  0  0  0  0
 27  7  1  0  0  0  0
 28 29  1  0  0  0  0
 28 30  1  0  0  0  0
 29 30  1  0  0  0  0
 30 27  1  1  0  0  0
M  END
>  <MODEL>
3

>  <REMARK>
 VINA RESULT:      -4.0      1.748      4.567
  Name = 
  2 active torsions:
  status: ('A' for Active; 'I' for Inactive)
    1  A    between atoms: C_6  and  N_8
    2  A    between atoms: C_6  and  C_21
                            x       y       z     vdW  Elec       q    Type
                         _______ _______ _______ _____ _____    ______ ____

>  <TORSDO>
F 2

$$$$
=
 OpenBabel11052412353D

 30 34  0  0  1  0  0  0  0  0999 V2000
  182.0020  180.5100  139.6450 C   0  0  0  0  0  2  0  0  0  0  0  0
  179.8950  180.1090  140.9250 C   0  0  0  0  0  0  0  0  0  0  0  0
  182.7670  178.7060  142.1030 C   0  0  0  0  0  2  0  0  0  0  0  0
  182.4620  179.8510  138.3380 C   0  0  2  0  0  3  0  0  0  0  0  0
  181.4720  178.8280  137.7410 C   0  0  2  0  0  3  0  0  0  0  0  0
  183.8950  175.7330  135.2080 C   0  0  0  0  0  2  0  0  0  0  0  0
  182.1310  177.7360  136.9830 N   0  0  0  0  0  0  0  0  0  0  0  0
  185.4370  177.6860  138.7530 O   0  0  0  0  0  0  0  0  0  0  0  0
  184.1510  178.1960  141.7260 C   0  0  0  0  0  2  0  0  0  0  0  0
  180.4480  179.6280  136.9300 C   0  0  0  0  0  1  0  0  0  0  0  0
  182.4340  176.6960  137.9650 C   0  0  0  0  0  2  0  0  0  0  0  0
  178.9310  179.1890  141.6050 C   0  0  0  0  0  2  0  0  0  0  0  0
  185.0360  176.8950  137.6490 C   0  0  2  0  0  3  0  0  0  0  0  0
  184.8230  176.9260  135.1900 C   0  0  0  0  0  3  0  0  0  0  0  0
  179.5380  181.2920  140.6870 O   0  0  0  0  0  0  0  0  0  0  0  0
  181.7590  178.3890  141.0070 C   0  0  2  0  0  3  0  0  0  0  0  0
  179.6600  178.1030  142.3840 C   0  0  0  0  0  2  0  0  0  0  0  0
  181.1750  179.6290  140.4730 N   0  0  0  0  0  0  0  0  0  0  0  0
  183.9620  179.5490  138.2920 C   0  0  0  0  0  2  0  0  0  0  0  0
  184.7430  179.0230  140.5960 C   0  0  0  0  0  2  0  0  0  0  0  0
  184.3560  178.4320  139.2530 C   0  0  2  0  0  3  0  0  0  0  0  0
  185.3100  177.4950  136.3010 C   0  0  0  0  0  3  0  0  0  0  0  0
  183.7930  175.0230  136.5660 C   0  0  0  0  0  2  0  0  0  0  0  0
  180.7060  177.4020  141.5180 C   0  0  1  0  0  3  0  0  0  0  0  0
  180.0590  176.6500  140.3670 C   0  0  0  0  0  1  0  0  0  0  0  0
  183.7920  175.9950  137.7480 C   0  0  2  0  0  3  0  0  0  0  0  0
  181.1800  177.1020  136.0670 C   0  0  0  0  0  2  0  0  0  0  0  0
  180.0550  175.0090  135.9730 O   0  0  0  0  0  0  0  0  0  0  0  0
  179.0200  175.9470  136.1180 C   0  0  0  0  0  2  0  0  0  0  0  0
  180.3140  176.1050  136.8160 C   0  0  2  0  0  3  0  0  0  0  0  0
  1 18  1  0  0  0  0
  2 12  1  0  0  0  0
  4 19  1  1  0  0  0
  4  1  1  0  0  0  0
  5 10  1  6  0  0  0
  5  4  1  0  0  0  0
  6 23  1  0  0  0  0
  7  5  1  0  0  0  0
  7 11  1  0  0  0  0
  8 21  1  0  0  0  0
  9  3  1  0  0  0  0
 12 17  1  0  0  0  0
 13 22  1  6  0  0  0
 13 26  1  0  0  0  0
 13  8  1  0  0  0  0
 14  6  1  0  0  0  0
 14 22  2  0  0  0  0
 15  2  2  0  0  0  0
 16 24  1  0  0  0  0
 16  3  1  1  0  0  0
 18  2  1  0  0  0  0
 18 16  1  0  0  0  0
 20  9  1  0  0  0  0
 21 19  1  6  0  0  0
 21 20  1  0  0  0  0
 24 25  1  6  0  0  0
 24 17  1  0  0  0  0
 26 23  1  6  0  0  0
 26 11  1  0  0  0  0
 27  7  1  0  0  0  0
 28 29  1  0  0  0  0
 28 30  1  0  0  0  0
 29 30  1  0  0  0  0
 30 27  1  6  0  0  0
M  END
>  <MODEL>
4

>  <REMARK>
 VINA RESULT:      -3.9      2.154      2.977
  Name = 
  2 active torsions:
  status: ('A' for Active; 'I' for Inactive)
    1  A    between atoms: C_6  and  N_8
    2  A    between atoms: C_6  and  C_21
                            x       y       z     vdW  Elec       q    Type
                         _______ _______ _______ _____ _____    ______ ____

>  <TORSDO>
F 2

$$$$
=
 OpenBabel11052412353D

 30 34  0  0  1  0  0  0  0  0999 V2000
  181.7540  179.6440  138.9340 C   0  0  0  0  0  2  0  0  0  0  0  0
  179.6580  178.4180  139.5200 C   0  0  0  0  0  0  0  0  0  0  0  0
  182.4060  177.8970  141.4650 C   0  0  0  0  0  2  0  0  0  0  0  0
  182.7510  179.3400  137.8070 C   0  0  2  0  0  3  0  0  0  0  0  0
  182.3810  178.1330  136.9190 C   0  0  2  0  0  3  0  0  0  0  0  0
  186.3220  176.3440  135.1470 C   0  0  0  0  0  2  0  0  0  0  0  0
  183.5590  177.4200  136.3650 N   0  0  0  0  0  0  0  0  0  0  0  0
  186.0640  178.2340  139.0360 O   0  0  0  0  0  0  0  0  0  0  0  0
  183.9280  177.9200  141.5040 C   0  0  0  0  0  2  0  0  0  0  0  0
  181.4030  178.6480  135.8600 C   0  0  0  0  0  1  0  0  0  0  0  0
  183.9300  176.4230  137.3690 C   0  0  0  0  0  2  0  0  0  0  0  0
  178.9310  177.1560  139.8610 C   0  0  0  0  0  2  0  0  0  0  0  0
  186.2790  177.5010  137.8440 C   0  0  2  0  0  3  0  0  0  0  0  0
  186.7430  177.7680  135.4340 C   0  0  0  0  0  3  0  0  0  0  0  0
  178.9890  179.4400  139.2150 O   0  0  0  0  0  0  0  0  0  0  0  0
  181.9090  177.4080  140.1120 C   0  0  2  0  0  3  0  0  0  0  0  0
  179.7540  176.2800  140.7960 C   0  0  0  0  0  2  0  0  0  0  0  0
  181.0960  178.4440  139.4570 N   0  0  0  0  0  0  0  0  0  0  0  0
  184.2140  179.5540  138.2020 C   0  0  0  0  0  2  0  0  0  0  0  0
  184.4760  179.0290  140.6210 C   0  0  0  0  0  2  0  0  0  0  0  0
  184.6980  178.5170  139.2090 C   0  0  2  0  0  3  0  0  0  0  0  0
  186.6790  178.3210  136.6520 C   0  0  0  0  0  3  0  0  0  0  0  0
  186.1110  175.4760  136.3970 C   0  0  0  0  0  2  0  0  0  0  0  0
  181.1710  176.0750  140.2640 C   0  0  1  0  0  3  0  0  0  0  0  0
  181.1650  175.3020  138.9550 C   0  0  0  0  0  1  0  0  0  0  0  0
  185.4510  176.2380  137.5480 C   0  0  2  0  0  3  0  0  0  0  0  0
  183.1760  176.6300  135.1940 C   0  0  0  0  0  2  0  0  0  0  0  0
  182.6040  174.3920  134.6260 O   0  0  0  0  0  0  0  0  0  0  0  0
  181.3710  175.0630  134.6590 C   0  0  0  0  0  2  0  0  0  0  0  0
  182.4460  175.3700  135.6250 C   0  0  2  0  0  3  0  0  0  0  0  0
  1 18  1  0  0  0  0
  2 12  1  0  0  0  0
  3  9  1  0  0  0  0
  4 19  1  1  0  0  0
  4  1  1  0  0  0  0
  5 10  1  6  0  0  0
  5  4  1  0  0  0  0
  6 14  1  0  0  0  0
  6 23  1  0  0  0  0
  7  5  1  0  0  0  0
  7 11  1  0  0  0  0
  8 21  1  0  0  0  0
 11 26  1  0  0  0  0
 12 17  1  0  0  0  0
 13 22  1  6  0  0  0
 13  8  1  0  0  0  0
 14 22  2  0  0  0  0
 15  2  2  0  0  0  0
 16 24  1  0  0  0  0
 16  3  1  1  0  0  0
 18  2  1  0  0  0  0
 18 16  1  0  0  0  0
 20  9  1  0  0  0  0
 21 19  1  6  0  0  0
 21 20  1  0  0  0  0
 24 25  1  6  0  0  0
 24 17  1  0  0  0  0
 26 23  1  6  0  0  0
 26 13  1  0  0  0  0
 27  7  1  0  0  0  0
 28 29  1  0  0  0  0
 28 30  1  0  0  0  0
 29 30  1  0  0  0  0
 30 27  1  6  0  0  0
M  END
>  <MODEL>
5

>  <REMARK>
 VINA RESULT:      -3.5      2.112      2.901
  Name = 
  2 active torsions:
  status: ('A' for Active; 'I' for Inactive)
    1  A    between atoms: C_6  and  N_8
    2  A    between atoms: C_6  and  C_21
                            x       y       z     vdW  Elec       q    Type
                         _______ _______ _______ _____ _____    ______ ____

>  <TORSDO>
F 2

$$$$
=
 OpenBabel11052412353D

 30 34  0  0  1  0  0  0  0  0999 V2000
  182.6980  176.1390  135.0580 C   0  0  0  0  0  2  0  0  0  0  0  0
  183.1520  173.9380  136.1470 C   0  0  0  0  0  0  0  0  0  0  0  0
  179.9110  174.7510  135.4870 C   0  0  0  0  0  2  0  0  0  0  0  0
  182.7000  177.5350  135.6950 C   0  0  2  0  0  3  0  0  0  0  0  0
  183.0540  177.5640  137.1980 C   0  0  2  0  0  3  0  0  0  0  0  0
  181.0410  181.3250  139.1150 C   0  0  0  0  0  2  0  0  0  0  0  0
  182.3990  178.6690  137.9410 N   0  0  0  0  0  0  0  0  0  0  0  0
  179.3500  179.1070  135.8010 O   0  0  0  0  0  0  0  0  0  0  0  0
  178.9310  175.8970  135.2800 C   0  0  0  0  0  2  0  0  0  0  0  0
  184.5820  177.5620  137.2920 C   0  0  0  0  0  1  0  0  0  0  0  0
  181.1030  178.1450  138.3730 C   0  0  0  0  0  2  0  0  0  0  0  0
  182.8900  172.9280  137.2190 C   0  0  0  0  0  2  0  0  0  0  0  0
  179.7220  179.8610  136.9400 C   0  0  2  0  0  3  0  0  0  0  0  0
  181.1420  181.7450  137.6660 C   0  0  0  0  0  3  0  0  0  0  0  0
  184.1800  173.8090  135.4320 O   0  0  0  0  0  0  0  0  0  0  0  0
  180.9370  175.1050  136.5540 C   0  0  2  0  0  3  0  0  0  0  0  0
  181.4010  172.8170  137.5200 C   0  0  0  0  0  2  0  0  0  0  0  0
  182.2940  175.0830  135.9890 N   0  0  0  0  0  0  0  0  0  0  0  0
  181.5950  178.4550  135.1730 C   0  0  0  0  0  2  0  0  0  0  0  0
  179.6080  177.0720  134.5940 C   0  0  0  0  0  2  0  0  0  0  0  0
  180.2100  178.0090  135.6260 C   0  0  2  0  0  3  0  0  0  0  0  0
  180.5860  181.0570  136.6610 C   0  0  0  0  0  3  0  0  0  0  0  0
  180.0000  180.2300  139.3920 C   0  0  0  0  0  2  0  0  0  0  0  0
  180.7790  174.1900  137.7710 C   0  0  1  0  0  3  0  0  0  0  0  0
  181.3540  174.8390  139.0200 C   0  0  0  0  0  1  0  0  0  0  0  0
  179.9490  179.1650  138.2940 C   0  0  2  0  0  3  0  0  0  0  0  0
  183.1130  178.9400  139.1900 C   0  0  0  0  0  2  0  0  0  0  0  0
  182.4690  178.6550  141.4620 O   0  0  0  0  0  0  0  0  0  0  0  0
  183.6830  177.9560  141.3600 C   0  0  0  0  0  2  0  0  0  0  0  0
  182.6920  177.9520  140.2630 C   0  0  2  0  0  3  0  0  0  0  0  0
  1 18  1  0  0  0  0
  2 12  1  0  0  0  0
  4  1  1  1  0  0  0
  4  5  1  0  0  0  0
  5 10  1  6  0  0  0
  5  7  1  0  0  0  0
  6 23  1  0  0  0  0
  7 11  1  0  0  0  0
  7 27  1  0  0  0  0
  8 13  1  0  0  0  0
  9  3  1  0  0  0  0
 12 17  1  0  0  0  0
 13 22  1  6  0  0  0
 13 26  1  0  0  0  0
 14  6  1  0  0  0  0
 15  2  2  0  0  0  0
 16  3  1  6  0  0  0
 16 24  1  0  0  0  0
 17 24  1  0  0  0  0
 18  2  1  0  0  0  0
 18 16  1  0  0  0  0
 19 21  1  0  0  0  0
 19  4  1  0  0  0  0
 20  9  1  0  0  0  0
 21 20  1  6  0  0  0
 21  8  1  0  0  0  0
 22 14  2  0  0  0  0
 24 25  1  1  0  0  0
 26 11  1  6  0  0  0
 26 23  1  0  0  0  0
 29 28  1  0  0  0  0
 30 27  1  6  0  0  0
 30 29  1  0  0  0  0
 30 28  1  0  0  0  0
M  END
>  <MODEL>
6

>  <REMARK>
 VINA RESULT:      -3.5      1.929      6.297
  Name = 
  2 active torsions:
  status: ('A' for Active; 'I' for Inactive)
    1  A    between atoms: C_6  and  N_8
    2  A    between atoms: C_6  and  C_21
                            x       y       z     vdW  Elec       q    Type
                         _______ _______ _______ _____ _____    ______ ____

>  <TORSDO>
F 2

$$$$
=
 OpenBabel11052412353D

 30 34  0  0  1  0  0  0  0  0999 V2000
  184.0680  179.3760  137.7870 C   0  0  0  0  0  2  0  0  0  0  0  0
  185.3670  177.3040  137.2770 C   0  0  0  0  0  0  0  0  0  0  0  0
  182.2100  177.5560  136.0220 C   0  0  0  0  0  2  0  0  0  0  0  0
  183.3550  179.7550  139.0930 C   0  0  2  0  0  3  0  0  0  0  0  0
  183.4900  178.7220  140.2320 C   0  0  2  0  0  3  0  0  0  0  0  0
  179.7720  179.1290  143.0390 C   0  0  0  0  0  2  0  0  0  0  0  0
  182.3220  178.6910  141.1470 N   0  0  0  0  0  0  0  0  0  0  0  0
  179.6690  179.8720  138.7730 O   0  0  0  0  0  0  0  0  0  0  0  0
  180.8400  178.1920  136.2120 C   0  0  0  0  0  2  0  0  0  0  0  0
  184.8250  179.0030  140.9260 C   0  0  0  0  0  1  0  0  0  0  0  0
  181.3770  177.7450  140.5550 C   0  0  0  0  0  2  0  0  0  0  0  0
  185.4860  175.8140  137.2190 C   0  0  0  0  0  2  0  0  0  0  0  0
  179.5240  179.5640  140.1480 C   0  0  2  0  0  3  0  0  0  0  0  0
  179.8240  180.5030  142.4100 C   0  0  0  0  0  3  0  0  0  0  0  0
  186.4090  178.0010  137.1580 O   0  0  0  0  0  0  0  0  0  0  0  0
  182.8330  177.2060  137.3660 C   0  0  2  0  0  3  0  0  0  0  0  0
  184.1940  175.1760  136.7250 C   0  0  0  0  0  2  0  0  0  0  0  0
  184.0990  177.9310  137.5490 N   0  0  0  0  0  0  0  0  0  0  0  0
  182.0140  180.4610  138.8820 C   0  0  0  0  0  2  0  0  0  0  0  0
  180.9680  179.5890  136.7990 C   0  0  0  0  0  2  0  0  0  0  0  0
  180.9520  179.5260  138.3160 C   0  0  2  0  0  3  0  0  0  0  0  0
  179.7620  180.7080  141.0880 C   0  0  0  0  0  3  0  0  0  0  0  0
  179.3320  178.0070  142.0870 C   0  0  0  0  0  2  0  0  0  0  0  0
  182.9850  175.6890  137.5060 C   0  0  1  0  0  3  0  0  0  0  0  0
  183.0560  175.2800  138.9680 C   0  0  0  0  0  1  0  0  0  0  0  0
  179.8980  178.1670  140.6750 C   0  0  2  0  0  3  0  0  0  0  0  0
  182.6890  178.0820  142.4260 C   0  0  0  0  0  2  0  0  0  0  0  0
  184.2730  178.6320  144.1140 O   0  0  0  0  0  0  0  0  0  0  0  0
  183.0380  178.6550  144.7820 C   0  0  0  0  0  2  0  0  0  0  0  0
  183.1770  179.1440  143.3950 C   0  0  2  0  0  3  0  0  0  0  0  0
  2 18  1  0  0  0  0
  3  9  1  0  0  0  0
  4  1  1  6  0  0  0
  4  5  1  0  0  0  0
  5 10  1  1  0  0  0
  5  7  1  0  0  0  0
  7 27  1  0  0  0  0
  8 13  1  0  0  0  0
  9 20  1  0  0  0  0
 11  7  1  0  0  0  0
 12  2  1  0  0  0  0
 13 26  1  0  0  0  0
 13 22  1  1  0  0  0
 14  6  1  0  0  0  0
 15  2  2  0  0  0  0
 16  3  1  6  0  0  0
 16 24  1  0  0  0  0
 16 18  1  0  0  0  0
 17 12  1  0  0  0  0
 17 24  1  0  0  0  0
 18  1  1  0  0  0  0
 19  4  1  0  0  0  0
 21 20  1  6  0  0  0
 21  8  1  0  0  0  0
 21 19  1  0  0  0  0
 22 14  2  0  0  0  0
 23  6  1  0  0  0  0
 24 25  1  1  0  0  0
 26 11  1  1  0  0  0
 26 23  1  0  0  0  0
 28 29  1  0  0  0  0
 30 27  1  6  0  0  0
 30 28  1  0  0  0  0
 30 29  1  0  0  0  0
M  END
>  <MODEL>
7

>  <REMARK>
 VINA RESULT:      -3.4      2.623      6.933
  Name = 
  2 active torsions:
  status: ('A' for Active; 'I' for Inactive)
    1  A    between atoms: C_6  and  N_8
    2  A    between atoms: C_6  and  C_21
                            x       y       z     vdW  Elec       q    Type
                         _______ _______ _______ _____ _____    ______ ____

>  <TORSDO>
F 2

$$$$
=
 OpenBabel11052412353D

 30 34  0  0  1  0  0  0  0  0999 V2000
  183.7720  176.6870  135.1450 C   0  0  0  0  0  2  0  0  0  0  0  0
  185.8000  175.2310  135.2290 C   0  0  0  0  0  0  0  0  0  0  0  0
  182.7990  173.7490  134.5940 C   0  0  0  0  0  2  0  0  0  0  0  0
  182.9880  177.2960  136.3150 C   0  0  2  0  0  3  0  0  0  0  0  0
  183.5540  176.9750  137.7150 C   0  0  2  0  0  3  0  0  0  0  0  0
  180.0450  177.1460  140.8010 C   0  0  0  0  0  2  0  0  0  0  0  0
  182.5180  176.9120  138.7750 N   0  0  0  0  0  0  0  0  0  0  0  0
  179.5760  175.9060  136.6770 O   0  0  0  0  0  0  0  0  0  0  0  0
  181.2930  173.8550  134.7810 C   0  0  0  0  0  2  0  0  0  0  0  0
  184.6670  177.9920  137.9840 C   0  0  0  0  0  1  0  0  0  0  0  0
  182.0370  175.5310  138.7790 C   0  0  0  0  0  2  0  0  0  0  0  0
  186.5210  174.0170  135.7240 C   0  0  0  0  0  2  0  0  0  0  0  0
  179.5930  176.1830  138.0660 C   0  0  2  0  0  3  0  0  0  0  0  0
  179.5160  178.0340  139.6970 C   0  0  0  0  0  3  0  0  0  0  0  0
  186.4610  176.1380  134.6590 O   0  0  0  0  0  0  0  0  0  0  0  0
  183.5340  174.2600  135.8260 C   0  0  2  0  0  3  0  0  0  0  0  0
  185.5990  172.8050  135.7640 C   0  0  0  0  0  2  0  0  0  0  0  0
  184.3920  175.4020  135.4760 N   0  0  0  0  0  0  0  0  0  0  0  0
  181.4720  177.2990  136.1080 C   0  0  0  0  0  2  0  0  0  0  0  0
  180.8440  175.3070  134.7540 C   0  0  0  0  0  2  0  0  0  0  0  0
  180.8800  175.8950  136.1530 C   0  0  2  0  0  3  0  0  0  0  0  0
  179.3540  177.6180  138.4340 C   0  0  0  0  0  3  0  0  0  0  0  0
  180.0900  175.6510  140.4520 C   0  0  0  0  0  2  0  0  0  0  0  0
  184.2990  173.1200  136.5030 C   0  0  1  0  0  3  0  0  0  0  0  0
  184.5550  173.4300  137.9680 C   0  0  0  0  0  1  0  0  0  0  0  0
  180.5170  175.3890  139.0060 C   0  0  2  0  0  3  0  0  0  0  0  0
  183.1240  177.0870  140.0960 C   0  0  0  0  0  2  0  0  0  0  0  0
  184.2400  178.9070  141.1450 O   0  0  0  0  0  0  0  0  0  0  0  0
  183.1620  178.6280  142.0000 C   0  0  0  0  0  2  0  0  0  0  0  0
  183.0290  178.5380  140.5300 C   0  0  2  0  0  3  0  0  0  0  0  0
  1 18  1  0  0  0  0
  2 18  1  0  0  0  0
  2 12  1  0  0  0  0
  3  9  1  0  0  0  0
  4  1  1  6  0  0  0
  4  5  1  0  0  0  0
  5 10  1  1  0  0  0
  5  7  1  0  0  0  0
  7 11  1  0  0  0  0
  7 27  1  0  0  0  0
  8 13  1  0  0  0  0
 12 17  1  0  0  0  0
 13 22  1  6  0  0  0
 13 26  1  0  0  0  0
 14  6  1  0  0  0  0
 15  2  2  0  0  0  0
 16  3  1  6  0  0  0
 16 24  1  0  0  0  0
 17 24  1  0  0  0  0
 18 16  1  0  0  0  0
 19 21  1  0  0  0  0
 19  4  1  0  0  0  0
 20  9  1  0  0  0  0
 21 20  1  6  0  0  0
 21  8  1  0  0  0  0
 22 14  2  0  0  0  0
 23  6  1  0  0  0  0
 24 25  1  1  0  0  0
 26 11  1  1  0  0  0
 26 23  1  0  0  0  0
 28 29  1  0  0  0  0
 30 27  1  1  0  0  0
 30 28  1  0  0  0  0
 30 29  1  0  0  0  0
M  END
>  <MODEL>
8

>  <REMARK>
 VINA RESULT:      -3.4      1.792      6.273
  Name = 
  2 active torsions:
  status: ('A' for Active; 'I' for Inactive)
    1  A    between atoms: C_6  and  N_8
    2  A    between atoms: C_6  and  C_21
                            x       y       z     vdW  Elec       q    Type
                         _______ _______ _______ _____ _____    ______ ____

>  <TORSDO>
F 2

$$$$
=
 OpenBabel11052412353D

 30 34  0  0  1  0  0  0  0  0999 V2000
  182.7050  177.4880  140.2010 C   0  0  0  0  0  2  0  0  0  0  0  0
  183.2700  179.7400  139.2800 C   0  0  0  0  0  0  0  0  0  0  0  0
  180.0570  179.1820  140.2640 C   0  0  0  0  0  2  0  0  0  0  0  0
  182.4790  176.1770  139.4370 C   0  0  2  0  0  3  0  0  0  0  0  0
  182.6510  176.2770  137.9060 C   0  0  2  0  0  3  0  0  0  0  0  0
  180.0270  172.9630  135.9060 C   0  0  0  0  0  2  0  0  0  0  0  0
  181.7960  175.3300  137.1490 N   0  0  0  0  0  0  0  0  0  0  0  0
  178.9860  174.9610  139.6050 O   0  0  0  0  0  0  0  0  0  0  0  0
  178.9870  178.1210  140.4820 C   0  0  0  0  0  2  0  0  0  0  0  0
  184.1490  176.1390  137.6210 C   0  0  0  0  0  1  0  0  0  0  0  0
  180.5250  176.0220  136.9370 C   0  0  0  0  0  2  0  0  0  0  0  0
  182.9990  180.8820  138.3520 C   0  0  0  0  0  2  0  0  0  0  0  0
  179.1380  174.3030  138.3610 C   0  0  2  0  0  3  0  0  0  0  0  0
  180.2470  172.3800  137.2830 C   0  0  0  0  0  3  0  0  0  0  0  0
  184.3820  179.6890  139.8690 O   0  0  0  0  0  0  0  0  0  0  0  0
  180.9070  178.8470  139.0460 C   0  0  2  0  0  3  0  0  0  0  0  0
  181.5070  181.1710  138.2540 C   0  0  0  0  0  2  0  0  0  0  0  0
  182.3150  178.6740  139.4340 N   0  0  0  0  0  0  0  0  0  0  0  0
  181.3470  175.3180  140.0040 C   0  0  0  0  0  2  0  0  0  0  0  0
  179.6050  176.8180  140.9600 C   0  0  0  0  0  2  0  0  0  0  0  0
  179.9760  175.9440  139.7750 C   0  0  2  0  0  3  0  0  0  0  0  0
  179.8910  173.0060  138.4120 C   0  0  0  0  0  3  0  0  0  0  0  0
  179.0880  174.1790  135.8700 C   0  0  0  0  0  2  0  0  0  0  0  0
  180.7120  179.9010  137.9520 C   0  0  1  0  0  3  0  0  0  0  0  0
  181.0640  179.3380  136.5840 C   0  0  0  0  0  1  0  0  0  0  0  0
  179.2820  175.1170  137.0630 C   0  0  2  0  0  3  0  0  0  0  0  0
  182.3270  175.1270  135.7990 C   0  0  0  0  0  2  0  0  0  0  0  0
  184.2370  174.2710  134.6700 O   0  0  0  0  0  0  0  0  0  0  0  0
  183.3240  173.2040  134.6560 C   0  0  0  0  0  2  0  0  0  0  0  0
  183.4480  174.1030  135.8230 C   0  0  2  0  0  3  0  0  0  0  0  0
  2 18  1  0  0  0  0
  2 15  2  0  0  0  0
  3  9  1  0  0  0  0
  4 19  1  6  0  0  0
  4  1  1  0  0  0  0
  5 10  1  1  0  0  0
  5  4  1  0  0  0  0
  6 14  1  0  0  0  0
  7  5  1  0  0  0  0
  8 21  1  0  0  0  0
  9 20  1  0  0  0  0
 11 26  1  0  0  0  0
 11  7  1  0  0  0  0
 12  2  1  0  0  0  0
 13 22  1  1  0  0  0
 13  8  1  0  0  0  0
 14 22  2  0  0  0  0
 16 18  1  0  0  0  0
 16  3  1  1  0  0  0
 17 12  1  0  0  0  0
 18  1  1  0  0  0  0
 21 19  1  1  0  0  0
 21 20  1  0  0  0  0
 23  6  1  0  0  0  0
 24 25  1  6  0  0  0
 24 17  1  0  0  0  0
 24 16  1  0  0  0  0
 26 23  1  6  0  0  0
 26 13  1  0  0  0  0
 27  7  1  0  0  0  0
 28 30  1  0  0  0  0
 29 28  1  0  0  0  0
 29 30  1  0  0  0  0
 30 27  1  6  0  0  0
M  END
>  <MODEL>
9

>  <REMARK>
 VINA RESULT:      -3.3      2.068      4.589
  Name = 
  2 active torsions:
  status: ('A' for Active; 'I' for Inactive)
    1  A    between atoms: C_6  and  N_8
    2  A    between atoms: C_6  and  C_21
                            x       y       z     vdW  Elec       q    Type
                         _______ _______ _______ _____ _____    ______ ____

>  <TORSDO>
F 2

$$$$
