=
 OpenBabel11052417003D

 32 37  0  0  1  0  0  0  0  0999 V2000
  190.5830  177.3210  138.4250 C   0  0  2  0  0  3  0  0  0  0  0  0
  186.7760  177.9980  137.7080 C   0  0  0  0  0  2  0  0  0  0  0  0
  186.7790  177.3060  136.3350 C   0  0  0  0  0  2  0  0  0  0  0  0
  192.4800  175.5620  137.9460 C   0  0  1  0  0  3  0  0  0  0  0  0
  192.5910  174.2670  137.1800 C   0  0  0  0  0  0  0  0  0  0  0  0
  192.1080  172.5410  135.8560 C   0  0  0  0  0  0  0  0  0  0  0  0
  188.1860  178.4920  138.0670 C   0  0  0  0  0  2  0  0  0  0  0  0
  189.1960  177.4070  137.8360 C   0  0  0  0  0  0  0  0  0  0  0  0
  190.1300  175.5750  136.9310 C   0  0  0  0  0  0  0  0  0  0  0  0
  193.3890  172.3500  136.3490 O   0  0  0  0  0  0  0  0  0  0  0  0
  193.7280  173.4020  137.1740 N   0  0  0  0  0  0  0  0  0  0  0  0
  187.7630  176.2670  136.2930 O   0  0  0  0  0  0  0  0  0  0  0  0
  188.9690  176.4200  136.9800 C   0  0  0  0  0  0  0  0  0  0  0  0
  190.3120  174.4500  136.2410 C   0  0  0  0  0  3  0  0  0  0  0  0
  193.4990  176.5550  137.4170 C   0  0  0  0  0  1  0  0  0  0  0  0
  191.4760  171.7190  135.0320 C   0  0  0  0  0  1  0  0  0  0  0  0
  191.1240  176.1130  137.7990 N   0  0  0  0  0  0  0  0  0  0  0  0
  191.6150  173.7880  136.4120 C   0  0  0  0  0  0  0  0  0  0  0  0
  190.8720  178.6430  143.8640 C   0  0  0  0  0  2  0  0  0  0  0  0
  189.6500  176.7100  141.9680 C   0  0  1  0  0  3  0  0  0  0  0  0
  191.4900  177.3770  140.6970 N   0  0  0  0  0  0  0  0  0  0  0  0
  191.7300  177.5710  143.1900 C   0  0  0  0  0  2  0  0  0  0  0  0
  190.5010  177.1380  139.9050 C   0  0  0  0  0  0  0  0  0  0  0  0
  189.4180  178.1770  144.0280 C   0  0  1  0  0  3  0  0  0  0  0  0
  191.0530  177.0970  141.9930 N   0  0  0  0  0  0  0  0  0  0  0  0
  188.8130  177.7790  142.6770 C   0  0  0  0  0  2  0  0  0  0  0  0
  189.3550  176.7250  140.5770 O   0  0  0  0  0  0  0  0  0  0  0  0
  189.2980  177.0430  145.0390 C   0  0  0  0  0  2  0  0  0  0  0  0
  189.1470  177.4870  147.5130 C   0  0  0  0  0  0  0  0  0  0  0  0
  188.5660  177.4970  146.2100 N   0  0  0  0  0  2  0  0  0  0  0  0
  188.3400  177.9260  148.6810 C   0  0  0  0  0  1  0  0  0  0  0  0
  190.3400  177.1160  147.6830 O   0  0  0  0  0  0  0  0  0  0  0  0
  1 23  1  1  0  0  0
  2  7  1  0  0  0  0
  3  2  1  0  0  0  0
  4 15  1  6  0  0  0
  5  4  1  0  0  0  0
  6 10  1  0  0  0  0
  6 18  2  0  0  0  0
  8  7  1  0  0  0  0
  8  1  1  0  0  0  0
  9 13  1  0  0  0  0
  9 17  1  0  0  0  0
 10 11  1  0  0  0  0
 11  5  2  0  0  0  0
 12  3  1  0  0  0  0
 12 13  1  0  0  0  0
 13  8  2  0  0  0  0
 14 18  1  0  0  0  0
 14  9  2  0  0  0  0
 16  6  1  0  0  0  0
 17  4  1  0  0  0  0
 17  1  1  0  0  0  0
 18  5  1  0  0  0  0
 19 24  1  0  0  0  0
 20 25  1  0  0  0  0
 20 26  1  1  0  0  0
 21 25  1  0  0  0  0
 22 19  1  0  0  0  0
 23 27  1  0  0  0  0
 23 21  2  0  0  0  0
 24 28  1  1  0  0  0
 25 22  1  0  0  0  0
 26 24  1  0  0  0  0
 27 20  1  0  0  0  0
 28 30  1  0  0  0  0
 29 32  2  0  0  0  0
 29 31  1  0  0  0  0
 30 29  1  0  0  0  0
M  END
>  <MODEL>
1

>  <REMARK>
 VINA RESULT:      -8.5      0.000      0.000
  Name = 
  3 active torsions:
  status: ('A' for Active; 'I' for Inactive)
    1  A    between atoms: C_3  and  C_14
    2  A    between atoms: N_10  and  C_24
    3  A    between atoms: C_19  and  C_24
                            x       y       z     vdW  Elec       q    Type
                         _______ _______ _______ _____ _____    ______ ____

>  <TORSDO>
F 3

$$$$
=
 OpenBabel11052417003D

 32 37  0  0  1  0  0  0  0  0999 V2000
  185.4790  179.1220  141.4810 C   0  0  2  0  0  3  0  0  0  0  0  0
  183.5230  179.1230  144.8930 C   0  0  0  0  0  2  0  0  0  0  0  0
  182.1370  178.9690  144.2470 C   0  0  0  0  0  2  0  0  0  0  0  0
  185.3670  178.1160  139.0520 C   0  0  1  0  0  3  0  0  0  0  0  0
  184.4160  177.2280  138.2880 C   0  0  0  0  0  0  0  0  0  0  0  0
  182.6350  176.0060  137.7430 C   0  0  0  0  0  0  0  0  0  0  0  0
  184.5100  179.7680  143.9090 C   0  0  0  0  0  2  0  0  0  0  0  0
  184.4360  179.0900  142.5720 C   0  0  0  0  0  0  0  0  0  0  0  0
  183.5530  177.9470  140.8510 C   0  0  0  0  0  0  0  0  0  0  0  0
  183.5250  175.9530  136.6820 O   0  0  0  0  0  0  0  0  0  0  0  0
  184.6440  176.7010  136.9800 N   0  0  0  0  0  0  0  0  0  0  0  0
  182.2320  178.2620  143.0060 O   0  0  0  0  0  0  0  0  0  0  0  0
  183.3490  178.4360  142.1870 C   0  0  0  0  0  0  0  0  0  0  0  0
  182.7390  177.2030  140.1040 C   0  0  0  0  0  3  0  0  0  0  0  0
  185.5320  179.4350  138.3180 C   0  0  0  0  0  1  0  0  0  0  0  0
  181.4580  175.4000  137.7840 C   0  0  0  0  0  1  0  0  0  0  0  0
  184.8410  178.3620  140.4040 N   0  0  0  0  0  0  0  0  0  0  0  0
  183.2380  176.8370  138.7690 C   0  0  0  0  0  0  0  0  0  0  0  0
  190.7420  178.5080  143.3050 C   0  0  0  0  0  2  0  0  0  0  0  0
  188.1170  177.1250  143.1680 C   0  0  1  0  0  3  0  0  0  0  0  0
  187.8650  178.5960  141.3740 N   0  0  0  0  0  0  0  0  0  0  0  0
  190.2220  177.9650  141.9740 C   0  0  0  0  0  2  0  0  0  0  0  0
  186.7190  178.4250  141.9360 C   0  0  0  0  0  0  0  0  0  0  0  0
  190.2090  177.6920  144.4920 C   0  0  1  0  0  3  0  0  0  0  0  0
  188.7800  177.7920  142.0570 N   0  0  0  0  0  0  0  0  0  0  0  0
  188.6770  177.6580  144.4910 C   0  0  0  0  0  2  0  0  0  0  0  0
  186.7700  177.5520  143.0180 O   0  0  0  0  0  0  0  0  0  0  0  0
  190.7900  176.2830  144.5160 C   0  0  0  0  0  2  0  0  0  0  0  0
  191.4060  176.1910  146.9560 C   0  0  0  0  0  0  0  0  0  0  0  0
  191.7770  176.1710  145.5780 N   0  0  0  0  0  2  0  0  0  0  0  0
  192.4590  176.1120  148.0010 C   0  0  0  0  0  1  0  0  0  0  0  0
  190.1940  176.2670  147.2960 O   0  0  0  0  0  0  0  0  0  0  0  0
  1 23  1  1  0  0  0
  1  8  1  0  0  0  0
  3  2  1  0  0  0  0
  4 15  1  6  0  0  0
  4 17  1  0  0  0  0
  5 18  1  0  0  0  0
  5  4  1  0  0  0  0
  6 16  1  0  0  0  0
  6 18  2  0  0  0  0
  7  2  1  0  0  0  0
  8  7  1  0  0  0  0
  9 13  1  0  0  0  0
 10 11  1  0  0  0  0
 10  6  1  0  0  0  0
 11  5  2  0  0  0  0
 12  3  1  0  0  0  0
 13  8  2  0  0  0  0
 13 12  1  0  0  0  0
 14  9  2  0  0  0  0
 17  9  1  0  0  0  0
 17  1  1  0  0  0  0
 18 14  1  0  0  0  0
 19 24  1  0  0  0  0
 20 26  1  1  0  0  0
 21 23  2  0  0  0  0
 21 25  1  0  0  0  0
 22 25  1  0  0  0  0
 22 19  1  0  0  0  0
 23 27  1  0  0  0  0
 24 28  1  6  0  0  0
 25 20  1  0  0  0  0
 26 24  1  0  0  0  0
 27 20  1  0  0  0  0
 28 30  1  0  0  0  0
 29 32  2  0  0  0  0
 29 31  1  0  0  0  0
 30 29  1  0  0  0  0
M  END
>  <MODEL>
2

>  <REMARK>
 VINA RESULT:      -7.7      4.871      6.751
  Name = 
  3 active torsions:
  status: ('A' for Active; 'I' for Inactive)
    1  A    between atoms: C_3  and  C_14
    2  A    between atoms: N_10  and  C_24
    3  A    between atoms: C_19  and  C_24
                            x       y       z     vdW  Elec       q    Type
                         _______ _______ _______ _____ _____    ______ ____

>  <TORSDO>
F 3

$$$$
=
 OpenBabel11052417003D

 32 37  0  0  1  0  0  0  0  0999 V2000
  187.2760  178.0930  138.2610 C   0  0  2  0  0  3  0  0  0  0  0  0
  183.3520  178.3480  138.3060 C   0  0  0  0  0  2  0  0  0  0  0  0
  183.1460  177.3700  137.1380 C   0  0  0  0  0  2  0  0  0  0  0  0
  189.2170  176.3970  137.7300 C   0  0  1  0  0  3  0  0  0  0  0  0
  189.3100  174.9750  137.2360 C   0  0  0  0  0  0  0  0  0  0  0  0
  188.7580  172.9710  136.4330 C   0  0  0  0  0  0  0  0  0  0  0  0
  184.7410  178.9990  138.2280 C   0  0  0  0  0  2  0  0  0  0  0  0
  185.7960  177.9570  137.9980 C   0  0  0  0  0  0  0  0  0  0  0  0
  186.7210  176.0340  137.2940 C   0  0  0  0  0  0  0  0  0  0  0  0
  190.1270  172.9770  136.6490 O   0  0  0  0  0  0  0  0  0  0  0  0
  190.5100  174.2050  137.1460 N   0  0  0  0  0  0  0  0  0  0  0  0
  184.2100  176.4140  137.0830 O   0  0  0  0  0  0  0  0  0  0  0  0
  185.5080  176.7920  137.4340 C   0  0  0  0  0  0  0  0  0  0  0  0
  186.8800  174.7980  136.8220 C   0  0  0  0  0  3  0  0  0  0  0  0
  189.9860  177.3120  136.7930 C   0  0  0  0  0  1  0  0  0  0  0  0
  188.0640  171.9480  135.9570 C   0  0  0  0  0  1  0  0  0  0  0  0
  187.8070  176.8140  137.7860 N   0  0  0  0  0  0  0  0  0  0  0  0
  188.2550  174.2760  136.8220 C   0  0  0  0  0  0  0  0  0  0  0  0
  186.7550  177.1260  143.7570 C   0  0  0  0  0  2  0  0  0  0  0  0
  188.6060  178.2540  141.7260 C   0  0  1  0  0  3  0  0  0  0  0  0
  186.5900  178.4910  140.5750 N   0  0  0  0  0  0  0  0  0  0  0  0
  186.4440  178.4630  143.0830 C   0  0  0  0  0  2  0  0  0  0  0  0
  187.5260  178.2380  139.7270 C   0  0  0  0  0  0  0  0  0  0  0  0
  188.2680  176.8730  143.8300 C   0  0  1  0  0  3  0  0  0  0  0  0
  187.1870  178.5570  141.8360 N   0  0  0  0  0  0  0  0  0  0  0  0
  188.9030  176.9290  142.4360 C   0  0  0  0  0  2  0  0  0  0  0  0
  188.7730  178.0870  140.3240 O   0  0  0  0  0  0  0  0  0  0  0  0
  188.9580  177.8380  144.7870 C   0  0  0  0  0  2  0  0  0  0  0  0
  188.8450  177.4760  147.2760 C   0  0  0  0  0  0  0  0  0  0  0  0
  188.2390  177.8830  146.0500 N   0  0  0  0  0  2  0  0  0  0  0  0
  188.0530  177.5060  148.5330 C   0  0  0  0  0  1  0  0  0  0  0  0
  190.0480  177.0990  147.3060 O   0  0  0  0  0  0  0  0  0  0  0  0
  1 23  1  1  0  0  0
  3  2  1  0  0  0  0
  4 15  1  6  0  0  0
  4 17  1  0  0  0  0
  5  4  1  0  0  0  0
  6 10  1  0  0  0  0
  6 18  2  0  0  0  0
  7  2  1  0  0  0  0
  8  7  1  0  0  0  0
  8  1  1  0  0  0  0
  9 13  1  0  0  0  0
  9 17  1  0  0  0  0
 10 11  1  0  0  0  0
 11  5  2  0  0  0  0
 12  3  1  0  0  0  0
 12 13  1  0  0  0  0
 13  8  2  0  0  0  0
 14  9  2  0  0  0  0
 16  6  1  0  0  0  0
 17  1  1  0  0  0  0
 18 14  1  0  0  0  0
 18  5  1  0  0  0  0
 19 24  1  0  0  0  0
 20 25  1  0  0  0  0
 20 26  1  1  0  0  0
 21 25  1  0  0  0  0
 22 19  1  0  0  0  0
 23 27  1  0  0  0  0
 23 21  2  0  0  0  0
 24 28  1  1  0  0  0
 25 22  1  0  0  0  0
 26 24  1  0  0  0  0
 27 20  1  0  0  0  0
 28 30  1  0  0  0  0
 29 32  2  0  0  0  0
 29 31  1  0  0  0  0
 30 29  1  0  0  0  0
M  END
>  <MODEL>
3

>  <REMARK>
 VINA RESULT:      -7.6      2.393      3.206
  Name = 
  3 active torsions:
  status: ('A' for Active; 'I' for Inactive)
    1  A    between atoms: C_3  and  C_14
    2  A    between atoms: N_10  and  C_24
    3  A    between atoms: C_19  and  C_24
                            x       y       z     vdW  Elec       q    Type
                         _______ _______ _______ _____ _____    ______ ____

>  <TORSDO>
F 3

$$$$
=
 OpenBabel11052417003D

 32 37  0  0  1  0  0  0  0  0999 V2000
  185.6490  178.3690  138.2410 C   0  0  2  0  0  3  0  0  0  0  0  0
  182.0950  179.4660  139.5220 C   0  0  0  0  0  2  0  0  0  0  0  0
  181.3230  178.5530  138.5560 C   0  0  0  0  0  2  0  0  0  0  0  0
  186.9190  176.2930  137.2420 C   0  0  1  0  0  3  0  0  0  0  0  0
  186.5530  174.8820  136.8510 C   0  0  0  0  0  0  0  0  0  0  0  0
  185.3730  173.0430  136.4170 C   0  0  0  0  0  0  0  0  0  0  0  0
  183.4840  179.8010  138.9560 C   0  0  0  0  0  2  0  0  0  0  0  0
  184.1690  178.5560  138.4760 C   0  0  0  0  0  0  0  0  0  0  0  0
  184.3990  176.4760  137.6570 C   0  0  0  0  0  0  0  0  0  0  0  0
  186.7080  172.7540  136.1820 O   0  0  0  0  0  0  0  0  0  0  0  0
  187.4740  173.8710  136.4380 N   0  0  0  0  0  0  0  0  0  0  0  0
  182.0920  177.3890  138.2340 O   0  0  0  0  0  0  0  0  0  0  0  0
  183.4810  177.4790  138.1220 C   0  0  0  0  0  0  0  0  0  0  0  0
  184.1400  175.2340  137.2520 C   0  0  0  0  0  3  0  0  0  0  0  0
  187.5060  177.0170  136.0450 C   0  0  0  0  0  1  0  0  0  0  0  0
  184.3680  172.1930  136.2650 C   0  0  0  0  0  1  0  0  0  0  0  0
  185.7210  177.0040  137.7160 N   0  0  0  0  0  0  0  0  0  0  0  0
  185.3020  174.4270  136.8500 C   0  0  0  0  0  0  0  0  0  0  0  0
  187.4060  176.8990  143.3560 C   0  0  0  0  0  2  0  0  0  0  0  0
  188.1080  178.5900  141.0160 C   0  0  1  0  0  3  0  0  0  0  0  0
  185.8050  178.4160  140.6820 N   0  0  0  0  0  0  0  0  0  0  0  0
  186.6080  178.1670  143.0490 C   0  0  0  0  0  2  0  0  0  0  0  0
  186.3890  178.4610  139.5350 C   0  0  0  0  0  0  0  0  0  0  0  0
  188.8560  177.0160  142.8630 C   0  0  1  0  0  3  0  0  0  0  0  0
  186.8010  178.5300  141.6540 N   0  0  0  0  0  0  0  0  0  0  0  0
  188.9030  177.3270  141.3630 C   0  0  0  0  0  2  0  0  0  0  0  0
  187.7730  178.5730  139.6350 O   0  0  0  0  0  0  0  0  0  0  0  0
  189.6450  178.0450  143.6630 C   0  0  0  0  0  2  0  0  0  0  0  0
  190.5910  177.1600  145.8220 C   0  0  0  0  0  0  0  0  0  0  0  0
  189.5290  177.7640  145.0850 N   0  0  0  0  0  2  0  0  0  0  0  0
  190.4050  176.8590  147.2660 C   0  0  0  0  0  1  0  0  0  0  0  0
  191.6880  176.8860  145.2640 O   0  0  0  0  0  0  0  0  0  0  0  0
  1  8  1  0  0  0  0
  1 23  1  1  0  0  0
  3  2  1  0  0  0  0
  4 15  1  6  0  0  0
  4 17  1  0  0  0  0
  5  4  1  0  0  0  0
  6 18  2  0  0  0  0
  7  2  1  0  0  0  0
  8  7  1  0  0  0  0
  9 17  1  0  0  0  0
  9 13  1  0  0  0  0
 10  6  1  0  0  0  0
 10 11  1  0  0  0  0
 11  5  2  0  0  0  0
 12  3  1  0  0  0  0
 13 12  1  0  0  0  0
 13  8  2  0  0  0  0
 14  9  2  0  0  0  0
 16  6  1  0  0  0  0
 17  1  1  0  0  0  0
 18  5  1  0  0  0  0
 18 14  1  0  0  0  0
 20 26  1  1  0  0  0
 20 25  1  0  0  0  0
 21 25  1  0  0  0  0
 22 19  1  0  0  0  0
 23 27  1  0  0  0  0
 23 21  2  0  0  0  0
 24 19  1  0  0  0  0
 24 28  1  1  0  0  0
 25 22  1  0  0  0  0
 26 24  1  0  0  0  0
 27 20  1  0  0  0  0
 28 30  1  0  0  0  0
 29 31  1  0  0  0  0
 30 29  1  0  0  0  0
 32 29  2  0  0  0  0
M  END
>  <MODEL>
4

>  <REMARK>
 VINA RESULT:      -7.6      3.752      5.009
  Name = 
  3 active torsions:
  status: ('A' for Active; 'I' for Inactive)
    1  A    between atoms: C_3  and  C_14
    2  A    between atoms: N_10  and  C_24
    3  A    between atoms: C_19  and  C_24
                            x       y       z     vdW  Elec       q    Type
                         _______ _______ _______ _____ _____    ______ ____

>  <TORSDO>
F 3

$$$$
=
 OpenBabel11052417003D

 32 37  0  0  1  0  0  0  0  0999 V2000
  190.5910  176.4840  137.8020 C   0  0  2  0  0  3  0  0  0  0  0  0
  187.2060  174.5690  137.2190 C   0  0  0  0  0  2  0  0  0  0  0  0
  187.8190  173.5040  136.2940 C   0  0  0  0  0  2  0  0  0  0  0  0
  193.1840  176.0650  137.9690 C   0  0  1  0  0  3  0  0  0  0  0  0
  194.1010  174.8750  137.8410 C   0  0  0  0  0  0  0  0  0  0  0  0
  194.8550  172.8130  137.4580 C   0  0  0  0  0  0  0  0  0  0  0  0
  188.0460  175.8550  137.1920 C   0  0  0  0  0  2  0  0  0  0  0  0
  189.5010  175.5350  137.3670 C   0  0  0  0  0  0  0  0  0  0  0  0
  191.4110  174.3550  137.2740 C   0  0  0  0  0  0  0  0  0  0  0  0
  195.9300  173.5880  137.8630 O   0  0  0  0  0  0  0  0  0  0  0  0
  195.5040  174.8770  138.1080 N   0  0  0  0  0  0  0  0  0  0  0  0
  189.1950  173.2810  136.6200 O   0  0  0  0  0  0  0  0  0  0  0  0
  189.9900  174.3430  137.0560 C   0  0  0  0  0  0  0  0  0  0  0  0
  192.2830  173.3570  137.1330 C   0  0  0  0  0  3  0  0  0  0  0  0
  193.5890  177.1300  136.9660 C   0  0  0  0  0  1  0  0  0  0  0  0
  194.9150  171.5290  137.1400 C   0  0  0  0  0  1  0  0  0  0  0  0
  191.7930  175.6520  137.7210 N   0  0  0  0  0  0  0  0  0  0  0  0
  193.6840  173.6710  137.4540 C   0  0  0  0  0  0  0  0  0  0  0  0
  187.9280  177.1120  142.6930 C   0  0  0  0  0  2  0  0  0  0  0  0
  190.6300  177.1320  141.4590 C   0  0  1  0  0  3  0  0  0  0  0  0
  189.3480  177.6260  139.5730 N   0  0  0  0  0  0  0  0  0  0  0  0
  188.3590  178.2690  141.7910 C   0  0  0  0  0  2  0  0  0  0  0  0
  190.3620  176.9170  139.2130 C   0  0  0  0  0  0  0  0  0  0  0  0
  189.1310  176.4740  143.4020 C   0  0  1  0  0  3  0  0  0  0  0  0
  189.4630  177.8360  140.9480 N   0  0  0  0  0  0  0  0  0  0  0  0
  190.1780  175.9990  142.3870 C   0  0  0  0  0  2  0  0  0  0  0  0
  191.1920  176.5790  140.2770 O   0  0  0  0  0  0  0  0  0  0  0  0
  189.7490  177.4160  144.4280 C   0  0  0  0  0  2  0  0  0  0  0  0
  190.8910  176.6610  146.5410 C   0  0  0  0  0  0  0  0  0  0  0  0
  190.8420  176.7510  145.1180 N   0  0  0  0  0  2  0  0  0  0  0  0
  192.0520  176.0030  147.1960 C   0  0  0  0  0  1  0  0  0  0  0  0
  189.9560  177.1260  147.2480 O   0  0  0  0  0  0  0  0  0  0  0  0
  1 23  1  1  0  0  0
  3 12  1  0  0  0  0
  3  2  1  0  0  0  0
  4 15  1  6  0  0  0
  5  4  1  0  0  0  0
  5 11  2  0  0  0  0
  6 10  1  0  0  0  0
  7  2  1  0  0  0  0
  7  8  1  0  0  0  0
  8  1  1  0  0  0  0
  9 17  1  0  0  0  0
 10 11  1  0  0  0  0
 12 13  1  0  0  0  0
 13  9  1  0  0  0  0
 13  8  2  0  0  0  0
 14  9  2  0  0  0  0
 14 18  1  0  0  0  0
 16  6  1  0  0  0  0
 17  1  1  0  0  0  0
 17  4  1  0  0  0  0
 18  6  2  0  0  0  0
 18  5  1  0  0  0  0
 19 24  1  0  0  0  0
 20 26  1  1  0  0  0
 21 25  1  0  0  0  0
 22 19  1  0  0  0  0
 23 21  2  0  0  0  0
 23 27  1  0  0  0  0
 24 28  1  1  0  0  0
 25 20  1  0  0  0  0
 25 22  1  0  0  0  0
 26 24  1  0  0  0  0
 27 20  1  0  0  0  0
 28 30  1  0  0  0  0
 29 31  1  0  0  0  0
 29 32  2  0  0  0  0
 30 29  1  0  0  0  0
M  END
>  <MODEL>
5

>  <REMARK>
 VINA RESULT:      -7.3      1.904      2.512
  Name = 
  3 active torsions:
  status: ('A' for Active; 'I' for Inactive)
    1  A    between atoms: C_3  and  C_14
    2  A    between atoms: N_10  and  C_24
    3  A    between atoms: C_19  and  C_24
                            x       y       z     vdW  Elec       q    Type
                         _______ _______ _______ _____ _____    ______ ____

>  <TORSDO>
F 3

$$$$
=
 OpenBabel11052417003D

 32 37  0  0  1  0  0  0  0  0999 V2000
  184.0840  178.9250  140.9160 C   0  0  2  0  0  3  0  0  0  0  0  0
  186.0610  178.2520  137.5830 C   0  0  0  0  0  2  0  0  0  0  0  0
  187.4450  178.5160  138.1980 C   0  0  0  0  0  2  0  0  0  0  0  0
  184.3250  178.6980  143.5260 C   0  0  1  0  0  3  0  0  0  0  0  0
  185.3970  178.2330  144.4800 C   0  0  0  0  0  0  0  0  0  0  0  0
  187.3460  177.5230  145.2940 C   0  0  0  0  0  0  0  0  0  0  0  0
  184.9680  178.9880  138.3730 C   0  0  0  0  0  2  0  0  0  0  0  0
  185.1340  178.7460  139.8450 C   0  0  0  0  0  0  0  0  0  0  0  0
  186.1670  178.3080  141.7920 C   0  0  0  0  0  0  0  0  0  0  0  0
  186.4620  177.6370  146.3550 O   0  0  0  0  0  0  0  0  0  0  0  0
  185.2400  178.0780  145.8920 N   0  0  0  0  0  0  0  0  0  0  0  0
  187.4490  178.1920  139.5930 O   0  0  0  0  0  0  0  0  0  0  0  0
  186.3070  178.4150  140.3650 C   0  0  0  0  0  0  0  0  0  0  0  0
  187.0810  177.9520  142.6930 C   0  0  0  0  0  3  0  0  0  0  0  0
  183.9370  180.1280  143.8550 C   0  0  0  0  0  1  0  0  0  0  0  0
  188.6070  177.1280  145.3890 C   0  0  0  0  0  1  0  0  0  0  0  0
  184.8230  178.6220  142.1430 N   0  0  0  0  0  0  0  0  0  0  0  0
  186.6300  177.9130  144.0930 C   0  0  0  0  0  0  0  0  0  0  0  0
  179.2550  176.8090  139.0170 C   0  0  0  0  0  2  0  0  0  0  0  0
  181.8890  176.0300  140.1470 C   0  0  1  0  0  3  0  0  0  0  0  0
  181.7470  178.2050  140.9790 N   0  0  0  0  0  0  0  0  0  0  0  0
  179.5680  177.0550  140.4930 C   0  0  0  0  0  2  0  0  0  0  0  0
  182.9810  177.9370  140.7240 C   0  0  0  0  0  0  0  0  0  0  0  0
  180.0290  175.5980  138.4730 C   0  0  1  0  0  3  0  0  0  0  0  0
  181.0100  177.0570  140.6850 N   0  0  0  0  0  0  0  0  0  0  0  0
  181.5380  175.7740  138.6780 C   0  0  0  0  0  2  0  0  0  0  0  0
  183.1650  176.6500  140.2270 O   0  0  0  0  0  0  0  0  0  0  0  0
  179.5390  174.2920  139.0860 C   0  0  0  0  0  2  0  0  0  0  0  0
  179.6200  172.3160  137.5280 C   0  0  0  0  0  0  0  0  0  0  0  0
  178.9430  173.4540  138.0590 N   0  0  0  0  0  2  0  0  0  0  0  0
  178.9810  171.5160  136.4510 C   0  0  0  0  0  1  0  0  0  0  0  0
  180.7520  171.9770  137.9680 O   0  0  0  0  0  0  0  0  0  0  0  0
  1 23  1  6  0  0  0
  1 17  1  0  0  0  0
  2  3  1  0  0  0  0
  2  7  1  0  0  0  0
  3 12  1  0  0  0  0
  4 15  1  1  0  0  0
  4  5  1  0  0  0  0
  5 11  2  0  0  0  0
  6 16  1  0  0  0  0
  6 10  1  0  0  0  0
  7  8  1  0  0  0  0
  8 13  2  0  0  0  0
  8  1  1  0  0  0  0
  9 17  1  0  0  0  0
  9 14  2  0  0  0  0
 11 10  1  0  0  0  0
 12 13  1  0  0  0  0
 13  9  1  0  0  0  0
 14 18  1  0  0  0  0
 17  4  1  0  0  0  0
 18  5  1  0  0  0  0
 18  6  2  0  0  0  0
 19 22  1  0  0  0  0
 20 26  1  6  0  0  0
 20 27  1  0  0  0  0
 20 25  1  0  0  0  0
 22 25  1  0  0  0  0
 23 21  2  0  0  0  0
 24 26  1  0  0  0  0
 24 19  1  0  0  0  0
 24 28  1  1  0  0  0
 25 21  1  0  0  0  0
 27 23  1  0  0  0  0
 29 32  2  0  0  0  0
 29 30  1  0  0  0  0
 30 28  1  0  0  0  0
 31 29  1  0  0  0  0
M  END
>  <MODEL>
6

>  <REMARK>
 VINA RESULT:      -6.9      5.927     10.158
  Name = 
  3 active torsions:
  status: ('A' for Active; 'I' for Inactive)
    1  A    between atoms: C_3  and  C_14
    2  A    between atoms: N_10  and  C_24
    3  A    between atoms: C_19  and  C_24
                            x       y       z     vdW  Elec       q    Type
                         _______ _______ _______ _____ _____    ______ ____

>  <TORSDO>
F 3

$$$$
=
 OpenBabel11052417003D

 32 37  0  0  1  0  0  0  0  0999 V2000
  187.1970  178.6990  139.8410 C   0  0  2  0  0  3  0  0  0  0  0  0
  183.6400  178.6480  141.5170 C   0  0  0  0  0  2  0  0  0  0  0  0
  182.8790  178.4440  140.1980 C   0  0  0  0  0  2  0  0  0  0  0  0
  188.5230  177.6800  137.8090 C   0  0  1  0  0  3  0  0  0  0  0  0
  188.2040  176.7560  136.6590 C   0  0  0  0  0  0  0  0  0  0  0  0
  187.0890  175.4720  135.2200 C   0  0  0  0  0  0  0  0  0  0  0  0
  184.9970  179.3220  141.2600 C   0  0  0  0  0  2  0  0  0  0  0  0
  185.7180  178.6370  140.1380 C   0  0  0  0  0  0  0  0  0  0  0  0
  186.0110  177.4570  138.2480 C   0  0  0  0  0  0  0  0  0  0  0  0
  188.4270  175.4450  134.8610 O   0  0  0  0  0  0  0  0  0  0  0  0
  189.1540  176.2320  135.7290 N   0  0  0  0  0  0  0  0  0  0  0  0
  183.6850  177.7350  139.2510 O   0  0  0  0  0  0  0  0  0  0  0  0
  185.0650  177.9440  139.2150 C   0  0  0  0  0  0  0  0  0  0  0  0
  185.7910  176.6820  137.1870 C   0  0  0  0  0  3  0  0  0  0  0  0
  189.0450  179.0000  137.2710 C   0  0  0  0  0  1  0  0  0  0  0  0
  186.1160  174.8270  134.5940 C   0  0  0  0  0  1  0  0  0  0  0  0
  187.3110  177.9130  138.6100 N   0  0  0  0  0  0  0  0  0  0  0  0
  186.9740  176.3280  136.3870 C   0  0  0  0  0  0  0  0  0  0  0  0
  191.6540  177.0820  142.8280 C   0  0  0  0  0  2  0  0  0  0  0  0
  188.7260  177.5440  143.0220 C   0  0  1  0  0  3  0  0  0  0  0  0
  188.9030  177.1840  140.7230 N   0  0  0  0  0  0  0  0  0  0  0  0
  190.6730  176.1220  142.1550 C   0  0  0  0  0  2  0  0  0  0  0  0
  187.9700  178.0460  140.9390 C   0  0  0  0  0  0  0  0  0  0  0  0
  191.0330  177.7440  144.0670 C   0  0  1  0  0  3  0  0  0  0  0  0
  189.3950  176.7930  141.9700 N   0  0  0  0  0  0  0  0  0  0  0  0
  189.7340  178.4740  143.7060 C   0  0  0  0  0  2  0  0  0  0  0  0
  187.7870  178.3200  142.2910 O   0  0  0  0  0  0  0  0  0  0  0  0
  190.8050  176.7410  145.1910 C   0  0  0  0  0  2  0  0  0  0  0  0
  189.6930  177.2840  147.3840 C   0  0  0  0  0  0  0  0  0  0  0  0
  189.6360  177.1220  145.9670 N   0  0  0  0  0  2  0  0  0  0  0  0
  188.4590  177.6380  148.1330 C   0  0  0  0  0  1  0  0  0  0  0  0
  190.7800  177.1400  148.0050 O   0  0  0  0  0  0  0  0  0  0  0  0
  1  8  1  0  0  0  0
  1 23  1  1  0  0  0
  3  2  1  0  0  0  0
  4 15  1  6  0  0  0
  4 17  1  0  0  0  0
  5  4  1  0  0  0  0
  6 18  2  0  0  0  0
  7  2  1  0  0  0  0
  8  7  1  0  0  0  0
  9 17  1  0  0  0  0
  9 13  1  0  0  0  0
 10  6  1  0  0  0  0
 10 11  1  0  0  0  0
 11  5  2  0  0  0  0
 12  3  1  0  0  0  0
 13 12  1  0  0  0  0
 13  8  2  0  0  0  0
 14  9  2  0  0  0  0
 16  6  1  0  0  0  0
 17  1  1  0  0  0  0
 18  5  1  0  0  0  0
 18 14  1  0  0  0  0
 19 24  1  0  0  0  0
 20 26  1  6  0  0  0
 21 23  2  0  0  0  0
 21 25  1  0  0  0  0
 22 19  1  0  0  0  0
 23 27  1  0  0  0  0
 24 28  1  1  0  0  0
 25 22  1  0  0  0  0
 25 20  1  0  0  0  0
 26 24  1  0  0  0  0
 27 20  1  0  0  0  0
 28 30  1  0  0  0  0
 29 32  2  0  0  0  0
 29 31  1  0  0  0  0
 30 29  1  0  0  0  0
M  END
>  <MODEL>
7

>  <REMARK>
 VINA RESULT:      -6.8      3.028      4.013
  Name = 
  3 active torsions:
  status: ('A' for Active; 'I' for Inactive)
    1  A    between atoms: C_3  and  C_14
    2  A    between atoms: N_10  and  C_24
    3  A    between atoms: C_19  and  C_24
                            x       y       z     vdW  Elec       q    Type
                         _______ _______ _______ _____ _____    ______ ____

>  <TORSDO>
F 3

$$$$
=
 OpenBabel11052417003D

 32 37  0  0  1  0  0  0  0  0999 V2000
  186.2400  178.1430  137.9680 C   0  0  2  0  0  3  0  0  0  0  0  0
  190.0690  177.2430  137.9810 C   0  0  0  0  0  2  0  0  0  0  0  0
  190.3730  177.9900  139.2890 C   0  0  0  0  0  2  0  0  0  0  0  0
  184.2350  178.6010  139.6090 C   0  0  1  0  0  3  0  0  0  0  0  0
  184.0500  178.6630  141.1050 C   0  0  0  0  0  0  0  0  0  0  0  0
  184.4720  178.6890  143.2930 C   0  0  0  0  0  0  0  0  0  0  0  0
  188.8290  177.8360  137.2950 C   0  0  0  0  0  2  0  0  0  0  0  0
  187.7100  177.9960  138.2810 C   0  0  0  0  0  0  0  0  0  0  0  0
  186.6930  178.3040  140.2610 C   0  0  0  0  0  0  0  0  0  0  0  0
  183.1020  178.8160  143.1250 O   0  0  0  0  0  0  0  0  0  0  0  0
  182.7980  178.8070  141.7800 N   0  0  0  0  0  0  0  0  0  0  0  0
  189.2210  178.0130  140.1390 O   0  0  0  0  0  0  0  0  0  0  0  0
  187.9440  178.1080  139.5820 C   0  0  0  0  0  0  0  0  0  0  0  0
  186.4650  178.4160  141.5690 C   0  0  0  0  0  3  0  0  0  0  0  0
  183.8090  179.9190  138.9880 C   0  0  0  0  0  1  0  0  0  0  0  0
  185.1000  178.6650  144.4580 C   0  0  0  0  0  1  0  0  0  0  0  0
  185.6470  178.3350  139.2930 N   0  0  0  0  0  0  0  0  0  0  0  0
  185.0600  178.5910  141.9700 C   0  0  0  0  0  0  0  0  0  0  0  0
  184.8060  172.7410  137.5600 C   0  0  0  0  0  2  0  0  0  0  0  0
  184.2960  175.4140  136.3680 C   0  0  1  0  0  3  0  0  0  0  0  0
  186.4080  175.8020  137.2800 N   0  0  0  0  0  0  0  0  0  0  0  0
  185.8700  173.4190  136.6950 C   0  0  0  0  0  2  0  0  0  0  0  0
  185.7190  176.8880  137.3500 C   0  0  0  0  0  0  0  0  0  0  0  0
  183.3900  173.1740  137.1520 C   0  0  1  0  0  3  0  0  0  0  0  0
  185.6080  174.8500  136.6460 N   0  0  0  0  0  0  0  0  0  0  0  0
  183.2410  174.6980  137.2190 C   0  0  0  0  0  2  0  0  0  0  0  0
  184.4390  176.7540  136.8210 O   0  0  0  0  0  0  0  0  0  0  0  0
  183.0120  172.6450  135.7740 C   0  0  0  0  0  2  0  0  0  0  0  0
  180.6320  171.8340  135.9210 C   0  0  0  0  0  0  0  0  0  0  0  0
  182.0360  171.5750  135.9040 N   0  0  0  0  0  2  0  0  0  0  0  0
  179.6800  170.7060  136.0950 C   0  0  0  0  0  1  0  0  0  0  0  0
  180.1920  173.0070  135.7830 O   0  0  0  0  0  0  0  0  0  0  0  0
  1 23  1  1  0  0  0
  1  8  1  0  0  0  0
  1 17  1  0  0  0  0
  2  3  1  0  0  0  0
  3 12  1  0  0  0  0
  4 15  1  6  0  0  0
  4  5  1  0  0  0  0
  5 11  2  0  0  0  0
  5 18  1  0  0  0  0
  6 16  1  0  0  0  0
  7  2  1  0  0  0  0
  7  8  1  0  0  0  0
  8 13  2  0  0  0  0
  9 14  2  0  0  0  0
 10  6  1  0  0  0  0
 11 10  1  0  0  0  0
 13 12  1  0  0  0  0
 13  9  1  0  0  0  0
 14 18  1  0  0  0  0
 17  4  1  0  0  0  0
 17  9  1  0  0  0  0
 18  6  2  0  0  0  0
 20 25  1  0  0  0  0
 20 27  1  0  0  0  0
 20 26  1  1  0  0  0
 21 23  2  0  0  0  0
 22 19  1  0  0  0  0
 24 28  1  6  0  0  0
 24 26  1  0  0  0  0
 24 19  1  0  0  0  0
 25 22  1  0  0  0  0
 25 21  1  0  0  0  0
 27 23  1  0  0  0  0
 28 30  1  0  0  0  0
 29 31  1  0  0  0  0
 30 29  1  0  0  0  0
 32 29  2  0  0  0  0
M  END
>  <MODEL>
8

>  <REMARK>
 VINA RESULT:      -6.7      5.013      9.732
  Name = 
  3 active torsions:
  status: ('A' for Active; 'I' for Inactive)
    1  A    between atoms: C_3  and  C_14
    2  A    between atoms: N_10  and  C_24
    3  A    between atoms: C_19  and  C_24
                            x       y       z     vdW  Elec       q    Type
                         _______ _______ _______ _____ _____    ______ ____

>  <TORSDO>
F 3

$$$$
=
 OpenBabel11052417003D

 32 37  0  0  1  0  0  0  0  0999 V2000
  190.2680  176.5560  136.6660 C   0  0  2  0  0  3  0  0  0  0  0  0
  193.5250  174.6190  135.6150 C   0  0  0  0  0  2  0  0  0  0  0  0
  194.4100  175.2580  136.6970 C   0  0  0  0  0  2  0  0  0  0  0  0
  189.0740  177.5660  138.7820 C   0  0  1  0  0  3  0  0  0  0  0  0
  189.3910  177.6870  140.2520 C   0  0  0  0  0  0  0  0  0  0  0  0
  190.4690  177.6060  142.2000 C   0  0  0  0  0  0  0  0  0  0  0  0
  192.3360  175.5320  135.2790 C   0  0  0  0  0  2  0  0  0  0  0  0
  191.6670  176.0040  136.5370 C   0  0  0  0  0  0  0  0  0  0  0  0
  191.4420  176.5970  138.6920 C   0  0  0  0  0  0  0  0  0  0  0  0
  189.2000  178.1110  142.4400 O   0  0  0  0  0  0  0  0  0  0  0  0
  188.4990  178.1790  141.2540 N   0  0  0  0  0  0  0  0  0  0  0  0
  193.6320  175.6080  137.8470 O   0  0  0  0  0  0  0  0  0  0  0  0
  192.3180  176.0540  137.6910 C   0  0  0  0  0  0  0  0  0  0  0  0
  191.6730  176.7760  139.9920 C   0  0  0  0  0  3  0  0  0  0  0  0
  188.8390  178.9470  138.1970 C   0  0  0  0  0  1  0  0  0  0  0  0
  191.4010  177.4130  143.1210 C   0  0  0  0  0  1  0  0  0  0  0  0
  190.1930  176.9140  138.0840 N   0  0  0  0  0  0  0  0  0  0  0  0
  190.5640  177.3390  140.7770 C   0  0  0  0  0  0  0  0  0  0  0  0
  186.1360  172.8700  137.5310 C   0  0  0  0  0  2  0  0  0  0  0  0
  187.4990  174.4280  135.4010 C   0  0  1  0  0  3  0  0  0  0  0  0
  189.2110  174.3730  136.9860 N   0  0  0  0  0  0  0  0  0  0  0  0
  187.5470  172.4940  137.0790 C   0  0  0  0  0  2  0  0  0  0  0  0
  189.2660  175.4930  136.3520 C   0  0  0  0  0  0  0  0  0  0  0  0
  185.3410  173.5340  136.3970 C   0  0  1  0  0  3  0  0  0  0  0  0
  188.1640  173.6380  136.4270 N   0  0  0  0  0  0  0  0  0  0  0  0
  186.0770  174.7660  135.8580 C   0  0  0  0  0  2  0  0  0  0  0  0
  188.2820  175.6140  135.3760 O   0  0  0  0  0  0  0  0  0  0  0  0
  185.0240  172.5500  135.2770 C   0  0  0  0  0  2  0  0  0  0  0  0
  182.9120  171.3310  135.9040 C   0  0  0  0  0  0  0  0  0  0  0  0
  183.5870  172.3560  135.1770 N   0  0  0  0  0  2  0  0  0  0  0  0
  181.4460  171.1530  135.7360 C   0  0  0  0  0  1  0  0  0  0  0  0
  183.5450  170.5790  136.6940 O   0  0  0  0  0  0  0  0  0  0  0  0
  1 23  1  1  0  0  0
  1 17  1  0  0  0  0
  2  3  1  0  0  0  0
  3 12  1  0  0  0  0
  4 15  1  6  0  0  0
  4  5  1  0  0  0  0
  5 18  1  0  0  0  0
  5 11  2  0  0  0  0
  6 10  1  0  0  0  0
  6 16  1  0  0  0  0
  7  2  1  0  0  0  0
  7  8  1  0  0  0  0
  8  1  1  0  0  0  0
  8 13  2  0  0  0  0
  9 14  2  0  0  0  0
 11 10  1  0  0  0  0
 13 12  1  0  0  0  0
 13  9  1  0  0  0  0
 14 18  1  0  0  0  0
 17  9  1  0  0  0  0
 17  4  1  0  0  0  0
 18  6  2  0  0  0  0
 20 26  1  1  0  0  0
 20 25  1  0  0  0  0
 22 19  1  0  0  0  0
 23 21  2  0  0  0  0
 24 28  1  6  0  0  0
 24 19  1  0  0  0  0
 25 21  1  0  0  0  0
 25 22  1  0  0  0  0
 26 24  1  0  0  0  0
 27 20  1  0  0  0  0
 27 23  1  0  0  0  0
 29 32  2  0  0  0  0
 30 28  1  0  0  0  0
 30 29  1  0  0  0  0
 31 29  1  0  0  0  0
M  END
>  <MODEL>
9

>  <REMARK>
 VINA RESULT:      -6.6      3.608      8.258
  Name = 
  3 active torsions:
  status: ('A' for Active; 'I' for Inactive)
    1  A    between atoms: C_3  and  C_14
    2  A    between atoms: N_10  and  C_24
    3  A    between atoms: C_19  and  C_24
                            x       y       z     vdW  Elec       q    Type
                         _______ _______ _______ _____ _____    ______ ____

>  <TORSDO>
F 3

$$$$
