=
 OpenBabel11052414433D

 32 35  0  0  1  0  0  0  0  0999 V2000
  187.5640  178.0540  139.2000 C   0  0  0  0  0  3  0  0  0  0  0  0
  188.6100  177.1960  138.8530 C   0  0  0  0  0  0  0  0  0  0  0  0
  186.4010  178.1020  138.4240 C   0  0  0  0  0  0  0  0  0  0  0  0
  186.2830  177.2860  137.2840 C   0  0  0  0  0  0  0  0  0  0  0  0
  187.3370  176.4210  136.9460 C   0  0  0  0  0  3  0  0  0  0  0  0
  188.4930  176.3720  137.7300 C   0  0  0  0  0  3  0  0  0  0  0  0
  185.3100  179.0470  138.8100 C   0  0  0  0  0  2  0  0  0  0  0  0
  184.8470  178.7620  140.1970 C   0  0  0  0  0  0  0  0  0  0  0  0
  183.4410  179.2340  144.4450 C   0  0  0  0  0  2  0  0  0  0  0  0
  185.3550  179.3350  141.2340 N   0  0  0  0  0  0  0  0  0  0  0  0
  182.2070  178.5650  142.3010 C   0  0  0  0  0  2  0  0  0  0  0  0
  183.5830  177.9900  141.9390 C   0  0  1  0  0  3  0  0  0  0  0  0
  183.7330  177.9220  140.4910 N   0  0  0  0  0  2  0  0  0  0  0  0
  184.6480  178.8950  142.3510 N   0  0  0  0  0  0  0  0  0  0  0  0
  182.1960  179.4220  143.5790 C   0  0  0  0  0  2  0  0  0  0  0  0
  184.6840  179.5840  143.6350 C   0  0  0  0  0  2  0  0  0  0  0  0
  185.1210  177.3490  136.5070 O   0  0  0  0  0  0  0  0  0  0  0  0
  184.2830  176.2230  136.2820 C   0  0  0  0  0  2  0  0  0  0  0  0
  183.8450  175.6500  137.6130 C   0  0  0  0  0  2  0  0  0  0  0  0
  184.2000  174.1790  137.6670 C   0  0  0  0  0  1  0  0  0  0  0  0
  189.8190  177.1120  139.7180 C   0  0  0  0  0  2  0  0  0  0  0  0
  189.5240  177.6050  140.9910 O   0  0  0  0  0  0  0  0  0  0  0  0
  190.0260  176.6430  141.8720 C   0  0  0  0  0  2  0  0  0  0  0  0
  189.9930  177.3040  144.3920 C   0  0  2  0  0  0  0  0  0  0  0  0
  187.7010  177.6960  145.4490 C   0  0  0  0  0  2  0  0  0  0  0  0
  191.2650  176.5220  144.6610 C   0  0  0  0  0  1  0  0  0  0  0  0
  187.8200  177.1420  143.0190 C   0  0  0  0  0  2  0  0  0  0  0  0
  189.1320  177.1960  145.6610 C   0  0  0  0  0  2  0  0  0  0  0  0
  189.2550  176.6440  143.1950 C   0  0  1  0  0  3  0  0  0  0  0  0
  187.0360  176.9370  144.3090 C   0  0  0  0  0  2  0  0  0  0  0  0
  190.3960  178.7390  144.1410 C   0  0  0  0  0  3  0  0  0  0  0  0
  191.6620  179.1400  144.0040 C   0  0  0  0  0  2  0  0  0  0  0  0
  2  1  1  0  0  0  0
  2 21  1  0  0  0  0
  3  7  1  0  0  0  0
  3  1  2  0  0  0  0
  4  3  1  0  0  0  0
  5  4  2  0  0  0  0
  5  6  1  0  0  0  0
  6  2  2  0  0  0  0
  7  8  1  0  0  0  0
  8 13  1  0  0  0  0
  8 10  2  0  0  0  0
 10 14  1  0  0  0  0
 11 15  1  0  0  0  0
 12 11  1  6  0  0  0
 12 14  1  0  0  0  0
 13 12  1  0  0  0  0
 14 16  1  0  0  0  0
 15  9  1  0  0  0  0
 16  9  1  0  0  0  0
 17  4  1  0  0  0  0
 18 17  1  0  0  0  0
 18 19  1  0  0  0  0
 19 20  1  0  0  0  0
 21 22  1  0  0  0  0
 22 23  1  0  0  0  0
 24 26  1  1  0  0  0
 24 28  1  0  0  0  0
 25 28  1  0  0  0  0
 27 29  1  0  0  0  0
 27 30  1  0  0  0  0
 29 23  1  6  0  0  0
 29 24  1  0  0  0  0
 30 25  1  0  0  0  0
 31 24  1  0  0  0  0
 32 31  2  0  0  0  0
M  END
>  <MODEL>
1

>  <REMARK>
 VINA RESULT:      -7.6      0.000      0.000
  Name = 
  10 active torsions:
  status: ('A' for Active; 'I' for Inactive)
    1  A    between atoms: C_2  and  C_5
    2  A    between atoms: C_2  and  C_6
    3  A    between atoms: C_3  and  C_22
    4  A    between atoms: C_4  and  C_27
    5  A    between atoms: C_13  and  C_29
    6  A    between atoms: C_14  and  O_18
    7  A    between atoms: C_16  and  C_20
    8  A    between atoms: C_16  and  O_24
    9  A    between atoms: O_18  and  C_29
   10  A    between atoms: O_24  and  C_27
                            x       y       z     vdW  Elec       q    Type
                         _______ _______ _______ _____ _____    ______ ____

>  <TORSDO>
F 10

$$$$
=
 OpenBabel11052414433D

 32 35  0  0  1  0  0  0  0  0999 V2000
  185.7910  177.7420  144.4360 C   0  0  0  0  0  3  0  0  0  0  0  0
  185.1250  178.5740  145.3380 C   0  0  0  0  0  0  0  0  0  0  0  0
  187.1020  177.3260  144.6920 C   0  0  0  0  0  0  0  0  0  0  0  0
  187.7580  177.7520  145.8620 C   0  0  0  0  0  0  0  0  0  0  0  0
  187.0780  178.5840  146.7670 C   0  0  0  0  0  3  0  0  0  0  0  0
  185.7650  178.9880  146.5080 C   0  0  0  0  0  3  0  0  0  0  0  0
  187.7940  176.4550  143.6960 C   0  0  0  0  0  2  0  0  0  0  0  0
  188.1170  177.2310  142.4660 C   0  0  0  0  0  0  0  0  0  0  0  0
  189.3080  178.3500  138.2740 C   0  0  0  0  0  2  0  0  0  0  0  0
  189.1790  177.0210  141.7670 N   0  0  0  0  0  0  0  0  0  0  0  0
  187.0320  178.3130  139.4520 C   0  0  0  0  0  2  0  0  0  0  0  0
  187.8960  178.6370  140.6770 C   0  0  1  0  0  3  0  0  0  0  0  0
  187.2310  178.1900  141.8940 N   0  0  0  0  0  2  0  0  0  0  0  0
  189.1320  177.8650  140.6600 N   0  0  0  0  0  0  0  0  0  0  0  0
  187.8340  177.9540  138.1890 C   0  0  0  0  0  2  0  0  0  0  0  0
  189.9530  177.6620  139.4720 C   0  0  0  0  0  2  0  0  0  0  0  0
  189.0730  177.3420  146.1050 O   0  0  0  0  0  0  0  0  0  0  0  0
  189.4910  176.7880  147.3450 C   0  0  0  0  0  2  0  0  0  0  0  0
  190.9820  176.5350  147.3060 C   0  0  0  0  0  2  0  0  0  0  0  0
  191.4830  176.7040  145.8870 C   0  0  0  0  0  1  0  0  0  0  0  0
  183.7100  178.9630  145.0820 C   0  0  0  0  0  2  0  0  0  0  0  0
  183.5820  179.4480  143.7790 O   0  0  0  0  0  0  0  0  0  0  0  0
  182.2590  179.1730  143.4230 C   0  0  0  0  0  2  0  0  0  0  0  0
  180.8640  178.6120  141.2960 C   0  0  2  0  0  0  0  0  0  0  0  0
  182.1710  178.0190  139.1840 C   0  0  0  0  0  2  0  0  0  0  0  0
  179.7210  178.0670  142.1330 C   0  0  0  0  0  1  0  0  0  0  0  0
  183.4380  178.6490  141.2400 C   0  0  0  0  0  2  0  0  0  0  0  0
  180.9040  177.7760  140.0060 C   0  0  0  0  0  2  0  0  0  0  0  0
  182.1860  178.4250  142.0880 C   0  0  1  0  0  3  0  0  0  0  0  0
  183.4110  177.7350  140.0220 C   0  0  0  0  0  2  0  0  0  0  0  0
  180.5390  180.0560  140.9870 C   0  0  0  0  0  3  0  0  0  0  0  0
  179.3300  180.4800  140.6140 C   0  0  0  0  0  2  0  0  0  0  0  0
  1  3  2  0  0  0  0
  1  2  1  0  0  0  0
  2  6  2  0  0  0  0
  3  4  1  0  0  0  0
  4 17  1  0  0  0  0
  4  5  2  0  0  0  0
  6  5  1  0  0  0  0
  7  3  1  0  0  0  0
  8  7  1  0  0  0  0
  9 16  1  0  0  0  0
 10  8  2  0  0  0  0
 12 11  1  6  0  0  0
 12 13  1  0  0  0  0
 13  8  1  0  0  0  0
 14 12  1  0  0  0  0
 14 10  1  0  0  0  0
 15  9  1  0  0  0  0
 15 11  1  0  0  0  0
 16 14  1  0  0  0  0
 17 18  1  0  0  0  0
 19 18  1  0  0  0  0
 20 19  1  0  0  0  0
 21  2  1  0  0  0  0
 22 21  1  0  0  0  0
 23 22  1  0  0  0  0
 24 29  1  0  0  0  0
 24 26  1  1  0  0  0
 25 28  1  0  0  0  0
 25 30  1  0  0  0  0
 27 29  1  0  0  0  0
 28 24  1  0  0  0  0
 29 23  1  1  0  0  0
 30 27  1  0  0  0  0
 31 24  1  0  0  0  0
 32 31  2  0  0  0  0
M  END
>  <MODEL>
2

>  <REMARK>
 VINA RESULT:      -7.6      2.617      8.392
  Name = 
  10 active torsions:
  status: ('A' for Active; 'I' for Inactive)
    1  A    between atoms: C_2  and  C_5
    2  A    between atoms: C_2  and  C_6
    3  A    between atoms: C_3  and  C_22
    4  A    between atoms: C_4  and  C_27
    5  A    between atoms: C_13  and  C_29
    6  A    between atoms: C_14  and  O_18
    7  A    between atoms: C_16  and  C_20
    8  A    between atoms: C_16  and  O_24
    9  A    between atoms: O_18  and  C_29
   10  A    between atoms: O_24  and  C_27
                            x       y       z     vdW  Elec       q    Type
                         _______ _______ _______ _____ _____    ______ ____

>  <TORSDO>
F 10

$$$$
=
 OpenBabel11052414433D

 32 35  0  0  1  0  0  0  0  0999 V2000
  189.6350  176.9840  142.4890 C   0  0  0  0  0  3  0  0  0  0  0  0
  190.8520  177.5310  142.0770 C   0  0  0  0  0  0  0  0  0  0  0  0
  189.1740  177.1860  143.7950 C   0  0  0  0  0  0  0  0  0  0  0  0
  189.9420  177.9390  144.7020 C   0  0  0  0  0  0  0  0  0  0  0  0
  191.1620  178.4900  144.2760 C   0  0  0  0  0  3  0  0  0  0  0  0
  191.6120  178.2920  142.9680 C   0  0  0  0  0  3  0  0  0  0  0  0
  187.8790  176.5690  144.2100 C   0  0  0  0  0  2  0  0  0  0  0  0
  186.7630  177.5400  144.0330 C   0  0  0  0  0  0  0  0  0  0  0  0
  182.7760  179.3800  143.0550 C   0  0  0  0  0  2  0  0  0  0  0  0
  186.0730  177.6190  142.9470 N   0  0  0  0  0  0  0  0  0  0  0  0
  183.8780  178.7770  145.2890 C   0  0  0  0  0  2  0  0  0  0  0  0
  185.1570  179.0970  144.5040 C   0  0  1  0  0  3  0  0  0  0  0  0
  186.2910  178.3860  145.0800 N   0  0  0  0  0  2  0  0  0  0  0  0
  185.0770  178.5730  143.1460 N   0  0  0  0  0  0  0  0  0  0  0  0
  182.6020  178.7340  144.4300 C   0  0  0  0  0  2  0  0  0  0  0  0
  183.8960  178.6760  142.2980 C   0  0  0  0  0  2  0  0  0  0  0  0
  189.4800  178.1260  146.0090 O   0  0  0  0  0  0  0  0  0  0  0  0
  189.7980  177.2380  147.0720 C   0  0  0  0  0  2  0  0  0  0  0  0
  188.5560  176.9790  147.8980 C   0  0  0  0  0  2  0  0  0  0  0  0
  188.0350  178.2910  148.4460 C   0  0  0  0  0  1  0  0  0  0  0  0
  191.3040  177.3570  140.6690 C   0  0  0  0  0  2  0  0  0  0  0  0
  190.7390  176.1980  140.1310 O   0  0  0  0  0  0  0  0  0  0  0  0
  190.7210  176.4160  138.7510 C   0  0  0  0  0  2  0  0  0  0  0  0
  188.3850  177.0050  137.7610 C   0  0  2  0  0  0  0  0  0  0  0  0
  187.4120  175.3710  136.0550 C   0  0  0  0  0  2  0  0  0  0  0  0
  187.9720  177.7170  139.0350 C   0  0  0  0  0  1  0  0  0  0  0  0
  189.6830  174.9200  136.9860 C   0  0  0  0  0  2  0  0  0  0  0  0
  187.1140  176.3560  137.1870 C   0  0  0  0  0  2  0  0  0  0  0  0
  189.4200  175.9060  138.1250 C   0  0  1  0  0  3  0  0  0  0  0  0
  188.3730  174.2890  136.5300 C   0  0  0  0  0  2  0  0  0  0  0  0
  188.9210  178.0560  136.8160 C   0  0  0  0  0  3  0  0  0  0  0  0
  189.0280  179.3490  137.1300 C   0  0  0  0  0  2  0  0  0  0  0  0
  1  3  1  0  0  0  0
  2  1  2  0  0  0  0
  2  6  1  0  0  0  0
  3  7  1  0  0  0  0
  3  4  2  0  0  0  0
  4 17  1  0  0  0  0
  5  4  1  0  0  0  0
  6  5  2  0  0  0  0
  8  7  1  0  0  0  0
  8 13  1  0  0  0  0
  9 15  1  0  0  0  0
 10 14  1  0  0  0  0
 10  8  2  0  0  0  0
 12 13  1  0  0  0  0
 12 11  1  1  0  0  0
 14 12  1  0  0  0  0
 15 11  1  0  0  0  0
 16  9  1  0  0  0  0
 16 14  1  0  0  0  0
 17 18  1  0  0  0  0
 18 19  1  0  0  0  0
 19 20  1  0  0  0  0
 21  2  1  0  0  0  0
 22 21  1  0  0  0  0
 23 22  1  0  0  0  0
 24 29  1  0  0  0  0
 24 26  1  1  0  0  0
 25 30  1  0  0  0  0
 25 28  1  0  0  0  0
 27 29  1  0  0  0  0
 28 24  1  0  0  0  0
 29 23  1  6  0  0  0
 30 27  1  0  0  0  0
 31 32  2  0  0  0  0
 31 24  1  0  0  0  0
M  END
>  <MODEL>
3

>  <REMARK>
 VINA RESULT:      -7.5      2.093      6.713
  Name = 
  10 active torsions:
  status: ('A' for Active; 'I' for Inactive)
    1  A    between atoms: C_2  and  C_5
    2  A    between atoms: C_2  and  C_6
    3  A    between atoms: C_3  and  C_22
    4  A    between atoms: C_4  and  C_27
    5  A    between atoms: C_13  and  C_29
    6  A    between atoms: C_14  and  O_18
    7  A    between atoms: C_16  and  C_20
    8  A    between atoms: C_16  and  O_24
    9  A    between atoms: O_18  and  C_29
   10  A    between atoms: O_24  and  C_27
                            x       y       z     vdW  Elec       q    Type
                         _______ _______ _______ _____ _____    ______ ____

>  <TORSDO>
F 10

$$$$
=
 OpenBabel11052414433D

 32 35  0  0  1  0  0  0  0  0999 V2000
  189.2800  176.9780  142.7080 C   0  0  0  0  0  3  0  0  0  0  0  0
  190.5080  177.4500  142.2390 C   0  0  0  0  0  0  0  0  0  0  0  0
  188.8650  177.2620  144.0140 C   0  0  0  0  0  0  0  0  0  0  0  0
  189.6890  178.0230  144.8630 C   0  0  0  0  0  0  0  0  0  0  0  0
  190.9200  178.4990  144.3800 C   0  0  0  0  0  3  0  0  0  0  0  0
  191.3240  178.2190  143.0720 C   0  0  0  0  0  3  0  0  0  0  0  0
  187.5570  176.7240  144.4920 C   0  0  0  0  0  2  0  0  0  0  0  0
  186.4470  177.6380  144.1010 C   0  0  0  0  0  0  0  0  0  0  0  0
  182.5310  179.2460  142.5770 C   0  0  0  0  0  2  0  0  0  0  0  0
  185.8470  177.5610  142.9630 N   0  0  0  0  0  0  0  0  0  0  0  0
  183.4540  178.9600  144.9520 C   0  0  0  0  0  2  0  0  0  0  0  0
  184.7890  179.2060  144.2360 C   0  0  1  0  0  3  0  0  0  0  0  0
  185.8800  178.6000  144.9880 N   0  0  0  0  0  2  0  0  0  0  0  0
  184.8270  178.5100  142.9560 N   0  0  0  0  0  0  0  0  0  0  0  0
  182.2530  178.7780  144.0060 C   0  0  0  0  0  2  0  0  0  0  0  0
  183.7190  178.4760  142.0100 C   0  0  0  0  0  2  0  0  0  0  0  0
  189.2720  178.2930  146.1710 O   0  0  0  0  0  0  0  0  0  0  0  0
  189.6930  177.5210  147.2880 C   0  0  0  0  0  2  0  0  0  0  0  0
  188.8540  177.8850  148.4940 C   0  0  0  0  0  2  0  0  0  0  0  0
  187.4550  178.2470  148.0420 C   0  0  0  0  0  1  0  0  0  0  0  0
  190.9130  177.1890  140.8300 C   0  0  0  0  0  2  0  0  0  0  0  0
  189.7820  176.9330  140.0530 O   0  0  0  0  0  0  0  0  0  0  0  0
  189.8250  177.8860  139.0320 C   0  0  0  0  0  2  0  0  0  0  0  0
  188.0380  177.5000  137.1770 C   0  0  2  0  0  0  0  0  0  0  0  0
  185.5930  177.7900  137.8560 C   0  0  0  0  0  2  0  0  0  0  0  0
  188.9940  177.9640  136.0940 C   0  0  0  0  0  1  0  0  0  0  0  0
  187.3600  178.0620  139.5970 C   0  0  0  0  0  2  0  0  0  0  0  0
  186.6300  177.9380  136.7410 C   0  0  0  0  0  2  0  0  0  0  0  0
  188.4220  178.2030  138.5070 C   0  0  1  0  0  3  0  0  0  0  0  0
  186.0190  178.5770  139.0880 C   0  0  0  0  0  2  0  0  0  0  0  0
  188.1320  175.9920  137.2380 C   0  0  0  0  0  3  0  0  0  0  0  0
  187.8540  175.1900  136.2080 C   0  0  0  0  0  2  0  0  0  0  0  0
  1  3  1  0  0  0  0
  2  1  2  0  0  0  0
  2  6  1  0  0  0  0
  3  7  1  0  0  0  0
  3  4  2  0  0  0  0
  4 17  1  0  0  0  0
  5  4  1  0  0  0  0
  6  5  2  0  0  0  0
  8  7  1  0  0  0  0
  8 13  1  0  0  0  0
  9 15  1  0  0  0  0
 10  8  2  0  0  0  0
 12 11  1  1  0  0  0
 12 13  1  0  0  0  0
 14 10  1  0  0  0  0
 14 12  1  0  0  0  0
 15 11  1  0  0  0  0
 16  9  1  0  0  0  0
 16 14  1  0  0  0  0
 17 18  1  0  0  0  0
 18 19  1  0  0  0  0
 20 19  1  0  0  0  0
 21  2  1  0  0  0  0
 22 21  1  0  0  0  0
 23 22  1  0  0  0  0
 24 26  1  6  0  0  0
 24 31  1  0  0  0  0
 24 29  1  0  0  0  0
 25 30  1  0  0  0  0
 28 24  1  0  0  0  0
 28 25  1  0  0  0  0
 29 23  1  1  0  0  0
 29 27  1  0  0  0  0
 30 27  1  0  0  0  0
 32 31  2  0  0  0  0
M  END
>  <MODEL>
4

>  <REMARK>
 VINA RESULT:      -7.4      1.789      6.703
  Name = 
  10 active torsions:
  status: ('A' for Active; 'I' for Inactive)
    1  A    between atoms: C_2  and  C_5
    2  A    between atoms: C_2  and  C_6
    3  A    between atoms: C_3  and  C_22
    4  A    between atoms: C_4  and  C_27
    5  A    between atoms: C_13  and  C_29
    6  A    between atoms: C_14  and  O_18
    7  A    between atoms: C_16  and  C_20
    8  A    between atoms: C_16  and  O_24
    9  A    between atoms: O_18  and  C_29
   10  A    between atoms: O_24  and  C_27
                            x       y       z     vdW  Elec       q    Type
                         _______ _______ _______ _____ _____    ______ ____

>  <TORSDO>
F 10

$$$$
=
 OpenBabel11052414433D

 32 35  0  0  1  0  0  0  0  0999 V2000
  189.4310  176.8350  141.1970 C   0  0  0  0  0  3  0  0  0  0  0  0
  190.4820  177.3130  140.4120 C   0  0  0  0  0  0  0  0  0  0  0  0
  189.6370  176.5340  142.5480 C   0  0  0  0  0  0  0  0  0  0  0  0
  190.9110  176.7080  143.1200 C   0  0  0  0  0  0  0  0  0  0  0  0
  191.9610  177.1960  142.3240 C   0  0  0  0  0  3  0  0  0  0  0  0
  191.7450  177.5030  140.9770 C   0  0  0  0  0  3  0  0  0  0  0  0
  188.4980  176.0030  143.3540 C   0  0  0  0  0  2  0  0  0  0  0  0
  187.5700  177.1070  143.7280 C   0  0  0  0  0  0  0  0  0  0  0  0
  183.8750  179.5970  144.3470 C   0  0  0  0  0  2  0  0  0  0  0  0
  186.6750  177.5690  142.9240 N   0  0  0  0  0  0  0  0  0  0  0  0
  185.3310  178.2640  145.9820 C   0  0  0  0  0  2  0  0  0  0  0  0
  186.4310  178.6430  144.9820 C   0  0  1  0  0  3  0  0  0  0  0  0
  187.5160  177.6710  145.0370 N   0  0  0  0  0  2  0  0  0  0  0  0
  185.9460  178.5360  143.6110 N   0  0  0  0  0  0  0  0  0  0  0  0
  183.9050  178.6140  145.5170 C   0  0  0  0  0  2  0  0  0  0  0  0
  184.6410  179.0120  143.1670 C   0  0  0  0  0  2  0  0  0  0  0  0
  191.1110  176.3940  144.4680 O   0  0  0  0  0  0  0  0  0  0  0  0
  191.2150  177.3840  145.4830 C   0  0  0  0  0  2  0  0  0  0  0  0
  190.9420  176.7520  146.8310 C   0  0  0  0  0  2  0  0  0  0  0  0
  192.0530  175.7790  147.1640 C   0  0  0  0  0  1  0  0  0  0  0  0
  190.2370  177.6830  138.9900 C   0  0  0  0  0  2  0  0  0  0  0  0
  189.1510  178.5580  138.9100 O   0  0  0  0  0  0  0  0  0  0  0  0
  188.9050  178.6990  137.5420 C   0  0  0  0  0  2  0  0  0  0  0  0
  187.3480  177.0230  136.2970 C   0  0  2  0  0  0  0  0  0  0  0  0
  184.9900  176.7280  137.2340 C   0  0  0  0  0  2  0  0  0  0  0  0
  188.0320  177.3000  134.9710 C   0  0  0  0  0  1  0  0  0  0  0  0
  186.5690  178.2530  138.4210 C   0  0  0  0  0  2  0  0  0  0  0  0
  185.8680  176.7500  135.9810 C   0  0  0  0  0  2  0  0  0  0  0  0
  187.4730  178.2880  137.1890 C   0  0  1  0  0  3  0  0  0  0  0  0
  185.1210  178.0390  137.9990 C   0  0  0  0  0  2  0  0  0  0  0  0
  188.0030  175.7950  136.8890 C   0  0  0  0  0  3  0  0  0  0  0  0
  188.9810  175.1150  136.2870 C   0  0  0  0  0  2  0  0  0  0  0  0
  1  3  1  0  0  0  0
  2  6  1  0  0  0  0
  2  1  2  0  0  0  0
  3  4  2  0  0  0  0
  3  7  1  0  0  0  0
  4 17  1  0  0  0  0
  5  4  1  0  0  0  0
  6  5  2  0  0  0  0
  7  8  1  0  0  0  0
  8 13  1  0  0  0  0
  9 15  1  0  0  0  0
 10 14  1  0  0  0  0
 10  8  2  0  0  0  0
 12 13  1  0  0  0  0
 12 11  1  1  0  0  0
 14 12  1  0  0  0  0
 15 11  1  0  0  0  0
 16 14  1  0  0  0  0
 16  9  1  0  0  0  0
 17 18  1  0  0  0  0
 18 19  1  0  0  0  0
 19 20  1  0  0  0  0
 21  2  1  0  0  0  0
 22 21  1  0  0  0  0
 23 22  1  0  0  0  0
 24 26  1  6  0  0  0
 24 31  1  0  0  0  0
 24 29  1  0  0  0  0
 25 30  1  0  0  0  0
 28 24  1  0  0  0  0
 28 25  1  0  0  0  0
 29 23  1  1  0  0  0
 29 27  1  0  0  0  0
 30 27  1  0  0  0  0
 32 31  2  0  0  0  0
M  END
>  <MODEL>
5

>  <REMARK>
 VINA RESULT:      -7.3      1.939      6.861
  Name = 
  10 active torsions:
  status: ('A' for Active; 'I' for Inactive)
    1  A    between atoms: C_2  and  C_5
    2  A    between atoms: C_2  and  C_6
    3  A    between atoms: C_3  and  C_22
    4  A    between atoms: C_4  and  C_27
    5  A    between atoms: C_13  and  C_29
    6  A    between atoms: C_14  and  O_18
    7  A    between atoms: C_16  and  C_20
    8  A    between atoms: C_16  and  O_24
    9  A    between atoms: O_18  and  C_29
   10  A    between atoms: O_24  and  C_27
                            x       y       z     vdW  Elec       q    Type
                         _______ _______ _______ _____ _____    ______ ____

>  <TORSDO>
F 10

$$$$
=
 OpenBabel11052414433D

 32 35  0  0  1  0  0  0  0  0999 V2000
  189.0980  177.6390  138.9160 C   0  0  0  0  0  3  0  0  0  0  0  0
  188.0800  177.2750  138.0320 C   0  0  0  0  0  0  0  0  0  0  0  0
  190.2590  176.8640  139.0170 C   0  0  0  0  0  0  0  0  0  0  0  0
  190.4020  175.7080  138.2290 C   0  0  0  0  0  0  0  0  0  0  0  0
  189.3760  175.3530  137.3370 C   0  0  0  0  0  3  0  0  0  0  0  0
  188.2230  176.1360  137.2350 C   0  0  0  0  0  3  0  0  0  0  0  0
  191.3180  177.2690  139.9890 C   0  0  0  0  0  2  0  0  0  0  0  0
  190.8440  177.0620  141.3870 C   0  0  0  0  0  0  0  0  0  0  0  0
  189.0520  177.7110  145.4620 C   0  0  0  0  0  2  0  0  0  0  0  0
  191.1050  177.8880  142.3410 N   0  0  0  0  0  0  0  0  0  0  0  0
  188.2010  176.4440  143.4030 C   0  0  0  0  0  2  0  0  0  0  0  0
  189.7030  176.2210  143.1800 C   0  0  1  0  0  3  0  0  0  0  0  0
  189.9730  175.9990  141.7650 N   0  0  0  0  0  2  0  0  0  0  0  0
  190.4580  177.4300  143.4870 N   0  0  0  0  0  0  0  0  0  0  0  0
  187.8690  177.4330  144.5350 C   0  0  0  0  0  2  0  0  0  0  0  0
  190.2160  178.2720  144.6520 C   0  0  0  0  0  2  0  0  0  0  0  0
  191.5610  174.9320  138.3440 O   0  0  0  0  0  0  0  0  0  0  0  0
  192.3880  174.6120  137.2340 C   0  0  0  0  0  2  0  0  0  0  0  0
  193.5760  175.5500  137.2060 C   0  0  0  0  0  2  0  0  0  0  0  0
  194.7570  174.8840  137.8790 C   0  0  0  0  0  1  0  0  0  0  0  0
  186.8750  178.1380  137.8920 C   0  0  0  0  0  2  0  0  0  0  0  0
  186.5020  178.6340  139.1430 O   0  0  0  0  0  0  0  0  0  0  0  0
  185.1060  178.6710  139.1110 C   0  0  0  0  0  2  0  0  0  0  0  0
  183.0700  178.5450  140.7320 C   0  0  2  0  0  0  0  0  0  0  0  0
  183.5820  178.6210  143.2330 C   0  0  0  0  0  2  0  0  0  0  0  0
  182.1650  179.2260  139.7220 C   0  0  0  0  0  1  0  0  0  0  0  0
  185.4860  178.6530  141.6180 C   0  0  0  0  0  2  0  0  0  0  0  0
  182.5990  179.0000  142.1230 C   0  0  0  0  0  2  0  0  0  0  0  0
  184.5270  179.0210  140.4850 C   0  0  1  0  0  3  0  0  0  0  0  0
  184.9620  179.1980  142.9410 C   0  0  0  0  0  2  0  0  0  0  0  0
  182.8810  177.0540  140.5650 C   0  0  0  0  0  3  0  0  0  0  0  0
  182.1360  176.5050  139.6040 C   0  0  0  0  0  2  0  0  0  0  0  0
  1  3  1  0  0  0  0
  2  1  2  0  0  0  0
  3  7  1  0  0  0  0
  4 17  1  0  0  0  0
  4  3  2  0  0  0  0
  5  4  1  0  0  0  0
  6  5  2  0  0  0  0
  6  2  1  0  0  0  0
  7  8  1  0  0  0  0
  8 13  1  0  0  0  0
  8 10  2  0  0  0  0
 10 14  1  0  0  0  0
 11 15  1  0  0  0  0
 12 11  1  6  0  0  0
 12 14  1  0  0  0  0
 13 12  1  0  0  0  0
 14 16  1  0  0  0  0
 15  9  1  0  0  0  0
 16  9  1  0  0  0  0
 18 17  1  0  0  0  0
 19 18  1  0  0  0  0
 19 20  1  0  0  0  0
 21  2  1  0  0  0  0
 21 22  1  0  0  0  0
 23 22  1  0  0  0  0
 24 26  1  6  0  0  0
 24 28  1  0  0  0  0
 27 30  1  0  0  0  0
 28 25  1  0  0  0  0
 29 23  1  6  0  0  0
 29 24  1  0  0  0  0
 29 27  1  0  0  0  0
 30 25  1  0  0  0  0
 31 24  1  0  0  0  0
 32 31  2  0  0  0  0
M  END
>  <MODEL>
6

>  <REMARK>
 VINA RESULT:      -7.2      2.786      6.441
  Name = 
  10 active torsions:
  status: ('A' for Active; 'I' for Inactive)
    1  A    between atoms: C_2  and  C_5
    2  A    between atoms: C_2  and  C_6
    3  A    between atoms: C_3  and  C_22
    4  A    between atoms: C_4  and  C_27
    5  A    between atoms: C_13  and  C_29
    6  A    between atoms: C_14  and  O_18
    7  A    between atoms: C_16  and  C_20
    8  A    between atoms: C_16  and  O_24
    9  A    between atoms: O_18  and  C_29
   10  A    between atoms: O_24  and  C_27
                            x       y       z     vdW  Elec       q    Type
                         _______ _______ _______ _____ _____    ______ ____

>  <TORSDO>
F 10

$$$$
=
 OpenBabel11052414433D

 32 35  0  0  1  0  0  0  0  0999 V2000
  186.0110  177.8620  144.1440 C   0  0  0  0  0  3  0  0  0  0  0  0
  185.2690  178.6870  144.9920 C   0  0  0  0  0  0  0  0  0  0  0  0
  187.1870  177.2550  144.6000 C   0  0  0  0  0  0  0  0  0  0  0  0
  187.6280  177.4780  145.9170 C   0  0  0  0  0  0  0  0  0  0  0  0
  186.8700  178.3040  146.7650 C   0  0  0  0  0  3  0  0  0  0  0  0
  185.6930  178.9010  146.3050 C   0  0  0  0  0  3  0  0  0  0  0  0
  187.9700  176.3970  143.6620 C   0  0  0  0  0  2  0  0  0  0  0  0
  188.3010  177.1540  142.4220 C   0  0  0  0  0  0  0  0  0  0  0  0
  189.4520  178.2090  138.2020 C   0  0  0  0  0  2  0  0  0  0  0  0
  189.3380  176.8960  141.7020 N   0  0  0  0  0  0  0  0  0  0  0  0
  187.2010  178.2750  139.4270 C   0  0  0  0  0  2  0  0  0  0  0  0
  188.1050  178.5640  140.6330 C   0  0  1  0  0  3  0  0  0  0  0  0
  187.4450  178.1500  141.8650 N   0  0  0  0  0  2  0  0  0  0  0  0
  189.3050  177.7380  140.5920 N   0  0  0  0  0  0  0  0  0  0  0  0
  187.9600  177.8770  138.1480 C   0  0  0  0  0  2  0  0  0  0  0  0
  190.0910  177.4960  139.3890 C   0  0  0  0  0  2  0  0  0  0  0  0
  188.8100  176.8760  146.3610 O   0  0  0  0  0  0  0  0  0  0  0  0
  189.6360  177.4490  147.3660 C   0  0  0  0  0  2  0  0  0  0  0  0
  190.9630  176.7230  147.3990 C   0  0  0  0  0  2  0  0  0  0  0  0
  191.5680  176.7150  146.0110 C   0  0  0  0  0  1  0  0  0  0  0  0
  183.9900  179.2820  144.5130 C   0  0  0  0  0  2  0  0  0  0  0  0
  183.3540  178.3980  143.6400 O   0  0  0  0  0  0  0  0  0  0  0  0
  183.5050  178.9720  142.3760 C   0  0  0  0  0  2  0  0  0  0  0  0
  182.2750  178.3360  140.1690 C   0  0  2  0  0  0  0  0  0  0  0  0
  179.7740  177.8490  140.3440 C   0  0  0  0  0  2  0  0  0  0  0  0
  183.2270  179.1780  139.3410 C   0  0  0  0  0  1  0  0  0  0  0  0
  181.0390  178.3840  142.4280 C   0  0  0  0  0  2  0  0  0  0  0  0
  180.9020  178.4170  139.4810 C   0  0  0  0  0  2  0  0  0  0  0  0
  182.1890  178.9490  141.5930 C   0  0  1  0  0  3  0  0  0  0  0  0
  179.7200  178.5650  141.6880 C   0  0  0  0  0  2  0  0  0  0  0  0
  182.8000  176.9180  140.1480 C   0  0  0  0  0  3  0  0  0  0  0  0
  182.8490  176.1630  139.0490 C   0  0  0  0  0  2  0  0  0  0  0  0
  1  3  2  0  0  0  0
  1  2  1  0  0  0  0
  2  6  2  0  0  0  0
  3  4  1  0  0  0  0
  4 17  1  0  0  0  0
  4  5  2  0  0  0  0
  6  5  1  0  0  0  0
  7  3  1  0  0  0  0
  8  7  1  0  0  0  0
  9 16  1  0  0  0  0
 10  8  2  0  0  0  0
 12 11  1  6  0  0  0
 12 13  1  0  0  0  0
 13  8  1  0  0  0  0
 14 12  1  0  0  0  0
 14 10  1  0  0  0  0
 15  9  1  0  0  0  0
 15 11  1  0  0  0  0
 16 14  1  0  0  0  0
 17 18  1  0  0  0  0
 18 19  1  0  0  0  0
 20 19  1  0  0  0  0
 21  2  1  0  0  0  0
 22 21  1  0  0  0  0
 23 22  1  0  0  0  0
 24 26  1  6  0  0  0
 24 29  1  0  0  0  0
 25 30  1  0  0  0  0
 28 24  1  0  0  0  0
 28 25  1  0  0  0  0
 29 23  1  1  0  0  0
 29 27  1  0  0  0  0
 30 27  1  0  0  0  0
 31 24  1  0  0  0  0
 32 31  2  0  0  0  0
M  END
>  <MODEL>
7

>  <REMARK>
 VINA RESULT:      -7.1      2.520      8.254
  Name = 
  10 active torsions:
  status: ('A' for Active; 'I' for Inactive)
    1  A    between atoms: C_2  and  C_5
    2  A    between atoms: C_2  and  C_6
    3  A    between atoms: C_3  and  C_22
    4  A    between atoms: C_4  and  C_27
    5  A    between atoms: C_13  and  C_29
    6  A    between atoms: C_14  and  O_18
    7  A    between atoms: C_16  and  C_20
    8  A    between atoms: C_16  and  O_24
    9  A    between atoms: O_18  and  C_29
   10  A    between atoms: O_24  and  C_27
                            x       y       z     vdW  Elec       q    Type
                         _______ _______ _______ _____ _____    ______ ____

>  <TORSDO>
F 10

$$$$
=
 OpenBabel11052414433D

 32 35  0  0  1  0  0  0  0  0999 V2000
  187.9620  178.3490  141.3260 C   0  0  0  0  0  3  0  0  0  0  0  0
  189.0080  177.4280  141.4050 C   0  0  0  0  0  0  0  0  0  0  0  0
  186.9820  178.3940  142.3240 C   0  0  0  0  0  0  0  0  0  0  0  0
  187.0460  177.5040  143.4120 C   0  0  0  0  0  0  0  0  0  0  0  0
  188.1060  176.5850  143.4860 C   0  0  0  0  0  3  0  0  0  0  0  0
  189.0860  176.5520  142.4900 C   0  0  0  0  0  3  0  0  0  0  0  0
  185.8640  179.3760  142.1990 C   0  0  0  0  0  2  0  0  0  0  0  0
  184.9520  178.9820  141.0880 C   0  0  0  0  0  0  0  0  0  0  0  0
  181.2880  177.9410  138.6940 C   0  0  0  0  0  2  0  0  0  0  0  0
  184.0420  178.0780  141.2190 N   0  0  0  0  0  0  0  0  0  0  0  0
  182.7710  180.0310  138.7260 C   0  0  0  0  0  2  0  0  0  0  0  0
  183.8520  179.0010  139.0840 C   0  0  1  0  0  3  0  0  0  0  0  0
  184.9300  179.6430  139.8250 N   0  0  0  0  0  2  0  0  0  0  0  0
  183.3350  178.0110  140.0210 N   0  0  0  0  0  0  0  0  0  0  0  0
  181.3390  179.4680  138.7200 C   0  0  0  0  0  2  0  0  0  0  0  0
  182.0240  177.3840  139.9070 C   0  0  0  0  0  2  0  0  0  0  0  0
  186.0560  177.5480  144.4000 O   0  0  0  0  0  0  0  0  0  0  0  0
  186.3440  177.8030  145.7680 C   0  0  0  0  0  2  0  0  0  0  0  0
  185.3330  178.7850  146.3190 C   0  0  0  0  0  2  0  0  0  0  0  0
  184.1350  178.8440  145.3960 C   0  0  0  0  0  1  0  0  0  0  0  0
  190.0750  177.4280  140.3660 C   0  0  0  0  0  2  0  0  0  0  0  0
  189.6680  178.1900  139.2700 O   0  0  0  0  0  0  0  0  0  0  0  0
  190.0120  177.4240  138.1530 C   0  0  0  0  0  2  0  0  0  0  0  0
  188.8810  176.2000  136.1500 C   0  0  2  0  0  0  0  0  0  0  0  0
  186.3860  176.6200  135.8040 C   0  0  0  0  0  2  0  0  0  0  0  0
  190.1720  176.2160  135.3520 C   0  0  0  0  0  1  0  0  0  0  0  0
  187.5220  177.6910  137.7520 C   0  0  0  0  0  2  0  0  0  0  0  0
  187.7340  176.3410  135.1370 C   0  0  0  0  0  2  0  0  0  0  0  0
  188.8850  177.4170  137.1150 C   0  0  1  0  0  3  0  0  0  0  0  0
  186.4690  177.8730  136.6660 C   0  0  0  0  0  2  0  0  0  0  0  0
  188.8100  174.8650  136.8560 C   0  0  0  0  0  3  0  0  0  0  0  0
  189.7970  173.9660  136.8400 C   0  0  0  0  0  2  0  0  0  0  0  0
  1  2  2  0  0  0  0
  1  3  1  0  0  0  0
  2  6  1  0  0  0  0
  3  4  2  0  0  0  0
  4  5  1  0  0  0  0
  4 17  1  0  0  0  0
  6  5  2  0  0  0  0
  7  3  1  0  0  0  0
  8 10  2  0  0  0  0
  8  7  1  0  0  0  0
  9 15  1  0  0  0  0
  9 16  1  0  0  0  0
 12 11  1  1  0  0  0
 12 13  1  0  0  0  0
 12 14  1  0  0  0  0
 13  8  1  0  0  0  0
 14 10  1  0  0  0  0
 15 11  1  0  0  0  0
 16 14  1  0  0  0  0
 17 18  1  0  0  0  0
 18 19  1  0  0  0  0
 20 19  1  0  0  0  0
 21  2  1  0  0  0  0
 22 21  1  0  0  0  0
 23 22  1  0  0  0  0
 24 26  1  6  0  0  0
 24 31  1  0  0  0  0
 24 29  1  0  0  0  0
 25 30  1  0  0  0  0
 28 25  1  0  0  0  0
 28 24  1  0  0  0  0
 29 27  1  0  0  0  0
 29 23  1  1  0  0  0
 30 27  1  0  0  0  0
 32 31  2  0  0  0  0
M  END
>  <MODEL>
8

>  <REMARK>
 VINA RESULT:      -7.0      2.207      6.294
  Name = 
  10 active torsions:
  status: ('A' for Active; 'I' for Inactive)
    1  A    between atoms: C_2  and  C_5
    2  A    between atoms: C_2  and  C_6
    3  A    between atoms: C_3  and  C_22
    4  A    between atoms: C_4  and  C_27
    5  A    between atoms: C_13  and  C_29
    6  A    between atoms: C_14  and  O_18
    7  A    between atoms: C_16  and  C_20
    8  A    between atoms: C_16  and  O_24
    9  A    between atoms: O_18  and  C_29
   10  A    between atoms: O_24  and  C_27
                            x       y       z     vdW  Elec       q    Type
                         _______ _______ _______ _____ _____    ______ ____

>  <TORSDO>
F 10

$$$$
=
 OpenBabel11052414433D

 32 35  0  0  1  0  0  0  0  0999 V2000
  184.2750  178.7130  140.5980 C   0  0  0  0  0  3  0  0  0  0  0  0
  184.7500  178.6670  141.9110 C   0  0  0  0  0  0  0  0  0  0  0  0
  182.9010  178.7920  140.3460 C   0  0  0  0  0  0  0  0  0  0  0  0
  181.9900  178.8210  141.4180 C   0  0  0  0  0  0  0  0  0  0  0  0
  182.4780  178.7810  142.7350 C   0  0  0  0  0  3  0  0  0  0  0  0
  183.8520  178.7110  142.9800 C   0  0  0  0  0  3  0  0  0  0  0  0
  182.4240  178.8160  138.9310 C   0  0  0  0  0  2  0  0  0  0  0  0
  181.8290  180.1430  138.6080 C   0  0  0  0  0  0  0  0  0  0  0  0
  181.1750  184.2810  136.9680 C   0  0  0  0  0  2  0  0  0  0  0  0
  182.4840  181.2470  138.7190 N   0  0  0  0  0  0  0  0  0  0  0  0
  180.1770  182.0090  136.3230 C   0  0  0  0  0  2  0  0  0  0  0  0
  180.3860  181.7300  137.8170 C   0  0  1  0  0  3  0  0  0  0  0  0
  180.5270  180.2980  138.0460 N   0  0  0  0  0  2  0  0  0  0  0  0
  181.6570  182.2770  138.2750 N   0  0  0  0  0  0  0  0  0  0  0  0
  180.8030  183.3280  135.8320 C   0  0  0  0  0  2  0  0  0  0  0  0
  182.1600  183.5960  137.9080 C   0  0  0  0  0  2  0  0  0  0  0  0
  180.6180  178.8880  141.1560 O   0  0  0  0  0  0  0  0  0  0  0  0
  179.7230  177.8260  141.4600 C   0  0  0  0  0  2  0  0  0  0  0  0
  179.4610  177.0170  140.2080 C   0  0  0  0  0  2  0  0  0  0  0  0
  179.6670  175.5470  140.5080 C   0  0  0  0  0  1  0  0  0  0  0  0
  186.2170  178.6400  142.1680 C   0  0  0  0  0  2  0  0  0  0  0  0
  186.4600  178.2210  143.4770 O   0  0  0  0  0  0  0  0  0  0  0  0
  187.5880  177.4020  143.3880 C   0  0  0  0  0  2  0  0  0  0  0  0
  189.7280  177.3440  144.8720 C   0  0  2  0  0  0  0  0  0  0  0  0
  189.4020  177.7140  147.3780 C   0  0  0  0  0  2  0  0  0  0  0  0
  190.4090  176.3650  143.9330 C   0  0  0  0  0  1  0  0  0  0  0  0
  187.4100  177.8380  145.8800 C   0  0  0  0  0  2  0  0  0  0  0  0
  190.2090  177.0000  146.2910 C   0  0  0  0  0  2  0  0  0  0  0  0
  188.1930  177.1360  144.7700 C   0  0  1  0  0  3  0  0  0  0  0  0
  187.9210  177.3870  147.2420 C   0  0  0  0  0  2  0  0  0  0  0  0
  190.1810  178.7310  144.4760 C   0  0  0  0  0  3  0  0  0  0  0  0
  191.3800  178.9960  143.9530 C   0  0  0  0  0  2  0  0  0  0  0  0
  1  2  1  0  0  0  0
  2 21  1  0  0  0  0
  2  6  2  0  0  0  0
  3  1  2  0  0  0  0
  3  4  1  0  0  0  0
  4  5  2  0  0  0  0
  5  6  1  0  0  0  0
  7  3  1  0  0  0  0
  8 10  2  0  0  0  0
  8  7  1  0  0  0  0
  9 16  1  0  0  0  0
 12 11  1  6  0  0  0
 12 13  1  0  0  0  0
 12 14  1  0  0  0  0
 13  8  1  0  0  0  0
 14 10  1  0  0  0  0
 15 11  1  0  0  0  0
 15  9  1  0  0  0  0
 16 14  1  0  0  0  0
 17  4  1  0  0  0  0
 17 18  1  0  0  0  0
 19 20  1  0  0  0  0
 19 18  1  0  0  0  0
 21 22  1  0  0  0  0
 23 22  1  0  0  0  0
 24 26  1  6  0  0  0
 24 28  1  0  0  0  0
 27 30  1  0  0  0  0
 28 25  1  0  0  0  0
 29 23  1  6  0  0  0
 29 24  1  0  0  0  0
 29 27  1  0  0  0  0
 30 25  1  0  0  0  0
 31 24  1  0  0  0  0
 32 31  2  0  0  0  0
M  END
>  <MODEL>
9

>  <REMARK>
 VINA RESULT:      -7.0      3.596      5.164
  Name = 
  10 active torsions:
  status: ('A' for Active; 'I' for Inactive)
    1  A    between atoms: C_2  and  C_5
    2  A    between atoms: C_2  and  C_6
    3  A    between atoms: C_3  and  C_22
    4  A    between atoms: C_4  and  C_27
    5  A    between atoms: C_13  and  C_29
    6  A    between atoms: C_14  and  O_18
    7  A    between atoms: C_16  and  C_20
    8  A    between atoms: C_16  and  O_24
    9  A    between atoms: O_18  and  C_29
   10  A    between atoms: O_24  and  C_27
                            x       y       z     vdW  Elec       q    Type
                         _______ _______ _______ _____ _____    ______ ____

>  <TORSDO>
F 10

$$$$
