=
 OpenBabel11052413463D

 27 31  0  0  1  0  0  0  0  0999 V2000
  189.5470  176.9470  142.6230 N   0  0  0  0  0  2  0  0  0  0  0  0
  187.5550  177.7070  143.8090 C   0  0  0  0  0  0  0  0  0  0  0  0
  187.3700  178.5920  141.5310 N   0  0  0  0  0  2  0  0  0  0  0  0
  183.4600  178.5750  144.5350 C   0  0  0  0  0  3  0  0  0  0  0  0
  181.2720  179.1020  143.6670 O   0  0  0  0  0  1  0  0  0  0  0  0
  186.8710  177.1670  145.0460 C   0  0  0  0  0  2  0  0  0  0  0  0
  184.5190  178.7590  141.9500 C   0  0  0  0  0  3  0  0  0  0  0  0
  189.3970  177.8930  138.6790 C   0  0  0  0  0  0  0  0  0  0  0  0
  183.1550  178.9760  142.1660 C   0  0  0  0  0  3  0  0  0  0  0  0
  189.4660  178.2870  137.2470 C   0  0  0  0  0  1  0  0  0  0  0  0
  185.3630  178.4420  143.0240 C   0  0  0  0  0  0  0  0  0  0  0  0
  189.0470  177.7560  143.7230 C   0  0  1  0  0  3  0  0  0  0  0  0
  182.6260  178.8840  143.4560 C   0  0  0  0  0  0  0  0  0  0  0  0
  184.8220  178.3440  144.3220 C   0  0  0  0  0  0  0  0  0  0  0  0
  189.3220  177.1680  141.3640 C   0  0  0  0  0  0  0  0  0  0  0  0
  186.8150  178.2150  142.8070 C   0  0  0  0  0  0  0  0  0  0  0  0
  188.4980  178.5280  139.5330 C   0  0  0  0  0  3  0  0  0  0  0  0
  185.7240  178.0740  145.4850 C   0  0  0  0  0  2  0  0  0  0  0  0
  190.1660  176.8740  139.1390 N   0  0  0  0  0  0  0  0  0  0  0  0
  190.1500  176.5120  140.4480 C   0  0  0  0  0  3  0  0  0  0  0  0
  188.4090  178.1470  140.8760 C   0  0  0  0  0  0  0  0  0  0  0  0
  191.1430  176.8040  147.3570 C   0  0  0  0  0  3  0  0  0  0  0  0
  189.7580  177.4160  145.0000 C   0  0  0  0  0  0  0  0  0  0  0  0
  190.9790  176.7350  144.9410 C   0  0  0  0  0  3  0  0  0  0  0  0
  191.6690  176.4270  146.1170 C   0  0  0  0  0  3  0  0  0  0  0  0
  189.9270  177.4910  147.4210 C   0  0  0  0  0  3  0  0  0  0  0  0
  189.2360  177.7990  146.2460 C   0  0  0  0  0  3  0  0  0  0  0  0
  1 12  1  0  0  0  0
  2  6  1  0  0  0  0
  3 16  1  0  0  0  0
  6 18  1  0  0  0  0
  7  9  2  0  0  0  0
  7 11  1  0  0  0  0
  8 19  2  0  0  0  0
  8 17  1  0  0  0  0
  9 13  1  0  0  0  0
 10  8  1  0  0  0  0
 11 14  2  0  0  0  0
 12  2  1  0  0  0  0
 12 23  1  1  0  0  0
 13  5  1  0  0  0  0
 13  4  2  0  0  0  0
 14  4  1  0  0  0  0
 14 18  1  0  0  0  0
 15  1  1  0  0  0  0
 16 11  1  0  0  0  0
 16  2  2  0  0  0  0
 17 21  2  0  0  0  0
 19 20  1  0  0  0  0
 20 15  2  0  0  0  0
 21 15  1  0  0  0  0
 21  3  1  0  0  0  0
 22 26  1  0  0  0  0
 23 27  1  0  0  0  0
 24 23  2  0  0  0  0
 24 25  1  0  0  0  0
 25 22  2  0  0  0  0
 27 26  2  0  0  0  0
M  END
>  <MODEL>
1

>  <REMARK>
 VINA RESULT:     -11.5      0.000      0.000
  Name = 
  1 active torsions:
  status: ('A' for Active; 'I' for Inactive)
    1  A    between atoms: C_9  and  C_15
                            x       y       z     vdW  Elec       q    Type
                         _______ _______ _______ _____ _____    ______ ____

>  <TORSDO>
F 1

$$$$
=
 OpenBabel11052413463D

 27 31  0  0  1  0  0  0  0  0999 V2000
  187.3590  178.4310  141.7270 N   0  0  0  0  0  2  0  0  0  0  0  0
  187.8960  177.7380  144.0040 C   0  0  0  0  0  0  0  0  0  0  0  0
  189.5620  176.6730  142.5570 N   0  0  0  0  0  2  0  0  0  0  0  0
  190.2460  176.8690  147.4360 C   0  0  0  0  0  3  0  0  0  0  0  0
  192.3750  176.2420  148.3810 O   0  0  0  0  0  1  0  0  0  0  0  0
  187.5540  178.3640  145.3390 C   0  0  0  0  0  2  0  0  0  0  0  0
  191.2870  176.4970  144.8650 C   0  0  0  0  0  3  0  0  0  0  0  0
  190.1610  177.1730  139.0740 C   0  0  0  0  0  0  0  0  0  0  0  0
  192.0930  176.2770  145.9850 C   0  0  0  0  0  3  0  0  0  0  0  0
  191.0860  176.6670  138.0270 C   0  0  0  0  0  1  0  0  0  0  0  0
  189.9570  176.9100  145.0200 C   0  0  0  0  0  0  0  0  0  0  0  0
  186.8910  177.7040  142.8970 C   0  0  1  0  0  3  0  0  0  0  0  0
  191.5740  176.4640  147.2690 C   0  0  0  0  0  0  0  0  0  0  0  0
  189.4410  177.1030  146.3180 C   0  0  0  0  0  0  0  0  0  0  0  0
  188.3840  178.1070  141.0010 C   0  0  0  0  0  0  0  0  0  0  0  0
  189.0900  177.1410  143.8360 C   0  0  0  0  0  0  0  0  0  0  0  0
  190.1610  176.5950  140.3420 C   0  0  0  0  0  3  0  0  0  0  0  0
  188.0030  177.4780  146.4980 C   0  0  0  0  0  2  0  0  0  0  0  0
  189.3590  178.2360  138.8140 N   0  0  0  0  0  0  0  0  0  0  0  0
  188.4790  178.7010  139.7380 C   0  0  0  0  0  3  0  0  0  0  0  0
  189.3110  177.0790  141.3410 C   0  0  0  0  0  0  0  0  0  0  0  0
  182.9180  178.9470  143.9830 C   0  0  0  0  0  3  0  0  0  0  0  0
  185.5140  178.1550  143.2900 C   0  0  0  0  0  0  0  0  0  0  0  0
  184.5340  178.2900  142.3010 C   0  0  0  0  0  3  0  0  0  0  0  0
  183.2380  178.6880  142.6470 C   0  0  0  0  0  3  0  0  0  0  0  0
  183.8930  178.8070  144.9750 C   0  0  0  0  0  3  0  0  0  0  0  0
  185.1890  178.4090  144.6310 C   0  0  0  0  0  3  0  0  0  0  0  0
  1 12  1  0  0  0  0
  2  6  1  0  0  0  0
  3 16  1  0  0  0  0
  6 18  1  0  0  0  0
  7 11  2  0  0  0  0
  7  9  1  0  0  0  0
  8 17  1  0  0  0  0
  9 13  2  0  0  0  0
 10  8  1  0  0  0  0
 11 14  1  0  0  0  0
 12 23  1  1  0  0  0
 12  2  1  0  0  0  0
 13  4  1  0  0  0  0
 13  5  1  0  0  0  0
 14 18  1  0  0  0  0
 14  4  2  0  0  0  0
 15 21  1  0  0  0  0
 15  1  1  0  0  0  0
 16  2  2  0  0  0  0
 16 11  1  0  0  0  0
 17 21  2  0  0  0  0
 19  8  2  0  0  0  0
 19 20  1  0  0  0  0
 20 15  2  0  0  0  0
 21  3  1  0  0  0  0
 22 26  1  0  0  0  0
 23 27  1  0  0  0  0
 24 25  1  0  0  0  0
 24 23  2  0  0  0  0
 25 22  2  0  0  0  0
 27 26  2  0  0  0  0
M  END
>  <MODEL>
2

>  <REMARK>
 VINA RESULT:     -11.2      2.516      5.782
  Name = 
  1 active torsions:
  status: ('A' for Active; 'I' for Inactive)
    1  A    between atoms: C_9  and  C_15
                            x       y       z     vdW  Elec       q    Type
                         _______ _______ _______ _____ _____    ______ ____

>  <TORSDO>
F 1

$$$$
=
 OpenBabel11052413463D

 27 31  0  0  1  0  0  0  0  0999 V2000
  186.8340  178.6370  140.2120 N   0  0  0  0  0  2  0  0  0  0  0  0
  186.1720  178.3710  142.5460 C   0  0  0  0  0  0  0  0  0  0  0  0
  188.2950  177.1710  142.2990 N   0  0  0  0  0  2  0  0  0  0  0  0
  186.5250  178.2300  146.7780 C   0  0  0  0  0  3  0  0  0  0  0  0
  187.9040  177.8930  148.7280 O   0  0  0  0  0  1  0  0  0  0  0  0
  185.2450  179.1940  143.4140 C   0  0  0  0  0  2  0  0  0  0  0  0
  188.6730  177.4870  145.1430 C   0  0  0  0  0  3  0  0  0  0  0  0
  190.5280  177.1070  139.5160 C   0  0  0  0  0  0  0  0  0  0  0  0
  188.8230  177.5060  146.5320 C   0  0  0  0  0  3  0  0  0  0  0  0
  191.8290  176.4840  139.1550 C   0  0  0  0  0  1  0  0  0  0  0  0
  187.4490  177.8450  144.5600 C   0  0  0  0  0  0  0  0  0  0  0  0
  185.8320  178.0940  141.1160 C   0  0  1  0  0  3  0  0  0  0  0  0
  187.7520  177.8780  147.3490 C   0  0  0  0  0  0  0  0  0  0  0  0
  186.3740  178.2250  145.3880 C   0  0  0  0  0  0  0  0  0  0  0  0
  188.0720  178.2530  140.1430 C   0  0  0  0  0  0  0  0  0  0  0  0
  187.2770  177.8230  143.0840 C   0  0  0  0  0  0  0  0  0  0  0  0
  189.8920  176.7530  140.7040 C   0  0  0  0  0  3  0  0  0  0  0  0
  185.0440  178.5440  144.7800 C   0  0  0  0  0  2  0  0  0  0  0  0
  189.9910  178.0640  138.7180 N   0  0  0  0  0  0  0  0  0  0  0  0
  188.7890  178.6290  139.0030 C   0  0  0  0  0  3  0  0  0  0  0  0
  188.6810  177.3510  141.0640 C   0  0  0  0  0  0  0  0  0  0  0  0
  181.8980  179.3200  139.8780 C   0  0  0  0  0  3  0  0  0  0  0  0
  184.4540  178.5260  140.7070 C   0  0  0  0  0  0  0  0  0  0  0  0
  184.3060  179.3780  139.6070 C   0  0  0  0  0  3  0  0  0  0  0  0
  183.0300  179.7760  139.1940 C   0  0  0  0  0  3  0  0  0  0  0  0
  182.0420  178.4630  140.9740 C   0  0  0  0  0  3  0  0  0  0  0  0
  183.3170  178.0650  141.3870 C   0  0  0  0  0  3  0  0  0  0  0  0
  1 12  1  0  0  0  0
  2 16  2  0  0  0  0
  2  6  1  0  0  0  0
  3 16  1  0  0  0  0
  4 13  1  0  0  0  0
  6 18  1  0  0  0  0
  7  9  1  0  0  0  0
  8 17  1  0  0  0  0
  9 13  2  0  0  0  0
 10  8  1  0  0  0  0
 11  7  2  0  0  0  0
 11 14  1  0  0  0  0
 12 23  1  6  0  0  0
 12  2  1  0  0  0  0
 13  5  1  0  0  0  0
 14  4  2  0  0  0  0
 15  1  1  0  0  0  0
 15 21  1  0  0  0  0
 16 11  1  0  0  0  0
 17 21  2  0  0  0  0
 18 14  1  0  0  0  0
 19 20  1  0  0  0  0
 19  8  2  0  0  0  0
 20 15  2  0  0  0  0
 21  3  1  0  0  0  0
 22 26  1  0  0  0  0
 23 27  1  0  0  0  0
 24 23  2  0  0  0  0
 25 24  1  0  0  0  0
 25 22  2  0  0  0  0
 26 27  2  0  0  0  0
M  END
>  <MODEL>
3

>  <REMARK>
 VINA RESULT:     -10.7      2.156      5.716
  Name = 
  1 active torsions:
  status: ('A' for Active; 'I' for Inactive)
    1  A    between atoms: C_9  and  C_15
                            x       y       z     vdW  Elec       q    Type
                         _______ _______ _______ _____ _____    ______ ____

>  <TORSDO>
F 1

$$$$
=
 OpenBabel11052413463D

 27 31  0  0  1  0  0  0  0  0999 V2000
  187.4380  178.3230  145.2040 N   0  0  0  0  0  2  0  0  0  0  0  0
  188.7300  177.7760  143.2080 C   0  0  0  0  0  0  0  0  0  0  0  0
  186.3780  177.7800  142.5180 N   0  0  0  0  0  2  0  0  0  0  0  0
  189.9760  177.8460  139.1460 C   0  0  0  0  0  3  0  0  0  0  0  0
  189.4470  178.2420  136.8270 O   0  0  0  0  0  1  0  0  0  0  0  0
  190.1800  178.0370  142.8620 C   0  0  0  0  0  2  0  0  0  0  0  0
  187.2900  178.2530  139.8200 C   0  0  0  0  0  3  0  0  0  0  0  0
  183.5000  178.8150  144.3550 C   0  0  0  0  0  0  0  0  0  0  0  0
  187.7010  178.3500  138.4880 C   0  0  0  0  0  3  0  0  0  0  0  0
  182.0310  178.9130  144.1470 C   0  0  0  0  0  1  0  0  0  0  0  0
  188.2190  177.9580  140.8270 C   0  0  0  0  0  0  0  0  0  0  0  0
  188.3380  177.3600  144.5900 C   0  0  1  0  0  3  0  0  0  0  0  0
  189.0420  178.1480  138.1510 C   0  0  0  0  0  0  0  0  0  0  0  0
  189.5720  177.7610  140.4820 C   0  0  0  0  0  0  0  0  0  0  0  0
  186.2390  178.6000  144.7920 C   0  0  0  0  0  0  0  0  0  0  0  0
  187.7920  177.8470  142.2450 C   0  0  0  0  0  0  0  0  0  0  0  0
  184.2990  178.1970  143.3950 C   0  0  0  0  0  3  0  0  0  0  0  0
  190.5600  177.3780  141.5380 C   0  0  0  0  0  2  0  0  0  0  0  0
  184.0690  179.3780  145.4510 N   0  0  0  0  0  0  0  0  0  0  0  0
  185.4020  179.2760  145.6860 C   0  0  0  0  0  3  0  0  0  0  0  0
  185.6840  178.1210  143.5700 C   0  0  0  0  0  0  0  0  0  0  0  0
  191.6020  176.4590  147.2450 C   0  0  0  0  0  3  0  0  0  0  0  0
  189.4920  177.0540  145.5000 C   0  0  0  0  0  0  0  0  0  0  0  0
  189.4140  177.4230  146.8480 C   0  0  0  0  0  3  0  0  0  0  0  0
  190.4680  177.1280  147.7190 C   0  0  0  0  0  3  0  0  0  0  0  0
  191.6810  176.0830  145.9010 C   0  0  0  0  0  3  0  0  0  0  0  0
  190.6280  176.3780  145.0300 C   0  0  0  0  0  3  0  0  0  0  0  0
  2 12  1  0  0  0  0
  3 21  1  0  0  0  0
  4 14  1  0  0  0  0
  5 13  1  0  0  0  0
  6  2  1  0  0  0  0
  7 11  1  0  0  0  0
  8 19  1  0  0  0  0
  9  7  2  0  0  0  0
 10  8  1  0  0  0  0
 11 16  1  0  0  0  0
 12  1  1  0  0  0  0
 12 23  1  1  0  0  0
 13  9  1  0  0  0  0
 13  4  2  0  0  0  0
 14 11  2  0  0  0  0
 14 18  1  0  0  0  0
 15  1  1  0  0  0  0
 15 20  1  0  0  0  0
 16  3  1  0  0  0  0
 16  2  2  0  0  0  0
 17 21  1  0  0  0  0
 17  8  2  0  0  0  0
 18  6  1  0  0  0  0
 19 20  2  0  0  0  0
 21 15  2  0  0  0  0
 22 25  1  0  0  0  0
 23 24  1  0  0  0  0
 24 25  2  0  0  0  0
 26 22  2  0  0  0  0
 27 23  2  0  0  0  0
 27 26  1  0  0  0  0
M  END
>  <MODEL>
4

>  <REMARK>
 VINA RESULT:     -10.2      2.566      5.570
  Name = 
  1 active torsions:
  status: ('A' for Active; 'I' for Inactive)
    1  A    between atoms: C_9  and  C_15
                            x       y       z     vdW  Elec       q    Type
                         _______ _______ _______ _____ _____    ______ ____

>  <TORSDO>
F 1

$$$$
=
 OpenBabel11052413463D

 27 31  0  0  1  0  0  0  0  0999 V2000
  189.0610  177.1440  140.6330 N   0  0  0  0  0  2  0  0  0  0  0  0
  187.3970  177.9010  142.2500 C   0  0  0  0  0  0  0  0  0  0  0  0
  186.5870  178.6180  140.0510 N   0  0  0  0  0  2  0  0  0  0  0  0
  183.5800  178.6470  143.9590 C   0  0  0  0  0  3  0  0  0  0  0  0
  181.2160  179.0220  143.6580 O   0  0  0  0  0  1  0  0  0  0  0  0
  187.0840  177.4200  143.6500 C   0  0  0  0  0  2  0  0  0  0  0  0
  183.9320  178.6950  141.1830 C   0  0  0  0  0  3  0  0  0  0  0  0
  187.8550  177.8080  136.8150 C   0  0  0  0  0  0  0  0  0  0  0  0
  182.6580  178.8700  141.7310 C   0  0  0  0  0  3  0  0  0  0  0  0
  187.5340  178.1050  135.3950 C   0  0  0  0  0  1  0  0  0  0  0  0
  185.0390  178.4890  142.0180 C   0  0  0  0  0  0  0  0  0  0  0  0
  188.8130  178.0050  141.7780 C   0  0  1  0  0  3  0  0  0  0  0  0
  182.4820  178.8460  143.1170 C   0  0  0  0  0  0  0  0  0  0  0  0
  184.8530  178.4580  143.4150 C   0  0  0  0  0  0  0  0  0  0  0  0
  188.5100  177.2680  139.4650 C   0  0  0  0  0  0  0  0  0  0  0  0
  186.3980  178.3070  141.4460 C   0  0  0  0  0  0  0  0  0  0  0  0
  187.1690  178.4630  137.8360 C   0  0  0  0  0  3  0  0  0  0  0  0
  186.0370  178.3070  144.3190 C   0  0  0  0  0  2  0  0  0  0  0  0
  188.7740  176.8560  137.1180 N   0  0  0  0  0  0  0  0  0  0  0  0
  189.1130  176.5850  138.4040 C   0  0  0  0  0  3  0  0  0  0  0  0
  187.4480  178.1730  139.1750 C   0  0  0  0  0  0  0  0  0  0  0  0
  191.8050  177.3320  144.7950 C   0  0  0  0  0  3  0  0  0  0  0  0
  189.8450  177.7840  142.8450 C   0  0  0  0  0  0  0  0  0  0  0  0
  190.3050  176.4860  143.0910 C   0  0  0  0  0  3  0  0  0  0  0  0
  191.2820  176.2600  144.0660 C   0  0  0  0  0  3  0  0  0  0  0  0
  191.3530  178.6320  144.5490 C   0  0  0  0  0  3  0  0  0  0  0  0
  190.3770  178.8600  143.5740 C   0  0  0  0  0  3  0  0  0  0  0  0
  1 12  1  0  0  0  0
  2  6  1  0  0  0  0
  3 16  1  0  0  0  0
  6 18  1  0  0  0  0
  7  9  2  0  0  0  0
  7 11  1  0  0  0  0
  8 19  2  0  0  0  0
  8 17  1  0  0  0  0
  9 13  1  0  0  0  0
 10  8  1  0  0  0  0
 11 14  2  0  0  0  0
 12  2  1  0  0  0  0
 12 23  1  1  0  0  0
 13  5  1  0  0  0  0
 13  4  2  0  0  0  0
 14  4  1  0  0  0  0
 14 18  1  0  0  0  0
 15  1  1  0  0  0  0
 16 11  1  0  0  0  0
 16  2  2  0  0  0  0
 17 21  2  0  0  0  0
 19 20  1  0  0  0  0
 20 15  2  0  0  0  0
 21 15  1  0  0  0  0
 21  3  1  0  0  0  0
 23 24  2  0  0  0  0
 23 27  1  0  0  0  0
 24 25  1  0  0  0  0
 25 22  2  0  0  0  0
 26 22  1  0  0  0  0
 27 26  2  0  0  0  0
M  END
>  <MODEL>
5

>  <REMARK>
 VINA RESULT:     -10.1      1.556      1.939
  Name = 
  1 active torsions:
  status: ('A' for Active; 'I' for Inactive)
    1  A    between atoms: C_9  and  C_15
                            x       y       z     vdW  Elec       q    Type
                         _______ _______ _______ _____ _____    ______ ____

>  <TORSDO>
F 1

$$$$
=
 OpenBabel11052413463D

 27 31  0  0  1  0  0  0  0  0999 V2000
  189.6740  178.1470  141.7870 N   0  0  0  0  0  2  0  0  0  0  0  0
  187.2440  178.2090  141.5790 C   0  0  0  0  0  0  0  0  0  0  0  0
  187.7130  177.3790  143.8360 N   0  0  0  0  0  2  0  0  0  0  0  0
  183.1890  178.9250  142.6280 C   0  0  0  0  0  3  0  0  0  0  0  0
  181.5150  179.2070  144.3410 O   0  0  0  0  0  1  0  0  0  0  0  0
  186.3470  179.0030  140.6530 C   0  0  0  0  0  2  0  0  0  0  0  0
  185.0770  178.2810  144.5920 C   0  0  0  0  0  3  0  0  0  0  0  0
  190.8340  177.1920  145.5580 C   0  0  0  0  0  0  0  0  0  0  0  0
  183.7630  178.5850  144.9570 C   0  0  0  0  0  3  0  0  0  0  0  0
  191.3410  176.7530  146.8840 C   0  0  0  0  0  1  0  0  0  0  0  0
  185.4600  178.3020  143.2440 C   0  0  0  0  0  0  0  0  0  0  0  0
  188.5210  177.6140  141.0790 C   0  0  1  0  0  3  0  0  0  0  0  0
  182.8200  178.9080  143.9770 C   0  0  0  0  0  0  0  0  0  0  0  0
  184.5060  178.6340  142.2600 C   0  0  0  0  0  0  0  0  0  0  0  0
  189.9230  177.9820  143.0500 C   0  0  0  0  0  0  0  0  0  0  0  0
  186.8530  177.9750  142.8450 C   0  0  0  0  0  0  0  0  0  0  0  0
  189.5050  176.9590  145.2080 C   0  0  0  0  0  3  0  0  0  0  0  0
  184.8850  178.5930  140.8130 C   0  0  0  0  0  2  0  0  0  0  0  0
  191.6470  177.8730  144.7130 N   0  0  0  0  0  0  0  0  0  0  0  0
  191.2240  178.2600  143.4810 C   0  0  0  0  0  3  0  0  0  0  0  0
  189.0120  177.3900  143.9730 C   0  0  0  0  0  0  0  0  0  0  0  0
  189.0250  177.8600  136.8130 C   0  0  0  0  0  3  0  0  0  0  0  0
  188.7170  177.7120  139.5940 C   0  0  0  0  0  0  0  0  0  0  0  0
  188.5250  176.5730  138.8040 C   0  0  0  0  0  3  0  0  0  0  0  0
  188.6810  176.6460  137.4160 C   0  0  0  0  0  3  0  0  0  0  0  0
  189.2110  179.0030  137.5970 C   0  0  0  0  0  3  0  0  0  0  0  0
  189.0560  178.9310  138.9850 C   0  0  0  0  0  3  0  0  0  0  0  0
  1 15  1  0  0  0  0
  2 16  2  0  0  0  0
  3 21  1  0  0  0  0
  4 13  1  0  0  0  0
  6 18  1  0  0  0  0
  6  2  1  0  0  0  0
  7  9  1  0  0  0  0
  8 10  1  0  0  0  0
 11  7  2  0  0  0  0
 12 23  1  6  0  0  0
 12  2  1  0  0  0  0
 12  1  1  0  0  0  0
 13  5  1  0  0  0  0
 13  9  2  0  0  0  0
 14  4  2  0  0  0  0
 14 11  1  0  0  0  0
 15 20  2  0  0  0  0
 15 21  1  0  0  0  0
 16 11  1  0  0  0  0
 16  3  1  0  0  0  0
 17  8  1  0  0  0  0
 18 14  1  0  0  0  0
 19  8  2  0  0  0  0
 20 19  1  0  0  0  0
 21 17  2  0  0  0  0
 22 25  2  0  0  0  0
 22 26  1  0  0  0  0
 24 23  2  0  0  0  0
 25 24  1  0  0  0  0
 26 27  2  0  0  0  0
 27 23  1  0  0  0  0
M  END
>  <MODEL>
6

>  <REMARK>
 VINA RESULT:      -9.9      1.260      5.332
  Name = 
  1 active torsions:
  status: ('A' for Active; 'I' for Inactive)
    1  A    between atoms: C_9  and  C_15
                            x       y       z     vdW  Elec       q    Type
                         _______ _______ _______ _____ _____    ______ ____

>  <TORSDO>
F 1

$$$$
=
 OpenBabel11052413463D

 27 31  0  0  1  0  0  0  0  0999 V2000
  184.6670  178.0760  140.9480 N   0  0  0  0  0  2  0  0  0  0  0  0
  186.4910  178.0740  142.5690 C   0  0  0  0  0  0  0  0  0  0  0  0
  184.5460  179.0030  143.7340 N   0  0  0  0  0  2  0  0  0  0  0  0
  188.5120  177.5280  146.2660 C   0  0  0  0  0  3  0  0  0  0  0  0
  188.4190  177.3810  148.6720 O   0  0  0  0  0  1  0  0  0  0  0  0
  187.7660  177.2610  142.6250 C   0  0  0  0  0  2  0  0  0  0  0  0
  185.7990  178.2160  146.2130 C   0  0  0  0  0  3  0  0  0  0  0  0
  181.1520  179.1860  142.6470 C   0  0  0  0  0  0  0  0  0  0  0  0
  186.4350  177.9680  147.4320 C   0  0  0  0  0  3  0  0  0  0  0  0
  179.8480  179.6770  143.1670 C   0  0  0  0  0  1  0  0  0  0  0  0
  186.5120  178.1160  145.0100 C   0  0  0  0  0  0  0  0  0  0  0  0
  185.9830  178.6060  141.2660 C   0  0  1  0  0  3  0  0  0  0  0  0
  187.7890  177.6240  147.4590 C   0  0  0  0  0  0  0  0  0  0  0  0
  187.8760  177.7620  145.0430 C   0  0  0  0  0  0  0  0  0  0  0  0
  183.5830  178.2980  141.6270 C   0  0  0  0  0  0  0  0  0  0  0  0
  185.8460  178.3830  143.7090 C   0  0  0  0  0  0  0  0  0  0  0  0
  182.3240  179.4390  143.3560 C   0  0  0  0  0  3  0  0  0  0  0  0
  188.6640  177.7190  143.7710 C   0  0  0  0  0  2  0  0  0  0  0  0
  181.1920  178.4400  141.5140 N   0  0  0  0  0  0  0  0  0  0  0  0
  182.3690  178.0050  140.9960 C   0  0  0  0  0  3  0  0  0  0  0  0
  183.5520  178.9610  142.8880 C   0  0  0  0  0  0  0  0  0  0  0  0
  188.6370  178.1350  137.9130 C   0  0  0  0  0  3  0  0  0  0  0  0
  186.9230  178.4280  140.1100 C   0  0  0  0  0  0  0  0  0  0  0  0
  186.4010  178.1290  138.8470 C   0  0  0  0  0  3  0  0  0  0  0  0
  187.2570  177.9810  137.7500 C   0  0  0  0  0  3  0  0  0  0  0  0
  189.1630  178.4400  139.1720 C   0  0  0  0  0  3  0  0  0  0  0  0
  188.3080  178.5880  140.2690 C   0  0  0  0  0  3  0  0  0  0  0  0
  1 12  1  0  0  0  0
  1 15  1  0  0  0  0
  2  6  1  0  0  0  0
  2 16  2  0  0  0  0
  4 13  1  0  0  0  0
  6 18  1  0  0  0  0
  7  9  1  0  0  0  0
  8 10  1  0  0  0  0
  8 17  1  0  0  0  0
  9 13  2  0  0  0  0
 11 14  1  0  0  0  0
 11  7  2  0  0  0  0
 12 23  1  6  0  0  0
 12  2  1  0  0  0  0
 13  5  1  0  0  0  0
 14  4  2  0  0  0  0
 15 21  1  0  0  0  0
 16  3  1  0  0  0  0
 16 11  1  0  0  0  0
 18 14  1  0  0  0  0
 19  8  2  0  0  0  0
 20 19  1  0  0  0  0
 20 15  2  0  0  0  0
 21 17  2  0  0  0  0
 21  3  1  0  0  0  0
 22 26  1  0  0  0  0
 23 27  1  0  0  0  0
 24 23  2  0  0  0  0
 25 22  2  0  0  0  0
 25 24  1  0  0  0  0
 26 27  2  0  0  0  0
M  END
>  <MODEL>
7

>  <REMARK>
 VINA RESULT:      -9.4      2.774      6.610
  Name = 
  1 active torsions:
  status: ('A' for Active; 'I' for Inactive)
    1  A    between atoms: C_9  and  C_15
                            x       y       z     vdW  Elec       q    Type
                         _______ _______ _______ _____ _____    ______ ____

>  <TORSDO>
F 1

$$$$
=
 OpenBabel11052413463D

 27 31  0  0  1  0  0  0  0  0999 V2000
  185.9620  178.8310  144.8350 N   0  0  0  0  0  2  0  0  0  0  0  0
  187.8920  178.0140  143.5860 C   0  0  0  0  0  0  0  0  0  0  0  0
  185.9650  177.7860  142.0890 N   0  0  0  0  0  2  0  0  0  0  0  0
  190.5580  177.4500  140.3260 C   0  0  0  0  0  3  0  0  0  0  0  0
  190.9350  177.4190  137.9440 O   0  0  0  0  0  1  0  0  0  0  0  0
  189.3710  178.2830  143.7580 C   0  0  0  0  0  2  0  0  0  0  0  0
  187.8220  177.8360  139.8790 C   0  0  0  0  0  3  0  0  0  0  0  0
  182.6300  178.9790  142.5230 C   0  0  0  0  0  0  0  0  0  0  0  0
  188.7000  177.7240  138.7970 C   0  0  0  0  0  3  0  0  0  0  0  0
  181.3460  178.9700  141.7740 C   0  0  0  0  0  1  0  0  0  0  0  0
  188.3060  177.7620  141.1930 C   0  0  0  0  0  0  0  0  0  0  0  0
  187.0080  177.8220  144.7770 C   0  0  1  0  0  3  0  0  0  0  0  0
  190.0660  177.5320  139.0200 C   0  0  0  0  0  0  0  0  0  0  0  0
  189.6860  177.5750  141.4110 C   0  0  0  0  0  0  0  0  0  0  0  0
  185.0070  178.9750  143.9680 C   0  0  0  0  0  0  0  0  0  0  0  0
  187.3800  177.8740  142.3490 C   0  0  0  0  0  0  0  0  0  0  0  0
  183.7170  178.2470  142.0500 C   0  0  0  0  0  3  0  0  0  0  0  0
  190.2040  177.4270  142.8070 C   0  0  0  0  0  2  0  0  0  0  0  0
  182.7620  179.7480  143.6330 N   0  0  0  0  0  0  0  0  0  0  0  0
  183.9110  179.7530  144.3570 C   0  0  0  0  0  3  0  0  0  0  0  0
  184.9360  178.2680  142.7330 C   0  0  0  0  0  0  0  0  0  0  0  0
  189.1490  177.5800  148.5010 C   0  0  0  0  0  3  0  0  0  0  0  0
  187.7350  177.7320  146.0870 C   0  0  0  0  0  0  0  0  0  0  0  0
  188.9680  177.0730  146.1380 C   0  0  0  0  0  3  0  0  0  0  0  0
  189.6730  176.9950  147.3440 C   0  0  0  0  0  3  0  0  0  0  0  0
  187.9200  178.2460  148.4530 C   0  0  0  0  0  3  0  0  0  0  0  0
  187.2150  178.3240  147.2480 C   0  0  0  0  0  3  0  0  0  0  0  0
  2  6  1  0  0  0  0
  2 12  1  0  0  0  0
  3 16  1  0  0  0  0
  3 21  1  0  0  0  0
  4 14  1  0  0  0  0
  5 13  1  0  0  0  0
  7 11  1  0  0  0  0
  8 19  1  0  0  0  0
  9 13  1  0  0  0  0
  9  7  2  0  0  0  0
 10  8  1  0  0  0  0
 11 14  2  0  0  0  0
 11 16  1  0  0  0  0
 12  1  1  0  0  0  0
 12 23  1  1  0  0  0
 13  4  2  0  0  0  0
 14 18  1  0  0  0  0
 15 20  1  0  0  0  0
 15  1  1  0  0  0  0
 16  2  2  0  0  0  0
 17  8  2  0  0  0  0
 17 21  1  0  0  0  0
 18  6  1  0  0  0  0
 19 20  2  0  0  0  0
 21 15  2  0  0  0  0
 23 24  2  0  0  0  0
 23 27  1  0  0  0  0
 24 25  1  0  0  0  0
 25 22  2  0  0  0  0
 26 22  1  0  0  0  0
 27 26  2  0  0  0  0
M  END
>  <MODEL>
8

>  <REMARK>
 VINA RESULT:      -9.4      2.753      5.615
  Name = 
  1 active torsions:
  status: ('A' for Active; 'I' for Inactive)
    1  A    between atoms: C_9  and  C_15
                            x       y       z     vdW  Elec       q    Type
                         _______ _______ _______ _____ _____    ______ ____

>  <TORSDO>
F 1

$$$$
=
 OpenBabel11052413463D

 27 31  0  0  1  0  0  0  0  0999 V2000
  188.2930  177.3350  139.3950 N   0  0  0  0  0  2  0  0  0  0  0  0
  189.1510  177.3030  141.6790 C   0  0  0  0  0  0  0  0  0  0  0  0
  187.0610  178.5810  141.7550 N   0  0  0  0  0  2  0  0  0  0  0  0
  189.1480  176.9490  145.9130 C   0  0  0  0  0  3  0  0  0  0  0  0
  187.9460  177.0880  148.0000 O   0  0  0  0  0  1  0  0  0  0  0  0
  190.1140  176.3570  142.3640 C   0  0  0  0  0  2  0  0  0  0  0  0
  186.9040  177.9400  144.5650 C   0  0  0  0  0  3  0  0  0  0  0  0
  184.6140  179.0380  139.1980 C   0  0  0  0  0  0  0  0  0  0  0  0
  186.8660  177.7600  145.9500 C   0  0  0  0  0  3  0  0  0  0  0  0
  183.3120  179.7350  139.0250 C   0  0  0  0  0  1  0  0  0  0  0  0
  188.0620  177.6200  143.8420 C   0  0  0  0  0  0  0  0  0  0  0  0
  189.3840  177.7390  140.2680 C   0  0  1  0  0  3  0  0  0  0  0  0
  187.9860  177.2640  146.6240 C   0  0  0  0  0  0  0  0  0  0  0  0
  189.1860  177.1150  144.5260 C   0  0  0  0  0  0  0  0  0  0  0  0
  187.0680  177.7590  139.4770 C   0  0  0  0  0  0  0  0  0  0  0  0
  188.1150  177.8140  142.3700 C   0  0  0  0  0  0  0  0  0  0  0  0
  185.3570  179.2300  140.3610 C   0  0  0  0  0  3  0  0  0  0  0  0
  190.4500  176.8350  143.7750 C   0  0  0  0  0  2  0  0  0  0  0  0
  185.0480  178.1680  138.2520 N   0  0  0  0  0  0  0  0  0  0  0  0
  186.2480  177.5410  138.3660 C   0  0  0  0  0  3  0  0  0  0  0  0
  186.5700  178.5610  140.5440 C   0  0  0  0  0  0  0  0  0  0  0  0
  193.1570  176.5650  138.5660 C   0  0  0  0  0  3  0  0  0  0  0  0
  190.7070  177.3210  139.6950 C   0  0  0  0  0  0  0  0  0  0  0  0
  190.7380  176.6550  138.4650 C   0  0  0  0  0  3  0  0  0  0  0  0
  191.9600  176.2750  137.9030 C   0  0  0  0  0  3  0  0  0  0  0  0
  193.1310  177.2360  139.7930 C   0  0  0  0  0  3  0  0  0  0  0  0
  191.9090  177.6160  140.3560 C   0  0  0  0  0  3  0  0  0  0  0  0
  1 15  1  0  0  0  0
  1 12  1  0  0  0  0
  2  6  1  0  0  0  0
  2 16  2  0  0  0  0
  3 16  1  0  0  0  0
  4 13  1  0  0  0  0
  6 18  1  0  0  0  0
  7  9  1  0  0  0  0
  8 17  1  0  0  0  0
  9 13  2  0  0  0  0
 10  8  1  0  0  0  0
 11 14  1  0  0  0  0
 11  7  2  0  0  0  0
 12 23  1  6  0  0  0
 12  2  1  0  0  0  0
 13  5  1  0  0  0  0
 14  4  2  0  0  0  0
 15 21  1  0  0  0  0
 16 11  1  0  0  0  0
 17 21  2  0  0  0  0
 18 14  1  0  0  0  0
 19 20  1  0  0  0  0
 19  8  2  0  0  0  0
 20 15  2  0  0  0  0
 21  3  1  0  0  0  0
 22 26  1  0  0  0  0
 23 27  1  0  0  0  0
 24 23  2  0  0  0  0
 25 24  1  0  0  0  0
 25 22  2  0  0  0  0
 26 27  2  0  0  0  0
M  END
>  <MODEL>
9

>  <REMARK>
 VINA RESULT:      -9.3      2.565      5.331
  Name = 
  1 active torsions:
  status: ('A' for Active; 'I' for Inactive)
    1  A    between atoms: C_9  and  C_15
                            x       y       z     vdW  Elec       q    Type
                         _______ _______ _______ _____ _____    ______ ____

>  <TORSDO>
F 1

$$$$
