=
 OpenBabel11052413033D

 31 35  0  0  1  0  0  0  0  0999 V2000
  189.7090  176.9740  142.9460 C   0  0  0  0  0  3  0  0  0  0  0  0
  187.5000  177.9700  143.4090 C   0  0  0  0  0  0  0  0  0  0  0  0
  187.6320  177.6880  144.9060 C   0  0  1  0  0  3  0  0  0  0  0  0
  189.3740  177.3880  146.6430 C   0  0  0  0  0  2  0  0  0  0  0  0
  188.5300  177.6000  142.5050 C   0  0  0  0  0  0  0  0  0  0  0  0
  190.5570  176.8930  140.6820 C   0  0  0  0  0  3  0  0  0  0  0  0
  188.9140  178.2740  145.4930 C   0  0  0  0  0  2  0  0  0  0  0  0
  186.1550  178.7430  141.5030 C   0  0  0  0  0  0  0  0  0  0  0  0
  191.8470  176.0280  142.4870 F   0  0  0  0  0  0  0  0  0  0  0  0
  185.1320  177.9260  145.0240 C   0  0  0  0  0  2  0  0  0  0  0  0
  188.8140  177.8000  148.0100 C   0  0  0  0  0  2  0  0  0  0  0  0
  187.2050  178.4220  140.6390 C   0  0  0  0  0  3  0  0  0  0  0  0
  186.2850  178.4870  142.8810 C   0  0  0  0  0  0  0  0  0  0  0  0
  190.7160  176.6240  142.0430 C   0  0  0  0  0  0  0  0  0  0  0  0
  187.3650  178.3030  148.0330 C   0  0  0  0  0  2  0  0  0  0  0  0
  188.3750  177.8480  141.1210 C   0  0  0  0  0  0  0  0  0  0  0  0
  189.3870  177.5010  140.2220 C   0  0  0  0  0  3  0  0  0  0  0  0
  185.1210  178.8010  143.7840 C   0  0  0  0  0  2  0  0  0  0  0  0
  186.4410  178.1730  145.7420 C   0  0  1  0  0  3  0  0  0  0  0  0
  186.4280  177.5250  147.1190 C   0  0  0  0  0  2  0  0  0  0  0  0
  183.8240  177.3590  140.3530 O   0  0  0  0  0  0  0  0  0  0  0  0
  183.8080  178.6150  140.4470 C   0  0  0  0  0  0  0  0  0  0  0  0
  184.9340  179.3140  141.0010 N   0  0  0  0  0  2  0  0  0  0  0  0
  180.4450  180.8840  139.0380 C   0  0  0  0  0  0  0  0  0  0  0  0
  182.7370  180.1510  138.8170 C   0  0  0  0  0  3  0  0  0  0  0  0
  181.2290  178.6430  141.8510 O   0  0  0  0  0  1  0  0  0  0  0  0
  179.3410  181.6410  138.5570 N   0  0  0  0  0  1  0  0  0  0  0  0
  181.6550  180.8950  138.3430 C   0  0  0  0  0  3  0  0  0  0  0  0
  181.3970  179.3810  140.6850 C   0  0  0  0  0  0  0  0  0  0  0  0
  182.6290  179.3860  139.9880 C   0  0  0  0  0  0  0  0  0  0  0  0
  180.3180  180.1290  140.2050 C   0  0  0  0  0  3  0  0  0  0  0  0
  2  3  1  0  0  0  0
  3  7  1  1  0  0  0
  3 19  1  0  0  0  0
  4 11  1  0  0  0  0
  5  1  1  0  0  0  0
  5  2  2  0  0  0  0
  6 14  1  0  0  0  0
  7  4  1  0  0  0  0
  8 13  2  0  0  0  0
 11 15  1  0  0  0  0
 12 16  2  0  0  0  0
 12  8  1  0  0  0  0
 13  2  1  0  0  0  0
 13 18  1  0  0  0  0
 14  9  1  0  0  0  0
 14  1  2  0  0  0  0
 16  5  1  0  0  0  0
 17  6  2  0  0  0  0
 17 16  1  0  0  0  0
 18 10  1  0  0  0  0
 19 10  1  6  0  0  0
 19 20  1  0  0  0  0
 20 15  1  0  0  0  0
 21 22  2  0  0  0  0
 22 23  1  0  0  0  0
 23  8  1  0  0  0  0
 24 31  1  0  0  0  0
 25 30  2  0  0  0  0
 27 24  1  0  0  0  0
 28 25  1  0  0  0  0
 28 24  2  0  0  0  0
 29 26  1  0  0  0  0
 30 22  1  0  0  0  0
 30 29  1  0  0  0  0
 31 29  2  0  0  0  0
M  END
>  <MODEL>
1

>  <REMARK>
 VINA RESULT:     -10.0      0.000      0.000
  Name = 
  2 active torsions:
  status: ('A' for Active; 'I' for Inactive)
    1  A    between atoms: C_9  and  C_22
    2  A    between atoms: C_15  and  N_23
                            x       y       z     vdW  Elec       q    Type
                         _______ _______ _______ _____ _____    ______ ____

>  <TORSDO>
F 2

$$$$
=
 OpenBabel11052413033D

 31 35  0  0  1  0  0  0  0  0999 V2000
  185.2230  178.8010  144.3970 C   0  0  0  0  0  3  0  0  0  0  0  0
  187.4780  177.9370  143.8890 C   0  0  0  0  0  0  0  0  0  0  0  0
  187.9030  178.0460  145.3540 C   0  0  1  0  0  3  0  0  0  0  0  0
  186.9240  178.0210  147.6300 C   0  0  0  0  0  2  0  0  0  0  0  0
  186.1740  178.3200  143.4790 C   0  0  0  0  0  0  0  0  0  0  0  0
  183.5920  179.0570  142.6300 C   0  0  0  0  0  3  0  0  0  0  0  0
  186.9520  177.3020  146.2880 C   0  0  0  0  0  2  0  0  0  0  0  0
  188.0430  177.4810  141.5410 C   0  0  0  0  0  0  0  0  0  0  0  0
  183.0390  179.6200  144.8760 F   0  0  0  0  0  0  0  0  0  0  0  0
  190.2740  177.9930  144.5190 C   0  0  0  0  0  2  0  0  0  0  0  0
  187.9650  177.5100  148.6330 C   0  0  0  0  0  2  0  0  0  0  0  0
  186.7360  177.8090  141.1700 C   0  0  0  0  0  3  0  0  0  0  0  0
  188.4260  177.5760  142.8920 C   0  0  0  0  0  0  0  0  0  0  0  0
  183.9420  179.1650  143.9760 C   0  0  0  0  0  0  0  0  0  0  0  0
  189.3340  177.1230  148.0610 C   0  0  0  0  0  2  0  0  0  0  0  0
  185.8110  178.2340  142.1150 C   0  0  0  0  0  0  0  0  0  0  0  0
  184.5260  178.5960  141.7000 C   0  0  0  0  0  3  0  0  0  0  0  0
  189.8520  177.2590  143.2600 C   0  0  0  0  0  2  0  0  0  0  0  0
  189.3360  177.5690  145.6280 C   0  0  1  0  0  3  0  0  0  0  0  0
  189.8380  178.0650  146.9760 C   0  0  0  0  0  2  0  0  0  0  0  0
  189.0060  178.9550  139.1810 O   0  0  0  0  0  0  0  0  0  0  0  0
  189.4640  177.8060  139.4170 C   0  0  0  0  0  0  0  0  0  0  0  0
  189.0070  177.0640  140.5590 N   0  0  0  0  0  2  0  0  0  0  0  0
  192.3300  176.0510  136.7420 C   0  0  0  0  0  0  0  0  0  0  0  0
  190.0830  176.7890  137.2370 C   0  0  0  0  0  3  0  0  0  0  0  0
  192.2790  177.4220  140.1580 O   0  0  0  0  0  1  0  0  0  0  0  0
  193.2660  175.4670  135.8450 N   0  0  0  0  0  1  0  0  0  0  0  0
  191.0000  176.2170  136.3540 C   0  0  0  0  0  3  0  0  0  0  0  0
  191.8280  177.0320  138.9030 C   0  0  0  0  0  0  0  0  0  0  0  0
  190.4770  177.2040  138.5190 C   0  0  0  0  0  0  0  0  0  0  0  0
  192.7410  176.4570  138.0130 C   0  0  0  0  0  3  0  0  0  0  0  0
  2  3  1  0  0  0  0
  3 19  1  0  0  0  0
  3  7  1  1  0  0  0
  4 11  1  0  0  0  0
  5  2  1  0  0  0  0
  5  1  2  0  0  0  0
  6 14  2  0  0  0  0
  7  4  1  0  0  0  0
  8 13  1  0  0  0  0
 12  8  2  0  0  0  0
 12 16  1  0  0  0  0
 13 18  1  0  0  0  0
 13  2  2  0  0  0  0
 14  1  1  0  0  0  0
 14  9  1  0  0  0  0
 15 11  1  0  0  0  0
 16  5  1  0  0  0  0
 17 16  2  0  0  0  0
 17  6  1  0  0  0  0
 18 10  1  0  0  0  0
 19 10  1  6  0  0  0
 19 20  1  0  0  0  0
 20 15  1  0  0  0  0
 21 22  2  0  0  0  0
 22 23  1  0  0  0  0
 23  8  1  0  0  0  0
 24 31  1  0  0  0  0
 25 30  2  0  0  0  0
 27 24  1  0  0  0  0
 28 24  2  0  0  0  0
 28 25  1  0  0  0  0
 29 26  1  0  0  0  0
 30 29  1  0  0  0  0
 30 22  1  0  0  0  0
 31 29  2  0  0  0  0
M  END
>  <MODEL>
2

>  <REMARK>
 VINA RESULT:      -9.9      3.819      7.053
  Name = 
  2 active torsions:
  status: ('A' for Active; 'I' for Inactive)
    1  A    between atoms: C_9  and  C_22
    2  A    between atoms: C_15  and  N_23
                            x       y       z     vdW  Elec       q    Type
                         _______ _______ _______ _____ _____    ______ ____

>  <TORSDO>
F 2

$$$$
=
 OpenBabel11052413033D

 31 35  0  0  1  0  0  0  0  0999 V2000
  186.6430  178.1760  145.4130 C   0  0  0  0  0  3  0  0  0  0  0  0
  186.7150  178.1170  142.9480 C   0  0  0  0  0  0  0  0  0  0  0  0
  188.2130  177.8090  142.9510 C   0  0  1  0  0  3  0  0  0  0  0  0
  189.9410  176.7570  144.3820 C   0  0  0  0  0  2  0  0  0  0  0  0
  186.0060  178.2900  144.1650 C   0  0  0  0  0  0  0  0  0  0  0  0
  184.5610  178.6280  146.5580 C   0  0  0  0  0  3  0  0  0  0  0  0
  188.5490  176.5790  143.7910 C   0  0  0  0  0  2  0  0  0  0  0  0
  184.6590  178.6560  141.7140 C   0  0  0  0  0  0  0  0  0  0  0  0
  186.5560  178.2220  147.7930 F   0  0  0  0  0  0  0  0  0  0  0  0
  188.2380  178.6250  140.5720 C   0  0  0  0  0  2  0  0  0  0  0  0
  191.0670  176.1980  143.5040 C   0  0  0  0  0  2  0  0  0  0  0  0
  183.9690  178.7660  142.9250 C   0  0  0  0  0  3  0  0  0  0  0  0
  186.0370  178.3660  141.7230 C   0  0  0  0  0  0  0  0  0  0  0  0
  185.9270  178.3420  146.6010 C   0  0  0  0  0  0  0  0  0  0  0  0
  190.9070  176.3780  141.9890 C   0  0  0  0  0  2  0  0  0  0  0  0
  184.6260  178.5990  144.1370 C   0  0  0  0  0  0  0  0  0  0  0  0
  183.9120  178.7590  145.3290 C   0  0  0  0  0  3  0  0  0  0  0  0
  186.7660  178.2960  140.4070 C   0  0  0  0  0  2  0  0  0  0  0  0
  188.8180  177.6280  141.5520 C   0  0  1  0  0  3  0  0  0  0  0  0
  190.3360  177.7300  141.5860 C   0  0  0  0  0  2  0  0  0  0  0  0
  182.9830  176.7530  140.2190 O   0  0  0  0  0  0  0  0  0  0  0  0
  183.1680  177.9080  139.7510 C   0  0  0  0  0  0  0  0  0  0  0  0
  183.9850  178.8540  140.4590 N   0  0  0  0  0  2  0  0  0  0  0  0
  181.4180  178.9820  135.9790 C   0  0  0  0  0  0  0  0  0  0  0  0
  182.8650  177.5760  137.3090 C   0  0  0  0  0  3  0  0  0  0  0  0
  181.2910  180.1490  139.4680 O   0  0  0  0  0  1  0  0  0  0  0  0
  180.8470  179.3250  134.7220 N   0  0  0  0  0  1  0  0  0  0  0  0
  182.3060  177.9100  136.0740 C   0  0  0  0  0  3  0  0  0  0  0  0
  181.6450  179.3890  138.3590 C   0  0  0  0  0  0  0  0  0  0  0  0
  182.5470  178.3050  138.4660 C   0  0  0  0  0  0  0  0  0  0  0  0
  181.0890  179.7190  137.1190 C   0  0  0  0  0  3  0  0  0  0  0  0
  1 14  1  0  0  0  0
  2  3  1  0  0  0  0
  2  5  1  0  0  0  0
  3  7  1  1  0  0  0
  5  1  2  0  0  0  0
  6 14  2  0  0  0  0
  7  4  1  0  0  0  0
  8 13  1  0  0  0  0
  8 12  2  0  0  0  0
 11  4  1  0  0  0  0
 12 16  1  0  0  0  0
 13  2  2  0  0  0  0
 14  9  1  0  0  0  0
 15 11  1  0  0  0  0
 16  5  1  0  0  0  0
 16 17  2  0  0  0  0
 17  6  1  0  0  0  0
 18 10  1  0  0  0  0
 18 13  1  0  0  0  0
 19 10  1  6  0  0  0
 19 20  1  0  0  0  0
 19  3  1  0  0  0  0
 20 15  1  0  0  0  0
 22 21  2  0  0  0  0
 22 23  1  0  0  0  0
 23  8  1  0  0  0  0
 24 28  2  0  0  0  0
 24 31  1  0  0  0  0
 25 30  2  0  0  0  0
 27 24  1  0  0  0  0
 28 25  1  0  0  0  0
 29 30  1  0  0  0  0
 29 26  1  0  0  0  0
 30 22  1  0  0  0  0
 31 29  2  0  0  0  0
M  END
>  <MODEL>
3

>  <REMARK>
 VINA RESULT:      -9.7      2.260      4.438
  Name = 
  2 active torsions:
  status: ('A' for Active; 'I' for Inactive)
    1  A    between atoms: C_9  and  C_22
    2  A    between atoms: C_15  and  N_23
                            x       y       z     vdW  Elec       q    Type
                         _______ _______ _______ _____ _____    ______ ____

>  <TORSDO>
F 2

$$$$
=
 OpenBabel11052413033D

 31 35  0  0  1  0  0  0  0  0999 V2000
  186.6570  178.6420  142.6070 C   0  0  0  0  0  3  0  0  0  0  0  0
  188.9620  177.8270  142.2780 C   0  0  0  0  0  0  0  0  0  0  0  0
  189.2350  177.8430  143.7830 C   0  0  1  0  0  3  0  0  0  0  0  0
  188.0300  177.6640  145.9400 C   0  0  0  0  0  2  0  0  0  0  0  0
  187.7020  178.2280  141.7630 C   0  0  0  0  0  0  0  0  0  0  0  0
  185.2110  179.0040  140.7020 C   0  0  0  0  0  3  0  0  0  0  0  0
  188.2030  177.0330  144.5650 C   0  0  0  0  0  2  0  0  0  0  0  0
  189.7690  177.5270  139.9750 C   0  0  0  0  0  0  0  0  0  0  0  0
  184.4250  179.4160  142.9110 F   0  0  0  0  0  0  0  0  0  0  0  0
  191.6790  177.8580  143.1930 C   0  0  0  0  0  2  0  0  0  0  0  0
  188.9700  177.0950  147.0100 C   0  0  0  0  0  2  0  0  0  0  0  0
  188.5030  177.8710  139.4940 C   0  0  0  0  0  3  0  0  0  0  0  0
  190.0110  177.5370  141.3620 C   0  0  0  0  0  0  0  0  0  0  0  0
  185.4210  179.0260  142.0820 C   0  0  0  0  0  0  0  0  0  0  0  0
  190.3950  176.7540  146.5570 C   0  0  0  0  0  2  0  0  0  0  0  0
  187.4810  178.2290  140.3650 C   0  0  0  0  0  0  0  0  0  0  0  0
  186.2400  178.6090  139.8450 C   0  0  0  0  0  3  0  0  0  0  0  0
  191.3960  177.2050  141.8530 C   0  0  0  0  0  2  0  0  0  0  0  0
  190.6380  177.3570  144.1700 C   0  0  1  0  0  3  0  0  0  0  0  0
  190.9940  177.7670  145.5920 C   0  0  0  0  0  2  0  0  0  0  0  0
  190.0590  175.0990  138.3360 O   0  0  0  0  0  0  0  0  0  0  0  0
  190.9490  175.9890  138.2800 C   0  0  0  0  0  0  0  0  0  0  0  0
  190.8330  177.1810  139.0720 N   0  0  0  0  0  2  0  0  0  0  0  0
  194.4180  175.4660  135.8010 C   0  0  0  0  0  0  0  0  0  0  0  0
  193.3540  175.4530  137.9710 C   0  0  0  0  0  3  0  0  0  0  0  0
  190.8740  176.3630  135.3680 O   0  0  0  0  0  1  0  0  0  0  0  0
  195.5760  175.2890  134.9950 N   0  0  0  0  0  1  0  0  0  0  0  0
  194.4920  175.2790  137.1820 C   0  0  0  0  0  3  0  0  0  0  0  0
  192.0610  176.0030  135.9950 C   0  0  0  0  0  0  0  0  0  0  0  0
  192.1260  175.8160  137.3960 C   0  0  0  0  0  0  0  0  0  0  0  0
  193.2050  175.8270  135.2110 C   0  0  0  0  0  3  0  0  0  0  0  0
  2  3  1  0  0  0  0
  3 19  1  0  0  0  0
  3  7  1  1  0  0  0
  4 11  1  0  0  0  0
  5  2  1  0  0  0  0
  5  1  2  0  0  0  0
  6 14  2  0  0  0  0
  7  4  1  0  0  0  0
  8 13  1  0  0  0  0
 12  8  2  0  0  0  0
 12 16  1  0  0  0  0
 13 18  1  0  0  0  0
 13  2  2  0  0  0  0
 14  1  1  0  0  0  0
 14  9  1  0  0  0  0
 15 11  1  0  0  0  0
 16  5  1  0  0  0  0
 17 16  2  0  0  0  0
 17  6  1  0  0  0  0
 18 10  1  0  0  0  0
 19 10  1  6  0  0  0
 19 20  1  0  0  0  0
 20 15  1  0  0  0  0
 22 21  2  0  0  0  0
 22 23  1  0  0  0  0
 23  8  1  0  0  0  0
 24 28  1  0  0  0  0
 26 29  1  0  0  0  0
 27 24  1  0  0  0  0
 28 25  2  0  0  0  0
 29 30  2  0  0  0  0
 30 25  1  0  0  0  0
 30 22  1  0  0  0  0
 31 24  2  0  0  0  0
 31 29  1  0  0  0  0
M  END
>  <MODEL>
4

>  <REMARK>
 VINA RESULT:      -9.7      4.388      8.045
  Name = 
  2 active torsions:
  status: ('A' for Active; 'I' for Inactive)
    1  A    between atoms: C_9  and  C_22
    2  A    between atoms: C_15  and  N_23
                            x       y       z     vdW  Elec       q    Type
                         _______ _______ _______ _____ _____    ______ ____

>  <TORSDO>
F 2

$$$$
=
 OpenBabel11052413033D

 31 35  0  0  1  0  0  0  0  0999 V2000
  186.5890  178.4590  137.3770 C   0  0  0  0  0  3  0  0  0  0  0  0
  186.3450  178.2920  139.8260 C   0  0  0  0  0  0  0  0  0  0  0  0
  184.8350  178.5170  139.7400 C   0  0  1  0  0  3  0  0  0  0  0  0
  182.9470  178.2020  138.1670 C   0  0  0  0  0  2  0  0  0  0  0  0
  187.1470  178.2780  138.6550 C   0  0  0  0  0  0  0  0  0  0  0  0
  188.7680  178.2330  136.3530 C   0  0  0  0  0  3  0  0  0  0  0  0
  184.1560  177.5250  138.7980 C   0  0  0  0  0  2  0  0  0  0  0  0
  188.3810  178.0250  141.1780 C   0  0  0  0  0  0  0  0  0  0  0  0
  186.8360  178.6050  135.0120 F   0  0  0  0  0  0  0  0  0  0  0  0
  184.9390  179.1590  142.1690 C   0  0  0  0  0  2  0  0  0  0  0  0
  181.6450  178.0140  138.9550 C   0  0  0  0  0  2  0  0  0  0  0  0
  189.1410  177.9580  140.0080 C   0  0  0  0  0  3  0  0  0  0  0  0
  186.9900  178.2250  141.0920 C   0  0  0  0  0  0  0  0  0  0  0  0
  187.3920  178.4350  136.2350 C   0  0  0  0  0  0  0  0  0  0  0  0
  181.7610  178.0450  140.4840 C   0  0  0  0  0  2  0  0  0  0  0  0
  188.5450  178.0940  138.7610 C   0  0  0  0  0  0  0  0  0  0  0  0
  189.3440  178.0660  137.6140 C   0  0  0  0  0  3  0  0  0  0  0  0
  186.1990  178.3370  142.3700 C   0  0  0  0  0  2  0  0  0  0  0  0
  184.1180  178.4770  141.0970 C   0  0  1  0  0  3  0  0  0  0  0  0
  182.7300  179.0950  141.0080 C   0  0  0  0  0  2  0  0  0  0  0  0
  188.5940  175.6450  142.8990 O   0  0  0  0  0  0  0  0  0  0  0  0
  189.0950  176.7330  143.2890 C   0  0  0  0  0  0  0  0  0  0  0  0
  189.0010  177.9090  142.4710 N   0  0  0  0  0  2  0  0  0  0  0  0
  191.1850  176.9330  147.0360 C   0  0  0  0  0  0  0  0  0  0  0  0
  191.1420  176.4560  144.6670 C   0  0  0  0  0  3  0  0  0  0  0  0
  187.7930  177.6030  145.7730 O   0  0  0  0  0  1  0  0  0  0  0  0
  191.8920  176.9930  148.2690 N   0  0  0  0  0  1  0  0  0  0  0  0
  191.8380  176.5140  145.8760 C   0  0  0  0  0  3  0  0  0  0  0  0
  189.1340  177.2370  145.7790 C   0  0  0  0  0  0  0  0  0  0  0  0
  189.7870  176.8130  144.5980 C   0  0  0  0  0  0  0  0  0  0  0  0
  189.8370  177.2920  146.9860 C   0  0  0  0  0  3  0  0  0  0  0  0
  1  5  1  0  0  0  0
  2 13  1  0  0  0  0
  3  7  1  6  0  0  0
  3  2  1  0  0  0  0
  3 19  1  0  0  0  0
  4  7  1  0  0  0  0
  4 11  1  0  0  0  0
  5 16  1  0  0  0  0
  5  2  2  0  0  0  0
  6 17  2  0  0  0  0
  8 23  1  0  0  0  0
  9 14  1  0  0  0  0
 10 18  1  0  0  0  0
 11 15  1  0  0  0  0
 12  8  1  0  0  0  0
 13  8  2  0  0  0  0
 13 18  1  0  0  0  0
 14  6  1  0  0  0  0
 14  1  2  0  0  0  0
 15 20  1  0  0  0  0
 16 12  2  0  0  0  0
 17 16  1  0  0  0  0
 19 20  1  6  0  0  0
 19 10  1  0  0  0  0
 21 22  2  0  0  0  0
 22 30  1  0  0  0  0
 23 22  1  0  0  0  0
 24 27  1  0  0  0  0
 25 28  1  0  0  0  0
 26 29  1  0  0  0  0
 28 24  2  0  0  0  0
 29 31  2  0  0  0  0
 30 25  2  0  0  0  0
 30 29  1  0  0  0  0
 31 24  1  0  0  0  0
M  END
>  <MODEL>
5

>  <REMARK>
 VINA RESULT:      -9.5      3.654      8.083
  Name = 
  2 active torsions:
  status: ('A' for Active; 'I' for Inactive)
    1  A    between atoms: C_9  and  C_22
    2  A    between atoms: C_15  and  N_23
                            x       y       z     vdW  Elec       q    Type
                         _______ _______ _______ _____ _____    ______ ____

>  <TORSDO>
F 2

$$$$
=
 OpenBabel11052413033D

 31 35  0  0  1  0  0  0  0  0999 V2000
  190.1090  176.9300  140.2500 C   0  0  0  0  0  3  0  0  0  0  0  0
  188.1620  177.8500  141.4540 C   0  0  0  0  0  0  0  0  0  0  0  0
  188.7560  177.4640  142.8100 C   0  0  1  0  0  3  0  0  0  0  0  0
  190.9530  177.0720  143.8860 C   0  0  0  0  0  2  0  0  0  0  0  0
  188.8540  177.5640  140.2480 C   0  0  0  0  0  0  0  0  0  0  0  0
  190.2020  177.0260  137.8350 C   0  0  0  0  0  3  0  0  0  0  0  0
  190.1610  178.0300  143.0070 C   0  0  0  0  0  2  0  0  0  0  0  0
  186.2900  178.7330  140.1280 C   0  0  0  0  0  0  0  0  0  0  0  0
  191.9890  176.0570  139.0760 F   0  0  0  0  0  0  0  0  0  0  0  0
  186.4210  177.6490  143.7230 C   0  0  0  0  0  2  0  0  0  0  0  0
  190.8530  177.3750  145.3860 C   0  0  0  0  0  2  0  0  0  0  0  0
  187.0150  178.4940  138.9580 C   0  0  0  0  0  3  0  0  0  0  0  0
  186.8450  178.3820  141.3740 C   0  0  0  0  0  0  0  0  0  0  0  0
  190.7780  176.6640  139.0540 C   0  0  0  0  0  0  0  0  0  0  0  0
  189.4880  177.8480  145.8990 C   0  0  0  0  0  2  0  0  0  0  0  0
  188.2740  177.9080  139.0050 C   0  0  0  0  0  0  0  0  0  0  0  0
  188.9500  177.6440  137.8110 C   0  0  0  0  0  3  0  0  0  0  0  0
  186.0260  178.6100  142.6170 C   0  0  0  0  0  2  0  0  0  0  0  0
  187.8900  177.8670  144.0110 C   0  0  1  0  0  3  0  0  0  0  0  0
  188.3070  177.1220  145.2700 C   0  0  0  0  0  2  0  0  0  0  0  0
  183.8110  177.5700  139.0450 O   0  0  0  0  0  0  0  0  0  0  0  0
  183.7800  178.7260  139.5470 C   0  0  0  0  0  0  0  0  0  0  0  0
  184.9770  179.3170  140.0780 N   0  0  0  0  0  2  0  0  0  0  0  0
  180.1330  180.9920  139.6030 C   0  0  0  0  0  0  0  0  0  0  0  0
  182.3000  180.5070  138.6510 C   0  0  0  0  0  3  0  0  0  0  0  0
  181.6540  178.2360  141.5110 O   0  0  0  0  0  1  0  0  0  0  0  0
  178.9310  181.7520  139.6080 N   0  0  0  0  0  1  0  0  0  0  0  0
  181.1210  181.2540  138.6530 C   0  0  0  0  0  3  0  0  0  0  0  0
  181.5030  179.2310  140.5520 C   0  0  0  0  0  0  0  0  0  0  0  0
  182.5110  179.4890  139.5940 C   0  0  0  0  0  0  0  0  0  0  0  0
  180.3250  179.9830  140.5490 C   0  0  0  0  0  3  0  0  0  0  0  0
  2  3  1  0  0  0  0
  3  7  1  1  0  0  0
  3 19  1  0  0  0  0
  4 11  1  0  0  0  0
  5  1  1  0  0  0  0
  5  2  2  0  0  0  0
  6 14  1  0  0  0  0
  7  4  1  0  0  0  0
  8 13  2  0  0  0  0
 11 15  1  0  0  0  0
 12 16  2  0  0  0  0
 12  8  1  0  0  0  0
 13  2  1  0  0  0  0
 13 18  1  0  0  0  0
 14  9  1  0  0  0  0
 14  1  2  0  0  0  0
 16  5  1  0  0  0  0
 17  6  2  0  0  0  0
 17 16  1  0  0  0  0
 18 10  1  0  0  0  0
 19 10  1  6  0  0  0
 19 20  1  0  0  0  0
 20 15  1  0  0  0  0
 21 22  2  0  0  0  0
 22 30  1  0  0  0  0
 22 23  1  0  0  0  0
 23  8  1  0  0  0  0
 24 27  1  0  0  0  0
 24 31  1  0  0  0  0
 25 28  1  0  0  0  0
 25 30  2  0  0  0  0
 28 24  2  0  0  0  0
 29 26  1  0  0  0  0
 30 29  1  0  0  0  0
 31 29  2  0  0  0  0
M  END
>  <MODEL>
6

>  <REMARK>
 VINA RESULT:      -9.4      1.385      2.068
  Name = 
  2 active torsions:
  status: ('A' for Active; 'I' for Inactive)
    1  A    between atoms: C_9  and  C_22
    2  A    between atoms: C_15  and  N_23
                            x       y       z     vdW  Elec       q    Type
                         _______ _______ _______ _____ _____    ______ ____

>  <TORSDO>
F 2

$$$$
=
 OpenBabel11052413033D

 31 35  0  0  1  0  0  0  0  0999 V2000
  183.5890  178.8000  139.5150 C   0  0  0  0  0  3  0  0  0  0  0  0
  184.1660  178.5490  141.9000 C   0  0  0  0  0  0  0  0  0  0  0  0
  182.7170  178.7920  142.3260 C   0  0  1  0  0  3  0  0  0  0  0  0
  180.4090  178.5500  141.4590 C   0  0  0  0  0  2  0  0  0  0  0  0
  184.5340  178.5690  140.5290 C   0  0  0  0  0  0  0  0  0  0  0  0
  185.3020  178.5890  137.8200 C   0  0  0  0  0  3  0  0  0  0  0  0
  181.7450  177.8400  141.6340 C   0  0  0  0  0  2  0  0  0  0  0  0
  186.5280  178.2160  142.4920 C   0  0  0  0  0  0  0  0  0  0  0  0
  183.0430  179.0260  137.2070 F   0  0  0  0  0  0  0  0  0  0  0  0
  183.6330  179.3470  144.6020 C   0  0  0  0  0  2  0  0  0  0  0  0
  179.4380  178.3480  142.6280 C   0  0  0  0  0  2  0  0  0  0  0  0
  186.8570  178.1830  141.1350 C   0  0  0  0  0  3  0  0  0  0  0  0
  185.1920  178.4320  142.8780 C   0  0  0  0  0  0  0  0  0  0  0  0
  183.9680  178.8080  138.1710 C   0  0  0  0  0  0  0  0  0  0  0  0
  180.0530  178.3230  144.0330 C   0  0  0  0  0  2  0  0  0  0  0  0
  185.8850  178.3680  140.1600 C   0  0  0  0  0  0  0  0  0  0  0  0
  186.2590  178.3720  138.8130 C   0  0  0  0  0  3  0  0  0  0  0  0
  184.8700  178.5070  144.3480 C   0  0  0  0  0  2  0  0  0  0  0  0
  182.4890  178.7110  143.8420 C   0  0  1  0  0  3  0  0  0  0  0  0
  181.1630  179.3450  144.2370 C   0  0  0  0  0  2  0  0  0  0  0  0
  188.0010  175.7720  143.2210 O   0  0  0  0  0  0  0  0  0  0  0  0
  188.2470  176.8440  143.8350 C   0  0  0  0  0  0  0  0  0  0  0  0
  187.5390  178.0490  143.5020 N   0  0  0  0  0  2  0  0  0  0  0  0
  191.1300  176.9510  147.0170 C   0  0  0  0  0  0  0  0  0  0  0  0
  188.8470  177.0840  146.2330 C   0  0  0  0  0  3  0  0  0  0  0  0
  191.1240  176.4940  143.3640 O   0  0  0  0  0  1  0  0  0  0  0  0
  192.0710  176.9890  148.0820 N   0  0  0  0  0  1  0  0  0  0  0  0
  189.7700  177.1210  147.2800 C   0  0  0  0  0  3  0  0  0  0  0  0
  190.6480  176.7040  144.6530 C   0  0  0  0  0  0  0  0  0  0  0  0
  189.2670  176.8760  144.9100 C   0  0  0  0  0  0  0  0  0  0  0  0
  191.5650  176.7430  145.7070 C   0  0  0  0  0  3  0  0  0  0  0  0
  1  5  1  0  0  0  0
  2  3  1  0  0  0  0
  2 13  1  0  0  0  0
  3  7  1  6  0  0  0
  3 19  1  0  0  0  0
  4  7  1  0  0  0  0
  4 11  1  0  0  0  0
  5  2  2  0  0  0  0
  6 14  1  0  0  0  0
  6 17  2  0  0  0  0
  8 13  2  0  0  0  0
  8 23  1  0  0  0  0
  9 14  1  0  0  0  0
 11 15  1  0  0  0  0
 12  8  1  0  0  0  0
 13 18  1  0  0  0  0
 14  1  2  0  0  0  0
 15 20  1  0  0  0  0
 16  5  1  0  0  0  0
 16 12  2  0  0  0  0
 17 16  1  0  0  0  0
 18 10  1  0  0  0  0
 19 20  1  6  0  0  0
 19 10  1  0  0  0  0
 21 22  2  0  0  0  0
 22 30  1  0  0  0  0
 23 22  1  0  0  0  0
 24 28  1  0  0  0  0
 24 27  1  0  0  0  0
 25 28  2  0  0  0  0
 26 29  1  0  0  0  0
 29 30  2  0  0  0  0
 29 31  1  0  0  0  0
 30 25  1  0  0  0  0
 31 24  2  0  0  0  0
M  END
>  <MODEL>
7

>  <REMARK>
 VINA RESULT:      -9.3      3.710      8.129
  Name = 
  2 active torsions:
  status: ('A' for Active; 'I' for Inactive)
    1  A    between atoms: C_9  and  C_22
    2  A    between atoms: C_15  and  N_23
                            x       y       z     vdW  Elec       q    Type
                         _______ _______ _______ _____ _____    ______ ____

>  <TORSDO>
F 2

$$$$
=
 OpenBabel11052413033D

 31 35  0  0  1  0  0  0  0  0999 V2000
  186.6430  178.3080  137.0640 C   0  0  0  0  0  3  0  0  0  0  0  0
  185.6880  178.2240  139.3370 C   0  0  0  0  0  0  0  0  0  0  0  0
  184.2590  178.2510  138.7910 C   0  0  1  0  0  3  0  0  0  0  0  0
  182.9830  177.6250  136.7620 C   0  0  0  0  0  2  0  0  0  0  0  0
  186.8030  178.2590  138.4600 C   0  0  0  0  0  0  0  0  0  0  0  0
  189.0410  178.3150  136.7520 C   0  0  0  0  0  3  0  0  0  0  0  0
  184.0090  177.1380  137.7760 C   0  0  0  0  0  2  0  0  0  0  0  0
  187.2340  178.2820  141.2470 C   0  0  0  0  0  0  0  0  0  0  0  0
  187.5780  178.3740  134.8740 F   0  0  0  0  0  0  0  0  0  0  0  0
  183.5520  179.0130  141.0810 C   0  0  0  0  0  2  0  0  0  0  0  0
  181.5310  177.3100  137.1430 C   0  0  0  0  0  2  0  0  0  0  0  0
  188.3160  178.2590  140.3630 C   0  0  0  0  0  3  0  0  0  0  0  0
  185.9210  178.2990  140.7380 C   0  0  0  0  0  0  0  0  0  0  0  0
  187.7520  178.3340  136.2160 C   0  0  0  0  0  0  0  0  0  0  0  0
  181.1740  177.4260  138.6300 C   0  0  0  0  0  2  0  0  0  0  0  0
  188.1150  178.2600  138.9890 C   0  0  0  0  0  0  0  0  0  0  0  0
  189.2220  178.2800  138.1360 C   0  0  0  0  0  3  0  0  0  0  0  0
  184.7730  178.3680  141.7110 C   0  0  0  0  0  2  0  0  0  0  0  0
  183.1740  178.1830  139.8740 C   0  0  1  0  0  3  0  0  0  0  0  0
  181.8200  178.6140  139.3290 C   0  0  0  0  0  2  0  0  0  0  0  0
  187.9270  176.0460  143.0330 O   0  0  0  0  0  0  0  0  0  0  0  0
  187.7850  177.2000  143.5190 C   0  0  0  0  0  0  0  0  0  0  0  0
  187.4420  178.3070  142.6700 N   0  0  0  0  0  2  0  0  0  0  0  0
  188.2130  177.8870  147.7370 C   0  0  0  0  0  0  0  0  0  0  0  0
  186.8550  177.8110  145.7400 C   0  0  0  0  0  3  0  0  0  0  0  0
  190.3540  176.9020  144.9090 O   0  0  0  0  0  1  0  0  0  0  0  0
  188.3380  178.1180  149.1350 N   0  0  0  0  0  1  0  0  0  0  0  0
  186.9750  178.0380  147.1120 C   0  0  0  0  0  3  0  0  0  0  0  0
  189.2170  177.2770  145.6160 C   0  0  0  0  0  0  0  0  0  0  0  0
  187.9660  177.4290  144.9720 C   0  0  0  0  0  0  0  0  0  0  0  0
  189.3300  177.5070  146.9900 C   0  0  0  0  0  3  0  0  0  0  0  0
  1  5  1  0  0  0  0
  2 13  1  0  0  0  0
  3  7  1  6  0  0  0
  3  2  1  0  0  0  0
  3 19  1  0  0  0  0
  4 11  1  0  0  0  0
  4  7  1  0  0  0  0
  5 16  1  0  0  0  0
  5  2  2  0  0  0  0
  6 17  2  0  0  0  0
  8 23  1  0  0  0  0
  9 14  1  0  0  0  0
 10 18  1  0  0  0  0
 11 15  1  0  0  0  0
 12  8  1  0  0  0  0
 13  8  2  0  0  0  0
 13 18  1  0  0  0  0
 14  6  1  0  0  0  0
 14  1  2  0  0  0  0
 15 20  1  0  0  0  0
 16 12  2  0  0  0  0
 17 16  1  0  0  0  0
 19 20  1  6  0  0  0
 19 10  1  0  0  0  0
 21 22  2  0  0  0  0
 22 30  1  0  0  0  0
 23 22  1  0  0  0  0
 24 27  1  0  0  0  0
 25 28  2  0  0  0  0
 26 29  1  0  0  0  0
 28 24  1  0  0  0  0
 29 31  1  0  0  0  0
 30 29  2  0  0  0  0
 30 25  1  0  0  0  0
 31 24  2  0  0  0  0
M  END
>  <MODEL>
8

>  <REMARK>
 VINA RESULT:      -9.1      3.488      7.926
  Name = 
  2 active torsions:
  status: ('A' for Active; 'I' for Inactive)
    1  A    between atoms: C_9  and  C_22
    2  A    between atoms: C_15  and  N_23
                            x       y       z     vdW  Elec       q    Type
                         _______ _______ _______ _____ _____    ______ ____

>  <TORSDO>
F 2

$$$$
=
 OpenBabel11052413033D

 31 35  0  0  1  0  0  0  0  0999 V2000
  187.9330  178.0720  146.3320 C   0  0  0  0  0  3  0  0  0  0  0  0
  187.2100  178.0590  143.9730 C   0  0  0  0  0  0  0  0  0  0  0  0
  188.6300  177.7670  143.4880 C   0  0  1  0  0  3  0  0  0  0  0  0
  190.7300  176.7060  144.2660 C   0  0  0  0  0  2  0  0  0  0  0  0
  186.9290  178.2030  145.3570 C   0  0  0  0  0  0  0  0  0  0  0  0
  186.3290  178.4820  148.0940 C   0  0  0  0  0  3  0  0  0  0  0  0
  189.2220  176.5250  144.1510 C   0  0  0  0  0  2  0  0  0  0  0  0
  184.8640  178.6010  143.4770 C   0  0  0  0  0  0  0  0  0  0  0  0
  188.6160  178.0740  148.6130 F   0  0  0  0  0  0  0  0  0  0  0  0
  187.8860  178.6270  141.2450 C   0  0  0  0  0  2  0  0  0  0  0  0
  191.5160  176.1740  143.0610 C   0  0  0  0  0  2  0  0  0  0  0  0
  184.6000  178.6810  144.8470 C   0  0  0  0  0  3  0  0  0  0  0  0
  186.1720  178.3240  143.0370 C   0  0  0  0  0  0  0  0  0  0  0  0
  187.6360  178.2090  147.6890 C   0  0  0  0  0  0  0  0  0  0  0  0
  190.8770  176.3810  141.6830 C   0  0  0  0  0  2  0  0  0  0  0  0
  185.6120  178.4990  145.7810 C   0  0  0  0  0  0  0  0  0  0  0  0
  185.3190  178.6300  147.1410 C   0  0  0  0  0  3  0  0  0  0  0  0
  186.4400  178.2860  141.5550 C   0  0  0  0  0  2  0  0  0  0  0  0
  188.7540  177.6180  141.9650 C   0  0  1  0  0  3  0  0  0  0  0  0
  190.2020  177.7340  141.5130 C   0  0  0  0  0  2  0  0  0  0  0  0
  181.9490  178.5390  143.8860 O   0  0  0  0  0  0  0  0  0  0  0  0
  182.4030  178.7830  142.7360 C   0  0  0  0  0  0  0  0  0  0  0  0
  183.8210  178.8150  142.5100 N   0  0  0  0  0  2  0  0  0  0  0  0
  179.7870  179.4600  139.3980 C   0  0  0  0  0  0  0  0  0  0  0  0
  181.7150  178.3870  140.3830 C   0  0  0  0  0  3  0  0  0  0  0  0
  180.0920  180.5880  142.8890 O   0  0  0  0  0  1  0  0  0  0  0  0
  178.9310  179.6730  138.2830 N   0  0  0  0  0  1  0  0  0  0  0  0
  180.8760  178.5940  139.2870 C   0  0  0  0  0  3  0  0  0  0  0  0
  180.3750  179.9140  141.7070 C   0  0  0  0  0  0  0  0  0  0  0  0
  181.4820  179.0390  141.6040 C   0  0  0  0  0  0  0  0  0  0  0  0
  179.5390  180.1170  140.6050 C   0  0  0  0  0  3  0  0  0  0  0  0
  1 14  1  0  0  0  0
  2  5  1  0  0  0  0
  3  2  1  0  0  0  0
  3  7  1  1  0  0  0
  5 16  1  0  0  0  0
  5  1  2  0  0  0  0
  7  4  1  0  0  0  0
  8 12  2  0  0  0  0
 10 18  1  0  0  0  0
 11  4  1  0  0  0  0
 12 16  1  0  0  0  0
 13  8  1  0  0  0  0
 13  2  2  0  0  0  0
 14  6  2  0  0  0  0
 14  9  1  0  0  0  0
 15 11  1  0  0  0  0
 16 17  2  0  0  0  0
 17  6  1  0  0  0  0
 18 13  1  0  0  0  0
 19 10  1  6  0  0  0
 19  3  1  0  0  0  0
 20 15  1  0  0  0  0
 20 19  1  0  0  0  0
 22 21  2  0  0  0  0
 23 22  1  0  0  0  0
 23  8  1  0  0  0  0
 24 31  1  0  0  0  0
 25 30  2  0  0  0  0
 27 24  1  0  0  0  0
 28 24  2  0  0  0  0
 28 25  1  0  0  0  0
 29 26  1  0  0  0  0
 30 29  1  0  0  0  0
 30 22  1  0  0  0  0
 31 29  2  0  0  0  0
M  END
>  <MODEL>
9

>  <REMARK>
 VINA RESULT:      -9.1      2.007      4.355
  Name = 
  2 active torsions:
  status: ('A' for Active; 'I' for Inactive)
    1  A    between atoms: C_9  and  C_22
    2  A    between atoms: C_15  and  N_23
                            x       y       z     vdW  Elec       q    Type
                         _______ _______ _______ _____ _____    ______ ____

>  <TORSDO>
F 2

$$$$
