=
 OpenBabel11052412523D

 25 26  0  0  1  0  0  0  0  0999 V2000
  189.8010  176.1010  142.8490 C   0  0  2  0  0  3  0  0  0  0  0  0
  190.0360  177.0830  144.0080 C   0  0  1  0  0  3  0  0  0  0  0  0
  192.4980  174.5010  144.4140 O   0  0  0  0  0  0  0  0  0  0  0  0
  191.5730  175.2880  144.0860 C   0  0  0  0  0  0  0  0  0  0  0  0
  191.3090  176.5610  146.2180 C   0  0  0  0  0  0  0  0  0  0  0  0
  192.3180  176.2300  146.8200 O   0  0  0  0  0  0  0  0  0  0  0  0
  188.8040  177.0470  144.9080 C   0  0  0  0  0  2  0  0  0  0  0  0
  190.7130  175.0310  143.0410 O   0  0  0  0  0  0  0  0  0  0  0  0
  190.0850  176.9120  147.0170 C   0  0  0  0  0  2  0  0  0  0  0  0
  189.0990  177.7500  146.2160 C   0  0  2  0  0  3  0  0  0  0  0  0
  191.3390  176.6130  144.7040 C   0  0  2  0  0  3  0  0  0  0  0  0
  190.0010  176.7800  141.4870 C   0  0  1  0  0  3  0  0  0  0  0  0
  188.7290  177.4540  140.9540 C   0  0  1  0  0  3  0  0  0  0  0  0
  188.5870  178.7470  141.4670 O   0  0  0  0  0  1  0  0  0  0  0  0
  188.7770  178.8690  138.9760 N   0  0  0  0  0  1  0  0  0  0  0  0
  188.7430  177.4920  139.4350 C   0  0  0  0  0  2  0  0  0  0  0  0
  192.1210  177.5480  140.7730 O   0  0  0  0  0  0  0  0  0  0  0  0
  191.1710  177.7180  141.5200 C   0  0  0  0  0  3  0  0  0  0  0  0
  187.8080  177.9210  146.9960 C   0  0  0  0  0  2  0  0  0  0  0  0
  186.6100  177.6560  146.1000 C   0  0  0  0  0  2  0  0  0  0  0  0
  185.6310  178.7730  146.2190 C   0  0  0  0  0  0  0  0  0  0  0  0
  185.6680  179.5220  147.2310 O   0  0  0  0  0  0  0  0  0  0  0  0
  184.6490  179.0180  145.1550 C   0  0  0  0  0  0  0  0  0  0  0  0
  183.4270  179.1370  145.4370 O   0  0  0  0  0  1  0  0  0  0  0  0
  185.0610  179.1210  143.8330 O   0  0  0  0  0  0  0  0  0  0  0  0
  1 12  1  6  0  0  0
  1  8  1  0  0  0  0
  1  2  1  0  0  0  0
  2 11  1  0  0  0  0
  2  7  1  1  0  0  0
  4  3  2  0  0  0  0
  5  6  2  0  0  0  0
  5  9  1  0  0  0  0
  7 10  1  0  0  0  0
  8  4  1  0  0  0  0
 10 19  1  1  0  0  0
 10  9  1  0  0  0  0
 11  4  1  6  0  0  0
 11  5  1  0  0  0  0
 12 18  1  1  0  0  0
 13 14  1  1  0  0  0
 13 12  1  0  0  0  0
 15 16  1  0  0  0  0
 16 13  1  0  0  0  0
 17 18  2  0  0  0  0
 20 21  1  0  0  0  0
 20 19  1  0  0  0  0
 21 22  2  0  0  0  0
 23 24  1  0  0  0  0
 23 21  1  0  0  0  0
 25 23  2  0  0  0  0
M  END
>  <MODEL>
1

>  <REMARK>
 VINA RESULT:      -8.5      0.000      0.000
  Name = 
  8 active torsions:
  status: ('A' for Active; 'I' for Inactive)
    1  A    between atoms: C_1  and  C_5
    2  A    between atoms: C_2  and  C_21
    3  A    between atoms: C_5  and  C_10
    4  A    between atoms: C_5  and  C_22
    5  A    between atoms: C_6  and  C_15
    6  A    between atoms: C_6  and  C_23
    7  A    between atoms: C_10  and  C_11
    8  A    between atoms: C_15  and  C_21
                            x       y       z     vdW  Elec       q    Type
                         _______ _______ _______ _____ _____    ______ ____

>  <TORSDO>
F 8

$$$$
=
 OpenBabel11052412523D

 25 26  0  0  1  0  0  0  0  0999 V2000
  189.6110  176.6260  142.9050 C   0  0  2  0  0  3  0  0  0  0  0  0
  189.8640  177.4660  144.1670 C   0  0  1  0  0  3  0  0  0  0  0  0
  192.3520  174.8780  144.2150 O   0  0  0  0  0  0  0  0  0  0  0  0
  191.4140  175.6890  144.0000 C   0  0  0  0  0  0  0  0  0  0  0  0
  191.1880  176.7000  146.2730 C   0  0  0  0  0  0  0  0  0  0  0  0
  192.2120  176.3090  146.8110 O   0  0  0  0  0  0  0  0  0  0  0  0
  188.6520  177.3130  145.0810 C   0  0  0  0  0  2  0  0  0  0  0  0
  190.5340  175.5500  142.9500 O   0  0  0  0  0  0  0  0  0  0  0  0
  189.9790  176.9420  147.1330 C   0  0  0  0  0  2  0  0  0  0  0  0
  188.9700  177.8600  146.4570 C   0  0  2  0  0  3  0  0  0  0  0  0
  191.1850  176.9300  144.7750 C   0  0  2  0  0  3  0  0  0  0  0  0
  189.7760  177.4630  141.6290 C   0  0  1  0  0  3  0  0  0  0  0  0
  190.6760  176.7960  140.5800 C   0  0  1  0  0  3  0  0  0  0  0  0
  190.0740  176.8050  139.3170 O   0  0  0  0  0  1  0  0  0  0  0  0
  192.7410  177.0730  139.3250 N   0  0  0  0  0  1  0  0  0  0  0  0
  192.0270  177.4870  140.5200 C   0  0  0  0  0  2  0  0  0  0  0  0
  187.8440  178.8220  141.5170 O   0  0  0  0  0  0  0  0  0  0  0  0
  188.4420  177.8580  141.0680 C   0  0  0  0  0  3  0  0  0  0  0  0
  187.6960  177.9260  147.2780 C   0  0  0  0  0  2  0  0  0  0  0  0
  186.4880  177.6280  146.4050 C   0  0  0  0  0  2  0  0  0  0  0  0
  185.5850  178.8130  146.3670 C   0  0  0  0  0  0  0  0  0  0  0  0
  185.6440  179.6650  147.2930 O   0  0  0  0  0  0  0  0  0  0  0  0
  184.6540  179.0030  145.2480 C   0  0  0  0  0  0  0  0  0  0  0  0
  183.4200  179.1300  145.4650 O   0  0  0  0  0  1  0  0  0  0  0  0
  185.1270  179.0450  143.9420 O   0  0  0  0  0  0  0  0  0  0  0  0
  1 12  1  6  0  0  0
  1  8  1  0  0  0  0
  1  2  1  0  0  0  0
  2 11  1  0  0  0  0
  2  7  1  1  0  0  0
  4  3  2  0  0  0  0
  5  6  2  0  0  0  0
  5  9  1  0  0  0  0
  7 10  1  0  0  0  0
  8  4  1  0  0  0  0
 10  9  1  0  0  0  0
 10 19  1  1  0  0  0
 11  4  1  6  0  0  0
 11  5  1  0  0  0  0
 12 18  1  6  0  0  0
 13 14  1  6  0  0  0
 13 12  1  0  0  0  0
 15 16  1  0  0  0  0
 16 13  1  0  0  0  0
 18 17  2  0  0  0  0
 20 19  1  0  0  0  0
 21 20  1  0  0  0  0
 21 22  2  0  0  0  0
 23 24  1  0  0  0  0
 23 21  1  0  0  0  0
 25 23  2  0  0  0  0
M  END
>  <MODEL>
2

>  <REMARK>
 VINA RESULT:      -8.4      1.164      1.751
  Name = 
  8 active torsions:
  status: ('A' for Active; 'I' for Inactive)
    1  A    between atoms: C_1  and  C_5
    2  A    between atoms: C_2  and  C_21
    3  A    between atoms: C_5  and  C_10
    4  A    between atoms: C_5  and  C_22
    5  A    between atoms: C_6  and  C_15
    6  A    between atoms: C_6  and  C_23
    7  A    between atoms: C_10  and  C_11
    8  A    between atoms: C_15  and  C_21
                            x       y       z     vdW  Elec       q    Type
                         _______ _______ _______ _____ _____    ______ ____

>  <TORSDO>
F 8

$$$$
=
 OpenBabel11052412523D

 25 26  0  0  1  0  0  0  0  0999 V2000
  188.5630  178.0840  142.2050 C   0  0  2  0  0  3  0  0  0  0  0  0
  187.5800  177.4300  143.1890 C   0  0  1  0  0  3  0  0  0  0  0  0
  185.5760  179.5250  141.0710 O   0  0  0  0  0  0  0  0  0  0  0  0
  186.4540  178.8630  141.6840 C   0  0  0  0  0  0  0  0  0  0  0  0
  185.1910  178.2910  143.7610 C   0  0  0  0  0  0  0  0  0  0  0  0
  184.0500  178.5820  143.4350 O   0  0  0  0  0  0  0  0  0  0  0  0
  187.9130  177.9370  144.5890 C   0  0  0  0  0  2  0  0  0  0  0  0
  187.7980  178.9780  141.4130 O   0  0  0  0  0  0  0  0  0  0  0  0
  185.5680  178.4030  145.2120 C   0  0  0  0  0  2  0  0  0  0  0  0
  186.8000  177.5750  145.5490 C   0  0  2  0  0  3  0  0  0  0  0  0
  186.1630  177.8230  142.6970 C   0  0  2  0  0  3  0  0  0  0  0  0
  189.2810  177.0350  141.3460 C   0  0  1  0  0  3  0  0  0  0  0  0
  189.7400  177.5770  139.9850 C   0  0  1  0  0  3  0  0  0  0  0  0
  191.1310  177.5090  139.8550 O   0  0  0  0  0  1  0  0  0  0  0  0
  187.8780  177.5180  138.4200 N   0  0  0  0  0  1  0  0  0  0  0  0
  189.0710  176.8130  138.8550 C   0  0  0  0  0  2  0  0  0  0  0  0
  190.2080  175.3560  142.7310 O   0  0  0  0  0  0  0  0  0  0  0  0
  190.3990  176.3890  142.1090 C   0  0  0  0  0  3  0  0  0  0  0  0
  187.2480  177.8640  146.9700 C   0  0  0  0  0  2  0  0  0  0  0  0
  188.2450  176.8160  147.4330 C   0  0  0  0  0  2  0  0  0  0  0  0
  189.5470  177.4640  147.7600 C   0  0  0  0  0  0  0  0  0  0  0  0
  189.5770  178.4010  148.6020 O   0  0  0  0  0  0  0  0  0  0  0  0
  190.7880  177.0000  147.1290 C   0  0  0  0  0  0  0  0  0  0  0  0
  190.8060  176.7120  145.9020 O   0  0  0  0  0  0  0  0  0  0  0  0
  191.9510  176.8760  147.8780 O   0  0  0  0  0  1  0  0  0  0  0  0
  1 12  1  6  0  0  0
  1  2  1  0  0  0  0
  2  7  1  1  0  0  0
  3  4  2  0  0  0  0
  5  9  1  0  0  0  0
  6  5  2  0  0  0  0
  7 10  1  0  0  0  0
  8  4  1  0  0  0  0
  8  1  1  0  0  0  0
  9 10  1  0  0  0  0
 10 19  1  1  0  0  0
 11  4  1  6  0  0  0
 11  2  1  0  0  0  0
 11  5  1  0  0  0  0
 12 18  1  1  0  0  0
 13 14  1  6  0  0  0
 13 12  1  0  0  0  0
 15 16  1  0  0  0  0
 16 13  1  0  0  0  0
 18 17  2  0  0  0  0
 19 20  1  0  0  0  0
 20 21  1  0  0  0  0
 21 22  2  0  0  0  0
 23 21  1  0  0  0  0
 23 25  1  0  0  0  0
 24 23  2  0  0  0  0
M  END
>  <MODEL>
3

>  <REMARK>
 VINA RESULT:      -8.0      1.708      4.965
  Name = 
  8 active torsions:
  status: ('A' for Active; 'I' for Inactive)
    1  A    between atoms: C_1  and  C_5
    2  A    between atoms: C_2  and  C_21
    3  A    between atoms: C_5  and  C_10
    4  A    between atoms: C_5  and  C_22
    5  A    between atoms: C_6  and  C_15
    6  A    between atoms: C_6  and  C_23
    7  A    between atoms: C_10  and  C_11
    8  A    between atoms: C_15  and  C_21
                            x       y       z     vdW  Elec       q    Type
                         _______ _______ _______ _____ _____    ______ ____

>  <TORSDO>
F 8

$$$$
=
 OpenBabel11052412523D

 25 26  0  0  1  0  0  0  0  0999 V2000
  189.4230  176.6640  142.0590 C   0  0  2  0  0  3  0  0  0  0  0  0
  189.2460  177.5640  143.2920 C   0  0  1  0  0  3  0  0  0  0  0  0
  191.9720  175.3650  144.0850 O   0  0  0  0  0  0  0  0  0  0  0  0
  191.0140  176.0260  143.6050 C   0  0  0  0  0  0  0  0  0  0  0  0
  190.1080  177.0510  145.6950 C   0  0  0  0  0  0  0  0  0  0  0  0
  191.0130  176.8260  146.4830 O   0  0  0  0  0  0  0  0  0  0  0  0
  187.8800  177.2600  143.9010 C   0  0  0  0  0  2  0  0  0  0  0  0
  190.4440  175.7340  142.3870 O   0  0  0  0  0  0  0  0  0  0  0  0
  188.7040  177.1380  146.2270 C   0  0  0  0  0  2  0  0  0  0  0  0
  187.7770  177.8820  145.2770 C   0  0  2  0  0  3  0  0  0  0  0  0
  190.4390  177.2400  144.2280 C   0  0  2  0  0  3  0  0  0  0  0  0
  189.7810  177.4830  140.8120 C   0  0  1  0  0  3  0  0  0  0  0  0
  190.9660  176.9050  140.0270 C   0  0  1  0  0  3  0  0  0  0  0  0
  190.7610  177.0130  138.6470 O   0  0  0  0  0  1  0  0  0  0  0  0
  193.3500  177.1240  139.5920 N   0  0  0  0  0  1  0  0  0  0  0  0
  192.2570  177.6040  140.4200 C   0  0  0  0  0  2  0  0  0  0  0  0
  187.8410  178.6560  140.1360 O   0  0  0  0  0  0  0  0  0  0  0  0
  188.5750  177.6990  139.9460 C   0  0  0  0  0  3  0  0  0  0  0  0
  186.3440  177.7840  145.7660 C   0  0  0  0  0  2  0  0  0  0  0  0
  185.6700  179.1440  145.7080 C   0  0  0  0  0  2  0  0  0  0  0  0
  184.4090  179.0540  144.9200 C   0  0  0  0  0  0  0  0  0  0  0  0
  183.3020  179.0880  145.5190 O   0  0  0  0  0  0  0  0  0  0  0  0
  184.4520  178.9550  143.4560 C   0  0  0  0  0  0  0  0  0  0  0  0
  183.5960  178.2630  142.8420 O   0  0  0  0  0  1  0  0  0  0  0  0
  185.4360  179.6220  142.7370 O   0  0  0  0  0  0  0  0  0  0  0  0
  1 12  1  6  0  0  0
  1  8  1  0  0  0  0
  1  2  1  0  0  0  0
  2  7  1  1  0  0  0
  2 11  1  0  0  0  0
  4  3  2  0  0  0  0
  5  9  1  0  0  0  0
  5  6  2  0  0  0  0
  7 10  1  0  0  0  0
  8  4  1  0  0  0  0
 10 19  1  1  0  0  0
 10  9  1  0  0  0  0
 11  4  1  6  0  0  0
 11  5  1  0  0  0  0
 12 18  1  6  0  0  0
 13 14  1  6  0  0  0
 13 16  1  0  0  0  0
 13 12  1  0  0  0  0
 15 16  1  0  0  0  0
 18 17  2  0  0  0  0
 20 19  1  0  0  0  0
 21 22  2  0  0  0  0
 21 20  1  0  0  0  0
 23 21  1  0  0  0  0
 24 23  1  0  0  0  0
 25 23  2  0  0  0  0
M  END
>  <MODEL>
4

>  <REMARK>
 VINA RESULT:      -8.0      1.613      2.358
  Name = 
  8 active torsions:
  status: ('A' for Active; 'I' for Inactive)
    1  A    between atoms: C_1  and  C_5
    2  A    between atoms: C_2  and  C_21
    3  A    between atoms: C_5  and  C_10
    4  A    between atoms: C_5  and  C_22
    5  A    between atoms: C_6  and  C_15
    6  A    between atoms: C_6  and  C_23
    7  A    between atoms: C_10  and  C_11
    8  A    between atoms: C_15  and  C_21
                            x       y       z     vdW  Elec       q    Type
                         _______ _______ _______ _____ _____    ______ ____

>  <TORSDO>
F 8

$$$$
=
 OpenBabel11052412523D

 25 26  0  0  1  0  0  0  0  0999 V2000
  189.1800  176.8870  145.1920 C   0  0  2  0  0  3  0  0  0  0  0  0
  188.1510  177.9860  144.8850 C   0  0  1  0  0  3  0  0  0  0  0  0
  187.8980  177.3870  148.4160 O   0  0  0  0  0  0  0  0  0  0  0  0
  188.1520  177.4380  147.1850 C   0  0  0  0  0  0  0  0  0  0  0  0
  186.1140  178.6330  146.3720 C   0  0  0  0  0  0  0  0  0  0  0  0
  185.6400  179.0370  147.4220 O   0  0  0  0  0  0  0  0  0  0  0  0
  187.0810  177.3850  143.9780 C   0  0  0  0  0  2  0  0  0  0  0  0
  189.0360  176.5800  146.5700 O   0  0  0  0  0  0  0  0  0  0  0  0
  185.1770  178.3320  145.2360 C   0  0  0  0  0  2  0  0  0  0  0  0
  185.8920  178.3180  143.8920 C   0  0  2  0  0  3  0  0  0  0  0  0
  187.6160  178.4630  146.2590 C   0  0  2  0  0  3  0  0  0  0  0  0
  190.6070  177.3420  144.8580 C   0  0  1  0  0  3  0  0  0  0  0  0
  191.3340  176.3940  143.8950 C   0  0  1  0  0  3  0  0  0  0  0  0
  192.0320  175.4010  144.5900 O   0  0  0  0  0  1  0  0  0  0  0  0
  190.3400  176.5020  141.6770 N   0  0  0  0  0  1  0  0  0  0  0  0
  190.3500  175.7610  142.9260 C   0  0  0  0  0  2  0  0  0  0  0  0
  191.6260  179.2380  143.8780 O   0  0  0  0  0  0  0  0  0  0  0  0
  190.6190  178.7630  144.3770 C   0  0  0  0  0  3  0  0  0  0  0  0
  184.9490  177.8310  142.8070 C   0  0  0  0  0  2  0  0  0  0  0  0
  184.3930  179.0070  142.0230 C   0  0  0  0  0  2  0  0  0  0  0  0
  185.0240  179.0630  140.6740 C   0  0  0  0  0  0  0  0  0  0  0  0
  186.2620  178.8580  140.5620 O   0  0  0  0  0  0  0  0  0  0  0  0
  184.2090  179.3260  139.4820 C   0  0  0  0  0  0  0  0  0  0  0  0
  184.2220  180.4660  138.9450 O   0  0  0  0  0  1  0  0  0  0  0  0
  183.4190  178.3210  138.9370 O   0  0  0  0  0  0  0  0  0  0  0  0
  1 12  1  1  0  0  0
  1  8  1  0  0  0  0
  2  7  1  6  0  0  0
  2  1  1  0  0  0  0
  2 11  1  0  0  0  0
  4  3  2  0  0  0  0
  5  6  2  0  0  0  0
  8  4  1  0  0  0  0
  9  5  1  0  0  0  0
 10 19  1  6  0  0  0
 10  7  1  0  0  0  0
 10  9  1  0  0  0  0
 11  5  1  6  0  0  0
 11  4  1  0  0  0  0
 12 18  1  6  0  0  0
 13 14  1  1  0  0  0
 13 12  1  0  0  0  0
 15 16  1  0  0  0  0
 16 13  1  0  0  0  0
 17 18  2  0  0  0  0
 20 19  1  0  0  0  0
 21 20  1  0  0  0  0
 22 21  2  0  0  0  0
 23 21  1  0  0  0  0
 24 23  1  0  0  0  0
 25 23  2  0  0  0  0
M  END
>  <MODEL>
5

>  <REMARK>
 VINA RESULT:      -7.8      2.723      4.901
  Name = 
  8 active torsions:
  status: ('A' for Active; 'I' for Inactive)
    1  A    between atoms: C_1  and  C_5
    2  A    between atoms: C_2  and  C_21
    3  A    between atoms: C_5  and  C_10
    4  A    between atoms: C_5  and  C_22
    5  A    between atoms: C_6  and  C_15
    6  A    between atoms: C_6  and  C_23
    7  A    between atoms: C_10  and  C_11
    8  A    between atoms: C_15  and  C_21
                            x       y       z     vdW  Elec       q    Type
                         _______ _______ _______ _____ _____    ______ ____

>  <TORSDO>
F 8

$$$$
=
 OpenBabel11052412523D

 25 26  0  0  1  0  0  0  0  0999 V2000
  188.3680  178.2780  141.6260 C   0  0  2  0  0  3  0  0  0  0  0  0
  187.8410  177.5180  142.8540 C   0  0  1  0  0  3  0  0  0  0  0  0
  185.0730  179.4740  141.6670 O   0  0  0  0  0  0  0  0  0  0  0  0
  186.1560  178.8780  141.9050 C   0  0  0  0  0  0  0  0  0  0  0  0
  185.7420  178.1510  144.2580 C   0  0  0  0  0  0  0  0  0  0  0  0
  184.5420  178.3480  144.3610 O   0  0  0  0  0  0  0  0  0  0  0  0
  188.6020  178.0210  144.0770 C   0  0  0  0  0  2  0  0  0  0  0  0
  187.3100  179.1180  141.1930 O   0  0  0  0  0  0  0  0  0  0  0  0
  186.5910  178.2640  145.4940 C   0  0  0  0  0  2  0  0  0  0  0  0
  187.9220  177.5410  145.3420 C   0  0  2  0  0  3  0  0  0  0  0  0
  186.3160  177.7950  142.9020 C   0  0  2  0  0  3  0  0  0  0  0  0
  188.8180  177.3150  140.5190 C   0  0  1  0  0  3  0  0  0  0  0  0
  188.4800  177.8140  139.1080 C   0  0  1  0  0  3  0  0  0  0  0  0
  189.1580  179.0010  138.8130 O   0  0  0  0  0  1  0  0  0  0  0  0
  187.5870  176.2040  137.5170 N   0  0  0  0  0  1  0  0  0  0  0  0
  188.8120  176.7520  138.0730 C   0  0  0  0  0  2  0  0  0  0  0  0
  190.9840  177.6020  141.4250 O   0  0  0  0  0  0  0  0  0  0  0  0
  190.2690  176.9660  140.6670 C   0  0  0  0  0  3  0  0  0  0  0  0
  188.8140  177.8370  146.5340 C   0  0  0  0  0  2  0  0  0  0  0  0
  189.5830  176.5920  146.9420 C   0  0  0  0  0  2  0  0  0  0  0  0
  191.0440  176.8110  146.7480 C   0  0  0  0  0  0  0  0  0  0  0  0
  191.7980  176.8750  147.7550 O   0  0  0  0  0  0  0  0  0  0  0  0
  191.6070  176.9240  145.3970 C   0  0  0  0  0  0  0  0  0  0  0  0
  191.7470  175.8960  144.6810 O   0  0  0  0  0  0  0  0  0  0  0  0
  191.9880  178.1630  144.8980 O   0  0  0  0  0  1  0  0  0  0  0  0
  1 12  1  6  0  0  0
  1  2  1  0  0  0  0
  2 11  1  0  0  0  0
  2  7  1  1  0  0  0
  3  4  2  0  0  0  0
  5  6  2  0  0  0  0
  5  9  1  0  0  0  0
  7 10  1  0  0  0  0
  8  1  1  0  0  0  0
  8  4  1  0  0  0  0
 10  9  1  0  0  0  0
 10 19  1  1  0  0  0
 11  4  1  6  0  0  0
 11  5  1  0  0  0  0
 12 18  1  6  0  0  0
 13 14  1  6  0  0  0
 13 12  1  0  0  0  0
 15 16  1  0  0  0  0
 16 13  1  0  0  0  0
 18 17  2  0  0  0  0
 19 20  1  0  0  0  0
 21 20  1  0  0  0  0
 21 22  2  0  0  0  0
 23 21  1  0  0  0  0
 24 23  2  0  0  0  0
 25 23  1  0  0  0  0
M  END
>  <MODEL>
6

>  <REMARK>
 VINA RESULT:      -7.7      1.738      5.072
  Name = 
  8 active torsions:
  status: ('A' for Active; 'I' for Inactive)
    1  A    between atoms: C_1  and  C_5
    2  A    between atoms: C_2  and  C_21
    3  A    between atoms: C_5  and  C_10
    4  A    between atoms: C_5  and  C_22
    5  A    between atoms: C_6  and  C_15
    6  A    between atoms: C_6  and  C_23
    7  A    between atoms: C_10  and  C_11
    8  A    between atoms: C_15  and  C_21
                            x       y       z     vdW  Elec       q    Type
                         _______ _______ _______ _____ _____    ______ ____

>  <TORSDO>
F 8

$$$$
=
 OpenBabel11052412523D

 25 26  0  0  1  0  0  0  0  0999 V2000
  189.7800  176.9020  144.3610 C   0  0  2  0  0  3  0  0  0  0  0  0
  188.9460  177.9460  145.1210 C   0  0  1  0  0  3  0  0  0  0  0  0
  190.9030  176.2670  147.6200 O   0  0  0  0  0  0  0  0  0  0  0  0
  190.3260  176.7180  146.5960 C   0  0  0  0  0  0  0  0  0  0  0  0
  188.4160  177.9170  147.6700 C   0  0  0  0  0  0  0  0  0  0  0  0
  188.7710  177.9340  148.8380 O   0  0  0  0  0  0  0  0  0  0  0  0
  187.4760  177.5600  144.9830 C   0  0  0  0  0  2  0  0  0  0  0  0
  190.5000  176.1740  145.3430 O   0  0  0  0  0  0  0  0  0  0  0  0
  186.9420  177.8980  147.3730 C   0  0  0  0  0  2  0  0  0  0  0  0
  186.6380  178.3630  145.9550 C   0  0  2  0  0  3  0  0  0  0  0  0
  189.4690  177.9260  146.5800 C   0  0  2  0  0  3  0  0  0  0  0  0
  190.7190  177.5650  143.3440 C   0  0  1  0  0  3  0  0  0  0  0  0
  190.2860  177.3460  141.8880 C   0  0  1  0  0  3  0  0  0  0  0  0
  190.4150  176.0040  141.5170 O   0  0  0  0  0  1  0  0  0  0  0  0
  188.6740  178.2700  140.3170 N   0  0  0  0  0  1  0  0  0  0  0  0
  188.8540  177.8100  141.6830 C   0  0  0  0  0  2  0  0  0  0  0  0
  191.9270  179.3830  144.2560 O   0  0  0  0  0  0  0  0  0  0  0  0
  190.9230  179.0150  143.6660 C   0  0  0  0  0  3  0  0  0  0  0  0
  185.1680  178.1520  145.6440 C   0  0  0  0  0  2  0  0  0  0  0  0
  184.6140  179.3400  144.8760 C   0  0  0  0  0  2  0  0  0  0  0  0
  183.8160  178.8650  143.7110 C   0  0  0  0  0  0  0  0  0  0  0  0
  182.5870  178.6290  143.8590 O   0  0  0  0  0  0  0  0  0  0  0  0
  184.4460  178.6980  142.3950 C   0  0  0  0  0  0  0  0  0  0  0  0
  183.9660  177.8840  141.5620 O   0  0  0  0  0  0  0  0  0  0  0  0
  185.5740  179.4360  142.0610 O   0  0  0  0  0  1  0  0  0  0  0  0
  1 12  1  6  0  0  0
  1  2  1  0  0  0  0
  1  8  1  0  0  0  0
  2  7  1  1  0  0  0
  2 11  1  0  0  0  0
  4  3  2  0  0  0  0
  5  6  2  0  0  0  0
  7 10  1  0  0  0  0
  8  4  1  0  0  0  0
  9  5  1  0  0  0  0
 10 19  1  6  0  0  0
 10  9  1  0  0  0  0
 11  4  1  6  0  0  0
 11  5  1  0  0  0  0
 12 18  1  1  0  0  0
 13 14  1  1  0  0  0
 13 12  1  0  0  0  0
 15 16  1  0  0  0  0
 16 13  1  0  0  0  0
 18 17  2  0  0  0  0
 20 19  1  0  0  0  0
 21 22  2  0  0  0  0
 21 20  1  0  0  0  0
 23 21  1  0  0  0  0
 24 23  2  0  0  0  0
 25 23  1  0  0  0  0
M  END
>  <MODEL>
7

>  <REMARK>
 VINA RESULT:      -7.6      1.826      2.988
  Name = 
  8 active torsions:
  status: ('A' for Active; 'I' for Inactive)
    1  A    between atoms: C_1  and  C_5
    2  A    between atoms: C_2  and  C_21
    3  A    between atoms: C_5  and  C_10
    4  A    between atoms: C_5  and  C_22
    5  A    between atoms: C_6  and  C_15
    6  A    between atoms: C_6  and  C_23
    7  A    between atoms: C_10  and  C_11
    8  A    between atoms: C_15  and  C_21
                            x       y       z     vdW  Elec       q    Type
                         _______ _______ _______ _____ _____    ______ ____

>  <TORSDO>
F 8

$$$$
=
 OpenBabel11052412523D

 25 26  0  0  1  0  0  0  0  0999 V2000
  187.1920  177.3070  143.1670 C   0  0  2  0  0  3  0  0  0  0  0  0
  186.1480  178.4340  143.2060 C   0  0  1  0  0  3  0  0  0  0  0  0
  186.3910  177.2250  146.5780 O   0  0  0  0  0  0  0  0  0  0  0  0
  186.4680  177.4930  145.3510 C   0  0  0  0  0  0  0  0  0  0  0  0
  184.3550  178.7930  145.0590 C   0  0  0  0  0  0  0  0  0  0  0  0
  184.0420  179.0040  146.2200 O   0  0  0  0  0  0  0  0  0  0  0  0
  184.9510  177.9910  142.3710 C   0  0  0  0  0  2  0  0  0  0  0  0
  187.2410  176.7630  144.4770 O   0  0  0  0  0  0  0  0  0  0  0  0
  183.2610  178.6870  144.0340 C   0  0  0  0  0  2  0  0  0  0  0  0
  183.7760  178.9140  142.6200 C   0  0  2  0  0  3  0  0  0  0  0  0
  185.8220  178.6590  144.7050 C   0  0  2  0  0  3  0  0  0  0  0  0
  188.5640  177.8260  142.7160 C   0  0  1  0  0  3  0  0  0  0  0  0
  189.7320  177.2090  143.4980 C   0  0  1  0  0  3  0  0  0  0  0  0
  190.2140  176.0580  142.8660 O   0  0  0  0  0  1  0  0  0  0  0  0
  191.6830  177.8540  144.8000 N   0  0  0  0  0  1  0  0  0  0  0  0
  190.8530  178.2210  143.6670 C   0  0  0  0  0  2  0  0  0  0  0  0
  188.2920  178.5310  140.4750 O   0  0  0  0  0  0  0  0  0  0  0  0
  188.7320  177.6820  141.2320 C   0  0  0  0  0  3  0  0  0  0  0  0
  182.6810  178.6160  141.6130 C   0  0  0  0  0  2  0  0  0  0  0  0
  183.1790  177.6350  140.5650 C   0  0  0  0  0  2  0  0  0  0  0  0
  183.2850  178.3150  139.2430 C   0  0  0  0  0  0  0  0  0  0  0  0
  182.4160  178.0890  138.3600 O   0  0  0  0  0  0  0  0  0  0  0  0
  184.3750  179.2620  138.9790 C   0  0  0  0  0  0  0  0  0  0  0  0
  184.1790  180.5020  139.0930 O   0  0  0  0  0  1  0  0  0  0  0  0
  185.6290  178.7990  138.6010 O   0  0  0  0  0  0  0  0  0  0  0  0
  1 12  1  1  0  0  0
  1  2  1  0  0  0  0
  1  8  1  0  0  0  0
  2  7  1  6  0  0  0
  2 11  1  0  0  0  0
  4  3  2  0  0  0  0
  5  6  2  0  0  0  0
  7 10  1  0  0  0  0
  8  4  1  0  0  0  0
  9  5  1  0  0  0  0
 10 19  1  6  0  0  0
 10  9  1  0  0  0  0
 11  5  1  6  0  0  0
 11  4  1  0  0  0  0
 12 18  1  6  0  0  0
 12 13  1  0  0  0  0
 13 14  1  6  0  0  0
 13 16  1  0  0  0  0
 16 15  1  0  0  0  0
 17 18  2  0  0  0  0
 20 19  1  0  0  0  0
 21 20  1  0  0  0  0
 22 21  2  0  0  0  0
 23 24  1  0  0  0  0
 23 21  1  0  0  0  0
 25 23  2  0  0  0  0
M  END
>  <MODEL>
8

>  <REMARK>
 VINA RESULT:      -7.2      3.337      5.929
  Name = 
  8 active torsions:
  status: ('A' for Active; 'I' for Inactive)
    1  A    between atoms: C_1  and  C_5
    2  A    between atoms: C_2  and  C_21
    3  A    between atoms: C_5  and  C_10
    4  A    between atoms: C_5  and  C_22
    5  A    between atoms: C_6  and  C_15
    6  A    between atoms: C_6  and  C_23
    7  A    between atoms: C_10  and  C_11
    8  A    between atoms: C_15  and  C_21
                            x       y       z     vdW  Elec       q    Type
                         _______ _______ _______ _____ _____    ______ ____

>  <TORSDO>
F 8

$$$$
=
 OpenBabel11052412523D

 25 26  0  0  1  0  0  0  0  0999 V2000
  187.5220  177.1700  143.3730 C   0  0  2  0  0  3  0  0  0  0  0  0
  186.5700  178.3600  143.5750 C   0  0  1  0  0  3  0  0  0  0  0  0
  187.4680  177.2700  146.8760 O   0  0  0  0  0  0  0  0  0  0  0  0
  187.2930  177.4840  145.6490 C   0  0  0  0  0  0  0  0  0  0  0  0
  185.2380  178.9000  145.7460 C   0  0  0  0  0  0  0  0  0  0  0  0
  185.1930  179.1740  146.9350 O   0  0  0  0  0  0  0  0  0  0  0  0
  185.2000  177.9610  143.0360 C   0  0  0  0  0  2  0  0  0  0  0  0
  187.8220  176.6750  144.6680 O   0  0  0  0  0  0  0  0  0  0  0  0
  183.9450  178.8230  144.9830 C   0  0  0  0  0  2  0  0  0  0  0  0
  184.1560  178.9630  143.4820 C   0  0  2  0  0  3  0  0  0  0  0  0
  186.5860  178.6620  145.0960 C   0  0  2  0  0  3  0  0  0  0  0  0
  188.7900  177.5860  142.6150 C   0  0  1  0  0  3  0  0  0  0  0  0
  190.0470  176.8420  143.0850 C   0  0  1  0  0  3  0  0  0  0  0  0
  190.3580  175.7820  142.2270 O   0  0  0  0  0  1  0  0  0  0  0  0
  190.8190  179.0100  143.8720 N   0  0  0  0  0  1  0  0  0  0  0  0
  191.2250  177.7970  143.1850 C   0  0  0  0  0  2  0  0  0  0  0  0
  188.6660  178.4790  140.4280 O   0  0  0  0  0  0  0  0  0  0  0  0
  188.5880  177.4850  141.1320 C   0  0  0  0  0  3  0  0  0  0  0  0
  182.8560  178.6950  142.7470 C   0  0  0  0  0  2  0  0  0  0  0  0
  181.6700  179.0940  143.6070 C   0  0  0  0  0  2  0  0  0  0  0  0
  180.5230  179.4850  142.7400 C   0  0  0  0  0  0  0  0  0  0  0  0
  180.0590  180.6540  142.8180 O   0  0  0  0  0  0  0  0  0  0  0  0
  179.9530  178.5290  141.7820 C   0  0  0  0  0  0  0  0  0  0  0  0
  179.2480  177.5680  142.1900 O   0  0  0  0  0  1  0  0  0  0  0  0
  180.1880  178.6770  140.4210 O   0  0  0  0  0  0  0  0  0  0  0  0
  1 12  1  1  0  0  0
  1  2  1  0  0  0  0
  1  8  1  0  0  0  0
  2  7  1  1  0  0  0
  2 11  1  0  0  0  0
  4  3  2  0  0  0  0
  5  6  2  0  0  0  0
  7 10  1  0  0  0  0
  8  4  1  0  0  0  0
  9  5  1  0  0  0  0
 10 19  1  6  0  0  0
 10  9  1  0  0  0  0
 11  4  1  1  0  0  0
 11  5  1  0  0  0  0
 12 18  1  6  0  0  0
 12 13  1  0  0  0  0
 13 14  1  6  0  0  0
 13 16  1  0  0  0  0
 16 15  1  0  0  0  0
 17 18  2  0  0  0  0
 19 20  1  0  0  0  0
 21 22  2  0  0  0  0
 21 20  1  0  0  0  0
 23 24  1  0  0  0  0
 23 21  1  0  0  0  0
 25 23  2  0  0  0  0
M  END
>  <MODEL>
9

>  <REMARK>
 VINA RESULT:      -7.2      3.139      5.220
  Name = 
  8 active torsions:
  status: ('A' for Active; 'I' for Inactive)
    1  A    between atoms: C_1  and  C_5
    2  A    between atoms: C_2  and  C_21
    3  A    between atoms: C_5  and  C_10
    4  A    between atoms: C_5  and  C_22
    5  A    between atoms: C_6  and  C_15
    6  A    between atoms: C_6  and  C_23
    7  A    between atoms: C_10  and  C_11
    8  A    between atoms: C_15  and  C_21
                            x       y       z     vdW  Elec       q    Type
                         _______ _______ _______ _____ _____    ______ ____

>  <TORSDO>
F 8

$$$$
