=
 OpenBabel11052416513D

 32 38  0  0  1  0  0  0  0  0999 V2000
  189.0550  177.4780  141.4500 C   0  0  1  0  0  3  0  0  0  0  0  0
  191.5730  176.0400  144.8850 C   0  0  0  0  0  2  0  0  0  0  0  0
  191.6110  177.4090  145.5600 C   0  0  0  0  0  2  0  0  0  0  0  0
  186.7580  178.1460  142.2470 C   0  0  0  0  0  0  0  0  0  0  0  0
  186.3210  178.4180  140.9620 C   0  0  0  0  0  0  0  0  0  0  0  0
  184.6590  178.8870  143.1960 C   0  0  0  0  0  0  0  0  0  0  0  0
  190.8430  176.6330  142.7310 O   0  0  0  0  0  0  0  0  0  0  0  0
  189.9150  176.2660  141.7570 C   0  0  0  0  0  2  0  0  0  0  0  0
  190.3960  176.0660  143.9330 C   0  0  2  0  0  3  0  0  0  0  0  0
  188.2140  177.4880  143.9250 C   0  0  0  0  0  0  0  0  0  0  0  0
  184.2040  179.1800  141.8970 C   0  0  0  0  0  3  0  0  0  0  0  0
  185.0350  178.9490  140.7800 C   0  0  0  0  0  3  0  0  0  0  0  0
  190.2740  178.0800  145.2780 C   0  0  0  0  0  2  0  0  0  0  0  0
  189.4300  176.9920  144.6610 C   0  0  2  0  0  3  0  0  0  0  0  0
  186.7940  177.9540  144.7290 S   0  0  0  0  0  0  0  0  0  0  0  0
  188.4420  177.3910  140.0160 C   0  0  1  0  0  3  0  0  0  0  0  0
  187.1970  178.1650  139.8660 N   0  0  0  0  0  2  0  0  0  0  0  0
  183.8470  179.1140  144.3000 O   0  0  0  0  0  1  0  0  0  0  0  0
  188.0260  177.6580  142.5400 C   0  0  0  0  0  0  0  0  0  0  0  0
  185.9470  178.3690  143.3400 C   0  0  0  0  0  0  0  0  0  0  0  0
  190.6410  175.8290  138.1580 C   0  0  0  0  0  2  0  0  0  0  0  0
  189.4290  177.7160  138.8470 C   0  0  1  0  0  0  0  0  0  0  0  0
  189.1070  179.0550  138.2020 C   0  0  0  0  0  1  0  0  0  0  0  0
  191.6310  176.6910  138.9020 C   0  0  0  0  0  2  0  0  0  0  0  0
  190.8220  177.8480  139.4440 C   0  0  0  0  0  2  0  0  0  0  0  0
  189.5290  176.6880  137.7860 N   0  0  0  0  0  0  0  0  0  0  0  0
  188.3430  175.8500  137.6170 C   0  0  0  0  0  2  0  0  0  0  0  0
  186.5240  177.0970  136.4680 C   0  0  0  0  0  2  0  0  0  0  0  0
  188.6190  176.7920  135.3920 N   0  0  0  0  0  2  0  0  0  0  0  0
  186.7620  178.1400  135.4110 C   0  0  0  0  0  2  0  0  0  0  0  0
  187.6740  176.1430  136.2850 C   0  0  1  0  0  3  0  0  0  0  0  0
  187.8740  177.6770  134.5950 N   0  0  0  0  0  2  0  0  0  0  0  0
  1  8  1  1  0  0  0
  1 19  1  0  0  0  0
  2  3  1  0  0  0  0
  4 19  1  0  0  0  0
  4 20  1  0  0  0  0
  5  4  2  0  0  0  0
  6 20  2  0  0  0  0
  6 18  1  0  0  0  0
  7  9  1  0  0  0  0
  8  7  1  0  0  0  0
  9 14  1  0  0  0  0
  9  2  1  1  0  0  0
 10 14  1  0  0  0  0
 10 15  1  0  0  0  0
 11  6  1  0  0  0  0
 12  5  1  0  0  0  0
 12 11  2  0  0  0  0
 13  3  1  0  0  0  0
 14 13  1  6  0  0  0
 16 17  1  1  0  0  0
 16  1  1  0  0  0  0
 17  5  1  0  0  0  0
 19 10  2  0  0  0  0
 20 15  1  0  0  0  0
 21 24  1  0  0  0  0
 22 23  1  6  0  0  0
 22 25  1  0  0  0  0
 22 16  1  0  0  0  0
 24 25  1  0  0  0  0
 26 21  1  0  0  0  0
 26 22  1  0  0  0  0
 27 26  1  0  0  0  0
 29 31  1  0  0  0  0
 30 28  1  0  0  0  0
 31 28  1  0  0  0  0
 31 27  1  1  0  0  0
 32 29  1  0  0  0  0
 32 30  1  0  0  0  0
M  END
>  <MODEL>
1

>  <REMARK>
 VINA RESULT:      -8.0      0.000      0.000
  Name = 
  3 active torsions:
  status: ('A' for Active; 'I' for Inactive)
    1  A    between atoms: C_8  and  C_28
    2  A    between atoms: C_19  and  C_24
    3  A    between atoms: N_23  and  C_24
                            x       y       z     vdW  Elec       q    Type
                         _______ _______ _______ _____ _____    ______ ____

>  <TORSDO>
F 3

$$$$
=
 OpenBabel11052416513D

 32 38  0  0  1  0  0  0  0  0999 V2000
  187.7050  177.7780  140.8720 C   0  0  1  0  0  3  0  0  0  0  0  0
  187.2780  178.2940  136.4270 C   0  0  0  0  0  2  0  0  0  0  0  0
  186.2340  177.1860  136.2990 C   0  0  0  0  0  2  0  0  0  0  0  0
  185.5720  178.4180  142.0540 C   0  0  0  0  0  0  0  0  0  0  0  0
  186.1260  178.2120  143.3040 C   0  0  0  0  0  0  0  0  0  0  0  0
  183.4090  178.9210  143.0150 C   0  0  0  0  0  0  0  0  0  0  0  0
  188.1520  177.8290  138.5590 O   0  0  0  0  0  0  0  0  0  0  0  0
  188.4830  178.4550  139.7600 C   0  0  0  0  0  2  0  0  0  0  0  0
  187.2880  178.7030  137.8860 C   0  0  2  0  0  3  0  0  0  0  0  0
  185.4700  178.5230  139.7400 C   0  0  0  0  0  0  0  0  0  0  0  0
  183.9540  178.7030  144.2940 C   0  0  0  0  0  3  0  0  0  0  0  0
  185.3120  178.3460  144.4400 C   0  0  0  0  0  3  0  0  0  0  0  0
  185.4040  177.2100  137.5740 C   0  0  0  0  0  2  0  0  0  0  0  0
  185.8360  178.4700  138.2820 C   0  0  2  0  0  3  0  0  0  0  0  0
  183.9070  178.9170  140.2710 S   0  0  0  0  0  0  0  0  0  0  0  0
  188.4210  177.9460  142.2510 C   0  0  1  0  0  3  0  0  0  0  0  0
  187.5030  177.8540  143.4000 N   0  0  0  0  0  2  0  0  0  0  0  0
  182.0730  179.2710  142.8640 O   0  0  0  0  0  1  0  0  0  0  0  0
  186.2790  178.2710  140.8660 C   0  0  0  0  0  0  0  0  0  0  0  0
  184.2460  178.7690  141.9090 C   0  0  0  0  0  0  0  0  0  0  0  0
  191.6870  178.1870  142.2200 C   0  0  0  0  0  2  0  0  0  0  0  0
  189.6650  177.0250  142.4730 C   0  0  1  0  0  0  0  0  0  0  0  0
  189.2780  175.7190  143.1510 C   0  0  0  0  0  1  0  0  0  0  0  0
  191.5710  177.3130  140.9950 C   0  0  0  0  0  2  0  0  0  0  0  0
  190.2150  176.6540  141.1040 C   0  0  0  0  0  2  0  0  0  0  0  0
  190.7900  177.6330  143.2200 N   0  0  0  0  0  0  0  0  0  0  0  0
  190.4180  178.7060  144.1420 C   0  0  0  0  0  2  0  0  0  0  0  0
  189.5180  177.8130  146.2810 C   0  0  0  0  0  2  0  0  0  0  0  0
  191.7060  177.2200  145.5720 N   0  0  0  0  0  2  0  0  0  0  0  0
  189.9740  176.5250  146.9090 C   0  0  0  0  0  2  0  0  0  0  0  0
  190.7480  178.3130  145.5710 C   0  0  1  0  0  3  0  0  0  0  0  0
  191.4110  176.4300  146.6960 N   0  0  0  0  0  2  0  0  0  0  0  0
  1  8  1  6  0  0  0
  1 16  1  0  0  0  0
  3  2  1  0  0  0  0
  3 13  1  0  0  0  0
  4  5  1  0  0  0  0
  5 17  1  0  0  0  0
  5 12  2  0  0  0  0
  6 11  2  0  0  0  0
  7  8  1  0  0  0  0
  9  2  1  6  0  0  0
  9 14  1  0  0  0  0
  9  7  1  0  0  0  0
 10 15  1  0  0  0  0
 10 19  2  0  0  0  0
 11 12  1  0  0  0  0
 14 13  1  1  0  0  0
 14 10  1  0  0  0  0
 15 20  1  0  0  0  0
 16 22  1  0  0  0  0
 16 17  1  1  0  0  0
 18  6  1  0  0  0  0
 19  1  1  0  0  0  0
 19  4  1  0  0  0  0
 20  4  2  0  0  0  0
 20  6  1  0  0  0  0
 21 26  1  0  0  0  0
 22 23  1  1  0  0  0
 22 26  1  0  0  0  0
 24 25  1  0  0  0  0
 24 21  1  0  0  0  0
 25 22  1  0  0  0  0
 26 27  1  0  0  0  0
 28 30  1  0  0  0  0
 29 32  1  0  0  0  0
 31 27  1  6  0  0  0
 31 29  1  0  0  0  0
 31 28  1  0  0  0  0
 32 30  1  0  0  0  0
M  END
>  <MODEL>
2

>  <REMARK>
 VINA RESULT:      -8.0      3.111      6.505
  Name = 
  3 active torsions:
  status: ('A' for Active; 'I' for Inactive)
    1  A    between atoms: C_8  and  C_28
    2  A    between atoms: C_19  and  C_24
    3  A    between atoms: N_23  and  C_24
                            x       y       z     vdW  Elec       q    Type
                         _______ _______ _______ _____ _____    ______ ____

>  <TORSDO>
F 3

$$$$
=
 OpenBabel11052416513D

 32 38  0  0  1  0  0  0  0  0999 V2000
  188.2210  177.7360  140.7060 C   0  0  1  0  0  3  0  0  0  0  0  0
  189.1110  178.1350  136.3180 C   0  0  0  0  0  2  0  0  0  0  0  0
  188.1620  177.0050  135.9220 C   0  0  0  0  0  2  0  0  0  0  0  0
  185.8280  178.3660  141.1910 C   0  0  0  0  0  0  0  0  0  0  0  0
  185.9940  178.2010  142.5550 C   0  0  0  0  0  0  0  0  0  0  0  0
  183.4730  178.8520  141.4620 C   0  0  0  0  0  0  0  0  0  0  0  0
  189.3260  177.7380  138.6250 O   0  0  0  0  0  0  0  0  0  0  0  0
  189.2840  178.4010  139.8510 C   0  0  0  0  0  2  0  0  0  0  0  0
  188.6890  178.5800  137.7020 C   0  0  2  0  0  3  0  0  0  0  0  0
  186.4080  178.4120  138.9480 C   0  0  0  0  0  0  0  0  0  0  0  0
  183.6210  178.6760  142.8500 C   0  0  0  0  0  3  0  0  0  0  0  0
  184.8800  178.3480  143.3980 C   0  0  0  0  0  3  0  0  0  0  0  0
  186.9940  177.0450  136.8960 C   0  0  0  0  0  2  0  0  0  0  0  0
  187.1870  178.3300  137.6630 C   0  0  2  0  0  3  0  0  0  0  0  0
  184.7540  178.7900  138.9860 S   0  0  0  0  0  0  0  0  0  0  0  0
  188.4990  177.9520  142.2280 C   0  0  1  0  0  3  0  0  0  0  0  0
  187.2860  177.8710  143.0600 N   0  0  0  0  0  2  0  0  0  0  0  0
  182.2370  179.1730  140.9160 O   0  0  0  0  0  1  0  0  0  0  0  0
  186.8540  178.2030  140.2670 C   0  0  0  0  0  0  0  0  0  0  0  0
  184.6000  178.6890  140.6540 C   0  0  0  0  0  0  0  0  0  0  0  0
  191.3520  178.3360  143.7910 C   0  0  0  0  0  2  0  0  0  0  0  0
  189.6330  177.0590  142.8320 C   0  0  1  0  0  0  0  0  0  0  0  0
  189.1830  175.6140  142.9830 C   0  0  0  0  0  1  0  0  0  0  0  0
  191.9320  177.7760  142.5150 C   0  0  0  0  0  2  0  0  0  0  0  0
  190.7890  177.0510  141.8430 C   0  0  0  0  0  2  0  0  0  0  0  0
  190.1950  177.5210  144.1210 N   0  0  0  0  0  0  0  0  0  0  0  0
  189.2910  178.3250  144.9430 C   0  0  0  0  0  2  0  0  0  0  0  0
  189.7110  177.6650  147.3040 C   0  0  0  0  0  2  0  0  0  0  0  0
  187.4870  178.0090  146.5430 N   0  0  0  0  0  2  0  0  0  0  0  0
  188.7790  177.9820  148.4400 C   0  0  0  0  0  2  0  0  0  0  0  0
  188.7880  177.5130  146.1250 C   0  0  1  0  0  3  0  0  0  0  0  0
  187.4220  177.8340  147.9360 N   0  0  0  0  0  2  0  0  0  0  0  0
  1  8  1  6  0  0  0
  1 16  1  0  0  0  0
  3  2  1  0  0  0  0
  3 13  1  0  0  0  0
  4  5  1  0  0  0  0
  5 17  1  0  0  0  0
  5 12  2  0  0  0  0
  6 11  2  0  0  0  0
  7  8  1  0  0  0  0
  9  2  1  6  0  0  0
  9  7  1  0  0  0  0
 10 15  1  0  0  0  0
 10 19  2  0  0  0  0
 11 12  1  0  0  0  0
 14 13  1  1  0  0  0
 14  9  1  0  0  0  0
 14 10  1  0  0  0  0
 15 20  1  0  0  0  0
 16 22  1  0  0  0  0
 16 17  1  1  0  0  0
 18  6  1  0  0  0  0
 19  1  1  0  0  0  0
 19  4  1  0  0  0  0
 20  4  2  0  0  0  0
 20  6  1  0  0  0  0
 21 26  1  0  0  0  0
 22 23  1  1  0  0  0
 22 26  1  0  0  0  0
 24 21  1  0  0  0  0
 25 24  1  0  0  0  0
 25 22  1  0  0  0  0
 26 27  1  0  0  0  0
 28 30  1  0  0  0  0
 29 32  1  0  0  0  0
 31 27  1  6  0  0  0
 31 29  1  0  0  0  0
 31 28  1  0  0  0  0
 32 30  1  0  0  0  0
M  END
>  <MODEL>
3

>  <REMARK>
 VINA RESULT:      -7.8      3.115      6.742
  Name = 
  3 active torsions:
  status: ('A' for Active; 'I' for Inactive)
    1  A    between atoms: C_8  and  C_28
    2  A    between atoms: C_19  and  C_24
    3  A    between atoms: N_23  and  C_24
                            x       y       z     vdW  Elec       q    Type
                         _______ _______ _______ _____ _____    ______ ____

>  <TORSDO>
F 3

$$$$
=
 OpenBabel11052416513D

 32 38  0  0  1  0  0  0  0  0999 V2000
  189.5010  177.1270  140.4400 C   0  0  1  0  0  3  0  0  0  0  0  0
  191.5410  175.8140  136.6560 C   0  0  0  0  0  2  0  0  0  0  0  0
  190.5420  174.6900  136.3890 C   0  0  0  0  0  2  0  0  0  0  0  0
  187.2130  178.0630  139.9410 C   0  0  0  0  0  0  0  0  0  0  0  0
  186.9920  178.4010  141.2640 C   0  0  0  0  0  0  0  0  0  0  0  0
  184.9920  178.7850  139.3090 C   0  0  0  0  0  0  0  0  0  0  0  0
  191.0840  176.2820  138.9130 O   0  0  0  0  0  0  0  0  0  0  0  0
  190.8470  177.3500  139.7770 C   0  0  0  0  0  2  0  0  0  0  0  0
  190.8630  176.7680  137.6170 C   0  0  2  0  0  3  0  0  0  0  0  0
  188.3480  177.2370  138.0970 C   0  0  0  0  0  0  0  0  0  0  0  0
  184.7460  179.1230  140.6530 C   0  0  0  0  0  3  0  0  0  0  0  0
  185.7440  178.9290  141.6320 C   0  0  0  0  0  3  0  0  0  0  0  0
  189.1890  175.1710  136.8930 C   0  0  0  0  0  2  0  0  0  0  0  0
  189.4020  176.6300  137.2110 C   0  0  2  0  0  3  0  0  0  0  0  0
  186.8320  177.7210  137.5050 S   0  0  0  0  0  0  0  0  0  0  0  0
  189.4130  177.8680  141.8130 C   0  0  1  0  0  3  0  0  0  0  0  0
  188.0330  178.1880  142.2160 N   0  0  0  0  0  2  0  0  0  0  0  0
  184.0130  178.9710  138.3410 O   0  0  0  0  0  1  0  0  0  0  0  0
  188.3960  177.4970  139.4800 C   0  0  0  0  0  0  0  0  0  0  0  0
  186.2400  178.2540  138.9820 C   0  0  0  0  0  0  0  0  0  0  0  0
  190.5310  178.6420  144.7920 C   0  0  0  0  0  2  0  0  0  0  0  0
  190.1780  177.1810  142.9910 C   0  0  1  0  0  0  0  0  0  0  0  0
  190.1820  175.6670  142.8460 C   0  0  0  0  0  1  0  0  0  0  0  0
  191.8830  178.4720  144.1440 C   0  0  0  0  0  2  0  0  0  0  0  0
  191.6320  177.6250  142.9170 C   0  0  0  0  0  2  0  0  0  0  0  0
  189.7080  177.5290  144.3520 N   0  0  0  0  0  0  0  0  0  0  0  0
  188.3060  177.9340  144.4410 C   0  0  0  0  0  2  0  0  0  0  0  0
  188.7440  177.1270  146.7520 C   0  0  0  0  0  2  0  0  0  0  0  0
  186.7960  178.4040  146.2880 N   0  0  0  0  0  2  0  0  0  0  0  0
  188.2140  177.7990  147.9890 C   0  0  0  0  0  2  0  0  0  0  0  0
  187.6830  177.4030  145.7210 C   0  0  1  0  0  3  0  0  0  0  0  0
  186.8660  178.2560  147.6840 N   0  0  0  0  0  2  0  0  0  0  0  0
  1  8  1  6  0  0  0
  1 16  1  0  0  0  0
  3  2  1  0  0  0  0
  3 13  1  0  0  0  0
  4  5  1  0  0  0  0
  5 12  2  0  0  0  0
  5 17  1  0  0  0  0
  6 11  2  0  0  0  0
  7  8  1  0  0  0  0
  9  2  1  6  0  0  0
  9  7  1  0  0  0  0
 10 19  2  0  0  0  0
 11 12  1  0  0  0  0
 14 13  1  1  0  0  0
 14  9  1  0  0  0  0
 14 10  1  0  0  0  0
 15 10  1  0  0  0  0
 15 20  1  0  0  0  0
 16 17  1  1  0  0  0
 16 22  1  0  0  0  0
 18  6  1  0  0  0  0
 19  4  1  0  0  0  0
 19  1  1  0  0  0  0
 20  6  1  0  0  0  0
 20  4  2  0  0  0  0
 22 23  1  6  0  0  0
 22 26  1  0  0  0  0
 24 21  1  0  0  0  0
 25 22  1  0  0  0  0
 25 24  1  0  0  0  0
 26 27  1  0  0  0  0
 26 21  1  0  0  0  0
 28 30  1  0  0  0  0
 29 32  1  0  0  0  0
 31 27  1  6  0  0  0
 31 29  1  0  0  0  0
 31 28  1  0  0  0  0
 32 30  1  0  0  0  0
M  END
>  <MODEL>
4

>  <REMARK>
 VINA RESULT:      -7.2      3.063      6.721
  Name = 
  3 active torsions:
  status: ('A' for Active; 'I' for Inactive)
    1  A    between atoms: C_8  and  C_28
    2  A    between atoms: C_19  and  C_24
    3  A    between atoms: N_23  and  C_24
                            x       y       z     vdW  Elec       q    Type
                         _______ _______ _______ _____ _____    ______ ____

>  <TORSDO>
F 3

$$$$
=
 OpenBabel11052416513D

 32 38  0  0  1  0  0  0  0  0999 V2000
  183.3060  178.6090  142.5460 C   0  0  1  0  0  3  0  0  0  0  0  0
  185.4200  178.9470  146.4990 C   0  0  0  0  0  2  0  0  0  0  0  0
  186.0430  177.5560  146.3960 C   0  0  0  0  0  2  0  0  0  0  0  0
  184.9670  178.5100  140.6520 C   0  0  0  0  0  0  0  0  0  0  0  0
  183.9700  178.5010  139.6920 C   0  0  0  0  0  0  0  0  0  0  0  0
  186.6900  178.2720  138.9690 C   0  0  0  0  0  0  0  0  0  0  0  0
  183.7490  178.8000  144.8520 O   0  0  0  0  0  0  0  0  0  0  0  0
  183.2240  179.5030  143.7690 C   0  0  0  0  0  2  0  0  0  0  0  0
  185.0210  179.3390  145.0910 C   0  0  2  0  0  3  0  0  0  0  0  0
  185.9100  178.5710  142.7680 C   0  0  0  0  0  0  0  0  0  0  0  0
  185.6870  178.2490  137.9810 C   0  0  0  0  0  3  0  0  0  0  0  0
  184.3270  178.3600  138.3420 C   0  0  0  0  0  3  0  0  0  0  0  0
  186.3310  177.3060  144.9230 C   0  0  0  0  0  2  0  0  0  0  0  0
  186.0890  178.6390  144.2600 C   0  0  2  0  0  3  0  0  0  0  0  0
  187.2230  178.4270  141.7010 S   0  0  0  0  0  0  0  0  0  0  0  0
  182.2380  179.0070  141.4780 C   0  0  1  0  0  3  0  0  0  0  0  0
  182.6110  178.6190  140.1060 N   0  0  0  0  0  2  0  0  0  0  0  0
  188.0300  178.1600  138.6210 O   0  0  0  0  0  1  0  0  0  0  0  0
  184.7200  178.6030  142.0160 C   0  0  0  0  0  0  0  0  0  0  0  0
  186.2970  178.4030  140.3020 C   0  0  0  0  0  0  0  0  0  0  0  0
  179.6050  180.1330  143.0680 C   0  0  0  0  0  2  0  0  0  0  0  0
  180.7760  178.5490  141.7940 C   0  0  1  0  0  0  0  0  0  0  0  0
  180.3520  177.3880  140.9080 C   0  0  0  0  0  1  0  0  0  0  0  0
  179.9000  178.9960  144.0150 C   0  0  0  0  0  2  0  0  0  0  0  0
  180.7540  178.0310  143.2240 C   0  0  0  0  0  2  0  0  0  0  0  0
  179.7420  179.6060  141.7210 N   0  0  0  0  0  0  0  0  0  0  0  0
  180.0510  180.7200  140.8250 C   0  0  0  0  0  2  0  0  0  0  0  0
  178.9310  182.1770  139.1510 C   0  0  0  0  0  2  0  0  0  0  0  0
  179.5140  179.9460  138.5830 N   0  0  0  0  0  2  0  0  0  0  0  0
  179.0640  182.0010  137.6640 C   0  0  0  0  0  2  0  0  0  0  0  0
  179.0510  180.7750  139.6840 C   0  0  1  0  0  3  0  0  0  0  0  0
  179.0770  180.5690  137.4020 N   0  0  0  0  0  2  0  0  0  0  0  0
  1  8  1  1  0  0  0
  3  2  1  0  0  0  0
  4 19  1  0  0  0  0
  5 17  1  0  0  0  0
  5  4  2  0  0  0  0
  6 20  2  0  0  0  0
  7  9  1  0  0  0  0
  8  7  1  0  0  0  0
  9  2  1  1  0  0  0
 10 14  1  0  0  0  0
 11 12  2  0  0  0  0
 11  6  1  0  0  0  0
 12  5  1  0  0  0  0
 13  3  1  0  0  0  0
 14 13  1  1  0  0  0
 14  9  1  0  0  0  0
 15 10  1  0  0  0  0
 16 17  1  6  0  0  0
 16 22  1  0  0  0  0
 16  1  1  0  0  0  0
 18  6  1  0  0  0  0
 19  1  1  0  0  0  0
 19 10  2  0  0  0  0
 20  4  1  0  0  0  0
 20 15  1  0  0  0  0
 21 24  1  0  0  0  0
 22 23  1  6  0  0  0
 22 25  1  0  0  0  0
 25 24  1  0  0  0  0
 26 22  1  0  0  0  0
 26 21  1  0  0  0  0
 27 26  1  0  0  0  0
 28 31  1  0  0  0  0
 29 31  1  0  0  0  0
 30 28  1  0  0  0  0
 31 27  1  1  0  0  0
 32 30  1  0  0  0  0
 32 29  1  0  0  0  0
M  END
>  <MODEL>
5

>  <REMARK>
 VINA RESULT:      -7.2      4.192      7.578
  Name = 
  3 active torsions:
  status: ('A' for Active; 'I' for Inactive)
    1  A    between atoms: C_8  and  C_28
    2  A    between atoms: C_19  and  C_24
    3  A    between atoms: N_23  and  C_24
                            x       y       z     vdW  Elec       q    Type
                         _______ _______ _______ _____ _____    ______ ____

>  <TORSDO>
F 3

$$$$
=
 OpenBabel11052416513D

 32 38  0  0  1  0  0  0  0  0999 V2000
  188.3380  177.6670  141.1310 C   0  0  1  0  0  3  0  0  0  0  0  0
  191.5940  176.3180  143.9210 C   0  0  0  0  0  2  0  0  0  0  0  0
  191.6800  177.6680  144.6310 C   0  0  0  0  0  2  0  0  0  0  0  0
  186.2150  178.1460  142.4030 C   0  0  0  0  0  0  0  0  0  0  0  0
  185.5070  178.4210  141.2460 C   0  0  0  0  0  0  0  0  0  0  0  0
  184.3110  178.7080  143.7880 C   0  0  0  0  0  0  0  0  0  0  0  0
  190.4010  176.9170  141.9860 O   0  0  0  0  0  0  0  0  0  0  0  0
  189.3190  176.5120  141.2070 C   0  0  0  0  0  2  0  0  0  0  0  0
  190.2470  176.2870  143.2290 C   0  0  2  0  0  3  0  0  0  0  0  0
  188.0230  177.5480  143.7230 C   0  0  0  0  0  0  0  0  0  0  0  0
  183.5810  179.0040  142.6220 C   0  0  0  0  0  3  0  0  0  0  0  0
  184.1790  178.8640  141.3500 C   0  0  0  0  0  3  0  0  0  0  0  0
  190.2740  178.2490  144.6540 C   0  0  0  0  0  2  0  0  0  0  0  0
  189.3930  177.1210  144.1760 C   0  0  2  0  0  3  0  0  0  0  0  0
  186.7700  177.8890  144.8160 S   0  0  0  0  0  0  0  0  0  0  0  0
  187.4500  177.5760  139.8480 C   0  0  1  0  0  3  0  0  0  0  0  0
  186.1540  178.2620  139.9860 N   0  0  0  0  0  2  0  0  0  0  0  0
  183.7300  178.8470  145.0420 O   0  0  0  0  0  1  0  0  0  0  0  0
  187.5450  177.7420  142.4130 C   0  0  0  0  0  0  0  0  0  0  0  0
  185.6320  178.2800  143.6460 C   0  0  0  0  0  0  0  0  0  0  0  0
  189.8150  176.4810  137.8640 C   0  0  0  0  0  2  0  0  0  0  0  0
  188.1540  178.0030  138.5180 C   0  0  1  0  0  0  0  0  0  0  0  0
  187.3600  179.0750  137.7880 C   0  0  0  0  0  1  0  0  0  0  0  0
  190.5580  177.6990  138.3570 C   0  0  0  0  0  2  0  0  0  0  0  0
  189.4910  178.6290  138.8850 C   0  0  0  0  0  2  0  0  0  0  0  0
  188.4570  176.9060  137.5710 N   0  0  0  0  0  0  0  0  0  0  0  0
  187.5830  175.7380  137.6700 C   0  0  0  0  0  2  0  0  0  0  0  0
  185.3020  176.1770  136.7830 C   0  0  0  0  0  2  0  0  0  0  0  0
  187.2000  176.4880  135.3890 N   0  0  0  0  0  2  0  0  0  0  0  0
  185.0110  177.1260  135.6540 C   0  0  0  0  0  2  0  0  0  0  0  0
  186.6750  175.6520  136.4560 C   0  0  1  0  0  3  0  0  0  0  0  0
  186.0890  176.9850  134.6860 N   0  0  0  0  0  2  0  0  0  0  0  0
  1  8  1  1  0  0  0
  1 19  1  0  0  0  0
  2  3  1  0  0  0  0
  3 13  1  0  0  0  0
  4 19  1  0  0  0  0
  4 20  1  0  0  0  0
  5 12  1  0  0  0  0
  5  4  2  0  0  0  0
  6 18  1  0  0  0  0
  7  9  1  0  0  0  0
  8  7  1  0  0  0  0
  9  2  1  1  0  0  0
  9 14  1  0  0  0  0
 10 14  1  0  0  0  0
 10 15  1  0  0  0  0
 11  6  1  0  0  0  0
 12 11  2  0  0  0  0
 14 13  1  6  0  0  0
 16 17  1  1  0  0  0
 16  1  1  0  0  0  0
 17  5  1  0  0  0  0
 19 10  2  0  0  0  0
 20  6  2  0  0  0  0
 20 15  1  0  0  0  0
 21 24  1  0  0  0  0
 22 23  1  6  0  0  0
 22 25  1  0  0  0  0
 22 16  1  0  0  0  0
 24 25  1  0  0  0  0
 26 27  1  0  0  0  0
 26 21  1  0  0  0  0
 26 22  1  0  0  0  0
 29 31  1  0  0  0  0
 30 28  1  0  0  0  0
 31 28  1  0  0  0  0
 31 27  1  1  0  0  0
 32 29  1  0  0  0  0
 32 30  1  0  0  0  0
M  END
>  <MODEL>
6

>  <REMARK>
 VINA RESULT:      -7.0      1.034      1.106
  Name = 
  3 active torsions:
  status: ('A' for Active; 'I' for Inactive)
    1  A    between atoms: C_8  and  C_28
    2  A    between atoms: C_19  and  C_24
    3  A    between atoms: N_23  and  C_24
                            x       y       z     vdW  Elec       q    Type
                         _______ _______ _______ _____ _____    ______ ____

>  <TORSDO>
F 3

$$$$
=
 OpenBabel11052416513D

 32 38  0  0  1  0  0  0  0  0999 V2000
  184.2270  178.4250  141.7210 C   0  0  1  0  0  3  0  0  0  0  0  0
  185.4140  178.7550  146.0440 C   0  0  0  0  0  2  0  0  0  0  0  0
  186.0560  177.3690  146.0760 C   0  0  0  0  0  2  0  0  0  0  0  0
  186.2660  178.3480  140.2390 C   0  0  0  0  0  0  0  0  0  0  0  0
  185.5050  178.3380  139.0840 C   0  0  0  0  0  0  0  0  0  0  0  0
  188.3190  178.1320  138.9770 C   0  0  0  0  0  0  0  0  0  0  0  0
  184.1490  178.6060  144.0690 O   0  0  0  0  0  0  0  0  0  0  0  0
  183.8700  179.3120  142.8990 C   0  0  0  0  0  2  0  0  0  0  0  0
  185.3320  179.1520  144.5850 C   0  0  2  0  0  3  0  0  0  0  0  0
  186.7180  178.4040  142.5120 C   0  0  0  0  0  0  0  0  0  0  0  0
  187.5590  178.1070  137.7930 C   0  0  0  0  0  3  0  0  0  0  0  0
  186.1520  178.2070  137.8440 C   0  0  0  0  0  3  0  0  0  0  0  0
  186.6640  177.1290  144.7020 C   0  0  0  0  0  2  0  0  0  0  0  0
  186.5620  178.4650  144.0070 C   0  0  2  0  0  3  0  0  0  0  0  0
  188.2350  178.2750  141.7600 S   0  0  0  0  0  0  0  0  0  0  0  0
  183.4170  178.8210  140.4450 C   0  0  1  0  0  3  0  0  0  0  0  0
  184.0870  178.4440  139.1880 N   0  0  0  0  0  2  0  0  0  0  0  0
  189.7040  178.0310  138.9330 O   0  0  0  0  0  1  0  0  0  0  0  0
  185.7220  178.4320  141.5160 C   0  0  0  0  0  0  0  0  0  0  0  0
  187.6410  178.2530  140.1910 C   0  0  0  0  0  0  0  0  0  0  0  0
  180.4310  180.1270  140.7720 C   0  0  0  0  0  2  0  0  0  0  0  0
  181.9250  178.3520  140.4290 C   0  0  1  0  0  0  0  0  0  0  0  0
  181.7870  176.9570  139.8370 C   0  0  0  0  0  1  0  0  0  0  0  0
  180.4080  179.3310  142.0540 C   0  0  0  0  0  2  0  0  0  0  0  0
  181.4570  178.2570  141.8730 C   0  0  0  0  0  2  0  0  0  0  0  0
  180.9740  179.2570  139.7440 N   0  0  0  0  0  0  0  0  0  0  0  0
  181.5570  180.0960  138.6970 C   0  0  0  0  0  2  0  0  0  0  0  0
  181.4900  182.4880  138.0230 C   0  0  0  0  0  2  0  0  0  0  0  0
  179.7790  181.0030  137.3080 N   0  0  0  0  0  2  0  0  0  0  0  0
  180.8030  182.9900  136.7830 C   0  0  0  0  0  2  0  0  0  0  0  0
  180.6650  181.2940  138.4230 C   0  0  1  0  0  3  0  0  0  0  0  0
  179.5790  182.2180  136.6290 N   0  0  0  0  0  2  0  0  0  0  0  0
  1  8  1  1  0  0  0
  2  3  1  0  0  0  0
  4 19  1  0  0  0  0
  5 17  1  0  0  0  0
  5  4  2  0  0  0  0
  6 20  2  0  0  0  0
  7  9  1  0  0  0  0
  8  7  1  0  0  0  0
  9  2  1  1  0  0  0
 10 14  1  0  0  0  0
 11 12  2  0  0  0  0
 11  6  1  0  0  0  0
 12  5  1  0  0  0  0
 13  3  1  0  0  0  0
 14  9  1  0  0  0  0
 14 13  1  6  0  0  0
 15 10  1  0  0  0  0
 16 17  1  6  0  0  0
 16  1  1  0  0  0  0
 18  6  1  0  0  0  0
 19  1  1  0  0  0  0
 19 10  2  0  0  0  0
 20  4  1  0  0  0  0
 20 15  1  0  0  0  0
 21 24  1  0  0  0  0
 22 23  1  6  0  0  0
 22 16  1  0  0  0  0
 22 25  1  0  0  0  0
 25 24  1  0  0  0  0
 26 22  1  0  0  0  0
 26 21  1  0  0  0  0
 27 26  1  0  0  0  0
 28 31  1  0  0  0  0
 29 31  1  0  0  0  0
 30 28  1  0  0  0  0
 31 27  1  6  0  0  0
 32 30  1  0  0  0  0
 32 29  1  0  0  0  0
M  END
>  <MODEL>
7

>  <REMARK>
 VINA RESULT:      -6.9      3.820      6.856
  Name = 
  3 active torsions:
  status: ('A' for Active; 'I' for Inactive)
    1  A    between atoms: C_8  and  C_28
    2  A    between atoms: C_19  and  C_24
    3  A    between atoms: N_23  and  C_24
                            x       y       z     vdW  Elec       q    Type
                         _______ _______ _______ _____ _____    ______ ____

>  <TORSDO>
F 3

$$$$
=
 OpenBabel11052416513D

 32 38  0  0  1  0  0  0  0  0999 V2000
  187.0390  178.1760  141.9750 C   0  0  1  0  0  3  0  0  0  0  0  0
  186.8650  177.4950  146.4150 C   0  0  0  0  0  2  0  0  0  0  0  0
  186.3880  178.9160  146.7140 C   0  0  0  0  0  2  0  0  0  0  0  0
  184.7300  178.5610  141.0400 C   0  0  0  0  0  0  0  0  0  0  0  0
  185.1970  178.6310  139.7400 C   0  0  0  0  0  0  0  0  0  0  0  0
  182.4710  179.0630  140.3320 C   0  0  0  0  0  0  0  0  0  0  0  0
  187.6440  177.7490  144.2120 O   0  0  0  0  0  0  0  0  0  0  0  0
  187.5710  177.1480  142.9560 C   0  0  0  0  0  2  0  0  0  0  0  0
  186.5650  177.2450  144.9510 C   0  0  2  0  0  3  0  0  0  0  0  0
  184.8150  178.3060  143.3420 C   0  0  0  0  0  0  0  0  0  0  0  0
  182.9320  179.1510  139.0050 C   0  0  0  0  0  3  0  0  0  0  0  0
  184.2960  178.9380  138.7080 C   0  0  0  0  0  3  0  0  0  0  0  0
  185.5040  179.3410  145.5510 C   0  0  0  0  0  2  0  0  0  0  0  0
  185.3080  178.0800  144.7460 C   0  0  2  0  0  3  0  0  0  0  0  0
  183.1860  178.6280  142.9920 S   0  0  0  0  0  0  0  0  0  0  0  0
  187.4860  177.8510  140.5130 C   0  0  1  0  0  3  0  0  0  0  0  0
  186.5830  178.4060  139.4900 N   0  0  0  0  0  2  0  0  0  0  0  0
  181.1310  179.2740  140.6320 O   0  0  0  0  0  1  0  0  0  0  0  0
  185.5440  178.3050  142.1370 C   0  0  0  0  0  0  0  0  0  0  0  0
  183.3980  178.7660  141.3320 C   0  0  0  0  0  0  0  0  0  0  0  0
  190.4540  176.4940  140.7950 C   0  0  0  0  0  2  0  0  0  0  0  0
  188.9720  178.2040  140.1760 C   0  0  1  0  0  0  0  0  0  0  0  0
  189.0610  179.3790  139.2140 C   0  0  0  0  0  1  0  0  0  0  0  0
  190.6790  177.6000  141.7960 C   0  0  0  0  0  2  0  0  0  0  0  0
  189.6440  178.6510  141.4670 C   0  0  0  0  0  2  0  0  0  0  0  0
  189.7930  177.0910  139.6470 N   0  0  0  0  0  0  0  0  0  0  0  0
  189.0460  176.0420  138.9540 C   0  0  0  0  0  2  0  0  0  0  0  0
  190.6450  176.7490  137.1850 C   0  0  0  0  0  2  0  0  0  0  0  0
  190.6450  174.5030  137.9590 N   0  0  0  0  0  2  0  0  0  0  0  0
  191.9650  176.0750  136.9310 C   0  0  0  0  0  2  0  0  0  0  0  0
  189.7690  175.6300  137.6830 C   0  0  1  0  0  3  0  0  0  0  0  0
  191.7590  174.6460  137.1140 N   0  0  0  0  0  2  0  0  0  0  0  0
  1 19  1  0  0  0  0
  1  8  1  1  0  0  0
  2  3  1  0  0  0  0
  4 20  1  0  0  0  0
  4 19  1  0  0  0  0
  5  4  2  0  0  0  0
  6 18  1  0  0  0  0
  6 20  2  0  0  0  0
  7  9  1  0  0  0  0
  8  7  1  0  0  0  0
  9  2  1  1  0  0  0
 10 14  1  0  0  0  0
 11  6  1  0  0  0  0
 12 11  2  0  0  0  0
 12  5  1  0  0  0  0
 13  3  1  0  0  0  0
 14  9  1  0  0  0  0
 14 13  1  6  0  0  0
 15 10  1  0  0  0  0
 16 17  1  6  0  0  0
 16  1  1  0  0  0  0
 17  5  1  0  0  0  0
 19 10  2  0  0  0  0
 20 15  1  0  0  0  0
 21 24  1  0  0  0  0
 22 23  1  6  0  0  0
 22 16  1  0  0  0  0
 22 25  1  0  0  0  0
 25 24  1  0  0  0  0
 26 22  1  0  0  0  0
 26 21  1  0  0  0  0
 27 26  1  0  0  0  0
 28 31  1  0  0  0  0
 30 32  1  0  0  0  0
 30 28  1  0  0  0  0
 31 29  1  0  0  0  0
 31 27  1  1  0  0  0
 32 29  1  0  0  0  0
M  END
>  <MODEL>
8

>  <REMARK>
 VINA RESULT:      -6.6      2.557      3.476
  Name = 
  3 active torsions:
  status: ('A' for Active; 'I' for Inactive)
    1  A    between atoms: C_8  and  C_28
    2  A    between atoms: C_19  and  C_24
    3  A    between atoms: N_23  and  C_24
                            x       y       z     vdW  Elec       q    Type
                         _______ _______ _______ _____ _____    ______ ____

>  <TORSDO>
F 3

$$$$
=
 OpenBabel11052416513D

 32 38  0  0  1  0  0  0  0  0999 V2000
  188.1170  177.8450  144.0650 C   0  0  1  0  0  3  0  0  0  0  0  0
  188.6670  177.0930  148.4630 C   0  0  0  0  0  2  0  0  0  0  0  0
  188.2730  178.5160  148.8560 C   0  0  0  0  0  2  0  0  0  0  0  0
  185.6920  178.2820  143.5310 C   0  0  0  0  0  0  0  0  0  0  0  0
  185.9400  178.3670  142.1730 C   0  0  0  0  0  0  0  0  0  0  0  0
  183.3570  178.8320  143.2140 C   0  0  0  0  0  0  0  0  0  0  0  0
  189.0760  177.3710  146.1650 O   0  0  0  0  0  0  0  0  0  0  0  0
  188.7850  176.7920  144.9300 C   0  0  0  0  0  2  0  0  0  0  0  0
  188.1250  176.8720  147.0660 C   0  0  2  0  0  3  0  0  0  0  0  0
  186.1530  177.9880  145.7840 C   0  0  0  0  0  0  0  0  0  0  0  0
  183.5940  178.9350  141.8310 C   0  0  0  0  0  3  0  0  0  0  0  0
  184.8850  178.7050  141.3090 C   0  0  0  0  0  3  0  0  0  0  0  0
  187.2170  178.9750  147.8620 C   0  0  0  0  0  2  0  0  0  0  0  0
  186.8670  177.7310  147.0830 C   0  0  2  0  0  3  0  0  0  0  0  0
  184.4940  178.3410  145.7130 S   0  0  0  0  0  0  0  0  0  0  0  0
  188.3100  177.5380  142.5450 C   0  0  1  0  0  3  0  0  0  0  0  0
  187.2610  178.1240  141.6940 N   0  0  0  0  0  2  0  0  0  0  0  0
  182.0890  179.0590  143.7350 O   0  0  0  0  0  1  0  0  0  0  0  0
  186.6720  177.9950  144.4740 C   0  0  0  0  0  0  0  0  0  0  0  0
  184.4310  178.5040  144.0430 C   0  0  0  0  0  0  0  0  0  0  0  0
  190.1060  176.8550  139.8920 C   0  0  0  0  0  2  0  0  0  0  0  0
  189.7260  177.8730  141.9720 C   0  0  1  0  0  0  0  0  0  0  0  0
  190.3590  179.0490  142.7000 C   0  0  0  0  0  1  0  0  0  0  0  0
  190.9580  176.0900  140.8750 C   0  0  0  0  0  2  0  0  0  0  0  0
  190.6240  176.6720  142.2290 C   0  0  0  0  0  2  0  0  0  0  0  0
  189.7850  178.1280  140.5140 N   0  0  0  0  0  0  0  0  0  0  0  0
  188.5460  178.6270  139.9190 C   0  0  0  0  0  2  0  0  0  0  0  0
  187.1270  177.6600  138.1210 C   0  0  0  0  0  2  0  0  0  0  0  0
  188.6290  179.4320  137.6260 N   0  0  0  0  0  2  0  0  0  0  0  0
  186.7100  178.4110  136.8870 C   0  0  0  0  0  2  0  0  0  0  0  0
  188.4740  178.2450  138.4500 C   0  0  1  0  0  3  0  0  0  0  0  0
  187.8440  179.2270  136.4780 N   0  0  0  0  0  2  0  0  0  0  0  0
  1 19  1  0  0  0  0
  1  8  1  1  0  0  0
  2  3  1  0  0  0  0
  4 20  1  0  0  0  0
  4 19  1  0  0  0  0
  5  4  2  0  0  0  0
  6 18  1  0  0  0  0
  6 20  2  0  0  0  0
  7  9  1  0  0  0  0
  8  7  1  0  0  0  0
  9 14  1  0  0  0  0
  9  2  1  1  0  0  0
 10 14  1  0  0  0  0
 11  6  1  0  0  0  0
 12 11  2  0  0  0  0
 12  5  1  0  0  0  0
 13  3  1  0  0  0  0
 14 13  1  6  0  0  0
 15 10  1  0  0  0  0
 16 17  1  6  0  0  0
 16  1  1  0  0  0  0
 17  5  1  0  0  0  0
 19 10  2  0  0  0  0
 20 15  1  0  0  0  0
 21 26  1  0  0  0  0
 21 24  1  0  0  0  0
 22 25  1  0  0  0  0
 22 16  1  0  0  0  0
 22 23  1  1  0  0  0
 24 25  1  0  0  0  0
 26 22  1  0  0  0  0
 27 26  1  0  0  0  0
 28 31  1  0  0  0  0
 29 31  1  0  0  0  0
 30 28  1  0  0  0  0
 31 27  1  1  0  0  0
 32 30  1  0  0  0  0
 32 29  1  0  0  0  0
M  END
>  <MODEL>
9

>  <REMARK>
 VINA RESULT:      -6.6      2.159      2.930
  Name = 
  3 active torsions:
  status: ('A' for Active; 'I' for Inactive)
    1  A    between atoms: C_8  and  C_28
    2  A    between atoms: C_19  and  C_24
    3  A    between atoms: N_23  and  C_24
                            x       y       z     vdW  Elec       q    Type
                         _______ _______ _______ _____ _____    ______ ____

>  <TORSDO>
F 3

$$$$
