=
 OpenBabel11052416523D

 32 38  0  0  1  0  0  0  0  0999 V2000
  180.1540  178.6840  141.5390 N   0  0  0  0  0  0  0  0  0  0  0  0
  184.9140  178.7040  143.4230 C   0  0  2  0  0  3  0  0  0  0  0  0
  187.6570  177.9870  139.3920 C   0  0  0  0  0  2  0  0  0  0  0  0
  188.7190  178.4840  140.1640 O   0  0  0  0  0  0  0  0  0  0  0  0
  185.9950  178.2630  145.5740 C   0  0  0  0  0  0  0  0  0  0  0  0
  187.1630  177.9480  146.2880 C   0  0  0  0  0  0  0  0  0  0  0  0
  182.4810  178.8230  143.2290 C   0  0  0  0  0  0  0  0  0  0  0  0
  183.8000  178.6420  141.2180 N   0  0  0  0  0  0  0  0  0  0  0  0
  189.5070  177.3260  147.7030 C   0  0  0  0  0  3  0  0  0  0  0  0
  181.4240  178.2280  140.9590 C   0  0  0  0  0  2  0  0  0  0  0  0
  186.3510  178.6210  139.8680 C   0  0  0  0  0  2  0  0  0  0  0  0
  185.0090  179.0400  141.9480 C   0  0  2  0  0  3  0  0  0  0  0  0
  186.2040  178.4830  141.3220 N   0  0  2  0  0  0  0  0  0  0  0  0
  187.2700  178.1730  143.4770 C   0  0  0  0  0  0  0  0  0  0  0  0
  188.3050  177.5180  148.3900 C   0  0  0  0  0  3  0  0  0  0  0  0
  180.0550  178.3240  142.9630 C   0  0  0  0  0  2  0  0  0  0  0  0
  182.6230  178.6280  141.7720 C   0  0  0  0  0  0  0  0  0  0  0  0
  187.1380  177.8280  147.6860 C   0  0  0  0  0  3  0  0  0  0  0  0
  181.1260  179.0030  143.8250 C   0  0  0  0  0  2  0  0  0  0  0  0
  188.6400  177.8370  141.4100 C   0  0  0  0  0  2  0  0  0  0  0  0
  187.3630  178.2110  142.1290 C   0  0  1  0  0  3  0  0  0  0  0  0
  188.4170  177.8610  144.2230 C   0  0  0  0  0  3  0  0  0  0  0  0
  183.5620  178.8410  144.0080 C   0  0  0  0  0  3  0  0  0  0  0  0
  184.8200  178.4540  146.3000 O   0  0  0  0  0  1  0  0  0  0  0  0
  189.5420  177.4440  146.3110 C   0  0  0  0  0  3  0  0  0  0  0  0
  186.0270  178.3960  144.1500 C   0  0  0  0  0  0  0  0  0  0  0  0
  188.3770  177.7540  145.6040 C   0  0  0  0  0  0  0  0  0  0  0  0
  180.0140  180.1270  141.3500 C   0  0  0  0  0  2  0  0  0  0  0  0
  180.4530  181.3480  139.2480 C   0  0  0  0  0  0  0  0  0  0  0  0
  179.4720  180.4220  139.9640 C   0  0  2  0  0  3  0  0  0  0  0  0
  179.1240  181.8030  139.8470 C   0  0  0  0  0  2  0  0  0  0  0  0
  181.5020  181.5630  138.6630 O   0  0  0  0  0  0  0  0  0  0  0  0
  1 16  1  0  0  0  0
  2 23  1  1  0  0  0
  2 26  1  0  0  0  0
  3 11  1  0  0  0  0
  3  4  1  0  0  0  0
  4 20  1  0  0  0  0
  5  6  1  0  0  0  0
  5 24  1  0  0  0  0
  6 18  1  0  0  0  0
  7 19  1  0  0  0  0
  7 23  2  0  0  0  0
  8 17  2  0  0  0  0
  9 15  1  0  0  0  0
 10  1  1  0  0  0  0
 10 17  1  0  0  0  0
 12  8  1  6  0  0  0
 12  2  1  0  0  0  0
 13 11  1  6  0  0  0
 13 12  1  0  0  0  0
 13 21  1  0  0  0  0
 14 26  1  0  0  0  0
 14 22  2  0  0  0  0
 16 19  1  0  0  0  0
 17  7  1  0  0  0  0
 18 15  2  0  0  0  0
 21 20  1  6  0  0  0
 21 14  1  0  0  0  0
 22 27  1  0  0  0  0
 25  9  2  0  0  0  0
 26  5  2  0  0  0  0
 27  6  2  0  0  0  0
 27 25  1  0  0  0  0
 28  1  1  0  0  0  0
 29 31  1  0  0  0  0
 29 30  1  0  0  0  0
 30 28  1  1  0  0  0
 31 30  1  0  0  0  0
 32 29  2  0  0  0  0
M  END
>  <MODEL>
1

>  <REMARK>
 VINA RESULT:     -11.2      0.000      0.000
  Name = 
  2 active torsions:
  status: ('A' for Active; 'I' for Inactive)
    1  A    between atoms: N_2  and  C_24
    2  A    between atoms: C_10  and  C_24
                            x       y       z     vdW  Elec       q    Type
                         _______ _______ _______ _____ _____    ______ ____

>  <TORSDO>
F 2

$$$$
=
 OpenBabel11052416523D

 32 38  0  0  1  0  0  0  0  0999 V2000
  181.6720  178.5590  139.5950 N   0  0  0  0  0  0  0  0  0  0  0  0
  185.9630  178.4120  142.3830 C   0  0  2  0  0  3  0  0  0  0  0  0
  189.4060  177.4600  138.9880 C   0  0  0  0  0  2  0  0  0  0  0  0
  190.3190  177.9280  139.9470 O   0  0  0  0  0  0  0  0  0  0  0  0
  186.5760  177.9810  144.7130 C   0  0  0  0  0  0  0  0  0  0  0  0
  187.5630  177.6330  145.6490 C   0  0  0  0  0  0  0  0  0  0  0  0
  183.6250  178.6370  141.7100 C   0  0  0  0  0  0  0  0  0  0  0  0
  185.3030  178.3410  140.0030 N   0  0  0  0  0  0  0  0  0  0  0  0
  189.5490  176.9430  147.5120 C   0  0  0  0  0  3  0  0  0  0  0  0
  183.0070  178.0300  139.2860 C   0  0  0  0  0  2  0  0  0  0  0  0
  188.0660  178.1660  139.1850 C   0  0  0  0  0  2  0  0  0  0  0  0
  186.3630  178.7030  140.9500 C   0  0  2  0  0  3  0  0  0  0  0  0
  187.6290  178.0750  140.5830 N   0  0  2  0  0  0  0  0  0  0  0  0
  188.2330  177.7750  142.9120 C   0  0  0  0  0  0  0  0  0  0  0  0
  188.2460  177.2080  147.9430 C   0  0  0  0  0  3  0  0  0  0  0  0
  181.2760  178.2430  140.9780 C   0  0  0  0  0  2  0  0  0  0  0  0
  184.0410  178.3960  140.3130 C   0  0  0  0  0  0  0  0  0  0  0  0
  187.2580  177.5520  147.0170 C   0  0  0  0  0  3  0  0  0  0  0  0
  182.1900  178.8960  142.0230 C   0  0  0  0  0  2  0  0  0  0  0  0
  189.9640  177.3200  141.1630 C   0  0  0  0  0  2  0  0  0  0  0  0
  188.5910  177.7720  141.6090 C   0  0  1  0  0  3  0  0  0  0  0  0
  189.1930  177.4320  143.8760 C   0  0  0  0  0  3  0  0  0  0  0  0
  184.5310  178.6270  142.6870 C   0  0  0  0  0  3  0  0  0  0  0  0
  185.2920  178.2460  145.1890 O   0  0  0  0  0  1  0  0  0  0  0  0
  189.8630  177.0200  146.1520 C   0  0  0  0  0  3  0  0  0  0  0  0
  186.8950  178.0740  143.3210 C   0  0  0  0  0  0  0  0  0  0  0  0
  188.8770  177.3640  145.2230 C   0  0  0  0  0  0  0  0  0  0  0  0
  181.6450  180.0010  139.3570 C   0  0  0  0  0  2  0  0  0  0  0  0
  180.2930  181.9170  138.5800 C   0  0  0  0  0  0  0  0  0  0  0  0
  180.2490  180.4370  138.9520 C   0  0  2  0  0  3  0  0  0  0  0  0
  179.7280  181.3800  139.8920 C   0  0  0  0  0  2  0  0  0  0  0  0
  180.5790  182.8300  137.8220 O   0  0  0  0  0  0  0  0  0  0  0  0
  1 16  1  0  0  0  0
  2 23  1  1  0  0  0
  2 26  1  0  0  0  0
  3 11  1  0  0  0  0
  3  4  1  0  0  0  0
  4 20  1  0  0  0  0
  5 24  1  0  0  0  0
  5  6  1  0  0  0  0
  6 18  1  0  0  0  0
  7 19  1  0  0  0  0
  7 23  2  0  0  0  0
  8 17  2  0  0  0  0
  9 15  1  0  0  0  0
 10  1  1  0  0  0  0
 10 17  1  0  0  0  0
 12  8  1  6  0  0  0
 12  2  1  0  0  0  0
 13 11  1  6  0  0  0
 13 12  1  0  0  0  0
 13 21  1  0  0  0  0
 14 26  1  0  0  0  0
 14 22  2  0  0  0  0
 16 19  1  0  0  0  0
 17  7  1  0  0  0  0
 18 15  2  0  0  0  0
 21 20  1  6  0  0  0
 21 14  1  0  0  0  0
 22 27  1  0  0  0  0
 25  9  2  0  0  0  0
 26  5  2  0  0  0  0
 27  6  2  0  0  0  0
 27 25  1  0  0  0  0
 28  1  1  0  0  0  0
 29 30  1  0  0  0  0
 29 31  1  0  0  0  0
 30 28  1  1  0  0  0
 30 31  1  0  0  0  0
 32 29  2  0  0  0  0
M  END
>  <MODEL>
2

>  <REMARK>
 VINA RESULT:     -10.6      1.261      1.577
  Name = 
  2 active torsions:
  status: ('A' for Active; 'I' for Inactive)
    1  A    between atoms: N_2  and  C_24
    2  A    between atoms: C_10  and  C_24
                            x       y       z     vdW  Elec       q    Type
                         _______ _______ _______ _____ _____    ______ ____

>  <TORSDO>
F 2

$$$$
=
 OpenBabel11052416523D

 32 38  0  0  1  0  0  0  0  0999 V2000
  182.2220  178.4650  139.2120 N   0  0  0  0  0  0  0  0  0  0  0  0
  186.3050  178.3900  142.3000 C   0  0  2  0  0  3  0  0  0  0  0  0
  189.9710  177.3020  139.1910 C   0  0  0  0  0  2  0  0  0  0  0  0
  190.8180  177.7990  140.1960 O   0  0  0  0  0  0  0  0  0  0  0  0
  186.7480  178.0350  144.6810 C   0  0  0  0  0  0  0  0  0  0  0  0
  187.6650  177.7140  145.6960 C   0  0  0  0  0  0  0  0  0  0  0  0
  184.0220  178.6050  141.4560 C   0  0  0  0  0  0  0  0  0  0  0  0
  185.8130  178.2410  139.8830 N   0  0  0  0  0  0  0  0  0  0  0  0
  189.5080  177.0780  147.7160 C   0  0  0  0  0  3  0  0  0  0  0  0
  183.5720  177.9170  139.0160 C   0  0  0  0  0  2  0  0  0  0  0  0
  188.6260  178.0220  139.2690 C   0  0  0  0  0  2  0  0  0  0  0  0
  186.8080  178.6290  140.8900 C   0  0  2  0  0  3  0  0  0  0  0  0
  188.0910  177.9820  140.6350 N   0  0  2  0  0  0  0  0  0  0  0  0
  188.5270  177.7590  143.0100 C   0  0  0  0  0  0  0  0  0  0  0  0
  188.1810  177.3640  148.0450 C   0  0  0  0  0  3  0  0  0  0  0  0
  181.7280  178.1990  140.5730 C   0  0  0  0  0  2  0  0  0  0  0  0
  184.5340  178.3130  140.1010 C   0  0  0  0  0  0  0  0  0  0  0  0
  187.2630  177.6820  147.0400 C   0  0  0  0  0  3  0  0  0  0  0  0
  182.5700  178.8820  141.6580 C   0  0  0  0  0  2  0  0  0  0  0  0
  190.3730  177.2340  141.4040 C   0  0  0  0  0  2  0  0  0  0  0  0
  188.9760  177.7090  141.7360 C   0  0  1  0  0  3  0  0  0  0  0  0
  189.4140  177.4430  144.0500 C   0  0  0  0  0  3  0  0  0  0  0  0
  184.8560  178.6230  142.4940 C   0  0  0  0  0  3  0  0  0  0  0  0
  185.4370  178.3230  145.0550 O   0  0  0  0  0  1  0  0  0  0  0  0
  189.9180  177.1060  146.3810 C   0  0  0  0  0  3  0  0  0  0  0  0
  187.1650  178.0790  143.3130 C   0  0  0  0  0  0  0  0  0  0  0  0
  189.0030  177.4240  145.3730 C   0  0  0  0  0  0  0  0  0  0  0  0
  182.2240  179.8980  138.9240 C   0  0  0  0  0  2  0  0  0  0  0  0
  180.4070  179.4880  137.3010 C   0  0  0  0  0  0  0  0  0  0  0  0
  180.8400  180.3440  138.4890 C   0  0  2  0  0  3  0  0  0  0  0  0
  180.8910  180.9320  137.1880 C   0  0  0  0  0  2  0  0  0  0  0  0
  180.0020  178.4450  136.8150 O   0  0  0  0  0  0  0  0  0  0  0  0
  1 16  1  0  0  0  0
  2 23  1  1  0  0  0
  2 26  1  0  0  0  0
  3 11  1  0  0  0  0
  3  4  1  0  0  0  0
  4 20  1  0  0  0  0
  5 24  1  0  0  0  0
  5  6  1  0  0  0  0
  6 18  1  0  0  0  0
  7 19  1  0  0  0  0
  7 23  2  0  0  0  0
  8 17  2  0  0  0  0
  9 15  1  0  0  0  0
 10  1  1  0  0  0  0
 10 17  1  0  0  0  0
 12  8  1  6  0  0  0
 12  2  1  0  0  0  0
 13 11  1  6  0  0  0
 13 12  1  0  0  0  0
 13 21  1  0  0  0  0
 14 26  1  0  0  0  0
 14 22  2  0  0  0  0
 16 19  1  0  0  0  0
 17  7  1  0  0  0  0
 18 15  2  0  0  0  0
 21 20  1  6  0  0  0
 21 14  1  0  0  0  0
 22 27  1  0  0  0  0
 25  9  2  0  0  0  0
 26  5  2  0  0  0  0
 27  6  2  0  0  0  0
 27 25  1  0  0  0  0
 28  1  1  0  0  0  0
 29 30  1  0  0  0  0
 30 28  1  6  0  0  0
 31 29  1  0  0  0  0
 31 30  1  0  0  0  0
 32 29  2  0  0  0  0
M  END
>  <MODEL>
3

>  <REMARK>
 VINA RESULT:     -10.2      1.703      2.165
  Name = 
  2 active torsions:
  status: ('A' for Active; 'I' for Inactive)
    1  A    between atoms: N_2  and  C_24
    2  A    between atoms: C_10  and  C_24
                            x       y       z     vdW  Elec       q    Type
                         _______ _______ _______ _____ _____    ______ ____

>  <TORSDO>
F 2

$$$$
=
 OpenBabel11052416523D

 32 38  0  0  1  0  0  0  0  0999 V2000
  187.7020  178.5320  137.5740 N   0  0  0  0  0  0  0  0  0  0  0  0
  186.8760  177.8770  142.5830 C   0  0  2  0  0  3  0  0  0  0  0  0
  182.1980  179.3430  143.0910 C   0  0  0  0  0  2  0  0  0  0  0  0
  182.2290  178.6390  144.3060 O   0  0  0  0  0  0  0  0  0  0  0  0
  188.2190  177.7790  144.6260 C   0  0  0  0  0  0  0  0  0  0  0  0
  188.2830  177.8740  146.0260 C   0  0  0  0  0  0  0  0  0  0  0  0
  187.9260  177.9150  140.3780 C   0  0  0  0  0  0  0  0  0  0  0  0
  185.5880  178.4770  140.5610 N   0  0  0  0  0  0  0  0  0  0  0  0
  188.3950  178.0580  148.8260 C   0  0  0  0  0  3  0  0  0  0  0  0
  186.6440  179.0470  138.4540 C   0  0  0  0  0  2  0  0  0  0  0  0
  183.1570  178.6790  142.1030 C   0  0  0  0  0  2  0  0  0  0  0  0
  185.5240  177.8720  141.8960 C   0  0  2  0  0  3  0  0  0  0  0  0
  184.4830  178.4980  142.7050 N   0  0  2  0  0  0  0  0  0  0  0  0
  185.8160  178.2740  144.7180 C   0  0  0  0  0  0  0  0  0  0  0  0
  189.5530  177.7740  148.0970 C   0  0  0  0  0  3  0  0  0  0  0  0
  189.0160  178.5710  138.2350 C   0  0  0  0  0  2  0  0  0  0  0  0
  186.6550  178.4220  139.8200 C   0  0  0  0  0  0  0  0  0  0  0  0
  189.4980  177.6820  146.7030 C   0  0  0  0  0  3  0  0  0  0  0  0
  189.0870  177.6690  139.4740 C   0  0  0  0  0  2  0  0  0  0  0  0
  183.4300  178.9970  144.9420 C   0  0  0  0  0  2  0  0  0  0  0  0
  184.6230  178.5310  144.1360 C   0  0  1  0  0  3  0  0  0  0  0  0
  185.9170  178.3590  146.1140 C   0  0  0  0  0  3  0  0  0  0  0  0
  188.0330  177.6750  141.6830 C   0  0  0  0  0  3  0  0  0  0  0  0
  189.3970  177.4860  143.9400 O   0  0  0  0  0  1  0  0  0  0  0  0
  187.1810  178.2510  148.1620 C   0  0  0  0  0  3  0  0  0  0  0  0
  186.9770  177.9640  143.9410 C   0  0  0  0  0  0  0  0  0  0  0  0
  187.1220  178.1590  146.7680 C   0  0  0  0  0  0  0  0  0  0  0  0
  187.3700  177.1750  137.1430 C   0  0  0  0  0  2  0  0  0  0  0  0
  185.1750  176.0990  136.7880 C   0  0  0  0  0  0  0  0  0  0  0  0
  186.1180  177.1910  136.2870 C   0  0  2  0  0  3  0  0  0  0  0  0
  186.0210  175.9880  135.5210 C   0  0  0  0  0  2  0  0  0  0  0  0
  184.3750  175.6520  137.5920 O   0  0  0  0  0  0  0  0  0  0  0  0
  1 16  1  0  0  0  0
  1 10  1  0  0  0  0
  2 23  1  1  0  0  0
  2 26  1  0  0  0  0
  3  4  1  0  0  0  0
  4 20  1  0  0  0  0
  5  6  1  0  0  0  0
  6 18  2  0  0  0  0
  6 27  1  0  0  0  0
  7 23  2  0  0  0  0
 10 17  1  0  0  0  0
 11  3  1  0  0  0  0
 12  8  1  6  0  0  0
 12  2  1  0  0  0  0
 12 13  1  0  0  0  0
 13 11  1  1  0  0  0
 13 21  1  0  0  0  0
 14 22  2  0  0  0  0
 15  9  2  0  0  0  0
 16 19  1  0  0  0  0
 17  7  1  0  0  0  0
 17  8  2  0  0  0  0
 18 15  1  0  0  0  0
 19  7  1  0  0  0  0
 21 14  1  0  0  0  0
 21 20  1  6  0  0  0
 22 27  1  0  0  0  0
 24  5  1  0  0  0  0
 25  9  1  0  0  0  0
 26  5  2  0  0  0  0
 26 14  1  0  0  0  0
 27 25  2  0  0  0  0
 28  1  1  0  0  0  0
 29 32  2  0  0  0  0
 30 29  1  0  0  0  0
 30 28  1  1  0  0  0
 31 30  1  0  0  0  0
 31 29  1  0  0  0  0
M  END
>  <MODEL>
4

>  <REMARK>
 VINA RESULT:      -9.6      2.418      5.562
  Name = 
  2 active torsions:
  status: ('A' for Active; 'I' for Inactive)
    1  A    between atoms: N_2  and  C_24
    2  A    between atoms: C_10  and  C_24
                            x       y       z     vdW  Elec       q    Type
                         _______ _______ _______ _____ _____    ______ ____

>  <TORSDO>
F 2

$$$$
=
 OpenBabel11052416523D

 32 38  0  0  1  0  0  0  0  0999 V2000
  190.1540  178.0510  147.4440 N   0  0  0  0  0  0  0  0  0  0  0  0
  186.3190  177.9290  144.0560 C   0  0  2  0  0  3  0  0  0  0  0  0
  188.6750  178.4590  139.7600 C   0  0  0  0  0  2  0  0  0  0  0  0
  187.5010  177.9480  139.1830 O   0  0  0  0  0  0  0  0  0  0  0  0
  183.9150  178.3890  144.0490 C   0  0  0  0  0  0  0  0  0  0  0  0
  182.7520  178.6840  143.3180 C   0  0  0  0  0  0  0  0  0  0  0  0
  187.5920  177.8810  146.1400 C   0  0  0  0  0  0  0  0  0  0  0  0
  188.7890  177.9710  144.0490 N   0  0  0  0  0  0  0  0  0  0  0  0
  180.4330  179.2660  141.8460 C   0  0  0  0  0  3  0  0  0  0  0  0
  190.1000  178.4530  146.0310 C   0  0  0  0  0  2  0  0  0  0  0  0
  188.8370  177.8780  141.1640 C   0  0  0  0  0  2  0  0  0  0  0  0
  187.5880  177.5530  143.3170 C   0  0  2  0  0  3  0  0  0  0  0  0
  187.6090  178.0560  141.9470 N   0  0  2  0  0  0  0  0  0  0  0  0
  185.2070  178.3860  141.9600 C   0  0  0  0  0  0  0  0  0  0  0  0
  180.3640  179.1300  143.2350 C   0  0  0  0  0  3  0  0  0  0  0  0
  188.9330  178.4500  148.1620 C   0  0  0  0  0  2  0  0  0  0  0  0
  188.8290  178.0360  145.3470 C   0  0  0  0  0  0  0  0  0  0  0  0
  181.5180  178.8400  143.9680 C   0  0  0  0  0  3  0  0  0  0  0  0
  187.6730  177.7590  147.6250 C   0  0  0  0  0  2  0  0  0  0  0  0
  186.4320  178.6280  139.7910 C   0  0  0  0  0  2  0  0  0  0  0  0
  186.3660  178.3120  141.2690 C   0  0  1  0  0  3  0  0  0  0  0  0
  184.0250  178.6800  141.2630 C   0  0  0  0  0  3  0  0  0  0  0  0
  186.4080  177.8490  145.5310 C   0  0  0  0  0  3  0  0  0  0  0  0
  183.7980  178.2530  145.4310 O   0  0  0  0  0  1  0  0  0  0  0  0
  181.6570  179.1140  141.1890 C   0  0  0  0  0  3  0  0  0  0  0  0
  185.1690  178.2190  143.3810 C   0  0  0  0  0  0  0  0  0  0  0  0
  182.8130  178.8230  141.9200 C   0  0  0  0  0  0  0  0  0  0  0  0
  190.3740  176.6100  147.5400 C   0  0  0  0  0  2  0  0  0  0  0  0
  192.0100  175.6040  145.9860 C   0  0  0  0  0  0  0  0  0  0  0  0
  191.8440  176.2920  147.3390 C   0  0  2  0  0  3  0  0  0  0  0  0
  192.0530  174.8780  147.3290 C   0  0  0  0  0  2  0  0  0  0  0  0
  192.0560  175.6190  144.7670 O   0  0  0  0  0  0  0  0  0  0  0  0
  1 28  1  0  0  0  0
  1 16  1  0  0  0  0
  2 23  1  1  0  0  0
  3 11  1  0  0  0  0
  4  3  1  0  0  0  0
  4 20  1  0  0  0  0
  5 24  1  0  0  0  0
  6 18  1  0  0  0  0
  6  5  2  0  0  0  0
  7 19  1  0  0  0  0
  8 17  2  0  0  0  0
  9 15  1  0  0  0  0
 10  1  1  0  0  0  0
 12  8  1  1  0  0  0
 12  2  1  0  0  0  0
 13 11  1  6  0  0  0
 13 12  1  0  0  0  0
 14 26  2  0  0  0  0
 15 18  2  0  0  0  0
 17 10  1  0  0  0  0
 17  7  1  0  0  0  0
 19 16  1  0  0  0  0
 21 20  1  1  0  0  0
 21 13  1  0  0  0  0
 21 14  1  0  0  0  0
 22 27  2  0  0  0  0
 22 14  1  0  0  0  0
 23  7  2  0  0  0  0
 25  9  2  0  0  0  0
 25 27  1  0  0  0  0
 26  5  1  0  0  0  0
 26  2  1  0  0  0  0
 27  6  1  0  0  0  0
 29 31  1  0  0  0  0
 29 30  1  0  0  0  0
 30 28  1  6  0  0  0
 31 30  1  0  0  0  0
 32 29  2  0  0  0  0
M  END
>  <MODEL>
5

>  <REMARK>
 VINA RESULT:      -9.4      2.311      8.084
  Name = 
  2 active torsions:
  status: ('A' for Active; 'I' for Inactive)
    1  A    between atoms: N_2  and  C_24
    2  A    between atoms: C_10  and  C_24
                            x       y       z     vdW  Elec       q    Type
                         _______ _______ _______ _____ _____    ______ ____

>  <TORSDO>
F 2

$$$$
=
 OpenBabel11052416523D

 32 38  0  0  1  0  0  0  0  0999 V2000
  190.9600  175.6800  137.2900 N   0  0  0  0  0  0  0  0  0  0  0  0
  188.6820  177.5310  141.4840 C   0  0  2  0  0  3  0  0  0  0  0  0
  191.6810  176.0050  145.0850 C   0  0  0  0  0  2  0  0  0  0  0  0
  191.0590  176.9930  145.8670 O   0  0  0  0  0  0  0  0  0  0  0  0
  186.4270  178.2070  142.1510 C   0  0  0  0  0  0  0  0  0  0  0  0
  185.5090  178.4710  143.1810 C   0  0  0  0  0  0  0  0  0  0  0  0
  189.2070  176.9930  139.1600 C   0  0  0  0  0  0  0  0  0  0  0  0
  190.7820  176.3780  140.8780 N   0  0  0  0  0  0  0  0  0  0  0  0
  183.6850  179.0030  145.2500 C   0  0  0  0  0  3  0  0  0  0  0  0
  191.1370  175.3500  138.7110 C   0  0  0  0  0  2  0  0  0  0  0  0
  191.6750  176.4470  143.6220 C   0  0  0  0  0  2  0  0  0  0  0  0
  190.1400  177.2950  141.8270 C   0  0  2  0  0  3  0  0  0  0  0  0
  190.3260  176.8400  143.2010 N   0  0  2  0  0  0  0  0  0  0  0  0
  188.1220  177.6310  143.8320 C   0  0  0  0  0  0  0  0  0  0  0  0
  183.2940  179.1520  143.9170 C   0  0  0  0  0  3  0  0  0  0  0  0
  189.5390  175.8750  136.9570 C   0  0  0  0  0  2  0  0  0  0  0  0
  190.4220  176.2980  139.6310 C   0  0  0  0  0  0  0  0  0  0  0  0
  184.2010  178.8880  142.8860 C   0  0  0  0  0  3  0  0  0  0  0  0
  188.9110  177.0620  137.6990 C   0  0  0  0  0  2  0  0  0  0  0  0
  189.6770  176.8670  145.6390 C   0  0  0  0  0  2  0  0  0  0  0  0
  189.3420  177.1760  144.1960 C   0  0  1  0  0  3  0  0  0  0  0  0
  187.1790  177.9040  144.8340 C   0  0  0  0  0  3  0  0  0  0  0  0
  188.3780  177.5580  140.0360 C   0  0  0  0  0  3  0  0  0  0  0  0
  185.9970  178.3780  140.8370 O   0  0  0  0  0  1  0  0  0  0  0  0
  184.9840  178.5880  145.5540 C   0  0  0  0  0  3  0  0  0  0  0  0
  187.7620  177.7940  142.4570 C   0  0  0  0  0  0  0  0  0  0  0  0
  185.8940  178.3230  144.5260 C   0  0  0  0  0  0  0  0  0  0  0  0
  191.7460  176.8670  136.9560 C   0  0  0  0  0  2  0  0  0  0  0  0
  193.8830  176.5670  135.7540 C   0  0  0  0  0  0  0  0  0  0  0  0
  193.2250  176.5790  137.1320 C   0  0  2  0  0  3  0  0  0  0  0  0
  193.5590  175.3120  136.5620 C   0  0  0  0  0  2  0  0  0  0  0  0
  194.3170  177.1280  134.7610 O   0  0  0  0  0  0  0  0  0  0  0  0
  1 10  1  0  0  0  0
  2 23  1  6  0  0  0
  2 12  1  0  0  0  0
  2 26  1  0  0  0  0
  3  4  1  0  0  0  0
  5 26  2  0  0  0  0
  5  6  1  0  0  0  0
  6 27  1  0  0  0  0
  7 17  1  0  0  0  0
  7 23  2  0  0  0  0
  9 25  1  0  0  0  0
 10 17  1  0  0  0  0
 11  3  1  0  0  0  0
 12  8  1  6  0  0  0
 12 13  1  0  0  0  0
 13 11  1  1  0  0  0
 13 21  1  0  0  0  0
 14 21  1  0  0  0  0
 14 22  2  0  0  0  0
 15  9  2  0  0  0  0
 16  1  1  0  0  0  0
 16 19  1  0  0  0  0
 17  8  2  0  0  0  0
 18  6  2  0  0  0  0
 18 15  1  0  0  0  0
 19  7  1  0  0  0  0
 20  4  1  0  0  0  0
 21 20  1  6  0  0  0
 24  5  1  0  0  0  0
 26 14  1  0  0  0  0
 27 22  1  0  0  0  0
 27 25  2  0  0  0  0
 28  1  1  0  0  0  0
 29 31  1  0  0  0  0
 29 30  1  0  0  0  0
 30 28  1  6  0  0  0
 31 30  1  0  0  0  0
 32 29  2  0  0  0  0
M  END
>  <MODEL>
6

>  <REMARK>
 VINA RESULT:      -9.2      3.782      8.350
  Name = 
  2 active torsions:
  status: ('A' for Active; 'I' for Inactive)
    1  A    between atoms: N_2  and  C_24
    2  A    between atoms: C_10  and  C_24
                            x       y       z     vdW  Elec       q    Type
                         _______ _______ _______ _____ _____    ______ ____

>  <TORSDO>
F 2

$$$$
=
 OpenBabel11052416523D

 32 38  0  0  1  0  0  0  0  0999 V2000
  188.0130  178.4480  137.1100 N   0  0  0  0  0  0  0  0  0  0  0  0
  188.2500  177.3920  142.1140 C   0  0  2  0  0  3  0  0  0  0  0  0
  184.1170  179.4530  143.8340 C   0  0  0  0  0  2  0  0  0  0  0  0
  184.3070  178.6270  144.9540 O   0  0  0  0  0  0  0  0  0  0  0  0
  189.9880  176.8870  143.7610 C   0  0  0  0  0  0  0  0  0  0  0  0
  190.3830  176.8220  145.1080 C   0  0  0  0  0  0  0  0  0  0  0  0
  188.7630  177.5120  139.7280 C   0  0  0  0  0  0  0  0  0  0  0  0
  186.6540  178.3810  140.5080 N   0  0  0  0  0  0  0  0  0  0  0  0
  191.1570  176.6910  147.8040 C   0  0  0  0  0  3  0  0  0  0  0  0
  187.2820  179.0130  138.2530 C   0  0  0  0  0  2  0  0  0  0  0  0
  184.7030  178.7670  142.6010 C   0  0  0  0  0  2  0  0  0  0  0  0
  186.7960  177.6540  141.7740 C   0  0  2  0  0  3  0  0  0  0  0  0
  186.0830  178.3340  142.8510 N   0  0  2  0  0  0  0  0  0  0  0  0
  187.7830  177.7090  144.4630 C   0  0  0  0  0  0  0  0  0  0  0  0
  192.0560  176.3230  146.7990 C   0  0  0  0  0  3  0  0  0  0  0  0
  189.4310  178.2280  137.4370 C   0  0  0  0  0  2  0  0  0  0  0  0
  187.5000  178.2520  139.5300 C   0  0  0  0  0  0  0  0  0  0  0  0
  191.6710  176.3880  145.4570 C   0  0  0  0  0  3  0  0  0  0  0  0
  189.6320  177.1990  138.5560 C   0  0  0  0  0  2  0  0  0  0  0  0
  185.6630  178.7390  145.3050 C   0  0  0  0  0  2  0  0  0  0  0  0
  186.5480  178.1950  144.2050 C   0  0  1  0  0  3  0  0  0  0  0  0
  188.2110  177.6300  145.7970 C   0  0  0  0  0  3  0  0  0  0  0  0
  189.1230  177.1230  140.9500 C   0  0  0  0  0  3  0  0  0  0  0  0
  190.9140  176.5010  142.7920 O   0  0  0  0  0  1  0  0  0  0  0  0
  189.8720  177.1260  147.4660 C   0  0  0  0  0  3  0  0  0  0  0  0
  188.6700  177.3190  143.4100 C   0  0  0  0  0  0  0  0  0  0  0  0
  189.4840  177.1910  146.1250 C   0  0  0  0  0  0  0  0  0  0  0  0
  187.3730  177.2060  136.6800 C   0  0  0  0  0  2  0  0  0  0  0  0
  185.0800  176.2890  136.7330 C   0  0  0  0  0  0  0  0  0  0  0  0
  185.9330  177.4720  136.2810 C   0  0  2  0  0  3  0  0  0  0  0  0
  185.5090  176.5350  135.2890 C   0  0  0  0  0  2  0  0  0  0  0  0
  184.5090  175.6380  137.5930 O   0  0  0  0  0  0  0  0  0  0  0  0
  1 16  1  0  0  0  0
  1 10  1  0  0  0  0
  2 23  1  1  0  0  0
  2 26  1  0  0  0  0
  3  4  1  0  0  0  0
  4 20  1  0  0  0  0
  5  6  1  0  0  0  0
  6 18  2  0  0  0  0
  6 27  1  0  0  0  0
  7 23  2  0  0  0  0
 10 17  1  0  0  0  0
 11  3  1  0  0  0  0
 12  8  1  6  0  0  0
 12  2  1  0  0  0  0
 12 13  1  0  0  0  0
 13 11  1  1  0  0  0
 13 21  1  0  0  0  0
 14 22  2  0  0  0  0
 15  9  2  0  0  0  0
 16 19  1  0  0  0  0
 17  7  1  0  0  0  0
 17  8  2  0  0  0  0
 18 15  1  0  0  0  0
 19  7  1  0  0  0  0
 21 14  1  0  0  0  0
 21 20  1  6  0  0  0
 22 27  1  0  0  0  0
 24  5  1  0  0  0  0
 25  9  1  0  0  0  0
 26  5  2  0  0  0  0
 26 14  1  0  0  0  0
 27 25  2  0  0  0  0
 28  1  1  0  0  0  0
 29 32  2  0  0  0  0
 30 28  1  1  0  0  0
 30 29  1  0  0  0  0
 31 30  1  0  0  0  0
 31 29  1  0  0  0  0
M  END
>  <MODEL>
7

>  <REMARK>
 VINA RESULT:      -9.2      3.159      5.883
  Name = 
  2 active torsions:
  status: ('A' for Active; 'I' for Inactive)
    1  A    between atoms: N_2  and  C_24
    2  A    between atoms: C_10  and  C_24
                            x       y       z     vdW  Elec       q    Type
                         _______ _______ _______ _____ _____    ______ ____

>  <TORSDO>
F 2

$$$$
=
 OpenBabel11052416523D

 32 38  0  0  1  0  0  0  0  0999 V2000
  182.1660  179.3520  143.7900 N   0  0  0  0  0  0  0  0  0  0  0  0
  186.9830  177.6880  143.3080 C   0  0  2  0  0  3  0  0  0  0  0  0
  188.6290  177.8320  147.9510 C   0  0  0  0  0  2  0  0  0  0  0  0
  189.6390  176.9660  147.5000 O   0  0  0  0  0  0  0  0  0  0  0  0
  188.6810  177.5920  141.5480 C   0  0  0  0  0  0  0  0  0  0  0  0
  190.0340  177.4650  141.1920 C   0  0  0  0  0  0  0  0  0  0  0  0
  184.6850  178.3540  142.8150 C   0  0  0  0  0  0  0  0  0  0  0  0
  185.4030  178.2740  145.1150 N   0  0  0  0  0  0  0  0  0  0  0  0
  192.7410  177.2030  140.4920 C   0  0  0  0  0  3  0  0  0  0  0  0
  183.3120  179.4320  144.7060 C   0  0  0  0  0  2  0  0  0  0  0  0
  187.3660  177.6030  147.1230 C   0  0  0  0  0  2  0  0  0  0  0  0
  186.5670  177.4590  144.7480 C   0  0  2  0  0  3  0  0  0  0  0  0
  187.6650  177.6620  145.6880 N   0  0  2  0  0  0  0  0  0  0  0  0
  189.3080  177.4470  143.9180 C   0  0  0  0  0  0  0  0  0  0  0  0
  191.7710  177.3440  139.4960 C   0  0  0  0  0  3  0  0  0  0  0  0
  182.5730  179.6080  142.3990 C   0  0  0  0  0  2  0  0  0  0  0  0
  184.4880  178.6120  144.2560 C   0  0  0  0  0  0  0  0  0  0  0  0
  190.4240  177.4740  139.8430 C   0  0  0  0  0  3  0  0  0  0  0  0
  183.5550  178.5600  141.8620 C   0  0  0  0  0  2  0  0  0  0  0  0
  190.1090  177.5030  146.2890 C   0  0  0  0  0  2  0  0  0  0  0  0
  189.0210  177.4900  145.2380 C   0  0  1  0  0  3  0  0  0  0  0  0
  190.6490  177.3210  143.5250 C   0  0  0  0  0  3  0  0  0  0  0  0
  185.8680  177.9350  142.3680 C   0  0  0  0  0  3  0  0  0  0  0  0
  187.7470  177.7200  140.5220 O   0  0  0  0  0  1  0  0  0  0  0  0
  192.3630  177.1940  141.8380 C   0  0  0  0  0  3  0  0  0  0  0  0
  188.2870  177.5700  142.9240 C   0  0  0  0  0  0  0  0  0  0  0  0
  191.0160  177.3230  142.1890 C   0  0  0  0  0  0  0  0  0  0  0  0
  181.5220  178.0460  143.9180 C   0  0  0  0  0  2  0  0  0  0  0  0
  179.3450  178.2700  142.7710 C   0  0  0  0  0  0  0  0  0  0  0  0
  180.0300  178.2190  144.1350 C   0  0  2  0  0  3  0  0  0  0  0  0
  179.5990  179.4930  143.6500 C   0  0  0  0  0  2  0  0  0  0  0  0
  178.9310  177.7420  141.7520 O   0  0  0  0  0  0  0  0  0  0  0  0
  1 28  1  0  0  0  0
  1 10  1  0  0  0  0
  2 23  1  6  0  0  0
  2 12  1  0  0  0  0
  4  3  1  0  0  0  0
  5 26  1  0  0  0  0
  6  5  2  0  0  0  0
  6 27  1  0  0  0  0
  7 17  1  0  0  0  0
  9 25  2  0  0  0  0
 11  3  1  0  0  0  0
 12  8  1  1  0  0  0
 12 13  1  0  0  0  0
 13 11  1  1  0  0  0
 14 21  1  0  0  0  0
 15 18  2  0  0  0  0
 15  9  1  0  0  0  0
 16  1  1  0  0  0  0
 17 10  1  0  0  0  0
 17  8  2  0  0  0  0
 18  6  1  0  0  0  0
 19 16  1  0  0  0  0
 19  7  1  0  0  0  0
 20  4  1  0  0  0  0
 21 13  1  0  0  0  0
 21 20  1  6  0  0  0
 22 14  1  0  0  0  0
 23  7  2  0  0  0  0
 24  5  1  0  0  0  0
 25 27  1  0  0  0  0
 26  2  1  0  0  0  0
 26 14  2  0  0  0  0
 27 22  2  0  0  0  0
 29 31  1  0  0  0  0
 29 30  1  0  0  0  0
 30 28  1  6  0  0  0
 31 30  1  0  0  0  0
 32 29  2  0  0  0  0
M  END
>  <MODEL>
8

>  <REMARK>
 VINA RESULT:      -8.6      2.439      5.168
  Name = 
  2 active torsions:
  status: ('A' for Active; 'I' for Inactive)
    1  A    between atoms: N_2  and  C_24
    2  A    between atoms: C_10  and  C_24
                            x       y       z     vdW  Elec       q    Type
                         _______ _______ _______ _____ _____    ______ ____

>  <TORSDO>
F 2

$$$$
=
 OpenBabel11052416523D

 32 38  0  0  1  0  0  0  0  0999 V2000
  191.4140  177.8800  145.8170 N   0  0  0  0  0  0  0  0  0  0  0  0
  187.0330  177.8200  143.1700 C   0  0  2  0  0  3  0  0  0  0  0  0
  188.5790  178.4740  138.5360 C   0  0  0  0  0  2  0  0  0  0  0  0
  187.3220  177.9700  138.1660 O   0  0  0  0  0  0  0  0  0  0  0  0
  184.6660  178.2650  143.6060 C   0  0  0  0  0  0  0  0  0  0  0  0
  183.3900  178.5720  143.1040 C   0  0  0  0  0  0  0  0  0  0  0  0
  188.6600  177.7280  144.9900 C   0  0  0  0  0  0  0  0  0  0  0  0
  189.4620  177.8780  142.7210 N   0  0  0  0  0  0  0  0  0  0  0  0
  180.8440  179.1770  142.0870 C   0  0  0  0  0  3  0  0  0  0  0  0
  191.1060  178.3170  144.4480 C   0  0  0  0  0  2  0  0  0  0  0  0
  188.9910  177.8580  139.8730 C   0  0  0  0  0  2  0  0  0  0  0  0
  188.1500  177.4710  142.2060 C   0  0  2  0  0  3  0  0  0  0  0  0
  187.9230  178.0090  140.8680 N   0  0  2  0  0  0  0  0  0  0  0  0
  185.5620  178.3240  141.3200 C   0  0  0  0  0  0  0  0  0  0  0  0
  181.0250  179.0050  143.4620 C   0  0  0  0  0  3  0  0  0  0  0  0
  190.3410  178.2530  146.7530 C   0  0  0  0  0  2  0  0  0  0  0  0
  189.7340  177.9100  143.9920 C   0  0  0  0  0  0  0  0  0  0  0  0
  182.2930  178.7030  143.9690 C   0  0  0  0  0  3  0  0  0  0  0  0
  189.0060  177.5680  146.4320 C   0  0  0  0  0  2  0  0  0  0  0  0
  186.3780  178.6280  138.9740 C   0  0  0  0  0  2  0  0  0  0  0  0
  186.5790  178.2740  140.4310 C   0  0  1  0  0  3  0  0  0  0  0  0
  184.2740  178.6280  140.8550 C   0  0  0  0  0  3  0  0  0  0  0  0
  187.3860  177.7030  144.6020 C   0  0  0  0  0  3  0  0  0  0  0  0
  184.8000  178.0930  144.9830 O   0  0  0  0  0  1  0  0  0  0  0  0
  181.9300  179.0490  141.2180 C   0  0  0  0  0  3  0  0  0  0  0  0
  185.7800  178.1200  142.7200 C   0  0  0  0  0  0  0  0  0  0  0  0
  183.1990  178.7460  141.7210 C   0  0  0  0  0  0  0  0  0  0  0  0
  191.6500  176.4380  145.8340 C   0  0  0  0  0  2  0  0  0  0  0  0
  192.4670  176.0550  148.1330 C   0  0  0  0  0  0  0  0  0  0  0  0
  191.2820  175.8650  147.1900 C   0  0  2  0  0  3  0  0  0  0  0  0
  192.0900  174.7240  147.4870 C   0  0  0  0  0  2  0  0  0  0  0  0
  193.1810  176.7440  148.8440 O   0  0  0  0  0  0  0  0  0  0  0  0
  1 28  1  0  0  0  0
  1 16  1  0  0  0  0
  2 23  1  1  0  0  0
  3 11  1  0  0  0  0
  4  3  1  0  0  0  0
  4 20  1  0  0  0  0
  5 24  1  0  0  0  0
  6  5  1  0  0  0  0
  6 18  1  0  0  0  0
  7 19  1  0  0  0  0
  8 17  2  0  0  0  0
  9 15  1  0  0  0  0
 10  1  1  0  0  0  0
 12  8  1  1  0  0  0
 12  2  1  0  0  0  0
 13 11  1  6  0  0  0
 13 12  1  0  0  0  0
 14 26  1  0  0  0  0
 15 18  2  0  0  0  0
 17 10  1  0  0  0  0
 17  7  1  0  0  0  0
 19 16  1  0  0  0  0
 21 20  1  1  0  0  0
 21 13  1  0  0  0  0
 21 14  1  0  0  0  0
 22 14  2  0  0  0  0
 22 27  1  0  0  0  0
 23  7  2  0  0  0  0
 25 27  1  0  0  0  0
 25  9  2  0  0  0  0
 26  2  1  0  0  0  0
 26  5  2  0  0  0  0
 27  6  2  0  0  0  0
 29 32  2  0  0  0  0
 30 28  1  6  0  0  0
 30 31  1  0  0  0  0
 30 29  1  0  0  0  0
 31 29  1  0  0  0  0
M  END
>  <MODEL>
9

>  <REMARK>
 VINA RESULT:      -8.5      2.593      8.376
  Name = 
  2 active torsions:
  status: ('A' for Active; 'I' for Inactive)
    1  A    between atoms: N_2  and  C_24
    2  A    between atoms: C_10  and  C_24
                            x       y       z     vdW  Elec       q    Type
                         _______ _______ _______ _____ _____    ______ ____

>  <TORSDO>
F 2

$$$$
