=
 OpenBabel11052413193D

 31 34  0  0  1  0  0  0  0  0999 V2000
  187.8540  177.6450  144.0210 C   0  0  0  0  0  0  0  0  0  0  0  0
  186.7010  178.0150  144.7510 C   0  0  0  0  0  0  0  0  0  0  0  0
  185.5080  178.3570  146.8430 C   0  0  0  0  0  3  0  0  0  0  0  0
  189.1220  177.2150  144.6540 C   0  0  0  0  0  0  0  0  0  0  0  0
  190.8200  176.7500  145.9290 C   0  0  0  0  0  0  0  0  0  0  0  0
  186.6650  177.9900  146.1530 C   0  0  0  0  0  3  0  0  0  0  0  0
  189.0730  177.3710  141.7830 C   0  0  2  0  0  3  0  0  0  0  0  0
  185.5530  178.4500  142.6840 N   0  0  0  0  0  0  0  0  0  0  0  0
  184.3700  178.7540  146.1380 C   0  0  0  0  0  3  0  0  0  0  0  0
  190.0580  176.4020  142.4640 C   0  0  0  0  0  2  0  0  0  0  0  0
  187.8170  177.6600  142.6060 C   0  0  0  0  0  0  0  0  0  0  0  0
  189.5380  177.2810  145.9730 C   0  0  0  0  0  3  0  0  0  0  0  0
  183.2410  179.1840  144.0570 O   0  0  0  0  0  1  0  0  0  0  0  0
  190.1480  176.6760  143.9280 C   0  0  0  0  0  0  0  0  0  0  0  0
  191.1580  176.3960  144.7080 O   0  0  0  0  0  0  0  0  0  0  0  0
  186.6490  178.0970  141.9670 C   0  0  0  0  0  3  0  0  0  0  0  0
  185.5420  178.4160  144.0430 C   0  0  0  0  0  0  0  0  0  0  0  0
  184.3830  178.7860  144.7420 C   0  0  0  0  0  0  0  0  0  0  0  0
  191.6810  176.5980  147.0670 C   0  0  0  0  0  0  0  0  0  0  0  0
  192.3750  176.4750  147.9860 N   0  0  0  0  0  0  0  0  0  0  0  0
  188.7370  176.8440  140.3890 C   0  0  0  0  0  2  0  0  0  0  0  0
  189.0400  179.0990  139.6000 O   0  0  0  0  0  1  0  0  0  0  0  0
  190.7130  177.5150  139.0230 C   0  0  0  0  0  1  0  0  0  0  0  0
  189.2340  177.7560  139.2640 C   0  0  1  0  0  0  0  0  0  0  0  0
  188.4840  177.4340  137.9710 C   0  0  0  0  0  2  0  0  0  0  0  0
  187.6960  179.3020  136.7240 O   0  0  0  0  0  0  0  0  0  0  0  0
  187.4520  178.4630  137.6320 C   0  0  0  0  0  0  0  0  0  0  0  0
  185.1020  177.8880  138.0610 C   0  0  0  0  0  0  0  0  0  0  0  0
  184.9330  177.0590  136.8300 C   0  0  0  0  0  1  0  0  0  0  0  0
  183.9320  178.0500  138.9630 C   0  0  0  0  0  1  0  0  0  0  0  0
  186.2170  178.4860  138.3660 N   0  0  0  0  0  0  0  0  0  0  0  0
  1  4  1  0  0  0  0
  1  2  1  0  0  0  0
  2  6  1  0  0  0  0
  4 12  1  0  0  0  0
  5 12  2  0  0  0  0
  5 19  1  0  0  0  0
  6  3  2  0  0  0  0
  7 21  1  6  0  0  0
  7 10  1  0  0  0  0
  7 11  1  0  0  0  0
  8 17  1  0  0  0  0
  9  3  1  0  0  0  0
 10 14  1  0  0  0  0
 11  1  2  0  0  0  0
 13 18  1  0  0  0  0
 14  4  2  0  0  0  0
 14 15  1  0  0  0  0
 15  5  1  0  0  0  0
 16 11  1  0  0  0  0
 16  8  2  0  0  0  0
 17 18  1  0  0  0  0
 17  2  2  0  0  0  0
 18  9  2  0  0  0  0
 19 20  3  0  0  0  0
 24 23  1  6  0  0  0
 24 22  1  0  0  0  0
 24 21  1  0  0  0  0
 25 24  1  0  0  0  0
 26 27  2  0  0  0  0
 27 25  1  0  0  0  0
 27 31  1  0  0  0  0
 28 31  2  0  0  0  0
 28 30  1  0  0  0  0
 29 28  1  0  0  0  0
M  END
>  <MODEL>
1

>  <REMARK>
 VINA RESULT:      -9.3      0.000      0.000
  Name = 
  6 active torsions:
  status: ('A' for Active; 'I' for Inactive)
    1  A    between atoms: C_2  and  C_13
    2  A    between atoms: C_9  and  C_22
    3  A    between atoms: C_9  and  C_23
    4  A    between atoms: C_15  and  C_23
    5  A    between atoms: C_19  and  C_22
    6  A    between atoms: C_19  and  N_24
                            x       y       z     vdW  Elec       q    Type
                         _______ _______ _______ _____ _____    ______ ____

>  <TORSDO>
F 6

$$$$
=
 OpenBabel11052413193D

 31 34  0  0  1  0  0  0  0  0999 V2000
  188.3500  177.4630  144.3560 C   0  0  0  0  0  0  0  0  0  0  0  0
  187.1910  177.8480  145.0680 C   0  0  0  0  0  0  0  0  0  0  0  0
  185.9670  178.1980  147.1410 C   0  0  0  0  0  3  0  0  0  0  0  0
  189.5990  177.0070  145.0080 C   0  0  0  0  0  0  0  0  0  0  0  0
  191.2660  176.5050  146.3100 C   0  0  0  0  0  0  0  0  0  0  0  0
  187.1300  177.8150  146.4690 C   0  0  0  0  0  3  0  0  0  0  0  0
  189.6030  177.1810  142.1380 C   0  0  2  0  0  3  0  0  0  0  0  0
  186.0870  178.3140  142.9840 N   0  0  0  0  0  0  0  0  0  0  0  0
  184.8490  178.6190  146.4190 C   0  0  0  0  0  3  0  0  0  0  0  0
  190.5590  176.1910  142.8300 C   0  0  0  0  0  2  0  0  0  0  0  0
  188.3370  177.4860  142.9400 C   0  0  0  0  0  0  0  0  0  0  0  0
  189.9930  177.0580  146.3350 C   0  0  0  0  0  3  0  0  0  0  0  0
  183.7640  179.0800  144.3210 O   0  0  0  0  0  1  0  0  0  0  0  0
  190.6290  176.4550  144.2960 C   0  0  0  0  0  0  0  0  0  0  0  0
  191.6200  176.1530  145.0930 O   0  0  0  0  0  0  0  0  0  0  0  0
  187.1890  177.9470  142.2840 C   0  0  0  0  0  3  0  0  0  0  0  0
  186.0510  178.2730  144.3420 C   0  0  0  0  0  0  0  0  0  0  0  0
  184.8870  178.6580  145.0240 C   0  0  0  0  0  0  0  0  0  0  0  0
  192.1040  176.3320  147.4620 C   0  0  0  0  0  0  0  0  0  0  0  0
  192.7810  176.1930  148.3910 N   0  0  0  0  0  0  0  0  0  0  0  0
  189.2820  176.6670  140.7340 C   0  0  0  0  0  2  0  0  0  0  0  0
  191.3300  177.8340  140.2380 O   0  0  0  0  0  1  0  0  0  0  0  0
  190.6460  176.1470  138.7130 C   0  0  0  0  0  1  0  0  0  0  0  0
  190.2010  177.2480  139.6570 C   0  0  1  0  0  0  0  0  0  0  0  0
  189.4400  178.2940  138.8410 C   0  0  0  0  0  2  0  0  0  0  0  0
  187.0790  178.5330  139.0160 O   0  0  0  0  0  0  0  0  0  0  0  0
  188.0370  177.8750  138.5320 C   0  0  0  0  0  0  0  0  0  0  0  0
  187.6450  176.6800  136.4210 C   0  0  0  0  0  0  0  0  0  0  0  0
  187.6370  177.9040  135.5660 C   0  0  0  0  0  1  0  0  0  0  0  0
  187.4240  175.3650  135.7640 C   0  0  0  0  0  1  0  0  0  0  0  0
  187.8170  176.7160  137.7100 N   0  0  0  0  0  0  0  0  0  0  0  0
  1  4  1  0  0  0  0
  1  2  1  0  0  0  0
  2  6  1  0  0  0  0
  4 12  1  0  0  0  0
  5 12  2  0  0  0  0
  5 19  1  0  0  0  0
  6  3  2  0  0  0  0
  7 21  1  6  0  0  0
  7 10  1  0  0  0  0
  7 11  1  0  0  0  0
  8 17  1  0  0  0  0
  9  3  1  0  0  0  0
 10 14  1  0  0  0  0
 11  1  2  0  0  0  0
 13 18  1  0  0  0  0
 14  4  2  0  0  0  0
 14 15  1  0  0  0  0
 15  5  1  0  0  0  0
 16 11  1  0  0  0  0
 16  8  2  0  0  0  0
 17 18  1  0  0  0  0
 17  2  2  0  0  0  0
 18  9  2  0  0  0  0
 19 20  3  0  0  0  0
 24 23  1  6  0  0  0
 24 22  1  0  0  0  0
 24 21  1  0  0  0  0
 25 24  1  0  0  0  0
 27 25  1  0  0  0  0
 27 26  2  0  0  0  0
 28 31  2  0  0  0  0
 29 28  1  0  0  0  0
 30 28  1  0  0  0  0
 31 27  1  0  0  0  0
M  END
>  <MODEL>
2

>  <REMARK>
 VINA RESULT:      -9.1      1.415      1.655
  Name = 
  6 active torsions:
  status: ('A' for Active; 'I' for Inactive)
    1  A    between atoms: C_2  and  C_13
    2  A    between atoms: C_9  and  C_22
    3  A    between atoms: C_9  and  C_23
    4  A    between atoms: C_15  and  C_23
    5  A    between atoms: C_19  and  C_22
    6  A    between atoms: C_19  and  N_24
                            x       y       z     vdW  Elec       q    Type
                         _______ _______ _______ _____ _____    ______ ____

>  <TORSDO>
F 6

$$$$
=
 OpenBabel11052413193D

 31 34  0  0  1  0  0  0  0  0999 V2000
  188.3430  177.6490  143.6430 C   0  0  0  0  0  0  0  0  0  0  0  0
  188.8860  177.4100  144.9260 C   0  0  0  0  0  0  0  0  0  0  0  0
  188.6910  177.3020  147.3490 C   0  0  0  0  0  3  0  0  0  0  0  0
  186.9350  178.0400  143.4080 C   0  0  0  0  0  0  0  0  0  0  0  0
  184.8070  178.4860  143.4560 C   0  0  0  0  0  0  0  0  0  0  0  0
  188.1220  177.5410  146.0960 C   0  0  0  0  0  3  0  0  0  0  0  0
  188.6000  177.6770  141.0930 C   0  0  2  0  0  3  0  0  0  0  0  0
  191.0060  176.9010  143.9160 N   0  0  0  0  0  0  0  0  0  0  0  0
  190.0330  176.9300  147.4480 C   0  0  0  0  0  3  0  0  0  0  0  0
  187.3910  178.6260  141.0040 C   0  0  0  0  0  2  0  0  0  0  0  0
  189.1750  177.5330  142.5030 C   0  0  0  0  0  0  0  0  0  0  0  0
  185.8460  178.0450  144.2640 C   0  0  0  0  0  3  0  0  0  0  0  0
  192.1460  176.4230  146.4140 O   0  0  0  0  0  1  0  0  0  0  0  0
  186.4920  178.4560  142.1820 C   0  0  0  0  0  0  0  0  0  0  0  0
  185.2140  178.7260  142.2280 O   0  0  0  0  0  0  0  0  0  0  0  0
  190.5040  177.1270  142.6770 C   0  0  0  0  0  3  0  0  0  0  0  0
  190.2470  177.0350  145.0350 C   0  0  0  0  0  0  0  0  0  0  0  0
  190.8120  176.7950  146.2970 C   0  0  0  0  0  0  0  0  0  0  0  0
  183.4520  178.6650  143.8920 C   0  0  0  0  0  0  0  0  0  0  0  0
  182.3580  178.8090  144.2440 N   0  0  0  0  0  0  0  0  0  0  0  0
  189.6600  178.1210  140.0840 C   0  0  0  0  0  2  0  0  0  0  0  0
  188.9930  179.2560  138.0690 O   0  0  0  0  0  1  0  0  0  0  0  0
  190.2470  177.2560  137.8200 C   0  0  0  0  0  1  0  0  0  0  0  0
  189.1970  177.9930  138.6310 C   0  0  1  0  0  0  0  0  0  0  0  0
  187.9000  177.1870  138.5730 C   0  0  0  0  0  2  0  0  0  0  0  0
  186.9410  177.5040  136.4180 O   0  0  0  0  0  0  0  0  0  0  0  0
  186.8900  177.7850  137.6440 C   0  0  0  0  0  0  0  0  0  0  0  0
  184.6560  178.4240  138.4440 C   0  0  0  0  0  0  0  0  0  0  0  0
  184.0390  177.0810  138.2250 C   0  0  0  0  0  1  0  0  0  0  0  0
  183.7960  179.5110  138.9790 C   0  0  0  0  0  1  0  0  0  0  0  0
  185.9010  178.6860  138.1700 N   0  0  0  0  0  0  0  0  0  0  0  0
  1  2  1  0  0  0  0
  2 17  2  0  0  0  0
  2  6  1  0  0  0  0
  3  9  1  0  0  0  0
  4  1  1  0  0  0  0
  4 12  1  0  0  0  0
  5 19  1  0  0  0  0
  5 12  2  0  0  0  0
  6  3  2  0  0  0  0
  7 21  1  6  0  0  0
  7 11  1  0  0  0  0
  8 17  1  0  0  0  0
 10  7  1  0  0  0  0
 10 14  1  0  0  0  0
 11 16  1  0  0  0  0
 11  1  2  0  0  0  0
 14 15  1  0  0  0  0
 14  4  2  0  0  0  0
 15  5  1  0  0  0  0
 16  8  2  0  0  0  0
 17 18  1  0  0  0  0
 18 13  1  0  0  0  0
 18  9  2  0  0  0  0
 19 20  3  0  0  0  0
 22 24  1  0  0  0  0
 24 23  1  6  0  0  0
 24 21  1  0  0  0  0
 25 24  1  0  0  0  0
 26 27  2  0  0  0  0
 27 31  1  0  0  0  0
 27 25  1  0  0  0  0
 28 30  1  0  0  0  0
 29 28  1  0  0  0  0
 31 28  2  0  0  0  0
M  END
>  <MODEL>
3

>  <REMARK>
 VINA RESULT:      -8.9      1.643      4.560
  Name = 
  6 active torsions:
  status: ('A' for Active; 'I' for Inactive)
    1  A    between atoms: C_2  and  C_13
    2  A    between atoms: C_9  and  C_22
    3  A    between atoms: C_9  and  C_23
    4  A    between atoms: C_15  and  C_23
    5  A    between atoms: C_19  and  C_22
    6  A    between atoms: C_19  and  N_24
                            x       y       z     vdW  Elec       q    Type
                         _______ _______ _______ _____ _____    ______ ____

>  <TORSDO>
F 6

$$$$
=
 OpenBabel11052413193D

 31 34  0  0  1  0  0  0  0  0999 V2000
  188.1730  177.7180  143.5960 C   0  0  0  0  0  0  0  0  0  0  0  0
  188.7230  177.5130  144.8830 C   0  0  0  0  0  0  0  0  0  0  0  0
  188.5330  177.4460  147.3070 C   0  0  0  0  0  3  0  0  0  0  0  0
  186.7580  178.0810  143.3570 C   0  0  0  0  0  0  0  0  0  0  0  0
  184.6240  178.4900  143.4000 C   0  0  0  0  0  0  0  0  0  0  0  0
  187.9590  177.6520  146.0520 C   0  0  0  0  0  3  0  0  0  0  0  0
  188.4270  177.7030  141.0460 C   0  0  2  0  0  3  0  0  0  0  0  0
  190.8500  177.0210  143.8790 N   0  0  0  0  0  0  0  0  0  0  0  0
  189.8810  177.0990  147.4110 C   0  0  0  0  0  3  0  0  0  0  0  0
  187.2010  178.6300  140.9420 C   0  0  0  0  0  2  0  0  0  0  0  0
  189.0060  177.5950  142.4570 C   0  0  0  0  0  0  0  0  0  0  0  0
  185.6710  178.0820  144.2150 C   0  0  0  0  0  3  0  0  0  0  0  0
  192.0020  176.6100  146.3830 O   0  0  0  0  0  1  0  0  0  0  0  0
  186.3070  178.4650  142.1240 C   0  0  0  0  0  0  0  0  0  0  0  0
  185.0250  178.7140  142.1680 O   0  0  0  0  0  0  0  0  0  0  0  0
  190.3420  177.2160  142.6360 C   0  0  0  0  0  3  0  0  0  0  0  0
  190.0900  177.1630  144.9960 C   0  0  0  0  0  0  0  0  0  0  0  0
  190.6610  176.9560  146.2620 C   0  0  0  0  0  0  0  0  0  0  0  0
  183.2660  178.6530  143.8360 C   0  0  0  0  0  0  0  0  0  0  0  0
  182.1700  178.7840  144.1880 N   0  0  0  0  0  0  0  0  0  0  0  0
  189.4760  178.1460  140.0280 C   0  0  0  0  0  2  0  0  0  0  0  0
  188.5480  176.2930  138.8020 O   0  0  0  0  0  1  0  0  0  0  0  0
  189.7330  177.9300  137.5570 C   0  0  0  0  0  1  0  0  0  0  0  0
  189.6380  177.1650  138.8640 C   0  0  1  0  0  0  0  0  0  0  0  0
  190.9290  176.3650  139.0410 C   0  0  0  0  0  2  0  0  0  0  0  0
  190.6880  174.3720  137.7630 O   0  0  0  0  0  0  0  0  0  0  0  0
  191.2380  175.5010  137.8590 C   0  0  0  0  0  0  0  0  0  0  0  0
  193.4560  175.7440  136.8300 C   0  0  0  0  0  0  0  0  0  0  0  0
  194.1780  174.9380  137.8600 C   0  0  0  0  0  1  0  0  0  0  0  0
  194.2480  176.3320  135.7180 C   0  0  0  0  0  1  0  0  0  0  0  0
  192.1750  175.9680  136.8740 N   0  0  0  0  0  0  0  0  0  0  0  0
  1  2  1  0  0  0  0
  2 17  2  0  0  0  0
  2  6  1  0  0  0  0
  3  9  1  0  0  0  0
  4  1  1  0  0  0  0
  4 12  1  0  0  0  0
  5 19  1  0  0  0  0
  5 12  2  0  0  0  0
  6  3  2  0  0  0  0
  7 21  1  6  0  0  0
  7 11  1  0  0  0  0
  8 17  1  0  0  0  0
 10  7  1  0  0  0  0
 10 14  1  0  0  0  0
 11 16  1  0  0  0  0
 11  1  2  0  0  0  0
 14 15  1  0  0  0  0
 14  4  2  0  0  0  0
 15  5  1  0  0  0  0
 16  8  2  0  0  0  0
 17 18  1  0  0  0  0
 18 13  1  0  0  0  0
 18  9  2  0  0  0  0
 19 20  3  0  0  0  0
 22 24  1  0  0  0  0
 24 23  1  6  0  0  0
 24 25  1  0  0  0  0
 24 21  1  0  0  0  0
 26 27  2  0  0  0  0
 27 25  1  0  0  0  0
 28 31  2  0  0  0  0
 28 29  1  0  0  0  0
 30 28  1  0  0  0  0
 31 27  1  0  0  0  0
M  END
>  <MODEL>
4

>  <REMARK>
 VINA RESULT:      -8.9      2.628      5.789
  Name = 
  6 active torsions:
  status: ('A' for Active; 'I' for Inactive)
    1  A    between atoms: C_2  and  C_13
    2  A    between atoms: C_9  and  C_22
    3  A    between atoms: C_9  and  C_23
    4  A    between atoms: C_15  and  C_23
    5  A    between atoms: C_19  and  C_22
    6  A    between atoms: C_19  and  N_24
                            x       y       z     vdW  Elec       q    Type
                         _______ _______ _______ _____ _____    ______ ____

>  <TORSDO>
F 6

$$$$
=
 OpenBabel11052413193D

 31 34  0  0  1  0  0  0  0  0999 V2000
  187.3480  177.9750  143.8010 C   0  0  0  0  0  0  0  0  0  0  0  0
  187.8050  177.7170  145.1140 C   0  0  0  0  0  0  0  0  0  0  0  0
  187.4340  177.5230  147.5110 C   0  0  0  0  0  3  0  0  0  0  0  0
  185.9460  178.3160  143.4720 C   0  0  0  0  0  0  0  0  0  0  0  0
  183.8040  178.6720  143.3710 C   0  0  0  0  0  0  0  0  0  0  0  0
  186.9510  177.7790  146.2260 C   0  0  0  0  0  3  0  0  0  0  0  0
  187.7940  178.0960  141.2800 C   0  0  2  0  0  3  0  0  0  0  0  0
  190.0140  177.3280  144.2530 N   0  0  0  0  0  0  0  0  0  0  0  0
  188.7800  177.2020  147.7000 C   0  0  0  0  0  3  0  0  0  0  0  0
  186.5550  178.9980  141.1270 C   0  0  0  0  0  2  0  0  0  0  0  0
  188.2670  177.9300  142.7240 C   0  0  0  0  0  0  0  0  0  0  0  0
  184.7980  178.2480  144.2420 C   0  0  0  0  0  3  0  0  0  0  0  0
  190.9840  176.8170  146.8160 O   0  0  0  0  0  1  0  0  0  0  0  0
  185.5790  178.7520  142.2280 C   0  0  0  0  0  0  0  0  0  0  0  0
  184.2900  178.9680  142.1850 O   0  0  0  0  0  0  0  0  0  0  0  0
  189.5960  177.5740  142.9860 C   0  0  0  0  0  3  0  0  0  0  0  0
  189.1680  177.3940  145.3150 C   0  0  0  0  0  0  0  0  0  0  0  0
  189.6470  177.1370  146.6080 C   0  0  0  0  0  0  0  0  0  0  0  0
  182.4130  178.7800  143.7080 C   0  0  0  0  0  0  0  0  0  0  0  0
  181.2910  178.8670  143.9810 N   0  0  0  0  0  0  0  0  0  0  0  0
  188.9050  178.6160  140.3680 C   0  0  0  0  0  2  0  0  0  0  0  0
  188.1460  176.7990  138.9820 O   0  0  0  0  0  1  0  0  0  0  0  0
  189.4450  178.4890  137.9370 C   0  0  0  0  0  1  0  0  0  0  0  0
  189.2110  177.6780  139.1970 C   0  0  1  0  0  0  0  0  0  0  0  0
  190.4830  176.8840  139.4930 C   0  0  0  0  0  2  0  0  0  0  0  0
  191.8680  176.7560  137.5620 O   0  0  0  0  0  0  0  0  0  0  0  0
  191.0160  176.1770  138.2870 C   0  0  0  0  0  0  0  0  0  0  0  0
  189.7860  174.5180  136.9550 C   0  0  0  0  0  0  0  0  0  0  0  0
  189.3040  175.4910  135.9300 C   0  0  0  0  0  1  0  0  0  0  0  0
  189.3800  173.0950  136.8160 C   0  0  0  0  0  1  0  0  0  0  0  0
  190.5250  174.8640  137.9690 N   0  0  0  0  0  0  0  0  0  0  0  0
  1  2  1  0  0  0  0
  2 17  2  0  0  0  0
  2  6  1  0  0  0  0
  3  9  1  0  0  0  0
  4  1  1  0  0  0  0
  4 12  1  0  0  0  0
  5 19  1  0  0  0  0
  5 12  2  0  0  0  0
  6  3  2  0  0  0  0
  7 21  1  6  0  0  0
  7 11  1  0  0  0  0
  8 17  1  0  0  0  0
 10  7  1  0  0  0  0
 10 14  1  0  0  0  0
 11 16  1  0  0  0  0
 11  1  2  0  0  0  0
 14  4  2  0  0  0  0
 15 14  1  0  0  0  0
 15  5  1  0  0  0  0
 16  8  2  0  0  0  0
 17 18  1  0  0  0  0
 18 13  1  0  0  0  0
 18  9  2  0  0  0  0
 19 20  3  0  0  0  0
 22 24  1  0  0  0  0
 24 23  1  6  0  0  0
 24 25  1  0  0  0  0
 24 21  1  0  0  0  0
 26 27  2  0  0  0  0
 27 25  1  0  0  0  0
 28 31  2  0  0  0  0
 29 28  1  0  0  0  0
 30 28  1  0  0  0  0
 31 27  1  0  0  0  0
M  END
>  <MODEL>
5

>  <REMARK>
 VINA RESULT:      -8.5      2.416      5.252
  Name = 
  6 active torsions:
  status: ('A' for Active; 'I' for Inactive)
    1  A    between atoms: C_2  and  C_13
    2  A    between atoms: C_9  and  C_22
    3  A    between atoms: C_9  and  C_23
    4  A    between atoms: C_15  and  C_23
    5  A    between atoms: C_19  and  C_22
    6  A    between atoms: C_19  and  N_24
                            x       y       z     vdW  Elec       q    Type
                         _______ _______ _______ _____ _____    ______ ____

>  <TORSDO>
F 6

$$$$
=
 OpenBabel11052413193D

 31 34  0  0  1  0  0  0  0  0999 V2000
  187.6330  177.7180  143.8460 C   0  0  0  0  0  0  0  0  0  0  0  0
  186.4950  178.0360  144.6220 C   0  0  0  0  0  0  0  0  0  0  0  0
  185.3520  178.2530  146.7590 C   0  0  0  0  0  3  0  0  0  0  0  0
  188.9200  177.2680  144.4240 C   0  0  0  0  0  0  0  0  0  0  0  0
  190.6540  176.7520  145.6300 C   0  0  0  0  0  0  0  0  0  0  0  0
  186.4940  177.9350  146.0220 C   0  0  0  0  0  3  0  0  0  0  0  0
  188.7980  177.5770  141.5680 C   0  0  2  0  0  3  0  0  0  0  0  0
  185.2920  178.5690  142.6110 N   0  0  0  0  0  0  0  0  0  0  0  0
  184.1930  178.6750  146.1040 C   0  0  0  0  0  3  0  0  0  0  0  0
  189.8080  176.5830  142.1710 C   0  0  0  0  0  2  0  0  0  0  0  0
  187.5600  177.8080  142.4350 C   0  0  0  0  0  0  0  0  0  0  0  0
  189.3690  177.2670  145.7340 C   0  0  0  0  0  3  0  0  0  0  0  0
  183.0090  179.2040  144.0770 O   0  0  0  0  0  1  0  0  0  0  0  0
  189.9330  176.7790  143.6440 C   0  0  0  0  0  0  0  0  0  0  0  0
  190.9650  176.4680  144.3840 O   0  0  0  0  0  0  0  0  0  0  0  0
  186.3730  178.2670  141.8490 C   0  0  0  0  0  3  0  0  0  0  0  0
  185.3160  178.4620  143.9660 C   0  0  0  0  0  0  0  0  0  0  0  0
  184.1710  178.7810  144.7130 C   0  0  0  0  0  0  0  0  0  0  0  0
  191.5440  176.5490  146.7370 C   0  0  0  0  0  0  0  0  0  0  0  0
  192.2620  176.3850  147.6300 N   0  0  0  0  0  0  0  0  0  0  0  0
  188.4320  177.1220  140.1550 C   0  0  0  0  0  2  0  0  0  0  0  0
  189.0510  179.3780  139.5860 O   0  0  0  0  0  1  0  0  0  0  0  0
  190.2490  177.6260  138.5230 C   0  0  0  0  0  1  0  0  0  0  0  0
  188.9110  178.0880  139.0680 C   0  0  1  0  0  0  0  0  0  0  0  0
  187.9080  178.1010  137.9140 C   0  0  0  0  0  2  0  0  0  0  0  0
  188.7890  177.3720  135.8270 O   0  0  0  0  0  0  0  0  0  0  0  0
  188.1940  177.0490  136.8890 C   0  0  0  0  0  0  0  0  0  0  0  0
  186.5890  175.1880  136.8830 C   0  0  0  0  0  0  0  0  0  0  0  0
  185.4630  175.9760  136.2970 C   0  0  0  0  0  1  0  0  0  0  0  0
  186.3470  173.7600  137.2170 C   0  0  0  0  0  1  0  0  0  0  0  0
  187.7600  175.7000  137.1300 N   0  0  0  0  0  0  0  0  0  0  0  0
  1  4  1  0  0  0  0
  1  2  1  0  0  0  0
  2  6  1  0  0  0  0
  4 12  1  0  0  0  0
  5 12  2  0  0  0  0
  5 19  1  0  0  0  0
  6  3  2  0  0  0  0
  7 21  1  6  0  0  0
  7 10  1  0  0  0  0
  7 11  1  0  0  0  0
  8 17  1  0  0  0  0
  9  3  1  0  0  0  0
 10 14  1  0  0  0  0
 11  1  2  0  0  0  0
 13 18  1  0  0  0  0
 14 15  1  0  0  0  0
 14  4  2  0  0  0  0
 15  5  1  0  0  0  0
 16 11  1  0  0  0  0
 16  8  2  0  0  0  0
 17  2  2  0  0  0  0
 17 18  1  0  0  0  0
 18  9  2  0  0  0  0
 19 20  3  0  0  0  0
 24 23  1  6  0  0  0
 24 22  1  0  0  0  0
 24 21  1  0  0  0  0
 25 24  1  0  0  0  0
 26 27  2  0  0  0  0
 27 31  1  0  0  0  0
 27 25  1  0  0  0  0
 28 31  2  0  0  0  0
 28 30  1  0  0  0  0
 29 28  1  0  0  0  0
M  END
>  <MODEL>
6

>  <REMARK>
 VINA RESULT:      -8.4      1.191      1.439
  Name = 
  6 active torsions:
  status: ('A' for Active; 'I' for Inactive)
    1  A    between atoms: C_2  and  C_13
    2  A    between atoms: C_9  and  C_22
    3  A    between atoms: C_9  and  C_23
    4  A    between atoms: C_15  and  C_23
    5  A    between atoms: C_19  and  C_22
    6  A    between atoms: C_19  and  N_24
                            x       y       z     vdW  Elec       q    Type
                         _______ _______ _______ _____ _____    ______ ____

>  <TORSDO>
F 6

$$$$
=
 OpenBabel11052413193D

 31 34  0  0  1  0  0  0  0  0999 V2000
  188.0440  177.6340  144.0590 C   0  0  0  0  0  0  0  0  0  0  0  0
  186.8670  177.9650  144.7690 C   0  0  0  0  0  0  0  0  0  0  0  0
  185.6070  178.1970  146.8370 C   0  0  0  0  0  3  0  0  0  0  0  0
  189.2920  177.1720  144.7080 C   0  0  0  0  0  0  0  0  0  0  0  0
  190.9500  176.6420  146.0100 C   0  0  0  0  0  0  0  0  0  0  0  0
  186.7870  177.8660  146.1660 C   0  0  0  0  0  3  0  0  0  0  0  0
  189.3340  177.4780  141.8490 C   0  0  2  0  0  3  0  0  0  0  0  0
  185.7850  178.5070  142.6920 N   0  0  0  0  0  0  0  0  0  0  0  0
  184.4920  178.6300  146.1180 C   0  0  0  0  0  3  0  0  0  0  0  0
  190.2990  176.4760  142.5100 C   0  0  0  0  0  2  0  0  0  0  0  0
  188.0520  177.7230  142.6450 C   0  0  0  0  0  0  0  0  0  0  0  0
  189.6660  177.1690  146.0410 C   0  0  0  0  0  3  0  0  0  0  0  0
  183.4290  179.1670  144.0270 O   0  0  0  0  0  1  0  0  0  0  0  0
  190.3420  176.6730  143.9870 C   0  0  0  0  0  0  0  0  0  0  0  0
  191.3270  176.3520  144.7840 O   0  0  0  0  0  0  0  0  0  0  0  0
  186.9040  178.1920  141.9930 C   0  0  0  0  0  3  0  0  0  0  0  0
  185.7310  178.4020  144.0460 C   0  0  0  0  0  0  0  0  0  0  0  0
  184.5500  178.7340  144.7270 C   0  0  0  0  0  0  0  0  0  0  0  0
  191.7740  176.4310  147.1660 C   0  0  0  0  0  0  0  0  0  0  0  0
  192.4390  176.2620  148.0990 N   0  0  0  0  0  0  0  0  0  0  0  0
  189.0440  177.0240  140.4190 C   0  0  0  0  0  2  0  0  0  0  0  0
  190.0070  178.2500  138.5830 O   0  0  0  0  0  1  0  0  0  0  0  0
  191.4870  177.5030  140.2830 C   0  0  0  0  0  1  0  0  0  0  0  0
  190.2380  177.2000  139.4770 C   0  0  1  0  0  0  0  0  0  0  0  0
  190.4760  175.9050  138.7010 C   0  0  0  0  0  2  0  0  0  0  0  0
  189.7250  176.0970  136.4510 O   0  0  0  0  0  0  0  0  0  0  0  0
  190.7050  176.1410  137.2410 C   0  0  0  0  0  0  0  0  0  0  0  0
  192.9860  175.5140  136.5760 C   0  0  0  0  0  0  0  0  0  0  0  0
  192.8120  174.0540  136.8400 C   0  0  0  0  0  1  0  0  0  0  0  0
  194.3080  175.9860  136.0880 C   0  0  0  0  0  1  0  0  0  0  0  0
  192.0410  176.3870  136.7720 N   0  0  0  0  0  0  0  0  0  0  0  0
  1  4  1  0  0  0  0
  1  2  1  0  0  0  0
  2  6  1  0  0  0  0
  4 12  1  0  0  0  0
  5 12  2  0  0  0  0
  5 19  1  0  0  0  0
  6  3  2  0  0  0  0
  7 21  1  6  0  0  0
  7 10  1  0  0  0  0
  7 11  1  0  0  0  0
  8 17  1  0  0  0  0
  9  3  1  0  0  0  0
 10 14  1  0  0  0  0
 11  1  2  0  0  0  0
 13 18  1  0  0  0  0
 14  4  2  0  0  0  0
 14 15  1  0  0  0  0
 15  5  1  0  0  0  0
 16 11  1  0  0  0  0
 16  8  2  0  0  0  0
 17 18  1  0  0  0  0
 17  2  2  0  0  0  0
 18  9  2  0  0  0  0
 19 20  3  0  0  0  0
 22 24  1  0  0  0  0
 24 23  1  1  0  0  0
 24 21  1  0  0  0  0
 25 24  1  0  0  0  0
 26 27  2  0  0  0  0
 27 25  1  0  0  0  0
 28 31  2  0  0  0  0
 28 29  1  0  0  0  0
 30 28  1  0  0  0  0
 31 27  1  0  0  0  0
M  END
>  <MODEL>
7

>  <REMARK>
 VINA RESULT:      -8.2      2.046      3.345
  Name = 
  6 active torsions:
  status: ('A' for Active; 'I' for Inactive)
    1  A    between atoms: C_2  and  C_13
    2  A    between atoms: C_9  and  C_22
    3  A    between atoms: C_9  and  C_23
    4  A    between atoms: C_15  and  C_23
    5  A    between atoms: C_19  and  C_22
    6  A    between atoms: C_19  and  N_24
                            x       y       z     vdW  Elec       q    Type
                         _______ _______ _______ _____ _____    ______ ____

>  <TORSDO>
F 6

$$$$
=
 OpenBabel11052413193D

 31 34  0  0  1  0  0  0  0  0999 V2000
  188.9120  177.6790  140.0440 C   0  0  0  0  0  0  0  0  0  0  0  0
  187.6660  177.9960  139.4540 C   0  0  0  0  0  0  0  0  0  0  0  0
  186.2000  178.1980  137.5230 C   0  0  0  0  0  3  0  0  0  0  0  0
  190.0780  177.1800  139.2810 C   0  0  0  0  0  0  0  0  0  0  0  0
  191.5110  176.3740  137.8580 C   0  0  0  0  0  0  0  0  0  0  0  0
  187.4410  177.8720  138.0750 C   0  0  0  0  0  3  0  0  0  0  0  0
  190.3800  177.4260  142.1290 C   0  0  2  0  0  3  0  0  0  0  0  0
  186.8100  178.5890  141.6200 N   0  0  0  0  0  0  0  0  0  0  0  0
  185.1680  178.6530  138.3450 C   0  0  0  0  0  3  0  0  0  0  0  0
  191.6290  177.5160  141.2330 C   0  0  0  0  0  2  0  0  0  0  0  0
  189.0870  177.8580  141.4380 C   0  0  0  0  0  0  0  0  0  0  0  0
  190.1720  176.7220  137.9770 C   0  0  0  0  0  3  0  0  0  0  0  0
  184.3310  179.2400  140.5240 O   0  0  0  0  0  1  0  0  0  0  0  0
  191.3200  177.0730  139.8430 C   0  0  0  0  0  0  0  0  0  0  0  0
  192.1720  176.5940  138.9740 O   0  0  0  0  0  0  0  0  0  0  0  0
  187.9970  178.2910  142.2040 C   0  0  0  0  0  3  0  0  0  0  0  0
  186.6150  178.4610  140.2810 C   0  0  0  0  0  0  0  0  0  0  0  0
  185.3700  178.7850  139.7200 C   0  0  0  0  0  0  0  0  0  0  0  0
  192.1140  175.8400  136.6700 C   0  0  0  0  0  0  0  0  0  0  0  0
  192.6000  175.4110  135.7110 N   0  0  0  0  0  0  0  0  0  0  0  0
  190.6320  178.2090  143.4180 C   0  0  0  0  0  2  0  0  0  0  0  0
  189.6140  176.2440  144.3680 O   0  0  0  0  0  1  0  0  0  0  0  0
  191.6390  176.9990  145.3510 C   0  0  0  0  0  1  0  0  0  0  0  0
  190.3380  177.3980  144.6820 C   0  0  1  0  0  0  0  0  0  0  0  0
  189.5410  178.2540  145.6680 C   0  0  0  0  0  2  0  0  0  0  0  0
  188.4190  176.7570  147.1400 O   0  0  0  0  0  0  0  0  0  0  0  0
  188.3160  177.5600  146.1750 C   0  0  0  0  0  0  0  0  0  0  0  0
  186.0490  178.4920  145.9960 C   0  0  0  0  0  0  0  0  0  0  0  0
  186.0590  179.1430  147.3390 C   0  0  0  0  0  1  0  0  0  0  0  0
  184.8240  178.6190  145.1640 C   0  0  0  0  0  1  0  0  0  0  0  0
  187.0540  177.8060  145.5320 N   0  0  0  0  0  0  0  0  0  0  0  0
  1 11  1  0  0  0  0
  2  1  2  0  0  0  0
  2 17  1  0  0  0  0
  3  6  2  0  0  0  0
  3  9  1  0  0  0  0
  4 14  2  0  0  0  0
  4  1  1  0  0  0  0
  5 12  2  0  0  0  0
  5 15  1  0  0  0  0
  6  2  1  0  0  0  0
  7 21  1  1  0  0  0
  8 16  1  0  0  0  0
  9 18  2  0  0  0  0
 10  7  1  0  0  0  0
 11  7  1  0  0  0  0
 11 16  2  0  0  0  0
 12  4  1  0  0  0  0
 14 10  1  0  0  0  0
 15 14  1  0  0  0  0
 17  8  2  0  0  0  0
 18 17  1  0  0  0  0
 18 13  1  0  0  0  0
 19  5  1  0  0  0  0
 20 19  3  0  0  0  0
 21 24  1  0  0  0  0
 22 24  1  0  0  0  0
 24 23  1  1  0  0  0
 24 25  1  0  0  0  0
 25 27  1  0  0  0  0
 27 26  2  0  0  0  0
 28 29  1  0  0  0  0
 30 28  1  0  0  0  0
 31 28  2  0  0  0  0
 31 27  1  0  0  0  0
M  END
>  <MODEL>
8

>  <REMARK>
 VINA RESULT:      -8.1      2.300      6.826
  Name = 
  6 active torsions:
  status: ('A' for Active; 'I' for Inactive)
    1  A    between atoms: C_2  and  C_13
    2  A    between atoms: C_9  and  C_22
    3  A    between atoms: C_9  and  C_23
    4  A    between atoms: C_15  and  C_23
    5  A    between atoms: C_19  and  C_22
    6  A    between atoms: C_19  and  N_24
                            x       y       z     vdW  Elec       q    Type
                         _______ _______ _______ _____ _____    ______ ____

>  <TORSDO>
F 6

$$$$
=
 OpenBabel11052413193D

 31 34  0  0  1  0  0  0  0  0999 V2000
  186.0340  178.2950  142.4510 C   0  0  0  0  0  0  0  0  0  0  0  0
  185.0600  178.4950  143.4570 C   0  0  0  0  0  0  0  0  0  0  0  0
  182.7760  178.9320  144.1710 C   0  0  0  0  0  3  0  0  0  0  0  0
  185.7290  178.3030  141.0030 C   0  0  0  0  0  0  0  0  0  0  0  0
  184.8870  178.2720  138.9980 C   0  0  0  0  0  0  0  0  0  0  0  0
  183.7110  178.7340  143.1530 C   0  0  0  0  0  3  0  0  0  0  0  0
  188.4480  177.7660  141.7720 C   0  0  2  0  0  3  0  0  0  0  0  0
  186.7620  178.2330  145.1330 N   0  0  0  0  0  0  0  0  0  0  0  0
  183.1780  178.8950  145.5070 C   0  0  0  0  0  3  0  0  0  0  0  0
  188.1680  178.3800  140.3870 C   0  0  0  0  0  2  0  0  0  0  0  0
  187.3850  178.0930  142.8220 C   0  0  0  0  0  0  0  0  0  0  0  0
  184.5160  178.2750  140.3360 C   0  0  0  0  0  3  0  0  0  0  0  0
  184.8980  178.6280  147.1680 O   0  0  0  0  0  1  0  0  0  0  0  0
  186.7160  178.3050  140.0550 C   0  0  0  0  0  0  0  0  0  0  0  0
  186.1940  178.2940  138.8560 O   0  0  0  0  0  0  0  0  0  0  0  0
  187.7110  178.0400  144.1830 C   0  0  0  0  0  3  0  0  0  0  0  0
  185.4610  178.4630  144.8140 C   0  0  0  0  0  0  0  0  0  0  0  0
  184.5150  178.6610  145.8320 C   0  0  0  0  0  0  0  0  0  0  0  0
  183.9680  178.2510  137.8960 C   0  0  0  0  0  0  0  0  0  0  0  0
  183.2270  178.2340  137.0070 N   0  0  0  0  0  0  0  0  0  0  0  0
  189.8490  178.1750  142.2260 C   0  0  0  0  0  2  0  0  0  0  0  0
  190.2810  175.8990  141.5690 O   0  0  0  0  0  1  0  0  0  0  0  0
  191.9650  177.5030  141.0900 C   0  0  0  0  0  1  0  0  0  0  0  0
  190.8850  177.0600  142.0590 C   0  0  1  0  0  0  0  0  0  0  0  0
  191.5460  176.7680  143.4060 C   0  0  0  0  0  2  0  0  0  0  0  0
  192.0550  178.8970  144.3410 O   0  0  0  0  0  0  0  0  0  0  0  0
  191.3360  177.8650  144.4020 C   0  0  0  0  0  0  0  0  0  0  0  0
  190.4500  177.0720  146.5530 C   0  0  0  0  0  0  0  0  0  0  0  0
  191.7020  176.3720  146.9710 C   0  0  0  0  0  1  0  0  0  0  0  0
  189.2800  177.0210  147.4670 C   0  0  0  0  0  1  0  0  0  0  0  0
  190.3350  177.7040  145.4210 N   0  0  0  0  0  0  0  0  0  0  0  0
  1 11  2  0  0  0  0
  1  2  1  0  0  0  0
  2 17  1  0  0  0  0
  3  9  2  0  0  0  0
  4  1  1  0  0  0  0
  5 12  2  0  0  0  0
  6  2  2  0  0  0  0
  6  3  1  0  0  0  0
  7 21  1  1  0  0  0
  7 11  1  0  0  0  0
  9 18  1  0  0  0  0
 10  7  1  0  0  0  0
 11 16  1  0  0  0  0
 12  4  1  0  0  0  0
 14 10  1  0  0  0  0
 14  4  2  0  0  0  0
 15  5  1  0  0  0  0
 15 14  1  0  0  0  0
 16  8  2  0  0  0  0
 17  8  1  0  0  0  0
 17 18  2  0  0  0  0
 18 13  1  0  0  0  0
 19  5  1  0  0  0  0
 20 19  3  0  0  0  0
 22 24  1  0  0  0  0
 24 23  1  6  0  0  0
 24 21  1  0  0  0  0
 24 25  1  0  0  0  0
 25 27  1  0  0  0  0
 26 27  2  0  0  0  0
 27 31  1  0  0  0  0
 28 29  1  0  0  0  0
 28 30  1  0  0  0  0
 31 28  2  0  0  0  0
M  END
>  <MODEL>
9

>  <REMARK>
 VINA RESULT:      -8.0      1.940      6.571
  Name = 
  6 active torsions:
  status: ('A' for Active; 'I' for Inactive)
    1  A    between atoms: C_2  and  C_13
    2  A    between atoms: C_9  and  C_22
    3  A    between atoms: C_9  and  C_23
    4  A    between atoms: C_15  and  C_23
    5  A    between atoms: C_19  and  C_22
    6  A    between atoms: C_19  and  N_24
                            x       y       z     vdW  Elec       q    Type
                         _______ _______ _______ _____ _____    ______ ____

>  <TORSDO>
F 6

$$$$
