=
 OpenBabel11052412243D

 30 31  0  0  1  0  0  0  0  0999 V2000
  189.9330  176.9250  145.7730 C   0  0  2  0  0  3  0  0  0  0  0  0
  192.1300  174.9160  145.8260 C   0  0  0  0  0  1  0  0  0  0  0  0
  192.0560  176.0610  146.7840 C   0  0  0  0  0  3  0  0  0  0  0  0
  191.0720  176.9660  146.7580 C   0  0  0  0  0  3  0  0  0  0  0  0
  190.2390  178.9390  144.3160 C   0  0  0  0  0  1  0  0  0  0  0  0
  190.3310  177.4160  144.3560 C   0  0  2  0  0  3  0  0  0  0  0  0
  188.7840  177.8390  142.3580 C   0  0  0  0  0  2  0  0  0  0  0  0
  189.0040  178.2880  139.6340 S   0  0  0  0  0  0  0  0  0  0  0  0
  189.2270  177.6010  141.1440 C   0  0  0  0  0  0  0  0  0  0  0  0
  189.4550  176.7950  143.2430 C   0  0  1  0  0  3  0  0  0  0  0  0
  190.0960  177.1600  138.9560 C   0  0  0  0  0  0  0  0  0  0  0  0
  190.6100  176.2920  139.8670 N   0  0  0  0  0  0  0  0  0  0  0  0
  190.3130  176.0270  142.2500 C   0  0  0  0  0  2  0  0  0  0  0  0
  190.0890  176.5830  141.0810 C   0  0  0  0  0  0  0  0  0  0  0  0
  190.4610  177.1260  137.5150 C   0  0  0  0  0  1  0  0  0  0  0  0
  188.7230  177.6610  146.3830 C   0  0  1  0  0  3  0  0  0  0  0  0
  186.5770  177.3820  145.1850 C   0  0  0  0  0  0  0  0  0  0  0  0
  185.7650  177.7170  144.2200 C   0  0  0  0  0  3  0  0  0  0  0  0
  187.3850  177.0170  146.1450 C   0  0  0  0  0  3  0  0  0  0  0  0
  185.2990  179.1240  144.0360 C   0  0  1  0  0  3  0  0  0  0  0  0
  185.3080  179.4660  142.5590 C   0  0  0  0  0  1  0  0  0  0  0  0
  183.9250  179.3360  144.5890 C   0  0  0  0  0  0  0  0  0  0  0  0
  183.7000  179.0450  145.7930 O   0  0  0  0  0  0  0  0  0  0  0  0
  182.9220  179.8960  143.7900 O   0  0  0  0  0  0  0  0  0  0  0  0
  182.2700  178.3610  142.2050 F   0  0  0  0  0  0  0  0  0  0  0  0
  181.8360  179.1400  143.2630 C   0  0  0  0  0  0  0  0  0  0  0  0
  181.3340  178.3180  144.2520 F   0  0  0  0  0  0  0  0  0  0  0  0
  180.8340  179.9900  142.8310 F   0  0  0  0  0  0  0  0  0  0  0  0
  188.9310  178.0930  147.7740 C   0  0  0  0  0  0  0  0  0  0  0  0
  189.1040  178.4490  148.9130 C   0  0  0  0  0  3  0  0  0  0  0  0
  1 16  1  0  0  0  0
  1  4  1  1  0  0  0
  2  3  1  0  0  0  0
  4  3  2  0  0  0  0
  6  5  1  1  0  0  0
  6  1  1  0  0  0  0
  7 10  1  0  0  0  0
  8  9  1  0  0  0  0
  9  7  1  0  0  0  0
 10  6  1  1  0  0  0
 11  8  1  0  0  0  0
 11 12  2  0  0  0  0
 12 14  1  0  0  0  0
 13 10  1  0  0  0  0
 14  9  2  0  0  0  0
 14 13  1  0  0  0  0
 15 11  1  0  0  0  0
 16 19  1  1  0  0  0
 16 29  1  0  0  0  0
 17 19  2  0  0  0  0
 18 17  2  0  0  0  0
 20 21  1  6  0  0  0
 20 18  1  0  0  0  0
 20 22  1  0  0  0  0
 22 23  2  0  0  0  0
 24 22  1  0  0  0  0
 25 26  1  0  0  0  0
 26 24  1  0  0  0  0
 26 27  1  0  0  0  0
 28 26  1  0  0  0  0
 29 30  3  0  0  0  0
M  END
>  <MODEL>
1

>  <REMARK>
 VINA RESULT:      -8.3      0.000      0.000
  Name = 
  10 active torsions:
  status: ('A' for Active; 'I' for Inactive)
    1  A    between atoms: C_2  and  C_22
    2  A    between atoms: C_4  and  C_27
    3  A    between atoms: C_5  and  C_22
    4  A    between atoms: C_8  and  O_12
    5  A    between atoms: C_8  and  C_27
    6  A    between atoms: C_9  and  O_12
    7  A    between atoms: C_11  and  C_29
    8  A    between atoms: C_19  and  C_22
    9  A    between atoms: C_19  and  C_28
   10  A    between atoms: C_19  and  C_29
                            x       y       z     vdW  Elec       q    Type
                         _______ _______ _______ _____ _____    ______ ____

>  <TORSDO>
F 10

$$$$
=
 OpenBabel11052412243D

 30 31  0  0  1  0  0  0  0  0999 V2000
  188.6840  177.5030  145.8220 C   0  0  2  0  0  3  0  0  0  0  0  0
  187.6110  178.7610  148.2980 C   0  0  0  0  0  1  0  0  0  0  0  0
  188.2760  177.4230  148.2930 C   0  0  0  0  0  3  0  0  0  0  0  0
  188.7540  176.8550  147.1800 C   0  0  0  0  0  3  0  0  0  0  0  0
  187.6800  176.2490  143.9010 C   0  0  0  0  0  1  0  0  0  0  0  0
  187.3690  177.1890  145.0620 C   0  0  2  0  0  3  0  0  0  0  0  0
  186.0870  178.3030  143.1430 C   0  0  0  0  0  2  0  0  0  0  0  0
  183.4760  178.4960  142.2410 S   0  0  0  0  0  0  0  0  0  0  0  0
  184.7960  178.5090  143.2710 C   0  0  0  0  0  0  0  0  0  0  0  0
  186.6600  178.4640  144.5460 C   0  0  1  0  0  3  0  0  0  0  0  0
  182.4410  178.8460  143.5570 C   0  0  0  0  0  0  0  0  0  0  0  0
  183.0980  178.9640  144.7420 N   0  0  0  0  0  0  0  0  0  0  0  0
  185.4200  178.7620  145.3750 C   0  0  0  0  0  2  0  0  0  0  0  0
  184.4180  178.7660  144.5250 C   0  0  0  0  0  0  0  0  0  0  0  0
  180.9680  179.0010  143.4330 C   0  0  0  0  0  1  0  0  0  0  0  0
  189.9670  177.1560  145.0410 C   0  0  1  0  0  3  0  0  0  0  0  0
  189.9150  178.3590  142.8800 C   0  0  0  0  0  0  0  0  0  0  0  0
  189.3940  178.5470  141.6980 C   0  0  0  0  0  3  0  0  0  0  0  0
  190.4370  178.2030  144.0680 C   0  0  0  0  0  3  0  0  0  0  0  0
  189.2870  177.4400  140.7010 C   0  0  1  0  0  3  0  0  0  0  0  0
  188.4140  177.8890  139.5450 C   0  0  0  0  0  1  0  0  0  0  0  0
  190.6260  177.0230  140.1820 C   0  0  0  0  0  0  0  0  0  0  0  0
  191.6420  177.6940  140.5020 O   0  0  0  0  0  0  0  0  0  0  0  0
  190.7500  175.8720  139.3940 O   0  0  0  0  0  0  0  0  0  0  0  0
  190.9670  177.0810  137.4480 F   0  0  0  0  0  0  0  0  0  0  0  0
  191.2870  175.8900  138.0740 C   0  0  0  0  0  0  0  0  0  0  0  0
  192.6610  175.7710  138.1420 F   0  0  0  0  0  0  0  0  0  0  0  0
  190.7770  174.8310  137.3440 F   0  0  0  0  0  0  0  0  0  0  0  0
  191.0420  176.6050  145.8800 C   0  0  0  0  0  0  0  0  0  0  0  0
  191.9250  176.1570  146.5680 C   0  0  0  0  0  3  0  0  0  0  0  0
  1  4  1  1  0  0  0
  3  2  1  0  0  0  0
  4  3  2  0  0  0  0
  6  5  1  6  0  0  0
  6  1  1  0  0  0  0
  7  9  1  0  0  0  0
  7 10  1  0  0  0  0
  8  9  1  0  0  0  0
  8 11  1  0  0  0  0
  9 14  2  0  0  0  0
 10  6  1  1  0  0  0
 10 13  1  0  0  0  0
 11 12  2  0  0  0  0
 14 12  1  0  0  0  0
 14 13  1  0  0  0  0
 15 11  1  0  0  0  0
 16 19  1  1  0  0  0
 16  1  1  0  0  0  0
 16 29  1  0  0  0  0
 17 19  2  0  0  0  0
 18 17  2  0  0  0  0
 20 21  1  6  0  0  0
 20 18  1  0  0  0  0
 22 23  2  0  0  0  0
 22 20  1  0  0  0  0
 24 22  1  0  0  0  0
 25 26  1  0  0  0  0
 26 27  1  0  0  0  0
 26 24  1  0  0  0  0
 28 26  1  0  0  0  0
 29 30  3  0  0  0  0
M  END
>  <MODEL>
2

>  <REMARK>
 VINA RESULT:      -8.1      4.903      7.099
  Name = 
  10 active torsions:
  status: ('A' for Active; 'I' for Inactive)
    1  A    between atoms: C_2  and  C_22
    2  A    between atoms: C_4  and  C_27
    3  A    between atoms: C_5  and  C_22
    4  A    between atoms: C_8  and  O_12
    5  A    between atoms: C_8  and  C_27
    6  A    between atoms: C_9  and  O_12
    7  A    between atoms: C_11  and  C_29
    8  A    between atoms: C_19  and  C_22
    9  A    between atoms: C_19  and  C_28
   10  A    between atoms: C_19  and  C_29
                            x       y       z     vdW  Elec       q    Type
                         _______ _______ _______ _____ _____    ______ ____

>  <TORSDO>
F 10

$$$$
=
 OpenBabel11052412243D

 30 31  0  0  1  0  0  0  0  0999 V2000
  188.5150  177.5010  146.0810 C   0  0  2  0  0  3  0  0  0  0  0  0
  187.5860  178.7420  148.6240 C   0  0  0  0  0  1  0  0  0  0  0  0
  187.9770  177.3030  148.5200 C   0  0  0  0  0  3  0  0  0  0  0  0
  188.3900  176.7440  147.3770 C   0  0  0  0  0  3  0  0  0  0  0  0
  187.9610  176.3590  143.9230 C   0  0  0  0  0  1  0  0  0  0  0  0
  187.3820  177.1790  145.0720 C   0  0  2  0  0  3  0  0  0  0  0  0
  186.1120  178.2660  143.1300 C   0  0  0  0  0  2  0  0  0  0  0  0
  183.5030  178.4700  142.2250 S   0  0  0  0  0  0  0  0  0  0  0  0
  184.8230  178.4900  143.2540 C   0  0  0  0  0  0  0  0  0  0  0  0
  186.6880  178.4500  144.5290 C   0  0  1  0  0  3  0  0  0  0  0  0
  182.4730  178.8600  143.5340 C   0  0  0  0  0  0  0  0  0  0  0  0
  183.1320  178.9960  144.7160 N   0  0  0  0  0  0  0  0  0  0  0  0
  185.4520  178.7800  145.3510 C   0  0  0  0  0  2  0  0  0  0  0  0
  184.4490  178.7780  144.5030 C   0  0  0  0  0  0  0  0  0  0  0  0
  181.0020  179.0290  143.4060 C   0  0  0  0  0  1  0  0  0  0  0  0
  189.9380  177.2980  145.5240 C   0  0  1  0  0  3  0  0  0  0  0  0
  190.5430  178.4900  143.4430 C   0  0  0  0  0  0  0  0  0  0  0  0
  190.5740  178.5540  142.1390 C   0  0  0  0  0  3  0  0  0  0  0  0
  190.5020  178.4570  144.7490 C   0  0  0  0  0  3  0  0  0  0  0  0
  191.2130  177.4840  141.3150 C   0  0  1  0  0  3  0  0  0  0  0  0
  191.7510  176.4010  142.2290 C   0  0  0  0  0  1  0  0  0  0  0  0
  190.2530  176.8820  140.3380 C   0  0  0  0  0  0  0  0  0  0  0  0
  190.6840  176.0620  139.4850 O   0  0  0  0  0  0  0  0  0  0  0  0
  188.8900  177.1890  140.4090 O   0  0  0  0  0  0  0  0  0  0  0  0
  187.0880  178.5570  139.9900 F   0  0  0  0  0  0  0  0  0  0  0  0
  188.2240  177.9930  139.4390 C   0  0  0  0  0  0  0  0  0  0  0  0
  189.0730  179.0000  139.0250 F   0  0  0  0  0  0  0  0  0  0  0  0
  187.8740  177.2200  138.3460 F   0  0  0  0  0  0  0  0  0  0  0  0
  190.8800  176.7250  146.4970 C   0  0  0  0  0  0  0  0  0  0  0  0
  191.6500  176.2560  147.2980 C   0  0  0  0  0  3  0  0  0  0  0  0
  1  4  1  1  0  0  0
  3  2  1  0  0  0  0
  4  3  2  0  0  0  0
  6  5  1  6  0  0  0
  6  1  1  0  0  0  0
  7  9  1  0  0  0  0
  7 10  1  0  0  0  0
  8  9  1  0  0  0  0
  8 11  1  0  0  0  0
  9 14  2  0  0  0  0
 10  6  1  1  0  0  0
 10 13  1  0  0  0  0
 11 12  2  0  0  0  0
 14 12  1  0  0  0  0
 14 13  1  0  0  0  0
 15 11  1  0  0  0  0
 16 19  1  1  0  0  0
 16  1  1  0  0  0  0
 16 29  1  0  0  0  0
 17 19  2  0  0  0  0
 18 17  2  0  0  0  0
 20 18  1  0  0  0  0
 20 21  1  1  0  0  0
 22 24  1  0  0  0  0
 22 20  1  0  0  0  0
 23 22  2  0  0  0  0
 26 25  1  0  0  0  0
 26 24  1  0  0  0  0
 27 26  1  0  0  0  0
 28 26  1  0  0  0  0
 29 30  3  0  0  0  0
M  END
>  <MODEL>
3

>  <REMARK>
 VINA RESULT:      -8.0      3.820      6.352
  Name = 
  10 active torsions:
  status: ('A' for Active; 'I' for Inactive)
    1  A    between atoms: C_2  and  C_22
    2  A    between atoms: C_4  and  C_27
    3  A    between atoms: C_5  and  C_22
    4  A    between atoms: C_8  and  O_12
    5  A    between atoms: C_8  and  C_27
    6  A    between atoms: C_9  and  O_12
    7  A    between atoms: C_11  and  C_29
    8  A    between atoms: C_19  and  C_22
    9  A    between atoms: C_19  and  C_28
   10  A    between atoms: C_19  and  C_29
                            x       y       z     vdW  Elec       q    Type
                         _______ _______ _______ _____ _____    ______ ____

>  <TORSDO>
F 10

$$$$
=
 OpenBabel11052412243D

 30 31  0  0  1  0  0  0  0  0999 V2000
  188.6370  177.5330  145.8610 C   0  0  2  0  0  3  0  0  0  0  0  0
  187.6360  178.5570  148.4710 C   0  0  0  0  0  1  0  0  0  0  0  0
  188.3260  177.2400  148.3300 C   0  0  0  0  0  3  0  0  0  0  0  0
  188.7720  176.7770  147.1560 C   0  0  0  0  0  3  0  0  0  0  0  0
  187.6330  176.2780  143.9410 C   0  0  0  0  0  1  0  0  0  0  0  0
  187.3220  177.2170  145.1020 C   0  0  2  0  0  3  0  0  0  0  0  0
  186.0630  178.3400  143.1730 C   0  0  0  0  0  2  0  0  0  0  0  0
  183.4660  178.5200  142.2290 S   0  0  0  0  0  0  0  0  0  0  0  0
  184.7680  178.5330  143.2810 C   0  0  0  0  0  0  0  0  0  0  0  0
  186.6110  178.4910  144.5870 C   0  0  1  0  0  3  0  0  0  0  0  0
  182.4060  178.8470  143.5300 C   0  0  0  0  0  0  0  0  0  0  0  0
  183.0410  178.9580  144.7280 N   0  0  0  0  0  0  0  0  0  0  0  0
  185.3540  178.7700  145.3970 C   0  0  0  0  0  2  0  0  0  0  0  0
  184.3670  178.7740  144.5310 C   0  0  0  0  0  0  0  0  0  0  0  0
  180.9340  178.9900  143.3820 C   0  0  0  0  0  1  0  0  0  0  0  0
  189.9170  177.3210  145.0280 C   0  0  1  0  0  3  0  0  0  0  0  0
  189.9540  178.6560  142.9460 C   0  0  0  0  0  0  0  0  0  0  0  0
  189.5610  178.8530  141.7170 C   0  0  0  0  0  3  0  0  0  0  0  0
  190.3420  178.4910  144.1830 C   0  0  0  0  0  3  0  0  0  0  0  0
  189.7460  177.8160  140.6570 C   0  0  1  0  0  3  0  0  0  0  0  0
  189.8540  176.4500  141.3060 C   0  0  0  0  0  1  0  0  0  0  0  0
  188.6180  177.8130  139.6740 C   0  0  0  0  0  0  0  0  0  0  0  0
  187.5830  178.4800  139.9310 O   0  0  0  0  0  0  0  0  0  0  0  0
  188.7390  177.1190  138.4640 O   0  0  0  0  0  0  0  0  0  0  0  0
  189.4010  178.9770  137.2800 F   0  0  0  0  0  0  0  0  0  0  0  0
  189.5080  177.6010  137.3660 C   0  0  0  0  0  0  0  0  0  0  0  0
  190.8330  177.2630  137.5580 F   0  0  0  0  0  0  0  0  0  0  0  0
  189.0620  177.0270  136.1890 F   0  0  0  0  0  0  0  0  0  0  0  0
  191.0210  176.7060  145.7810 C   0  0  0  0  0  0  0  0  0  0  0  0
  191.9260  176.2050  146.3990 C   0  0  0  0  0  3  0  0  0  0  0  0
  1  4  1  1  0  0  0
  3  2  1  0  0  0  0
  4  3  2  0  0  0  0
  6  5  1  6  0  0  0
  6  1  1  0  0  0  0
  7  9  1  0  0  0  0
  7 10  1  0  0  0  0
  8  9  1  0  0  0  0
  8 11  1  0  0  0  0
  9 14  2  0  0  0  0
 10  6  1  1  0  0  0
 10 13  1  0  0  0  0
 11 12  2  0  0  0  0
 14 12  1  0  0  0  0
 14 13  1  0  0  0  0
 15 11  1  0  0  0  0
 16 19  1  1  0  0  0
 16 29  1  0  0  0  0
 16  1  1  0  0  0  0
 17 19  2  0  0  0  0
 18 17  2  0  0  0  0
 20 21  1  1  0  0  0
 20 18  1  0  0  0  0
 22 23  2  0  0  0  0
 22 20  1  0  0  0  0
 24 22  1  0  0  0  0
 25 26  1  0  0  0  0
 26 27  1  0  0  0  0
 26 24  1  0  0  0  0
 28 26  1  0  0  0  0
 29 30  3  0  0  0  0
M  END
>  <MODEL>
4

>  <REMARK>
 VINA RESULT:      -8.0      4.229      6.615
  Name = 
  10 active torsions:
  status: ('A' for Active; 'I' for Inactive)
    1  A    between atoms: C_2  and  C_22
    2  A    between atoms: C_4  and  C_27
    3  A    between atoms: C_5  and  C_22
    4  A    between atoms: C_8  and  O_12
    5  A    between atoms: C_8  and  C_27
    6  A    between atoms: C_9  and  O_12
    7  A    between atoms: C_11  and  C_29
    8  A    between atoms: C_19  and  C_22
    9  A    between atoms: C_19  and  C_28
   10  A    between atoms: C_19  and  C_29
                            x       y       z     vdW  Elec       q    Type
                         _______ _______ _______ _____ _____    ______ ____

>  <TORSDO>
F 10

$$$$
=
 OpenBabel11052412243D

 30 31  0  0  1  0  0  0  0  0999 V2000
  188.4240  177.2150  144.2010 C   0  0  2  0  0  3  0  0  0  0  0  0
  189.5750  176.7500  146.9070 C   0  0  0  0  0  1  0  0  0  0  0  0
  189.9790  177.8990  146.0430 C   0  0  0  0  0  3  0  0  0  0  0  0
  189.4660  178.1060  144.8250 C   0  0  0  0  0  3  0  0  0  0  0  0
  189.8030  175.4840  143.0300 C   0  0  0  0  0  1  0  0  0  0  0  0
  188.8470  176.6540  142.8180 C   0  0  2  0  0  3  0  0  0  0  0  0
  190.5260  177.1470  140.9460 C   0  0  0  0  0  2  0  0  0  0  0  0
  190.5850  177.1690  138.1780 S   0  0  0  0  0  0  0  0  0  0  0  0
  190.0780  177.4490  139.7490 C   0  0  0  0  0  0  0  0  0  0  0  0
  189.5020  177.7260  141.9150 C   0  0  1  0  0  3  0  0  0  0  0  0
  189.2010  177.9790  137.5830 C   0  0  0  0  0  0  0  0  0  0  0  0
  188.3840  178.4420  138.5660 N   0  0  0  0  0  0  0  0  0  0  0  0
  188.4730  178.3390  140.9780 C   0  0  0  0  0  2  0  0  0  0  0  0
  188.9230  178.1180  139.7630 C   0  0  0  0  0  0  0  0  0  0  0  0
  188.9060  178.1590  136.1370 C   0  0  0  0  0  1  0  0  0  0  0  0
  187.0740  177.9590  144.1980 C   0  0  1  0  0  3  0  0  0  0  0  0
  184.9570  178.1370  142.9300 C   0  0  0  0  0  0  0  0  0  0  0  0
  183.7610  178.6380  142.7830 C   0  0  0  0  0  3  0  0  0  0  0  0
  186.1610  177.6400  143.0460 C   0  0  0  0  0  3  0  0  0  0  0  0
  182.7210  178.5170  143.8490 C   0  0  1  0  0  3  0  0  0  0  0  0
  183.1460  179.3270  145.0580 C   0  0  0  0  0  1  0  0  0  0  0  0
  181.3810  178.9880  143.3790 C   0  0  0  0  0  0  0  0  0  0  0  0
  180.3590  178.6850  144.0490 O   0  0  0  0  0  0  0  0  0  0  0  0
  181.2760  179.7950  142.2410 O   0  0  0  0  0  0  0  0  0  0  0  0
  179.3770  179.7000  140.9450 F   0  0  0  0  0  0  0  0  0  0  0  0
  180.7110  179.3390  141.0150 C   0  0  0  0  0  0  0  0  0  0  0  0
  181.3900  179.9160  139.9600 F   0  0  0  0  0  0  0  0  0  0  0  0
  180.8240  177.9630  140.9270 F   0  0  0  0  0  0  0  0  0  0  0  0
  186.3960  177.9650  145.5030 C   0  0  0  0  0  0  0  0  0  0  0  0
  185.8400  177.9660  146.5730 C   0  0  0  0  0  3  0  0  0  0  0  0
  1  4  1  6  0  0  0
  3  2  1  0  0  0  0
  4  3  2  0  0  0  0
  6  5  1  1  0  0  0
  6  1  1  0  0  0  0
  7 10  1  0  0  0  0
  8  9  1  0  0  0  0
  9 14  2  0  0  0  0
  9  7  1  0  0  0  0
 10  6  1  6  0  0  0
 11  8  1  0  0  0  0
 11 12  2  0  0  0  0
 12 14  1  0  0  0  0
 13 10  1  0  0  0  0
 14 13  1  0  0  0  0
 15 11  1  0  0  0  0
 16 19  1  6  0  0  0
 16  1  1  0  0  0  0
 16 29  1  0  0  0  0
 17 19  2  0  0  0  0
 18 17  2  0  0  0  0
 18 20  1  0  0  0  0
 20 21  1  1  0  0  0
 22 20  1  0  0  0  0
 22 23  2  0  0  0  0
 24 22  1  0  0  0  0
 25 26  1  0  0  0  0
 26 24  1  0  0  0  0
 27 26  1  0  0  0  0
 28 26  1  0  0  0  0
 29 30  3  0  0  0  0
M  END
>  <MODEL>
5

>  <REMARK>
 VINA RESULT:      -7.6      1.915      2.931
  Name = 
  10 active torsions:
  status: ('A' for Active; 'I' for Inactive)
    1  A    between atoms: C_2  and  C_22
    2  A    between atoms: C_4  and  C_27
    3  A    between atoms: C_5  and  C_22
    4  A    between atoms: C_8  and  O_12
    5  A    between atoms: C_8  and  C_27
    6  A    between atoms: C_9  and  O_12
    7  A    between atoms: C_11  and  C_29
    8  A    between atoms: C_19  and  C_22
    9  A    between atoms: C_19  and  C_28
   10  A    between atoms: C_19  and  C_29
                            x       y       z     vdW  Elec       q    Type
                         _______ _______ _______ _____ _____    ______ ____

>  <TORSDO>
F 10

$$$$
=
 OpenBabel11052412243D

 30 31  0  0  1  0  0  0  0  0999 V2000
  188.9370  177.4870  144.9960 C   0  0  2  0  0  3  0  0  0  0  0  0
  191.6810  176.3740  145.3090 C   0  0  0  0  0  1  0  0  0  0  0  0
  191.4190  177.8250  145.0630 C   0  0  0  0  0  3  0  0  0  0  0  0
  190.1870  178.3250  144.9180 C   0  0  0  0  0  3  0  0  0  0  0  0
  188.2320  175.8630  143.2260 C   0  0  0  0  0  1  0  0  0  0  0  0
  188.2170  177.3330  143.6310 C   0  0  2  0  0  3  0  0  0  0  0  0
  189.7530  177.4090  141.5820 C   0  0  0  0  0  2  0  0  0  0  0  0
  189.5740  176.9980  138.8490 S   0  0  0  0  0  0  0  0  0  0  0  0
  189.2220  177.5530  140.3890 C   0  0  0  0  0  0  0  0  0  0  0  0
  188.8530  178.2030  142.5210 C   0  0  1  0  0  3  0  0  0  0  0  0
  188.1940  177.8040  138.2400 C   0  0  0  0  0  0  0  0  0  0  0  0
  187.4930  178.4710  139.1950 N   0  0  0  0  0  0  0  0  0  0  0  0
  187.7850  178.7370  141.5790 C   0  0  0  0  0  2  0  0  0  0  0  0
  188.1140  178.2980  140.3850 C   0  0  0  0  0  0  0  0  0  0  0  0
  187.7860  177.7790  136.8110 C   0  0  0  0  0  1  0  0  0  0  0  0
  188.0440  178.0350  146.1270 C   0  0  1  0  0  3  0  0  0  0  0  0
  185.6950  177.6140  145.4740 C   0  0  0  0  0  0  0  0  0  0  0  0
  184.6850  177.8250  144.6760 C   0  0  0  0  0  3  0  0  0  0  0  0
  186.7020  177.3710  146.2720 C   0  0  0  0  0  3  0  0  0  0  0  0
  184.1560  179.2000  144.4220 C   0  0  1  0  0  3  0  0  0  0  0  0
  185.2370  180.0390  143.7690 C   0  0  0  0  0  1  0  0  0  0  0  0
  182.9430  179.1800  143.5480 C   0  0  0  0  0  0  0  0  0  0  0  0
  181.8160  178.9770  144.0710 O   0  0  0  0  0  0  0  0  0  0  0  0
  183.0570  179.4360  142.1760 O   0  0  0  0  0  0  0  0  0  0  0  0
  183.0290  178.9800  139.9220 F   0  0  0  0  0  0  0  0  0  0  0  0
  182.9010  178.4270  141.1830 C   0  0  0  0  0  0  0  0  0  0  0  0
  183.8760  177.4660  141.3560 F   0  0  0  0  0  0  0  0  0  0  0  0
  181.6560  177.8350  141.3050 F   0  0  0  0  0  0  0  0  0  0  0  0
  188.7510  178.2210  147.4040 C   0  0  0  0  0  0  0  0  0  0  0  0
  189.3270  178.3750  148.4510 C   0  0  0  0  0  3  0  0  0  0  0  0
  1  4  1  6  0  0  0
  1 16  1  0  0  0  0
  3  2  1  0  0  0  0
  4  3  2  0  0  0  0
  6  5  1  6  0  0  0
  6  1  1  0  0  0  0
  7 10  1  0  0  0  0
  8  9  1  0  0  0  0
  9  7  1  0  0  0  0
 10  6  1  1  0  0  0
 11  8  1  0  0  0  0
 11 12  2  0  0  0  0
 12 14  1  0  0  0  0
 13 10  1  0  0  0  0
 14  9  2  0  0  0  0
 14 13  1  0  0  0  0
 15 11  1  0  0  0  0
 16 19  1  1  0  0  0
 16 29  1  0  0  0  0
 17 19  2  0  0  0  0
 18 17  2  0  0  0  0
 20 21  1  6  0  0  0
 20 18  1  0  0  0  0
 22 23  2  0  0  0  0
 22 20  1  0  0  0  0
 24 22  1  0  0  0  0
 25 26  1  0  0  0  0
 26 28  1  0  0  0  0
 26 27  1  0  0  0  0
 26 24  1  0  0  0  0
 29 30  3  0  0  0  0
M  END
>  <MODEL>
6

>  <REMARK>
 VINA RESULT:      -7.6      1.629      2.218
  Name = 
  10 active torsions:
  status: ('A' for Active; 'I' for Inactive)
    1  A    between atoms: C_2  and  C_22
    2  A    between atoms: C_4  and  C_27
    3  A    between atoms: C_5  and  C_22
    4  A    between atoms: C_8  and  O_12
    5  A    between atoms: C_8  and  C_27
    6  A    between atoms: C_9  and  O_12
    7  A    between atoms: C_11  and  C_29
    8  A    between atoms: C_19  and  C_22
    9  A    between atoms: C_19  and  C_28
   10  A    between atoms: C_19  and  C_29
                            x       y       z     vdW  Elec       q    Type
                         _______ _______ _______ _____ _____    ______ ____

>  <TORSDO>
F 10

$$$$
=
 OpenBabel11052412243D

 30 31  0  0  1  0  0  0  0  0999 V2000
  190.3710  176.9560  145.7300 C   0  0  2  0  0  3  0  0  0  0  0  0
  192.4300  174.9290  146.4500 C   0  0  0  0  0  1  0  0  0  0  0  0
  191.9770  175.9930  147.3960 C   0  0  0  0  0  3  0  0  0  0  0  0
  191.0550  176.9070  147.0720 C   0  0  0  0  0  3  0  0  0  0  0  0
  190.4920  178.9300  144.1950 C   0  0  0  0  0  1  0  0  0  0  0  0
  191.2160  177.6620  144.6380 C   0  0  2  0  0  3  0  0  0  0  0  0
  190.2320  176.1490  142.8190 C   0  0  0  0  0  2  0  0  0  0  0  0
  189.1590  176.4020  140.2790 S   0  0  0  0  0  0  0  0  0  0  0  0
  190.2010  176.5780  141.5780 C   0  0  0  0  0  0  0  0  0  0  0  0
  191.4970  176.7500  143.4200 C   0  0  1  0  0  3  0  0  0  0  0  0
  190.1580  177.4210  139.3360 C   0  0  0  0  0  0  0  0  0  0  0  0
  191.2490  177.8770  140.0070 N   0  0  0  0  0  0  0  0  0  0  0  0
  192.0580  177.5600  142.2610 C   0  0  0  0  0  2  0  0  0  0  0  0
  191.2250  177.3730  141.2620 C   0  0  0  0  0  0  0  0  0  0  0  0
  189.8690  177.7860  137.9240 C   0  0  0  0  0  1  0  0  0  0  0  0
  188.9570  177.5410  145.9160 C   0  0  1  0  0  3  0  0  0  0  0  0
  187.3430  177.1270  144.0880 C   0  0  0  0  0  0  0  0  0  0  0  0
  186.8410  177.4420  142.9250 C   0  0  0  0  0  3  0  0  0  0  0  0
  187.8480  176.7810  145.2430 C   0  0  0  0  0  3  0  0  0  0  0  0
  186.2910  178.8040  142.6490 C   0  0  1  0  0  3  0  0  0  0  0  0
  185.9160  178.9050  141.1830 C   0  0  0  0  0  1  0  0  0  0  0  0
  185.0940  179.1070  143.4930 C   0  0  0  0  0  0  0  0  0  0  0  0
  184.4030  180.1250  143.2290 O   0  0  0  0  0  0  0  0  0  0  0  0
  184.7220  178.2390  144.5260 O   0  0  0  0  0  0  0  0  0  0  0  0
  183.4270  179.1020  146.2210 F   0  0  0  0  0  0  0  0  0  0  0  0
  184.6860  178.6320  145.8950 C   0  0  0  0  0  0  0  0  0  0  0  0
  184.9790  177.5400  146.6880 F   0  0  0  0  0  0  0  0  0  0  0  0
  185.6250  179.6220  146.1260 F   0  0  0  0  0  0  0  0  0  0  0  0
  188.6520  177.9260  147.3030 C   0  0  0  0  0  0  0  0  0  0  0  0
  188.4010  178.2450  148.4380 C   0  0  0  0  0  3  0  0  0  0  0  0
  1 16  1  0  0  0  0
  1  4  1  1  0  0  0
  2  3  1  0  0  0  0
  4  3  2  0  0  0  0
  6  5  1  6  0  0  0
  6  1  1  0  0  0  0
  7 10  1  0  0  0  0
  8  9  1  0  0  0  0
  9  7  1  0  0  0  0
 10  6  1  1  0  0  0
 11 12  2  0  0  0  0
 11  8  1  0  0  0  0
 12 14  1  0  0  0  0
 13 10  1  0  0  0  0
 14  9  2  0  0  0  0
 14 13  1  0  0  0  0
 15 11  1  0  0  0  0
 16 19  1  1  0  0  0
 16 29  1  0  0  0  0
 17 19  2  0  0  0  0
 18 17  2  0  0  0  0
 20 21  1  6  0  0  0
 20 18  1  0  0  0  0
 20 22  1  0  0  0  0
 22 24  1  0  0  0  0
 23 22  2  0  0  0  0
 24 26  1  0  0  0  0
 26 28  1  0  0  0  0
 26 25  1  0  0  0  0
 26 27  1  0  0  0  0
 29 30  3  0  0  0  0
M  END
>  <MODEL>
7

>  <REMARK>
 VINA RESULT:      -7.3      1.764      2.209
  Name = 
  10 active torsions:
  status: ('A' for Active; 'I' for Inactive)
    1  A    between atoms: C_2  and  C_22
    2  A    between atoms: C_4  and  C_27
    3  A    between atoms: C_5  and  C_22
    4  A    between atoms: C_8  and  O_12
    5  A    between atoms: C_8  and  C_27
    6  A    between atoms: C_9  and  O_12
    7  A    between atoms: C_11  and  C_29
    8  A    between atoms: C_19  and  C_22
    9  A    between atoms: C_19  and  C_28
   10  A    between atoms: C_19  and  C_29
                            x       y       z     vdW  Elec       q    Type
                         _______ _______ _______ _____ _____    ______ ____

>  <TORSDO>
F 10

$$$$
=
 OpenBabel11052412243D

 30 31  0  0  1  0  0  0  0  0999 V2000
  186.6510  178.5670  143.3440 C   0  0  2  0  0  3  0  0  0  0  0  0
  184.4490  177.8580  141.4690 C   0  0  0  0  0  1  0  0  0  0  0  0
  184.6890  179.2540  141.9450 C   0  0  0  0  0  3  0  0  0  0  0  0
  185.6750  179.5730  142.7910 C   0  0  0  0  0  3  0  0  0  0  0  0
  187.8440  176.3990  142.9610 C   0  0  0  0  0  1  0  0  0  0  0  0
  187.2110  177.6010  142.2670 C   0  0  2  0  0  3  0  0  0  0  0  0
  189.5610  177.5350  141.2480 C   0  0  0  0  0  2  0  0  0  0  0  0
  190.8380  176.3880  139.0750 S   0  0  0  0  0  0  0  0  0  0  0  0
  189.7000  177.2170  139.9810 C   0  0  0  0  0  0  0  0  0  0  0  0
  188.2360  178.2840  141.3310 C   0  0  1  0  0  3  0  0  0  0  0  0
  189.8910  176.6160  137.6700 C   0  0  0  0  0  0  0  0  0  0  0  0
  188.7410  177.3040  137.9010 N   0  0  0  0  0  0  0  0  0  0  0  0
  187.7510  178.2530  139.8900 C   0  0  0  0  0  2  0  0  0  0  0  0
  188.6830  177.6180  139.2150 C   0  0  0  0  0  0  0  0  0  0  0  0
  190.2720  176.1110  136.3250 C   0  0  0  0  0  1  0  0  0  0  0  0
  186.0040  177.8620  144.5530 C   0  0  1  0  0  3  0  0  0  0  0  0
  188.1950  177.8800  145.7010 C   0  0  0  0  0  0  0  0  0  0  0  0
  189.4440  178.2560  145.7570 C   0  0  0  0  0  3  0  0  0  0  0  0
  186.9410  177.5130  145.6770 C   0  0  0  0  0  3  0  0  0  0  0  0
  190.4040  177.9610  144.6500 C   0  0  1  0  0  3  0  0  0  0  0  0
  191.0890  179.2450  144.2250 C   0  0  0  0  0  1  0  0  0  0  0  0
  191.4350  176.9560  145.0560 C   0  0  0  0  0  0  0  0  0  0  0  0
  191.7730  176.0630  144.2370 O   0  0  0  0  0  0  0  0  0  0  0  0
  192.0480  177.0430  146.3120 O   0  0  0  0  0  0  0  0  0  0  0  0
  192.5480  174.8650  146.8590 F   0  0  0  0  0  0  0  0  0  0  0  0
  191.9390  176.0250  147.3020 C   0  0  0  0  0  0  0  0  0  0  0  0
  192.5620  176.4490  148.4590 F   0  0  0  0  0  0  0  0  0  0  0  0
  190.6050  175.7740  147.5740 F   0  0  0  0  0  0  0  0  0  0  0  0
  184.7510  178.4870  145.0040 C   0  0  0  0  0  0  0  0  0  0  0  0
  183.7240  178.9980  145.3750 C   0  0  0  0  0  3  0  0  0  0  0  0
  1  4  1  6  0  0  0
  1 16  1  0  0  0  0
  2  3  1  0  0  0  0
  3  4  2  0  0  0  0
  6  5  1  1  0  0  0
  6  1  1  0  0  0  0
  7 10  1  0  0  0  0
  8  9  1  0  0  0  0
  9  7  1  0  0  0  0
 10  6  1  1  0  0  0
 11 12  2  0  0  0  0
 11  8  1  0  0  0  0
 12 14  1  0  0  0  0
 13 10  1  0  0  0  0
 14 13  1  0  0  0  0
 14  9  2  0  0  0  0
 15 11  1  0  0  0  0
 16 29  1  1  0  0  0
 16 19  1  0  0  0  0
 17 18  2  0  0  0  0
 19 17  2  0  0  0  0
 20 21  1  1  0  0  0
 20 22  1  0  0  0  0
 20 18  1  0  0  0  0
 22 24  1  0  0  0  0
 23 22  2  0  0  0  0
 24 26  1  0  0  0  0
 25 26  1  0  0  0  0
 26 28  1  0  0  0  0
 26 27  1  0  0  0  0
 29 30  3  0  0  0  0
M  END
>  <MODEL>
8

>  <REMARK>
 VINA RESULT:      -7.2      4.436      6.526
  Name = 
  10 active torsions:
  status: ('A' for Active; 'I' for Inactive)
    1  A    between atoms: C_2  and  C_22
    2  A    between atoms: C_4  and  C_27
    3  A    between atoms: C_5  and  C_22
    4  A    between atoms: C_8  and  O_12
    5  A    between atoms: C_8  and  C_27
    6  A    between atoms: C_9  and  O_12
    7  A    between atoms: C_11  and  C_29
    8  A    between atoms: C_19  and  C_22
    9  A    between atoms: C_19  and  C_28
   10  A    between atoms: C_19  and  C_29
                            x       y       z     vdW  Elec       q    Type
                         _______ _______ _______ _____ _____    ______ ____

>  <TORSDO>
F 10

$$$$
=
 OpenBabel11052412243D

 30 31  0  0  1  0  0  0  0  0999 V2000
  182.2770  178.6330  141.6250 C   0  0  2  0  0  3  0  0  0  0  0  0
  184.1750  179.3910  139.4590 C   0  0  0  0  0  1  0  0  0  0  0  0
  183.6280  178.0080  139.6090 C   0  0  0  0  0  3  0  0  0  0  0  0
  182.7790  177.6660  140.5840 C   0  0  0  0  0  3  0  0  0  0  0  0
  181.6780  178.6130  144.0560 C   0  0  0  0  0  1  0  0  0  0  0  0
  182.7890  178.3140  143.0540 C   0  0  2  0  0  3  0  0  0  0  0  0
  184.1890  179.3920  144.9100 C   0  0  0  0  0  2  0  0  0  0  0  0
  186.1370  178.6400  146.7280 S   0  0  0  0  0  0  0  0  0  0  0  0
  185.3080  178.8140  145.2840 C   0  0  0  0  0  0  0  0  0  0  0  0
  184.0680  179.1040  143.4180 C   0  0  1  0  0  3  0  0  0  0  0  0
  187.3300  177.7070  145.9340 C   0  0  0  0  0  0  0  0  0  0  0  0
  187.0880  177.5400  144.6060 N   0  0  0  0  0  0  0  0  0  0  0  0
  185.3110  178.2710  143.1440 C   0  0  0  0  0  2  0  0  0  0  0  0
  185.9400  178.1820  144.2930 C   0  0  0  0  0  0  0  0  0  0  0  0
  188.5160  177.1260  146.6170 C   0  0  0  0  0  1  0  0  0  0  0  0
  180.7430  178.7340  141.5080 C   0  0  1  0  0  3  0  0  0  0  0  0
  180.0460  180.6240  140.0720 C   0  0  0  0  0  0  0  0  0  0  0  0
  179.8620  181.1420  138.8880 C   0  0  0  0  0  3  0  0  0  0  0  0
  180.2020  180.1160  141.2670 C   0  0  0  0  0  3  0  0  0  0  0  0
  180.9670  181.2260  137.8860 C   0  0  1  0  0  3  0  0  0  0  0  0
  181.1950  179.8570  137.2760 C   0  0  0  0  0  1  0  0  0  0  0  0
  180.6650  182.2110  136.8010 C   0  0  0  0  0  0  0  0  0  0  0  0
  180.7790  181.8510  135.6010 O   0  0  0  0  0  0  0  0  0  0  0  0
  180.2130  183.4970  137.1220 O   0  0  0  0  0  0  0  0  0  0  0  0
  180.5190  185.6430  137.8930 F   0  0  0  0  0  0  0  0  0  0  0  0
  181.0580  184.6440  137.1030 C   0  0  0  0  0  0  0  0  0  0  0  0
  182.3010  184.2990  137.5970 F   0  0  0  0  0  0  0  0  0  0  0  0
  181.1990  185.1040  135.8060 F   0  0  0  0  0  0  0  0  0  0  0  0
  180.1450  177.7070  140.6420 C   0  0  0  0  0  0  0  0  0  0  0  0
  179.6550  176.8630  139.9340 C   0  0  0  0  0  3  0  0  0  0  0  0
  1  4  1  6  0  0  0
  1  6  1  0  0  0  0
  2  3  1  0  0  0  0
  3  4  2  0  0  0  0
  6  5  1  1  0  0  0
  7  9  1  0  0  0  0
  9  8  1  0  0  0  0
 10  6  1  1  0  0  0
 10  7  1  0  0  0  0
 11 15  1  0  0  0  0
 11  8  1  0  0  0  0
 12 11  2  0  0  0  0
 13 10  1  0  0  0  0
 13 14  1  0  0  0  0
 14 12  1  0  0  0  0
 14  9  2  0  0  0  0
 16 29  1  6  0  0  0
 16  1  1  0  0  0  0
 17 19  2  0  0  0  0
 18 17  2  0  0  0  0
 19 16  1  0  0  0  0
 20 21  1  6  0  0  0
 20 18  1  0  0  0  0
 22 24  1  0  0  0  0
 22 20  1  0  0  0  0
 23 22  2  0  0  0  0
 26 24  1  0  0  0  0
 26 27  1  0  0  0  0
 26 25  1  0  0  0  0
 28 26  1  0  0  0  0
 30 29  3  0  0  0  0
M  END
>  <MODEL>
9

>  <REMARK>
 VINA RESULT:      -7.2      4.972      8.691
  Name = 
  10 active torsions:
  status: ('A' for Active; 'I' for Inactive)
    1  A    between atoms: C_2  and  C_22
    2  A    between atoms: C_4  and  C_27
    3  A    between atoms: C_5  and  C_22
    4  A    between atoms: C_8  and  O_12
    5  A    between atoms: C_8  and  C_27
    6  A    between atoms: C_9  and  O_12
    7  A    between atoms: C_11  and  C_29
    8  A    between atoms: C_19  and  C_22
    9  A    between atoms: C_19  and  C_28
   10  A    between atoms: C_19  and  C_29
                            x       y       z     vdW  Elec       q    Type
                         _______ _______ _______ _____ _____    ______ ____

>  <TORSDO>
F 10

$$$$
