=
 OpenBabel11052412253D

 30 35  0  0  1  0  0  0  0  0999 V2000
  186.7240  178.3740  140.2750 C   0  0  0  0  0  0  0  0  0  0  0  0
  184.3360  178.4340  141.0610 C   0  0  0  0  0  0  0  0  0  0  0  0
  184.3210  177.8120  136.5050 C   0  0  0  0  0  2  0  0  0  0  0  0
  187.5620  178.1550  139.1770 O   0  0  0  0  0  0  0  0  0  0  0  0
  187.2580  178.4790  141.4560 N   0  0  0  0  0  0  0  0  0  0  0  0
  190.8350  177.3110  140.8750 C   0  0  0  0  0  2  0  0  0  0  0  0
  188.4760  176.6350  136.2320 C   0  0  2  0  0  3  0  0  0  0  0  0
  189.3120  177.3390  140.7410 C   0  0  1  0  0  3  0  0  0  0  0  0
  189.0940  178.2530  143.0650 C   0  0  0  0  0  2  0  0  0  0  0  0
  187.5090  176.0890  137.1750 N   0  0  2  0  0  0  0  0  0  0  0  0
  185.7010  177.4930  135.9770 C   0  0  1  0  0  3  0  0  0  0  0  0
  188.7100  178.4530  141.6040 C   0  0  2  0  0  3  0  0  0  0  0  0
  188.7730  177.3940  139.2940 C   0  0  2  0  0  3  0  0  0  0  0  0
  182.9210  178.7590  140.7840 C   0  0  0  0  0  3  0  0  0  0  0  0
  187.7550  174.6480  137.2080 C   0  0  0  0  0  2  0  0  0  0  0  0
  189.4790  175.5500  135.9600 C   0  0  0  0  0  2  0  0  0  0  0  0
  191.2210  177.1280  142.3420 C   0  0  0  0  0  2  0  0  0  0  0  0
  184.6760  178.0350  142.4590 C   0  0  0  0  0  1  0  0  0  0  0  0
  184.3190  177.5240  137.9400 N   0  0  1  0  0  0  0  0  0  0  0  0
  182.5690  179.3630  139.6460 C   0  0  0  0  0  3  0  0  0  0  0  0
  190.6160  178.2390  143.2010 C   0  0  0  0  0  2  0  0  0  0  0  0
  185.2550  178.5070  140.0650 C   0  0  0  0  0  0  0  0  0  0  0  0
  185.2790  176.4290  138.1060 C   0  0  0  0  0  2  0  0  0  0  0  0
  186.5110  178.6040  136.2180 O   0  0  0  0  0  1  0  0  0  0  0  0
  186.0920  176.2840  136.8270 C   0  0  2  0  0  3  0  0  0  0  0  0
  188.8120  174.3030  136.2640 N   0  0  0  0  0  2  0  0  0  0  0  0
  189.7890  177.7440  138.1990 C   0  0  0  0  0  2  0  0  0  0  0  0
  183.6240  179.7780  138.6600 C   0  0  0  0  0  2  0  0  0  0  0  0
  184.7670  178.7500  138.6380 C   0  0  2  0  0  3  0  0  0  0  0  0
  189.1620  177.8900  136.8030 C   0  0  0  0  0  2  0  0  0  0  0  0
  1  5  2  0  0  0  0
  2 18  1  0  0  0  0
  4 13  1  0  0  0  0
  4  1  1  0  0  0  0
  5 12  1  0  0  0  0
  6 17  1  0  0  0  0
  7 16  1  1  0  0  0
  7 30  1  0  0  0  0
  7 10  1  0  0  0  0
  8  6  1  6  0  0  0
  8 12  1  0  0  0  0
  9 21  1  0  0  0  0
 10 15  1  6  0  0  0
 11 24  1  1  0  0  0
 11  3  1  0  0  0  0
 11 25  1  0  0  0  0
 12  9  1  1  0  0  0
 13 27  1  6  0  0  0
 13  8  1  0  0  0  0
 14  2  1  0  0  0  0
 16 26  1  0  0  0  0
 17 21  1  0  0  0  0
 19  3  1  6  0  0  0
 19 23  1  0  0  0  0
 19 29  1  0  0  0  0
 20 14  2  0  0  0  0
 22  1  1  0  0  0  0
 22  2  2  0  0  0  0
 25 10  1  0  0  0  0
 25 23  1  1  0  0  0
 26 15  1  0  0  0  0
 28 20  1  0  0  0  0
 29 28  1  1  0  0  0
 29 22  1  0  0  0  0
 30 27  1  0  0  0  0
M  END
>  <MODEL>
1

>  <REMARK>
 VINA RESULT:      -6.7      0.000      0.000
  Name = 
  0 active torsions:
  status: ('A' for Active; 'I' for Inactive)
                            x       y       z     vdW  Elec       q    Type
                         _______ _______ _______ _____ _____    ______ ____

>  <TORSDO>
F 0

$$$$
=
 OpenBabel11052412253D

 30 35  0  0  1  0  0  0  0  0999 V2000
  184.8160  178.1560  139.3020 C   0  0  0  0  0  0  0  0  0  0  0  0
  184.0510  178.3700  141.6880 C   0  0  0  0  0  0  0  0  0  0  0  0
  180.5000  176.8650  139.1830 C   0  0  0  0  0  2  0  0  0  0  0  0
  184.4580  177.7250  138.0190 O   0  0  0  0  0  0  0  0  0  0  0  0
  186.0520  178.4910  139.5250 N   0  0  0  0  0  0  0  0  0  0  0  0
  187.8470  177.2310  136.4130 C   0  0  0  0  0  2  0  0  0  0  0  0
  182.8780  175.6560  135.7750 C   0  0  2  0  0  3  0  0  0  0  0  0
  186.8530  177.2330  137.5750 C   0  0  1  0  0  3  0  0  0  0  0  0
  188.4380  178.5860  138.9690 C   0  0  0  0  0  2  0  0  0  0  0  0
  183.1590  175.3070  137.1610 N   0  0  2  0  0  0  0  0  0  0  0  0
  180.9290  176.4470  137.7940 C   0  0  1  0  0  3  0  0  0  0  0  0
  187.0150  178.4950  138.4280 C   0  0  2  0  0  3  0  0  0  0  0  0
  185.3760  177.0020  137.1860 C   0  0  2  0  0  3  0  0  0  0  0  0
  182.9570  178.6350  142.6470 C   0  0  0  0  0  3  0  0  0  0  0  0
  183.5580  173.9000  137.1440 C   0  0  0  0  0  2  0  0  0  0  0  0
  183.4160  174.5390  134.9270 C   0  0  0  0  0  2  0  0  0  0  0  0
  189.2720  177.3400  136.9520 C   0  0  0  0  0  2  0  0  0  0  0  0
  185.4290  178.2530  142.2500 C   0  0  0  0  0  1  0  0  0  0  0  0
  181.6920  176.8640  140.0320 N   0  0  1  0  0  0  0  0  0  0  0  0
  181.7480  179.0030  142.2180 C   0  0  0  0  0  3  0  0  0  0  0  0
  189.4310  178.5980  137.8060 C   0  0  0  0  0  2  0  0  0  0  0  0
  183.7750  178.2450  140.3650 C   0  0  0  0  0  0  0  0  0  0  0  0
  182.5560  175.8230  139.4690 C   0  0  0  0  0  2  0  0  0  0  0  0
  181.4130  177.5840  137.1440 O   0  0  0  0  0  1  0  0  0  0  0  0
  182.0280  175.4290  138.0970 C   0  0  2  0  0  3  0  0  0  0  0  0
  183.4720  173.3750  135.7860 N   0  0  0  0  0  2  0  0  0  0  0  0
  185.0330  177.1290  135.6960 C   0  0  0  0  0  2  0  0  0  0  0  0
  181.5040  179.2160  140.7510 C   0  0  0  0  0  2  0  0  0  0  0  0
  182.3130  178.2040  139.9240 C   0  0  2  0  0  3  0  0  0  0  0  0
  183.5310  176.9980  135.3980 C   0  0  0  0  0  2  0  0  0  0  0  0
  1  5  2  0  0  0  0
  1 22  1  0  0  0  0
  2 18  1  0  0  0  0
  2 14  1  0  0  0  0
  4  1  1  0  0  0  0
  6 17  1  0  0  0  0
  7 16  1  6  0  0  0
  7 10  1  0  0  0  0
  8  6  1  6  0  0  0
  8 12  1  0  0  0  0
 10 15  1  6  0  0  0
 10 25  1  0  0  0  0
 11 24  1  6  0  0  0
 11 25  1  0  0  0  0
 11  3  1  0  0  0  0
 12  9  1  1  0  0  0
 12  5  1  0  0  0  0
 13 27  1  6  0  0  0
 13  8  1  0  0  0  0
 13  4  1  0  0  0  0
 16 26  1  0  0  0  0
 17 21  1  0  0  0  0
 19  3  1  6  0  0  0
 20 14  2  0  0  0  0
 21  9  1  0  0  0  0
 22  2  2  0  0  0  0
 23 19  1  0  0  0  0
 25 23  1  1  0  0  0
 26 15  1  0  0  0  0
 28 20  1  0  0  0  0
 29 19  1  0  0  0  0
 29 22  1  0  0  0  0
 29 28  1  1  0  0  0
 30 27  1  0  0  0  0
 30  7  1  0  0  0  0
M  END
>  <MODEL>
2

>  <REMARK>
 VINA RESULT:      -6.6      2.510      4.194
  Name = 
  0 active torsions:
  status: ('A' for Active; 'I' for Inactive)
                            x       y       z     vdW  Elec       q    Type
                         _______ _______ _______ _____ _____    ______ ____

>  <TORSDO>
F 0

$$$$
=
 OpenBabel11052412253D

 30 35  0  0  1  0  0  0  0  0999 V2000
  183.3250  178.2980  139.6170 C   0  0  0  0  0  0  0  0  0  0  0  0
  183.0560  178.5610  142.1040 C   0  0  0  0  0  0  0  0  0  0  0  0
  178.9310  177.5890  140.3200 C   0  0  0  0  0  2  0  0  0  0  0  0
  182.6790  177.9450  138.4270 O   0  0  0  0  0  0  0  0  0  0  0  0
  184.6140  178.4620  139.6020 N   0  0  0  0  0  0  0  0  0  0  0  0
  185.6100  177.0420  136.2130 C   0  0  0  0  0  2  0  0  0  0  0  0
  180.4450  176.1480  136.5310 C   0  0  2  0  0  3  0  0  0  0  0  0
  184.8610  177.1500  137.5420 C   0  0  1  0  0  3  0  0  0  0  0  0
  186.8450  178.2540  138.6050 C   0  0  0  0  0  2  0  0  0  0  0  0
  180.9320  175.7360  137.8410 N   0  0  2  0  0  0  0  0  0  0  0  0
  179.0320  177.1470  138.8770 C   0  0  1  0  0  3  0  0  0  0  0  0
  185.3470  178.3620  138.3430 C   0  0  2  0  0  3  0  0  0  0  0  0
  183.3200  177.1240  137.4400 C   0  0  2  0  0  3  0  0  0  0  0  0
  182.2070  178.9480  143.2510 C   0  0  0  0  0  3  0  0  0  0  0  0
  181.1290  174.2900  137.7550 C   0  0  0  0  0  2  0  0  0  0  0  0
  180.6600  174.9870  135.6020 C   0  0  0  0  0  2  0  0  0  0  0  0
  187.1130  176.9510  136.4740 C   0  0  0  0  0  2  0  0  0  0  0  0
  184.4870  178.2530  142.3970 C   0  0  0  0  0  1  0  0  0  0  0  0
  180.2500  177.4140  140.9300 N   0  0  1  0  0  0  0  0  0  0  0  0
  180.9980  179.4810  143.0560 C   0  0  0  0  0  3  0  0  0  0  0  0
  187.5940  178.1600  137.2770 C   0  0  0  0  0  2  0  0  0  0  0  0
  182.5230  178.5020  140.8570 C   0  0  0  0  0  0  0  0  0  0  0  0
  180.8460  176.2800  140.2180 C   0  0  0  0  0  2  0  0  0  0  0  0
  179.5330  178.2230  138.1420 O   0  0  0  0  0  1  0  0  0  0  0  0
  180.0230  175.9870  138.9720 C   0  0  2  0  0  3  0  0  0  0  0  0
  180.7210  173.8090  136.4400 N   0  0  0  0  0  2  0  0  0  0  0  0
  182.7230  177.3260  136.0400 C   0  0  0  0  0  2  0  0  0  0  0  0
  180.5150  179.7540  141.6600 C   0  0  0  0  0  2  0  0  0  0  0  0
  181.0120  178.6620  140.7000 C   0  0  2  0  0  3  0  0  0  0  0  0
  181.1880  177.4000  136.0310 C   0  0  0  0  0  2  0  0  0  0  0  0
  1 22  1  0  0  0  0
  2 18  1  0  0  0  0
  2 14  1  0  0  0  0
  3 19  1  0  0  0  0
  4  1  1  0  0  0  0
  5  1  2  0  0  0  0
  6 17  1  0  0  0  0
  7 16  1  6  0  0  0
  7 10  1  0  0  0  0
  8  6  1  6  0  0  0
  8 12  1  0  0  0  0
 10 15  1  6  0  0  0
 10 25  1  0  0  0  0
 11 24  1  6  0  0  0
 11 25  1  0  0  0  0
 11  3  1  0  0  0  0
 12  9  1  1  0  0  0
 12  5  1  0  0  0  0
 13 27  1  6  0  0  0
 13  8  1  0  0  0  0
 13  4  1  0  0  0  0
 16 26  1  0  0  0  0
 17 21  1  0  0  0  0
 19 23  1  6  0  0  0
 20 14  2  0  0  0  0
 21  9  1  0  0  0  0
 22  2  2  0  0  0  0
 25 23  1  1  0  0  0
 26 15  1  0  0  0  0
 28 20  1  0  0  0  0
 29 22  1  0  0  0  0
 29 19  1  0  0  0  0
 29 28  1  1  0  0  0
 30 27  1  0  0  0  0
 30  7  1  0  0  0  0
M  END
>  <MODEL>
3

>  <REMARK>
 VINA RESULT:      -6.3      3.301      5.851
  Name = 
  0 active torsions:
  status: ('A' for Active; 'I' for Inactive)
                            x       y       z     vdW  Elec       q    Type
                         _______ _______ _______ _____ _____    ______ ____

>  <TORSDO>
F 0

$$$$
=
 OpenBabel11052412253D

 30 35  0  0  1  0  0  0  0  0999 V2000
  185.3590  177.8090  138.0790 C   0  0  0  0  0  0  0  0  0  0  0  0
  183.7220  178.8710  139.6670 C   0  0  0  0  0  0  0  0  0  0  0  0
  181.3540  176.2560  136.7160 C   0  0  0  0  0  2  0  0  0  0  0  0
  185.5080  176.8910  137.0340 O   0  0  0  0  0  0  0  0  0  0  0  0
  186.4260  178.2950  138.6400 N   0  0  0  0  0  0  0  0  0  0  0  0
  189.1930  176.0670  137.2690 C   0  0  0  0  0  2  0  0  0  0  0  0
  184.7740  174.0040  135.3180 C   0  0  2  0  0  3  0  0  0  0  0  0
  187.8200  176.4440  137.8290 C   0  0  1  0  0  3  0  0  0  0  0  0
  188.8310  178.3440  139.1130 C   0  0  0  0  0  2  0  0  0  0  0  0
  184.4390  174.2400  136.7160 N   0  0  2  0  0  0  0  0  0  0  0  0
  182.2640  175.3670  135.8980 C   0  0  1  0  0  3  0  0  0  0  0  0
  187.7450  177.9460  138.1210 C   0  0  2  0  0  3  0  0  0  0  0  0
  186.6100  175.9730  136.9920 C   0  0  2  0  0  3  0  0  0  0  0  0
  182.3660  179.4040  139.9160 C   0  0  0  0  0  3  0  0  0  0  0  0
  184.6750  172.9690  137.4000 C   0  0  0  0  0  2  0  0  0  0  0  0
  185.4990  172.6890  135.2590 C   0  0  0  0  0  2  0  0  0  0  0  0
  190.2830  176.4810  138.2550 C   0  0  0  0  0  2  0  0  0  0  0  0
  184.7390  179.0830  140.7380 C   0  0  0  0  0  1  0  0  0  0  0  0
  182.0970  176.6720  137.9060 N   0  0  1  0  0  0  0  0  0  0  0  0
  181.4730  179.4870  138.9270 C   0  0  0  0  0  3  0  0  0  0  0  0
  190.2040  177.9800  138.5480 C   0  0  0  0  0  2  0  0  0  0  0  0
  183.9920  178.2240  138.5030 C   0  0  0  0  0  0  0  0  0  0  0  0
  183.0110  175.5610  138.1880 C   0  0  0  0  0  2  0  0  0  0  0  0
  183.0750  176.1970  135.1210 O   0  0  0  0  0  1  0  0  0  0  0  0
  183.0450  174.6300  136.9850 C   0  0  2  0  0  3  0  0  0  0  0  0
  185.0930  171.9560  136.4390 N   0  0  0  0  0  2  0  0  0  0  0  0
  186.9100  175.4880  135.5670 C   0  0  0  0  0  2  0  0  0  0  0  0
  181.8620  179.0980  137.5290 C   0  0  0  0  0  2  0  0  0  0  0  0
  182.8350  177.9070  137.5580 C   0  0  2  0  0  3  0  0  0  0  0  0
  185.6500  175.1410  134.7580 C   0  0  0  0  0  2  0  0  0  0  0  0
  1 22  1  0  0  0  0
  1  5  2  0  0  0  0
  2 14  1  0  0  0  0
  2 18  1  0  0  0  0
  4  1  1  0  0  0  0
  6 17  1  0  0  0  0
  7 30  1  1  0  0  0
  7 10  1  0  0  0  0
  8  6  1  6  0  0  0
  8 12  1  0  0  0  0
 10 25  1  0  0  0  0
 10 15  1  1  0  0  0
 11 24  1  6  0  0  0
 11  3  1  0  0  0  0
 11 25  1  0  0  0  0
 12  5  1  0  0  0  0
 12  9  1  1  0  0  0
 13 27  1  6  0  0  0
 13  4  1  0  0  0  0
 13  8  1  0  0  0  0
 16  7  1  0  0  0  0
 16 26  1  0  0  0  0
 17 21  1  0  0  0  0
 19  3  1  6  0  0  0
 19 23  1  0  0  0  0
 20 14  2  0  0  0  0
 21  9  1  0  0  0  0
 22  2  2  0  0  0  0
 25 23  1  1  0  0  0
 26 15  1  0  0  0  0
 28 20  1  0  0  0  0
 29 28  1  1  0  0  0
 29 19  1  0  0  0  0
 29 22  1  0  0  0  0
 30 27  1  0  0  0  0
M  END
>  <MODEL>
4

>  <REMARK>
 VINA RESULT:      -6.2      2.397      3.489
  Name = 
  0 active torsions:
  status: ('A' for Active; 'I' for Inactive)
                            x       y       z     vdW  Elec       q    Type
                         _______ _______ _______ _____ _____    ______ ____

>  <TORSDO>
F 0

$$$$
=
 OpenBabel11052412253D

 30 35  0  0  1  0  0  0  0  0999 V2000
  183.9430  177.7890  140.0110 C   0  0  0  0  0  0  0  0  0  0  0  0
  185.2120  177.7160  137.8410 C   0  0  0  0  0  0  0  0  0  0  0  0
  180.7230  177.9160  136.8610 C   0  0  0  0  0  2  0  0  0  0  0  0
  182.6790  177.9360  140.5940 O   0  0  0  0  0  0  0  0  0  0  0  0
  184.9900  177.8120  140.7800 N   0  0  0  0  0  0  0  0  0  0  0  0
  183.5820  179.0490  144.0950 C   0  0  0  0  0  2  0  0  0  0  0  0
  179.4930  179.2110  140.8020 C   0  0  2  0  0  3  0  0  0  0  0  0
  183.7720  178.9540  142.5800 C   0  0  1  0  0  3  0  0  0  0  0  0
  186.1570  178.2490  142.8920 C   0  0  0  0  0  2  0  0  0  0  0  0
  180.5700  179.8060  140.0210 N   0  0  2  0  0  0  0  0  0  0  0  0
  179.8950  178.2350  138.0850 C   0  0  1  0  0  3  0  0  0  0  0  0
  184.8300  177.9020  142.2280 C   0  0  2  0  0  3  0  0  0  0  0  0
  182.4790  178.7470  141.7600 C   0  0  2  0  0  3  0  0  0  0  0  0
  185.2640  177.3160  136.4190 C   0  0  0  0  0  3  0  0  0  0  0  0
  180.4320  181.2520  140.1900 C   0  0  0  0  0  2  0  0  0  0  0  0
  178.9310  180.3020  141.6690 C   0  0  0  0  0  2  0  0  0  0  0  0
  184.9160  179.3790  144.7620 C   0  0  0  0  0  2  0  0  0  0  0  0
  186.4700  178.2530  138.4380 C   0  0  0  0  0  1  0  0  0  0  0  0
  182.0980  178.3340  137.1370 N   0  0  1  0  0  0  0  0  0  0  0  0
  184.2770  176.5980  135.8750 C   0  0  0  0  0  3  0  0  0  0  0  0
  185.9710  178.3300  144.4070 C   0  0  0  0  0  2  0  0  0  0  0  0
  184.0550  177.5850  138.5390 C   0  0  0  0  0  0  0  0  0  0  0  0
  181.9690  179.4730  138.0500 C   0  0  0  0  0  2  0  0  0  0  0  0
  180.0520  177.1800  138.9860 O   0  0  0  0  0  1  0  0  0  0  0  0
  180.5420  179.5300  138.5750 C   0  0  2  0  0  3  0  0  0  0  0  0
  179.2640  181.5470  141.0110 N   0  0  0  0  0  2  0  0  0  0  0  0
  181.2280  178.3350  142.5480 C   0  0  0  0  0  2  0  0  0  0  0  0
  183.1310  176.1330  136.7270 C   0  0  0  0  0  2  0  0  0  0  0  0
  182.7860  177.1940  137.7840 C   0  0  2  0  0  3  0  0  0  0  0  0
  180.0100  178.0400  141.6570 C   0  0  0  0  0  2  0  0  0  0  0  0
  1  4  1  0  0  0  0
  1  5  2  0  0  0  0
  2 18  1  0  0  0  0
  2 22  2  0  0  0  0
  3 11  1  0  0  0  0
  4 13  1  0  0  0  0
  5 12  1  0  0  0  0
  6 17  1  0  0  0  0
  7 30  1  1  0  0  0
  7 16  1  0  0  0  0
  8  6  1  1  0  0  0
  9 21  1  0  0  0  0
 10 15  1  6  0  0  0
 10  7  1  0  0  0  0
 11 25  1  0  0  0  0
 11 24  1  1  0  0  0
 12  8  1  0  0  0  0
 12  9  1  1  0  0  0
 13 27  1  1  0  0  0
 13  8  1  0  0  0  0
 14  2  1  0  0  0  0
 15 26  1  0  0  0  0
 19  3  1  1  0  0  0
 19 29  1  0  0  0  0
 19 23  1  0  0  0  0
 20 14  2  0  0  0  0
 20 28  1  0  0  0  0
 21 17  1  0  0  0  0
 22  1  1  0  0  0  0
 25 23  1  1  0  0  0
 25 10  1  0  0  0  0
 26 16  1  0  0  0  0
 29 28  1  6  0  0  0
 29 22  1  0  0  0  0
 30 27  1  0  0  0  0
M  END
>  <MODEL>
5

>  <REMARK>
 VINA RESULT:      -6.1      3.377      6.809
  Name = 
  0 active torsions:
  status: ('A' for Active; 'I' for Inactive)
                            x       y       z     vdW  Elec       q    Type
                         _______ _______ _______ _____ _____    ______ ____

>  <TORSDO>
F 0

$$$$
=
 OpenBabel11052412253D

 30 35  0  0  1  0  0  0  0  0999 V2000
  187.3510  178.2530  141.2560 C   0  0  0  0  0  0  0  0  0  0  0  0
  186.3570  177.8980  143.5380 C   0  0  0  0  0  0  0  0  0  0  0  0
  182.9710  179.1430  140.6870 C   0  0  0  0  0  2  0  0  0  0  0  0
  187.0670  178.5240  139.9130 O   0  0  0  0  0  0  0  0  0  0  0  0
  188.5600  177.9010  141.5780 N   0  0  0  0  0  0  0  0  0  0  0  0
  190.1710  177.2070  138.1990 C   0  0  0  0  0  2  0  0  0  0  0  0
  185.1730  178.3410  137.0500 C   0  0  2  0  0  3  0  0  0  0  0  0
  189.0870  177.2240  139.2780 C   0  0  1  0  0  3  0  0  0  0  0  0
  190.8320  177.1280  141.0750 C   0  0  0  0  0  2  0  0  0  0  0  0
  185.0530  177.4260  138.1770 N   0  0  2  0  0  0  0  0  0  0  0  0
  183.4150  179.1160  139.2410 C   0  0  1  0  0  3  0  0  0  0  0  0
  189.6080  177.8780  140.5620 C   0  0  2  0  0  3  0  0  0  0  0  0
  187.7320  177.8290  138.8480 C   0  0  2  0  0  3  0  0  0  0  0  0
  185.3250  178.2490  144.5370 C   0  0  0  0  0  3  0  0  0  0  0  0
  184.8380  176.1030  137.5930 C   0  0  0  0  0  2  0  0  0  0  0  0
  185.3390  177.4960  135.8190 C   0  0  0  0  0  2  0  0  0  0  0  0
  191.4050  176.4710  138.7180 C   0  0  0  0  0  2  0  0  0  0  0  0
  187.4520  176.9890  143.9890 C   0  0  0  0  0  1  0  0  0  0  0  0
  183.8990  178.3070  141.4500 N   0  0  1  0  0  0  0  0  0  0  0  0
  184.4620  179.2420  144.3070 C   0  0  0  0  0  3  0  0  0  0  0  0
  191.9200  177.1220  140.0020 C   0  0  0  0  0  2  0  0  0  0  0  0
  186.2780  178.3990  142.2790 C   0  0  0  0  0  0  0  0  0  0  0  0
  184.3410  177.2770  140.5060 C   0  0  0  0  0  2  0  0  0  0  0  0
  184.4220  180.0710  139.0930 O   0  0  0  0  0  1  0  0  0  0  0  0
  183.9340  177.6860  139.0980 C   0  0  2  0  0  3  0  0  0  0  0  0
  184.7710  176.2050  136.1410 N   0  0  0  0  0  2  0  0  0  0  0  0
  187.7240  178.6270  137.5370 C   0  0  0  0  0  2  0  0  0  0  0  0
  184.5740  180.0570  143.0500 C   0  0  0  0  0  2  0  0  0  0  0  0
  185.0220  179.1710  141.8770 C   0  0  2  0  0  3  0  0  0  0  0  0
  186.3710  179.2910  137.2310 C   0  0  0  0  0  2  0  0  0  0  0  0
  1  5  2  0  0  0  0
  1 22  1  0  0  0  0
  2 18  1  0  0  0  0
  2 14  1  0  0  0  0
  3 19  1  0  0  0  0
  4  1  1  0  0  0  0
  6 17  1  0  0  0  0
  7 16  1  6  0  0  0
  7 30  1  0  0  0  0
  7 10  1  0  0  0  0
  8  6  1  6  0  0  0
  8 12  1  0  0  0  0
 10 15  1  6  0  0  0
 10 25  1  0  0  0  0
 11 24  1  1  0  0  0
 11  3  1  0  0  0  0
 12  9  1  1  0  0  0
 12  5  1  0  0  0  0
 13 27  1  6  0  0  0
 13  8  1  0  0  0  0
 13  4  1  0  0  0  0
 16 26  1  0  0  0  0
 17 21  1  0  0  0  0
 19 23  1  6  0  0  0
 19 29  1  0  0  0  0
 20 14  2  0  0  0  0
 21  9  1  0  0  0  0
 22  2  2  0  0  0  0
 25 11  1  0  0  0  0
 25 23  1  1  0  0  0
 26 15  1  0  0  0  0
 28 20  1  0  0  0  0
 29 22  1  0  0  0  0
 29 28  1  1  0  0  0
 30 27  1  0  0  0  0
M  END
>  <MODEL>
6

>  <REMARK>
 VINA RESULT:      -6.0      1.877      3.336
  Name = 
  0 active torsions:
  status: ('A' for Active; 'I' for Inactive)
                            x       y       z     vdW  Elec       q    Type
                         _______ _______ _______ _____ _____    ______ ____

>  <TORSDO>
F 0

$$$$
=
 OpenBabel11052412253D

 30 35  0  0  1  0  0  0  0  0999 V2000
  187.3840  178.4520  141.3230 C   0  0  0  0  0  0  0  0  0  0  0  0
  186.6650  178.0220  138.9510 C   0  0  0  0  0  0  0  0  0  0  0  0
  191.2320  177.5320  139.1650 C   0  0  0  0  0  2  0  0  0  0  0  0
  188.4640  178.4310  142.2130 O   0  0  0  0  0  0  0  0  0  0  0  0
  186.1880  178.6280  141.7980 N   0  0  0  0  0  0  0  0  0  0  0  0
  186.6930  178.1980  145.5470 C   0  0  0  0  0  2  0  0  0  0  0  0
  191.4140  177.1980  143.4750 C   0  0  2  0  0  3  0  0  0  0  0  0
  186.8680  177.9310  144.0510 C   0  0  1  0  0  3  0  0  0  0  0  0
  184.5320  178.7230  143.6040 C   0  0  0  0  0  2  0  0  0  0  0  0
  190.5100  176.4490  142.6130 N   0  0  2  0  0  0  0  0  0  0  0  0
  191.7280  177.5030  140.5930 C   0  0  1  0  0  3  0  0  0  0  0  0
  186.0000  178.8830  143.2230 C   0  0  2  0  0  3  0  0  0  0  0  0
  188.3290  177.9190  143.5460 C   0  0  2  0  0  3  0  0  0  0  0  0
  186.9740  178.0720  137.5070 C   0  0  0  0  0  3  0  0  0  0  0  0
  190.5020  175.0830  143.1360 C   0  0  0  0  0  2  0  0  0  0  0  0
  191.6800  176.3380  144.6780 C   0  0  0  0  0  2  0  0  0  0  0  0
  185.2200  178.0550  145.9270 C   0  0  0  0  0  2  0  0  0  0  0  0
  185.2670  177.6600  139.3310 C   0  0  0  0  0  1  0  0  0  0  0  0
  189.8040  177.2110  139.1860 N   0  0  1  0  0  0  0  0  0  0  0  0
  188.1090  178.6260  137.0710 C   0  0  0  0  0  3  0  0  0  0  0  0
  184.3550  179.0030  145.0960 C   0  0  0  0  0  2  0  0  0  0  0  0
  187.6330  178.3000  139.8610 C   0  0  0  0  0  0  0  0  0  0  0  0
  189.6360  176.3210  140.3390 C   0  0  0  0  0  2  0  0  0  0  0  0
  191.4410  178.7440  141.1640 O   0  0  0  0  0  1  0  0  0  0  0  0
  190.8940  176.3710  141.1930 C   0  0  2  0  0  3  0  0  0  0  0  0
  191.4220  174.9760  144.2620 N   0  0  0  0  0  2  0  0  0  0  0  0
  189.3870  178.4890  144.4990 C   0  0  0  0  0  2  0  0  0  0  0  0
  189.0560  179.2650  138.0460 C   0  0  0  0  0  2  0  0  0  0  0  0
  189.0680  178.4820  139.3690 C   0  0  2  0  0  3  0  0  0  0  0  0
  190.7970  178.5460  143.8880 C   0  0  0  0  0  2  0  0  0  0  0  0
  1  5  2  0  0  0  0
  1  4  1  0  0  0  0
  2 18  1  0  0  0  0
  2 22  2  0  0  0  0
  3 11  1  0  0  0  0
  4 13  1  0  0  0  0
  5 12  1  0  0  0  0
  6 17  1  0  0  0  0
  7 30  1  1  0  0  0
  7 16  1  0  0  0  0
  8  6  1  1  0  0  0
  9 21  1  0  0  0  0
 10 15  1  1  0  0  0
 10  7  1  0  0  0  0
 11 24  1  1  0  0  0
 11 25  1  0  0  0  0
 12  9  1  1  0  0  0
 12  8  1  0  0  0  0
 13  8  1  0  0  0  0
 13 27  1  1  0  0  0
 14  2  1  0  0  0  0
 15 26  1  0  0  0  0
 19  3  1  1  0  0  0
 19 29  1  0  0  0  0
 19 23  1  0  0  0  0
 20 14  2  0  0  0  0
 20 28  1  0  0  0  0
 21 17  1  0  0  0  0
 22  1  1  0  0  0  0
 25 23  1  6  0  0  0
 25 10  1  0  0  0  0
 26 16  1  0  0  0  0
 29 28  1  6  0  0  0
 29 22  1  0  0  0  0
 30 27  1  0  0  0  0
M  END
>  <MODEL>
7

>  <REMARK>
 VINA RESULT:      -6.0      2.572      5.781
  Name = 
  0 active torsions:
  status: ('A' for Active; 'I' for Inactive)
                            x       y       z     vdW  Elec       q    Type
                         _______ _______ _______ _____ _____    ______ ____

>  <TORSDO>
F 0

$$$$
=
 OpenBabel11052412253D

 30 35  0  0  1  0  0  0  0  0999 V2000
  185.0340  178.0800  138.8320 C   0  0  0  0  0  0  0  0  0  0  0  0
  183.5310  178.6190  140.7750 C   0  0  0  0  0  0  0  0  0  0  0  0
  180.9310  176.8880  137.4000 C   0  0  0  0  0  2  0  0  0  0  0  0
  185.0980  177.4950  137.5620 O   0  0  0  0  0  0  0  0  0  0  0  0
  186.1440  178.4110  139.4230 N   0  0  0  0  0  0  0  0  0  0  0  0
  188.7890  176.7160  137.2710 C   0  0  0  0  0  2  0  0  0  0  0  0
  184.2250  175.1910  135.1650 C   0  0  2  0  0  3  0  0  0  0  0  0
  187.4650  176.8920  138.0180 C   0  0  1  0  0  3  0  0  0  0  0  0
  188.5790  178.3760  139.7040 C   0  0  0  0  0  2  0  0  0  0  0  0
  184.0030  175.0180  136.5940 N   0  0  2  0  0  0  0  0  0  0  0  0
  181.7710  176.2840  136.2970 C   0  0  1  0  0  3  0  0  0  0  0  0
  187.4170  178.2500  138.7260 C   0  0  2  0  0  3  0  0  0  0  0  0
  186.1910  176.6490  137.1790 C   0  0  2  0  0  3  0  0  0  0  0  0
  182.2000  179.0320  141.2680 C   0  0  0  0  0  3  0  0  0  0  0  0
  184.2900  173.6120  136.8730 C   0  0  0  0  0  2  0  0  0  0  0  0
  184.9400  173.9610  134.6830 C   0  0  0  0  0  2  0  0  0  0  0  0
  189.9550  176.8590  138.2470 C   0  0  0  0  0  2  0  0  0  0  0  0
  184.6310  178.5430  141.7810 C   0  0  0  0  0  1  0  0  0  0  0  0
  181.7670  176.9690  138.5980 N   0  0  1  0  0  0  0  0  0  0  0  0
  181.2310  179.3710  140.4140 C   0  0  0  0  0  3  0  0  0  0  0  0
  189.9020  178.2130  138.9550 C   0  0  0  0  0  2  0  0  0  0  0  0
  183.7060  178.3310  139.4600 C   0  0  0  0  0  0  0  0  0  0  0  0
  182.6990  175.8430  138.4840 C   0  0  0  0  0  2  0  0  0  0  0  0
  182.5190  177.3150  135.7250 O   0  0  0  0  0  1  0  0  0  0  0  0
  182.6360  175.2880  137.0690 C   0  0  2  0  0  3  0  0  0  0  0  0
  184.6290  172.9180  135.6360 N   0  0  0  0  0  2  0  0  0  0  0  0
  186.3760  176.5900  135.6560 C   0  0  0  0  0  2  0  0  0  0  0  0
  181.5070  179.3980  138.9380 C   0  0  0  0  0  2  0  0  0  0  0  0
  182.4770  178.2680  138.5560 C   0  0  2  0  0  3  0  0  0  0  0  0
  185.0550  176.4570  134.8820 C   0  0  0  0  0  2  0  0  0  0  0  0
  1  5  2  0  0  0  0
  1 22  1  0  0  0  0
  2 14  1  0  0  0  0
  2 18  1  0  0  0  0
  4  1  1  0  0  0  0
  6 17  1  0  0  0  0
  7 16  1  1  0  0  0
  7 10  1  0  0  0  0
  8  6  1  6  0  0  0
  8 12  1  0  0  0  0
 10 15  1  6  0  0  0
 10 25  1  0  0  0  0
 11 24  1  1  0  0  0
 11 25  1  0  0  0  0
 11  3  1  0  0  0  0
 12  5  1  0  0  0  0
 12  9  1  1  0  0  0
 13 27  1  6  0  0  0
 13  4  1  0  0  0  0
 13  8  1  0  0  0  0
 16 26  1  0  0  0  0
 17 21  1  0  0  0  0
 19  3  1  6  0  0  0
 20 14  2  0  0  0  0
 21  9  1  0  0  0  0
 22  2  2  0  0  0  0
 23 19  1  0  0  0  0
 25 23  1  1  0  0  0
 26 15  1  0  0  0  0
 28 20  1  0  0  0  0
 29 19  1  0  0  0  0
 29 28  1  1  0  0  0
 29 22  1  0  0  0  0
 30  7  1  0  0  0  0
 30 27  1  0  0  0  0
M  END
>  <MODEL>
8

>  <REMARK>
 VINA RESULT:      -5.8      2.286      3.397
  Name = 
  0 active torsions:
  status: ('A' for Active; 'I' for Inactive)
                            x       y       z     vdW  Elec       q    Type
                         _______ _______ _______ _____ _____    ______ ____

>  <TORSDO>
F 0

$$$$
=
 OpenBabel11052412253D

 30 35  0  0  1  0  0  0  0  0999 V2000
  185.3110  174.5240  136.7870 C   0  0  0  0  0  0  0  0  0  0  0  0
  185.2890  172.3410  135.5380 C   0  0  0  0  0  0  0  0  0  0  0  0
  180.9530  173.3840  136.6610 C   0  0  0  0  0  2  0  0  0  0  0  0
  184.5170  175.5240  137.3590 O   0  0  0  0  0  0  0  0  0  0  0  0
  186.5900  174.7310  136.6750 N   0  0  0  0  0  0  0  0  0  0  0  0
  186.9160  178.4470  137.4360 C   0  0  0  0  0  2  0  0  0  0  0  0
  181.7430  177.5450  137.5490 C   0  0  2  0  0  3  0  0  0  0  0  0
  186.3160  177.1630  136.8600 C   0  0  1  0  0  3  0  0  0  0  0  0
  188.5970  176.1390  136.6880 C   0  0  0  0  0  2  0  0  0  0  0  0
  182.1730  176.8480  136.3440 N   0  0  2  0  0  0  0  0  0  0  0  0
  180.8310  174.8020  137.1730 C   0  0  1  0  0  3  0  0  0  0  0  0
  187.1810  175.9500  137.2180 C   0  0  2  0  0  3  0  0  0  0  0  0
  184.8290  176.9150  137.2000 C   0  0  2  0  0  3  0  0  0  0  0  0
  184.6620  171.0220  135.3070 C   0  0  0  0  0  3  0  0  0  0  0  0
  181.9400  177.7780  135.2410 C   0  0  0  0  0  2  0  0  0  0  0  0
  181.5560  178.9880  137.1730 C   0  0  0  0  0  2  0  0  0  0  0  0
  188.3420  178.6280  136.9190 C   0  0  0  0  0  2  0  0  0  0  0  0
  186.5860  172.6030  134.8470 C   0  0  0  0  0  1  0  0  0  0  0  0
  182.2020  173.2940  135.9030 N   0  0  1  0  0  0  0  0  0  0  0  0
  183.6480  170.6050  136.0700 C   0  0  0  0  0  3  0  0  0  0  0  0
  189.2020  177.4140  137.2740 C   0  0  0  0  0  2  0  0  0  0  0  0
  184.6830  173.2450  136.3490 C   0  0  0  0  0  0  0  0  0  0  0  0
  182.4000  174.6340  135.3430 C   0  0  0  0  0  2  0  0  0  0  0  0
  181.5720  174.8880  138.3530 O   0  0  0  0  0  1  0  0  0  0  0  0
  181.4500  175.6050  136.0290 C   0  0  2  0  0  3  0  0  0  0  0  0
  181.3280  179.0020  135.7440 N   0  0  0  0  0  2  0  0  0  0  0  0
  184.2290  177.7780  138.3170 C   0  0  0  0  0  2  0  0  0  0  0  0
  183.1760  171.4500  137.2180 C   0  0  0  0  0  2  0  0  0  0  0  0
  183.2750  172.9420  136.8590 C   0  0  2  0  0  3  0  0  0  0  0  0
  182.7820  177.4000  138.6750 C   0  0  0  0  0  2  0  0  0  0  0  0
  1  4  1  0  0  0  0
  2 22  2  0  0  0  0
  3 11  1  0  0  0  0
  5  1  2  0  0  0  0
  5 12  1  0  0  0  0
  7 16  1  6  0  0  0
  7 30  1  0  0  0  0
  8 13  1  0  0  0  0
  8 12  1  0  0  0  0
  8  6  1  1  0  0  0
  9 21  1  0  0  0  0
 10 15  1  6  0  0  0
 10  7  1  0  0  0  0
 11 24  1  1  0  0  0
 12  9  1  6  0  0  0
 13  4  1  0  0  0  0
 13 27  1  1  0  0  0
 14  2  1  0  0  0  0
 14 20  2  0  0  0  0
 15 26  1  0  0  0  0
 17 21  1  0  0  0  0
 17  6  1  0  0  0  0
 18  2  1  0  0  0  0
 19 23  1  1  0  0  0
 19  3  1  0  0  0  0
 19 29  1  0  0  0  0
 20 28  1  0  0  0  0
 22  1  1  0  0  0  0
 22 29  1  0  0  0  0
 25 23  1  1  0  0  0
 25 10  1  0  0  0  0
 25 11  1  0  0  0  0
 26 16  1  0  0  0  0
 27 30  1  0  0  0  0
 29 28  1  6  0  0  0
M  END
>  <MODEL>
9

>  <REMARK>
 VINA RESULT:      -5.6      3.552      6.670
  Name = 
  0 active torsions:
  status: ('A' for Active; 'I' for Inactive)
                            x       y       z     vdW  Elec       q    Type
                         _______ _______ _______ _____ _____    ______ ____

>  <TORSDO>
F 0

$$$$
