=
 OpenBabel11052413203D

 28 32  0  0  1  0  0  0  0  0999 V2000
  184.7350  178.8280  144.0860 C   0  0  0  0  0  0  0  0  0  0  0  0
  188.1740  178.3280  140.1230 C   0  0  0  0  0  2  0  0  0  0  0  0
  188.9470  176.9540  146.0110 C   0  0  0  0  0  1  0  0  0  0  0  0
  190.7690  176.7460  140.4920 C   0  0  0  0  0  2  0  0  0  0  0  0
  187.9320  177.8450  142.4580 C   0  0  0  0  0  0  0  0  0  0  0  0
  189.6940  177.4360  138.3330 C   0  0  0  0  0  0  0  0  0  0  0  0
  188.6510  177.7850  141.2490 C   0  0  0  0  0  0  0  0  0  0  0  0
  190.1770  176.9120  143.0610 S   0  0  0  0  0  0  0  0  0  0  0  0
  190.5390  176.6860  139.0370 C   0  0  0  0  0  3  0  0  0  0  0  0
  186.8060  177.9100  145.0290 C   0  0  0  0  0  0  0  0  0  0  0  0
  186.6330  178.3340  142.6210 C   0  0  0  0  0  3  0  0  0  0  0  0
  189.9300  177.2200  141.4210 C   0  0  0  0  0  0  0  0  0  0  0  0
  184.9260  178.4350  146.4750 C   0  0  0  0  0  3  0  0  0  0  0  0
  188.1250  177.4310  144.8550 C   0  0  0  0  0  0  0  0  0  0  0  0
  186.2250  177.9560  146.3040 C   0  0  0  0  0  3  0  0  0  0  0  0
  189.5390  177.1700  136.9790 O   0  0  0  0  0  1  0  0  0  0  0  0
  188.9910  178.6180  138.9060 C   0  0  0  0  0  2  0  0  0  0  0  0
  188.6530  177.4140  143.5620 C   0  0  0  0  0  0  0  0  0  0  0  0
  184.1890  178.8690  145.3740 C   0  0  0  0  0  3  0  0  0  0  0  0
  186.0530  178.3590  143.9020 C   0  0  0  0  0  0  0  0  0  0  0  0
  183.8860  179.2950  142.9240 C   0  0  0  0  0  2  0  0  0  0  0  0
  182.7500  178.4140  142.6030 N   0  0  0  0  0  0  0  0  0  0  0  0
  180.6820  178.9770  141.4970 C   0  0  1  0  0  3  0  0  0  0  0  0
  182.8280  177.9600  141.2150 C   0  0  0  0  0  2  0  0  0  0  0  0
  180.7110  178.5260  143.9360 C   0  0  0  0  0  1  0  0  0  0  0  0
  181.4810  179.1200  142.7730 C   0  0  1  0  0  3  0  0  0  0  0  0
  180.0470  180.3040  141.1310 C   0  0  0  0  0  1  0  0  0  0  0  0
  181.6860  178.5870  140.4470 C   0  0  0  0  0  2  0  0  0  0  0  0
  1 19  1  0  0  0  0
  2  7  1  0  0  0  0
  4 12  1  0  0  0  0
  5 11  2  0  0  0  0
  5 18  1  0  0  0  0
  6 17  1  0  0  0  0
  6  9  2  0  0  0  0
  7 12  2  0  0  0  0
  7  5  1  0  0  0  0
  8 18  1  0  0  0  0
  9  4  1  0  0  0  0
 10 15  2  0  0  0  0
 11 20  1  0  0  0  0
 12  8  1  0  0  0  0
 14 10  1  0  0  0  0
 14  3  1  0  0  0  0
 15 13  1  0  0  0  0
 16  6  1  0  0  0  0
 17  2  1  0  0  0  0
 18 14  2  0  0  0  0
 19 13  2  0  0  0  0
 20  1  2  0  0  0  0
 20 10  1  0  0  0  0
 21  1  1  0  0  0  0
 22 26  1  0  0  0  0
 22 21  1  0  0  0  0
 23 27  1  6  0  0  0
 23 26  1  0  0  0  0
 24 22  1  0  0  0  0
 26 25  1  1  0  0  0
 28 24  1  0  0  0  0
 28 23  1  0  0  0  0
M  END
>  <MODEL>
1

>  <REMARK>
 VINA RESULT:     -10.4      0.000      0.000
  Name = 
  2 active torsions:
  status: ('A' for Active; 'I' for Inactive)
    1  A    between atoms: C_1  and  C_2
    2  A    between atoms: C_2  and  N_3
                            x       y       z     vdW  Elec       q    Type
                         _______ _______ _______ _____ _____    ______ ____

>  <TORSDO>
F 2

$$$$
=
 OpenBabel11052413203D

 28 32  0  0  1  0  0  0  0  0999 V2000
  188.6050  177.1000  143.3870 C   0  0  0  0  0  0  0  0  0  0  0  0
  183.8020  177.8780  141.3610 C   0  0  0  0  0  2  0  0  0  0  0  0
  185.6820  178.7290  147.0960 C   0  0  0  0  0  1  0  0  0  0  0  0
  181.6570  179.3770  142.9490 C   0  0  0  0  0  2  0  0  0  0  0  0
  185.0400  178.1630  143.3930 C   0  0  0  0  0  0  0  0  0  0  0  0
  181.6760  178.8940  140.4870 C   0  0  0  0  0  0  0  0  0  0  0  0
  183.8710  178.3140  142.6240 C   0  0  0  0  0  0  0  0  0  0  0  0
  183.2980  179.0030  144.9840 S   0  0  0  0  0  0  0  0  0  0  0  0
  181.2360  179.5660  141.5490 C   0  0  0  0  0  3  0  0  0  0  0  0
  187.1660  177.8980  145.2080 C   0  0  0  0  0  0  0  0  0  0  0  0
  186.2710  177.6850  142.9360 C   0  0  0  0  0  3  0  0  0  0  0  0
  182.8040  178.8400  143.3790 C   0  0  0  0  0  0  0  0  0  0  0  0
  189.4750  177.2830  145.6470 C   0  0  0  0  0  3  0  0  0  0  0  0
  185.9120  178.3670  145.6630 C   0  0  0  0  0  0  0  0  0  0  0  0
  188.2400  177.7530  146.0960 C   0  0  0  0  0  3  0  0  0  0  0  0
  181.2360  179.2770  139.2270 O   0  0  0  0  0  1  0  0  0  0  0  0
  182.5320  177.6790  140.5970 C   0  0  0  0  0  2  0  0  0  0  0  0
  184.8770  178.4860  144.7320 C   0  0  0  0  0  0  0  0  0  0  0  0
  189.6530  176.9580  144.3030 C   0  0  0  0  0  3  0  0  0  0  0  0
  187.3470  177.5600  143.8320 C   0  0  0  0  0  0  0  0  0  0  0  0
  188.8580  176.7490  141.9380 C   0  0  0  0  0  2  0  0  0  0  0  0
  189.5910  177.7760  141.1770 N   0  0  0  0  0  0  0  0  0  0  0  0
  190.3480  177.6940  138.8900 C   0  0  1  0  0  3  0  0  0  0  0  0
  188.6710  178.5620  140.3560 C   0  0  0  0  0  2  0  0  0  0  0  0
  191.9760  177.5010  140.7510 C   0  0  0  0  0  1  0  0  0  0  0  0
  190.5730  177.1610  140.2870 C   0  0  1  0  0  3  0  0  0  0  0  0
  190.4380  176.5630  137.8830 C   0  0  0  0  0  1  0  0  0  0  0  0
  188.9510  178.2520  138.9030 C   0  0  0  0  0  2  0  0  0  0  0  0
  1 20  2  0  0  0  0
  1 19  1  0  0  0  0
  2  7  1  0  0  0  0
  4 12  1  0  0  0  0
  5 18  1  0  0  0  0
  6 17  1  0  0  0  0
  6  9  2  0  0  0  0
  7 12  2  0  0  0  0
  7  5  1  0  0  0  0
  9  4  1  0  0  0  0
 10 14  1  0  0  0  0
 10 15  2  0  0  0  0
 11  5  2  0  0  0  0
 11 20  1  0  0  0  0
 12  8  1  0  0  0  0
 13 15  1  0  0  0  0
 14  3  1  0  0  0  0
 16  6  1  0  0  0  0
 17  2  1  0  0  0  0
 18  8  1  0  0  0  0
 18 14  2  0  0  0  0
 19 13  2  0  0  0  0
 20 10  1  0  0  0  0
 21  1  1  0  0  0  0
 22 21  1  0  0  0  0
 23 27  1  6  0  0  0
 23 28  1  0  0  0  0
 23 26  1  0  0  0  0
 24 22  1  0  0  0  0
 26 25  1  1  0  0  0
 26 22  1  0  0  0  0
 28 24  1  0  0  0  0
M  END
>  <MODEL>
2

>  <REMARK>
 VINA RESULT:     -10.3      2.707      6.862
  Name = 
  2 active torsions:
  status: ('A' for Active; 'I' for Inactive)
    1  A    between atoms: C_1  and  C_2
    2  A    between atoms: C_2  and  N_3
                            x       y       z     vdW  Elec       q    Type
                         _______ _______ _______ _____ _____    ______ ____

>  <TORSDO>
F 2

$$$$
=
 OpenBabel11052413203D

 28 32  0  0  1  0  0  0  0  0999 V2000
  190.3330  176.4770  143.8300 C   0  0  0  0  0  0  0  0  0  0  0  0
  185.2960  177.7670  142.9670 C   0  0  0  0  0  2  0  0  0  0  0  0
  188.4310  178.0010  148.1900 C   0  0  0  0  0  1  0  0  0  0  0  0
  183.6840  179.2810  145.0830 C   0  0  0  0  0  2  0  0  0  0  0  0
  186.9620  177.7920  144.6900 C   0  0  0  0  0  0  0  0  0  0  0  0
  183.1320  179.0030  142.6520 C   0  0  0  0  0  0  0  0  0  0  0  0
  185.6730  178.0910  144.2090 C   0  0  0  0  0  0  0  0  0  0  0  0
  185.6830  178.6210  146.6780 S   0  0  0  0  0  0  0  0  0  0  0  0
  182.9910  179.6150  143.8260 C   0  0  0  0  0  3  0  0  0  0  0  0
  189.3960  177.2240  145.9700 C   0  0  0  0  0  0  0  0  0  0  0  0
  188.0180  177.2650  143.9430 C   0  0  0  0  0  3  0  0  0  0  0  0
  184.8440  178.6280  145.2140 C   0  0  0  0  0  0  0  0  0  0  0  0
  191.6800  176.4080  145.8490 C   0  0  0  0  0  3  0  0  0  0  0  0
  188.3160  177.7430  146.7200 C   0  0  0  0  0  0  0  0  0  0  0  0
  190.6180  176.9280  146.5890 C   0  0  0  0  0  3  0  0  0  0  0  0
  182.4680  179.5200  141.5480 O   0  0  0  0  0  1  0  0  0  0  0  0
  183.8800  177.7250  142.4910 C   0  0  0  0  0  2  0  0  0  0  0  0
  187.1190  178.0130  146.0510 C   0  0  0  0  0  0  0  0  0  0  0  0
  191.5370  176.1840  144.4800 C   0  0  0  0  0  3  0  0  0  0  0  0
  189.2470  176.9880  144.5700 C   0  0  0  0  0  0  0  0  0  0  0  0
  190.2370  176.2290  142.3400 C   0  0  0  0  0  2  0  0  0  0  0  0
  190.5280  177.4070  141.5040 N   0  0  0  0  0  0  0  0  0  0  0  0
  190.3870  177.6150  139.1060 C   0  0  1  0  0  3  0  0  0  0  0  0
  189.2950  178.1200  141.1730 C   0  0  0  0  0  2  0  0  0  0  0  0
  192.6000  177.5030  140.2210 C   0  0  0  0  0  1  0  0  0  0  0  0
  191.1670  177.0080  140.2510 C   0  0  1  0  0  3  0  0  0  0  0  0
  190.2100  176.5930  138.0000 C   0  0  0  0  0  1  0  0  0  0  0  0
  189.0460  177.9690  139.6890 C   0  0  0  0  0  2  0  0  0  0  0  0
  1 19  2  0  0  0  0
  1 20  1  0  0  0  0
  2  7  1  0  0  0  0
  4 12  1  0  0  0  0
  5 18  1  0  0  0  0
  6  9  2  0  0  0  0
  7  5  1  0  0  0  0
  7 12  2  0  0  0  0
  9  4  1  0  0  0  0
 10 15  1  0  0  0  0
 10 14  1  0  0  0  0
 11 20  1  0  0  0  0
 11  5  2  0  0  0  0
 12  8  1  0  0  0  0
 13 15  2  0  0  0  0
 14  3  1  0  0  0  0
 16  6  1  0  0  0  0
 17  6  1  0  0  0  0
 17  2  1  0  0  0  0
 18  8  1  0  0  0  0
 18 14  2  0  0  0  0
 19 13  1  0  0  0  0
 20 10  2  0  0  0  0
 21  1  1  0  0  0  0
 22 21  1  0  0  0  0
 23 27  1  6  0  0  0
 23 28  1  0  0  0  0
 23 26  1  0  0  0  0
 24 22  1  0  0  0  0
 26 25  1  1  0  0  0
 26 22  1  0  0  0  0
 28 24  1  0  0  0  0
M  END
>  <MODEL>
3

>  <REMARK>
 VINA RESULT:     -10.2      2.888      7.015
  Name = 
  2 active torsions:
  status: ('A' for Active; 'I' for Inactive)
    1  A    between atoms: C_1  and  C_2
    2  A    between atoms: C_2  and  N_3
                            x       y       z     vdW  Elec       q    Type
                         _______ _______ _______ _____ _____    ______ ____

>  <TORSDO>
F 2

$$$$
=
 OpenBabel11052413203D

 28 32  0  0  1  0  0  0  0  0999 V2000
  186.7470  177.5200  145.2420 C   0  0  0  0  0  0  0  0  0  0  0  0
  188.3820  177.4700  140.2310 C   0  0  0  0  0  2  0  0  0  0  0  0
  191.7420  177.5400  145.3170 C   0  0  0  0  0  1  0  0  0  0  0  0
  191.3180  176.9370  139.5480 C   0  0  0  0  0  2  0  0  0  0  0  0
  189.2260  177.3730  142.4730 C   0  0  0  0  0  0  0  0  0  0  0  0
  189.3440  176.8200  138.0030 C   0  0  0  0  0  0  0  0  0  0  0  0
  189.4100  177.3340  141.0770 C   0  0  0  0  0  0  0  0  0  0  0  0
  191.7070  177.3660  142.1250 S   0  0  0  0  0  0  0  0  0  0  0  0
  190.6060  176.5370  138.3210 C   0  0  0  0  0  3  0  0  0  0  0  0
  189.2010  177.5320  145.2760 C   0  0  0  0  0  0  0  0  0  0  0  0
  188.0010  177.4240  143.1410 C   0  0  0  0  0  3  0  0  0  0  0  0
  190.7720  177.2680  140.7240 C   0  0  0  0  0  0  0  0  0  0  0  0
  187.9440  177.6610  147.3500 C   0  0  0  0  0  3  0  0  0  0  0  0
  190.4360  177.4950  144.5880 C   0  0  0  0  0  0  0  0  0  0  0  0
  189.1630  177.6170  146.6740 C   0  0  0  0  0  3  0  0  0  0  0  0
  188.8110  176.2740  136.8440 O   0  0  0  0  0  1  0  0  0  0  0  0
  188.5140  177.7850  138.7770 C   0  0  0  0  0  2  0  0  0  0  0  0
  190.4100  177.4170  143.1940 C   0  0  0  0  0  0  0  0  0  0  0  0
  186.7460  177.6140  146.6380 C   0  0  0  0  0  3  0  0  0  0  0  0
  187.9740  177.4900  144.5460 C   0  0  0  0  0  0  0  0  0  0  0  0
  185.4190  177.4560  144.5200 C   0  0  0  0  0  2  0  0  0  0  0  0
  184.9520  178.7460  143.9820 N   0  0  0  0  0  0  0  0  0  0  0  0
  183.1850  179.1560  142.3940 C   0  0  1  0  0  3  0  0  0  0  0  0
  183.7720  179.2100  144.7110 C   0  0  0  0  0  2  0  0  0  0  0  0
  185.5570  179.4070  141.7140 C   0  0  0  0  0  1  0  0  0  0  0  0
  184.5870  178.6190  142.5720 C   0  0  1  0  0  3  0  0  0  0  0  0
  182.3880  178.2350  141.4910 C   0  0  0  0  0  1  0  0  0  0  0  0
  182.5870  179.1580  143.7740 C   0  0  0  0  0  2  0  0  0  0  0  0
  1 19  1  0  0  0  0
  2  7  1  0  0  0  0
  4 12  1  0  0  0  0
  5 11  2  0  0  0  0
  5 18  1  0  0  0  0
  6  9  2  0  0  0  0
  6 17  1  0  0  0  0
  7  5  1  0  0  0  0
  8 18  1  0  0  0  0
  9  4  1  0  0  0  0
 10 15  2  0  0  0  0
 11 20  1  0  0  0  0
 12  7  2  0  0  0  0
 12  8  1  0  0  0  0
 14 10  1  0  0  0  0
 14  3  1  0  0  0  0
 15 13  1  0  0  0  0
 16  6  1  0  0  0  0
 17  2  1  0  0  0  0
 18 14  2  0  0  0  0
 19 13  2  0  0  0  0
 20  1  2  0  0  0  0
 20 10  1  0  0  0  0
 21  1  1  0  0  0  0
 22 21  1  0  0  0  0
 22 24  1  0  0  0  0
 23 27  1  6  0  0  0
 23 26  1  0  0  0  0
 23 28  1  0  0  0  0
 26 25  1  6  0  0  0
 26 22  1  0  0  0  0
 28 24  1  0  0  0  0
M  END
>  <MODEL>
4

>  <REMARK>
 VINA RESULT:      -9.9      1.365      2.522
  Name = 
  2 active torsions:
  status: ('A' for Active; 'I' for Inactive)
    1  A    between atoms: C_1  and  C_2
    2  A    between atoms: C_2  and  N_3
                            x       y       z     vdW  Elec       q    Type
                         _______ _______ _______ _____ _____    ______ ____

>  <TORSDO>
F 2

$$$$
=
 OpenBabel11052413203D

 28 32  0  0  1  0  0  0  0  0999 V2000
  187.2130  178.3730  140.1680 C   0  0  0  0  0  0  0  0  0  0  0  0
  190.1720  177.6580  144.4710 C   0  0  0  0  0  2  0  0  0  0  0  0
  184.1420  178.4740  144.1070 C   0  0  0  0  0  1  0  0  0  0  0  0
  188.8760  177.0780  147.1830 C   0  0  0  0  0  2  0  0  0  0  0  0
  187.8840  177.8820  143.7940 C   0  0  0  0  0  0  0  0  0  0  0  0
  191.2710  176.7220  146.5270 C   0  0  0  0  0  0  0  0  0  0  0  0
  188.8690  177.6540  144.7740 C   0  0  0  0  0  0  0  0  0  0  0  0
  186.6600  177.8630  145.9790 S   0  0  0  0  0  0  0  0  0  0  0  0
  190.2260  176.5030  147.3230 C   0  0  0  0  0  3  0  0  0  0  0  0
  185.7070  178.4250  142.1050 C   0  0  0  0  0  0  0  0  0  0  0  0
  188.1020  178.0070  142.4200 C   0  0  0  0  0  3  0  0  0  0  0  0
  188.3170  177.5600  146.0670 C   0  0  0  0  0  0  0  0  0  0  0  0
  184.8450  178.8190  139.8680 C   0  0  0  0  0  3  0  0  0  0  0  0
  185.4990  178.3110  143.4990 C   0  0  0  0  0  0  0  0  0  0  0  0
  184.6370  178.7000  141.2420 C   0  0  0  0  0  3  0  0  0  0  0  0
  192.4420  176.0140  146.7580 O   0  0  0  0  0  1  0  0  0  0  0  0
  191.2770  177.7720  145.4710 C   0  0  0  0  0  2  0  0  0  0  0  0
  186.6050  178.0420  144.3090 C   0  0  0  0  0  0  0  0  0  0  0  0
  186.1240  178.6580  139.3370 C   0  0  0  0  0  3  0  0  0  0  0  0
  187.0180  178.2650  141.5610 C   0  0  0  0  0  0  0  0  0  0  0  0
  188.5760  178.1910  139.5380 C   0  0  0  0  0  2  0  0  0  0  0  0
  188.8730  176.8140  139.1060 N   0  0  0  0  0  0  0  0  0  0  0  0
  189.8910  176.0730  137.0500 C   0  0  1  0  0  3  0  0  0  0  0  0
  190.2720  176.4820  139.3750 C   0  0  0  0  0  2  0  0  0  0  0  0
  187.4640  175.7340  137.4350 C   0  0  0  0  0  1  0  0  0  0  0  0
  188.6420  176.6580  137.6710 C   0  0  1  0  0  3  0  0  0  0  0  0
  190.2070  176.7880  135.7500 C   0  0  0  0  0  1  0  0  0  0  0  0
  190.9850  176.3300  138.0500 C   0  0  0  0  0  2  0  0  0  0  0  0
  1 20  1  0  0  0  0
  2  7  1  0  0  0  0
  2 17  1  0  0  0  0
  4  9  1  0  0  0  0
  5 18  1  0  0  0  0
  5  7  1  0  0  0  0
  6 16  1  0  0  0  0
  6  9  2  0  0  0  0
  7 12  2  0  0  0  0
  8 12  1  0  0  0  0
 10 14  1  0  0  0  0
 11  5  2  0  0  0  0
 12  4  1  0  0  0  0
 13 15  2  0  0  0  0
 14  3  1  0  0  0  0
 14 18  2  0  0  0  0
 15 10  1  0  0  0  0
 17  6  1  0  0  0  0
 18  8  1  0  0  0  0
 19 13  1  0  0  0  0
 19  1  2  0  0  0  0
 20 10  2  0  0  0  0
 20 11  1  0  0  0  0
 21  1  1  0  0  0  0
 22 24  1  0  0  0  0
 22 21  1  0  0  0  0
 23 27  1  6  0  0  0
 23 26  1  0  0  0  0
 23 28  1  0  0  0  0
 26 25  1  1  0  0  0
 26 22  1  0  0  0  0
 28 24  1  0  0  0  0
M  END
>  <MODEL>
5

>  <REMARK>
 VINA RESULT:      -9.7      3.186      6.825
  Name = 
  2 active torsions:
  status: ('A' for Active; 'I' for Inactive)
    1  A    between atoms: C_1  and  C_2
    2  A    between atoms: C_2  and  N_3
                            x       y       z     vdW  Elec       q    Type
                         _______ _______ _______ _____ _____    ______ ____

>  <TORSDO>
F 2

$$$$
=
 OpenBabel11052413203D

 28 32  0  0  1  0  0  0  0  0999 V2000
  189.7470  177.7190  140.4190 C   0  0  0  0  0  0  0  0  0  0  0  0
  184.9170  178.2430  142.4620 C   0  0  0  0  0  2  0  0  0  0  0  0
  190.1700  177.1860  145.3680 C   0  0  0  0  0  1  0  0  0  0  0  0
  184.5200  178.5600  145.4810 C   0  0  0  0  0  2  0  0  0  0  0  0
  187.2050  177.9670  143.1220 C   0  0  0  0  0  0  0  0  0  0  0  0
  182.8710  179.0710  143.6610 C   0  0  0  0  0  0  0  0  0  0  0  0
  185.8440  178.1660  143.4240 C   0  0  0  0  0  0  0  0  0  0  0  0
  187.0370  177.7680  145.6140 S   0  0  0  0  0  0  0  0  0  0  0  0
  183.3110  179.1830  144.9130 C   0  0  0  0  0  3  0  0  0  0  0  0
  189.9520  177.4550  142.8500 C   0  0  0  0  0  0  0  0  0  0  0  0
  187.7720  177.9560  141.8460 C   0  0  0  0  0  3  0  0  0  0  0  0
  185.5990  178.1380  144.8110 C   0  0  0  0  0  0  0  0  0  0  0  0
  191.8970  177.1910  141.4190 C   0  0  0  0  0  3  0  0  0  0  0  0
  189.3650  177.4550  144.1360 C   0  0  0  0  0  0  0  0  0  0  0  0
  191.3200  177.1970  142.6890 C   0  0  0  0  0  3  0  0  0  0  0  0
  181.7610  179.8120  143.2780 O   0  0  0  0  0  1  0  0  0  0  0  0
  183.4460  178.1040  142.6850 C   0  0  0  0  0  2  0  0  0  0  0  0
  187.9950  177.7120  144.2340 C   0  0  0  0  0  0  0  0  0  0  0  0
  191.1150  177.4490  140.2940 C   0  0  0  0  0  3  0  0  0  0  0  0
  189.1500  177.7140  141.6970 C   0  0  0  0  0  0  0  0  0  0  0  0
  188.9490  178.0080  139.1670 C   0  0  0  0  0  2  0  0  0  0  0  0
  189.5840  177.5550  137.9170 N   0  0  0  0  0  0  0  0  0  0  0  0
  188.5880  176.3520  136.0800 C   0  0  1  0  0  3  0  0  0  0  0  0
  189.3190  178.5010  136.8340 C   0  0  0  0  0  2  0  0  0  0  0  0
  190.1490  175.2010  137.6270 C   0  0  0  0  0  1  0  0  0  0  0  0
  189.0620  176.2510  137.5130 C   0  0  1  0  0  3  0  0  0  0  0  0
  187.2560  175.6460  135.9230 C   0  0  0  0  0  1  0  0  0  0  0  0
  188.4160  177.8250  135.8270 C   0  0  0  0  0  2  0  0  0  0  0  0
  1 20  1  0  0  0  0
  2 17  1  0  0  0  0
  2  7  1  0  0  0  0
  5  7  1  0  0  0  0
  5 18  1  0  0  0  0
  6  9  2  0  0  0  0
  7 12  2  0  0  0  0
  9  4  1  0  0  0  0
 10 14  1  0  0  0  0
 11  5  2  0  0  0  0
 12  4  1  0  0  0  0
 12  8  1  0  0  0  0
 13 15  2  0  0  0  0
 14 18  2  0  0  0  0
 14  3  1  0  0  0  0
 15 10  1  0  0  0  0
 16  6  1  0  0  0  0
 17  6  1  0  0  0  0
 18  8  1  0  0  0  0
 19  1  2  0  0  0  0
 19 13  1  0  0  0  0
 20 11  1  0  0  0  0
 20 10  2  0  0  0  0
 21  1  1  0  0  0  0
 22 21  1  0  0  0  0
 23 27  1  1  0  0  0
 23 26  1  0  0  0  0
 24 22  1  0  0  0  0
 26 25  1  6  0  0  0
 26 22  1  0  0  0  0
 28 23  1  0  0  0  0
 28 24  1  0  0  0  0
M  END
>  <MODEL>
6

>  <REMARK>
 VINA RESULT:      -9.4      3.045      7.093
  Name = 
  2 active torsions:
  status: ('A' for Active; 'I' for Inactive)
    1  A    between atoms: C_1  and  C_2
    2  A    between atoms: C_2  and  N_3
                            x       y       z     vdW  Elec       q    Type
                         _______ _______ _______ _____ _____    ______ ____

>  <TORSDO>
F 2

$$$$
=
 OpenBabel11052413203D

 28 32  0  0  1  0  0  0  0  0999 V2000
  186.1330  178.3270  141.2700 C   0  0  0  0  0  0  0  0  0  0  0  0
  190.0430  177.4080  144.6830 C   0  0  0  0  0  2  0  0  0  0  0  0
  184.2060  178.7100  145.8630 C   0  0  0  0  0  1  0  0  0  0  0  0
  189.4540  176.9580  147.6530 C   0  0  0  0  0  2  0  0  0  0  0  0
  187.6810  177.8120  144.6120 C   0  0  0  0  0  0  0  0  0  0  0  0
  191.5630  176.4020  146.4120 C   0  0  0  0  0  0  0  0  0  0  0  0
  188.8660  177.5120  145.3120 C   0  0  0  0  0  0  0  0  0  0  0  0
  187.0690  177.9110  147.0390 S   0  0  0  0  0  0  0  0  0  0  0  0
  190.7460  176.2760  147.4560 C   0  0  0  0  0  3  0  0  0  0  0  0
  185.1900  178.5170  143.5270 C   0  0  0  0  0  0  0  0  0  0  0  0
  187.5450  177.9070  143.2260 C   0  0  0  0  0  3  0  0  0  0  0  0
  188.6640  177.4740  146.7050 C   0  0  0  0  0  0  0  0  0  0  0  0
  183.8100  178.9620  141.5780 C   0  0  0  0  0  3  0  0  0  0  0  0
  185.3420  178.4320  144.9300 C   0  0  0  0  0  0  0  0  0  0  0  0
  183.9570  178.8720  142.9620 C   0  0  0  0  0  3  0  0  0  0  0  0
  192.6960  175.6020  146.3540 O   0  0  0  0  0  1  0  0  0  0  0  0
  191.3740  177.4400  145.3600 C   0  0  0  0  0  2  0  0  0  0  0  0
  186.5970  178.0800  145.4350 C   0  0  0  0  0  0  0  0  0  0  0  0
  184.8910  178.6930  140.7400 C   0  0  0  0  0  3  0  0  0  0  0  0
  186.2980  178.2470  142.6690 C   0  0  0  0  0  0  0  0  0  0  0  0
  187.2680  178.0300  140.3150 C   0  0  0  0  0  2  0  0  0  0  0  0
  187.0950  178.5910  138.9630 N   0  0  0  0  0  0  0  0  0  0  0  0
  187.3660  177.4900  136.8360 C   0  0  1  0  0  3  0  0  0  0  0  0
  185.7690  178.2660  138.4380 C   0  0  0  0  0  2  0  0  0  0  0  0
  189.0510  179.1350  137.6140 C   0  0  0  0  0  1  0  0  0  0  0  0
  188.0890  178.0450  138.0420 C   0  0  1  0  0  3  0  0  0  0  0  0
  187.9580  176.1500  136.4470 C   0  0  0  0  0  1  0  0  0  0  0  0
  185.9410  177.3060  137.2830 C   0  0  0  0  0  2  0  0  0  0  0  0
  1 20  1  0  0  0  0
  2  7  1  0  0  0  0
  2 17  1  0  0  0  0
  5  7  1  0  0  0  0
  5 18  1  0  0  0  0
  6  9  2  0  0  0  0
  7 12  2  0  0  0  0
  9  4  1  0  0  0  0
 10 14  1  0  0  0  0
 11  5  2  0  0  0  0
 12  8  1  0  0  0  0
 12  4  1  0  0  0  0
 13 15  2  0  0  0  0
 14 18  2  0  0  0  0
 14  3  1  0  0  0  0
 15 10  1  0  0  0  0
 16  6  1  0  0  0  0
 17  6  1  0  0  0  0
 18  8  1  0  0  0  0
 19  1  2  0  0  0  0
 19 13  1  0  0  0  0
 20 11  1  0  0  0  0
 20 10  2  0  0  0  0
 21  1  1  0  0  0  0
 22 21  1  0  0  0  0
 23 27  1  1  0  0  0
 23 28  1  0  0  0  0
 23 26  1  0  0  0  0
 24 22  1  0  0  0  0
 26 25  1  6  0  0  0
 26 22  1  0  0  0  0
 28 24  1  0  0  0  0
M  END
>  <MODEL>
7

>  <REMARK>
 VINA RESULT:      -9.1      3.041      6.026
  Name = 
  2 active torsions:
  status: ('A' for Active; 'I' for Inactive)
    1  A    between atoms: C_1  and  C_2
    2  A    between atoms: C_2  and  N_3
                            x       y       z     vdW  Elec       q    Type
                         _______ _______ _______ _____ _____    ______ ____

>  <TORSDO>
F 2

$$$$
=
 OpenBabel11052413203D

 28 32  0  0  1  0  0  0  0  0999 V2000
  184.7800  178.8870  144.2140 C   0  0  0  0  0  0  0  0  0  0  0  0
  187.3580  178.1440  139.6780 C   0  0  0  0  0  2  0  0  0  0  0  0
  181.3450  178.5030  140.6070 C   0  0  0  0  0  1  0  0  0  0  0  0
  185.9000  178.3580  136.9950 C   0  0  0  0  0  2  0  0  0  0  0  0
  185.1450  178.4760  140.5360 C   0  0  0  0  0  0  0  0  0  0  0  0
  188.3760  178.4150  137.3970 C   0  0  0  0  0  0  0  0  0  0  0  0
  186.0480  178.3140  139.4670 C   0  0  0  0  0  0  0  0  0  0  0  0
  183.7230  178.2500  138.4860 S   0  0  0  0  0  0  0  0  0  0  0  0
  187.3030  178.6430  136.6420 C   0  0  0  0  0  3  0  0  0  0  0  0
  183.0950  178.6960  142.4410 C   0  0  0  0  0  0  0  0  0  0  0  0
  185.4800  178.6070  141.8850 C   0  0  0  0  0  3  0  0  0  0  0  0
  185.3900  178.2300  138.2250 C   0  0  0  0  0  0  0  0  0  0  0  0
  182.4140  178.9410  144.7600 C   0  0  0  0  0  3  0  0  0  0  0  0
  182.7660  178.5480  141.0740 C   0  0  0  0  0  0  0  0  0  0  0  0
  182.0880  178.8020  143.4110 C   0  0  0  0  0  3  0  0  0  0  0  0
  189.6150  178.8400  136.9370 O   0  0  0  0  0  1  0  0  0  0  0  0
  188.3230  177.6270  138.6600 C   0  0  0  0  0  2  0  0  0  0  0  0
  183.8120  178.4400  140.1540 C   0  0  0  0  0  0  0  0  0  0  0  0
  183.7500  178.9820  145.1570 C   0  0  0  0  0  3  0  0  0  0  0  0
  184.4630  178.7320  142.8480 C   0  0  0  0  0  0  0  0  0  0  0  0
  186.2120  178.9540  144.6980 C   0  0  0  0  0  2  0  0  0  0  0  0
  186.7980  177.6500  145.0570 N   0  0  0  0  0  0  0  0  0  0  0  0
  189.1170  177.0950  145.4120 C   0  0  1  0  0  3  0  0  0  0  0  0
  187.0410  177.5760  146.4970 C   0  0  0  0  0  2  0  0  0  0  0  0
  187.9480  176.3270  143.3630 C   0  0  0  0  0  1  0  0  0  0  0  0
  188.0740  177.4490  144.3750 C   0  0  1  0  0  3  0  0  0  0  0  0
  190.4020  177.8490  145.1320 C   0  0  0  0  0  1  0  0  0  0  0  0
  188.5360  177.5500  146.7230 C   0  0  0  0  0  2  0  0  0  0  0  0
  1 21  1  0  0  0  0
  1 19  1  0  0  0  0
  3 14  1  0  0  0  0
  4 12  1  0  0  0  0
  5 11  2  0  0  0  0
  6 17  1  0  0  0  0
  7  2  1  0  0  0  0
  7  5  1  0  0  0  0
  8 18  1  0  0  0  0
  9  4  1  0  0  0  0
  9  6  2  0  0  0  0
 10 20  1  0  0  0  0
 10 15  2  0  0  0  0
 11 20  1  0  0  0  0
 12  8  1  0  0  0  0
 12  7  2  0  0  0  0
 13 19  2  0  0  0  0
 14 10  1  0  0  0  0
 15 13  1  0  0  0  0
 16  6  1  0  0  0  0
 17  2  1  0  0  0  0
 18  5  1  0  0  0  0
 18 14  2  0  0  0  0
 20  1  2  0  0  0  0
 21 22  1  0  0  0  0
 22 24  1  0  0  0  0
 23 27  1  6  0  0  0
 23 28  1  0  0  0  0
 24 28  1  0  0  0  0
 26 25  1  6  0  0  0
 26 22  1  0  0  0  0
 26 23  1  0  0  0  0
M  END
>  <MODEL>
8

>  <REMARK>
 VINA RESULT:      -9.1      2.384      5.697
  Name = 
  2 active torsions:
  status: ('A' for Active; 'I' for Inactive)
    1  A    between atoms: C_1  and  C_2
    2  A    between atoms: C_2  and  N_3
                            x       y       z     vdW  Elec       q    Type
                         _______ _______ _______ _____ _____    ______ ____

>  <TORSDO>
F 2

$$$$
=
 OpenBabel11052413203D

 28 32  0  0  1  0  0  0  0  0999 V2000
  183.2990  178.7120  142.2870 C   0  0  0  0  0  0  0  0  0  0  0  0
  188.3070  177.8000  140.9210 C   0  0  0  0  0  2  0  0  0  0  0  0
  185.9240  178.2550  146.5130 C   0  0  0  0  0  1  0  0  0  0  0  0
  190.3580  176.8920  143.0050 C   0  0  0  0  0  2  0  0  0  0  0  0
  186.8930  177.9370  142.8510 C   0  0  0  0  0  0  0  0  0  0  0  0
  190.5530  176.7530  140.5080 C   0  0  0  0  0  0  0  0  0  0  0  0
  188.1380  177.6840  142.2430 C   0  0  0  0  0  0  0  0  0  0  0  0
  188.5120  177.6390  144.7400 S   0  0  0  0  0  0  0  0  0  0  0  0
  190.9210  176.3960  141.7370 C   0  0  0  0  0  3  0  0  0  0  0  0
  184.5910  178.4900  144.3610 C   0  0  0  0  0  0  0  0  0  0  0  0
  185.6910  178.2000  142.1900 C   0  0  0  0  0  3  0  0  0  0  0  0
  189.1500  177.4370  143.1910 C   0  0  0  0  0  0  0  0  0  0  0  0
  182.2240  179.0300  144.4410 C   0  0  0  0  0  3  0  0  0  0  0  0
  185.8160  178.2360  145.0200 C   0  0  0  0  0  0  0  0  0  0  0  0
  183.4300  178.7730  145.0930 C   0  0  0  0  0  3  0  0  0  0  0  0
  191.1310  176.1040  139.4250 O   0  0  0  0  0  1  0  0  0  0  0  0
  189.6340  177.8940  140.2390 C   0  0  0  0  0  2  0  0  0  0  0  0
  186.9410  177.9660  144.2370 C   0  0  0  0  0  0  0  0  0  0  0  0
  182.1620  179.0010  143.0490 C   0  0  0  0  0  3  0  0  0  0  0  0
  184.5280  178.4660  142.9350 C   0  0  0  0  0  0  0  0  0  0  0  0
  183.1710  178.6780  140.7800 C   0  0  0  0  0  2  0  0  0  0  0  0
  182.0990  177.8020  140.2760 N   0  0  0  0  0  0  0  0  0  0  0  0
  181.1220  177.7430  138.0720 C   0  0  1  0  0  3  0  0  0  0  0  0
  182.6620  176.6650  139.5500 C   0  0  0  0  0  2  0  0  0  0  0  0
  179.8470  178.6890  139.9780 C   0  0  0  0  0  1  0  0  0  0  0  0
  181.2220  178.5300  139.3600 C   0  0  1  0  0  3  0  0  0  0  0  0
  181.2240  178.6790  136.8840 C   0  0  0  0  0  1  0  0  0  0  0  0
  182.3040  176.8120  138.0880 C   0  0  0  0  0  2  0  0  0  0  0  0
  1 20  2  0  0  0  0
  1 19  1  0  0  0  0
  2  7  1  0  0  0  0
  4 12  1  0  0  0  0
  5 18  1  0  0  0  0
  6  9  2  0  0  0  0
  7  5  1  0  0  0  0
  7 12  2  0  0  0  0
  9  4  1  0  0  0  0
 10 14  1  0  0  0  0
 10 15  2  0  0  0  0
 11  5  2  0  0  0  0
 11 20  1  0  0  0  0
 12  8  1  0  0  0  0
 13 15  1  0  0  0  0
 14  3  1  0  0  0  0
 16  6  1  0  0  0  0
 17  6  1  0  0  0  0
 17  2  1  0  0  0  0
 18  8  1  0  0  0  0
 18 14  2  0  0  0  0
 19 13  2  0  0  0  0
 20 10  1  0  0  0  0
 21  1  1  0  0  0  0
 22 21  1  0  0  0  0
 23 27  1  6  0  0  0
 23 28  1  0  0  0  0
 23 26  1  0  0  0  0
 24 22  1  0  0  0  0
 26 25  1  1  0  0  0
 26 22  1  0  0  0  0
 28 24  1  0  0  0  0
M  END
>  <MODEL>
9

>  <REMARK>
 VINA RESULT:      -9.0      1.663      2.688
  Name = 
  2 active torsions:
  status: ('A' for Active; 'I' for Inactive)
    1  A    between atoms: C_1  and  C_2
    2  A    between atoms: C_2  and  N_3
                            x       y       z     vdW  Elec       q    Type
                         _______ _______ _______ _____ _____    ______ ____

>  <TORSDO>
F 2

$$$$
