=
 OpenBabel11052413183D

 31 33  0  0  1  0  0  0  0  0999 V2000
  191.9210  177.4200  140.4630 C   0  0  0  0  0  0  0  0  0  0  0  0
  190.3320  178.6920  143.6700 C   0  0  0  0  0  2  0  0  0  0  0  0
  190.5340  177.9540  142.3760 C   0  0  0  0  0  0  0  0  0  0  0  0
  190.9310  176.5560  139.9840 C   0  0  0  0  0  3  0  0  0  0  0  0
  188.0190  177.8030  143.6910 N   0  0  0  0  0  0  0  0  0  0  0  0
  193.0740  177.5770  139.7720 F   0  0  0  0  0  0  0  0  0  0  0  0
  188.3290  176.9300  142.6280 N   0  0  0  0  0  2  0  0  0  0  0  0
  189.2080  178.0750  144.5220 C   0  0  1  0  0  3  0  0  0  0  0  0
  191.7230  178.1170  141.6600 C   0  0  0  0  0  3  0  0  0  0  0  0
  189.5330  177.1030  141.8800 C   0  0  0  0  0  0  0  0  0  0  0  0
  189.7370  176.3940  140.6940 C   0  0  0  0  0  3  0  0  0  0  0  0
  189.6780  176.8890  145.3910 C   0  0  1  0  0  3  0  0  0  0  0  0
  191.9820  176.6640  145.5080 C   0  0  0  0  0  2  0  0  0  0  0  0
  190.8100  176.2080  144.8680 O   0  0  0  0  0  0  0  0  0  0  0  0
  191.9930  176.2470  146.9890 C   0  0  0  0  0  2  0  0  0  0  0  0
  190.1220  174.9710  147.6340 C   0  0  0  0  0  1  0  0  0  0  0  0
  189.7900  177.2490  146.8910 C   0  0  2  0  0  3  0  0  0  0  0  0
  190.6690  176.3250  147.6280 N   0  0  0  0  0  0  0  0  0  0  0  0
  188.4590  177.5380  147.5970 C   0  0  0  0  0  2  0  0  0  0  0  0
  188.6140  178.4320  148.8160 C   0  0  0  0  0  1  0  0  0  0  0  0
  186.8520  177.3350  144.4600 C   0  0  0  0  0  2  0  0  0  0  0  0
  185.4910  178.7170  145.9190 C   0  0  0  0  0  0  0  0  0  0  0  0
  185.7820  178.3670  144.6950 C   0  0  0  0  0  0  0  0  0  0  0  0
  185.2140  179.0520  147.0780 O   0  0  0  0  0  0  0  0  0  0  0  0
  185.1880  179.1190  143.5480 C   0  0  0  0  0  2  0  0  0  0  0  0
  183.7810  178.6320  143.2480 C   0  0  0  0  0  2  0  0  0  0  0  0
  183.6590  178.3250  141.7720 C   0  0  0  0  0  2  0  0  0  0  0  0
  184.8070  178.9730  141.0240 C   0  0  0  0  0  2  0  0  0  0  0  0
  184.4380  179.1880  139.5940 C   0  0  0  0  0  0  0  0  0  0  0  0
  184.0740  178.0230  138.7400 C   0  0  0  0  0  1  0  0  0  0  0  0
  184.4540  180.3100  139.1140 O   0  0  0  0  0  0  0  0  0  0  0  0
  1  9  1  0  0  0  0
  3  2  1  0  0  0  0
  4  1  2  0  0  0  0
  4 11  1  0  0  0  0
  5 21  1  0  0  0  0
  5  8  1  0  0  0  0
  6  1  1  0  0  0  0
  7  5  1  0  0  0  0
  8  2  1  6  0  0  0
  8 12  1  0  0  0  0
  9  3  2  0  0  0  0
 10  3  1  0  0  0  0
 10  7  1  0  0  0  0
 11 10  2  0  0  0  0
 12 14  1  6  0  0  0
 12 17  1  0  0  0  0
 13 15  1  0  0  0  0
 14 13  1  0  0  0  0
 15 18  1  0  0  0  0
 17 19  1  1  0  0  0
 17 18  1  0  0  0  0
 18 16  1  0  0  0  0
 19 20  1  0  0  0  0
 21 23  1  0  0  0  0
 22 24  2  0  0  0  0
 23 22  2  0  0  0  0
 25 23  1  0  0  0  0
 26 25  1  0  0  0  0
 27 26  1  0  0  0  0
 28 27  1  0  0  0  0
 29 28  1  0  0  0  0
 30 29  1  0  0  0  0
 31 29  2  0  0  0  0
M  END
>  <MODEL>
1

>  <REMARK>
 VINA RESULT:      -6.7      0.000      0.000
  Name = 
  9 active torsions:
  status: ('A' for Active; 'I' for Inactive)
    1  A    between atoms: C_1  and  C_24
    2  A    between atoms: C_5  and  C_21
    3  A    between atoms: C_6  and  C_7
    4  A    between atoms: C_6  and  C_19
    5  A    between atoms: C_7  and  C_9
    6  A    between atoms: C_9  and  C_23
    7  A    between atoms: N_15  and  C_23
    8  A    between atoms: C_17  and  C_30
    9  A    between atoms: C_19  and  C_24
                            x       y       z     vdW  Elec       q    Type
                         _______ _______ _______ _____ _____    ______ ____

>  <TORSDO>
F 9

$$$$
=
 OpenBabel11052413183D

 31 33  0  0  1  0  0  0  0  0999 V2000
  191.4460  176.5330  144.7680 C   0  0  0  0  0  0  0  0  0  0  0  0
  188.6470  176.1560  142.2290 C   0  0  0  0  0  2  0  0  0  0  0  0
  189.5510  176.7470  143.2740 C   0  0  0  0  0  0  0  0  0  0  0  0
  191.2600  177.8510  145.1970 C   0  0  0  0  0  3  0  0  0  0  0  0
  187.2930  178.2270  142.3860 N   0  0  0  0  0  0  0  0  0  0  0  0
  192.4560  175.7910  145.2800 F   0  0  0  0  0  0  0  0  0  0  0  0
  188.2960  178.8410  143.1620 N   0  0  0  0  0  2  0  0  0  0  0  0
  187.8700  177.2370  141.4550 C   0  0  1  0  0  3  0  0  0  0  0  0
  190.5930  175.9820  143.8060 C   0  0  0  0  0  3  0  0  0  0  0  0
  189.3530  178.0620  143.7240 C   0  0  0  0  0  0  0  0  0  0  0  0
  190.2150  178.6180  144.6730 C   0  0  0  0  0  3  0  0  0  0  0  0
  188.6660  177.8400  140.2790 C   0  0  1  0  0  3  0  0  0  0  0  0
  190.5330  176.6060  139.6740 C   0  0  0  0  0  2  0  0  0  0  0  0
  190.0750  177.7150  140.4160 O   0  0  0  0  0  0  0  0  0  0  0  0
  190.3610  176.8490  138.1640 C   0  0  0  0  0  2  0  0  0  0  0  0
  189.4740  178.9640  137.6340 C   0  0  0  0  0  1  0  0  0  0  0  0
  188.1220  177.4070  138.8970 C   0  0  2  0  0  3  0  0  0  0  0  0
  189.1200  177.5610  137.8240 N   0  0  0  0  0  0  0  0  0  0  0  0
  186.7340  177.9530  138.5390 C   0  0  0  0  0  2  0  0  0  0  0  0
  186.1510  177.3220  137.2860 C   0  0  0  0  0  1  0  0  0  0  0  0
  186.4210  179.2190  141.7320 C   0  0  0  0  0  2  0  0  0  0  0  0
  184.2140  179.0310  140.7420 C   0  0  0  0  0  0  0  0  0  0  0  0
  184.9460  178.9350  141.8190 C   0  0  0  0  0  0  0  0  0  0  0  0
  183.5160  179.1200  139.7230 O   0  0  0  0  0  0  0  0  0  0  0  0
  184.3550  178.3710  143.0700 C   0  0  0  0  0  2  0  0  0  0  0  0
  184.2820  179.4250  144.1610 C   0  0  0  0  0  2  0  0  0  0  0  0
  184.4400  178.7630  145.5120 C   0  0  0  0  0  2  0  0  0  0  0  0
  185.7870  179.1340  146.1010 C   0  0  0  0  0  2  0  0  0  0  0  0
  186.6380  177.9180  146.2550 C   0  0  0  0  0  0  0  0  0  0  0  0
  187.6540  177.8580  147.3440 C   0  0  0  0  0  1  0  0  0  0  0  0
  186.5220  176.9810  145.4820 O   0  0  0  0  0  0  0  0  0  0  0  0
  1  4  1  0  0  0  0
  1  6  1  0  0  0  0
  2  3  1  0  0  0  0
  3 10  2  0  0  0  0
  3  9  1  0  0  0  0
  5  7  1  0  0  0  0
  7 10  1  0  0  0  0
  8  2  1  1  0  0  0
  8  5  1  0  0  0  0
  9  1  2  0  0  0  0
 10 11  1  0  0  0  0
 11  4  2  0  0  0  0
 12 14  1  1  0  0  0
 12  8  1  0  0  0  0
 13 14  1  0  0  0  0
 15 13  1  0  0  0  0
 16 18  1  0  0  0  0
 17 19  1  6  0  0  0
 17 12  1  0  0  0  0
 18 15  1  0  0  0  0
 18 17  1  0  0  0  0
 20 19  1  0  0  0  0
 21 23  1  0  0  0  0
 21  5  1  0  0  0  0
 22 23  2  0  0  0  0
 23 25  1  0  0  0  0
 24 22  2  0  0  0  0
 25 26  1  0  0  0  0
 26 27  1  0  0  0  0
 27 28  1  0  0  0  0
 28 29  1  0  0  0  0
 29 30  1  0  0  0  0
 31 29  2  0  0  0  0
M  END
>  <MODEL>
2

>  <REMARK>
 VINA RESULT:      -6.7      2.332      6.148
  Name = 
  9 active torsions:
  status: ('A' for Active; 'I' for Inactive)
    1  A    between atoms: C_1  and  C_24
    2  A    between atoms: C_5  and  C_21
    3  A    between atoms: C_6  and  C_7
    4  A    between atoms: C_6  and  C_19
    5  A    between atoms: C_7  and  C_9
    6  A    between atoms: C_9  and  C_23
    7  A    between atoms: N_15  and  C_23
    8  A    between atoms: C_17  and  C_30
    9  A    between atoms: C_19  and  C_24
                            x       y       z     vdW  Elec       q    Type
                         _______ _______ _______ _____ _____    ______ ____

>  <TORSDO>
F 9

$$$$
=
 OpenBabel11052413183D

 31 33  0  0  1  0  0  0  0  0999 V2000
  184.4410  176.4670  136.4220 C   0  0  0  0  0  0  0  0  0  0  0  0
  182.7890  176.6280  139.8380 C   0  0  0  0  0  2  0  0  0  0  0  0
  183.7140  176.9150  138.6890 C   0  0  0  0  0  0  0  0  0  0  0  0
  185.4120  177.4670  136.5330 C   0  0  0  0  0  3  0  0  0  0  0  0
  184.1370  178.2170  141.1790 N   0  0  0  0  0  0  0  0  0  0  0  0
  184.3190  175.7680  135.2690 F   0  0  0  0  0  0  0  0  0  0  0  0
  184.8130  178.6470  140.0190 N   0  0  0  0  0  2  0  0  0  0  0  0
  182.7640  177.7750  140.8640 C   0  0  1  0  0  3  0  0  0  0  0  0
  183.5910  176.1920  137.4990 C   0  0  0  0  0  3  0  0  0  0  0  0
  184.7060  177.9030  138.8050 C   0  0  0  0  0  0  0  0  0  0  0  0
  185.5440  178.1880  137.7240 C   0  0  0  0  0  3  0  0  0  0  0  0
  181.7860  178.9090  140.4930 C   0  0  1  0  0  3  0  0  0  0  0  0
  180.2630  178.3360  138.8430 C   0  0  0  0  0  2  0  0  0  0  0  0
  181.4900  178.9800  139.1050 O   0  0  0  0  0  0  0  0  0  0  0  0
  179.0930  179.1090  139.4770 C   0  0  0  0  0  2  0  0  0  0  0  0
  179.7430  181.0840  140.5820 C   0  0  0  0  0  1  0  0  0  0  0  0
  180.5420  178.9560  141.4110 C   0  0  2  0  0  3  0  0  0  0  0  0
  179.4140  179.6770  140.7960 N   0  0  0  0  0  0  0  0  0  0  0  0
  180.8160  179.3560  142.8670 C   0  0  0  0  0  2  0  0  0  0  0  0
  180.1470  178.4350  143.8730 C   0  0  0  0  0  1  0  0  0  0  0  0
  184.2050  179.2220  142.2550 C   0  0  0  0  0  2  0  0  0  0  0  0
  184.0720  178.8600  144.6510 C   0  0  0  0  0  0  0  0  0  0  0  0
  184.7750  178.7300  143.5580 C   0  0  0  0  0  0  0  0  0  0  0  0
  183.4080  178.9800  145.6890 O   0  0  0  0  0  0  0  0  0  0  0  0
  186.0430  177.9390  143.5810 C   0  0  0  0  0  2  0  0  0  0  0  0
  186.7730  178.1180  144.9010 C   0  0  0  0  0  2  0  0  0  0  0  0
  187.9330  177.1490  144.9690 C   0  0  0  0  0  2  0  0  0  0  0  0
  189.1190  177.8270  145.6270 C   0  0  0  0  0  2  0  0  0  0  0  0
  189.2890  177.3320  147.0240 C   0  0  0  0  0  0  0  0  0  0  0  0
  188.4700  177.9160  148.1220 C   0  0  0  0  0  1  0  0  0  0  0  0
  190.1120  176.4660  147.2760 O   0  0  0  0  0  0  0  0  0  0  0  0
  1  4  2  0  0  0  0
  1  9  1  0  0  0  0
  3 10  1  0  0  0  0
  3  2  1  0  0  0  0
  4 11  1  0  0  0  0
  5 21  1  0  0  0  0
  6  1  1  0  0  0  0
  7  5  1  0  0  0  0
  8  2  1  6  0  0  0
  8  5  1  0  0  0  0
  9  3  2  0  0  0  0
 10  7  1  0  0  0  0
 11 10  2  0  0  0  0
 12 14  1  6  0  0  0
 12  8  1  0  0  0  0
 12 17  1  0  0  0  0
 13 14  1  0  0  0  0
 13 15  1  0  0  0  0
 15 18  1  0  0  0  0
 16 18  1  0  0  0  0
 17 19  1  1  0  0  0
 18 17  1  0  0  0  0
 19 20  1  0  0  0  0
 21 23  1  0  0  0  0
 22 24  2  0  0  0  0
 23 25  1  0  0  0  0
 23 22  2  0  0  0  0
 25 26  1  0  0  0  0
 26 27  1  0  0  0  0
 27 28  1  0  0  0  0
 28 29  1  0  0  0  0
 29 31  2  0  0  0  0
 29 30  1  0  0  0  0
M  END
>  <MODEL>
3

>  <REMARK>
 VINA RESULT:      -6.7      3.761      8.667
  Name = 
  9 active torsions:
  status: ('A' for Active; 'I' for Inactive)
    1  A    between atoms: C_1  and  C_24
    2  A    between atoms: C_5  and  C_21
    3  A    between atoms: C_6  and  C_7
    4  A    between atoms: C_6  and  C_19
    5  A    between atoms: C_7  and  C_9
    6  A    between atoms: C_9  and  C_23
    7  A    between atoms: N_15  and  C_23
    8  A    between atoms: C_17  and  C_30
    9  A    between atoms: C_19  and  C_24
                            x       y       z     vdW  Elec       q    Type
                         _______ _______ _______ _____ _____    ______ ____

>  <TORSDO>
F 9

$$$$
=
 OpenBabel11052413183D

 31 33  0  0  1  0  0  0  0  0999 V2000
  185.4590  178.3310  146.3970 C   0  0  0  0  0  0  0  0  0  0  0  0
  185.0790  179.7560  142.8960 C   0  0  0  0  0  2  0  0  0  0  0  0
  185.5550  178.9150  144.0470 C   0  0  0  0  0  0  0  0  0  0  0  0
  186.4120  177.3290  146.1900 C   0  0  0  0  0  3  0  0  0  0  0  0
  186.8110  178.6470  141.5120 N   0  0  0  0  0  0  0  0  0  0  0  0
  184.9460  178.5320  147.6330 F   0  0  0  0  0  0  0  0  0  0  0  0
  187.0480  177.7080  142.5350 N   0  0  0  0  0  2  0  0  0  0  0  0
  185.4110  179.1190  141.5350 C   0  0  1  0  0  3  0  0  0  0  0  0
  185.0290  179.1230  145.3260 C   0  0  0  0  0  3  0  0  0  0  0  0
  186.5290  177.9230  143.8480 C   0  0  0  0  0  0  0  0  0  0  0  0
  186.9460  177.1220  144.9140 C   0  0  0  0  0  3  0  0  0  0  0  0
  184.3690  178.0800  141.0730 C   0  0  1  0  0  3  0  0  0  0  0  0
  182.1960  178.5820  141.7040 C   0  0  0  0  0  2  0  0  0  0  0  0
  183.3450  177.8310  142.0270 O   0  0  0  0  0  0  0  0  0  0  0  0
  181.5640  178.0800  140.3930 C   0  0  0  0  0  2  0  0  0  0  0  0
  182.6780  176.2350  139.4450 C   0  0  0  0  0  1  0  0  0  0  0  0
  183.8510  178.3420  139.6390 C   0  0  2  0  0  3  0  0  0  0  0  0
  182.5560  177.6890  139.3790 N   0  0  0  0  0  0  0  0  0  0  0  0
  184.8830  178.1440  138.5230 C   0  0  0  0  0  2  0  0  0  0  0  0
  184.2530  177.8070  137.1810 C   0  0  0  0  0  1  0  0  0  0  0  0
  187.2460  178.1460  140.1960 C   0  0  0  0  0  2  0  0  0  0  0  0
  189.2420  178.0730  138.8180 C   0  0  0  0  0  0  0  0  0  0  0  0
  188.7350  178.0150  140.0190 C   0  0  0  0  0  0  0  0  0  0  0  0
  189.7270  178.1290  137.6800 O   0  0  0  0  0  0  0  0  0  0  0  0
  189.6410  178.0040  141.2080 C   0  0  0  0  0  2  0  0  0  0  0  0
  190.3620  176.6730  141.3300 C   0  0  0  0  0  2  0  0  0  0  0  0
  190.1310  176.1010  142.7120 C   0  0  0  0  0  2  0  0  0  0  0  0
  191.4380  176.0960  143.4810 C   0  0  0  0  0  2  0  0  0  0  0  0
  191.2860  176.8390  144.7660 C   0  0  0  0  0  0  0  0  0  0  0  0
  190.4330  178.0590  144.8190 C   0  0  0  0  0  1  0  0  0  0  0  0
  191.8730  176.4650  145.7690 O   0  0  0  0  0  0  0  0  0  0  0  0
  1  6  1  0  0  0  0
  2  3  1  0  0  0  0
  3  9  1  0  0  0  0
  4  1  1  0  0  0  0
  5  8  1  0  0  0  0
  5  7  1  0  0  0  0
  7 10  1  0  0  0  0
  8  2  1  1  0  0  0
  9  1  2  0  0  0  0
 10  3  2  0  0  0  0
 10 11  1  0  0  0  0
 11  4  2  0  0  0  0
 12  8  1  0  0  0  0
 12 14  1  1  0  0  0
 13 14  1  0  0  0  0
 15 13  1  0  0  0  0
 17 19  1  6  0  0  0
 17 12  1  0  0  0  0
 18 16  1  0  0  0  0
 18 17  1  0  0  0  0
 18 15  1  0  0  0  0
 20 19  1  0  0  0  0
 21  5  1  0  0  0  0
 22 23  2  0  0  0  0
 23 21  1  0  0  0  0
 23 25  1  0  0  0  0
 24 22  2  0  0  0  0
 25 26  1  0  0  0  0
 26 27  1  0  0  0  0
 27 28  1  0  0  0  0
 28 29  1  0  0  0  0
 29 30  1  0  0  0  0
 29 31  2  0  0  0  0
M  END
>  <MODEL>
4

>  <REMARK>
 VINA RESULT:      -6.5      3.086      8.266
  Name = 
  9 active torsions:
  status: ('A' for Active; 'I' for Inactive)
    1  A    between atoms: C_1  and  C_24
    2  A    between atoms: C_5  and  C_21
    3  A    between atoms: C_6  and  C_7
    4  A    between atoms: C_6  and  C_19
    5  A    between atoms: C_7  and  C_9
    6  A    between atoms: C_9  and  C_23
    7  A    between atoms: N_15  and  C_23
    8  A    between atoms: C_17  and  C_30
    9  A    between atoms: C_19  and  C_24
                            x       y       z     vdW  Elec       q    Type
                         _______ _______ _______ _____ _____    ______ ____

>  <TORSDO>
F 9

$$$$
=
 OpenBabel11052413183D

 31 33  0  0  1  0  0  0  0  0999 V2000
  183.5770  178.7550  143.5880 C   0  0  0  0  0  0  0  0  0  0  0  0
  183.0950  179.0970  139.8360 C   0  0  0  0  0  2  0  0  0  0  0  0
  183.7460  178.8940  141.1750 C   0  0  0  0  0  0  0  0  0  0  0  0
  184.9450  178.4820  143.6710 C   0  0  0  0  0  3  0  0  0  0  0  0
  185.3630  179.0030  138.8410 N   0  0  0  0  0  0  0  0  0  0  0  0
  182.8290  178.8160  144.7160 F   0  0  0  0  0  0  0  0  0  0  0  0
  185.8990  178.5600  140.0670 N   0  0  0  0  0  2  0  0  0  0  0  0
  183.9620  178.5640  138.6820 C   0  0  1  0  0  3  0  0  0  0  0  0
  182.9770  178.9590  142.3410 C   0  0  0  0  0  3  0  0  0  0  0  0
  185.1250  178.6420  141.2650 C   0  0  0  0  0  0  0  0  0  0  0  0
  185.7200  178.4220  142.5090 C   0  0  0  0  0  3  0  0  0  0  0  0
  183.7810  177.0530  138.4260 C   0  0  1  0  0  3  0  0  0  0  0  0
  181.8370  176.1730  139.3290 C   0  0  0  0  0  2  0  0  0  0  0  0
  183.2220  176.3480  139.5250 O   0  0  0  0  0  0  0  0  0  0  0  0
  181.5670  175.2230  138.1490 C   0  0  0  0  0  2  0  0  0  0  0  0
  183.5200  174.3670  137.1490 C   0  0  0  0  0  1  0  0  0  0  0  0
  183.1060  176.7490  137.0670 C   0  0  2  0  0  3  0  0  0  0  0  0
  182.5010  175.4060  137.0260 N   0  0  0  0  0  0  0  0  0  0  0  0
  183.9420  177.0930  135.8280 C   0  0  0  0  0  2  0  0  0  0  0  0
  183.0940  177.4490  134.6180 C   0  0  0  0  0  1  0  0  0  0  0  0
  186.2300  178.6450  137.7040 C   0  0  0  0  0  2  0  0  0  0  0  0
  187.2910  176.4650  137.5940 C   0  0  0  0  0  0  0  0  0  0  0  0
  187.3530  177.6960  138.0260 C   0  0  0  0  0  0  0  0  0  0  0  0
  187.2370  175.2980  137.1850 O   0  0  0  0  0  0  0  0  0  0  0  0
  188.6060  178.1950  138.6700 C   0  0  0  0  0  2  0  0  0  0  0  0
  189.5430  177.0460  139.0000 C   0  0  0  0  0  2  0  0  0  0  0  0
  190.2100  177.3090  140.3320 C   0  0  0  0  0  2  0  0  0  0  0  0
  189.1510  177.4800  141.4030 C   0  0  0  0  0  2  0  0  0  0  0  0
  189.3270  176.4550  142.4740 C   0  0  0  0  0  0  0  0  0  0  0  0
  188.3470  176.3780  143.5930 C   0  0  0  0  0  1  0  0  0  0  0  0
  190.2800  175.6930  142.4490 O   0  0  0  0  0  0  0  0  0  0  0  0
  1  4  1  0  0  0  0
  1  6  1  0  0  0  0
  2  3  1  0  0  0  0
  3 10  2  0  0  0  0
  3  9  1  0  0  0  0
  5  7  1  0  0  0  0
  7 10  1  0  0  0  0
  8  5  1  0  0  0  0
  8  2  1  1  0  0  0
  9  1  2  0  0  0  0
 10 11  1  0  0  0  0
 11  4  2  0  0  0  0
 12  8  1  0  0  0  0
 12 14  1  1  0  0  0
 13 14  1  0  0  0  0
 15 13  1  0  0  0  0
 17 19  1  6  0  0  0
 17 12  1  0  0  0  0
 18 17  1  0  0  0  0
 18 16  1  0  0  0  0
 18 15  1  0  0  0  0
 20 19  1  0  0  0  0
 21 23  1  0  0  0  0
 21  5  1  0  0  0  0
 22 23  2  0  0  0  0
 23 25  1  0  0  0  0
 24 22  2  0  0  0  0
 25 26  1  0  0  0  0
 26 27  1  0  0  0  0
 27 28  1  0  0  0  0
 28 29  1  0  0  0  0
 29 30  1  0  0  0  0
 31 29  2  0  0  0  0
M  END
>  <MODEL>
5

>  <REMARK>
 VINA RESULT:      -6.3      4.024      9.116
  Name = 
  9 active torsions:
  status: ('A' for Active; 'I' for Inactive)
    1  A    between atoms: C_1  and  C_24
    2  A    between atoms: C_5  and  C_21
    3  A    between atoms: C_6  and  C_7
    4  A    between atoms: C_6  and  C_19
    5  A    between atoms: C_7  and  C_9
    6  A    between atoms: C_9  and  C_23
    7  A    between atoms: N_15  and  C_23
    8  A    between atoms: C_17  and  C_30
    9  A    between atoms: C_19  and  C_24
                            x       y       z     vdW  Elec       q    Type
                         _______ _______ _______ _____ _____    ______ ____

>  <TORSDO>
F 9

$$$$
=
 OpenBabel11052413183D

 31 33  0  0  1  0  0  0  0  0999 V2000
  184.3260  178.6640  145.1560 C   0  0  0  0  0  0  0  0  0  0  0  0
  187.1860  176.7340  143.5670 C   0  0  0  0  0  2  0  0  0  0  0  0
  186.1390  177.7850  143.8100 C   0  0  0  0  0  0  0  0  0  0  0  0
  184.2080  179.7550  144.2890 C   0  0  0  0  0  3  0  0  0  0  0  0
  187.6820  177.8810  141.4260 N   0  0  0  0  0  0  0  0  0  0  0  0
  183.5090  178.5630  146.2300 F   0  0  0  0  0  0  0  0  0  0  0  0
  186.8830  178.9760  141.8100 N   0  0  0  0  0  2  0  0  0  0  0  0
  188.2830  177.2200  142.6020 C   0  0  1  0  0  3  0  0  0  0  0  0
  185.2920  177.6800  144.9170 C   0  0  0  0  0  3  0  0  0  0  0  0
  186.0020  178.8700  142.9290 C   0  0  0  0  0  0  0  0  0  0  0  0
  185.0480  179.8610  143.1760 C   0  0  0  0  0  3  0  0  0  0  0  0
  189.3990  178.0260  143.2990 C   0  0  1  0  0  3  0  0  0  0  0  0
  189.8940  177.2890  145.4400 C   0  0  0  0  0  2  0  0  0  0  0  0
  189.1730  178.2380  144.6860 O   0  0  0  0  0  0  0  0  0  0  0  0
  191.4100  177.5210  145.3070 C   0  0  0  0  0  2  0  0  0  0  0  0
  191.9750  179.3760  143.9710 C   0  0  0  0  0  1  0  0  0  0  0  0
  190.8170  177.5090  142.9580 C   0  0  2  0  0  3  0  0  0  0  0  0
  191.8220  177.9240  143.9530 N   0  0  0  0  0  0  0  0  0  0  0  0
  191.2580  177.7160  141.5040 C   0  0  0  0  0  2  0  0  0  0  0  0
  192.6210  177.1150  141.2040 C   0  0  0  0  0  1  0  0  0  0  0  0
  188.6630  178.2550  140.3910 C   0  0  0  0  0  2  0  0  0  0  0  0
  187.5760  178.1100  138.2260 C   0  0  0  0  0  0  0  0  0  0  0  0
  188.4570  177.6080  139.0480 C   0  0  0  0  0  0  0  0  0  0  0  0
  186.7420  178.5840  137.4430 O   0  0  0  0  0  0  0  0  0  0  0  0
  189.3720  176.5210  138.5820 C   0  0  0  0  0  2  0  0  0  0  0  0
  190.5620  177.0940  137.8330 C   0  0  0  0  0  2  0  0  0  0  0  0
  191.4670  175.9670  137.3880 C   0  0  0  0  0  2  0  0  0  0  0  0
  192.9150  176.3810  137.5660 C   0  0  0  0  0  2  0  0  0  0  0  0
  193.7670  175.1850  137.8350 C   0  0  0  0  0  0  0  0  0  0  0  0
  193.4020  173.8690  137.2420 C   0  0  0  0  0  1  0  0  0  0  0  0
  194.7480  175.2760  138.5560 O   0  0  0  0  0  0  0  0  0  0  0  0
  1  6  1  0  0  0  0
  2  3  1  0  0  0  0
  3  9  2  0  0  0  0
  4  1  2  0  0  0  0
  5  7  1  0  0  0  0
  5  8  1  0  0  0  0
  7 10  1  0  0  0  0
  8 12  1  0  0  0  0
  8  2  1  1  0  0  0
  9  1  1  0  0  0  0
 10 11  2  0  0  0  0
 10  3  1  0  0  0  0
 11  4  1  0  0  0  0
 12 14  1  1  0  0  0
 14 13  1  0  0  0  0
 15 13  1  0  0  0  0
 17 19  1  6  0  0  0
 17 12  1  0  0  0  0
 17 18  1  0  0  0  0
 18 16  1  0  0  0  0
 18 15  1  0  0  0  0
 20 19  1  0  0  0  0
 21  5  1  0  0  0  0
 22 23  2  0  0  0  0
 23 21  1  0  0  0  0
 24 22  2  0  0  0  0
 25 23  1  0  0  0  0
 26 25  1  0  0  0  0
 27 28  1  0  0  0  0
 27 26  1  0  0  0  0
 28 29  1  0  0  0  0
 29 31  2  0  0  0  0
 30 29  1  0  0  0  0
M  END
>  <MODEL>
6

>  <REMARK>
 VINA RESULT:      -6.2      3.290      7.013
  Name = 
  9 active torsions:
  status: ('A' for Active; 'I' for Inactive)
    1  A    between atoms: C_1  and  C_24
    2  A    between atoms: C_5  and  C_21
    3  A    between atoms: C_6  and  C_7
    4  A    between atoms: C_6  and  C_19
    5  A    between atoms: C_7  and  C_9
    6  A    between atoms: C_9  and  C_23
    7  A    between atoms: N_15  and  C_23
    8  A    between atoms: C_17  and  C_30
    9  A    between atoms: C_19  and  C_24
                            x       y       z     vdW  Elec       q    Type
                         _______ _______ _______ _____ _____    ______ ____

>  <TORSDO>
F 9

$$$$
=
 OpenBabel11052413183D

 31 33  0  0  1  0  0  0  0  0999 V2000
  192.2200  177.3800  140.5120 C   0  0  0  0  0  0  0  0  0  0  0  0
  190.3940  178.8280  143.5110 C   0  0  0  0  0  2  0  0  0  0  0  0
  190.6870  178.0290  142.2720 C   0  0  0  0  0  0  0  0  0  0  0  0
  191.2530  176.5190  139.9840 C   0  0  0  0  0  3  0  0  0  0  0  0
  188.0650  177.9930  143.3670 N   0  0  0  0  0  0  0  0  0  0  0  0
  193.4320  177.4800  139.9180 F   0  0  0  0  0  0  0  0  0  0  0  0
  188.4420  177.0680  142.3730 N   0  0  0  0  0  2  0  0  0  0  0  0
  189.1850  178.2750  144.2870 C   0  0  1  0  0  3  0  0  0  0  0  0
  191.9380  178.1340  141.6560 C   0  0  0  0  0  3  0  0  0  0  0  0
  189.7110  177.1800  141.7270 C   0  0  0  0  0  0  0  0  0  0  0  0
  189.9980  176.4160  140.5930 C   0  0  0  0  0  3  0  0  0  0  0  0
  189.5460  177.1180  145.2420 C   0  0  1  0  0  3  0  0  0  0  0  0
  191.8260  176.8200  145.5390 C   0  0  0  0  0  2  0  0  0  0  0  0
  190.6870  176.3740  144.8360 O   0  0  0  0  0  0  0  0  0  0  0  0
  191.7150  176.4770  147.0350 C   0  0  0  0  0  2  0  0  0  0  0  0
  189.7560  175.2990  147.6000 C   0  0  0  0  0  1  0  0  0  0  0  0
  189.5640  177.5480  146.7280 C   0  0  2  0  0  3  0  0  0  0  0  0
  190.3530  176.6310  147.5710 N   0  0  0  0  0  0  0  0  0  0  0  0
  188.1980  177.9160  147.3200 C   0  0  0  0  0  2  0  0  0  0  0  0
  188.2600  178.2440  148.8030 C   0  0  0  0  0  1  0  0  0  0  0  0
  186.8240  177.5870  144.0500 C   0  0  0  0  0  2  0  0  0  0  0  0
  185.4930  178.9910  142.5840 C   0  0  0  0  0  0  0  0  0  0  0  0
  185.6220  178.4460  143.7640 C   0  0  0  0  0  0  0  0  0  0  0  0
  185.3680  179.5070  141.4660 O   0  0  0  0  0  0  0  0  0  0  0  0
  184.4980  178.5290  144.7460 C   0  0  0  0  0  2  0  0  0  0  0  0
  183.4110  179.4680  144.2510 C   0  0  0  0  0  2  0  0  0  0  0  0
  182.1050  178.7140  144.1460 C   0  0  0  0  0  2  0  0  0  0  0  0
  181.1980  179.4100  143.1500 C   0  0  0  0  0  2  0  0  0  0  0  0
  180.9880  178.5480  141.9500 C   0  0  0  0  0  0  0  0  0  0  0  0
  182.0520  178.4510  140.9120 C   0  0  0  0  0  1  0  0  0  0  0  0
  179.9400  177.9380  141.8040 O   0  0  0  0  0  0  0  0  0  0  0  0
  1  9  1  0  0  0  0
  3  2  1  0  0  0  0
  4  1  2  0  0  0  0
  4 11  1  0  0  0  0
  5 21  1  0  0  0  0
  5  8  1  0  0  0  0
  6  1  1  0  0  0  0
  7  5  1  0  0  0  0
  8  2  1  6  0  0  0
  8 12  1  0  0  0  0
  9  3  2  0  0  0  0
 10  3  1  0  0  0  0
 10  7  1  0  0  0  0
 11 10  2  0  0  0  0
 12 14  1  6  0  0  0
 12 17  1  0  0  0  0
 13 15  1  0  0  0  0
 14 13  1  0  0  0  0
 15 18  1  0  0  0  0
 17 19  1  1  0  0  0
 17 18  1  0  0  0  0
 18 16  1  0  0  0  0
 19 20  1  0  0  0  0
 22 23  2  0  0  0  0
 23 21  1  0  0  0  0
 23 25  1  0  0  0  0
 24 22  2  0  0  0  0
 26 25  1  0  0  0  0
 27 26  1  0  0  0  0
 28 27  1  0  0  0  0
 29 28  1  0  0  0  0
 30 29  1  0  0  0  0
 31 29  2  0  0  0  0
M  END
>  <MODEL>
7

>  <REMARK>
 VINA RESULT:      -6.1      1.506      2.099
  Name = 
  9 active torsions:
  status: ('A' for Active; 'I' for Inactive)
    1  A    between atoms: C_1  and  C_24
    2  A    between atoms: C_5  and  C_21
    3  A    between atoms: C_6  and  C_7
    4  A    between atoms: C_6  and  C_19
    5  A    between atoms: C_7  and  C_9
    6  A    between atoms: C_9  and  C_23
    7  A    between atoms: N_15  and  C_23
    8  A    between atoms: C_17  and  C_30
    9  A    between atoms: C_19  and  C_24
                            x       y       z     vdW  Elec       q    Type
                         _______ _______ _______ _____ _____    ______ ____

>  <TORSDO>
F 9

$$$$
=
 OpenBabel11052413183D

 31 33  0  0  1  0  0  0  0  0999 V2000
  184.9300  176.6390  136.3420 C   0  0  0  0  0  0  0  0  0  0  0  0
  182.9510  176.7370  139.5830 C   0  0  0  0  0  2  0  0  0  0  0  0
  183.9980  177.0280  138.5450 C   0  0  0  0  0  0  0  0  0  0  0  0
  185.9250  177.5890  136.5930 C   0  0  0  0  0  3  0  0  0  0  0  0
  184.2220  178.2080  141.1200 N   0  0  0  0  0  0  0  0  0  0  0  0
  184.8950  175.9940  135.1530 F   0  0  0  0  0  0  0  0  0  0  0  0
  185.0280  178.6520  140.0530 N   0  0  0  0  0  2  0  0  0  0  0  0
  182.8710  177.8410  140.6520 C   0  0  1  0  0  3  0  0  0  0  0  0
  183.9660  176.3600  137.3170 C   0  0  0  0  0  3  0  0  0  0  0  0
  185.0130  177.9640  138.8020 C   0  0  0  0  0  0  0  0  0  0  0  0
  185.9660  178.2540  137.8220 C   0  0  0  0  0  3  0  0  0  0  0  0
  181.9820  179.0330  140.2380 C   0  0  1  0  0  3  0  0  0  0  0  0
  181.5430  179.1330  137.9640 C   0  0  0  0  0  2  0  0  0  0  0  0
  182.3590  179.6270  139.0030 O   0  0  0  0  0  0  0  0  0  0  0  0
  180.0900  179.6090  138.1370 C   0  0  0  0  0  2  0  0  0  0  0  0
  179.7620  181.0130  139.9980 C   0  0  0  0  0  1  0  0  0  0  0  0
  180.4710  178.7290  140.3610 C   0  0  2  0  0  3  0  0  0  0  0  0
  179.6450  179.6320  139.5400 N   0  0  0  0  0  0  0  0  0  0  0  0
  179.9540  178.5450  141.7940 C   0  0  0  0  0  2  0  0  0  0  0  0
  180.6800  179.4160  142.8050 C   0  0  0  0  0  1  0  0  0  0  0  0
  184.2230  179.1640  142.2420 C   0  0  0  0  0  2  0  0  0  0  0  0
  184.3360  178.8440  144.6450 C   0  0  0  0  0  0  0  0  0  0  0  0
  184.9220  178.6920  143.4880 C   0  0  0  0  0  0  0  0  0  0  0  0
  183.7820  178.9850  145.7430 O   0  0  0  0  0  0  0  0  0  0  0  0
  186.1830  177.8950  143.3940 C   0  0  0  0  0  2  0  0  0  0  0  0
  186.6450  177.4430  144.7690 C   0  0  0  0  0  2  0  0  0  0  0  0
  188.1380  177.1980  144.7420 C   0  0  0  0  0  2  0  0  0  0  0  0
  188.5360  176.6490  143.3860 C   0  0  0  0  0  2  0  0  0  0  0  0
  189.9940  176.3330  143.3630 C   0  0  0  0  0  0  0  0  0  0  0  0
  190.8900  176.8930  144.4120 C   0  0  0  0  0  1  0  0  0  0  0  0
  190.4600  175.6350  142.4760 O   0  0  0  0  0  0  0  0  0  0  0  0
  1  4  2  0  0  0  0
  1  9  1  0  0  0  0
  3 10  1  0  0  0  0
  3  2  1  0  0  0  0
  4 11  1  0  0  0  0
  5 21  1  0  0  0  0
  6  1  1  0  0  0  0
  7  5  1  0  0  0  0
  8  2  1  6  0  0  0
  8  5  1  0  0  0  0
  9  3  2  0  0  0  0
 10  7  1  0  0  0  0
 11 10  2  0  0  0  0
 12 14  1  6  0  0  0
 12 17  1  0  0  0  0
 12  8  1  0  0  0  0
 13 15  1  0  0  0  0
 13 14  1  0  0  0  0
 15 18  1  0  0  0  0
 17 19  1  1  0  0  0
 18 16  1  0  0  0  0
 18 17  1  0  0  0  0
 19 20  1  0  0  0  0
 21 23  1  0  0  0  0
 22 24  2  0  0  0  0
 23 22  2  0  0  0  0
 25 23  1  0  0  0  0
 25 26  1  0  0  0  0
 27 26  1  0  0  0  0
 28 27  1  0  0  0  0
 29 28  1  0  0  0  0
 29 30  1  0  0  0  0
 31 29  2  0  0  0  0
M  END
>  <MODEL>
8

>  <REMARK>
 VINA RESULT:      -6.0      3.510      8.443
  Name = 
  9 active torsions:
  status: ('A' for Active; 'I' for Inactive)
    1  A    between atoms: C_1  and  C_24
    2  A    between atoms: C_5  and  C_21
    3  A    between atoms: C_6  and  C_7
    4  A    between atoms: C_6  and  C_19
    5  A    between atoms: C_7  and  C_9
    6  A    between atoms: C_9  and  C_23
    7  A    between atoms: N_15  and  C_23
    8  A    between atoms: C_17  and  C_30
    9  A    between atoms: C_19  and  C_24
                            x       y       z     vdW  Elec       q    Type
                         _______ _______ _______ _____ _____    ______ ____

>  <TORSDO>
F 9

$$$$
=
 OpenBabel11052413183D

 31 33  0  0  1  0  0  0  0  0999 V2000
  184.4250  178.6560  144.8100 C   0  0  0  0  0  0  0  0  0  0  0  0
  187.3070  176.5750  143.4730 C   0  0  0  0  0  2  0  0  0  0  0  0
  186.2850  177.6670  143.6130 C   0  0  0  0  0  0  0  0  0  0  0  0
  184.3990  179.7170  143.9000 C   0  0  0  0  0  3  0  0  0  0  0  0
  187.9750  177.6230  141.3290 N   0  0  0  0  0  0  0  0  0  0  0  0
  183.5400  178.6220  145.8340 F   0  0  0  0  0  0  0  0  0  0  0  0
  187.1930  178.7580  141.6230 N   0  0  0  0  0  2  0  0  0  0  0  0
  188.4780  176.9880  142.5630 C   0  0  1  0  0  3  0  0  0  0  0  0
  185.3680  177.6320  144.6680 C   0  0  0  0  0  3  0  0  0  0  0  0
  186.2410  178.7230  142.6870 C   0  0  0  0  0  0  0  0  0  0  0  0
  185.3100  179.7530  142.8390 C   0  0  0  0  0  3  0  0  0  0  0  0
  189.5770  177.7810  143.3000 C   0  0  1  0  0  3  0  0  0  0  0  0
  189.2970  177.8640  145.5990 C   0  0  0  0  0  2  0  0  0  0  0  0
  189.0930  178.5570  144.3870 O   0  0  0  0  0  0  0  0  0  0  0  0
  190.7980  177.7420  145.9140 C   0  0  0  0  0  2  0  0  0  0  0  0
  192.1920  178.7880  144.3300 C   0  0  0  0  0  1  0  0  0  0  0  0
  190.8180  176.9210  143.6360 C   0  0  2  0  0  3  0  0  0  0  0  0
  191.6270  177.5000  144.7230 N   0  0  0  0  0  0  0  0  0  0  0  0
  191.6410  176.4580  142.4270 C   0  0  0  0  0  2  0  0  0  0  0  0
  192.0320  177.5970  141.5000 C   0  0  0  0  0  1  0  0  0  0  0  0
  189.0300  177.9260  140.3450 C   0  0  0  0  0  2  0  0  0  0  0  0
  190.0910  176.3230  138.8640 C   0  0  0  0  0  0  0  0  0  0  0  0
  189.0370  177.0500  139.1210 C   0  0  0  0  0  0  0  0  0  0  0  0
  191.0880  175.6310  138.6170 O   0  0  0  0  0  0  0  0  0  0  0  0
  187.7950  176.8680  138.3110 C   0  0  0  0  0  2  0  0  0  0  0  0
  187.0980  178.1970  138.0750 C   0  0  0  0  0  2  0  0  0  0  0  0
  185.6270  177.9560  137.8220 C   0  0  0  0  0  2  0  0  0  0  0  0
  184.8430  178.2370  139.0900 C   0  0  0  0  0  2  0  0  0  0  0  0
  183.8680  179.3430  138.8620 C   0  0  0  0  0  0  0  0  0  0  0  0
  182.5140  179.0370  138.3230 C   0  0  0  0  0  1  0  0  0  0  0  0
  184.1820  180.5000  139.0940 O   0  0  0  0  0  0  0  0  0  0  0  0
  1  6  1  0  0  0  0
  2  3  1  0  0  0  0
  3  9  2  0  0  0  0
  4  1  2  0  0  0  0
  5  7  1  0  0  0  0
  5  8  1  0  0  0  0
  7 10  1  0  0  0  0
  8 12  1  0  0  0  0
  8  2  1  1  0  0  0
  9  1  1  0  0  0  0
 10 11  2  0  0  0  0
 10  3  1  0  0  0  0
 11  4  1  0  0  0  0
 12 17  1  0  0  0  0
 12 14  1  1  0  0  0
 13 15  1  0  0  0  0
 14 13  1  0  0  0  0
 16 18  1  0  0  0  0
 17 19  1  6  0  0  0
 17 18  1  0  0  0  0
 18 15  1  0  0  0  0
 20 19  1  0  0  0  0
 21  5  1  0  0  0  0
 22 23  2  0  0  0  0
 23 21  1  0  0  0  0
 24 22  2  0  0  0  0
 25 23  1  0  0  0  0
 26 25  1  0  0  0  0
 27 26  1  0  0  0  0
 27 28  1  0  0  0  0
 29 28  1  0  0  0  0
 29 31  2  0  0  0  0
 30 29  1  0  0  0  0
M  END
>  <MODEL>
9

>  <REMARK>
 VINA RESULT:      -6.0      2.887      5.599
  Name = 
  9 active torsions:
  status: ('A' for Active; 'I' for Inactive)
    1  A    between atoms: C_1  and  C_24
    2  A    between atoms: C_5  and  C_21
    3  A    between atoms: C_6  and  C_7
    4  A    between atoms: C_6  and  C_19
    5  A    between atoms: C_7  and  C_9
    6  A    between atoms: C_9  and  C_23
    7  A    between atoms: N_15  and  C_23
    8  A    between atoms: C_17  and  C_30
    9  A    between atoms: C_19  and  C_24
                            x       y       z     vdW  Elec       q    Type
                         _______ _______ _______ _____ _____    ______ ____

>  <TORSDO>
F 9

$$$$
