=
 OpenBabel11052414173D

 34 38  0  0  1  0  0  0  0  0999 V2000
  185.8550  178.4670  144.9240 C   0  0  0  0  0  0  0  0  0  0  0  0
  187.2310  177.1400  143.3210 C   0  0  0  0  0  3  0  0  0  0  0  0
  185.6060  179.0320  142.5690 C   0  0  2  0  0  3  0  0  0  0  0  0
  184.9700  178.4170  140.2230 C   0  0  0  0  0  0  0  0  0  0  0  0
  187.6950  177.6030  146.3290 C   0  0  0  0  0  3  0  0  0  0  0  0
  188.5760  177.1540  145.4370 C   0  0  0  0  0  3  0  0  0  0  0  0
  187.2230  178.5860  140.6780 N   0  0  0  0  0  0  0  0  0  0  0  0
  186.2590  178.2100  143.6630 C   0  0  0  0  0  0  0  0  0  0  0  0
  185.6760  178.1020  138.7330 S   0  0  0  0  0  0  0  0  0  0  0  0
  186.2240  177.6000  146.0820 C   0  0  0  0  0  2  0  0  0  0  0  0
  184.1430  179.1100  142.8100 N   0  0  0  0  0  0  0  0  0  0  0  0
  184.8590  179.5670  145.1620 C   0  0  0  0  0  2  0  0  0  0  0  0
  188.2350  176.6890  144.0800 C   0  0  0  0  0  3  0  0  0  0  0  0
  183.5520  178.5250  140.5280 C   0  0  0  0  0  3  0  0  0  0  0  0
  183.1580  178.8480  141.7670 C   0  0  0  0  0  0  0  0  0  0  0  0
  187.2340  178.2760  139.3610 C   0  0  0  0  0  0  0  0  0  0  0  0
  185.9530  178.6390  141.1600 C   0  0  0  0  0  0  0  0  0  0  0  0
  183.6950  179.4590  144.1700 C   0  0  0  0  0  2  0  0  0  0  0  0
  179.8030  178.5700  143.5140 C   0  0  0  0  0  0  0  0  0  0  0  0
  178.9310  178.9720  142.4990 C   0  0  0  0  0  3  0  0  0  0  0  0
  181.7010  178.9110  142.0300 C   0  0  0  0  0  0  0  0  0  0  0  0
  179.4360  179.3390  141.2480 C   0  0  0  0  0  3  0  0  0  0  0  0
  181.1810  178.5350  143.2780 C   0  0  0  0  0  3  0  0  0  0  0  0
  180.8140  179.3040  141.0140 C   0  0  0  0  0  3  0  0  0  0  0  0
  179.3150  178.2100  144.7240 F   0  0  0  0  0  0  0  0  0  0  0  0
  188.4850  178.1910  138.5520 C   0  0  0  0  0  2  0  0  0  0  0  0
  189.6880  178.2910  139.4350 C   0  0  0  0  0  3  0  0  0  0  0  0
  190.4890  177.2530  139.6950 C   0  0  0  0  0  0  0  0  0  0  0  0
  192.8300  177.4500  140.0670 O   0  0  0  0  0  0  0  0  0  0  0  0
  191.6700  177.4680  140.5670 C   0  0  0  0  0  0  0  0  0  0  0  0
  191.6240  176.6620  142.8950 C   0  0  0  0  0  1  0  0  0  0  0  0
  191.5110  177.7020  141.9350 O   0  0  0  0  0  0  0  0  0  0  0  0
  190.7470  175.4870  137.9490 C   0  0  0  0  0  1  0  0  0  0  0  0
  190.1720  176.0030  139.1390 O   0  0  0  0  0  0  0  0  0  0  0  0
  1 12  1  0  0  0  0
  1 10  1  0  0  0  0
  2  8  1  0  0  0  0
  2 13  2  0  0  0  0
  3 17  1  6  0  0  0
  3 11  1  0  0  0  0
  3  8  1  0  0  0  0
  4 14  1  0  0  0  0
  4 17  2  0  0  0  0
  6  5  2  0  0  0  0
  7 17  1  0  0  0  0
  8  1  2  0  0  0  0
  9 16  1  0  0  0  0
  9  4  1  0  0  0  0
 10  5  1  0  0  0  0
 11 18  1  0  0  0  0
 13  6  1  0  0  0  0
 14 15  2  0  0  0  0
 15 21  1  0  0  0  0
 15 11  1  0  0  0  0
 16  7  2  0  0  0  0
 18 12  1  0  0  0  0
 19 25  1  0  0  0  0
 20 19  2  0  0  0  0
 21 23  2  0  0  0  0
 22 20  1  0  0  0  0
 23 19  1  0  0  0  0
 24 22  2  0  0  0  0
 24 21  1  0  0  0  0
 26 16  1  0  0  0  0
 26 27  1  0  0  0  0
 27 28  2  0  0  0  0
 28 30  1  0  0  0  0
 29 30  2  0  0  0  0
 30 32  1  0  0  0  0
 32 31  1  0  0  0  0
 33 34  1  0  0  0  0
 34 28  1  0  0  0  0
M  END
>  <MODEL>
1

>  <REMARK>
 VINA RESULT:      -9.2      0.000      0.000
  Name = 
  6 active torsions:
  status: ('A' for Active; 'I' for Inactive)
    1  A    between atoms: C_3  and  C_17
    2  A    between atoms: C_12  and  C_28
    3  A    between atoms: C_13  and  C_14
    4  A    between atoms: C_13  and  O_33
    5  A    between atoms: C_14  and  O_34
    6  A    between atoms: C_17  and  C_29
                            x       y       z     vdW  Elec       q    Type
                         _______ _______ _______ _____ _____    ______ ____

>  <TORSDO>
F 6

$$$$
=
 OpenBabel11052414173D

 34 38  0  0  1  0  0  0  0  0999 V2000
  184.9450  178.7210  141.3870 C   0  0  0  0  0  0  0  0  0  0  0  0
  186.3990  177.7130  143.1460 C   0  0  0  0  0  3  0  0  0  0  0  0
  187.3300  178.6570  140.9040 C   0  0  2  0  0  3  0  0  0  0  0  0
  189.4550  177.3810  140.5200 C   0  0  0  0  0  0  0  0  0  0  0  0
  183.5820  178.9210  143.4390 C   0  0  0  0  0  3  0  0  0  0  0  0
  184.4550  178.6650  144.4120 C   0  0  0  0  0  3  0  0  0  0  0  0
  189.2490  178.4750  142.5390 N   0  0  0  0  0  0  0  0  0  0  0  0
  186.1690  178.3840  141.8400 C   0  0  0  0  0  0  0  0  0  0  0  0
  190.9200  177.0580  141.2710 S   0  0  0  0  0  0  0  0  0  0  0  0
  183.6870  178.3140  142.0810 C   0  0  0  0  0  2  0  0  0  0  0  0
  186.9720  178.2260  139.5290 N   0  0  0  0  0  0  0  0  0  0  0  0
  184.8200  179.3890  140.0470 C   0  0  0  0  0  2  0  0  0  0  0  0
  185.6660  177.8380  144.2580 C   0  0  0  0  0  3  0  0  0  0  0  0
  189.0440  177.0080  139.1760 C   0  0  0  0  0  3  0  0  0  0  0  0
  187.8540  177.4050  138.7070 C   0  0  0  0  0  0  0  0  0  0  0  0
  190.4830  177.9300  142.6490 C   0  0  0  0  0  0  0  0  0  0  0  0
  188.6700  178.1440  141.3550 C   0  0  0  0  0  0  0  0  0  0  0  0
  185.6640  178.6510  139.0000 C   0  0  0  0  0  2  0  0  0  0  0  0
  186.6870  175.2440  135.8160 C   0  0  0  0  0  0  0  0  0  0  0  0
  186.8140  176.1290  134.7420 C   0  0  0  0  0  3  0  0  0  0  0  0
  187.4720  176.9680  137.3420 C   0  0  0  0  0  0  0  0  0  0  0  0
  187.2750  177.4300  134.9610 C   0  0  0  0  0  3  0  0  0  0  0  0
  187.0200  175.6610  137.1090 C   0  0  0  0  0  3  0  0  0  0  0  0
  187.6060  177.8460  136.2540 C   0  0  0  0  0  3  0  0  0  0  0  0
  186.2460  173.9820  135.6050 F   0  0  0  0  0  0  0  0  0  0  0  0
  191.3750  178.1580  143.8230 C   0  0  0  0  0  2  0  0  0  0  0  0
  190.5870  178.1280  145.0940 C   0  0  0  0  0  3  0  0  0  0  0  0
  190.7710  177.2060  146.0430 C   0  0  0  0  0  0  0  0  0  0  0  0
  190.4560  177.7440  148.3390 O   0  0  0  0  0  0  0  0  0  0  0  0
  189.9500  177.2820  147.2770 C   0  0  0  0  0  0  0  0  0  0  0  0
  187.5400  177.7650  147.4460 C   0  0  0  0  0  1  0  0  0  0  0  0
  188.6200  176.8580  147.2730 O   0  0  0  0  0  0  0  0  0  0  0  0
  192.3800  175.4810  146.8620 C   0  0  0  0  0  1  0  0  0  0  0  0
  191.7270  176.2000  145.8270 O   0  0  0  0  0  0  0  0  0  0  0  0
  1  8  2  0  0  0  0
  1 10  1  0  0  0  0
  2 13  2  0  0  0  0
  3 17  1  1  0  0  0
  3  8  1  0  0  0  0
  4  9  1  0  0  0  0
  4 17  2  0  0  0  0
  5  6  2  0  0  0  0
  7 16  2  0  0  0  0
  8  2  1  0  0  0  0
  9 16  1  0  0  0  0
 10  5  1  0  0  0  0
 11  3  1  0  0  0  0
 12  1  1  0  0  0  0
 13  6  1  0  0  0  0
 14  4  1  0  0  0  0
 15 14  2  0  0  0  0
 15 11  1  0  0  0  0
 16 26  1  0  0  0  0
 17  7  1  0  0  0  0
 18 11  1  0  0  0  0
 18 12  1  0  0  0  0
 19 23  1  0  0  0  0
 20 22  1  0  0  0  0
 20 19  2  0  0  0  0
 21 15  1  0  0  0  0
 22 24  2  0  0  0  0
 23 21  2  0  0  0  0
 24 21  1  0  0  0  0
 25 19  1  0  0  0  0
 26 27  1  0  0  0  0
 27 28  2  0  0  0  0
 28 30  1  0  0  0  0
 30 29  2  0  0  0  0
 32 30  1  0  0  0  0
 32 31  1  0  0  0  0
 34 28  1  0  0  0  0
 34 33  1  0  0  0  0
M  END
>  <MODEL>
2

>  <REMARK>
 VINA RESULT:      -9.1      3.558      6.618
  Name = 
  6 active torsions:
  status: ('A' for Active; 'I' for Inactive)
    1  A    between atoms: C_3  and  C_17
    2  A    between atoms: C_12  and  C_28
    3  A    between atoms: C_13  and  C_14
    4  A    between atoms: C_13  and  O_33
    5  A    between atoms: C_14  and  O_34
    6  A    between atoms: C_17  and  C_29
                            x       y       z     vdW  Elec       q    Type
                         _______ _______ _______ _____ _____    ______ ____

>  <TORSDO>
F 6

$$$$
=
 OpenBabel11052414173D

 34 38  0  0  1  0  0  0  0  0999 V2000
  186.0090  178.3090  144.7040 C   0  0  0  0  0  0  0  0  0  0  0  0
  187.4300  177.1270  143.0290 C   0  0  0  0  0  3  0  0  0  0  0  0
  185.7190  178.9810  142.3830 C   0  0  2  0  0  3  0  0  0  0  0  0
  185.0920  178.4570  140.0120 C   0  0  0  0  0  0  0  0  0  0  0  0
  187.8960  177.4570  146.0540 C   0  0  0  0  0  3  0  0  0  0  0  0
  188.7900  177.0940  145.1360 C   0  0  0  0  0  3  0  0  0  0  0  0
  187.3390  178.7020  140.4630 N   0  0  0  0  0  0  0  0  0  0  0  0
  186.4150  178.1340  143.4310 C   0  0  0  0  0  0  0  0  0  0  0  0
  185.8000  178.2490  138.5050 S   0  0  0  0  0  0  0  0  0  0  0  0
  186.4250  177.4020  145.8150 C   0  0  0  0  0  2  0  0  0  0  0  0
  184.2560  178.9820  142.6360 N   0  0  0  0  0  0  0  0  0  0  0  0
  184.9690  179.3500  145.0040 C   0  0  0  0  0  2  0  0  0  0  0  0
  188.4590  176.6830  143.7590 C   0  0  0  0  0  3  0  0  0  0  0  0
  183.6730  178.4860  140.3290 C   0  0  0  0  0  3  0  0  0  0  0  0
  183.2750  178.7290  141.5850 C   0  0  0  0  0  0  0  0  0  0  0  0
  187.3540  178.4600  139.1320 C   0  0  0  0  0  0  0  0  0  0  0  0
  186.0720  178.6750  140.9530 C   0  0  0  0  0  0  0  0  0  0  0  0
  183.8020  179.2410  144.0140 C   0  0  0  0  0  2  0  0  0  0  0  0
  179.9610  178.7940  143.4290 C   0  0  0  0  0  0  0  0  0  0  0  0
  179.0580  178.6200  142.3770 C   0  0  0  0  0  3  0  0  0  0  0  0
  181.8180  178.7150  141.8600 C   0  0  0  0  0  0  0  0  0  0  0  0
  179.5280  178.4870  141.0680 C   0  0  0  0  0  3  0  0  0  0  0  0
  181.3340  178.8360  143.1710 C   0  0  0  0  0  3  0  0  0  0  0  0
  180.9020  178.5290  140.8110 C   0  0  0  0  0  3  0  0  0  0  0  0
  179.5070  178.9180  144.6980 F   0  0  0  0  0  0  0  0  0  0  0  0
  188.6000  178.4710  138.3120 C   0  0  0  0  0  2  0  0  0  0  0  0
  188.9160  177.0950  137.8190 C   0  0  0  0  0  3  0  0  0  0  0  0
  189.9280  176.3640  138.2960 C   0  0  0  0  0  0  0  0  0  0  0  0
  189.1970  174.4160  137.1430 O   0  0  0  0  0  0  0  0  0  0  0  0
  190.1380  175.0000  137.7510 C   0  0  0  0  0  0  0  0  0  0  0  0
  192.5150  174.7550  137.1530 C   0  0  0  0  0  1  0  0  0  0  0  0
  191.3700  174.3590  137.8940 O   0  0  0  0  0  0  0  0  0  0  0  0
  190.5670  176.7390  140.6800 C   0  0  0  0  0  1  0  0  0  0  0  0
  190.7530  176.9220  139.2860 O   0  0  0  0  0  0  0  0  0  0  0  0
  1 12  1  0  0  0  0
  1 10  1  0  0  0  0
  2  8  1  0  0  0  0
  2 13  2  0  0  0  0
  3 17  1  6  0  0  0
  3 11  1  0  0  0  0
  3  8  1  0  0  0  0
  4 14  1  0  0  0  0
  4 17  2  0  0  0  0
  6  5  2  0  0  0  0
  7 17  1  0  0  0  0
  8  1  2  0  0  0  0
  9 16  1  0  0  0  0
  9  4  1  0  0  0  0
 10  5  1  0  0  0  0
 11 18  1  0  0  0  0
 13  6  1  0  0  0  0
 14 15  2  0  0  0  0
 15 21  1  0  0  0  0
 15 11  1  0  0  0  0
 16  7  2  0  0  0  0
 18 12  1  0  0  0  0
 19 25  1  0  0  0  0
 20 19  2  0  0  0  0
 21 23  2  0  0  0  0
 22 20  1  0  0  0  0
 23 19  1  0  0  0  0
 24 22  2  0  0  0  0
 24 21  1  0  0  0  0
 26 16  1  0  0  0  0
 27 28  2  0  0  0  0
 27 26  1  0  0  0  0
 28 34  1  0  0  0  0
 29 30  2  0  0  0  0
 30 32  1  0  0  0  0
 30 28  1  0  0  0  0
 31 32  1  0  0  0  0
 34 33  1  0  0  0  0
M  END
>  <MODEL>
3

>  <REMARK>
 VINA RESULT:      -8.8      0.954      1.988
  Name = 
  6 active torsions:
  status: ('A' for Active; 'I' for Inactive)
    1  A    between atoms: C_3  and  C_17
    2  A    between atoms: C_12  and  C_28
    3  A    between atoms: C_13  and  C_14
    4  A    between atoms: C_13  and  O_33
    5  A    between atoms: C_14  and  O_34
    6  A    between atoms: C_17  and  C_29
                            x       y       z     vdW  Elec       q    Type
                         _______ _______ _______ _____ _____    ______ ____

>  <TORSDO>
F 6

$$$$
=
 OpenBabel11052414173D

 34 38  0  0  1  0  0  0  0  0999 V2000
  185.6830  178.3470  144.2800 C   0  0  0  0  0  0  0  0  0  0  0  0
  187.4090  177.2640  142.8390 C   0  0  0  0  0  3  0  0  0  0  0  0
  185.6330  178.9320  141.9170 C   0  0  2  0  0  3  0  0  0  0  0  0
  185.3660  178.2940  139.5070 C   0  0  0  0  0  0  0  0  0  0  0  0
  187.4510  177.7100  145.8860 C   0  0  0  0  0  3  0  0  0  0  0  0
  188.4840  177.4100  145.1000 C   0  0  0  0  0  3  0  0  0  0  0  0
  187.5050  178.7620  140.2270 N   0  0  0  0  0  0  0  0  0  0  0  0
  186.2630  178.1800  143.0740 C   0  0  0  0  0  0  0  0  0  0  0  0
  186.2780  178.1180  138.1090 S   0  0  0  0  0  0  0  0  0  0  0  0
  186.0340  177.5100  145.4660 C   0  0  0  0  0  2  0  0  0  0  0  0
  184.1560  178.8000  141.9840 N   0  0  0  0  0  0  0  0  0  0  0  0
  184.5230  179.2920  144.4090 C   0  0  0  0  0  2  0  0  0  0  0  0
  188.3720  176.9370  143.7090 C   0  0  0  0  0  3  0  0  0  0  0  0
  183.9210  178.1970  139.6430 C   0  0  0  0  0  3  0  0  0  0  0  0
  183.3450  178.4310  140.8290 C   0  0  0  0  0  0  0  0  0  0  0  0
  187.7120  178.4900  138.9180 C   0  0  0  0  0  0  0  0  0  0  0  0
  186.1930  178.6270  140.5560 C   0  0  0  0  0  0  0  0  0  0  0  0
  183.5080  179.0490  143.2840 C   0  0  0  0  0  2  0  0  0  0  0  0
  179.8590  176.9470  140.6480 C   0  0  0  0  0  0  0  0  0  0  0  0
  179.0750  178.0400  141.0280 C   0  0  0  0  0  3  0  0  0  0  0  0
  181.8730  178.2860  140.9190 C   0  0  0  0  0  0  0  0  0  0  0  0
  179.6830  179.2570  141.3480 C   0  0  0  0  0  3  0  0  0  0  0  0
  181.2500  177.0720  140.5890 C   0  0  0  0  0  3  0  0  0  0  0  0
  181.0740  179.3810  141.2890 C   0  0  0  0  0  3  0  0  0  0  0  0
  179.2720  175.7690  140.3330 F   0  0  0  0  0  0  0  0  0  0  0  0
  189.0480  178.5990  138.2620 C   0  0  0  0  0  2  0  0  0  0  0  0
  189.4600  177.2800  137.6900 C   0  0  0  0  0  3  0  0  0  0  0  0
  190.4010  176.5090  138.2420 C   0  0  0  0  0  0  0  0  0  0  0  0
  191.7370  174.5590  137.9740 O   0  0  0  0  0  0  0  0  0  0  0  0
  190.7170  175.2070  137.6040 C   0  0  0  0  0  0  0  0  0  0  0  0
  189.0280  173.5830  136.8430 C   0  0  0  0  0  1  0  0  0  0  0  0
  189.8920  174.6850  136.6060 O   0  0  0  0  0  0  0  0  0  0  0  0
  190.6000  176.7400  140.7200 C   0  0  0  0  0  1  0  0  0  0  0  0
  191.0560  176.9680  139.3960 O   0  0  0  0  0  0  0  0  0  0  0  0
  1 12  1  0  0  0  0
  1 10  1  0  0  0  0
  2  8  1  0  0  0  0
  2 13  2  0  0  0  0
  3 17  1  6  0  0  0
  3 11  1  0  0  0  0
  3  8  1  0  0  0  0
  4 14  1  0  0  0  0
  4 17  2  0  0  0  0
  6  5  2  0  0  0  0
  7 17  1  0  0  0  0
  8  1  2  0  0  0  0
  9 16  1  0  0  0  0
  9  4  1  0  0  0  0
 10  5  1  0  0  0  0
 11 18  1  0  0  0  0
 13  6  1  0  0  0  0
 14 15  2  0  0  0  0
 15 21  1  0  0  0  0
 15 11  1  0  0  0  0
 16  7  2  0  0  0  0
 18 12  1  0  0  0  0
 19 20  1  0  0  0  0
 20 22  2  0  0  0  0
 21 24  2  0  0  0  0
 23 19  2  0  0  0  0
 23 21  1  0  0  0  0
 24 22  1  0  0  0  0
 25 19  1  0  0  0  0
 26 16  1  0  0  0  0
 27 28  2  0  0  0  0
 27 26  1  0  0  0  0
 28 34  1  0  0  0  0
 30 29  2  0  0  0  0
 30 28  1  0  0  0  0
 32 31  1  0  0  0  0
 32 30  1  0  0  0  0
 34 33  1  0  0  0  0
M  END
>  <MODEL>
4

>  <REMARK>
 VINA RESULT:      -8.7      1.526      2.428
  Name = 
  6 active torsions:
  status: ('A' for Active; 'I' for Inactive)
    1  A    between atoms: C_3  and  C_17
    2  A    between atoms: C_12  and  C_28
    3  A    between atoms: C_13  and  C_14
    4  A    between atoms: C_13  and  O_33
    5  A    between atoms: C_14  and  O_34
    6  A    between atoms: C_17  and  C_29
                            x       y       z     vdW  Elec       q    Type
                         _______ _______ _______ _____ _____    ______ ____

>  <TORSDO>
F 6

$$$$
=
 OpenBabel11052414173D

 34 38  0  0  1  0  0  0  0  0999 V2000
  190.4220  176.4880  145.1750 C   0  0  0  0  0  0  0  0  0  0  0  0
  188.6530  178.2040  145.5610 C   0  0  0  0  0  3  0  0  0  0  0  0
  188.7150  176.6800  143.4500 C   0  0  2  0  0  3  0  0  0  0  0  0
  187.5220  178.0040  141.6850 C   0  0  0  0  0  0  0  0  0  0  0  0
  190.4790  176.8270  147.6220 C   0  0  0  0  0  3  0  0  0  0  0  0
  189.3570  177.5030  147.8630 C   0  0  0  0  0  3  0  0  0  0  0  0
  186.3870  177.6400  143.6580 N   0  0  0  0  0  0  0  0  0  0  0  0
  189.2900  177.1080  144.7860 C   0  0  0  0  0  0  0  0  0  0  0  0
  186.0410  178.7400  141.4050 S   0  0  0  0  0  0  0  0  0  0  0  0
  191.2330  176.9470  146.3420 C   0  0  0  0  0  2  0  0  0  0  0  0
  189.8080  176.5720  142.4500 N   0  0  0  0  0  0  0  0  0  0  0  0
  190.9900  175.3960  144.3140 C   0  0  0  0  0  2  0  0  0  0  0  0
  188.6740  178.3720  146.8880 C   0  0  0  0  0  3  0  0  0  0  0  0
  188.6270  177.8470  140.7520 C   0  0  0  0  0  3  0  0  0  0  0  0
  189.7220  177.1700  141.1220 C   0  0  0  0  0  0  0  0  0  0  0  0
  185.4740  178.3390  142.9440 C   0  0  0  0  0  0  0  0  0  0  0  0
  187.5390  177.4770  142.9570 C   0  0  0  0  0  0  0  0  0  0  0  0
  191.0220  175.8350  142.8440 C   0  0  0  0  0  2  0  0  0  0  0  0
  191.6770  176.3770  137.9700 C   0  0  0  0  0  0  0  0  0  0  0  0
  192.9550  176.8220  138.3200 C   0  0  0  0  0  3  0  0  0  0  0  0
  190.8310  177.0690  140.1430 C   0  0  0  0  0  0  0  0  0  0  0  0
  193.1780  177.3840  139.5800 C   0  0  0  0  0  3  0  0  0  0  0  0
  190.6220  176.4950  138.8800 C   0  0  0  0  0  3  0  0  0  0  0  0
  192.1220  177.5030  140.4890 C   0  0  0  0  0  3  0  0  0  0  0  0
  191.4610  175.8280  136.7520 F   0  0  0  0  0  0  0  0  0  0  0  0
  184.0990  178.6340  143.4400 C   0  0  0  0  0  2  0  0  0  0  0  0
  183.1370  178.7190  142.2990 C   0  0  0  0  0  3  0  0  0  0  0  0
  181.8220  178.8950  142.4650 C   0  0  0  0  0  0  0  0  0  0  0  0
  180.6900  177.9460  140.6000 O   0  0  0  0  0  0  0  0  0  0  0  0
  180.9600  178.9890  141.2610 C   0  0  0  0  0  0  0  0  0  0  0  0
  179.3060  180.7990  141.4940 C   0  0  0  0  0  1  0  0  0  0  0  0
  180.4340  180.2180  140.8570 O   0  0  0  0  0  0  0  0  0  0  0  0
  180.0990  178.3750  144.1960 C   0  0  0  0  0  1  0  0  0  0  0  0
  181.3140  178.9730  143.7710 O   0  0  0  0  0  0  0  0  0  0  0  0
  1 10  1  0  0  0  0
  2 13  2  0  0  0  0
  3 17  1  6  0  0  0
  3  8  1  0  0  0  0
  4 17  2  0  0  0  0
  5  6  2  0  0  0  0
  8  1  2  0  0  0  0
  8  2  1  0  0  0  0
  9  4  1  0  0  0  0
  9 16  1  0  0  0  0
 10  5  1  0  0  0  0
 11 18  1  0  0  0  0
 11  3  1  0  0  0  0
 12  1  1  0  0  0  0
 13  6  1  0  0  0  0
 14 15  2  0  0  0  0
 14  4  1  0  0  0  0
 15 11  1  0  0  0  0
 16 26  1  0  0  0  0
 16  7  2  0  0  0  0
 17  7  1  0  0  0  0
 18 12  1  0  0  0  0
 19 20  2  0  0  0  0
 19 23  1  0  0  0  0
 20 22  1  0  0  0  0
 21 24  1  0  0  0  0
 21 15  1  0  0  0  0
 22 24  2  0  0  0  0
 23 21  2  0  0  0  0
 25 19  1  0  0  0  0
 27 28  2  0  0  0  0
 27 26  1  0  0  0  0
 28 34  1  0  0  0  0
 29 30  2  0  0  0  0
 30 28  1  0  0  0  0
 32 30  1  0  0  0  0
 32 31  1  0  0  0  0
 34 33  1  0  0  0  0
M  END
>  <MODEL>
5

>  <REMARK>
 VINA RESULT:      -8.6      4.393      8.672
  Name = 
  6 active torsions:
  status: ('A' for Active; 'I' for Inactive)
    1  A    between atoms: C_3  and  C_17
    2  A    between atoms: C_12  and  C_28
    3  A    between atoms: C_13  and  C_14
    4  A    between atoms: C_13  and  O_33
    5  A    between atoms: C_14  and  O_34
    6  A    between atoms: C_17  and  C_29
                            x       y       z     vdW  Elec       q    Type
                         _______ _______ _______ _____ _____    ______ ____

>  <TORSDO>
F 6

$$$$
=
 OpenBabel11052414173D

 34 38  0  0  1  0  0  0  0  0999 V2000
  190.9380  177.1730  139.8610 C   0  0  0  0  0  0  0  0  0  0  0  0
  188.6540  176.7210  138.9630 C   0  0  0  0  0  3  0  0  0  0  0  0
  189.0910  178.2480  141.0280 C   0  0  2  0  0  3  0  0  0  0  0  0
  186.9710  178.1210  142.3610 C   0  0  0  0  0  0  0  0  0  0  0  0
  191.3670  176.4870  137.5260 C   0  0  0  0  0  3  0  0  0  0  0  0
  190.1600  176.5350  136.9660 C   0  0  0  0  0  3  0  0  0  0  0  0
  186.7740  178.7520  140.1520 N   0  0  0  0  0  0  0  0  0  0  0  0
  189.6050  177.3700  139.9030 C   0  0  0  0  0  0  0  0  0  0  0  0
  185.3240  178.4040  142.1980 S   0  0  0  0  0  0  0  0  0  0  0  0
  191.5760  176.1630  138.9660 C   0  0  0  0  0  2  0  0  0  0  0  0
  189.7620  177.8730  142.2980 N   0  0  0  0  0  0  0  0  0  0  0  0
  191.8110  177.8710  140.8640 C   0  0  0  0  0  2  0  0  0  0  0  0
  188.8890  176.3680  137.6940 C   0  0  0  0  0  3  0  0  0  0  0  0
  187.6960  177.7690  143.5710 C   0  0  0  0  0  3  0  0  0  0  0  0
  189.0290  177.6420  143.5380 C   0  0  0  0  0  0  0  0  0  0  0  0
  185.4870  178.8110  140.5680 C   0  0  0  0  0  0  0  0  0  0  0  0
  187.5960  178.3420  141.1540 C   0  0  0  0  0  0  0  0  0  0  0  0
  191.2280  177.7240  142.2760 C   0  0  0  0  0  2  0  0  0  0  0  0
  189.7810  177.1450  147.2220 C   0  0  0  0  0  0  0  0  0  0  0  0
  191.0490  176.5610  147.1670 C   0  0  0  0  0  3  0  0  0  0  0  0
  189.7140  177.2490  144.7920 C   0  0  0  0  0  0  0  0  0  0  0  0
  191.6570  176.3250  145.9300 C   0  0  0  0  0  3  0  0  0  0  0  0
  189.1200  177.4920  146.0400 C   0  0  0  0  0  3  0  0  0  0  0  0
  190.9940  176.6720  144.7490 C   0  0  0  0  0  3  0  0  0  0  0  0
  189.1940  177.3780  148.4190 F   0  0  0  0  0  0  0  0  0  0  0  0
  184.3680  179.2720  139.6960 C   0  0  0  0  0  2  0  0  0  0  0  0
  183.5760  178.1050  139.1990 C   0  0  0  0  0  3  0  0  0  0  0  0
  183.9310  177.3880  138.1280 C   0  0  0  0  0  0  0  0  0  0  0  0
  182.1320  176.4040  136.9220 O   0  0  0  0  0  0  0  0  0  0  0  0
  183.0840  176.2340  137.7340 C   0  0  0  0  0  0  0  0  0  0  0  0
  184.1550  174.0220  137.5560 C   0  0  0  0  0  1  0  0  0  0  0  0
  183.3390  174.9590  138.2440 O   0  0  0  0  0  0  0  0  0  0  0  0
  185.4460  177.2420  136.1490 C   0  0  0  0  0  1  0  0  0  0  0  0
  185.0820  177.7630  137.4190 O   0  0  0  0  0  0  0  0  0  0  0  0
  1  8  2  0  0  0  0
  1 12  1  0  0  0  0
  2  8  1  0  0  0  0
  3  8  1  6  0  0  0
  3 17  1  0  0  0  0
  3 11  1  0  0  0  0
  4 14  1  0  0  0  0
  5 10  1  0  0  0  0
  6  5  2  0  0  0  0
  6 13  1  0  0  0  0
  7 16  2  0  0  0  0
  7 17  1  0  0  0  0
  9  4  1  0  0  0  0
 10  1  1  0  0  0  0
 11 15  1  0  0  0  0
 12 18  1  0  0  0  0
 13  2  2  0  0  0  0
 15 14  2  0  0  0  0
 15 21  1  0  0  0  0
 16  9  1  0  0  0  0
 17  4  2  0  0  0  0
 18 11  1  0  0  0  0
 19 25  1  0  0  0  0
 20 19  1  0  0  0  0
 21 23  1  0  0  0  0
 22 20  2  0  0  0  0
 23 19  2  0  0  0  0
 24 21  2  0  0  0  0
 24 22  1  0  0  0  0
 26 16  1  0  0  0  0
 27 26  1  0  0  0  0
 28 27  2  0  0  0  0
 29 30  2  0  0  0  0
 30 28  1  0  0  0  0
 30 32  1  0  0  0  0
 31 32  1  0  0  0  0
 33 34  1  0  0  0  0
 34 28  1  0  0  0  0
M  END
>  <MODEL>
6

>  <REMARK>
 VINA RESULT:      -8.5      3.870      7.814
  Name = 
  6 active torsions:
  status: ('A' for Active; 'I' for Inactive)
    1  A    between atoms: C_3  and  C_17
    2  A    between atoms: C_12  and  C_28
    3  A    between atoms: C_13  and  C_14
    4  A    between atoms: C_13  and  O_33
    5  A    between atoms: C_14  and  O_34
    6  A    between atoms: C_17  and  C_29
                            x       y       z     vdW  Elec       q    Type
                         _______ _______ _______ _____ _____    ______ ____

>  <TORSDO>
F 6

$$$$
=
 OpenBabel11052414173D

 34 38  0  0  1  0  0  0  0  0999 V2000
  190.8270  177.1820  139.8410 C   0  0  0  0  0  0  0  0  0  0  0  0
  188.5260  176.7360  138.9870 C   0  0  0  0  0  3  0  0  0  0  0  0
  189.0060  178.2600  141.0440 C   0  0  2  0  0  3  0  0  0  0  0  0
  186.9110  178.1370  142.4170 C   0  0  0  0  0  0  0  0  0  0  0  0
  191.2110  176.4970  137.4980 C   0  0  0  0  0  3  0  0  0  0  0  0
  189.9930  176.5480  136.9610 C   0  0  0  0  0  3  0  0  0  0  0  0
  186.6740  178.7700  140.2130 N   0  0  0  0  0  0  0  0  0  0  0  0
  189.4960  177.3810  139.9090 C   0  0  0  0  0  0  0  0  0  0  0  0
  185.2630  178.4230  142.2860 S   0  0  0  0  0  0  0  0  0  0  0  0
  191.4460  176.1700  138.9330 C   0  0  0  0  0  2  0  0  0  0  0  0
  189.7000  177.8820  142.3000 N   0  0  0  0  0  0  0  0  0  0  0  0
  191.7220  177.8760  140.8280 C   0  0  0  0  0  2  0  0  0  0  0  0
  188.7360  176.3820  137.7130 C   0  0  0  0  0  3  0  0  0  0  0  0
  187.6580  177.7820  143.6130 C   0  0  0  0  0  3  0  0  0  0  0  0
  188.9900  177.6520  143.5540 C   0  0  0  0  0  0  0  0  0  0  0  0
  185.3960  178.8310  140.6530 C   0  0  0  0  0  0  0  0  0  0  0  0
  187.5130  178.3570  141.1990 C   0  0  0  0  0  0  0  0  0  0  0  0
  191.1650  177.7300  142.2500 C   0  0  0  0  0  2  0  0  0  0  0  0
  189.8090  177.1460  147.2230 C   0  0  0  0  0  0  0  0  0  0  0  0
  191.0770  176.5640  147.1440 C   0  0  0  0  0  3  0  0  0  0  0  0
  189.6980  177.2570  144.7950 C   0  0  0  0  0  0  0  0  0  0  0  0
  191.6620  176.3320  145.8960 C   0  0  0  0  0  3  0  0  0  0  0  0
  189.1270  177.4960  146.0540 C   0  0  0  0  0  3  0  0  0  0  0  0
  190.9780  176.6810  144.7270 C   0  0  0  0  0  3  0  0  0  0  0  0
  189.2440  177.3760  148.4310 F   0  0  0  0  0  0  0  0  0  0  0  0
  184.2600  179.2960  139.8030 C   0  0  0  0  0  2  0  0  0  0  0  0
  183.3080  178.1720  139.5410 C   0  0  0  0  0  3  0  0  0  0  0  0
  182.1010  178.0930  140.1080 C   0  0  0  0  0  0  0  0  0  0  0  0
  181.7330  175.8030  139.5830 O   0  0  0  0  0  0  0  0  0  0  0  0
  181.2260  176.9460  139.7590 C   0  0  0  0  0  0  0  0  0  0  0  0
  178.9310  176.5420  140.5570 C   0  0  0  0  0  1  0  0  0  0  0  0
  179.8450  177.1170  139.6360 O   0  0  0  0  0  0  0  0  0  0  0  0
  181.3530  178.8550  142.3650 C   0  0  0  0  0  1  0  0  0  0  0  0
  181.7160  179.0940  141.0140 O   0  0  0  0  0  0  0  0  0  0  0  0
  1  8  2  0  0  0  0
  1 12  1  0  0  0  0
  2  8  1  0  0  0  0
  3  8  1  6  0  0  0
  3 17  1  0  0  0  0
  3 11  1  0  0  0  0
  4 14  1  0  0  0  0
  5 10  1  0  0  0  0
  6  5  2  0  0  0  0
  6 13  1  0  0  0  0
  7 16  2  0  0  0  0
  7 17  1  0  0  0  0
  9  4  1  0  0  0  0
 10  1  1  0  0  0  0
 11 15  1  0  0  0  0
 12 18  1  0  0  0  0
 13  2  2  0  0  0  0
 15 14  2  0  0  0  0
 15 21  1  0  0  0  0
 16  9  1  0  0  0  0
 17  4  2  0  0  0  0
 18 11  1  0  0  0  0
 19 25  1  0  0  0  0
 20 19  1  0  0  0  0
 21 23  1  0  0  0  0
 22 20  2  0  0  0  0
 23 19  2  0  0  0  0
 24 21  2  0  0  0  0
 24 22  1  0  0  0  0
 26 16  1  0  0  0  0
 27 26  1  0  0  0  0
 27 28  2  0  0  0  0
 28 34  1  0  0  0  0
 29 30  2  0  0  0  0
 30 28  1  0  0  0  0
 32 30  1  0  0  0  0
 32 31  1  0  0  0  0
 34 33  1  0  0  0  0
M  END
>  <MODEL>
7

>  <REMARK>
 VINA RESULT:      -8.5      3.899      8.391
  Name = 
  6 active torsions:
  status: ('A' for Active; 'I' for Inactive)
    1  A    between atoms: C_3  and  C_17
    2  A    between atoms: C_12  and  C_28
    3  A    between atoms: C_13  and  C_14
    4  A    between atoms: C_13  and  O_33
    5  A    between atoms: C_14  and  O_34
    6  A    between atoms: C_17  and  C_29
                            x       y       z     vdW  Elec       q    Type
                         _______ _______ _______ _____ _____    ______ ____

>  <TORSDO>
F 6

$$$$
=
 OpenBabel11052414173D

 34 38  0  0  1  0  0  0  0  0999 V2000
  189.8680  177.0400  146.2950 C   0  0  0  0  0  0  0  0  0  0  0  0
  191.1120  175.7700  144.5440 C   0  0  0  0  0  3  0  0  0  0  0  0
  189.7040  177.8990  144.0230 C   0  0  2  0  0  3  0  0  0  0  0  0
  189.0290  177.6310  141.6230 C   0  0  0  0  0  0  0  0  0  0  0  0
  191.5930  175.8270  147.5850 C   0  0  0  0  0  3  0  0  0  0  0  0
  192.4300  175.3950  146.6450 C   0  0  0  0  0  3  0  0  0  0  0  0
  191.2830  177.5060  142.0890 N   0  0  0  0  0  0  0  0  0  0  0  0
  190.2550  176.8900  145.0120 C   0  0  0  0  0  0  0  0  0  0  0  0
  189.7130  177.4190  140.1050 S   0  0  0  0  0  0  0  0  0  0  0  0
  190.1330  176.0090  147.3430 C   0  0  0  0  0  2  0  0  0  0  0  0
  188.2550  178.1020  144.2760 N   0  0  0  0  0  0  0  0  0  0  0  0
  188.9930  178.2030  146.6630 C   0  0  0  0  0  2  0  0  0  0  0  0
  192.0560  175.1290  145.2430 C   0  0  0  0  0  3  0  0  0  0  0  0
  187.6280  177.8530  141.9420 C   0  0  0  0  0  3  0  0  0  0  0  0
  187.2580  178.0690  143.2110 C   0  0  0  0  0  0  0  0  0  0  0  0
  191.2740  177.3520  140.7440 C   0  0  0  0  0  0  0  0  0  0  0  0
  190.0210  177.6380  142.5770 C   0  0  0  0  0  0  0  0  0  0  0  0
  187.8330  178.3360  145.6680 C   0  0  0  0  0  2  0  0  0  0  0  0
  183.5290  178.5230  142.6930 C   0  0  0  0  0  0  0  0  0  0  0  0
  183.0850  178.6760  144.0090 C   0  0  0  0  0  3  0  0  0  0  0  0
  185.8130  178.2560  143.4850 C   0  0  0  0  0  0  0  0  0  0  0  0
  184.0000  178.6270  145.0650 C   0  0  0  0  0  3  0  0  0  0  0  0
  184.8870  178.3190  142.4330 C   0  0  0  0  0  3  0  0  0  0  0  0
  185.3580  178.4220  144.8030 C   0  0  0  0  0  3  0  0  0  0  0  0
  182.6440  178.5750  141.6690 F   0  0  0  0  0  0  0  0  0  0  0  0
  192.5170  177.2300  139.9280 C   0  0  0  0  0  2  0  0  0  0  0  0
  192.1870  176.8010  138.5340 C   0  0  0  0  0  3  0  0  0  0  0  0
  193.0320  176.1040  137.7670 C   0  0  0  0  0  0  0  0  0  0  0  0
  193.3100  176.0030  135.4070 O   0  0  0  0  0  0  0  0  0  0  0  0
  192.5940  175.7080  136.4050 C   0  0  0  0  0  0  0  0  0  0  0  0
  191.1630  173.7520  136.8430 C   0  0  0  0  0  1  0  0  0  0  0  0
  191.4030  175.0040  136.2180 O   0  0  0  0  0  0  0  0  0  0  0  0
  194.8530  174.4780  138.2900 C   0  0  0  0  0  1  0  0  0  0  0  0
  194.2990  175.7840  138.2800 O   0  0  0  0  0  0  0  0  0  0  0  0
  1 12  1  0  0  0  0
  1 10  1  0  0  0  0
  2  8  1  0  0  0  0
  2 13  2  0  0  0  0
  3 17  1  6  0  0  0
  3 11  1  0  0  0  0
  3  8  1  0  0  0  0
  4 14  1  0  0  0  0
  4 17  2  0  0  0  0
  6  5  2  0  0  0  0
  7 17  1  0  0  0  0
  8  1  2  0  0  0  0
  9 16  1  0  0  0  0
  9  4  1  0  0  0  0
 10  5  1  0  0  0  0
 11 18  1  0  0  0  0
 13  6  1  0  0  0  0
 14 15  2  0  0  0  0
 15 21  1  0  0  0  0
 15 11  1  0  0  0  0
 16  7  2  0  0  0  0
 18 12  1  0  0  0  0
 19 20  1  0  0  0  0
 20 22  2  0  0  0  0
 21 24  2  0  0  0  0
 23 19  2  0  0  0  0
 23 21  1  0  0  0  0
 24 22  1  0  0  0  0
 25 19  1  0  0  0  0
 26 16  1  0  0  0  0
 27 26  1  0  0  0  0
 28 34  1  0  0  0  0
 28 27  2  0  0  0  0
 29 30  2  0  0  0  0
 30 28  1  0  0  0  0
 32 30  1  0  0  0  0
 32 31  1  0  0  0  0
 34 33  1  0  0  0  0
M  END
>  <MODEL>
8

>  <REMARK>
 VINA RESULT:      -8.3      2.693      4.597
  Name = 
  6 active torsions:
  status: ('A' for Active; 'I' for Inactive)
    1  A    between atoms: C_3  and  C_17
    2  A    between atoms: C_12  and  C_28
    3  A    between atoms: C_13  and  C_14
    4  A    between atoms: C_13  and  O_33
    5  A    between atoms: C_14  and  O_34
    6  A    between atoms: C_17  and  C_29
                            x       y       z     vdW  Elec       q    Type
                         _______ _______ _______ _____ _____    ______ ____

>  <TORSDO>
F 6

$$$$
=
 OpenBabel11052414173D

 34 38  0  0  1  0  0  0  0  0999 V2000
  184.8850  178.8920  144.2840 C   0  0  0  0  0  0  0  0  0  0  0  0
  186.8030  177.3130  144.0560 C   0  0  0  0  0  3  0  0  0  0  0  0
  186.1790  179.0600  142.2280 C   0  0  2  0  0  3  0  0  0  0  0  0
  187.0380  178.0670  140.0920 C   0  0  0  0  0  0  0  0  0  0  0  0
  185.3900  178.2660  146.6200 C   0  0  0  0  0  3  0  0  0  0  0  0
  186.5790  177.6720  146.5280 C   0  0  0  0  0  3  0  0  0  0  0  0
  188.5540  178.3010  141.8130 N   0  0  0  0  0  0  0  0  0  0  0  0
  185.9420  178.4280  143.5860 C   0  0  0  0  0  0  0  0  0  0  0  0
  188.4660  177.5070  139.4110 S   0  0  0  0  0  0  0  0  0  0  0  0
  184.3820  178.2270  145.5220 C   0  0  0  0  0  2  0  0  0  0  0  0
  184.8890  179.1820  141.5040 N   0  0  0  0  0  0  0  0  0  0  0  0
  184.0720  180.0190  143.7150 C   0  0  0  0  0  2  0  0  0  0  0  0
  187.0860  176.9900  145.3240 C   0  0  0  0  0  3  0  0  0  0  0  0
  185.7480  178.2290  139.4410 C   0  0  0  0  0  3  0  0  0  0  0  0
  184.7190  178.7540  140.1200 C   0  0  0  0  0  0  0  0  0  0  0  0
  189.3300  177.7770  140.8360 C   0  0  0  0  0  0  0  0  0  0  0  0
  187.2670  178.4380  141.3980 C   0  0  0  0  0  0  0  0  0  0  0  0
  183.7460  179.7530  142.2390 C   0  0  0  0  0  2  0  0  0  0  0  0
  181.7830  180.1850  138.1930 C   0  0  0  0  0  0  0  0  0  0  0  0
  180.9210  179.0860  138.1480 C   0  0  0  0  0  3  0  0  0  0  0  0
  183.4180  178.8660  139.4180 C   0  0  0  0  0  0  0  0  0  0  0  0
  181.2990  177.8780  138.7420 C   0  0  0  0  0  3  0  0  0  0  0  0
  183.0230  180.0760  138.8290 C   0  0  0  0  0  3  0  0  0  0  0  0
  182.5400  177.7700  139.3770 C   0  0  0  0  0  3  0  0  0  0  0  0
  181.4160  181.3570  137.6230 F   0  0  0  0  0  0  0  0  0  0  0  0
  190.7980  177.5550  140.9890 C   0  0  0  0  0  2  0  0  0  0  0  0
  191.0760  176.6950  142.1810 C   0  0  0  0  0  3  0  0  0  0  0  0
  191.4960  177.1860  143.3510 C   0  0  0  0  0  0  0  0  0  0  0  0
  192.0550  175.0510  144.2380 O   0  0  0  0  0  0  0  0  0  0  0  0
  191.7200  176.2450  144.4770 C   0  0  0  0  0  0  0  0  0  0  0  0
  192.0580  175.9070  146.8940 C   0  0  0  0  0  1  0  0  0  0  0  0
  191.5740  176.6710  145.7990 O   0  0  0  0  0  0  0  0  0  0  0  0
  190.9290  179.4430  144.2560 C   0  0  0  0  0  1  0  0  0  0  0  0
  191.7150  178.5680  143.4610 O   0  0  0  0  0  0  0  0  0  0  0  0
  1 10  1  0  0  0  0
  2 13  2  0  0  0  0
  3 17  1  6  0  0  0
  3  8  1  0  0  0  0
  4 17  2  0  0  0  0
  6  5  2  0  0  0  0
  8  2  1  0  0  0  0
  8  1  2  0  0  0  0
  9  4  1  0  0  0  0
  9 16  1  0  0  0  0
 10  5  1  0  0  0  0
 11  3  1  0  0  0  0
 11 18  1  0  0  0  0
 12  1  1  0  0  0  0
 13  6  1  0  0  0  0
 14  4  1  0  0  0  0
 14 15  2  0  0  0  0
 15 11  1  0  0  0  0
 16 26  1  0  0  0  0
 16  7  2  0  0  0  0
 17  7  1  0  0  0  0
 18 12  1  0  0  0  0
 19 23  1  0  0  0  0
 20 19  2  0  0  0  0
 20 22  1  0  0  0  0
 21 15  1  0  0  0  0
 22 24  2  0  0  0  0
 23 21  2  0  0  0  0
 24 21  1  0  0  0  0
 25 19  1  0  0  0  0
 26 27  1  0  0  0  0
 27 28  2  0  0  0  0
 28 34  1  0  0  0  0
 28 30  1  0  0  0  0
 29 30  2  0  0  0  0
 30 32  1  0  0  0  0
 32 31  1  0  0  0  0
 34 33  1  0  0  0  0
M  END
>  <MODEL>
9

>  <REMARK>
 VINA RESULT:      -8.1      2.635      3.591
  Name = 
  6 active torsions:
  status: ('A' for Active; 'I' for Inactive)
    1  A    between atoms: C_3  and  C_17
    2  A    between atoms: C_12  and  C_28
    3  A    between atoms: C_13  and  C_14
    4  A    between atoms: C_13  and  O_33
    5  A    between atoms: C_14  and  O_34
    6  A    between atoms: C_17  and  C_29
                            x       y       z     vdW  Elec       q    Type
                         _______ _______ _______ _____ _____    ______ ____

>  <TORSDO>
F 6

$$$$
