=
 OpenBabel11052414373D

 32 36  0  0  1  0  0  0  0  0999 V2000
  184.8920  179.5530  144.6630 O   0  0  0  0  0  0  0  0  0  0  0  0
  187.7800  176.9860  143.2330 C   0  0  2  0  0  3  0  0  0  0  0  0
  184.6720  178.6840  145.7400 C   0  0  0  0  0  2  0  0  0  0  0  0
  187.0490  176.7060  144.5510 C   0  0  0  0  0  2  0  0  0  0  0  0
  189.1480  177.6670  143.4060 C   0  0  2  0  0  3  0  0  0  0  0  0
  187.7620  177.8260  138.4390 C   0  0  0  0  0  2  0  0  0  0  0  0
  186.9420  177.7760  142.2080 C   0  0  1  0  0  3  0  0  0  0  0  0
  189.9640  177.9040  139.6640 C   0  0  0  0  0  2  0  0  0  0  0  0
  189.1310  177.4220  140.8590 C   0  0  1  0  0  3  0  0  0  0  0  0
  187.5050  177.7040  145.6050 C   0  0  2  0  0  3  0  0  0  0  0  0
  189.9870  177.4680  142.1390 C   0  0  0  0  0  2  0  0  0  0  0  0
  188.9720  177.4430  145.9590 C   0  0  0  0  0  2  0  0  0  0  0  0
  186.6450  177.6370  146.7740 N   0  0  0  0  0  2  0  0  0  0  0  0
  186.3320  179.0420  142.8140 C   0  0  0  0  0  2  0  0  0  0  0  0
  185.0290  178.7280  143.5410 C   0  0  2  0  0  3  0  0  0  0  0  0
  187.7850  178.1810  140.9820 C   0  0  1  0  0  3  0  0  0  0  0  0
  189.8580  177.2430  144.7080 C   0  0  2  0  0  3  0  0  0  0  0  0
  185.7960  178.8240  146.7630 C   0  0  0  0  0  2  0  0  0  0  0  0
  189.1220  178.5080  138.5340 C   0  0  0  0  0  2  0  0  0  0  0  0
  186.9360  178.0630  139.7090 C   0  0  0  0  0  2  0  0  0  0  0  0
  181.4630  178.8130  142.2320 C   0  0  0  0  0  0  0  0  0  0  0  0
  180.2000  178.6430  142.6950 F   0  0  0  0  0  0  0  0  0  0  0  0
  183.8590  178.8770  142.6150 C   0  0  0  0  0  0  0  0  0  0  0  0
  181.6710  179.0910  140.8770 C   0  0  0  0  0  3  0  0  0  0  0  0
  184.0610  179.1510  141.2550 C   0  0  0  0  0  3  0  0  0  0  0  0
  182.5550  178.7040  143.1020 C   0  0  0  0  0  0  0  0  0  0  0  0
  182.3420  178.4240  144.4130 F   0  0  0  0  0  0  0  0  0  0  0  0
  182.9690  179.2680  140.3900 C   0  0  0  0  0  0  0  0  0  0  0  0
  184.3030  180.3650  138.7850 O   0  0  0  0  0  1  0  0  0  0  0  0
  183.1920  179.5360  138.9440 C   0  0  0  0  0  2  0  0  0  0  0  0
  191.1910  177.9610  144.8930 C   0  0  0  0  0  2  0  0  0  0  0  0
  191.9580  177.3350  145.8780 O   0  0  0  0  0  1  0  0  0  0  0  0
  1  3  1  0  0  0  0
  2  5  1  0  0  0  0
  2  4  1  1  0  0  0
  3 18  1  0  0  0  0
  5 11  1  6  0  0  0
  5 17  1  0  0  0  0
  6 19  1  0  0  0  0
  6 20  1  0  0  0  0
  7 14  1  1  0  0  0
  7  2  1  0  0  0  0
  9  8  1  6  0  0  0
  9 16  1  0  0  0  0
  9 11  1  0  0  0  0
 10  4  1  6  0  0  0
 10 12  1  0  0  0  0
 10 13  1  0  0  0  0
 14 15  1  0  0  0  0
 15 23  1  6  0  0  0
 15  1  1  0  0  0  0
 16 20  1  6  0  0  0
 16  7  1  0  0  0  0
 17 31  1  1  0  0  0
 17 12  1  0  0  0  0
 18 13  1  0  0  0  0
 19  8  1  0  0  0  0
 21 22  1  0  0  0  0
 21 26  1  0  0  0  0
 23 26  2  0  0  0  0
 24 21  2  0  0  0  0
 25 23  1  0  0  0  0
 26 27  1  0  0  0  0
 28 24  1  0  0  0  0
 28 25  2  0  0  0  0
 29 30  1  0  0  0  0
 30 28  1  0  0  0  0
 31 32  1  0  0  0  0
M  END
>  <MODEL>
1

>  <REMARK>
 VINA RESULT:     -10.0      0.000      0.000
  Name = 
  3 active torsions:
  status: ('A' for Active; 'I' for Inactive)
    1  A    between atoms: C_13  and  C_29
    2  A    between atoms: C_15  and  C_26
    3  A    between atoms: C_16  and  C_27
                            x       y       z     vdW  Elec       q    Type
                         _______ _______ _______ _____ _____    ______ ____

>  <TORSDO>
F 3

$$$$
=
 OpenBabel11052414373D

 32 36  0  0  1  0  0  0  0  0999 V2000
  190.3890  175.7090  142.3760 O   0  0  0  0  0  0  0  0  0  0  0  0
  188.4960  178.4200  144.8340 C   0  0  2  0  0  3  0  0  0  0  0  0
  191.6270  176.1710  142.8430 C   0  0  0  0  0  2  0  0  0  0  0  0
  190.0220  178.2790  144.8320 C   0  0  0  0  0  2  0  0  0  0  0  0
  187.7950  177.6360  145.9550 C   0  0  2  0  0  3  0  0  0  0  0  0
  184.2870  179.2720  142.5440 C   0  0  0  0  0  2  0  0  0  0  0  0
  187.8350  178.0830  143.4840 C   0  0  1  0  0  3  0  0  0  0  0  0
  184.2210  178.6390  144.9840 C   0  0  0  0  0  2  0  0  0  0  0  0
  185.7490  178.7370  144.8830 C   0  0  1  0  0  3  0  0  0  0  0  0
  190.4100  176.9540  145.4720 C   0  0  2  0  0  3  0  0  0  0  0  0
  186.3880  178.2010  146.1790 C   0  0  0  0  0  2  0  0  0  0  0  0
  190.0650  176.9840  146.9640 C   0  0  0  0  0  2  0  0  0  0  0  0
  191.8170  176.6730  145.2460 N   0  0  0  0  0  2  0  0  0  0  0  0
  188.2910  176.7290  142.9390 C   0  0  0  0  0  2  0  0  0  0  0  0
  189.6120  176.8580  142.1870 C   0  0  2  0  0  3  0  0  0  0  0  0
  186.2970  178.0680  143.5960 C   0  0  1  0  0  3  0  0  0  0  0  0
  188.6500  177.5430  147.2350 C   0  0  2  0  0  3  0  0  0  0  0  0
  191.8970  175.6180  144.2410 C   0  0  0  0  0  2  0  0  0  0  0  0
  183.5240  178.5130  143.6250 C   0  0  0  0  0  2  0  0  0  0  0  0
  185.6790  178.6690  142.3250 C   0  0  0  0  0  2  0  0  0  0  0  0
  190.2070  177.2980  138.4600 C   0  0  0  0  0  0  0  0  0  0  0  0
  191.2310  177.2290  137.5740 F   0  0  0  0  0  0  0  0  0  0  0  0
  189.3660  177.1100  140.7290 C   0  0  0  0  0  0  0  0  0  0  0  0
  188.9270  177.6400  138.0130 C   0  0  0  0  0  3  0  0  0  0  0  0
  188.0870  177.4580  140.2750 C   0  0  0  0  0  3  0  0  0  0  0  0
  190.4290  177.0330  139.8170 C   0  0  0  0  0  0  0  0  0  0  0  0
  191.6770  176.7110  140.2420 F   0  0  0  0  0  0  0  0  0  0  0  0
  187.8650  177.7130  138.9180 C   0  0  0  0  0  0  0  0  0  0  0  0
  186.6170  178.8450  137.2690 O   0  0  0  0  0  1  0  0  0  0  0  0
  186.5100  178.1040  138.4470 C   0  0  0  0  0  2  0  0  0  0  0  0
  187.9660  176.7210  148.3230 C   0  0  0  0  0  2  0  0  0  0  0  0
  187.6090  177.5300  149.4040 O   0  0  0  0  0  1  0  0  0  0  0  0
  1  3  1  0  0  0  0
  2  4  1  6  0  0  0
  2  5  1  0  0  0  0
  3 18  1  0  0  0  0
  5 11  1  1  0  0  0
  5 17  1  0  0  0  0
  6 19  1  0  0  0  0
  7 14  1  1  0  0  0
  7 16  1  0  0  0  0
  7  2  1  0  0  0  0
  9  8  1  1  0  0  0
  9 11  1  0  0  0  0
 10  4  1  1  0  0  0
 10 12  1  0  0  0  0
 12 17  1  0  0  0  0
 13 10  1  0  0  0  0
 15 23  1  6  0  0  0
 15  1  1  0  0  0  0
 15 14  1  0  0  0  0
 16 20  1  6  0  0  0
 16  9  1  0  0  0  0
 17 31  1  1  0  0  0
 18 13  1  0  0  0  0
 19  8  1  0  0  0  0
 20  6  1  0  0  0  0
 21 26  1  0  0  0  0
 22 21  1  0  0  0  0
 24 21  2  0  0  0  0
 24 28  1  0  0  0  0
 25 23  1  0  0  0  0
 26 27  1  0  0  0  0
 26 23  2  0  0  0  0
 28 25  2  0  0  0  0
 29 30  1  0  0  0  0
 30 28  1  0  0  0  0
 31 32  1  0  0  0  0
M  END
>  <MODEL>
2

>  <REMARK>
 VINA RESULT:     -10.0      3.542      6.019
  Name = 
  3 active torsions:
  status: ('A' for Active; 'I' for Inactive)
    1  A    between atoms: C_13  and  C_29
    2  A    between atoms: C_15  and  C_26
    3  A    between atoms: C_16  and  C_27
                            x       y       z     vdW  Elec       q    Type
                         _______ _______ _______ _____ _____    ______ ____

>  <TORSDO>
F 3

$$$$
=
 OpenBabel11052414373D

 32 36  0  0  1  0  0  0  0  0999 V2000
  187.5460  179.1790  141.1060 O   0  0  0  0  0  0  0  0  0  0  0  0
  187.3220  176.8710  144.5110 C   0  0  2  0  0  3  0  0  0  0  0  0
  186.2630  178.7460  140.7440 C   0  0  0  0  0  2  0  0  0  0  0  0
  186.1440  176.9640  143.5350 C   0  0  0  0  0  2  0  0  0  0  0  0
  187.2130  177.8160  145.7190 C   0  0  2  0  0  3  0  0  0  0  0  0
  191.9790  175.8550  145.4930 C   0  0  0  0  0  2  0  0  0  0  0  0
  188.7010  177.0480  143.8460 C   0  0  1  0  0  3  0  0  0  0  0  0
  190.5420  176.8020  147.3350 C   0  0  0  0  0  2  0  0  0  0  0  0
  189.4100  176.6460  146.3100 C   0  0  1  0  0  3  0  0  0  0  0  0
  185.5200  178.3490  143.6250 C   0  0  2  0  0  3  0  0  0  0  0  0
  188.1340  177.3270  146.8420 C   0  0  0  0  0  2  0  0  0  0  0  0
  184.8540  178.5250  144.9910 C   0  0  0  0  0  2  0  0  0  0  0  0
  184.5830  178.5560  142.5330 N   0  0  0  0  0  2  0  0  0  0  0  0
  188.7660  178.3050  142.9770 C   0  0  0  0  0  2  0  0  0  0  0  0
  188.2020  178.0390  141.5860 C   0  0  2  0  0  3  0  0  0  0  0  0
  189.8280  177.1240  144.8960 C   0  0  1  0  0  3  0  0  0  0  0  0
  185.7520  178.0490  146.1560 C   0  0  2  0  0  3  0  0  0  0  0  0
  185.2120  179.4670  141.5830 C   0  0  0  0  0  2  0  0  0  0  0  0
  191.9420  176.7710  146.7110 C   0  0  0  0  0  2  0  0  0  0  0  0
  191.0680  176.3810  144.3780 C   0  0  0  0  0  2  0  0  0  0  0  0
  189.9750  176.6500  138.5260 C   0  0  0  0  0  0  0  0  0  0  0  0
  189.6640  176.1380  137.3100 F   0  0  0  0  0  0  0  0  0  0  0  0
  189.2890  177.6070  140.6490 C   0  0  0  0  0  0  0  0  0  0  0  0
  191.3140  176.7390  138.9180 C   0  0  0  0  0  3  0  0  0  0  0  0
  190.6340  177.6890  141.0370 C   0  0  0  0  0  3  0  0  0  0  0  0
  188.9610  177.0820  139.3900 C   0  0  0  0  0  0  0  0  0  0  0  0
  187.6630  176.9830  139.0050 F   0  0  0  0  0  0  0  0  0  0  0  0
  191.6450  177.2650  140.1690 C   0  0  0  0  0  0  0  0  0  0  0  0
  193.9000  177.1920  139.4850 O   0  0  0  0  0  1  0  0  0  0  0  0
  193.0680  177.3340  140.5960 C   0  0  0  0  0  2  0  0  0  0  0  0
  185.6530  179.0260  147.3230 C   0  0  0  0  0  2  0  0  0  0  0  0
  186.0050  180.3160  146.9210 O   0  0  0  0  0  1  0  0  0  0  0  0
  1 15  1  0  0  0  0
  2  4  1  6  0  0  0
  2  5  1  0  0  0  0
  3  1  1  0  0  0  0
  3 18  1  0  0  0  0
  5 17  1  0  0  0  0
  5 11  1  1  0  0  0
  6 19  1  0  0  0  0
  7 14  1  1  0  0  0
  7  2  1  0  0  0  0
  7 16  1  0  0  0  0
  9 11  1  1  0  0  0
  9  8  1  0  0  0  0
 10  4  1  1  0  0  0
 10 12  1  0  0  0  0
 12 17  1  0  0  0  0
 13 10  1  0  0  0  0
 15 23  1  6  0  0  0
 15 14  1  0  0  0  0
 16 20  1  6  0  0  0
 16  9  1  0  0  0  0
 17 31  1  1  0  0  0
 18 13  1  0  0  0  0
 19  8  1  0  0  0  0
 20  6  1  0  0  0  0
 21 24  2  0  0  0  0
 21 26  1  0  0  0  0
 22 21  1  0  0  0  0
 23 25  1  0  0  0  0
 24 28  1  0  0  0  0
 26 23  2  0  0  0  0
 27 26  1  0  0  0  0
 28 30  1  0  0  0  0
 28 25  2  0  0  0  0
 29 30  1  0  0  0  0
 32 31  1  0  0  0  0
M  END
>  <MODEL>
3

>  <REMARK>
 VINA RESULT:      -9.9      3.141      6.611
  Name = 
  3 active torsions:
  status: ('A' for Active; 'I' for Inactive)
    1  A    between atoms: C_13  and  C_29
    2  A    between atoms: C_15  and  C_26
    3  A    between atoms: C_16  and  C_27
                            x       y       z     vdW  Elec       q    Type
                         _______ _______ _______ _____ _____    ______ ____

>  <TORSDO>
F 3

$$$$
=
 OpenBabel11052414373D

 32 36  0  0  1  0  0  0  0  0999 V2000
  187.9310  179.0680  141.2640 O   0  0  0  0  0  0  0  0  0  0  0  0
  187.4810  176.8150  144.6830 C   0  0  2  0  0  3  0  0  0  0  0  0
  186.6760  178.6280  140.8240 C   0  0  0  0  0  2  0  0  0  0  0  0
  186.3710  176.8920  143.6300 C   0  0  0  0  0  2  0  0  0  0  0  0
  187.2920  177.7790  145.8660 C   0  0  2  0  0  3  0  0  0  0  0  0
  192.0630  175.8190  145.9890 C   0  0  0  0  0  2  0  0  0  0  0  0
  188.9020  176.9830  144.1090 C   0  0  1  0  0  3  0  0  0  0  0  0
  190.5070  176.7940  147.7160 C   0  0  0  0  0  2  0  0  0  0  0  0
  189.4450  176.6210  146.6210 C   0  0  1  0  0  3  0  0  0  0  0  0
  185.7430  178.2770  143.6550 C   0  0  2  0  0  3  0  0  0  0  0  0
  188.1360  177.3090  147.0550 C   0  0  0  0  0  2  0  0  0  0  0  0
  184.9870  178.4740  144.9720 C   0  0  0  0  0  2  0  0  0  0  0  0
  184.8800  178.4660  142.5010 N   0  0  0  0  0  2  0  0  0  0  0  0
  189.0250  178.2260  143.2260 C   0  0  0  0  0  2  0  0  0  0  0  0
  188.5540  177.9370  141.8050 C   0  0  2  0  0  3  0  0  0  0  0  0
  189.9560  177.0770  145.2300 C   0  0  1  0  0  3  0  0  0  0  0  0
  185.8060  178.0180  146.2010 C   0  0  2  0  0  3  0  0  0  0  0  0
  185.5710  179.3620  141.5800 C   0  0  0  0  0  2  0  0  0  0  0  0
  191.9440  176.7540  147.1870 C   0  0  0  0  0  2  0  0  0  0  0  0
  191.2280  176.3270  144.8080 C   0  0  0  0  0  2  0  0  0  0  0  0
  192.0850  177.4370  140.4930 C   0  0  0  0  0  0  0  0  0  0  0  0
  193.3560  177.7640  140.8330 F   0  0  0  0  0  0  0  0  0  0  0  0
  189.7010  177.4910  140.9490 C   0  0  0  0  0  0  0  0  0  0  0  0
  191.8450  176.7130  139.3210 C   0  0  0  0  0  3  0  0  0  0  0  0
  189.4680  176.7690  139.7700 C   0  0  0  0  0  3  0  0  0  0  0  0
  191.0150  177.8280  141.3080 C   0  0  0  0  0  0  0  0  0  0  0  0
  191.2570  178.5390  142.4390 F   0  0  0  0  0  0  0  0  0  0  0  0
  190.5390  176.3720  138.9630 C   0  0  0  0  0  0  0  0  0  0  0  0
  190.7510  174.3180  137.8260 O   0  0  0  0  0  1  0  0  0  0  0  0
  190.2820  175.6260  137.7020 C   0  0  0  0  0  2  0  0  0  0  0  0
  185.6290  179.0140  147.3430 C   0  0  0  0  0  2  0  0  0  0  0  0
  186.0550  180.2870  146.9600 O   0  0  0  0  0  1  0  0  0  0  0  0
  1 15  1  0  0  0  0
  2  4  1  6  0  0  0
  2  5  1  0  0  0  0
  3  1  1  0  0  0  0
  3 18  1  0  0  0  0
  5 17  1  0  0  0  0
  5 11  1  1  0  0  0
  6 19  1  0  0  0  0
  7 14  1  1  0  0  0
  7  2  1  0  0  0  0
  7 16  1  0  0  0  0
  9 11  1  1  0  0  0
  9  8  1  0  0  0  0
 10  4  1  1  0  0  0
 10 12  1  0  0  0  0
 12 17  1  0  0  0  0
 13 10  1  0  0  0  0
 15 23  1  6  0  0  0
 15 14  1  0  0  0  0
 16 20  1  6  0  0  0
 16  9  1  0  0  0  0
 17 31  1  1  0  0  0
 18 13  1  0  0  0  0
 19  8  1  0  0  0  0
 20  6  1  0  0  0  0
 21 22  1  0  0  0  0
 21 26  1  0  0  0  0
 23 26  2  0  0  0  0
 24 21  2  0  0  0  0
 25 23  1  0  0  0  0
 26 27  1  0  0  0  0
 28 24  1  0  0  0  0
 28 25  2  0  0  0  0
 30 29  1  0  0  0  0
 30 28  1  0  0  0  0
 32 31  1  0  0  0  0
M  END
>  <MODEL>
4

>  <REMARK>
 VINA RESULT:      -9.7      3.566      6.826
  Name = 
  3 active torsions:
  status: ('A' for Active; 'I' for Inactive)
    1  A    between atoms: C_13  and  C_29
    2  A    between atoms: C_15  and  C_26
    3  A    between atoms: C_16  and  C_27
                            x       y       z     vdW  Elec       q    Type
                         _______ _______ _______ _____ _____    ______ ____

>  <TORSDO>
F 3

$$$$
=
 OpenBabel11052414373D

 32 36  0  0  1  0  0  0  0  0999 V2000
  185.7820  177.2480  145.2150 O   0  0  0  0  0  0  0  0  0  0  0  0
  186.8630  179.1410  141.7190 C   0  0  2  0  0  3  0  0  0  0  0  0
  184.9470  178.3290  145.5270 C   0  0  0  0  0  2  0  0  0  0  0  0
  185.8270  179.7530  142.6670 C   0  0  0  0  0  2  0  0  0  0  0  0
  186.2540  178.3550  140.5460 C   0  0  2  0  0  3  0  0  0  0  0  0
  191.3150  177.3910  140.8190 C   0  0  0  0  0  2  0  0  0  0  0  0
  187.9190  178.2670  142.4250 C   0  0  1  0  0  3  0  0  0  0  0  0
  189.5950  177.3020  138.9790 C   0  0  0  0  0  2  0  0  0  0  0  0
  188.7330  178.1000  139.9670 C   0  0  1  0  0  3  0  0  0  0  0  0
  184.5450  178.9340  142.6150 C   0  0  2  0  0  3  0  0  0  0  0  0
  187.2930  178.2070  139.4290 C   0  0  0  0  0  2  0  0  0  0  0  0
  183.8920  179.0890  141.2390 C   0  0  0  0  0  2  0  0  0  0  0  0
  183.6480  179.3250  143.6880 N   0  0  0  0  0  2  0  0  0  0  0  0
  187.2830  177.2220  143.3430 C   0  0  0  0  0  2  0  0  0  0  0  0
  186.9560  177.8180  144.7080 C   0  0  2  0  0  3  0  0  0  0  0  0
  188.8200  177.5380  141.4090 C   0  0  1  0  0  3  0  0  0  0  0  0
  184.9050  178.9400  140.0810 C   0  0  2  0  0  3  0  0  0  0  0  0
  183.6730  178.2640  144.6890 C   0  0  0  0  0  2  0  0  0  0  0  0
  190.7820  176.5900  139.6370 C   0  0  0  0  0  2  0  0  0  0  0  0
  190.2640  177.5020  141.9300 C   0  0  0  0  0  2  0  0  0  0  0  0
  189.0550  177.8700  147.8750 C   0  0  0  0  0  0  0  0  0  0  0  0
  188.9410  178.2530  149.1700 F   0  0  0  0  0  0  0  0  0  0  0  0
  188.1020  177.6260  145.6560 C   0  0  0  0  0  0  0  0  0  0  0  0
  190.2610  177.3290  147.4170 C   0  0  0  0  0  3  0  0  0  0  0  0
  189.3150  177.0900  145.2030 C   0  0  0  0  0  3  0  0  0  0  0  0
  187.9760  178.0210  146.9960 C   0  0  0  0  0  0  0  0  0  0  0  0
  186.8130  178.5550  147.4480 F   0  0  0  0  0  0  0  0  0  0  0  0
  190.3890  176.9320  146.0840 C   0  0  0  0  0  0  0  0  0  0  0  0
  192.3180  175.6860  146.6180 O   0  0  0  0  0  1  0  0  0  0  0  0
  191.6800  176.3830  145.5910 C   0  0  0  0  0  2  0  0  0  0  0  0
  184.2860  178.1240  138.9500 C   0  0  0  0  0  2  0  0  0  0  0  0
  183.3960  177.1740  139.4540 O   0  0  0  0  0  1  0  0  0  0  0  0
  1  3  1  0  0  0  0
  2  7  1  0  0  0  0
  2  4  1  1  0  0  0
  5 11  1  6  0  0  0
  5  2  1  0  0  0  0
  6 20  1  0  0  0  0
  7 14  1  6  0  0  0
  8 19  1  0  0  0  0
  9  8  1  6  0  0  0
  9 16  1  0  0  0  0
 10 12  1  6  0  0  0
 10  4  1  0  0  0  0
 10 13  1  0  0  0  0
 11  9  1  0  0  0  0
 13 18  1  0  0  0  0
 14 15  1  0  0  0  0
 15  1  1  0  0  0  0
 15 23  1  1  0  0  0
 16 20  1  1  0  0  0
 16  7  1  0  0  0  0
 17 31  1  6  0  0  0
 17  5  1  0  0  0  0
 17 12  1  0  0  0  0
 18  3  1  0  0  0  0
 19  6  1  0  0  0  0
 21 22  1  0  0  0  0
 23 26  1  0  0  0  0
 24 21  1  0  0  0  0
 25 23  2  0  0  0  0
 25 28  1  0  0  0  0
 26 27  1  0  0  0  0
 26 21  2  0  0  0  0
 28 24  2  0  0  0  0
 30 28  1  0  0  0  0
 30 29  1  0  0  0  0
 31 32  1  0  0  0  0
M  END
>  <MODEL>
5

>  <REMARK>
 VINA RESULT:      -9.7      2.380      6.402
  Name = 
  3 active torsions:
  status: ('A' for Active; 'I' for Inactive)
    1  A    between atoms: C_13  and  C_29
    2  A    between atoms: C_15  and  C_26
    3  A    between atoms: C_16  and  C_27
                            x       y       z     vdW  Elec       q    Type
                         _______ _______ _______ _____ _____    ______ ____

>  <TORSDO>
F 3

$$$$
=
 OpenBabel11052414373D

 32 36  0  0  1  0  0  0  0  0999 V2000
  190.7150  175.8290  142.1360 O   0  0  0  0  0  0  0  0  0  0  0  0
  188.3260  178.5800  144.0590 C   0  0  2  0  0  3  0  0  0  0  0  0
  191.8390  176.3980  142.7480 C   0  0  0  0  0  2  0  0  0  0  0  0
  189.8380  178.5350  144.2990 C   0  0  0  0  0  2  0  0  0  0  0  0
  187.4990  177.8330  145.1180 C   0  0  2  0  0  3  0  0  0  0  0  0
  184.4870  179.0050  141.0970 C   0  0  0  0  0  2  0  0  0  0  0  0
  187.9010  178.1090  142.6540 C   0  0  1  0  0  3  0  0  0  0  0  0
  184.0730  178.5410  143.5400 C   0  0  0  0  0  2  0  0  0  0  0  0
  185.5920  178.7260  143.6650 C   0  0  1  0  0  3  0  0  0  0  0  0
  190.1880  177.2840  145.0920 C   0  0  2  0  0  3  0  0  0  0  0  0
  186.0480  178.3230  145.0810 C   0  0  0  0  0  2  0  0  0  0  0  0
  189.6150  177.3960  146.5070 C   0  0  0  0  0  2  0  0  0  0  0  0
  191.6260  177.0770  145.1050 N   0  0  0  0  0  2  0  0  0  0  0  0
  188.5060  176.7510  142.2920 C   0  0  0  0  0  2  0  0  0  0  0  0
  189.9190  176.9100  141.7410 C   0  0  2  0  0  3  0  0  0  0  0  0
  186.3670  178.0060  142.5330 C   0  0  1  0  0  3  0  0  0  0  0  0
  188.1470  177.8830  146.5160 C   0  0  2  0  0  3  0  0  0  0  0  0
  191.9160  175.9620  144.2090 C   0  0  0  0  0  2  0  0  0  0  0  0
  183.6050  178.2770  142.1050 C   0  0  0  0  0  2  0  0  0  0  0  0
  185.9250  178.4770  141.1390 C   0  0  0  0  0  2  0  0  0  0  0  0
  189.3090  178.3150  138.2640 C   0  0  0  0  0  0  0  0  0  0  0  0
  188.7960  179.4300  137.6880 F   0  0  0  0  0  0  0  0  0  0  0  0
  189.8910  177.0440  140.2490 C   0  0  0  0  0  0  0  0  0  0  0  0
  189.7800  177.2740  137.4580 C   0  0  0  0  0  3  0  0  0  0  0  0
  190.3570  176.0020  139.4340 C   0  0  0  0  0  3  0  0  0  0  0  0
  189.3630  178.2020  139.6590 C   0  0  0  0  0  0  0  0  0  0  0  0
  188.8940  179.2140  140.4320 F   0  0  0  0  0  0  0  0  0  0  0  0
  190.3110  176.1210  138.0420 C   0  0  0  0  0  0  0  0  0  0  0  0
  190.1880  173.8100  137.5920 O   0  0  0  0  0  1  0  0  0  0  0  0
  190.7860  175.0030  137.1840 C   0  0  0  0  0  2  0  0  0  0  0  0
  187.3450  177.0970  147.5490 C   0  0  0  0  0  2  0  0  0  0  0  0
  187.6730  177.5020  148.8440 O   0  0  0  0  0  1  0  0  0  0  0  0
  1  3  1  0  0  0  0
  2  4  1  1  0  0  0
  2  5  1  0  0  0  0
  3 18  1  0  0  0  0
  5 11  1  1  0  0  0
  5 17  1  0  0  0  0
  6 20  1  0  0  0  0
  6 19  1  0  0  0  0
  7 14  1  1  0  0  0
  7  2  1  0  0  0  0
  9  8  1  1  0  0  0
  9 11  1  0  0  0  0
 10  4  1  6  0  0  0
 10 13  1  0  0  0  0
 10 12  1  0  0  0  0
 12 17  1  0  0  0  0
 15 23  1  6  0  0  0
 15  1  1  0  0  0  0
 15 14  1  0  0  0  0
 16 20  1  6  0  0  0
 16  7  1  0  0  0  0
 16  9  1  0  0  0  0
 17 31  1  1  0  0  0
 18 13  1  0  0  0  0
 19  8  1  0  0  0  0
 21 26  1  0  0  0  0
 22 21  1  0  0  0  0
 24 28  1  0  0  0  0
 24 21  2  0  0  0  0
 25 23  1  0  0  0  0
 26 23  2  0  0  0  0
 26 27  1  0  0  0  0
 28 25  2  0  0  0  0
 30 29  1  0  0  0  0
 30 28  1  0  0  0  0
 31 32  1  0  0  0  0
M  END
>  <MODEL>
6

>  <REMARK>
 VINA RESULT:      -9.5      3.355      6.118
  Name = 
  3 active torsions:
  status: ('A' for Active; 'I' for Inactive)
    1  A    between atoms: C_13  and  C_29
    2  A    between atoms: C_15  and  C_26
    3  A    between atoms: C_16  and  C_27
                            x       y       z     vdW  Elec       q    Type
                         _______ _______ _______ _____ _____    ______ ____

>  <TORSDO>
F 3

$$$$
=
 OpenBabel11052414373D

 32 36  0  0  1  0  0  0  0  0999 V2000
  186.5110  177.0610  145.7890 O   0  0  0  0  0  0  0  0  0  0  0  0
  185.5050  179.3240  142.4960 C   0  0  2  0  0  3  0  0  0  0  0  0
  185.9070  178.0180  146.6150 C   0  0  0  0  0  2  0  0  0  0  0  0
  185.0860  179.7450  143.9090 C   0  0  0  0  0  2  0  0  0  0  0  0
  184.4140  178.5690  141.7170 C   0  0  2  0  0  3  0  0  0  0  0  0
  188.9150  178.1420  139.2310 C   0  0  0  0  0  2  0  0  0  0  0  0
  186.8180  178.5180  142.4470 C   0  0  1  0  0  3  0  0  0  0  0  0
  186.4940  178.0090  138.5410 C   0  0  0  0  0  2  0  0  0  0  0  0
  186.2350  178.6300  139.9200 C   0  0  1  0  0  3  0  0  0  0  0  0
  184.0110  178.7980  144.4220 C   0  0  2  0  0  3  0  0  0  0  0  0
  184.7230  178.6210  140.2170 C   0  0  0  0  0  2  0  0  0  0  0  0
  182.7280  178.9880  143.6090 C   0  0  0  0  0  2  0  0  0  0  0  0
  183.7880  179.0060  145.8430 N   0  0  0  0  0  2  0  0  0  0  0  0
  186.8110  177.3420  143.4250 C   0  0  0  0  0  2  0  0  0  0  0  0
  187.2150  177.7920  144.8250 C   0  0  2  0  0  3  0  0  0  0  0  0
  187.0920  177.9710  141.0310 C   0  0  1  0  0  3  0  0  0  0  0  0
  182.9930  179.0390  142.0870 C   0  0  2  0  0  3  0  0  0  0  0  0
  184.3880  177.8800  146.5510 C   0  0  0  0  0  2  0  0  0  0  0  0
  187.8850  177.3820  138.4030 C   0  0  0  0  0  2  0  0  0  0  0  0
  188.5950  178.0530  140.7270 C   0  0  0  0  0  2  0  0  0  0  0  0
  190.5880  177.1240  146.4430 C   0  0  0  0  0  0  0  0  0  0  0  0
  191.0850  176.7140  147.6350 F   0  0  0  0  0  0  0  0  0  0  0  0
  188.6950  177.6540  145.0170 C   0  0  0  0  0  0  0  0  0  0  0  0
  191.4640  177.4530  145.4040 C   0  0  0  0  0  3  0  0  0  0  0  0
  189.5800  177.9870  143.9820 C   0  0  0  0  0  3  0  0  0  0  0  0
  189.2040  177.2250  146.2530 C   0  0  0  0  0  0  0  0  0  0  0  0
  188.3630  176.9120  147.2700 F   0  0  0  0  0  0  0  0  0  0  0  0
  190.9610  177.8780  144.1710 C   0  0  0  0  0  0  0  0  0  0  0  0
  191.8080  177.3190  142.0420 O   0  0  0  0  0  1  0  0  0  0  0  0
  191.8930  178.2540  143.0750 C   0  0  0  0  0  2  0  0  0  0  0  0
  181.9180  178.2500  141.3450 C   0  0  0  0  0  2  0  0  0  0  0  0
  181.1170  179.1020  140.5810 O   0  0  0  0  0  1  0  0  0  0  0  0
  1  3  1  0  0  0  0
  2  4  1  1  0  0  0
  4 10  1  0  0  0  0
  5 11  1  6  0  0  0
  5 17  1  0  0  0  0
  5  2  1  0  0  0  0
  6 20  1  0  0  0  0
  7  2  1  0  0  0  0
  7 14  1  1  0  0  0
  9  8  1  6  0  0  0
  9 11  1  0  0  0  0
  9 16  1  0  0  0  0
 10 12  1  6  0  0  0
 10 13  1  0  0  0  0
 13 18  1  0  0  0  0
 14 15  1  0  0  0  0
 15 23  1  1  0  0  0
 15  1  1  0  0  0  0
 16 20  1  6  0  0  0
 16  7  1  0  0  0  0
 17 31  1  6  0  0  0
 17 12  1  0  0  0  0
 18  3  1  0  0  0  0
 19  8  1  0  0  0  0
 19  6  1  0  0  0  0
 21 22  1  0  0  0  0
 23 26  2  0  0  0  0
 24 21  2  0  0  0  0
 25 28  2  0  0  0  0
 25 23  1  0  0  0  0
 26 21  1  0  0  0  0
 26 27  1  0  0  0  0
 28 24  1  0  0  0  0
 29 30  1  0  0  0  0
 30 28  1  0  0  0  0
 32 31  1  0  0  0  0
M  END
>  <MODEL>
7

>  <REMARK>
 VINA RESULT:      -9.4      2.612      6.409
  Name = 
  3 active torsions:
  status: ('A' for Active; 'I' for Inactive)
    1  A    between atoms: C_13  and  C_29
    2  A    between atoms: C_15  and  C_26
    3  A    between atoms: C_16  and  C_27
                            x       y       z     vdW  Elec       q    Type
                         _______ _______ _______ _____ _____    ______ ____

>  <TORSDO>
F 3

$$$$
=
 OpenBabel11052414373D

 32 36  0  0  1  0  0  0  0  0999 V2000
  184.7660  179.4990  143.1000 O   0  0  0  0  0  0  0  0  0  0  0  0
  187.7260  176.8270  144.1330 C   0  0  2  0  0  3  0  0  0  0  0  0
  183.8940  178.8570  143.9880 C   0  0  0  0  0  2  0  0  0  0  0  0
  186.3490  176.7860  144.8040 C   0  0  0  0  0  2  0  0  0  0  0  0
  188.7940  177.5880  144.9360 C   0  0  2  0  0  3  0  0  0  0  0  0
  190.5480  176.6810  140.1700 C   0  0  0  0  0  2  0  0  0  0  0  0
  187.7020  177.3560  142.6850 C   0  0  1  0  0  3  0  0  0  0  0  0
  191.6360  177.1010  142.4050 C   0  0  0  0  0  2  0  0  0  0  0  0
  190.2300  176.8340  142.9580 C   0  0  1  0  0  3  0  0  0  0  0  0
  186.1930  177.9950  145.7140 C   0  0  2  0  0  3  0  0  0  0  0  0
  190.1910  177.1750  144.4600 C   0  0  0  0  0  2  0  0  0  0  0  0
  187.1590  177.8760  146.8960 C   0  0  0  0  0  2  0  0  0  0  0  0
  184.8140  178.1270  146.1520 N   0  0  0  0  0  2  0  0  0  0  0  0
  186.9620  178.6890  142.5700 C   0  0  0  0  0  2  0  0  0  0  0  0
  185.4570  178.4720  142.4470 C   0  0  2  0  0  3  0  0  0  0  0  0
  189.1280  177.5420  142.1290 C   0  0  1  0  0  3  0  0  0  0  0  0
  188.5840  177.4670  146.4590 C   0  0  2  0  0  3  0  0  0  0  0  0
  184.2290  179.2490  145.4250 C   0  0  0  0  0  2  0  0  0  0  0  0
  191.6540  177.4270  140.9070 C   0  0  0  0  0  2  0  0  0  0  0  0
  189.1630  177.1320  140.6500 C   0  0  0  0  0  2  0  0  0  0  0  0
  183.3550  177.9560  139.3250 C   0  0  0  0  0  0  0  0  0  0  0  0
  182.0750  177.6560  138.9930 F   0  0  0  0  0  0  0  0  0  0  0  0
  185.0540  178.3790  141.0070 C   0  0  0  0  0  0  0  0  0  0  0  0
  184.3060  178.1420  138.3160 C   0  0  0  0  0  3  0  0  0  0  0  0
  186.0030  178.5600  139.9910 C   0  0  0  0  0  3  0  0  0  0  0  0
  183.7270  178.0720  140.6700 C   0  0  0  0  0  0  0  0  0  0  0  0
  182.7980  177.8800  141.6410 F   0  0  0  0  0  0  0  0  0  0  0  0
  185.6280  178.4510  138.6480 C   0  0  0  0  0  0  0  0  0  0  0  0
  187.9110  178.7620  138.1460 O   0  0  0  0  0  1  0  0  0  0  0  0
  186.6440  178.6220  137.5760 C   0  0  0  0  0  2  0  0  0  0  0  0
  189.6190  178.2660  147.2450 C   0  0  0  0  0  2  0  0  0  0  0  0
  189.2860  178.3110  148.6010 O   0  0  0  0  0  1  0  0  0  0  0  0
  1  3  1  0  0  0  0
  2  4  1  1  0  0  0
  2  5  1  0  0  0  0
  3 18  1  0  0  0  0
  5 11  1  1  0  0  0
  5 17  1  0  0  0  0
  6 20  1  0  0  0  0
  6 19  1  0  0  0  0
  7 14  1  1  0  0  0
  7  2  1  0  0  0  0
  9  8  1  6  0  0  0
  9 11  1  0  0  0  0
 10  4  1  6  0  0  0
 10 13  1  0  0  0  0
 10 12  1  0  0  0  0
 15 23  1  6  0  0  0
 15 14  1  0  0  0  0
 15  1  1  0  0  0  0
 16 20  1  6  0  0  0
 16  7  1  0  0  0  0
 16  9  1  0  0  0  0
 17 12  1  0  0  0  0
 17 31  1  1  0  0  0
 18 13  1  0  0  0  0
 19  8  1  0  0  0  0
 21 26  1  0  0  0  0
 22 21  1  0  0  0  0
 24 28  1  0  0  0  0
 24 21  2  0  0  0  0
 25 23  1  0  0  0  0
 26 23  2  0  0  0  0
 26 27  1  0  0  0  0
 28 25  2  0  0  0  0
 30 29  1  0  0  0  0
 30 28  1  0  0  0  0
 31 32  1  0  0  0  0
M  END
>  <MODEL>
8

>  <REMARK>
 VINA RESULT:      -9.2      1.833      2.661
  Name = 
  3 active torsions:
  status: ('A' for Active; 'I' for Inactive)
    1  A    between atoms: C_13  and  C_29
    2  A    between atoms: C_15  and  C_26
    3  A    between atoms: C_16  and  C_27
                            x       y       z     vdW  Elec       q    Type
                         _______ _______ _______ _____ _____    ______ ____

>  <TORSDO>
F 3

$$$$
=
 OpenBabel11052414373D

 32 36  0  0  1  0  0  0  0  0999 V2000
  187.1550  177.1260  144.9550 O   0  0  0  0  0  0  0  0  0  0  0  0
  184.7580  179.4250  142.5180 C   0  0  2  0  0  3  0  0  0  0  0  0
  186.9700  178.0530  145.9890 C   0  0  0  0  0  2  0  0  0  0  0  0
  185.0070  179.8100  143.9800 C   0  0  0  0  0  2  0  0  0  0  0  0
  183.4450  178.6600  142.2850 C   0  0  2  0  0  3  0  0  0  0  0  0
  186.3710  178.3860  138.0440 C   0  0  0  0  0  2  0  0  0  0  0  0
  185.9220  178.6520  141.8670 C   0  0  1  0  0  3  0  0  0  0  0  0
  183.8980  178.2080  138.5010 C   0  0  0  0  0  2  0  0  0  0  0  0
  184.2730  178.7970  139.8680 C   0  0  1  0  0  3  0  0  0  0  0  0
  184.2860  178.8290  144.8920 C   0  0  2  0  0  3  0  0  0  0  0  0
  183.0520  178.7470  140.8060 C   0  0  0  0  0  2  0  0  0  0  0  0
  182.7730  179.0030  144.7400 C   0  0  0  0  0  2  0  0  0  0  0  0
  184.7170  179.0050  146.2690 N   0  0  0  0  0  2  0  0  0  0  0  0
  186.3680  177.4580  142.7130 C   0  0  0  0  0  2  0  0  0  0  0  0
  187.3470  177.8920  143.7990 C   0  0  2  0  0  3  0  0  0  0  0  0
  185.5440  178.1380  140.4630 C   0  0  1  0  0  3  0  0  0  0  0  0
  182.3310  179.0890  143.2610 C   0  0  2  0  0  3  0  0  0  0  0  0
  185.5840  177.8800  146.6040 C   0  0  0  0  0  2  0  0  0  0  0  0
  185.0900  177.6170  137.7410 C   0  0  0  0  0  2  0  0  0  0  0  0
  186.7530  178.2610  139.5240 C   0  0  0  0  0  2  0  0  0  0  0  0
  191.1370  178.1220  143.6630 C   0  0  0  0  0  0  0  0  0  0  0  0
  192.1650  178.5190  144.4530 F   0  0  0  0  0  0  0  0  0  0  0  0
  188.7590  177.7850  143.3080 C   0  0  0  0  0  0  0  0  0  0  0  0
  191.3980  177.6460  142.3740 C   0  0  0  0  0  3  0  0  0  0  0  0
  189.0280  177.3140  142.0150 C   0  0  0  0  0  3  0  0  0  0  0  0
  189.8200  178.1930  144.1320 C   0  0  0  0  0  0  0  0  0  0  0  0
  189.5760  178.6650  145.3810 F   0  0  0  0  0  0  0  0  0  0  0  0
  190.3450  177.2350  141.5530 C   0  0  0  0  0  0  0  0  0  0  0  0
  190.0790  177.6480  139.2470 O   0  0  0  0  0  1  0  0  0  0  0  0
  190.6210  176.7550  140.1720 C   0  0  0  0  0  2  0  0  0  0  0  0
  181.0480  178.2890  143.0540 C   0  0  0  0  0  2  0  0  0  0  0  0
  180.1220  178.5690  144.0600 O   0  0  0  0  0  1  0  0  0  0  0  0
  1  3  1  0  0  0  0
  2  4  1  1  0  0  0
  3 18  1  0  0  0  0
  5 11  1  6  0  0  0
  5  2  1  0  0  0  0
  5 17  1  0  0  0  0
  6 20  1  0  0  0  0
  7  2  1  0  0  0  0
  7 14  1  1  0  0  0
  9  8  1  6  0  0  0
  9 16  1  0  0  0  0
  9 11  1  0  0  0  0
 10  4  1  6  0  0  0
 10 13  1  0  0  0  0
 12 10  1  0  0  0  0
 13 18  1  0  0  0  0
 14 15  1  0  0  0  0
 15 23  1  6  0  0  0
 15  1  1  0  0  0  0
 16 20  1  6  0  0  0
 16  7  1  0  0  0  0
 17 31  1  1  0  0  0
 17 12  1  0  0  0  0
 19  6  1  0  0  0  0
 19  8  1  0  0  0  0
 21 26  1  0  0  0  0
 21 22  1  0  0  0  0
 23 26  2  0  0  0  0
 24 21  2  0  0  0  0
 25 23  1  0  0  0  0
 26 27  1  0  0  0  0
 28 25  2  0  0  0  0
 28 24  1  0  0  0  0
 29 30  1  0  0  0  0
 30 28  1  0  0  0  0
 31 32  1  0  0  0  0
M  END
>  <MODEL>
9

>  <REMARK>
 VINA RESULT:      -9.2      2.910      6.316
  Name = 
  3 active torsions:
  status: ('A' for Active; 'I' for Inactive)
    1  A    between atoms: C_13  and  C_29
    2  A    between atoms: C_15  and  C_26
    3  A    between atoms: C_16  and  C_27
                            x       y       z     vdW  Elec       q    Type
                         _______ _______ _______ _____ _____    ______ ____

>  <TORSDO>
F 3

$$$$
