=
 OpenBabel11052416343D

 43 49  0  0  1  0  0  0  0  0999 V2000
  191.1100  176.6810  146.8240 C   0  0  0  0  0  0  0  0  0  0  0  0
  189.0800  177.8810  142.3660 C   0  0  0  0  0  0  0  0  0  0  0  0
  186.3020  178.1400  142.7420 C   0  0  0  0  0  0  0  0  0  0  0  0
  190.7550  177.2230  144.4910 C   0  0  0  0  0  0  0  0  0  0  0  0
  189.7360  176.7880  147.0610 C   0  0  0  0  0  3  0  0  0  0  0  0
  192.0300  176.3380  147.9380 C   0  0  0  0  0  1  0  0  0  0  0  0
  189.3640  177.3350  144.7200 C   0  0  0  0  0  0  0  0  0  0  0  0
  191.6180  176.8980  145.5400 C   0  0  0  0  0  3  0  0  0  0  0  0
  188.8670  177.1140  146.0160 C   0  0  0  0  0  3  0  0  0  0  0  0
  187.1300  177.8000  143.8190 C   0  0  0  0  0  3  0  0  0  0  0  0
  188.5150  177.6680  143.6480 C   0  0  0  0  0  0  0  0  0  0  0  0
  190.4250  177.7600  142.1900 N   0  0  0  0  0  0  0  0  0  0  0  0
  188.2470  178.2180  141.2830 C   0  0  0  0  0  0  0  0  0  0  0  0
  186.8690  178.3490  141.4800 C   0  0  0  0  0  3  0  0  0  0  0  0
  191.2610  177.4400  143.2110 C   0  0  0  0  0  3  0  0  0  0  0  0
  184.8490  178.2940  142.9270 C   0  0  0  0  0  0  0  0  0  0  0  0
  184.0760  178.4610  141.8940 N   0  0  0  0  0  0  0  0  0  0  0  0
  184.3330  178.2540  144.1840 F   0  0  0  0  0  0  0  0  0  0  0  0
  182.6500  178.6050  141.9350 C   0  0  0  0  0  0  0  0  0  0  0  0
  182.0730  179.1330  142.9230 O   0  0  0  0  0  0  0  0  0  0  0  0
  181.8310  178.0970  140.7990 C   0  0  0  0  0  2  0  0  0  0  0  0
  182.0710  178.9300  139.5480 C   0  0  2  0  0  3  0  0  0  0  0  0
  181.2530  179.1580  136.9550 S   0  0  0  0  0  0  0  0  0  0  0  0
  181.0960  180.0830  139.4830 C   0  0  0  0  0  2  0  0  0  0  0  0
  181.8380  178.0850  138.3090 C   0  0  1  0  0  3  0  0  0  0  0  0
  181.1270  180.5940  138.0620 C   0  0  0  0  0  2  0  0  0  0  0  0
  183.0100  176.0690  137.2940 N   0  0  0  0  0  0  0  0  0  0  0  0
  183.0880  177.3580  137.9150 C   0  0  0  0  0  0  0  0  0  0  0  0
  184.2900  174.0360  137.7320 C   0  0  0  0  0  2  0  0  0  0  0  0
  182.1430  174.0440  136.4470 C   0  0  0  0  0  3  0  0  0  0  0  0
  183.6690  174.0000  136.3470 C   0  0  1  0  0  3  0  0  0  0  0  0
  181.7580  175.4150  136.9740 C   0  0  0  0  0  3  0  0  0  0  0  0
  184.1880  175.3110  136.9140 C   0  0  1  0  0  3  0  0  0  0  0  0
  184.2130  177.8750  138.1550 O   0  0  0  0  0  0  0  0  0  0  0  0
  188.8120  178.4730  139.9220 C   0  0  0  0  0  2  0  0  0  0  0  0
  187.3640  177.0630  136.7890 C   0  0  0  0  0  2  0  0  0  0  0  0
  187.9040  175.6530  137.0440 C   0  0  2  0  0  3  0  0  0  0  0  0
  189.5750  176.6310  138.6910 C   0  0  0  0  0  2  0  0  0  0  0  0
  187.9350  178.0910  137.7740 C   0  0  0  0  0  2  0  0  0  0  0  0
  188.3860  177.4330  138.9990 N   0  0  0  0  0  0  0  0  0  0  0  0
  189.3690  175.7000  137.4830 C   0  0  0  0  0  2  0  0  0  0  0  0
  187.4490  173.4900  136.1410 O   0  0  0  0  0  1  0  0  0  0  0  0
  187.7450  174.8090  135.7920 C   0  0  0  0  0  2  0  0  0  0  0  0
  1  5  1  0  0  0  0
  1  6  1  0  0  0  0
  2 11  1  0  0  0  0
  3 16  1  0  0  0  0
  3 10  1  0  0  0  0
  4  7  2  0  0  0  0
  4  8  1  0  0  0  0
  7  9  1  0  0  0  0
  8  1  2  0  0  0  0
  9  5  2  0  0  0  0
 11 10  2  0  0  0  0
 11  7  1  0  0  0  0
 12  2  1  0  0  0  0
 12 15  2  0  0  0  0
 13 14  1  0  0  0  0
 13  2  2  0  0  0  0
 14  3  2  0  0  0  0
 15  4  1  0  0  0  0
 16 18  1  0  0  0  0
 17 19  1  0  0  0  0
 17 16  2  0  0  0  0
 19 20  2  0  0  0  0
 21 19  1  0  0  0  0
 22 21  1  1  0  0  0
 23 26  1  0  0  0  0
 23 25  1  0  0  0  0
 24 22  1  0  0  0  0
 25 28  1  6  0  0  0
 25 22  1  0  0  0  0
 26 24  1  0  0  0  0
 27 28  1  0  0  0  0
 28 34  2  0  0  0  0
 30 32  2  0  0  0  0
 31 30  1  1  0  0  0
 31 33  1  0  0  0  0
 31 29  1  0  0  0  0
 32 27  1  0  0  0  0
 33 27  1  0  0  0  0
 33 29  1  1  0  0  0
 35 13  1  0  0  0  0
 36 37  1  0  0  0  0
 36 39  1  0  0  0  0
 37 43  1  6  0  0  0
 37 41  1  0  0  0  0
 38 40  1  0  0  0  0
 39 40  1  0  0  0  0
 40 35  1  0  0  0  0
 41 38  1  0  0  0  0
 43 42  1  0  0  0  0
M  END
>  <MODEL>
1

>  <REMARK>
 VINA RESULT:      -9.5      0.000      0.000
  Name = 
  8 active torsions:
  status: ('A' for Active; 'I' for Inactive)
    1  A    between atoms: C_1  and  C_34
    2  A    between atoms: C_1  and  N_35
    3  A    between atoms: C_2  and  C_13
    4  A    between atoms: C_3  and  C_4
    5  A    between atoms: C_3  and  C_12
    6  A    between atoms: N_6  and  C_12
    7  A    between atoms: C_14  and  C_22
    8  A    between atoms: C_19  and  C_37
                            x       y       z     vdW  Elec       q    Type
                         _______ _______ _______ _____ _____    ______ ____

>  <TORSDO>
F 8

$$$$
=
 OpenBabel11052416343D

 43 49  0  0  1  0  0  0  0  0999 V2000
  187.3180  178.0240  147.4760 C   0  0  0  0  0  0  0  0  0  0  0  0
  184.1370  178.6930  143.6190 C   0  0  0  0  0  0  0  0  0  0  0  0
  185.6330  178.4980  141.2440 C   0  0  0  0  0  0  0  0  0  0  0  0
  185.3580  178.4070  146.1060 C   0  0  0  0  0  0  0  0  0  0  0  0
  188.1070  177.9280  146.3260 C   0  0  0  0  0  3  0  0  0  0  0  0
  187.9380  177.8690  148.8170 C   0  0  0  0  0  1  0  0  0  0  0  0
  186.1470  178.3100  144.9370 C   0  0  0  0  0  0  0  0  0  0  0  0
  185.9450  178.2630  147.3660 C   0  0  0  0  0  3  0  0  0  0  0  0
  187.5260  178.0700  145.0630 C   0  0  0  0  0  3  0  0  0  0  0  0
  186.2640  178.3600  142.4870 C   0  0  0  0  0  3  0  0  0  0  0  0
  185.5320  178.4540  143.6780 C   0  0  0  0  0  0  0  0  0  0  0  0
  183.4160  178.7810  144.7720 N   0  0  0  0  0  0  0  0  0  0  0  0
  183.5050  178.8350  142.3710 C   0  0  0  0  0  0  0  0  0  0  0  0
  184.2550  178.7320  141.1960 C   0  0  0  0  0  3  0  0  0  0  0  0
  183.9890  178.6440  145.9950 C   0  0  0  0  0  3  0  0  0  0  0  0
  186.4010  178.3820  139.9920 C   0  0  0  0  0  0  0  0  0  0  0  0
  187.6950  178.5080  140.0080 N   0  0  0  0  0  0  0  0  0  0  0  0
  185.7390  178.1370  138.8290 F   0  0  0  0  0  0  0  0  0  0  0  0
  188.5570  178.4010  138.8680 C   0  0  0  0  0  0  0  0  0  0  0  0
  188.9530  179.4230  138.2460 O   0  0  0  0  0  0  0  0  0  0  0  0
  188.9740  177.0520  138.3900 C   0  0  0  0  0  2  0  0  0  0  0  0
  190.4260  177.0670  137.9380 C   0  0  2  0  0  3  0  0  0  0  0  0
  192.6780  175.5240  137.9620 S   0  0  0  0  0  0  0  0  0  0  0  0
  190.5610  176.4440  136.5670 C   0  0  0  0  0  2  0  0  0  0  0  0
  191.2740  176.2350  138.8840 C   0  0  1  0  0  3  0  0  0  0  0  0
  192.0270  176.1320  136.3780 C   0  0  0  0  0  2  0  0  0  0  0  0
  191.1270  176.9480  141.3210 N   0  0  0  0  0  0  0  0  0  0  0  0
  191.7540  177.0630  140.0380 C   0  0  0  0  0  0  0  0  0  0  0  0
  190.4250  178.6870  142.8860 C   0  0  0  0  0  2  0  0  0  0  0  0
  189.6180  176.3220  143.0240 C   0  0  0  0  0  3  0  0  0  0  0  0
  190.5940  177.3540  143.5930 C   0  0  1  0  0  3  0  0  0  0  0  0
  190.0470  176.0240  141.5990 C   0  0  0  0  0  3  0  0  0  0  0  0
  191.5360  177.7420  142.4660 C   0  0  1  0  0  3  0  0  0  0  0  0
  192.6990  177.8810  139.8690 O   0  0  0  0  0  0  0  0  0  0  0  0
  182.0300  179.0630  142.2710 C   0  0  0  0  0  2  0  0  0  0  0  0
  180.2310  177.1250  139.6430 C   0  0  0  0  0  2  0  0  0  0  0  0
  180.3180  178.2450  138.6020 C   0  0  2  0  0  3  0  0  0  0  0  0
  180.7770  179.9000  140.4760 C   0  0  0  0  0  2  0  0  0  0  0  0
  180.6780  177.5890  141.0340 C   0  0  0  0  0  2  0  0  0  0  0  0
  181.5630  178.7480  140.9300 N   0  0  0  0  0  0  0  0  0  0  0  0
  179.9440  179.5950  139.2180 C   0  0  0  0  0  2  0  0  0  0  0  0
  180.1750  177.7960  136.2610 O   0  0  0  0  0  1  0  0  0  0  0  0
  179.4150  177.9230  137.4250 C   0  0  0  0  0  2  0  0  0  0  0  0
  1  6  1  0  0  0  0
  2 11  1  0  0  0  0
  2 12  1  0  0  0  0
  3 10  1  0  0  0  0
  4  8  2  0  0  0  0
  5  1  2  0  0  0  0
  7  9  2  0  0  0  0
  7  4  1  0  0  0  0
  8  1  1  0  0  0  0
  9  5  1  0  0  0  0
 10 11  2  0  0  0  0
 11  7  1  0  0  0  0
 12 15  2  0  0  0  0
 13  2  2  0  0  0  0
 14  3  2  0  0  0  0
 14 13  1  0  0  0  0
 15  4  1  0  0  0  0
 16 17  2  0  0  0  0
 16  3  1  0  0  0  0
 18 16  1  0  0  0  0
 19 17  1  0  0  0  0
 20 19  2  0  0  0  0
 21 19  1  0  0  0  0
 22 21  1  1  0  0  0
 22 25  1  0  0  0  0
 23 25  1  0  0  0  0
 24 22  1  0  0  0  0
 25 28  1  1  0  0  0
 26 24  1  0  0  0  0
 26 23  1  0  0  0  0
 27 32  1  0  0  0  0
 27 33  1  0  0  0  0
 28 27  1  0  0  0  0
 30 31  1  0  0  0  0
 31 29  1  6  0  0  0
 32 30  2  0  0  0  0
 33 29  1  6  0  0  0
 33 31  1  0  0  0  0
 34 28  2  0  0  0  0
 35 13  1  0  0  0  0
 36 39  1  0  0  0  0
 37 43  1  6  0  0  0
 37 41  1  0  0  0  0
 37 36  1  0  0  0  0
 38 40  1  0  0  0  0
 40 39  1  0  0  0  0
 40 35  1  0  0  0  0
 41 38  1  0  0  0  0
 42 43  1  0  0  0  0
M  END
>  <MODEL>
2

>  <REMARK>
 VINA RESULT:      -9.4      3.583      7.594
  Name = 
  8 active torsions:
  status: ('A' for Active; 'I' for Inactive)
    1  A    between atoms: C_1  and  C_34
    2  A    between atoms: C_1  and  N_35
    3  A    between atoms: C_2  and  C_13
    4  A    between atoms: C_3  and  C_4
    5  A    between atoms: C_3  and  C_12
    6  A    between atoms: N_6  and  C_12
    7  A    between atoms: C_14  and  C_22
    8  A    between atoms: C_19  and  C_37
                            x       y       z     vdW  Elec       q    Type
                         _______ _______ _______ _____ _____    ______ ____

>  <TORSDO>
F 8

$$$$
=
 OpenBabel11052416343D

 43 49  0  0  1  0  0  0  0  0999 V2000
  190.9110  176.8450  146.4240 C   0  0  0  0  0  0  0  0  0  0  0  0
  189.9600  177.4410  141.5060 C   0  0  0  0  0  0  0  0  0  0  0  0
  187.3370  178.4320  141.2660 C   0  0  0  0  0  0  0  0  0  0  0  0
  191.0620  176.9070  144.0070 C   0  0  0  0  0  0  0  0  0  0  0  0
  189.6010  177.3270  146.3570 C   0  0  0  0  0  3  0  0  0  0  0  0
  191.5300  176.5570  147.7430 C   0  0  0  0  0  1  0  0  0  0  0  0
  189.7380  177.3960  143.9290 C   0  0  0  0  0  0  0  0  0  0  0  0
  191.6410  176.6350  145.2500 C   0  0  0  0  0  3  0  0  0  0  0  0
  189.0170  177.6020  145.1180 C   0  0  0  0  0  3  0  0  0  0  0  0
  187.8730  178.1610  142.5310 C   0  0  0  0  0  3  0  0  0  0  0  0
  189.1780  177.6680  142.6660 C   0  0  0  0  0  0  0  0  0  0  0  0
  191.2310  176.9660  141.6280 N   0  0  0  0  0  0  0  0  0  0  0  0
  189.4180  177.7100  140.2370 C   0  0  0  0  0  0  0  0  0  0  0  0
  188.1160  178.2070  140.1260 C   0  0  0  0  0  3  0  0  0  0  0  0
  191.7890  176.6990  142.8370 C   0  0  0  0  0  3  0  0  0  0  0  0
  185.9710  178.9670  141.1240 C   0  0  0  0  0  0  0  0  0  0  0  0
  185.3750  178.9300  139.9690 N   0  0  0  0  0  0  0  0  0  0  0  0
  185.3470  179.4870  142.2150 F   0  0  0  0  0  0  0  0  0  0  0  0
  184.0460  179.3980  139.7030 C   0  0  0  0  0  0  0  0  0  0  0  0
  183.8420  180.4490  139.0380 O   0  0  0  0  0  0  0  0  0  0  0  0
  182.8820  178.6420  140.2440 C   0  0  0  0  0  2  0  0  0  0  0  0
  181.6380  178.8970  139.4050 C   0  0  2  0  0  3  0  0  0  0  0  0
  179.5440  177.5820  138.2500 S   0  0  0  0  0  0  0  0  0  0  0  0
  180.4320  179.1000  140.2940 C   0  0  0  0  0  2  0  0  0  0  0  0
  181.3430  177.6910  138.5330 C   0  0  1  0  0  3  0  0  0  0  0  0
  179.2160  178.9390  139.4130 C   0  0  0  0  0  2  0  0  0  0  0  0
  183.1650  176.8770  136.9550 N   0  0  0  0  0  0  0  0  0  0  0  0
  182.0850  177.7770  137.2330 C   0  0  0  0  0  0  0  0  0  0  0  0
  185.3730  177.3190  136.0090 C   0  0  0  0  0  2  0  0  0  0  0  0
  184.8100  175.2080  137.2280 C   0  0  0  0  0  3  0  0  0  0  0  0
  184.9970  175.8560  135.8550 C   0  0  1  0  0  3  0  0  0  0  0  0
  183.5770  175.8250  137.8620 C   0  0  0  0  0  3  0  0  0  0  0  0
  183.9330  176.9320  135.7250 C   0  0  1  0  0  3  0  0  0  0  0  0
  181.7710  178.6640  136.3920 O   0  0  0  0  0  0  0  0  0  0  0  0
  190.2230  177.5050  138.9930 C   0  0  0  0  0  2  0  0  0  0  0  0
  188.7310  175.2500  136.4240 C   0  0  0  0  0  2  0  0  0  0  0  0
  189.4860  174.0120  136.9160 C   0  0  2  0  0  3  0  0  0  0  0  0
  191.1330  175.5340  138.1110 C   0  0  0  0  0  2  0  0  0  0  0  0
  189.2320  176.5370  137.0920 C   0  0  0  0  0  2  0  0  0  0  0  0
  189.8730  176.2370  138.3710 N   0  0  0  0  0  0  0  0  0  0  0  0
  190.9610  174.3310  137.1650 C   0  0  0  0  0  2  0  0  0  0  0  0
  190.5690  172.6500  135.2810 O   0  0  0  0  0  1  0  0  0  0  0  0
  189.3430  172.8890  135.9040 C   0  0  0  0  0  2  0  0  0  0  0  0
  1  6  1  0  0  0  0
  2 12  1  0  0  0  0
  2 11  1  0  0  0  0
  3 10  1  0  0  0  0
  4  8  1  0  0  0  0
  5  1  1  0  0  0  0
  7  4  2  0  0  0  0
  7  9  1  0  0  0  0
  8  1  2  0  0  0  0
  9  5  2  0  0  0  0
 10 11  2  0  0  0  0
 11  7  1  0  0  0  0
 12 15  2  0  0  0  0
 13  2  2  0  0  0  0
 14 13  1  0  0  0  0
 14  3  2  0  0  0  0
 15  4  1  0  0  0  0
 16  3  1  0  0  0  0
 16 18  1  0  0  0  0
 17 16  2  0  0  0  0
 19 17  1  0  0  0  0
 19 21  1  0  0  0  0
 20 19  2  0  0  0  0
 22 21  1  1  0  0  0
 22 24  1  0  0  0  0
 23 25  1  0  0  0  0
 23 26  1  0  0  0  0
 25 28  1  6  0  0  0
 25 22  1  0  0  0  0
 26 24  1  0  0  0  0
 27 28  1  0  0  0  0
 27 32  1  0  0  0  0
 30 32  2  0  0  0  0
 31 29  1  1  0  0  0
 31 30  1  0  0  0  0
 33 31  1  0  0  0  0
 33 29  1  1  0  0  0
 33 27  1  0  0  0  0
 34 28  2  0  0  0  0
 35 13  1  0  0  0  0
 36 37  1  0  0  0  0
 36 39  1  0  0  0  0
 37 43  1  6  0  0  0
 37 41  1  0  0  0  0
 38 40  1  0  0  0  0
 39 40  1  0  0  0  0
 40 35  1  0  0  0  0
 41 38  1  0  0  0  0
 42 43  1  0  0  0  0
M  END
>  <MODEL>
3

>  <REMARK>
 VINA RESULT:      -9.1      1.710      2.070
  Name = 
  8 active torsions:
  status: ('A' for Active; 'I' for Inactive)
    1  A    between atoms: C_1  and  C_34
    2  A    between atoms: C_1  and  N_35
    3  A    between atoms: C_2  and  C_13
    4  A    between atoms: C_3  and  C_4
    5  A    between atoms: C_3  and  C_12
    6  A    between atoms: N_6  and  C_12
    7  A    between atoms: C_14  and  C_22
    8  A    between atoms: C_19  and  C_37
                            x       y       z     vdW  Elec       q    Type
                         _______ _______ _______ _____ _____    ______ ____

>  <TORSDO>
F 8

$$$$
=
 OpenBabel11052416343D

 43 49  0  0  1  0  0  0  0  0999 V2000
  188.6200  177.4960  146.9110 C   0  0  0  0  0  0  0  0  0  0  0  0
  190.2400  177.4150  142.1360 C   0  0  0  0  0  0  0  0  0  0  0  0
  188.0420  178.0200  140.4850 C   0  0  0  0  0  0  0  0  0  0  0  0
  189.9630  177.3100  144.9050 C   0  0  0  0  0  0  0  0  0  0  0  0
  187.4950  177.7920  146.1350 C   0  0  0  0  0  3  0  0  0  0  0  0
  188.5060  177.4400  148.3920 C   0  0  0  0  0  1  0  0  0  0  0  0
  188.8320  177.6100  144.1110 C   0  0  0  0  0  0  0  0  0  0  0  0
  189.8520  177.2560  146.2970 C   0  0  0  0  0  3  0  0  0  0  0  0
  187.5990  177.8490  144.7430 C   0  0  0  0  0  3  0  0  0  0  0  0
  187.8840  177.9620  141.8760 C   0  0  0  0  0  3  0  0  0  0  0  0
  188.9690  177.6640  142.7110 C   0  0  0  0  0  0  0  0  0  0  0  0
  191.3020  177.1280  142.9390 N   0  0  0  0  0  0  0  0  0  0  0  0
  190.3970  177.4680  140.7390 C   0  0  0  0  0  0  0  0  0  0  0  0
  189.3010  177.7740  139.9270 C   0  0  0  0  0  3  0  0  0  0  0  0
  191.1910  177.0720  144.2910 C   0  0  0  0  0  3  0  0  0  0  0  0
  186.9040  178.3510  139.6100 C   0  0  0  0  0  0  0  0  0  0  0  0
  185.7980  178.8020  140.1240 N   0  0  0  0  0  0  0  0  0  0  0  0
  187.0320  178.1830  138.2660 F   0  0  0  0  0  0  0  0  0  0  0  0
  184.6290  179.1770  139.3840 C   0  0  0  0  0  0  0  0  0  0  0  0
  184.5540  180.2880  138.7940 O   0  0  0  0  0  0  0  0  0  0  0  0
  183.4670  178.2460  139.3310 C   0  0  0  0  0  2  0  0  0  0  0  0
  182.8710  178.2080  137.9320 C   0  0  2  0  0  3  0  0  0  0  0  0
  181.4970  176.5570  136.2480 S   0  0  0  0  0  0  0  0  0  0  0  0
  181.4210  178.6380  137.9620 C   0  0  0  0  0  2  0  0  0  0  0  0
  182.8980  176.7900  137.3930 C   0  0  1  0  0  3  0  0  0  0  0  0
  180.8130  178.1920  136.6530 C   0  0  0  0  0  2  0  0  0  0  0  0
  184.8290  175.2230  136.8600 N   0  0  0  0  0  0  0  0  0  0  0  0
  184.2010  176.5030  136.7120 C   0  0  0  0  0  0  0  0  0  0  0  0
  187.1660  174.6640  137.3000 C   0  0  0  0  0  2  0  0  0  0  0  0
  185.2930  173.0340  137.6090 C   0  0  0  0  0  3  0  0  0  0  0  0
  186.4290  173.4850  136.6890 C   0  0  1  0  0  3  0  0  0  0  0  0
  184.2490  174.1360  137.6220 C   0  0  0  0  0  3  0  0  0  0  0  0
  186.1020  174.9000  136.2420 C   0  0  1  0  0  3  0  0  0  0  0  0
  184.7570  177.4020  136.0230 O   0  0  0  0  0  0  0  0  0  0  0  0
  191.7290  177.2350  140.1000 C   0  0  0  0  0  2  0  0  0  0  0  0
  192.7960  176.2210  136.6740 C   0  0  0  0  0  2  0  0  0  0  0  0
  191.4060  175.7230  136.2700 C   0  0  2  0  0  3  0  0  0  0  0  0
  190.7790  175.5890  138.7290 C   0  0  0  0  0  2  0  0  0  0  0  0
  192.8840  176.5470  138.1700 C   0  0  0  0  0  2  0  0  0  0  0  0
  191.5570  176.8320  138.7130 N   0  0  0  0  0  0  0  0  0  0  0  0
  190.7910  174.8600  137.3730 C   0  0  0  0  0  2  0  0  0  0  0  0
  190.3500  174.1700  134.7940 O   0  0  0  0  0  1  0  0  0  0  0  0
  191.4970  174.9460  134.9680 C   0  0  0  0  0  2  0  0  0  0  0  0
  1  6  1  0  0  0  0
  2 11  1  0  0  0  0
  2 12  1  0  0  0  0
  3 10  1  0  0  0  0
  4  8  2  0  0  0  0
  5  1  2  0  0  0  0
  7  9  2  0  0  0  0
  7  4  1  0  0  0  0
  8  1  1  0  0  0  0
  9  5  1  0  0  0  0
 10 11  2  0  0  0  0
 11  7  1  0  0  0  0
 12 15  2  0  0  0  0
 13  2  2  0  0  0  0
 14  3  2  0  0  0  0
 14 13  1  0  0  0  0
 15  4  1  0  0  0  0
 16 17  2  0  0  0  0
 16  3  1  0  0  0  0
 18 16  1  0  0  0  0
 19 17  1  0  0  0  0
 20 19  2  0  0  0  0
 21 19  1  0  0  0  0
 22 24  1  0  0  0  0
 22 21  1  1  0  0  0
 23 26  1  0  0  0  0
 23 25  1  0  0  0  0
 25 28  1  6  0  0  0
 25 22  1  0  0  0  0
 26 24  1  0  0  0  0
 27 32  1  0  0  0  0
 28 27  1  0  0  0  0
 30 32  2  0  0  0  0
 31 29  1  1  0  0  0
 31 30  1  0  0  0  0
 33 31  1  0  0  0  0
 33 27  1  0  0  0  0
 33 29  1  1  0  0  0
 34 28  2  0  0  0  0
 35 13  1  0  0  0  0
 36 39  1  0  0  0  0
 37 43  1  6  0  0  0
 37 36  1  0  0  0  0
 37 41  1  0  0  0  0
 39 40  1  0  0  0  0
 40 38  1  0  0  0  0
 40 35  1  0  0  0  0
 41 38  1  0  0  0  0
 42 43  1  0  0  0  0
M  END
>  <MODEL>
4

>  <REMARK>
 VINA RESULT:      -9.0      2.173      2.957
  Name = 
  8 active torsions:
  status: ('A' for Active; 'I' for Inactive)
    1  A    between atoms: C_1  and  C_34
    2  A    between atoms: C_1  and  N_35
    3  A    between atoms: C_2  and  C_13
    4  A    between atoms: C_3  and  C_4
    5  A    between atoms: C_3  and  C_12
    6  A    between atoms: N_6  and  C_12
    7  A    between atoms: C_14  and  C_22
    8  A    between atoms: C_19  and  C_37
                            x       y       z     vdW  Elec       q    Type
                         _______ _______ _______ _____ _____    ______ ____

>  <TORSDO>
F 8

$$$$
=
 OpenBabel11052416343D

 43 49  0  0  1  0  0  0  0  0999 V2000
  190.8820  176.7220  146.6670 C   0  0  0  0  0  0  0  0  0  0  0  0
  186.7790  177.9620  144.0080 C   0  0  0  0  0  0  0  0  0  0  0  0
  187.5560  178.2010  141.3130 C   0  0  0  0  0  0  0  0  0  0  0  0
  188.6310  177.2880  145.9760 C   0  0  0  0  0  0  0  0  0  0  0  0
  191.3200  176.8370  145.3440 C   0  0  0  0  0  3  0  0  0  0  0  0
  191.8440  176.3570  147.7380 C   0  0  0  0  0  1  0  0  0  0  0  0
  189.0640  177.4060  144.6350 C   0  0  0  0  0  0  0  0  0  0  0  0
  189.5390  176.9470  146.9820 C   0  0  0  0  0  3  0  0  0  0  0  0
  190.4180  177.1770  144.3330 C   0  0  0  0  0  3  0  0  0  0  0  0
  188.5020  177.8700  142.2920 C   0  0  0  0  0  3  0  0  0  0  0  0
  188.1290  177.7460  143.6380 C   0  0  0  0  0  0  0  0  0  0  0  0
  186.4060  177.8390  145.3120 N   0  0  0  0  0  0  0  0  0  0  0  0
  185.8310  178.2990  143.0250 C   0  0  0  0  0  0  0  0  0  0  0  0
  186.2250  178.4110  141.6880 C   0  0  0  0  0  3  0  0  0  0  0  0
  187.2920  177.5120  146.2890 C   0  0  0  0  0  3  0  0  0  0  0  0
  187.9450  178.3140  139.8970 C   0  0  0  0  0  0  0  0  0  0  0  0
  187.0440  178.2080  138.9650 N   0  0  0  0  0  0  0  0  0  0  0  0
  189.2500  178.5360  139.5840 F   0  0  0  0  0  0  0  0  0  0  0  0
  187.2860  178.3170  137.5560 C   0  0  0  0  0  0  0  0  0  0  0  0
  187.7310  179.3810  137.0470 O   0  0  0  0  0  0  0  0  0  0  0  0
  186.9840  177.1580  136.6700 C   0  0  0  0  0  2  0  0  0  0  0  0
  187.6720  175.8990  137.1770 C   0  0  2  0  0  3  0  0  0  0  0  0
  188.6000  173.4850  136.3070 S   0  0  0  0  0  0  0  0  0  0  0  0
  189.1720  176.0190  137.0280 C   0  0  0  0  0  2  0  0  0  0  0  0
  187.2430  174.7020  136.3490 C   0  0  1  0  0  3  0  0  0  0  0  0
  189.7310  174.6230  137.1610 C   0  0  0  0  0  2  0  0  0  0  0  0
  184.7160  174.4050  136.3290 N   0  0  0  0  0  0  0  0  0  0  0  0
  185.9910  174.0920  136.9040 C   0  0  0  0  0  0  0  0  0  0  0  0
  182.6010  174.9650  137.4130 C   0  0  0  0  0  2  0  0  0  0  0  0
  183.0540  175.4160  134.9940 C   0  0  0  0  0  3  0  0  0  0  0  0
  182.3730  174.4790  135.9930 C   0  0  1  0  0  3  0  0  0  0  0  0
  184.5530  175.2740  135.1810 C   0  0  0  0  0  3  0  0  0  0  0  0
  183.4720  173.8610  136.8410 C   0  0  1  0  0  3  0  0  0  0  0  0
  186.0620  173.3170  137.8970 O   0  0  0  0  0  0  0  0  0  0  0  0
  184.3930  178.5090  143.3760 C   0  0  0  0  0  2  0  0  0  0  0  0
  182.9690  177.9050  139.9830 C   0  0  0  0  0  2  0  0  0  0  0  0
  181.9530  179.0460  140.0870 C   0  0  2  0  0  3  0  0  0  0  0  0
  182.2380  179.0220  142.6120 C   0  0  0  0  0  2  0  0  0  0  0  0
  183.6670  177.6270  141.3200 C   0  0  0  0  0  2  0  0  0  0  0  0
  183.6220  178.8090  142.1790 N   0  0  0  0  0  0  0  0  0  0  0  0
  181.2400  179.0240  141.4400 C   0  0  0  0  0  2  0  0  0  0  0  0
  181.5440  178.3330  137.8450 O   0  0  0  0  0  1  0  0  0  0  0  0
  180.9510  178.9470  138.9500 C   0  0  0  0  0  2  0  0  0  0  0  0
  1  8  1  0  0  0  0
  1  6  1  0  0  0  0
  2 12  1  0  0  0  0
  3 14  2  0  0  0  0
  3 10  1  0  0  0  0
  4 15  1  0  0  0  0
  4  8  2  0  0  0  0
  5  1  2  0  0  0  0
  7  4  1  0  0  0  0
  9  7  2  0  0  0  0
  9  5  1  0  0  0  0
 10 11  2  0  0  0  0
 11  2  1  0  0  0  0
 11  7  1  0  0  0  0
 12 15  2  0  0  0  0
 13 35  1  0  0  0  0
 13  2  2  0  0  0  0
 14 13  1  0  0  0  0
 16  3  1  0  0  0  0
 17 16  2  0  0  0  0
 18 16  1  0  0  0  0
 19 17  1  0  0  0  0
 20 19  2  0  0  0  0
 21 19  1  0  0  0  0
 22 21  1  6  0  0  0
 23 25  1  0  0  0  0
 23 26  1  0  0  0  0
 24 26  1  0  0  0  0
 24 22  1  0  0  0  0
 25 28  1  1  0  0  0
 25 22  1  0  0  0  0
 27 33  1  0  0  0  0
 27 28  1  0  0  0  0
 28 34  2  0  0  0  0
 30 32  2  0  0  0  0
 31 30  1  6  0  0  0
 31 33  1  0  0  0  0
 31 29  1  0  0  0  0
 32 27  1  0  0  0  0
 33 29  1  1  0  0  0
 36 37  1  0  0  0  0
 36 39  1  0  0  0  0
 37 43  1  6  0  0  0
 37 41  1  0  0  0  0
 39 40  1  0  0  0  0
 40 38  1  0  0  0  0
 40 35  1  0  0  0  0
 41 38  1  0  0  0  0
 42 43  1  0  0  0  0
M  END
>  <MODEL>
5

>  <REMARK>
 VINA RESULT:      -9.0      2.332      5.436
  Name = 
  8 active torsions:
  status: ('A' for Active; 'I' for Inactive)
    1  A    between atoms: C_1  and  C_34
    2  A    between atoms: C_1  and  N_35
    3  A    between atoms: C_2  and  C_13
    4  A    between atoms: C_3  and  C_4
    5  A    between atoms: C_3  and  C_12
    6  A    between atoms: N_6  and  C_12
    7  A    between atoms: C_14  and  C_22
    8  A    between atoms: C_19  and  C_37
                            x       y       z     vdW  Elec       q    Type
                         _______ _______ _______ _____ _____    ______ ____

>  <TORSDO>
F 8

$$$$
=
 OpenBabel11052416343D

 43 49  0  0  1  0  0  0  0  0999 V2000
  191.3260  176.4330  146.9070 C   0  0  0  0  0  0  0  0  0  0  0  0
  187.0480  177.9510  144.7070 C   0  0  0  0  0  0  0  0  0  0  0  0
  187.5480  178.1730  141.9470 C   0  0  0  0  0  0  0  0  0  0  0  0
  189.0540  177.1430  146.4630 C   0  0  0  0  0  0  0  0  0  0  0  0
  191.6280  176.5370  145.5460 C   0  0  0  0  0  3  0  0  0  0  0  0
  192.3720  175.9980  147.8680 C   0  0  0  0  0  1  0  0  0  0  0  0
  189.3480  177.2500  145.0840 C   0  0  0  0  0  0  0  0  0  0  0  0
  190.0410  176.7360  147.3650 C   0  0  0  0  0  3  0  0  0  0  0  0
  190.6450  176.9430  144.6380 C   0  0  0  0  0  3  0  0  0  0  0  0
  188.5700  177.7740  142.8170 C   0  0  0  0  0  3  0  0  0  0  0  0
  188.3360  177.6580  144.1940 C   0  0  0  0  0  0  0  0  0  0  0  0
  186.8090  177.8360  146.0440 N   0  0  0  0  0  0  0  0  0  0  0  0
  186.0240  178.3560  143.8330 C   0  0  0  0  0  0  0  0  0  0  0  0
  186.2800  178.4590  142.4620 C   0  0  0  0  0  3  0  0  0  0  0  0
  187.7720  177.4440  146.9190 C   0  0  0  0  0  3  0  0  0  0  0  0
  187.7900  178.2790  140.4970 C   0  0  0  0  0  0  0  0  0  0  0  0
  189.0080  178.3250  140.0430 N   0  0  0  0  0  0  0  0  0  0  0  0
  186.7280  178.3200  139.6490 F   0  0  0  0  0  0  0  0  0  0  0  0
  189.3790  178.4100  138.6610 C   0  0  0  0  0  0  0  0  0  0  0  0
  188.9620  179.3450  137.9260 O   0  0  0  0  0  0  0  0  0  0  0  0
  190.2540  177.3580  138.0730 C   0  0  0  0  0  2  0  0  0  0  0  0
  189.4930  176.5390  137.0410 C   0  0  2  0  0  3  0  0  0  0  0  0
  188.8890  173.9570  136.3980 S   0  0  0  0  0  0  0  0  0  0  0  0
  188.0800  176.2770  137.5100 C   0  0  0  0  0  2  0  0  0  0  0  0
  190.1550  175.1860  136.8590 C   0  0  1  0  0  3  0  0  0  0  0  0
  187.5440  175.1530  136.6550 C   0  0  0  0  0  2  0  0  0  0  0  0
  192.6090  175.0800  136.1980 N   0  0  0  0  0  0  0  0  0  0  0  0
  191.2370  175.2550  135.8240 C   0  0  0  0  0  0  0  0  0  0  0  0
  194.5890  176.3530  135.5440 C   0  0  0  0  0  2  0  0  0  0  0  0
  194.5500  174.8060  137.5110 C   0  0  0  0  0  3  0  0  0  0  0  0
  194.9700  174.9720  136.0490 C   0  0  1  0  0  3  0  0  0  0  0  0
  193.0330  174.7910  137.5520 C   0  0  0  0  0  3  0  0  0  0  0  0
  193.6970  175.1610  135.2410 C   0  0  1  0  0  3  0  0  0  0  0  0
  190.9360  175.4930  134.6220 O   0  0  0  0  0  0  0  0  0  0  0  0
  184.6470  178.6490  144.3370 C   0  0  0  0  0  2  0  0  0  0  0  0
  183.0370  178.1960  141.0040 C   0  0  0  0  0  2  0  0  0  0  0  0
  181.9270  179.2150  141.2800 C   0  0  2  0  0  3  0  0  0  0  0  0
  182.4010  179.0030  143.7680 C   0  0  0  0  0  2  0  0  0  0  0  0
  183.8570  177.8780  142.2600 C   0  0  0  0  0  2  0  0  0  0  0  0
  183.7630  178.9700  143.2260 N   0  0  0  0  0  0  0  0  0  0  0  0
  181.3230  179.0030  142.6690 C   0  0  0  0  0  2  0  0  0  0  0  0
  180.4200  177.7900  140.0960 O   0  0  0  0  0  1  0  0  0  0  0  0
  180.8580  179.1110  140.2070 C   0  0  0  0  0  2  0  0  0  0  0  0
  1  8  1  0  0  0  0
  1  6  1  0  0  0  0
  2 12  1  0  0  0  0
  3 14  2  0  0  0  0
  3 10  1  0  0  0  0
  4 15  1  0  0  0  0
  4  8  2  0  0  0  0
  5  1  2  0  0  0  0
  7  4  1  0  0  0  0
  9  7  2  0  0  0  0
  9  5  1  0  0  0  0
 10 11  2  0  0  0  0
 11  2  1  0  0  0  0
 11  7  1  0  0  0  0
 12 15  2  0  0  0  0
 13 35  1  0  0  0  0
 13  2  2  0  0  0  0
 14 13  1  0  0  0  0
 16  3  1  0  0  0  0
 17 16  2  0  0  0  0
 18 16  1  0  0  0  0
 19 17  1  0  0  0  0
 20 19  2  0  0  0  0
 21 19  1  0  0  0  0
 22 24  1  0  0  0  0
 22 21  1  1  0  0  0
 23 26  1  0  0  0  0
 23 25  1  0  0  0  0
 25 28  1  6  0  0  0
 25 22  1  0  0  0  0
 26 24  1  0  0  0  0
 27 32  1  0  0  0  0
 28 27  1  0  0  0  0
 30 32  2  0  0  0  0
 31 29  1  1  0  0  0
 31 30  1  0  0  0  0
 33 29  1  1  0  0  0
 33 31  1  0  0  0  0
 33 27  1  0  0  0  0
 34 28  2  0  0  0  0
 36 37  1  0  0  0  0
 36 39  1  0  0  0  0
 37 43  1  6  0  0  0
 37 41  1  0  0  0  0
 39 40  1  0  0  0  0
 40 38  1  0  0  0  0
 40 35  1  0  0  0  0
 41 38  1  0  0  0  0
 42 43  1  0  0  0  0
M  END
>  <MODEL>
6

>  <REMARK>
 VINA RESULT:      -8.9      3.029      7.125
  Name = 
  8 active torsions:
  status: ('A' for Active; 'I' for Inactive)
    1  A    between atoms: C_1  and  C_34
    2  A    between atoms: C_1  and  N_35
    3  A    between atoms: C_2  and  C_13
    4  A    between atoms: C_3  and  C_4
    5  A    between atoms: C_3  and  C_12
    6  A    between atoms: N_6  and  C_12
    7  A    between atoms: C_14  and  C_22
    8  A    between atoms: C_19  and  C_37
                            x       y       z     vdW  Elec       q    Type
                         _______ _______ _______ _____ _____    ______ ____

>  <TORSDO>
F 8

$$$$
=
 OpenBabel11052416343D

 43 49  0  0  1  0  0  0  0  0999 V2000
  187.9820  177.5740  147.0150 C   0  0  0  0  0  0  0  0  0  0  0  0
  188.3000  178.0370  142.0020 C   0  0  0  0  0  0  0  0  0  0  0  0
  185.6990  178.4920  141.0270 C   0  0  0  0  0  0  0  0  0  0  0  0
  188.7660  177.6980  144.7270 C   0  0  0  0  0  0  0  0  0  0  0  0
  186.6700  177.7880  146.5800 C   0  0  0  0  0  3  0  0  0  0  0  0
  188.2640  177.3960  148.4620 C   0  0  0  0  0  1  0  0  0  0  0  0
  187.4440  177.9160  144.2770 C   0  0  0  0  0  0  0  0  0  0  0  0
  189.0280  177.5290  146.0890 C   0  0  0  0  0  3  0  0  0  0  0  0
  186.4010  177.9580  145.2200 C   0  0  0  0  0  3  0  0  0  0  0  0
  185.9160  178.3140  142.4000 C   0  0  0  0  0  3  0  0  0  0  0  0
  187.2050  178.0880  142.9000 C   0  0  0  0  0  0  0  0  0  0  0  0
  189.5580  177.8230  142.4800 N   0  0  0  0  0  0  0  0  0  0  0  0
  188.0810  178.2110  140.6240 C   0  0  0  0  0  0  0  0  0  0  0  0
  186.7870  178.4410  140.1490 C   0  0  0  0  0  3  0  0  0  0  0  0
  189.8090  177.6550  143.8040 C   0  0  0  0  0  3  0  0  0  0  0  0
  184.3460  178.7460  140.5030 C   0  0  0  0  0  0  0  0  0  0  0  0
  183.3520  177.9960  140.8800 N   0  0  0  0  0  0  0  0  0  0  0  0
  184.1550  179.7730  139.6330 F   0  0  0  0  0  0  0  0  0  0  0  0
  181.9890  178.1490  140.4610 C   0  0  0  0  0  0  0  0  0  0  0  0
  181.2120  178.9570  141.0360 O   0  0  0  0  0  0  0  0  0  0  0  0
  181.4720  177.3170  139.3380 C   0  0  0  0  0  2  0  0  0  0  0  0
  181.9030  177.8940  137.9980 C   0  0  2  0  0  3  0  0  0  0  0  0
  181.7210  177.4150  135.3170 S   0  0  0  0  0  0  0  0  0  0  0  0
  180.8340  178.8110  137.4470 C   0  0  0  0  0  2  0  0  0  0  0  0
  182.0890  176.7780  136.9870 C   0  0  1  0  0  3  0  0  0  0  0  0
  181.1470  179.0060  135.9820 C   0  0  0  0  0  2  0  0  0  0  0  0
  183.7290  174.8530  136.7140 N   0  0  0  0  0  0  0  0  0  0  0  0
  183.4790  176.2230  137.0540 C   0  0  0  0  0  0  0  0  0  0  0  0
  185.0950  173.1780  137.8530 C   0  0  0  0  0  2  0  0  0  0  0  0
  183.3740  172.5940  136.1320 C   0  0  0  0  0  3  0  0  0  0  0  0
  184.8670  172.8000  136.3990 C   0  0  1  0  0  3  0  0  0  0  0  0
  182.6970  173.9460  136.2570 C   0  0  0  0  0  3  0  0  0  0  0  0
  185.0510  174.2580  136.7860 C   0  0  1  0  0  3  0  0  0  0  0  0
  184.4290  176.9610  137.4350 O   0  0  0  0  0  0  0  0  0  0  0  0
  189.2170  178.1870  139.6510 C   0  0  0  0  0  2  0  0  0  0  0  0
  188.6810  176.3060  136.4760 C   0  0  0  0  0  2  0  0  0  0  0  0
  189.2770  175.0040  137.0190 C   0  0  2  0  0  3  0  0  0  0  0  0
  190.4160  176.3360  138.8600 C   0  0  0  0  0  2  0  0  0  0  0  0
  188.9060  177.4880  137.4260 C   0  0  0  0  0  2  0  0  0  0  0  0
  189.1190  177.0160  138.7940 N   0  0  0  0  0  0  0  0  0  0  0  0
  190.5880  175.2700  137.7620 C   0  0  0  0  0  2  0  0  0  0  0  0
  190.7030  174.3030  135.2360 O   0  0  0  0  0  1  0  0  0  0  0  0
  189.4950  174.0250  135.8790 C   0  0  0  0  0  2  0  0  0  0  0  0
  1  6  1  0  0  0  0
  2 12  1  0  0  0  0
  2 11  1  0  0  0  0
  3 10  1  0  0  0  0
  4  8  1  0  0  0  0
  5  1  1  0  0  0  0
  7  4  2  0  0  0  0
  7  9  1  0  0  0  0
  8  1  2  0  0  0  0
  9  5  2  0  0  0  0
 10 11  2  0  0  0  0
 11  7  1  0  0  0  0
 12 15  2  0  0  0  0
 13  2  2  0  0  0  0
 14 13  1  0  0  0  0
 14  3  2  0  0  0  0
 15  4  1  0  0  0  0
 16 17  2  0  0  0  0
 16  3  1  0  0  0  0
 18 16  1  0  0  0  0
 19 17  1  0  0  0  0
 19 20  2  0  0  0  0
 21 19  1  0  0  0  0
 22 21  1  1  0  0  0
 23 26  1  0  0  0  0
 23 25  1  0  0  0  0
 24 22  1  0  0  0  0
 25 28  1  6  0  0  0
 25 22  1  0  0  0  0
 26 24  1  0  0  0  0
 27 33  1  0  0  0  0
 27 28  1  0  0  0  0
 28 34  2  0  0  0  0
 30 32  2  0  0  0  0
 31 30  1  1  0  0  0
 31 33  1  0  0  0  0
 31 29  1  0  0  0  0
 32 27  1  0  0  0  0
 33 29  1  1  0  0  0
 35 13  1  0  0  0  0
 36 37  1  0  0  0  0
 36 39  1  0  0  0  0
 37 43  1  6  0  0  0
 37 41  1  0  0  0  0
 39 40  1  0  0  0  0
 40 38  1  0  0  0  0
 40 35  1  0  0  0  0
 41 38  1  0  0  0  0
 42 43  1  0  0  0  0
M  END
>  <MODEL>
7

>  <REMARK>
 VINA RESULT:      -8.8      1.696      2.090
  Name = 
  8 active torsions:
  status: ('A' for Active; 'I' for Inactive)
    1  A    between atoms: C_1  and  C_34
    2  A    between atoms: C_1  and  N_35
    3  A    between atoms: C_2  and  C_13
    4  A    between atoms: C_3  and  C_4
    5  A    between atoms: C_3  and  C_12
    6  A    between atoms: N_6  and  C_12
    7  A    between atoms: C_14  and  C_22
    8  A    between atoms: C_19  and  C_37
                            x       y       z     vdW  Elec       q    Type
                         _______ _______ _______ _____ _____    ______ ____

>  <TORSDO>
F 8

$$$$
=
 OpenBabel11052416343D

 43 49  0  0  1  0  0  0  0  0999 V2000
  187.5600  177.9990  147.4040 C   0  0  0  0  0  0  0  0  0  0  0  0
  184.3820  178.6340  143.5390 C   0  0  0  0  0  0  0  0  0  0  0  0
  185.8760  178.3890  141.1660 C   0  0  0  0  0  0  0  0  0  0  0  0
  185.6030  178.3770  146.0290 C   0  0  0  0  0  0  0  0  0  0  0  0
  188.3470  177.8780  146.2550 C   0  0  0  0  0  3  0  0  0  0  0  0
  188.1800  177.8600  148.7470 C   0  0  0  0  0  1  0  0  0  0  0  0
  186.3900  178.2560  144.8610 C   0  0  0  0  0  0  0  0  0  0  0  0
  186.1890  178.2480  147.2910 C   0  0  0  0  0  3  0  0  0  0  0  0
  187.7670  178.0050  144.9910 C   0  0  0  0  0  3  0  0  0  0  0  0
  186.5060  178.2660  142.4100 C   0  0  0  0  0  3  0  0  0  0  0  0
  185.7760  178.3850  143.6010 C   0  0  0  0  0  0  0  0  0  0  0  0
  183.6630  178.7460  144.6900 N   0  0  0  0  0  0  0  0  0  0  0  0
  183.7510  178.7620  142.2890 C   0  0  0  0  0  0  0  0  0  0  0  0
  184.5000  178.6350  141.1150 C   0  0  0  0  0  3  0  0  0  0  0  0
  184.2360  178.6250  145.9150 C   0  0  0  0  0  3  0  0  0  0  0  0
  186.6410  178.2480  139.9150 C   0  0  0  0  0  0  0  0  0  0  0  0
  186.0390  178.3630  138.7680 N   0  0  0  0  0  0  0  0  0  0  0  0
  187.9780  178.0040  139.9800 F   0  0  0  0  0  0  0  0  0  0  0  0
  186.6690  178.2650  137.4840 C   0  0  0  0  0  0  0  0  0  0  0  0
  187.3920  179.1950  137.0350 O   0  0  0  0  0  0  0  0  0  0  0  0
  186.4460  177.0510  136.6500 C   0  0  0  0  0  2  0  0  0  0  0  0
  187.2490  175.8750  137.1860 C   0  0  2  0  0  3  0  0  0  0  0  0
  188.4240  173.5520  136.3680 S   0  0  0  0  0  0  0  0  0  0  0  0
  188.7320  176.1420  137.0530 C   0  0  0  0  0  2  0  0  0  0  0  0
  186.9520  174.6290  136.3730 C   0  0  1  0  0  3  0  0  0  0  0  0
  189.4250  174.8100  137.2170 C   0  0  0  0  0  2  0  0  0  0  0  0
  184.4830  174.0250  136.2840 N   0  0  0  0  0  0  0  0  0  0  0  0
  185.7600  173.9050  136.9220 C   0  0  0  0  0  0  0  0  0  0  0  0
  182.2710  174.3890  137.2540 C   0  0  0  0  0  2  0  0  0  0  0  0
  182.7700  174.7440  134.8280 C   0  0  0  0  0  3  0  0  0  0  0  0
  182.1640  173.7920  135.8610 C   0  0  1  0  0  3  0  0  0  0  0  0
  184.2660  174.7960  135.0770 C   0  0  0  0  0  3  0  0  0  0  0  0
  183.2910  173.3660  136.7860 C   0  0  1  0  0  3  0  0  0  0  0  0
  185.8800  173.2060  137.9660 O   0  0  0  0  0  0  0  0  0  0  0  0
  182.2780  179.0020  142.1860 C   0  0  0  0  0  2  0  0  0  0  0  0
  180.1390  176.7990  140.0710 C   0  0  0  0  0  2  0  0  0  0  0  0
  180.4470  177.5580  138.7770 C   0  0  2  0  0  3  0  0  0  0  0  0
  181.2190  179.5410  140.1670 C   0  0  0  0  0  2  0  0  0  0  0  0
  180.6650  177.5300  141.3120 C   0  0  0  0  0  2  0  0  0  0  0  0
  181.7610  178.4280  140.9530 N   0  0  0  0  0  0  0  0  0  0  0  0
  180.3440  179.0690  138.9910 C   0  0  0  0  0  2  0  0  0  0  0  0
  179.0370  175.8160  137.9500 O   0  0  0  0  0  1  0  0  0  0  0  0
  179.5010  177.1050  137.6790 C   0  0  0  0  0  2  0  0  0  0  0  0
  1  6  1  0  0  0  0
  2 11  1  0  0  0  0
  2 12  1  0  0  0  0
  3 10  1  0  0  0  0
  4  8  2  0  0  0  0
  5  1  2  0  0  0  0
  7  9  2  0  0  0  0
  7  4  1  0  0  0  0
  8  1  1  0  0  0  0
  9  5  1  0  0  0  0
 10 11  2  0  0  0  0
 11  7  1  0  0  0  0
 12 15  2  0  0  0  0
 13  2  2  0  0  0  0
 14  3  2  0  0  0  0
 14 13  1  0  0  0  0
 15  4  1  0  0  0  0
 16 18  1  0  0  0  0
 16  3  1  0  0  0  0
 17 16  2  0  0  0  0
 19 17  1  0  0  0  0
 20 19  2  0  0  0  0
 21 19  1  0  0  0  0
 22 21  1  6  0  0  0
 23 25  1  0  0  0  0
 23 26  1  0  0  0  0
 24 22  1  0  0  0  0
 24 26  1  0  0  0  0
 25 28  1  1  0  0  0
 25 22  1  0  0  0  0
 27 33  1  0  0  0  0
 27 28  1  0  0  0  0
 28 34  2  0  0  0  0
 30 32  2  0  0  0  0
 31 30  1  6  0  0  0
 31 33  1  0  0  0  0
 31 29  1  0  0  0  0
 32 27  1  0  0  0  0
 33 29  1  1  0  0  0
 35 13  1  0  0  0  0
 36 39  1  0  0  0  0
 37 43  1  6  0  0  0
 37 41  1  0  0  0  0
 37 36  1  0  0  0  0
 38 40  1  0  0  0  0
 40 39  1  0  0  0  0
 40 35  1  0  0  0  0
 41 38  1  0  0  0  0
 43 42  1  0  0  0  0
M  END
>  <MODEL>
8

>  <REMARK>
 VINA RESULT:      -8.7      2.890      5.968
  Name = 
  8 active torsions:
  status: ('A' for Active; 'I' for Inactive)
    1  A    between atoms: C_1  and  C_34
    2  A    between atoms: C_1  and  N_35
    3  A    between atoms: C_2  and  C_13
    4  A    between atoms: C_3  and  C_4
    5  A    between atoms: C_3  and  C_12
    6  A    between atoms: N_6  and  C_12
    7  A    between atoms: C_14  and  C_22
    8  A    between atoms: C_19  and  C_37
                            x       y       z     vdW  Elec       q    Type
                         _______ _______ _______ _____ _____    ______ ____

>  <TORSDO>
F 8

$$$$
=
 OpenBabel11052416343D

 43 49  0  0  1  0  0  0  0  0999 V2000
  190.6900  176.7910  146.1010 C   0  0  0  0  0  0  0  0  0  0  0  0
  189.6080  177.6380  141.2480 C   0  0  0  0  0  0  0  0  0  0  0  0
  186.9200  178.4640  141.1110 C   0  0  0  0  0  0  0  0  0  0  0  0
  190.7900  177.0190  143.6920 C   0  0  0  0  0  0  0  0  0  0  0  0
  189.3500  177.1880  146.0860 C   0  0  0  0  0  3  0  0  0  0  0  0
  191.3520  176.4620  147.3890 C   0  0  0  0  0  1  0  0  0  0  0  0
  189.4360  177.4230  143.6660 C   0  0  0  0  0  0  0  0  0  0  0  0
  191.4100  176.7070  144.9050 C   0  0  0  0  0  3  0  0  0  0  0  0
  188.7250  177.5020  144.8760 C   0  0  0  0  0  3  0  0  0  0  0  0
  187.4980  178.1480  142.3480 C   0  0  0  0  0  3  0  0  0  0  0  0
  188.8350  177.7360  142.4320 C   0  0  0  0  0  0  0  0  0  0  0  0
  190.9090  177.2430  141.3200 N   0  0  0  0  0  0  0  0  0  0  0  0
  189.0250  177.9510  140.0070 C   0  0  0  0  0  0  0  0  0  0  0  0
  187.6910  178.3650  139.9480 C   0  0  0  0  0  3  0  0  0  0  0  0
  191.5070  176.9370  142.5000 C   0  0  0  0  0  3  0  0  0  0  0  0
  185.5200  178.9130  141.0260 C   0  0  0  0  0  0  0  0  0  0  0  0
  184.9430  179.0240  139.8650 N   0  0  0  0  0  0  0  0  0  0  0  0
  184.8450  179.2000  142.1710 F   0  0  0  0  0  0  0  0  0  0  0  0
  183.5860  179.4310  139.6460 C   0  0  0  0  0  0  0  0  0  0  0  0
  183.3120  180.5270  139.0860 O   0  0  0  0  0  0  0  0  0  0  0  0
  182.4750  178.5550  140.1120 C   0  0  0  0  0  2  0  0  0  0  0  0
  181.5660  179.3040  141.0750 C   0  0  2  0  0  3  0  0  0  0  0  0
  178.9860  179.3530  141.9640 S   0  0  0  0  0  0  0  0  0  0  0  0
  181.5400  178.6170  142.4220 C   0  0  0  0  0  2  0  0  0  0  0  0
  180.1410  179.3030  140.5530 C   0  0  1  0  0  3  0  0  0  0  0  0
  180.3410  179.1630  143.1610 C   0  0  0  0  0  2  0  0  0  0  0  0
  179.8020  180.2490  138.2170 N   0  0  0  0  0  0  0  0  0  0  0  0
  179.9100  180.4610  139.6300 C   0  0  0  0  0  0  0  0  0  0  0  0
  180.8090  181.4840  136.3650 C   0  0  0  0  0  2  0  0  0  0  0  0
  179.8310  179.1950  136.1060 C   0  0  0  0  0  3  0  0  0  0  0  0
  179.5980  180.6930  135.8990 C   0  0  1  0  0  3  0  0  0  0  0  0
  179.8670  178.9400  137.6010 C   0  0  0  0  0  3  0  0  0  0  0  0
  179.6030  181.3360  137.2760 C   0  0  1  0  0  3  0  0  0  0  0  0
  179.8330  181.6290  140.1010 O   0  0  0  0  0  0  0  0  0  0  0  0
  189.8180  177.8820  138.7400 C   0  0  0  0  0  2  0  0  0  0  0  0
  188.8220  176.3320  135.4980 C   0  0  0  0  0  2  0  0  0  0  0  0
  188.6550  174.9310  136.0940 C   0  0  2  0  0  3  0  0  0  0  0  0
  190.0690  175.6470  138.0810 C   0  0  0  0  0  2  0  0  0  0  0  0
  189.4730  177.3080  136.4850 C   0  0  0  0  0  2  0  0  0  0  0  0
  189.2720  176.8580  137.8620 N   0  0  0  0  0  0  0  0  0  0  0  0
  189.8360  174.5760  136.9990 C   0  0  0  0  0  2  0  0  0  0  0  0
  188.6490  172.6210  135.4880 O   0  0  0  0  0  1  0  0  0  0  0  0
  188.5090  173.9130  134.9770 C   0  0  0  0  0  2  0  0  0  0  0  0
  1  6  1  0  0  0  0
  2 12  1  0  0  0  0
  2 11  1  0  0  0  0
  3 10  1  0  0  0  0
  4  8  1  0  0  0  0
  5  1  1  0  0  0  0
  7  4  2  0  0  0  0
  7  9  1  0  0  0  0
  8  1  2  0  0  0  0
  9  5  2  0  0  0  0
 10 11  2  0  0  0  0
 11  7  1  0  0  0  0
 12 15  2  0  0  0  0
 13  2  2  0  0  0  0
 14 13  1  0  0  0  0
 14  3  2  0  0  0  0
 15  4  1  0  0  0  0
 16  3  1  0  0  0  0
 16 18  1  0  0  0  0
 17 16  2  0  0  0  0
 19 17  1  0  0  0  0
 19 21  1  0  0  0  0
 20 19  2  0  0  0  0
 22 21  1  6  0  0  0
 22 24  1  0  0  0  0
 23 26  1  0  0  0  0
 24 26  1  0  0  0  0
 25 28  1  6  0  0  0
 25 22  1  0  0  0  0
 25 23  1  0  0  0  0
 27 28  1  0  0  0  0
 28 34  2  0  0  0  0
 30 32  2  0  0  0  0
 31 30  1  1  0  0  0
 31 29  1  0  0  0  0
 31 33  1  0  0  0  0
 32 27  1  0  0  0  0
 33 29  1  6  0  0  0
 33 27  1  0  0  0  0
 35 13  1  0  0  0  0
 36 37  1  0  0  0  0
 36 39  1  0  0  0  0
 37 43  1  6  0  0  0
 37 41  1  0  0  0  0
 39 40  1  0  0  0  0
 40 38  1  0  0  0  0
 40 35  1  0  0  0  0
 41 38  1  0  0  0  0
 43 42  1  0  0  0  0
M  END
>  <MODEL>
9

>  <REMARK>
 VINA RESULT:      -8.6      2.449      3.393
  Name = 
  8 active torsions:
  status: ('A' for Active; 'I' for Inactive)
    1  A    between atoms: C_1  and  C_34
    2  A    between atoms: C_1  and  N_35
    3  A    between atoms: C_2  and  C_13
    4  A    between atoms: C_3  and  C_4
    5  A    between atoms: C_3  and  C_12
    6  A    between atoms: N_6  and  C_12
    7  A    between atoms: C_14  and  C_22
    8  A    between atoms: C_19  and  C_37
                            x       y       z     vdW  Elec       q    Type
                         _______ _______ _______ _____ _____    ______ ____

>  <TORSDO>
F 8

$$$$
