=
 OpenBabel11052412473D

 25 29  0  0  1  0  0  0  0  0999 V2000
  189.1090  177.7260  143.3790 C   0  0  2  0  0  3  0  0  0  0  0  0
  187.8870  177.8220  144.2490 C   0  0  0  0  0  0  0  0  0  0  0  0
  190.5690  177.5120  145.3370 C   0  0  0  0  0  2  0  0  0  0  0  0
  188.9250  177.1440  141.9930 C   0  0  2  0  0  3  0  0  0  0  0  0
  189.9250  177.4880  139.3150 C   0  0  0  0  0  3  0  0  0  0  0  0
  189.3780  177.5250  146.3100 C   0  0  0  0  0  2  0  0  0  0  0  0
  190.2620  176.7380  141.5580 N   0  0  0  0  0  0  0  0  0  0  0  0
  190.6530  176.7840  140.1820 C   0  0  0  0  0  3  0  0  0  0  0  0
  186.9020  178.0130  146.4510 C   0  0  0  0  0  0  0  0  0  0  0  0
  186.9960  177.9900  147.8370 O   0  0  0  0  0  1  0  0  0  0  0  0
  186.6650  178.0550  143.6980 N   0  0  0  0  0  0  0  0  0  0  0  0
  188.7540  178.2530  139.7840 C   0  0  0  0  0  3  0  0  0  0  0  0
  190.1400  176.8450  144.0460 C   0  0  2  0  0  3  0  0  0  0  0  0
  191.4720  176.5950  142.8410 S   0  0  0  0  0  0  0  0  0  0  0  0
  185.6600  178.2260  145.8530 C   0  0  0  0  0  3  0  0  0  0  0  0
  188.3100  178.1360  141.0390 C   0  0  0  0  0  3  0  0  0  0  0  0
  185.5500  178.2460  144.4560 C   0  0  0  0  0  0  0  0  0  0  0  0
  188.0390  177.8230  145.6560 C   0  0  0  0  0  0  0  0  0  0  0  0
  182.8750  178.6280  141.7970 C   0  0  0  0  0  0  0  0  0  0  0  0
  184.2450  178.4790  143.8020 C   0  0  0  0  0  0  0  0  0  0  0  0
  184.1130  178.4050  142.4060 C   0  0  0  0  0  3  0  0  0  0  0  0
  182.7480  178.5470  140.3190 C   0  0  0  0  0  1  0  0  0  0  0  0
  183.1140  178.7800  144.5770 C   0  0  0  0  0  3  0  0  0  0  0  0
  181.7550  178.9270  142.5780 C   0  0  0  0  0  3  0  0  0  0  0  0
  181.8750  179.0030  143.9680 C   0  0  0  0  0  3  0  0  0  0  0  0
  1 13  1  0  0  0  0
  1  2  1  1  0  0  0
  2 18  1  0  0  0  0
  3  6  1  0  0  0  0
  4 16  1  6  0  0  0
  4  1  1  0  0  0  0
  5 12  1  0  0  0  0
  5  8  2  0  0  0  0
  7  4  1  0  0  0  0
  7 14  1  0  0  0  0
  8  7  1  0  0  0  0
  9 10  1  0  0  0  0
 11  2  2  0  0  0  0
 11 17  1  0  0  0  0
 12 16  2  0  0  0  0
 13  3  1  1  0  0  0
 14 13  1  0  0  0  0
 15  9  1  0  0  0  0
 17 15  2  0  0  0  0
 18  6  1  0  0  0  0
 18  9  2  0  0  0  0
 19 21  2  0  0  0  0
 19 24  1  0  0  0  0
 20 17  1  0  0  0  0
 20 23  2  0  0  0  0
 21 20  1  0  0  0  0
 22 19  1  0  0  0  0
 24 25  2  0  0  0  0
 25 23  1  0  0  0  0
M  END
>  <MODEL>
1

>  <REMARK>
 VINA RESULT:     -10.7      0.000      0.000
  Name = 
  1 active torsions:
  status: ('A' for Active; 'I' for Inactive)
    1  A    between atoms: C_6  and  C_23
                            x       y       z     vdW  Elec       q    Type
                         _______ _______ _______ _____ _____    ______ ____

>  <TORSDO>
F 1

$$$$
=
 OpenBabel11052412473D

 25 29  0  0  1  0  0  0  0  0999 V2000
  188.9060  177.7840  143.3080 C   0  0  2  0  0  3  0  0  0  0  0  0
  187.6300  177.8870  144.0960 C   0  0  0  0  0  0  0  0  0  0  0  0
  190.2410  177.6530  145.3610 C   0  0  0  0  0  2  0  0  0  0  0  0
  188.8190  177.1570  141.9330 C   0  0  2  0  0  3  0  0  0  0  0  0
  189.9840  177.4350  139.3150 C   0  0  0  0  0  3  0  0  0  0  0  0
  188.9890  177.6760  146.2550 C   0  0  0  0  0  2  0  0  0  0  0  0
  190.1880  176.7580  141.5970 N   0  0  0  0  0  0  0  0  0  0  0  0
  190.6650  176.7690  140.2470 C   0  0  0  0  0  3  0  0  0  0  0  0
  186.5030  178.1280  146.2230 C   0  0  0  0  0  0  0  0  0  0  0  0
  186.5090  178.1500  147.6130 O   0  0  0  0  0  1  0  0  0  0  0  0
  186.4420  178.0830  143.4610 N   0  0  0  0  0  0  0  0  0  0  0  0
  188.7750  178.1950  139.6830 C   0  0  0  0  0  3  0  0  0  0  0  0
  189.9050  176.9390  144.0670 C   0  0  2  0  0  3  0  0  0  0  0  0
  191.3140  176.6740  142.9570 S   0  0  0  0  0  0  0  0  0  0  0  0
  185.2990  178.3040  145.5410 C   0  0  0  0  0  3  0  0  0  0  0  0
  188.2530  178.1090  140.9100 C   0  0  0  0  0  3  0  0  0  0  0  0
  185.2790  178.2790  144.1410 C   0  0  0  0  0  0  0  0  0  0  0  0
  187.6920  177.9330  145.5080 C   0  0  0  0  0  0  0  0  0  0  0  0
  181.6100  178.8370  143.3650 C   0  0  0  0  0  0  0  0  0  0  0  0
  184.0150  178.4720  143.3980 C   0  0  0  0  0  0  0  0  0  0  0  0
  182.7990  178.6550  144.0760 C   0  0  0  0  0  3  0  0  0  0  0  0
  180.3300  179.0300  144.0940 C   0  0  0  0  0  1  0  0  0  0  0  0
  184.0180  178.4740  141.9940 C   0  0  0  0  0  3  0  0  0  0  0  0
  181.6240  178.8370  141.9680 C   0  0  0  0  0  3  0  0  0  0  0  0
  182.8280  178.6550  141.2830 C   0  0  0  0  0  3  0  0  0  0  0  0
  1 13  1  0  0  0  0
  1  2  1  1  0  0  0
  2 18  1  0  0  0  0
  3  6  1  0  0  0  0
  4 16  1  6  0  0  0
  4  1  1  0  0  0  0
  5 12  1  0  0  0  0
  5  8  2  0  0  0  0
  7  4  1  0  0  0  0
  7 14  1  0  0  0  0
  8  7  1  0  0  0  0
  9 10  1  0  0  0  0
 11  2  2  0  0  0  0
 11 17  1  0  0  0  0
 12 16  2  0  0  0  0
 13  3  1  1  0  0  0
 14 13  1  0  0  0  0
 15  9  1  0  0  0  0
 17 15  2  0  0  0  0
 18  9  2  0  0  0  0
 18  6  1  0  0  0  0
 19 21  1  0  0  0  0
 19 22  1  0  0  0  0
 20 21  2  0  0  0  0
 20 17  1  0  0  0  0
 23 20  1  0  0  0  0
 24 19  2  0  0  0  0
 25 24  1  0  0  0  0
 25 23  2  0  0  0  0
M  END
>  <MODEL>
2

>  <REMARK>
 VINA RESULT:     -10.5      0.495      1.375
  Name = 
  1 active torsions:
  status: ('A' for Active; 'I' for Inactive)
    1  A    between atoms: C_6  and  C_23
                            x       y       z     vdW  Elec       q    Type
                         _______ _______ _______ _____ _____    ______ ____

>  <TORSDO>
F 1

$$$$
=
 OpenBabel11052412473D

 25 29  0  0  1  0  0  0  0  0999 V2000
  186.8290  177.7230  144.7320 C   0  0  2  0  0  3  0  0  0  0  0  0
  188.1820  177.5420  144.1020 C   0  0  0  0  0  0  0  0  0  0  0  0
  187.7220  177.2080  146.9570 C   0  0  0  0  0  2  0  0  0  0  0  0
  185.8740  178.6810  144.0520 C   0  0  2  0  0  3  0  0  0  0  0  0
  183.0600  178.9660  143.5140 C   0  0  0  0  0  3  0  0  0  0  0  0
  189.1580  177.0750  146.4220 C   0  0  0  0  0  2  0  0  0  0  0  0
  184.8750  179.0240  145.0670 N   0  0  0  0  0  0  0  0  0  0  0  0
  183.5160  179.3090  144.7190 C   0  0  0  0  0  3  0  0  0  0  0  0
  190.5000  176.8770  144.2900 C   0  0  0  0  0  0  0  0  0  0  0  0
  191.6070  176.5060  145.0440 O   0  0  0  0  0  1  0  0  0  0  0  0
  188.3290  177.6230  142.7510 N   0  0  0  0  0  0  0  0  0  0  0  0
  183.9370  178.2530  142.5680 C   0  0  0  0  0  3  0  0  0  0  0  0
  186.9890  178.2530  146.1380 C   0  0  2  0  0  3  0  0  0  0  0  0
  185.3270  178.6580  146.7370 S   0  0  0  0  0  0  0  0  0  0  0  0
  190.6230  176.9910  142.9050 C   0  0  0  0  0  3  0  0  0  0  0  0
  185.2350  178.0740  142.8290 C   0  0  0  0  0  3  0  0  0  0  0  0
  189.5170  177.3700  142.1340 C   0  0  0  0  0  0  0  0  0  0  0  0
  189.2710  177.1360  144.9080 C   0  0  0  0  0  0  0  0  0  0  0  0
  190.7430  176.9600  138.5700 C   0  0  0  0  0  0  0  0  0  0  0  0
  189.6220  177.4880  140.6640 C   0  0  0  0  0  0  0  0  0  0  0  0
  190.6520  176.8420  139.9590 C   0  0  0  0  0  3  0  0  0  0  0  0
  191.8370  176.2720  137.8360 C   0  0  0  0  0  1  0  0  0  0  0  0
  188.6860  178.2530  139.9510 C   0  0  0  0  0  3  0  0  0  0  0  0
  189.8060  177.7240  137.8700 C   0  0  0  0  0  3  0  0  0  0  0  0
  188.7770  178.3700  138.5610 C   0  0  0  0  0  3  0  0  0  0  0  0
  1  2  1  6  0  0  0
  1 13  1  0  0  0  0
  2 18  1  0  0  0  0
  4 16  1  6  0  0  0
  4  1  1  0  0  0  0
  4  7  1  0  0  0  0
  5  8  2  0  0  0  0
  6  3  1  0  0  0  0
  7 14  1  0  0  0  0
  8  7  1  0  0  0  0
  9 18  2  0  0  0  0
  9 10  1  0  0  0  0
 11  2  2  0  0  0  0
 12 16  2  0  0  0  0
 12  5  1  0  0  0  0
 13 14  1  0  0  0  0
 13  3  1  1  0  0  0
 15  9  1  0  0  0  0
 17 11  1  0  0  0  0
 17 15  2  0  0  0  0
 18  6  1  0  0  0  0
 19 21  1  0  0  0  0
 20 17  1  0  0  0  0
 21 20  2  0  0  0  0
 22 19  1  0  0  0  0
 23 20  1  0  0  0  0
 24 25  1  0  0  0  0
 24 19  2  0  0  0  0
 25 23  2  0  0  0  0
M  END
>  <MODEL>
3

>  <REMARK>
 VINA RESULT:     -10.2      2.226      6.114
  Name = 
  1 active torsions:
  status: ('A' for Active; 'I' for Inactive)
    1  A    between atoms: C_6  and  C_23
                            x       y       z     vdW  Elec       q    Type
                         _______ _______ _______ _____ _____    ______ ____

>  <TORSDO>
F 1

$$$$
=
 OpenBabel11052412473D

 25 29  0  0  1  0  0  0  0  0999 V2000
  186.3070  177.9960  141.7630 C   0  0  2  0  0  3  0  0  0  0  0  0
  185.9920  178.2420  143.2120 C   0  0  0  0  0  0  0  0  0  0  0  0
  183.9820  178.4260  141.1140 C   0  0  0  0  0  2  0  0  0  0  0  0
  187.7190  178.2930  141.3040 C   0  0  2  0  0  3  0  0  0  0  0  0
  189.6980  177.2700  139.4800 C   0  0  0  0  0  3  0  0  0  0  0  0
  183.5730  178.7700  142.5570 C   0  0  0  0  0  2  0  0  0  0  0  0
  187.6380  178.4240  139.8480 N   0  0  0  0  0  0  0  0  0  0  0  0
  188.7230  178.0410  138.9970 C   0  0  0  0  0  3  0  0  0  0  0  0
  184.3620  178.6450  144.9540 C   0  0  0  0  0  0  0  0  0  0  0  0
  183.0720  178.9450  145.3740 O   0  0  0  0  0  1  0  0  0  0  0  0
  186.9450  178.0580  144.1660 N   0  0  0  0  0  0  0  0  0  0  0  0
  189.6300  176.7780  140.8680 C   0  0  0  0  0  3  0  0  0  0  0  0
  185.4180  178.8570  140.8960 C   0  0  2  0  0  3  0  0  0  0  0  0
  186.0150  178.6760  139.1930 S   0  0  0  0  0  0  0  0  0  0  0  0
  185.3680  178.4730  145.9050 C   0  0  0  0  0  3  0  0  0  0  0  0
  188.6870  177.2110  141.7100 C   0  0  0  0  0  3  0  0  0  0  0  0
  186.6740  178.1760  145.4950 C   0  0  0  0  0  0  0  0  0  0  0  0
  184.6570  178.5160  143.5910 C   0  0  0  0  0  0  0  0  0  0  0  0
  190.0060  177.2560  147.0530 C   0  0  0  0  0  0  0  0  0  0  0  0
  187.7540  177.9800  146.4870 C   0  0  0  0  0  0  0  0  0  0  0  0
  188.9920  177.4370  146.1090 C   0  0  0  0  0  3  0  0  0  0  0  0
  191.3120  176.6790  146.6410 C   0  0  0  0  0  1  0  0  0  0  0  0
  187.5490  178.3390  147.8280 C   0  0  0  0  0  3  0  0  0  0  0  0
  189.7920  177.6160  148.3860 C   0  0  0  0  0  3  0  0  0  0  0  0
  188.5640  178.1580  148.7730 C   0  0  0  0  0  3  0  0  0  0  0  0
  1  2  1  1  0  0  0
  2 18  2  0  0  0  0
  2 11  1  0  0  0  0
  3  6  1  0  0  0  0
  4 16  1  6  0  0  0
  4  1  1  0  0  0  0
  5 12  1  0  0  0  0
  6 18  1  0  0  0  0
  7  4  1  0  0  0  0
  8  5  2  0  0  0  0
  8  7  1  0  0  0  0
  9 10  1  0  0  0  0
  9 15  2  0  0  0  0
 11 17  2  0  0  0  0
 12 16  2  0  0  0  0
 13  3  1  6  0  0  0
 13  1  1  0  0  0  0
 14  7  1  0  0  0  0
 14 13  1  0  0  0  0
 17 15  1  0  0  0  0
 17 20  1  0  0  0  0
 18  9  1  0  0  0  0
 19 24  1  0  0  0  0
 20 23  2  0  0  0  0
 21 20  1  0  0  0  0
 21 19  2  0  0  0  0
 22 19  1  0  0  0  0
 23 25  1  0  0  0  0
 24 25  2  0  0  0  0
M  END
>  <MODEL>
4

>  <REMARK>
 VINA RESULT:     -10.0      2.190      5.454
  Name = 
  1 active torsions:
  status: ('A' for Active; 'I' for Inactive)
    1  A    between atoms: C_6  and  C_23
                            x       y       z     vdW  Elec       q    Type
                         _______ _______ _______ _____ _____    ______ ____

>  <TORSDO>
F 1

$$$$
=
 OpenBabel11052412473D

 25 29  0  0  1  0  0  0  0  0999 V2000
  187.5450  178.1280  145.3670 C   0  0  2  0  0  3  0  0  0  0  0  0
  186.4990  178.2580  144.2950 C   0  0  0  0  0  0  0  0  0  0  0  0
  185.8840  178.5160  147.1280 C   0  0  0  0  0  2  0  0  0  0  0  0
  188.7380  177.2470  145.0630 C   0  0  2  0  0  3  0  0  0  0  0  0
  191.5700  177.1320  145.5700 C   0  0  0  0  0  3  0  0  0  0  0  0
  184.7290  178.5900  146.1150 C   0  0  0  0  0  2  0  0  0  0  0  0
  189.3260  176.9230  146.3640 N   0  0  0  0  0  0  0  0  0  0  0  0
  190.7350  176.7230  146.5240 C   0  0  0  0  0  3  0  0  0  0  0  0
  184.2300  178.7910  143.6460 C   0  0  0  0  0  0  0  0  0  0  0  0
  182.9060  179.0760  143.9560 O   0  0  0  0  0  1  0  0  0  0  0  0
  186.8500  178.2170  142.9810 N   0  0  0  0  0  0  0  0  0  0  0  0
  191.0470  177.8300  144.3810 C   0  0  0  0  0  3  0  0  0  0  0  0
  186.9250  177.5410  146.6140 C   0  0  2  0  0  3  0  0  0  0  0  0
  188.2850  177.2050  147.7650 S   0  0  0  0  0  0  0  0  0  0  0  0
  184.6190  178.7200  142.3080 C   0  0  0  0  0  3  0  0  0  0  0  0
  189.7330  177.9300  144.1600 C   0  0  0  0  0  3  0  0  0  0  0  0
  185.9500  178.4270  141.9810 C   0  0  0  0  0  0  0  0  0  0  0  0
  185.1700  178.5770  144.6610 C   0  0  0  0  0  0  0  0  0  0  0  0
  188.1440  178.1500  138.9020 C   0  0  0  0  0  0  0  0  0  0  0  0
  186.3850  178.3560  140.5700 C   0  0  0  0  0  0  0  0  0  0  0  0
  187.7430  178.2160  140.2390 C   0  0  0  0  0  3  0  0  0  0  0  0
  189.5840  178.0020  138.5650 C   0  0  0  0  0  1  0  0  0  0  0  0
  185.4370  178.4260  139.5370 C   0  0  0  0  0  3  0  0  0  0  0  0
  187.1920  178.2210  137.8820 C   0  0  0  0  0  3  0  0  0  0  0  0
  185.8380  178.3590  138.2000 C   0  0  0  0  0  3  0  0  0  0  0  0
  1  2  1  6  0  0  0
  1 13  1  0  0  0  0
  2 18  1  0  0  0  0
  4 16  1  6  0  0  0
  4  1  1  0  0  0  0
  4  7  1  0  0  0  0
  5  8  2  0  0  0  0
  6  3  1  0  0  0  0
  7  8  1  0  0  0  0
  7 14  1  0  0  0  0
  9 10  1  0  0  0  0
  9 18  2  0  0  0  0
 11  2  2  0  0  0  0
 12  5  1  0  0  0  0
 13  3  1  1  0  0  0
 13 14  1  0  0  0  0
 15  9  1  0  0  0  0
 16 12  2  0  0  0  0
 17 15  2  0  0  0  0
 17 11  1  0  0  0  0
 18  6  1  0  0  0  0
 19 21  1  0  0  0  0
 20 17  1  0  0  0  0
 21 20  2  0  0  0  0
 22 19  1  0  0  0  0
 23 20  1  0  0  0  0
 24 25  1  0  0  0  0
 24 19  2  0  0  0  0
 25 23  2  0  0  0  0
M  END
>  <MODEL>
5

>  <REMARK>
 VINA RESULT:      -9.8      2.312      4.878
  Name = 
  1 active torsions:
  status: ('A' for Active; 'I' for Inactive)
    1  A    between atoms: C_6  and  C_23
                            x       y       z     vdW  Elec       q    Type
                         _______ _______ _______ _____ _____    ______ ____

>  <TORSDO>
F 1

$$$$
=
 OpenBabel11052412473D

 25 29  0  0  1  0  0  0  0  0999 V2000
  187.8600  178.0020  145.4920 C   0  0  2  0  0  3  0  0  0  0  0  0
  187.0750  178.1470  144.2190 C   0  0  0  0  0  0  0  0  0  0  0  0
  185.8930  178.5540  146.8480 C   0  0  0  0  0  2  0  0  0  0  0  0
  189.0320  177.0430  145.4740 C   0  0  2  0  0  3  0  0  0  0  0  0
  191.6800  176.7900  146.5750 C   0  0  0  0  0  3  0  0  0  0  0  0
  184.9850  178.6530  145.6100 C   0  0  0  0  0  2  0  0  0  0  0  0
  189.3110  176.7400  146.8790 N   0  0  0  0  0  0  0  0  0  0  0  0
  190.6380  176.4670  147.3410 C   0  0  0  0  0  3  0  0  0  0  0  0
  185.0330  178.7810  143.0870 C   0  0  0  0  0  0  0  0  0  0  0  0
  183.6930  179.1530  143.1000 O   0  0  0  0  0  1  0  0  0  0  0  0
  187.6920  178.0340  143.0110 N   0  0  0  0  0  0  0  0  0  0  0  0
  191.4660  177.4670  145.2840 C   0  0  0  0  0  3  0  0  0  0  0  0
  186.9550  177.5030  146.5950 C   0  0  2  0  0  3  0  0  0  0  0  0
  188.0170  177.1370  148.0180 S   0  0  0  0  0  0  0  0  0  0  0  0
  185.6890  178.6330  141.8650 C   0  0  0  0  0  3  0  0  0  0  0  0
  190.2370  177.6320  144.7850 C   0  0  0  0  0  3  0  0  0  0  0  0
  187.0380  178.2530  141.8370 C   0  0  0  0  0  0  0  0  0  0  0  0
  185.7220  178.5550  144.2850 C   0  0  0  0  0  0  0  0  0  0  0  0
  187.7730  178.1060  138.1210 C   0  0  0  0  0  0  0  0  0  0  0  0
  187.7550  178.1000  140.5540 C   0  0  0  0  0  0  0  0  0  0  0  0
  187.0860  178.2530  139.3290 C   0  0  0  0  0  3  0  0  0  0  0  0
  187.0530  178.2700  136.8320 C   0  0  0  0  0  1  0  0  0  0  0  0
  189.1260  177.7980  140.5470 C   0  0  0  0  0  3  0  0  0  0  0  0
  189.1370  177.8050  138.1250 C   0  0  0  0  0  3  0  0  0  0  0  0
  189.8140  177.6510  139.3390 C   0  0  0  0  0  3  0  0  0  0  0  0
  1  2  1  6  0  0  0
  1 13  1  0  0  0  0
  2 18  1  0  0  0  0
  4 16  1  1  0  0  0
  4  1  1  0  0  0  0
  4  7  1  0  0  0  0
  5  8  2  0  0  0  0
  6  3  1  0  0  0  0
  7  8  1  0  0  0  0
  7 14  1  0  0  0  0
  9 10  1  0  0  0  0
  9 18  2  0  0  0  0
 11  2  2  0  0  0  0
 12  5  1  0  0  0  0
 13  3  1  1  0  0  0
 13 14  1  0  0  0  0
 15  9  1  0  0  0  0
 16 12  2  0  0  0  0
 17 15  2  0  0  0  0
 17 11  1  0  0  0  0
 18  6  1  0  0  0  0
 19 24  2  0  0  0  0
 19 21  1  0  0  0  0
 20 17  1  0  0  0  0
 21 20  2  0  0  0  0
 22 19  1  0  0  0  0
 23 20  1  0  0  0  0
 24 25  1  0  0  0  0
 25 23  2  0  0  0  0
M  END
>  <MODEL>
6

>  <REMARK>
 VINA RESULT:      -9.8      2.419      5.382
  Name = 
  1 active torsions:
  status: ('A' for Active; 'I' for Inactive)
    1  A    between atoms: C_6  and  C_23
                            x       y       z     vdW  Elec       q    Type
                         _______ _______ _______ _____ _____    ______ ____

>  <TORSDO>
F 1

$$$$
=
 OpenBabel11052412473D

 25 29  0  0  1  0  0  0  0  0999 V2000
  188.7340  177.8380  144.9160 C   0  0  2  0  0  3  0  0  0  0  0  0
  187.2400  177.9970  144.9680 C   0  0  0  0  0  0  0  0  0  0  0  0
  188.8930  177.9030  147.3620 C   0  0  0  0  0  2  0  0  0  0  0  0
  189.3070  177.0910  143.7310 C   0  0  2  0  0  3  0  0  0  0  0  0
  191.6090  177.1480  142.0020 C   0  0  0  0  0  3  0  0  0  0  0  0
  187.3660  177.9930  147.5250 C   0  0  0  0  0  2  0  0  0  0  0  0
  190.6510  176.6790  144.1400 N   0  0  0  0  0  0  0  0  0  0  0  0
  191.7250  176.5750  143.2000 C   0  0  0  0  0  3  0  0  0  0  0  0
  185.2280  178.4150  146.2450 C   0  0  0  0  0  0  0  0  0  0  0  0
  184.5560  178.5590  147.4540 O   0  0  0  0  0  1  0  0  0  0  0  0
  186.5200  178.1240  143.8200 N   0  0  0  0  0  0  0  0  0  0  0  0
  190.4010  177.9250  141.6700 C   0  0  0  0  0  3  0  0  0  0  0  0
  189.2060  177.0750  146.1320 C   0  0  2  0  0  3  0  0  0  0  0  0
  190.9680  176.7270  145.8790 S   0  0  0  0  0  0  0  0  0  0  0  0
  184.5160  178.5160  145.0500 C   0  0  0  0  0  3  0  0  0  0  0  0
  189.3440  177.9430  142.4870 C   0  0  0  0  0  3  0  0  0  0  0  0
  185.1800  178.3670  143.8260 C   0  0  0  0  0  0  0  0  0  0  0  0
  186.6070  178.1690  146.2210 C   0  0  0  0  0  0  0  0  0  0  0  0
  184.4270  178.5970  140.1170 C   0  0  0  0  0  0  0  0  0  0  0  0
  184.4460  178.4800  142.5470 C   0  0  0  0  0  0  0  0  0  0  0  0
  185.1300  178.4890  141.3200 C   0  0  0  0  0  3  0  0  0  0  0  0
  185.1620  178.6050  138.8260 C   0  0  0  0  0  1  0  0  0  0  0  0
  183.0460  178.5800  142.5470 C   0  0  0  0  0  3  0  0  0  0  0  0
  183.0330  178.6960  140.1280 C   0  0  0  0  0  3  0  0  0  0  0  0
  182.3430  178.6880  141.3430 C   0  0  0  0  0  3  0  0  0  0  0  0
  1  2  1  6  0  0  0
  1 13  1  0  0  0  0
  2 18  1  0  0  0  0
  3  6  1  0  0  0  0
  4 16  1  6  0  0  0
  4  7  1  0  0  0  0
  4  1  1  0  0  0  0
  5  8  2  0  0  0  0
  7 14  1  0  0  0  0
  8  7  1  0  0  0  0
  9 10  1  0  0  0  0
 11 17  1  0  0  0  0
 11  2  2  0  0  0  0
 12  5  1  0  0  0  0
 12 16  2  0  0  0  0
 13  3  1  1  0  0  0
 14 13  1  0  0  0  0
 15  9  1  0  0  0  0
 17 15  2  0  0  0  0
 18  9  2  0  0  0  0
 18  6  1  0  0  0  0
 19 24  2  0  0  0  0
 19 21  1  0  0  0  0
 20 17  1  0  0  0  0
 21 20  2  0  0  0  0
 22 19  1  0  0  0  0
 23 20  1  0  0  0  0
 24 25  1  0  0  0  0
 25 23  2  0  0  0  0
M  END
>  <MODEL>
7

>  <REMARK>
 VINA RESULT:      -9.7      1.545      2.208
  Name = 
  1 active torsions:
  status: ('A' for Active; 'I' for Inactive)
    1  A    between atoms: C_6  and  C_23
                            x       y       z     vdW  Elec       q    Type
                         _______ _______ _______ _____ _____    ______ ____

>  <TORSDO>
F 1

$$$$
=
 OpenBabel11052412473D

 25 29  0  0  1  0  0  0  0  0999 V2000
  186.6750  177.7740  143.9820 C   0  0  2  0  0  3  0  0  0  0  0  0
  187.8240  177.7340  143.0140 C   0  0  0  0  0  0  0  0  0  0  0  0
  188.1270  177.0960  145.8380 C   0  0  0  0  0  2  0  0  0  0  0  0
  185.5480  178.7370  143.6770 C   0  0  2  0  0  3  0  0  0  0  0  0
  182.6830  178.9110  143.9040 C   0  0  0  0  0  3  0  0  0  0  0  0
  189.3800  177.0990  144.9460 C   0  0  0  0  0  2  0  0  0  0  0  0
  184.8350  178.9210  144.9420 N   0  0  0  0  0  0  0  0  0  0  0  0
  183.4240  179.1600  144.9830 C   0  0  0  0  0  3  0  0  0  0  0  0
  190.1310  177.1880  142.5340 C   0  0  0  0  0  0  0  0  0  0  0  0
  191.4060  176.8090  142.9380 O   0  0  0  0  0  1  0  0  0  0  0  0
  187.6150  177.9550  141.6880 N   0  0  0  0  0  0  0  0  0  0  0  0
  183.3070  178.3450  142.6940 C   0  0  0  0  0  3  0  0  0  0  0  0
  187.1770  178.1720  145.3520 C   0  0  2  0  0  3  0  0  0  0  0  0
  185.7130  178.4200  146.3930 S   0  0  0  0  0  0  0  0  0  0  0  0
  189.8890  177.4440  141.1850 C   0  0  0  0  0  3  0  0  0  0  0  0
  184.6340  178.2170  142.5970 C   0  0  0  0  0  3  0  0  0  0  0  0
  188.6100  177.8330  140.7660 C   0  0  0  0  0  0  0  0  0  0  0  0
  189.0960  177.3140  143.4690 C   0  0  0  0  0  0  0  0  0  0  0  0
  186.8400  178.0010  137.4170 C   0  0  0  0  0  0  0  0  0  0  0  0
  188.3290  178.1000  139.3390 C   0  0  0  0  0  0  0  0  0  0  0  0
  187.0960  177.7440  138.7660 C   0  0  0  0  0  3  0  0  0  0  0  0
  185.5330  177.6200  136.8230 C   0  0  0  0  0  1  0  0  0  0  0  0
  189.2990  178.7170  138.5350 C   0  0  0  0  0  3  0  0  0  0  0  0
  187.8140  178.6160  136.6250 C   0  0  0  0  0  3  0  0  0  0  0  0
  189.0430  178.9740  137.1850 C   0  0  0  0  0  3  0  0  0  0  0  0
  1  2  1  6  0  0  0
  1 13  1  0  0  0  0
  2 18  1  0  0  0  0
  4 16  1  6  0  0  0
  4  1  1  0  0  0  0
  4  7  1  0  0  0  0
  5  8  2  0  0  0  0
  6  3  1  0  0  0  0
  7  8  1  0  0  0  0
  7 14  1  0  0  0  0
  9 10  1  0  0  0  0
  9 18  2  0  0  0  0
 11  2  2  0  0  0  0
 12  5  1  0  0  0  0
 13  3  1  1  0  0  0
 13 14  1  0  0  0  0
 15  9  1  0  0  0  0
 16 12  2  0  0  0  0
 17 15  2  0  0  0  0
 17 11  1  0  0  0  0
 18  6  1  0  0  0  0
 19 21  1  0  0  0  0
 20 17  1  0  0  0  0
 21 20  2  0  0  0  0
 22 19  1  0  0  0  0
 23 20  1  0  0  0  0
 24 25  1  0  0  0  0
 24 19  2  0  0  0  0
 25 23  2  0  0  0  0
M  END
>  <MODEL>
8

>  <REMARK>
 VINA RESULT:      -9.6      2.617      5.853
  Name = 
  1 active torsions:
  status: ('A' for Active; 'I' for Inactive)
    1  A    between atoms: C_6  and  C_23
                            x       y       z     vdW  Elec       q    Type
                         _______ _______ _______ _____ _____    ______ ____

>  <TORSDO>
F 1

$$$$
=
 OpenBabel11052412473D

 25 29  0  0  1  0  0  0  0  0999 V2000
  187.9440  177.9720  144.9050 C   0  0  2  0  0  3  0  0  0  0  0  0
  186.5120  178.1440  144.4830 C   0  0  0  0  0  0  0  0  0  0  0  0
  187.3750  178.3980  147.2510 C   0  0  0  0  0  2  0  0  0  0  0  0
  188.8060  177.0560  144.0620 C   0  0  2  0  0  3  0  0  0  0  0  0
  191.5170  176.8480  143.1150 C   0  0  0  0  0  3  0  0  0  0  0  0
  185.8740  178.5170  146.9340 C   0  0  0  0  0  2  0  0  0  0  0  0
  189.9470  176.7030  144.9100 N   0  0  0  0  0  0  0  0  0  0  0  0
  191.2450  176.4570  144.3600 C   0  0  0  0  0  3  0  0  0  0  0  0
  184.2350  178.7540  145.0260 C   0  0  0  0  0  0  0  0  0  0  0  0
  183.2420  179.0780  145.9440 O   0  0  0  0  0  1  0  0  0  0  0  0
  186.1710  178.1030  143.1660 N   0  0  0  0  0  0  0  0  0  0  0  0
  190.5010  177.5720  142.3290 C   0  0  0  0  0  3  0  0  0  0  0  0
  187.9980  177.3950  146.3010 C   0  0  2  0  0  3  0  0  0  0  0  0
  189.7360  177.0060  146.6390 S   0  0  0  0  0  0  0  0  0  0  0  0
  183.9140  178.6810  143.6710 C   0  0  0  0  0  3  0  0  0  0  0  0
  189.2510  177.7140  142.7810 C   0  0  0  0  0  3  0  0  0  0  0  0
  184.9030  178.3500  142.7350 C   0  0  0  0  0  0  0  0  0  0  0  0
  185.5450  178.5020  145.4510 C   0  0  0  0  0  0  0  0  0  0  0  0
  183.1080  177.6160  139.4780 C   0  0  0  0  0  0  0  0  0  0  0  0
  184.5880  178.2760  141.2930 C   0  0  0  0  0  0  0  0  0  0  0  0
  183.3980  177.6810  140.8430 C   0  0  0  0  0  3  0  0  0  0  0  0
  181.8460  176.9840  139.0140 C   0  0  0  0  0  1  0  0  0  0  0  0
  185.4820  178.8050  140.3490 C   0  0  0  0  0  3  0  0  0  0  0  0
  184.0060  178.1460  138.5470 C   0  0  0  0  0  3  0  0  0  0  0  0
  185.1930  178.7400  138.9830 C   0  0  0  0  0  3  0  0  0  0  0  0
  1  2  1  6  0  0  0
  1 13  1  0  0  0  0
  2 18  1  0  0  0  0
  4 16  1  6  0  0  0
  4  1  1  0  0  0  0
  4  7  1  0  0  0  0
  5  8  2  0  0  0  0
  6  3  1  0  0  0  0
  7 14  1  0  0  0  0
  8  7  1  0  0  0  0
  9 18  2  0  0  0  0
  9 10  1  0  0  0  0
 11  2  2  0  0  0  0
 12 16  2  0  0  0  0
 12  5  1  0  0  0  0
 13 14  1  0  0  0  0
 13  3  1  1  0  0  0
 15  9  1  0  0  0  0
 17 11  1  0  0  0  0
 17 15  2  0  0  0  0
 18  6  1  0  0  0  0
 19 21  1  0  0  0  0
 20 17  1  0  0  0  0
 21 20  2  0  0  0  0
 22 19  1  0  0  0  0
 23 20  1  0  0  0  0
 24 25  1  0  0  0  0
 24 19  2  0  0  0  0
 25 23  2  0  0  0  0
M  END
>  <MODEL>
9

>  <REMARK>
 VINA RESULT:      -9.6      2.033      3.326
  Name = 
  1 active torsions:
  status: ('A' for Active; 'I' for Inactive)
    1  A    between atoms: C_6  and  C_23
                            x       y       z     vdW  Elec       q    Type
                         _______ _______ _______ _____ _____    ______ ____

>  <TORSDO>
F 1

$$$$
