=
 OpenBabel11052415593D

 34 38  0  0  1  0  0  0  0  0999 V2000
  190.0110  176.2580  144.1640 C   0  0  1  0  0  3  0  0  0  0  0  0
  187.1910  177.9040  146.2770 C   0  0  0  0  0  2  0  0  0  0  0  0
  184.8240  179.0520  144.0630 C   0  0  0  0  0  0  0  0  0  0  0  0
  189.4770  177.2850  146.7770 N   0  0  0  0  0  2  0  0  0  0  0  0
  190.7920  177.5240  142.1920 N   0  0  0  0  0  0  0  0  0  0  0  0
  190.3810  176.2030  142.6750 C   0  0  0  0  0  2  0  0  0  0  0  0
  191.7480  178.1310  144.3700 C   0  0  2  0  0  3  0  0  0  0  0  0
  190.8650  179.1990  144.5600 O   0  0  0  0  0  1  0  0  0  0  0  0
  184.0220  179.5630  145.1250 N   0  0  0  0  0  1  0  0  0  0  0  0
  192.0160  177.9440  142.8780 C   0  0  0  0  0  2  0  0  0  0  0  0
  190.8290  176.9960  146.4150 C   0  0  0  0  0  0  0  0  0  0  0  0
  191.1900  176.8280  144.9710 C   0  0  1  0  0  3  0  0  0  0  0  0
  191.7640  177.1200  147.2960 N   0  0  0  0  0  2  0  0  0  0  0  0
  185.8830  177.4450  145.6540 C   0  0  0  0  0  2  0  0  0  0  0  0
  184.7070  179.5490  142.9120 O   0  0  0  0  0  0  0  0  0  0  0  0
  185.7520  177.9830  144.3010 N   0  0  0  0  0  0  0  0  0  0  0  0
  186.5670  177.4890  143.1840 C   0  0  0  0  0  2  0  0  0  0  0  0
  188.3390  176.9680  145.9190 C   0  0  2  0  0  3  0  0  0  0  0  0
  187.5770  176.4230  143.5940 C   0  0  0  0  0  2  0  0  0  0  0  0
  188.7060  177.0340  144.4220 C   0  0  2  0  0  3  0  0  0  0  0  0
  191.0070  177.4880  140.7380 C   0  0  0  0  0  2  0  0  0  0  0  0
  187.6110  178.4980  139.3870 N   0  0  0  0  0  0  0  0  0  0  0  0
  189.5860  176.4800  138.8320 C   0  0  0  0  0  2  0  0  0  0  0  0
  186.0590  175.9770  136.1210 C   0  0  0  0  0  2  0  0  0  0  0  0
  186.4680  178.2240  137.2830 C   0  0  0  0  0  2  0  0  0  0  0  0
  187.2400  177.5090  138.3810 C   0  0  1  0  0  3  0  0  0  0  0  0
  185.4600  177.3040  136.6010 C   0  0  0  0  0  2  0  0  0  0  0  0
  188.5240  176.1050  136.6990 C   0  0  0  0  0  3  0  0  0  0  0  0
  188.4670  176.7680  137.8710 C   0  0  0  0  0  0  0  0  0  0  0  0
  187.4960  176.0820  135.5980 C   0  0  2  0  0  3  0  0  0  0  0  0
  189.7440  177.5060  139.9180 C   0  0  2  0  0  3  0  0  0  0  0  0
  188.8160  178.4330  140.1540 C   0  0  0  0  0  3  0  0  0  0  0  0
  187.7130  177.2090  134.5940 C   0  0  0  0  0  2  0  0  0  0  0  0
  189.0510  177.6040  134.6050 O   0  0  0  0  0  1  0  0  0  0  0  0
  1  6  1  6  0  0  0
  1 20  1  0  0  0  0
  1 12  1  0  0  0  0
  3 16  1  0  0  0  0
  3  9  1  0  0  0  0
  5  6  1  0  0  0  0
  5 10  1  0  0  0  0
  7  8  1  6  0  0  0
  7 12  1  0  0  0  0
 10  7  1  0  0  0  0
 11  4  1  0  0  0  0
 11 13  2  0  0  0  0
 12 11  1  1  0  0  0
 14  2  1  0  0  0  0
 15  3  2  0  0  0  0
 16 14  1  0  0  0  0
 17 19  1  0  0  0  0
 17 16  1  0  0  0  0
 18  2  1  6  0  0  0
 18  4  1  0  0  0  0
 20 19  1  6  0  0  0
 20 18  1  0  0  0  0
 21  5  1  0  0  0  0
 22 32  2  0  0  0  0
 23 31  1  0  0  0  0
 24 27  1  0  0  0  0
 26 25  1  6  0  0  0
 26 22  1  0  0  0  0
 27 25  1  0  0  0  0
 28 29  2  0  0  0  0
 29 26  1  0  0  0  0
 29 23  1  0  0  0  0
 30 33  1  1  0  0  0
 30 24  1  0  0  0  0
 30 28  1  0  0  0  0
 31 32  1  0  0  0  0
 31 21  1  6  0  0  0
 33 34  1  0  0  0  0
M  END
>  <MODEL>
1

>  <REMARK>
 VINA RESULT:     -10.0      0.000      0.000
  Name = 
  3 active torsions:
  status: ('A' for Active; 'I' for Inactive)
    1  A    between atoms: C_7  and  C_29
    2  A    between atoms: N_8  and  C_18
    3  A    between atoms: C_18  and  C_30
                            x       y       z     vdW  Elec       q    Type
                         _______ _______ _______ _____ _____    ______ ____

>  <TORSDO>
F 3

$$$$
=
 OpenBabel11052415593D

 34 38  0  0  1  0  0  0  0  0999 V2000
  189.9690  176.1940  143.8830 C   0  0  1  0  0  3  0  0  0  0  0  0
  187.4450  177.8330  146.3470 C   0  0  0  0  0  2  0  0  0  0  0  0
  184.8780  179.1070  144.4460 C   0  0  0  0  0  0  0  0  0  0  0  0
  189.7560  177.1470  146.5700 N   0  0  0  0  0  2  0  0  0  0  0  0
  190.5600  177.5070  141.8760 N   0  0  0  0  0  0  0  0  0  0  0  0
  190.1710  176.1810  142.3620 C   0  0  0  0  0  2  0  0  0  0  0  0
  191.7670  178.0200  143.9510 C   0  0  2  0  0  3  0  0  0  0  0  0
  190.9390  179.1000  144.2710 O   0  0  0  0  0  1  0  0  0  0  0  0
  184.2130  179.6010  145.6060 N   0  0  0  0  0  1  0  0  0  0  0  0
  191.8640  177.8760  142.4340 C   0  0  0  0  0  2  0  0  0  0  0  0
  191.0500  176.8390  146.0510 C   0  0  0  0  0  0  0  0  0  0  0  0
  191.2450  176.7100  144.5720 C   0  0  1  0  0  3  0  0  0  0  0  0
  192.0800  176.9130  146.8250 N   0  0  0  0  0  2  0  0  0  0  0  0
  186.0650  177.4250  145.8590 C   0  0  0  0  0  2  0  0  0  0  0  0
  184.6480  179.6450  143.3300 O   0  0  0  0  0  0  0  0  0  0  0  0
  185.7990  178.0100  144.5470 N   0  0  0  0  0  0  0  0  0  0  0  0
  186.4720  177.5350  143.3320 C   0  0  0  0  0  2  0  0  0  0  0  0
  188.5220  176.8840  145.8340 C   0  0  2  0  0  3  0  0  0  0  0  0
  187.4930  176.4340  143.5940 C   0  0  0  0  0  2  0  0  0  0  0  0
  188.7220  176.9910  144.3090 C   0  0  2  0  0  3  0  0  0  0  0  0
  190.6130  177.5140  140.4070 C   0  0  0  0  0  2  0  0  0  0  0  0
  187.7430  176.9770  137.9870 N   0  0  0  0  0  0  0  0  0  0  0  0
  188.2500  178.5530  140.3410 C   0  0  0  0  0  2  0  0  0  0  0  0
  184.1360  179.3830  138.7820 C   0  0  0  0  0  2  0  0  0  0  0  0
  185.3490  177.2300  138.1050 C   0  0  0  0  0  2  0  0  0  0  0  0
  186.6850  177.9080  138.3650 C   0  0  1  0  0  3  0  0  0  0  0  0
  184.2530  178.2370  137.7710 C   0  0  0  0  0  2  0  0  0  0  0  0
  185.8710  178.8880  140.5620 C   0  0  0  0  0  3  0  0  0  0  0  0
  186.8580  178.3680  139.8050 C   0  0  0  0  0  0  0  0  0  0  0  0
  184.4030  178.9770  140.2350 C   0  0  2  0  0  3  0  0  0  0  0  0
  189.2710  177.6310  139.7340 C   0  0  2  0  0  3  0  0  0  0  0  0
  189.0100  176.9100  138.6450 C   0  0  0  0  0  3  0  0  0  0  0  0
  183.6450  177.7330  140.6850 C   0  0  0  0  0  2  0  0  0  0  0  0
  182.3390  178.0730  141.0400 O   0  0  0  0  0  1  0  0  0  0  0  0
  1  6  1  6  0  0  0
  1 20  1  0  0  0  0
  1 12  1  0  0  0  0
  3 16  1  0  0  0  0
  3  9  1  0  0  0  0
  5  6  1  0  0  0  0
  5 10  1  0  0  0  0
  7  8  1  6  0  0  0
  7 12  1  0  0  0  0
 10  7  1  0  0  0  0
 11  4  1  0  0  0  0
 11 13  2  0  0  0  0
 12 11  1  1  0  0  0
 14  2  1  0  0  0  0
 15  3  2  0  0  0  0
 16 14  1  0  0  0  0
 17 19  1  0  0  0  0
 17 16  1  0  0  0  0
 18  2  1  1  0  0  0
 18  4  1  0  0  0  0
 20 19  1  6  0  0  0
 20 18  1  0  0  0  0
 21  5  1  0  0  0  0
 22 26  1  0  0  0  0
 22 32  2  0  0  0  0
 24 30  1  0  0  0  0
 26 25  1  1  0  0  0
 26 29  1  0  0  0  0
 27 25  1  0  0  0  0
 27 24  1  0  0  0  0
 29 23  1  0  0  0  0
 29 28  2  0  0  0  0
 30 28  1  0  0  0  0
 30 33  1  6  0  0  0
 31 23  1  0  0  0  0
 31 21  1  1  0  0  0
 32 31  1  0  0  0  0
 33 34  1  0  0  0  0
M  END
>  <MODEL>
2

>  <REMARK>
 VINA RESULT:      -9.7      2.016      2.811
  Name = 
  3 active torsions:
  status: ('A' for Active; 'I' for Inactive)
    1  A    between atoms: C_7  and  C_29
    2  A    between atoms: N_8  and  C_18
    3  A    between atoms: C_18  and  C_30
                            x       y       z     vdW  Elec       q    Type
                         _______ _______ _______ _____ _____    ______ ____

>  <TORSDO>
F 3

$$$$
=
 OpenBabel11052415593D

 34 38  0  0  1  0  0  0  0  0999 V2000
  189.8920  176.3000  143.2760 C   0  0  1  0  0  3  0  0  0  0  0  0
  187.5560  177.6780  146.0640 C   0  0  0  0  0  2  0  0  0  0  0  0
  184.8770  179.1460  144.4870 C   0  0  0  0  0  0  0  0  0  0  0  0
  189.8710  176.9690  146.0550 N   0  0  0  0  0  2  0  0  0  0  0  0
  190.3560  177.8140  141.3790 N   0  0  0  0  0  0  0  0  0  0  0  0
  189.9900  176.4450  141.7510 C   0  0  0  0  0  2  0  0  0  0  0  0
  191.7060  178.1070  143.4080 C   0  0  2  0  0  3  0  0  0  0  0  0
  190.9110  179.1490  143.8940 O   0  0  0  0  0  1  0  0  0  0  0  0
  184.2960  179.5180  145.7340 N   0  0  0  0  0  1  0  0  0  0  0  0
  191.6970  178.1210  141.8820 C   0  0  0  0  0  2  0  0  0  0  0  0
  191.1240  176.7150  145.4190 C   0  0  0  0  0  0  0  0  0  0  0  0
  191.2170  176.7400  143.9240 C   0  0  1  0  0  3  0  0  0  0  0  0
  192.2050  176.7060  146.1240 N   0  0  0  0  0  2  0  0  0  0  0  0
  186.1420  177.3240  145.6330 C   0  0  0  0  0  2  0  0  0  0  0  0
  184.5750  179.7980  143.4510 O   0  0  0  0  0  0  0  0  0  0  0  0
  185.7930  178.0430  144.4090 N   0  0  0  0  0  0  0  0  0  0  0  0
  186.3770  177.6970  143.1080 C   0  0  0  0  0  2  0  0  0  0  0  0
  188.5870  176.7850  145.3830 C   0  0  2  0  0  3  0  0  0  0  0  0
  187.4040  176.5720  143.1840 C   0  0  0  0  0  2  0  0  0  0  0  0
  188.6830  177.0500  143.8670 C   0  0  2  0  0  3  0  0  0  0  0  0
  190.3080  177.9730  139.9190 C   0  0  0  0  0  2  0  0  0  0  0  0
  190.4460  174.8010  137.8460 N   0  0  0  0  0  0  0  0  0  0  0  0
  192.3250  176.6610  138.9820 C   0  0  0  0  0  2  0  0  0  0  0  0
  194.4980  173.3690  136.8650 C   0  0  0  0  0  2  0  0  0  0  0  0
  192.0400  173.8380  136.3150 C   0  0  0  0  0  2  0  0  0  0  0  0
  191.8540  174.4500  137.6950 C   0  0  1  0  0  3  0  0  0  0  0  0
  193.1850  172.8310  136.2870 C   0  0  0  0  0  2  0  0  0  0  0  0
  194.0140  175.7730  137.5050 C   0  0  0  0  0  3  0  0  0  0  0  0
  192.7430  175.6590  137.9430 C   0  0  0  0  0  0  0  0  0  0  0  0
  194.7570  174.8520  136.5750 C   0  0  2  0  0  3  0  0  0  0  0  0
  190.8370  176.7960  139.1440 C   0  0  2  0  0  3  0  0  0  0  0  0
  189.9870  175.9220  138.6050 C   0  0  0  0  0  3  0  0  0  0  0  0
  194.5670  175.2450  135.1140 C   0  0  0  0  0  2  0  0  0  0  0  0
  194.6180  176.6330  134.9840 O   0  0  0  0  0  1  0  0  0  0  0  0
  1  6  1  6  0  0  0
  1 20  1  0  0  0  0
  1 12  1  0  0  0  0
  3  9  1  0  0  0  0
  5  6  1  0  0  0  0
  5 10  1  0  0  0  0
  7  8  1  1  0  0  0
  7 12  1  0  0  0  0
 10  7  1  0  0  0  0
 11  4  1  0  0  0  0
 11 13  2  0  0  0  0
 12 11  1  1  0  0  0
 14  2  1  0  0  0  0
 15  3  2  0  0  0  0
 16  3  1  0  0  0  0
 16 14  1  0  0  0  0
 17 19  1  0  0  0  0
 17 16  1  0  0  0  0
 18  4  1  0  0  0  0
 18  2  1  1  0  0  0
 20 19  1  6  0  0  0
 20 18  1  0  0  0  0
 21  5  1  0  0  0  0
 22 32  2  0  0  0  0
 23 31  1  0  0  0  0
 26 25  1  6  0  0  0
 26 22  1  0  0  0  0
 26 29  1  0  0  0  0
 27 25  1  0  0  0  0
 27 24  1  0  0  0  0
 28 29  2  0  0  0  0
 29 23  1  0  0  0  0
 30 33  1  6  0  0  0
 30 24  1  0  0  0  0
 30 28  1  0  0  0  0
 31 21  1  6  0  0  0
 32 31  1  0  0  0  0
 34 33  1  0  0  0  0
M  END
>  <MODEL>
3

>  <REMARK>
 VINA RESULT:      -7.9      2.876      3.786
  Name = 
  3 active torsions:
  status: ('A' for Active; 'I' for Inactive)
    1  A    between atoms: C_7  and  C_29
    2  A    between atoms: N_8  and  C_18
    3  A    between atoms: C_18  and  C_30
                            x       y       z     vdW  Elec       q    Type
                         _______ _______ _______ _____ _____    ______ ____

>  <TORSDO>
F 3

$$$$
=
 OpenBabel11052415593D

 34 38  0  0  1  0  0  0  0  0999 V2000
  188.0090  177.5190  136.9260 C   0  0  1  0  0  3  0  0  0  0  0  0
  184.2340  176.7090  137.3990 C   0  0  0  0  0  2  0  0  0  0  0  0
  183.3410  177.8860  140.5030 C   0  0  0  0  0  0  0  0  0  0  0  0
  185.9170  175.8830  135.8670 N   0  0  0  0  0  2  0  0  0  0  0  0
  189.4940  176.9960  138.8290 N   0  0  0  0  0  0  0  0  0  0  0  0
  189.1510  178.0080  137.8280 C   0  0  0  0  0  2  0  0  0  0  0  0
  188.9280  175.1560  137.3070 C   0  0  2  0  0  3  0  0  0  0  0  0
  187.9030  174.6750  138.1260 O   0  0  0  0  0  1  0  0  0  0  0  0
  182.0020  177.4290  140.3340 N   0  0  0  0  0  1  0  0  0  0  0  0
  190.0150  175.7990  138.1650 C   0  0  0  0  0  2  0  0  0  0  0  0
  187.2650  175.6120  135.4780 C   0  0  0  0  0  0  0  0  0  0  0  0
  188.3960  176.1760  136.2820 C   0  0  1  0  0  3  0  0  0  0  0  0
  187.5010  174.7000  134.5970 N   0  0  0  0  0  2  0  0  0  0  0  0
  183.6190  177.9510  138.0230 C   0  0  0  0  0  2  0  0  0  0  0  0
  183.7940  178.0410  141.6690 O   0  0  0  0  0  0  0  0  0  0  0  0
  184.1650  178.1660  139.3610 N   0  0  0  0  0  0  0  0  0  0  0  0
  185.5420  178.6260  139.5760 C   0  0  0  0  0  2  0  0  0  0  0  0
  185.5420  177.0330  136.6860 C   0  0  2  0  0  3  0  0  0  0  0  0
  186.3350  178.7940  138.2840 C   0  0  0  0  0  2  0  0  0  0  0  0
  186.6620  177.4350  137.6680 C   0  0  2  0  0  3  0  0  0  0  0  0
  190.4880  177.5320  139.7710 C   0  0  0  0  0  2  0  0  0  0  0  0
  190.5880  177.7540  143.5560 N   0  0  0  0  0  2  0  0  0  0  0  0
  188.6310  177.1660  141.5280 C   0  0  0  0  0  2  0  0  0  0  0  0
  186.7920  176.8270  145.5950 C   0  0  0  0  0  2  0  0  0  0  0  0
  188.9530  178.1660  145.2780 C   0  0  0  0  0  2  0  0  0  0  0  0
  189.2770  177.3410  144.0430 C   0  0  1  0  0  3  0  0  0  0  0  0
  188.0490  177.4120  146.2480 C   0  0  0  0  0  2  0  0  0  0  0  0
  186.9010  177.5430  143.1660 C   0  0  0  0  0  3  0  0  0  0  0  0
  188.2280  177.4610  142.9460 C   0  0  0  0  0  0  0  0  0  0  0  0
  186.1900  177.6960  144.4860 C   0  0  2  0  0  3  0  0  0  0  0  0
  190.0650  177.4910  141.2160 C   0  0  0  0  0  0  0  0  0  0  0  0
  190.9520  177.7630  142.1730 C   0  0  0  0  0  3  0  0  0  0  0  0
  186.0110  179.1610  144.8680 C   0  0  0  0  0  2  0  0  0  0  0  0
  185.0310  179.2800  145.8540 O   0  0  0  0  0  1  0  0  0  0  0  0
  1 20  1  0  0  0  0
  1  6  1  1  0  0  0
  2 14  1  0  0  0  0
  3 15  2  0  0  0  0
  4 18  1  0  0  0  0
  5 21  1  0  0  0  0
  6  5  1  0  0  0  0
  7  8  1  1  0  0  0
  7 10  1  0  0  0  0
  9  3  1  0  0  0  0
 10  5  1  0  0  0  0
 11  4  1  0  0  0  0
 12 11  1  1  0  0  0
 12  1  1  0  0  0  0
 12  7  1  0  0  0  0
 13 11  2  0  0  0  0
 14 16  1  0  0  0  0
 16 17  1  0  0  0  0
 16  3  1  0  0  0  0
 18  2  1  1  0  0  0
 18 20  1  0  0  0  0
 19 17  1  0  0  0  0
 20 19  1  6  0  0  0
 21 31  1  0  0  0  0
 22 26  1  0  0  0  0
 23 29  1  0  0  0  0
 24 27  1  0  0  0  0
 25 27  1  0  0  0  0
 26 25  1  1  0  0  0
 28 30  1  0  0  0  0
 29 28  2  0  0  0  0
 29 26  1  0  0  0  0
 30 33  1  1  0  0  0
 30 24  1  0  0  0  0
 31 23  1  0  0  0  0
 31 32  2  0  0  0  0
 32 22  1  0  0  0  0
 33 34  1  0  0  0  0
M  END
>  <MODEL>
4

>  <REMARK>
 VINA RESULT:      -7.4      2.433      7.648
  Name = 
  3 active torsions:
  status: ('A' for Active; 'I' for Inactive)
    1  A    between atoms: C_7  and  C_29
    2  A    between atoms: N_8  and  C_18
    3  A    between atoms: C_18  and  C_30
                            x       y       z     vdW  Elec       q    Type
                         _______ _______ _______ _____ _____    ______ ____

>  <TORSDO>
F 3

$$$$
=
 OpenBabel11052415593D

 34 38  0  0  1  0  0  0  0  0999 V2000
  189.3260  177.3370  137.1080 C   0  0  1  0  0  3  0  0  0  0  0  0
  188.5500  173.8190  135.6420 C   0  0  0  0  0  2  0  0  0  0  0  0
  185.4670  172.8920  136.8470 C   0  0  0  0  0  0  0  0  0  0  0  0
  190.5930  175.1010  135.8550 N   0  0  0  0  0  2  0  0  0  0  0  0
  188.8880  177.6460  139.5190 N   0  0  0  0  0  0  0  0  0  0  0  0
  188.7150  178.2370  138.1910 C   0  0  0  0  0  2  0  0  0  0  0  0
  191.0230  176.6130  138.8880 C   0  0  2  0  0  3  0  0  0  0  0  0
  190.5550  175.3110  139.0890 O   0  0  0  0  0  1  0  0  0  0  0  0
  185.5290  171.6450  136.1580 N   0  0  0  0  0  1  0  0  0  0  0  0
  190.3150  177.5680  139.8440 C   0  0  0  0  0  2  0  0  0  0  0  0
  191.4110  176.1060  136.4560 C   0  0  0  0  0  0  0  0  0  0  0  0
  190.8060  177.0680  137.4320 C   0  0  1  0  0  3  0  0  0  0  0  0
  192.6940  176.0310  136.3470 N   0  0  0  0  0  2  0  0  0  0  0  0
  187.0920  173.8590  135.2170 C   0  0  0  0  0  2  0  0  0  0  0  0
  184.7320  172.9940  137.8660 O   0  0  0  0  0  0  0  0  0  0  0  0
  186.2290  174.0170  136.3860 N   0  0  0  0  0  0  0  0  0  0  0  0
  186.1460  175.2820  137.1270 C   0  0  0  0  0  2  0  0  0  0  0  0
  189.1410  175.2200  135.7430 C   0  0  2  0  0  3  0  0  0  0  0  0
  187.0770  176.3630  136.5890 C   0  0  0  0  0  2  0  0  0  0  0  0
  188.5340  176.0310  136.9060 C   0  0  2  0  0  3  0  0  0  0  0  0
  188.1770  178.4460  140.5270 C   0  0  0  0  0  2  0  0  0  0  0  0
  190.1820  178.0240  143.7180 N   0  0  0  0  0  2  0  0  0  0  0  0
  187.4590  177.6350  142.8710 C   0  0  0  0  0  2  0  0  0  0  0  0
  187.9260  176.4550  147.1650 C   0  0  0  0  0  2  0  0  0  0  0  0
  189.6510  178.0000  146.0700 C   0  0  0  0  0  2  0  0  0  0  0  0
  189.2910  177.4280  144.7070 C   0  0  1  0  0  3  0  0  0  0  0  0
  189.3500  177.0200  147.1990 C   0  0  0  0  0  2  0  0  0  0  0  0
  186.8020  177.5830  145.1920 C   0  0  0  0  0  3  0  0  0  0  0  0
  187.8340  177.6480  144.3270 C   0  0  0  0  0  0  0  0  0  0  0  0
  186.8600  177.4490  146.6920 C   0  0  2  0  0  3  0  0  0  0  0  0
  188.5430  178.1240  141.9520 C   0  0  0  0  0  0  0  0  0  0  0  0
  189.7960  178.2990  142.3700 C   0  0  0  0  0  3  0  0  0  0  0  0
  186.9240  178.8080  147.3810 C   0  0  0  0  0  2  0  0  0  0  0  0
  185.6810  179.4380  147.3080 O   0  0  0  0  0  1  0  0  0  0  0  0
  1 12  1  0  0  0  0
  1  6  1  1  0  0  0
  3 15  2  0  0  0  0
  4 11  1  0  0  0  0
  5 10  1  0  0  0  0
  5 21  1  0  0  0  0
  6  5  1  0  0  0  0
  7  8  1  6  0  0  0
  7 10  1  0  0  0  0
  9  3  1  0  0  0  0
 12 11  1  6  0  0  0
 12  7  1  0  0  0  0
 13 11  2  0  0  0  0
 14  2  1  0  0  0  0
 14 16  1  0  0  0  0
 16  3  1  0  0  0  0
 16 17  1  0  0  0  0
 18  2  1  1  0  0  0
 18  4  1  0  0  0  0
 18 20  1  0  0  0  0
 19 17  1  0  0  0  0
 20 19  1  6  0  0  0
 20  1  1  0  0  0  0
 21 31  1  0  0  0  0
 22 26  1  0  0  0  0
 23 29  1  0  0  0  0
 24 27  1  0  0  0  0
 25 27  1  0  0  0  0
 26 25  1  1  0  0  0
 28 30  1  0  0  0  0
 29 26  1  0  0  0  0
 29 28  2  0  0  0  0
 30 24  1  0  0  0  0
 30 33  1  1  0  0  0
 31 32  2  0  0  0  0
 31 23  1  0  0  0  0
 32 22  1  0  0  0  0
 34 33  1  0  0  0  0
M  END
>  <MODEL>
5

>  <REMARK>
 VINA RESULT:      -7.4      3.148      8.608
  Name = 
  3 active torsions:
  status: ('A' for Active; 'I' for Inactive)
    1  A    between atoms: C_7  and  C_29
    2  A    between atoms: N_8  and  C_18
    3  A    between atoms: C_18  and  C_30
                            x       y       z     vdW  Elec       q    Type
                         _______ _______ _______ _____ _____    ______ ____

>  <TORSDO>
F 3

$$$$
=
 OpenBabel11052415593D

 34 38  0  0  1  0  0  0  0  0999 V2000
  185.3450  177.5290  136.4540 C   0  0  1  0  0  3  0  0  0  0  0  0
  182.0620  177.4110  138.5370 C   0  0  0  0  0  2  0  0  0  0  0  0
  182.8170  178.6310  141.6610 C   0  0  0  0  0  0  0  0  0  0  0  0
  182.7460  176.3390  136.4760 N   0  0  0  0  0  2  0  0  0  0  0  0
  187.3840  176.6830  137.5620 N   0  0  0  0  0  0  0  0  0  0  0  0
  186.8300  177.7720  136.7540 C   0  0  0  0  0  2  0  0  0  0  0  0
  185.8990  175.0270  136.5230 C   0  0  2  0  0  3  0  0  0  0  0  0
  185.2570  174.7160  137.7260 O   0  0  0  0  0  1  0  0  0  0  0  0
  181.4780  178.4340  142.1050 N   0  0  0  0  0  1  0  0  0  0  0  0
  187.3450  175.4320  136.8000 C   0  0  0  0  0  2  0  0  0  0  0  0
  183.7230  175.8380  135.5620 C   0  0  0  0  0  0  0  0  0  0  0  0
  185.1700  176.1590  135.7750 C   0  0  1  0  0  3  0  0  0  0  0  0
  183.3900  174.9260  134.7120 N   0  0  0  0  0  2  0  0  0  0  0  0
  182.0080  178.7230  139.3010 C   0  0  0  0  0  2  0  0  0  0  0  0
  183.7470  178.6640  142.5110 O   0  0  0  0  0  0  0  0  0  0  0  0
  183.1050  178.7930  140.2640 N   0  0  0  0  0  0  0  0  0  0  0  0
  184.4990  178.9850  139.8450 C   0  0  0  0  0  2  0  0  0  0  0  0
  182.9720  177.5110  137.3180 C   0  0  2  0  0  3  0  0  0  0  0  0
  184.6750  179.0450  138.3310 C   0  0  0  0  0  2  0  0  0  0  0  0
  184.4560  177.6700  137.7040 C   0  0  2  0  0  3  0  0  0  0  0  0
  188.7640  176.9970  137.9590 C   0  0  0  0  0  2  0  0  0  0  0  0
  187.9550  178.0540  141.5100 N   0  0  0  0  0  2  0  0  0  0  0  0
  190.3090  177.3970  139.9900 C   0  0  0  0  0  2  0  0  0  0  0  0
  191.4370  178.5300  144.1710 C   0  0  0  0  0  2  0  0  0  0  0  0
  189.0380  177.7990  143.6490 C   0  0  0  0  0  2  0  0  0  0  0  0
  189.2260  178.2320  142.2030 C   0  0  1  0  0  3  0  0  0  0  0  0
  189.9650  178.5530  144.5960 C   0  0  0  0  0  2  0  0  0  0  0  0
  191.5060  177.1210  142.0660 C   0  0  0  0  0  3  0  0  0  0  0  0
  190.3420  177.4830  141.4900 C   0  0  0  0  0  0  0  0  0  0  0  0
  191.8890  177.2190  143.5190 C   0  0  2  0  0  3  0  0  0  0  0  0
  188.9250  177.3890  139.4040 C   0  0  0  0  0  0  0  0  0  0  0  0
  187.8500  177.6950  140.1300 C   0  0  0  0  0  3  0  0  0  0  0  0
  191.4950  175.9680  144.2960 C   0  0  0  0  0  2  0  0  0  0  0  0
  191.9580  176.0570  145.6100 O   0  0  0  0  0  1  0  0  0  0  0  0
  1  6  1  1  0  0  0
  1 20  1  0  0  0  0
  2 14  1  0  0  0  0
  3  9  1  0  0  0  0
  3 15  2  0  0  0  0
  4 18  1  0  0  0  0
  5 21  1  0  0  0  0
  6  5  1  0  0  0  0
  7 10  1  0  0  0  0
  7  8  1  1  0  0  0
 10  5  1  0  0  0  0
 11  4  1  0  0  0  0
 12 11  1  1  0  0  0
 12  1  1  0  0  0  0
 12  7  1  0  0  0  0
 13 11  2  0  0  0  0
 14 16  1  0  0  0  0
 16  3  1  0  0  0  0
 17 16  1  0  0  0  0
 18 20  1  0  0  0  0
 18  2  1  1  0  0  0
 19 17  1  0  0  0  0
 20 19  1  6  0  0  0
 21 31  1  0  0  0  0
 22 26  1  0  0  0  0
 23 29  1  0  0  0  0
 24 27  1  0  0  0  0
 25 27  1  0  0  0  0
 26 25  1  1  0  0  0
 28 30  1  0  0  0  0
 29 28  2  0  0  0  0
 29 26  1  0  0  0  0
 30 24  1  0  0  0  0
 30 33  1  1  0  0  0
 31 23  1  0  0  0  0
 31 32  2  0  0  0  0
 32 22  1  0  0  0  0
 33 34  1  0  0  0  0
M  END
>  <MODEL>
6

>  <REMARK>
 VINA RESULT:      -7.3      2.892      8.029
  Name = 
  3 active torsions:
  status: ('A' for Active; 'I' for Inactive)
    1  A    between atoms: C_7  and  C_29
    2  A    between atoms: N_8  and  C_18
    3  A    between atoms: C_18  and  C_30
                            x       y       z     vdW  Elec       q    Type
                         _______ _______ _______ _____ _____    ______ ____

>  <TORSDO>
F 3

$$$$
=
 OpenBabel11052415593D

 34 38  0  0  1  0  0  0  0  0999 V2000
  189.0140  178.4960  142.1470 C   0  0  1  0  0  3  0  0  0  0  0  0
  190.5560  176.3780  139.2720 C   0  0  0  0  0  2  0  0  0  0  0  0
  188.1390  176.0820  136.8440 C   0  0  0  0  0  0  0  0  0  0  0  0
  191.1810  176.7170  141.5860 N   0  0  0  0  0  2  0  0  0  0  0  0
  186.7290  177.8870  142.8610 N   0  0  0  0  0  0  0  0  0  0  0  0
  187.6120  179.0020  142.5110 C   0  0  0  0  0  2  0  0  0  0  0  0
  188.5860  176.5870  143.8030 C   0  0  2  0  0  3  0  0  0  0  0  0
  188.4470  175.5490  142.8760 O   0  0  0  0  0  1  0  0  0  0  0  0
  189.0010  175.2930  136.0270 N   0  0  0  0  0  1  0  0  0  0  0  0
  187.2250  177.2240  144.0700 C   0  0  0  0  0  2  0  0  0  0  0  0
  190.9020  177.0530  142.9460 C   0  0  0  0  0  0  0  0  0  0  0  0
  189.5780  177.6540  143.3050 C   0  0  1  0  0  3  0  0  0  0  0  0
  191.6810  176.6200  143.8800 N   0  0  0  0  0  2  0  0  0  0  0  0
  190.1340  177.0620  137.9810 C   0  0  0  0  0  2  0  0  0  0  0  0
  186.8920  175.9780  136.6980 O   0  0  0  0  0  0  0  0  0  0  0  0
  188.6840  176.9840  137.8190 N   0  0  0  0  0  0  0  0  0  0  0  0
  187.7640  177.7720  138.6470 C   0  0  0  0  0  2  0  0  0  0  0  0
  190.4880  177.3340  140.4570 C   0  0  2  0  0  3  0  0  0  0  0  0
  188.4690  178.6140  139.7050 C   0  0  0  0  0  2  0  0  0  0  0  0
  189.0400  177.7290  140.8110 C   0  0  2  0  0  3  0  0  0  0  0  0
  185.3570  178.3720  143.0690 C   0  0  0  0  0  2  0  0  0  0  0  0
  184.5080  179.2140  139.4700 N   0  0  0  0  0  0  0  0  0  0  0  0
  183.0960  178.3400  141.8210 C   0  0  0  0  0  2  0  0  0  0  0  0
  180.2380  178.8980  138.4210 C   0  0  0  0  0  2  0  0  0  0  0  0
  182.7390  178.5990  137.9520 C   0  0  0  0  0  2  0  0  0  0  0  0
  183.0570  179.1280  139.3420 C   0  0  1  0  0  3  0  0  0  0  0  0
  181.3960  179.1100  137.4400 C   0  0  0  0  0  2  0  0  0  0  0  0
  181.2520  177.6930  140.4070 C   0  0  0  0  0  3  0  0  0  0  0  0
  182.4630  178.2830  140.4590 C   0  0  0  0  0  0  0  0  0  0  0  0
  180.3200  177.5980  139.2270 C   0  0  2  0  0  3  0  0  0  0  0  0
  184.5760  178.6010  141.8020 C   0  0  2  0  0  3  0  0  0  0  0  0
  185.2070  179.0030  140.6990 C   0  0  0  0  0  3  0  0  0  0  0  0
  180.5950  176.3570  138.3850 C   0  0  0  0  0  2  0  0  0  0  0  0
  181.0430  175.3170  139.2000 O   0  0  0  0  0  1  0  0  0  0  0  0
  1  6  1  1  0  0  0
  1 12  1  0  0  0  0
  3 16  1  0  0  0  0
  4 11  1  0  0  0  0
  5 21  1  0  0  0  0
  5 10  1  0  0  0  0
  6  5  1  0  0  0  0
  7  8  1  6  0  0  0
  7 10  1  0  0  0  0
  9  3  1  0  0  0  0
 11 13  2  0  0  0  0
 12 11  1  6  0  0  0
 12  7  1  0  0  0  0
 14  2  1  0  0  0  0
 15  3  2  0  0  0  0
 16 14  1  0  0  0  0
 16 17  1  0  0  0  0
 17 19  1  0  0  0  0
 18  2  1  6  0  0  0
 18 20  1  0  0  0  0
 18  4  1  0  0  0  0
 20 19  1  6  0  0  0
 20  1  1  0  0  0  0
 22 32  2  0  0  0  0
 24 30  1  0  0  0  0
 26 25  1  6  0  0  0
 26 22  1  0  0  0  0
 26 29  1  0  0  0  0
 27 25  1  0  0  0  0
 27 24  1  0  0  0  0
 28 29  2  0  0  0  0
 29 23  1  0  0  0  0
 30 33  1  6  0  0  0
 30 28  1  0  0  0  0
 31 23  1  0  0  0  0
 31 21  1  6  0  0  0
 32 31  1  0  0  0  0
 33 34  1  0  0  0  0
M  END
>  <MODEL>
7

>  <REMARK>
 VINA RESULT:      -7.3      3.254      6.154
  Name = 
  3 active torsions:
  status: ('A' for Active; 'I' for Inactive)
    1  A    between atoms: C_7  and  C_29
    2  A    between atoms: N_8  and  C_18
    3  A    between atoms: C_18  and  C_30
                            x       y       z     vdW  Elec       q    Type
                         _______ _______ _______ _____ _____    ______ ____

>  <TORSDO>
F 3

$$$$
=
 OpenBabel11052415593D

 34 38  0  0  1  0  0  0  0  0999 V2000
  188.7750  177.8210  137.1460 C   0  0  1  0  0  3  0  0  0  0  0  0
  185.2300  176.3790  136.4530 C   0  0  0  0  0  2  0  0  0  0  0  0
  183.3060  177.0880  139.2120 C   0  0  0  0  0  0  0  0  0  0  0  0
  187.3950  175.9850  135.4440 N   0  0  0  0  0  2  0  0  0  0  0  0
  189.7360  177.3570  139.3740 N   0  0  0  0  0  0  0  0  0  0  0  0
  189.5100  178.3950  138.3650 C   0  0  0  0  0  2  0  0  0  0  0  0
  189.9620  175.6090  137.6660 C   0  0  2  0  0  3  0  0  0  0  0  0
  188.8520  174.8920  138.1250 O   0  0  0  0  0  1  0  0  0  0  0  0
  182.1730  176.4430  138.6360 N   0  0  0  0  0  1  0  0  0  0  0  0
  190.6290  176.3290  138.8350 C   0  0  0  0  0  2  0  0  0  0  0  0
  188.8230  175.9720  135.4540 C   0  0  0  0  0  0  0  0  0  0  0  0
  189.5630  176.6260  136.5800 C   0  0  1  0  0  3  0  0  0  0  0  0
  189.4580  175.1990  134.6390 N   0  0  0  0  0  2  0  0  0  0  0  0
  184.2500  177.4390  136.9280 C   0  0  0  0  0  2  0  0  0  0  0  0
  183.3780  177.1980  140.4650 O   0  0  0  0  0  0  0  0  0  0  0  0
  184.3510  177.6070  138.3760 N   0  0  0  0  0  0  0  0  0  0  0  0
  185.5060  178.2570  139.0070 C   0  0  0  0  0  2  0  0  0  0  0  0
  186.6050  176.9750  136.1710 C   0  0  2  0  0  3  0  0  0  0  0  0
  186.5860  178.6740  138.0140 C   0  0  0  0  0  2  0  0  0  0  0  0
  187.3120  177.4520  137.4560 C   0  0  2  0  0  3  0  0  0  0  0  0
  190.3130  177.9490  140.5910 C   0  0  0  0  0  2  0  0  0  0  0  0
  187.4070  177.0860  142.8690 N   0  0  0  0  0  2  0  0  0  0  0  0
  189.9610  178.3900  143.1100 C   0  0  0  0  0  2  0  0  0  0  0  0
  187.8330  178.4190  147.0490 C   0  0  0  0  0  2  0  0  0  0  0  0
  187.1510  176.7380  145.2410 C   0  0  0  0  0  2  0  0  0  0  0  0
  187.6970  177.6720  144.1730 C   0  0  1  0  0  3  0  0  0  0  0  0
  186.7440  177.4890  146.5040 C   0  0  0  0  0  2  0  0  0  0  0  0
  189.8170  178.1090  145.5020 C   0  0  0  0  0  3  0  0  0  0  0  0
  189.1850  177.9530  144.3210 C   0  0  0  0  0  0  0  0  0  0  0  0
  189.2610  177.8880  146.8850 C   0  0  2  0  0  3  0  0  0  0  0  0
  189.4420  177.8350  141.8140 C   0  0  0  0  0  0  0  0  0  0  0  0
  188.2560  177.2330  141.7290 C   0  0  0  0  0  3  0  0  0  0  0  0
  189.4490  176.4480  147.3490 C   0  0  0  0  0  2  0  0  0  0  0  0
  190.8030  176.1900  147.5660 O   0  0  0  0  0  1  0  0  0  0  0  0
  1 20  1  0  0  0  0
  1  6  1  1  0  0  0
  2 14  1  0  0  0  0
  3 15  2  0  0  0  0
  4 11  1  0  0  0  0
  4 18  1  0  0  0  0
  5 21  1  0  0  0  0
  6  5  1  0  0  0  0
  7  8  1  1  0  0  0
  7 10  1  0  0  0  0
  9  3  1  0  0  0  0
 10  5  1  0  0  0  0
 12 11  1  6  0  0  0
 12  1  1  0  0  0  0
 12  7  1  0  0  0  0
 13 11  2  0  0  0  0
 14 16  1  0  0  0  0
 16 17  1  0  0  0  0
 16  3  1  0  0  0  0
 18  2  1  1  0  0  0
 18 20  1  0  0  0  0
 19 17  1  0  0  0  0
 20 19  1  6  0  0  0
 21 31  1  0  0  0  0
 22 26  1  0  0  0  0
 23 29  1  0  0  0  0
 25 27  1  0  0  0  0
 26 29  1  0  0  0  0
 26 25  1  1  0  0  0
 27 24  1  0  0  0  0
 28 30  1  0  0  0  0
 29 28  2  0  0  0  0
 30 24  1  0  0  0  0
 30 33  1  6  0  0  0
 31 23  1  0  0  0  0
 32 31  2  0  0  0  0
 32 22  1  0  0  0  0
 33 34  1  0  0  0  0
M  END
>  <MODEL>
8

>  <REMARK>
 VINA RESULT:      -7.2      2.591      8.085
  Name = 
  3 active torsions:
  status: ('A' for Active; 'I' for Inactive)
    1  A    between atoms: C_7  and  C_29
    2  A    between atoms: N_8  and  C_18
    3  A    between atoms: C_18  and  C_30
                            x       y       z     vdW  Elec       q    Type
                         _______ _______ _______ _____ _____    ______ ____

>  <TORSDO>
F 3

$$$$
=
 OpenBabel11052415593D

 34 38  0  0  1  0  0  0  0  0999 V2000
  183.6340  179.3110  139.9930 C   0  0  1  0  0  3  0  0  0  0  0  0
  183.9810  178.2530  143.7200 C   0  0  0  0  0  2  0  0  0  0  0  0
  187.2130  177.1650  144.1520 C   0  0  0  0  0  0  0  0  0  0  0  0
  182.0670  178.6440  142.2890 N   0  0  0  0  0  2  0  0  0  0  0  0
  184.5620  177.7550  138.3150 N   0  0  0  0  0  0  0  0  0  0  0  0
  184.4810  179.1590  138.7230 C   0  0  0  0  0  2  0  0  0  0  0  0
  182.3110  177.2760  139.1680 C   0  0  2  0  0  3  0  0  0  0  0  0
  182.7680  176.3490  140.1100 O   0  0  0  0  0  1  0  0  0  0  0  0
  186.9720  176.8710  145.5260 N   0  0  0  0  0  1  0  0  0  0  0  0
  183.2300  177.2680  137.9490 C   0  0  0  0  0  2  0  0  0  0  0  0
  181.4220  178.7280  141.0180 C   0  0  0  0  0  0  0  0  0  0  0  0
  182.2420  178.6950  139.7650 C   0  0  1  0  0  3  0  0  0  0  0  0
  180.1410  178.5880  140.9440 N   0  0  0  0  0  2  0  0  0  0  0  0
  185.3230  178.7960  144.1820 C   0  0  0  0  0  2  0  0  0  0  0  0
  188.1420  176.5630  143.5500 O   0  0  0  0  0  0  0  0  0  0  0  0
  186.4100  178.1340  143.4630 N   0  0  0  0  0  0  0  0  0  0  0  0
  186.6830  178.4030  142.0460 C   0  0  0  0  0  2  0  0  0  0  0  0
  183.4690  179.0000  142.4940 C   0  0  2  0  0  3  0  0  0  0  0  0
  185.6970  179.3780  141.4110 C   0  0  0  0  0  2  0  0  0  0  0  0
  184.3250  178.7290  141.2410 C   0  0  2  0  0  3  0  0  0  0  0  0
  185.4890  177.6070  137.1830 C   0  0  0  0  0  2  0  0  0  0  0  0
  188.6710  177.5550  139.2460 N   0  0  0  0  0  2  0  0  0  0  0  0
  187.9060  176.9740  136.5330 C   0  0  0  0  0  2  0  0  0  0  0  0
  192.3120  176.3780  137.0580 C   0  0  0  0  0  2  0  0  0  0  0  0
  190.7700  176.3780  139.1040 C   0  0  0  0  0  2  0  0  0  0  0  0
  189.7630  177.2220  138.3380 C   0  0  1  0  0  3  0  0  0  0  0  0
  192.1890  176.5600  138.5750 C   0  0  0  0  0  2  0  0  0  0  0  0
  189.9830  175.7750  136.2620 C   0  0  0  0  0  3  0  0  0  0  0  0
  189.2370  176.5420  137.0830 C   0  0  0  0  0  0  0  0  0  0  0  0
  191.3960  175.2980  136.4730 C   0  0  2  0  0  3  0  0  0  0  0  0
  186.9340  177.4500  137.5750 C   0  0  0  0  0  0  0  0  0  0  0  0
  187.3130  177.7100  138.8260 C   0  0  0  0  0  3  0  0  0  0  0  0
  191.4420  173.9690  137.2190 C   0  0  0  0  0  2  0  0  0  0  0  0
  190.1780  173.3780  137.2180 O   0  0  0  0  0  1  0  0  0  0  0  0
  1  6  1  6  0  0  0
  1 20  1  0  0  0  0
  2 14  1  0  0  0  0
  3  9  1  0  0  0  0
  4 18  1  0  0  0  0
  5  6  1  0  0  0  0
  7 12  1  0  0  0  0
  7  8  1  1  0  0  0
 10  5  1  0  0  0  0
 10  7  1  0  0  0  0
 11  4  1  0  0  0  0
 12  1  1  0  0  0  0
 12 11  1  1  0  0  0
 13 11  2  0  0  0  0
 15  3  2  0  0  0  0
 16  3  1  0  0  0  0
 16 14  1  0  0  0  0
 17 16  1  0  0  0  0
 18  2  1  1  0  0  0
 19 17  1  0  0  0  0
 20 19  1  1  0  0  0
 20 18  1  0  0  0  0
 21 31  1  0  0  0  0
 21  5  1  0  0  0  0
 23 29  1  0  0  0  0
 23 31  1  0  0  0  0
 24 27  1  0  0  0  0
 26 25  1  1  0  0  0
 26 22  1  0  0  0  0
 27 25  1  0  0  0  0
 28 30  1  0  0  0  0
 28 29  2  0  0  0  0
 29 26  1  0  0  0  0
 30 24  1  0  0  0  0
 30 33  1  1  0  0  0
 31 32  2  0  0  0  0
 32 22  1  0  0  0  0
 34 33  1  0  0  0  0
M  END
>  <MODEL>
9

>  <REMARK>
 VINA RESULT:      -7.0      2.919      6.437
  Name = 
  3 active torsions:
  status: ('A' for Active; 'I' for Inactive)
    1  A    between atoms: C_7  and  C_29
    2  A    between atoms: N_8  and  C_18
    3  A    between atoms: C_18  and  C_30
                            x       y       z     vdW  Elec       q    Type
                         _______ _______ _______ _____ _____    ______ ____

>  <TORSDO>
F 3

$$$$
