=
 OpenBabel11052413553D

 27 29  0  0  1  0  0  0  0  0999 V2000
  189.5200  177.2520  144.5310 C   0  0  1  0  0  3  0  0  0  0  0  0
  189.9280  178.0860  143.3270 C   0  0  1  0  0  3  0  0  0  0  0  0
  190.8260  177.6080  145.2170 C   0  0  2  0  0  3  0  0  0  0  0  0
  191.2590  179.7790  144.3350 O   0  0  0  0  0  1  0  0  0  0  0  0
  191.2440  178.4240  144.0040 C   0  0  2  0  0  3  0  0  0  0  0  0
  191.3600  177.5290  141.0900 O   0  0  0  0  0  0  0  0  0  0  0  0
  190.1830  177.0480  141.8920 S   0  0  0  0  0  0  0  0  0  0  0  0
  190.4310  175.6310  142.3290 O   0  0  0  0  0  0  0  0  0  0  0  0
  188.7190  177.1020  140.8740 C   0  0  0  0  0  2  0  0  0  0  0  0
  189.7090  177.8950  136.7770 C   0  0  0  0  0  3  0  0  0  0  0  0
  189.0770  177.3850  139.4550 C   0  0  0  0  0  0  0  0  0  0  0  0
  189.7100  176.4030  138.6840 C   0  0  0  0  0  3  0  0  0  0  0  0
  190.0280  176.6580  137.3470 C   0  0  0  0  0  3  0  0  0  0  0  0
  189.0720  178.8760  137.5430 C   0  0  0  0  0  3  0  0  0  0  0  0
  188.7550  178.6200  138.8810 C   0  0  0  0  0  3  0  0  0  0  0  0
  191.6800  176.3880  145.3420 C   0  0  0  0  0  3  0  0  0  0  0  0
  192.0560  176.0110  146.4390 O   0  0  0  0  0  0  0  0  0  0  0  0
  188.4120  177.8950  145.2240 N   0  0  0  0  0  2  0  0  0  0  0  0
  187.1760  177.4230  144.6130 C   0  0  0  0  0  2  0  0  0  0  0  0
  184.0160  178.7450  143.3750 C   0  0  0  0  0  3  0  0  0  0  0  0
  183.1500  178.6100  144.5940 C   0  0  0  0  0  2  0  0  0  0  0  0
  183.9110  179.0050  145.8510 C   0  0  0  0  0  2  0  0  0  0  0  0
  186.0940  178.4890  144.7270 C   0  0  2  0  0  3  0  0  0  0  0  0
  185.1840  178.1770  145.9210 C   0  0  0  0  0  2  0  0  0  0  0  0
  185.3570  178.6430  143.4140 C   0  0  0  0  0  0  0  0  0  0  0  0
  185.5400  179.0000  140.9630 C   0  0  0  0  0  1  0  0  0  0  0  0
  186.1140  178.7600  142.2420 O   0  0  0  0  0  0  0  0  0  0  0  0
  1  3  1  0  0  0  0
  1 18  1  1  0  0  0
  2  7  1  6  0  0  0
  2  5  1  0  0  0  0
  2  1  1  0  0  0  0
  3 16  1  6  0  0  0
  5  4  1  1  0  0  0
  5  3  1  0  0  0  0
  6  7  2  0  0  0  0
  7  8  2  0  0  0  0
  9  7  1  0  0  0  0
 10 13  2  0  0  0  0
 10 14  1  0  0  0  0
 11  9  1  0  0  0  0
 12 11  2  0  0  0  0
 13 12  1  0  0  0  0
 14 15  2  0  0  0  0
 15 11  1  0  0  0  0
 16 17  2  0  0  0  0
 19 18  1  0  0  0  0
 20 25  2  0  0  0  0
 20 21  1  0  0  0  0
 21 22  1  0  0  0  0
 22 24  1  0  0  0  0
 23 19  1  6  0  0  0
 23 24  1  0  0  0  0
 25 23  1  0  0  0  0
 26 27  1  0  0  0  0
 27 25  1  0  0  0  0
M  END
>  <MODEL>
1

>  <REMARK>
 VINA RESULT:      -7.6      0.000      0.000
  Name = 
  8 active torsions:
  status: ('A' for Active; 'I' for Inactive)
    1  A    between atoms: S_2  and  C_15
    2  A    between atoms: S_2  and  C_18
    3  A    between atoms: C_3  and  N_26
    4  A    between atoms: C_9  and  C_15
    5  A    between atoms: C_10  and  C_20
    6  A    between atoms: C_12  and  C_14
    7  A    between atoms: C_12  and  N_26
    8  A    between atoms: C_17  and  O_21
                            x       y       z     vdW  Elec       q    Type
                         _______ _______ _______ _____ _____    ______ ____

>  <TORSDO>
F 8

$$$$
=
 OpenBabel11052413553D

 27 29  0  0  1  0  0  0  0  0999 V2000
  189.4090  177.5290  142.8090 C   0  0  1  0  0  3  0  0  0  0  0  0
  189.6730  176.6160  143.9970 C   0  0  1  0  0  3  0  0  0  0  0  0
  190.4400  176.7660  141.9970 C   0  0  2  0  0  3  0  0  0  0  0  0
  190.2630  174.5780  142.9230 O   0  0  0  0  0  1  0  0  0  0  0  0
  190.7210  175.8670  143.1920 C   0  0  2  0  0  3  0  0  0  0  0  0
  191.8800  177.1990  145.4640 O   0  0  0  0  0  0  0  0  0  0  0  0
  190.4180  177.5270  145.3440 S   0  0  0  0  0  0  0  0  0  0  0  0
  190.2610  179.0030  145.1060 O   0  0  0  0  0  0  0  0  0  0  0  0
  189.5930  177.0860  146.8630 C   0  0  0  0  0  2  0  0  0  0  0  0
  185.6270  178.7150  146.9970 C   0  0  0  0  0  3  0  0  0  0  0  0
  188.2200  177.6660  146.9030 C   0  0  0  0  0  0  0  0  0  0  0  0
  187.2930  177.3380  145.9060 C   0  0  0  0  0  3  0  0  0  0  0  0
  185.9980  177.8640  145.9520 C   0  0  0  0  0  3  0  0  0  0  0  0
  186.5490  179.0420  147.9960 C   0  0  0  0  0  3  0  0  0  0  0  0
  187.8450  178.5160  147.9500 C   0  0  0  0  0  3  0  0  0  0  0  0
  191.6160  177.6460  141.7210 C   0  0  0  0  0  3  0  0  0  0  0  0
  192.1200  177.6680  140.6110 O   0  0  0  0  0  0  0  0  0  0  0  0
  188.0790  177.2710  142.2750 N   0  0  0  0  0  2  0  0  0  0  0  0
  187.8630  178.1930  141.1680 C   0  0  0  0  0  2  0  0  0  0  0  0
  184.3440  178.3820  140.2460 C   0  0  0  0  0  3  0  0  0  0  0  0
  183.6850  178.1520  141.5750 C   0  0  0  0  0  2  0  0  0  0  0  0
  184.4120  178.8990  142.6830 C   0  0  0  0  0  2  0  0  0  0  0  0
  186.5270  178.9050  141.3310 C   0  0  2  0  0  3  0  0  0  0  0  0
  185.8770  178.4900  142.6560 C   0  0  0  0  0  2  0  0  0  0  0  0
  185.6500  178.6780  140.1180 C   0  0  0  0  0  0  0  0  0  0  0  0
  185.9530  178.0120  137.7450 C   0  0  0  0  0  1  0  0  0  0  0  0
  186.2160  178.8660  138.8510 O   0  0  0  0  0  0  0  0  0  0  0  0
  1 18  1  6  0  0  0
  1  2  1  0  0  0  0
  2  7  1  1  0  0  0
  3 16  1  1  0  0  0
  3  1  1  0  0  0  0
  3  5  1  0  0  0  0
  5  4  1  6  0  0  0
  5  2  1  0  0  0  0
  7  6  2  0  0  0  0
  7  9  1  0  0  0  0
  8  7  2  0  0  0  0
  9 11  1  0  0  0  0
 10 14  1  0  0  0  0
 11 15  1  0  0  0  0
 12 13  1  0  0  0  0
 12 11  2  0  0  0  0
 13 10  2  0  0  0  0
 15 14  2  0  0  0  0
 17 16  2  0  0  0  0
 19 18  1  0  0  0  0
 20 21  1  0  0  0  0
 21 22  1  0  0  0  0
 23 19  1  6  0  0  0
 23 24  1  0  0  0  0
 24 22  1  0  0  0  0
 25 20  2  0  0  0  0
 25 23  1  0  0  0  0
 26 27  1  0  0  0  0
 27 25  1  0  0  0  0
M  END
>  <MODEL>
2

>  <REMARK>
 VINA RESULT:      -7.6      2.294      5.544
  Name = 
  8 active torsions:
  status: ('A' for Active; 'I' for Inactive)
    1  A    between atoms: S_2  and  C_15
    2  A    between atoms: S_2  and  C_18
    3  A    between atoms: C_3  and  N_26
    4  A    between atoms: C_9  and  C_15
    5  A    between atoms: C_10  and  C_20
    6  A    between atoms: C_12  and  C_14
    7  A    between atoms: C_12  and  N_26
    8  A    between atoms: C_17  and  O_21
                            x       y       z     vdW  Elec       q    Type
                         _______ _______ _______ _____ _____    ______ ____

>  <TORSDO>
F 8

$$$$
=
 OpenBabel11052413553D

 27 29  0  0  1  0  0  0  0  0999 V2000
  189.6230  177.5440  142.5200 C   0  0  1  0  0  3  0  0  0  0  0  0
  189.5860  176.6560  143.7540 C   0  0  1  0  0  3  0  0  0  0  0  0
  190.7340  176.6860  141.9410 C   0  0  2  0  0  3  0  0  0  0  0  0
  190.2230  174.5470  142.8600 O   0  0  0  0  0  1  0  0  0  0  0  0
  190.7120  175.8120  143.1860 C   0  0  2  0  0  3  0  0  0  0  0  0
  191.5290  177.1940  145.5700 O   0  0  0  0  0  0  0  0  0  0  0  0
  190.1180  177.5620  145.2020 S   0  0  0  0  0  0  0  0  0  0  0  0
  190.0490  179.0390  144.9310 O   0  0  0  0  0  0  0  0  0  0  0  0
  189.0360  177.1630  146.5630 C   0  0  0  0  0  2  0  0  0  0  0  0
  185.0990  178.7350  145.9120 C   0  0  0  0  0  3  0  0  0  0  0  0
  187.6740  177.7230  146.3330 C   0  0  0  0  0  0  0  0  0  0  0  0
  187.0210  177.4980  145.1150 C   0  0  0  0  0  3  0  0  0  0  0  0
  185.7360  178.0060  144.9040 C   0  0  0  0  0  3  0  0  0  0  0  0
  185.7460  178.9580  147.1310 C   0  0  0  0  0  3  0  0  0  0  0  0
  187.0320  178.4510  147.3420 C   0  0  0  0  0  3  0  0  0  0  0  0
  192.0020  177.4750  141.8820 C   0  0  0  0  0  3  0  0  0  0  0  0
  192.6270  177.5570  140.8390 O   0  0  0  0  0  0  0  0  0  0  0  0
  188.4070  177.3570  141.7410 N   0  0  0  0  0  2  0  0  0  0  0  0
  188.4250  178.3280  140.6550 C   0  0  0  0  0  2  0  0  0  0  0  0
  187.6140  178.4880  137.1080 C   0  0  0  0  0  3  0  0  0  0  0  0
  188.9660  178.2670  136.4930 C   0  0  0  0  0  2  0  0  0  0  0  0
  189.7350  177.1860  137.2380 C   0  0  0  0  0  2  0  0  0  0  0  0
  188.3870  177.6140  139.3110 C   0  0  2  0  0  3  0  0  0  0  0  0
  189.7960  177.5680  138.7090 C   0  0  0  0  0  2  0  0  0  0  0  0
  187.3500  178.2410  138.4030 C   0  0  0  0  0  0  0  0  0  0  0  0
  184.8760  178.0640  138.2860 C   0  0  0  0  0  1  0  0  0  0  0  0
  186.0740  178.4810  138.9280 O   0  0  0  0  0  0  0  0  0  0  0  0
  1 18  1  6  0  0  0
  1  2  1  0  0  0  0
  2  7  1  1  0  0  0
  3 16  1  1  0  0  0
  3  1  1  0  0  0  0
  3  5  1  0  0  0  0
  5  4  1  6  0  0  0
  5  2  1  0  0  0  0
  7  6  2  0  0  0  0
  7  9  1  0  0  0  0
  8  7  2  0  0  0  0
 10 14  1  0  0  0  0
 11  9  1  0  0  0  0
 11 15  1  0  0  0  0
 12 11  2  0  0  0  0
 13 12  1  0  0  0  0
 13 10  2  0  0  0  0
 14 15  2  0  0  0  0
 17 16  2  0  0  0  0
 19 18  1  0  0  0  0
 20 25  2  0  0  0  0
 21 20  1  0  0  0  0
 21 22  1  0  0  0  0
 22 24  1  0  0  0  0
 23 19  1  1  0  0  0
 24 23  1  0  0  0  0
 25 27  1  0  0  0  0
 25 23  1  0  0  0  0
 26 27  1  0  0  0  0
M  END
>  <MODEL>
3

>  <REMARK>
 VINA RESULT:      -7.3      1.874      6.375
  Name = 
  8 active torsions:
  status: ('A' for Active; 'I' for Inactive)
    1  A    between atoms: S_2  and  C_15
    2  A    between atoms: S_2  and  C_18
    3  A    between atoms: C_3  and  N_26
    4  A    between atoms: C_9  and  C_15
    5  A    between atoms: C_10  and  C_20
    6  A    between atoms: C_12  and  C_14
    7  A    between atoms: C_12  and  N_26
    8  A    between atoms: C_17  and  O_21
                            x       y       z     vdW  Elec       q    Type
                         _______ _______ _______ _____ _____    ______ ____

>  <TORSDO>
F 8

$$$$
=
 OpenBabel11052413553D

 27 29  0  0  1  0  0  0  0  0999 V2000
  190.7290  177.6360  142.1130 C   0  0  1  0  0  3  0  0  0  0  0  0
  190.0640  176.4300  142.7590 C   0  0  1  0  0  3  0  0  0  0  0  0
  191.6740  177.7440  143.2960 C   0  0  2  0  0  3  0  0  0  0  0  0
  191.8710  175.4670  143.9690 O   0  0  0  0  0  1  0  0  0  0  0  0
  190.9950  176.5520  143.9520 C   0  0  2  0  0  3  0  0  0  0  0  0
  187.7310  177.6880  142.1790 O   0  0  0  0  0  0  0  0  0  0  0  0
  188.3750  176.8050  143.2110 S   0  0  0  0  0  0  0  0  0  0  0  0
  187.5870  175.5300  143.3310 O   0  0  0  0  0  0  0  0  0  0  0  0
  188.3720  177.6470  144.7840 C   0  0  0  0  0  2  0  0  0  0  0  0
  184.3630  178.6680  145.9160 C   0  0  0  0  0  3  0  0  0  0  0  0
  186.9840  178.0170  145.1800 C   0  0  0  0  0  0  0  0  0  0  0  0
  186.0210  178.2740  144.1960 C   0  0  0  0  0  3  0  0  0  0  0  0
  184.7130  178.6010  144.5640 C   0  0  0  0  0  3  0  0  0  0  0  0
  185.3210  178.4080  146.9010 C   0  0  0  0  0  3  0  0  0  0  0  0
  186.6300  178.0810  146.5330 C   0  0  0  0  0  3  0  0  0  0  0  0
  191.3840  178.9940  144.0610 C   0  0  0  0  0  3  0  0  0  0  0  0
  192.2920  179.7420  144.3830 O   0  0  0  0  0  0  0  0  0  0  0  0
  191.4700  177.2170  140.9320 N   0  0  0  0  0  2  0  0  0  0  0  0
  190.5100  176.6800  139.9760 C   0  0  0  0  0  2  0  0  0  0  0  0
  189.9810  176.8270  136.3750 C   0  0  0  0  0  3  0  0  0  0  0  0
  188.8300  177.7860  136.2920 C   0  0  0  0  0  2  0  0  0  0  0  0
  189.0080  178.9400  137.2680 C   0  0  0  0  0  2  0  0  0  0  0  0
  190.4980  177.5280  138.7120 C   0  0  2  0  0  3  0  0  0  0  0  0
  189.2130  178.3630  138.6600 C   0  0  0  0  0  2  0  0  0  0  0  0
  190.7200  176.6640  137.4880 C   0  0  0  0  0  0  0  0  0  0  0  0
  191.6020  174.3540  137.2550 C   0  0  0  0  0  1  0  0  0  0  0  0
  191.7730  175.7410  137.5150 O   0  0  0  0  0  0  0  0  0  0  0  0
  1 18  1  6  0  0  0
  1  2  1  0  0  0  0
  1  3  1  0  0  0  0
  2  7  1  1  0  0  0
  2  5  1  0  0  0  0
  3  5  1  0  0  0  0
  3 16  1  1  0  0  0
  5  4  1  6  0  0  0
  6  7  2  0  0  0  0
  7  8  2  0  0  0  0
  7  9  1  0  0  0  0
  9 11  1  0  0  0  0
 10 14  1  0  0  0  0
 11 15  1  0  0  0  0
 12 13  1  0  0  0  0
 12 11  2  0  0  0  0
 13 10  2  0  0  0  0
 15 14  2  0  0  0  0
 16 17  2  0  0  0  0
 19 18  1  0  0  0  0
 20 25  2  0  0  0  0
 21 20  1  0  0  0  0
 21 22  1  0  0  0  0
 22 24  1  0  0  0  0
 23 19  1  1  0  0  0
 24 23  1  0  0  0  0
 25 27  1  0  0  0  0
 25 23  1  0  0  0  0
 26 27  1  0  0  0  0
M  END
>  <MODEL>
4

>  <REMARK>
 VINA RESULT:      -7.0      1.930      6.765
  Name = 
  8 active torsions:
  status: ('A' for Active; 'I' for Inactive)
    1  A    between atoms: S_2  and  C_15
    2  A    between atoms: S_2  and  C_18
    3  A    between atoms: C_3  and  N_26
    4  A    between atoms: C_9  and  C_15
    5  A    between atoms: C_10  and  C_20
    6  A    between atoms: C_12  and  C_14
    7  A    between atoms: C_12  and  N_26
    8  A    between atoms: C_17  and  O_21
                            x       y       z     vdW  Elec       q    Type
                         _______ _______ _______ _____ _____    ______ ____

>  <TORSDO>
F 8

$$$$
=
 OpenBabel11052413553D

 27 29  0  0  1  0  0  0  0  0999 V2000
  189.4580  176.3440  142.9320 C   0  0  1  0  0  3  0  0  0  0  0  0
  189.7720  177.6580  142.2340 C   0  0  1  0  0  3  0  0  0  0  0  0
  190.5780  176.6070  143.9220 C   0  0  2  0  0  3  0  0  0  0  0  0
  190.5770  178.9870  144.0330 O   0  0  0  0  0  1  0  0  0  0  0  0
  190.9060  177.9100  143.2100 C   0  0  2  0  0  3  0  0  0  0  0  0
  191.8190  177.8190  140.4600 O   0  0  0  0  0  0  0  0  0  0  0  0
  190.3900  177.3660  140.5800 S   0  0  0  0  0  0  0  0  0  0  0  0
  190.3090  175.9000  140.2600 O   0  0  0  0  0  0  0  0  0  0  0  0
  189.3880  178.2790  139.4210 C   0  0  0  0  0  2  0  0  0  0  0  0
  188.6610  175.9970  135.8620 C   0  0  0  0  0  3  0  0  0  0  0  0
  189.1420  177.4730  138.1910 C   0  0  0  0  0  0  0  0  0  0  0  0
  187.8780  176.9160  137.9610 C   0  0  0  0  0  3  0  0  0  0  0  0
  187.6380  176.1770  136.7990 C   0  0  0  0  0  3  0  0  0  0  0  0
  189.9230  176.5550  136.0870 C   0  0  0  0  0  3  0  0  0  0  0  0
  190.1630  177.2940  137.2500 C   0  0  0  0  0  3  0  0  0  0  0  0
  191.6760  175.6130  143.7190 C   0  0  0  0  0  3  0  0  0  0  0  0
  192.1750  175.0440  144.6750 O   0  0  0  0  0  0  0  0  0  0  0  0
  188.1740  176.4400  143.6100 N   0  0  0  0  0  2  0  0  0  0  0  0
  187.5250  177.6620  143.1550 C   0  0  0  0  0  2  0  0  0  0  0  0
  184.7530  178.8550  145.1960 C   0  0  0  0  0  3  0  0  0  0  0  0
  183.8940  179.5160  144.1570 C   0  0  0  0  0  2  0  0  0  0  0  0
  183.8400  178.6850  142.8830 C   0  0  0  0  0  2  0  0  0  0  0  0
  186.0330  177.6090  143.4560 C   0  0  2  0  0  3  0  0  0  0  0  0
  185.2640  178.4310  142.4160 C   0  0  0  0  0  2  0  0  0  0  0  0
  185.7640  178.0210  144.8880 C   0  0  0  0  0  0  0  0  0  0  0  0
  187.0470  178.1770  147.0080 C   0  0  0  0  0  1  0  0  0  0  0  0
  186.5440  177.4450  145.8980 O   0  0  0  0  0  0  0  0  0  0  0  0
  1 18  1  1  0  0  0
  1  3  1  0  0  0  0
  2  7  1  6  0  0  0
  2  1  1  0  0  0  0
  2  5  1  0  0  0  0
  3 16  1  6  0  0  0
  5  3  1  0  0  0  0
  5  4  1  1  0  0  0
  6  7  2  0  0  0  0
  8  7  2  0  0  0  0
  9  7  1  0  0  0  0
 10 14  2  0  0  0  0
 10 13  1  0  0  0  0
 11  9  1  0  0  0  0
 12 11  1  0  0  0  0
 13 12  2  0  0  0  0
 14 15  1  0  0  0  0
 15 11  2  0  0  0  0
 16 17  2  0  0  0  0
 19 18  1  0  0  0  0
 21 20  1  0  0  0  0
 22 21  1  0  0  0  0
 23 19  1  6  0  0  0
 23 25  1  0  0  0  0
 24 22  1  0  0  0  0
 24 23  1  0  0  0  0
 25 20  2  0  0  0  0
 25 27  1  0  0  0  0
 27 26  1  0  0  0  0
M  END
>  <MODEL>
5

>  <REMARK>
 VINA RESULT:      -6.9      1.665      2.386
  Name = 
  8 active torsions:
  status: ('A' for Active; 'I' for Inactive)
    1  A    between atoms: S_2  and  C_15
    2  A    between atoms: S_2  and  C_18
    3  A    between atoms: C_3  and  N_26
    4  A    between atoms: C_9  and  C_15
    5  A    between atoms: C_10  and  C_20
    6  A    between atoms: C_12  and  C_14
    7  A    between atoms: C_12  and  N_26
    8  A    between atoms: C_17  and  O_21
                            x       y       z     vdW  Elec       q    Type
                         _______ _______ _______ _____ _____    ______ ____

>  <TORSDO>
F 8

$$$$
=
 OpenBabel11052413553D

 27 29  0  0  1  0  0  0  0  0999 V2000
  187.6130  177.7260  139.2130 C   0  0  1  0  0  3  0  0  0  0  0  0
  187.3830  178.2090  137.7890 C   0  0  1  0  0  3  0  0  0  0  0  0
  189.1010  177.9800  139.0550 C   0  0  2  0  0  3  0  0  0  0  0  0
  189.1200  179.8120  137.5310 O   0  0  0  0  0  1  0  0  0  0  0  0
  188.8740  178.4420  137.6240 C   0  0  2  0  0  3  0  0  0  0  0  0
  187.6340  176.7890  135.4910 O   0  0  0  0  0  0  0  0  0  0  0  0
  186.8150  176.8690  136.7490 S   0  0  0  0  0  0  0  0  0  0  0  0
  186.9240  175.5680  137.4930 O   0  0  0  0  0  0  0  0  0  0  0  0
  185.1080  177.1580  136.3170 C   0  0  0  0  0  2  0  0  0  0  0  0
  182.6240  176.7430  139.7890 C   0  0  0  0  0  3  0  0  0  0  0  0
  184.2330  177.0200  137.5150 C   0  0  0  0  0  0  0  0  0  0  0  0
  183.6330  175.7890  137.8060 C   0  0  0  0  0  3  0  0  0  0  0  0
  182.8270  175.6510  138.9400 C   0  0  0  0  0  3  0  0  0  0  0  0
  183.2250  177.9730  139.5050 C   0  0  0  0  0  3  0  0  0  0  0  0
  184.0300  178.1100  138.3690 C   0  0  0  0  0  3  0  0  0  0  0  0
  189.8390  176.6820  139.0710 C   0  0  0  0  0  3  0  0  0  0  0  0
  190.5360  176.3830  140.0260 O   0  0  0  0  0  0  0  0  0  0  0  0
  187.0510  178.6830  140.1550 N   0  0  0  0  0  2  0  0  0  0  0  0
  187.5680  178.3560  141.4770 C   0  0  0  0  0  2  0  0  0  0  0  0
  186.2750  178.0280  144.8670 C   0  0  0  0  0  3  0  0  0  0  0  0
  185.0350  178.8710  144.7850 C   0  0  0  0  0  2  0  0  0  0  0  0
  184.3050  178.6420  143.4700 C   0  0  0  0  0  2  0  0  0  0  0  0
  186.4370  177.8870  142.3830 C   0  0  2  0  0  3  0  0  0  0  0  0
  185.2810  178.8920  142.3300 C   0  0  0  0  0  2  0  0  0  0  0  0
  186.9520  177.6140  143.7800 C   0  0  0  0  0  0  0  0  0  0  0  0
  189.0790  177.0610  144.9370 C   0  0  0  0  0  1  0  0  0  0  0  0
  188.1130  176.8430  143.9160 O   0  0  0  0  0  0  0  0  0  0  0  0
  1 18  1  1  0  0  0
  2  7  1  6  0  0  0
  2  1  1  0  0  0  0
  3 16  1  6  0  0  0
  3  1  1  0  0  0  0
  5  4  1  1  0  0  0
  5  2  1  0  0  0  0
  5  3  1  0  0  0  0
  6  7  2  0  0  0  0
  7  8  2  0  0  0  0
  9  7  1  0  0  0  0
  9 11  1  0  0  0  0
 11 12  2  0  0  0  0
 11 15  1  0  0  0  0
 12 13  1  0  0  0  0
 13 10  2  0  0  0  0
 14 10  1  0  0  0  0
 15 14  2  0  0  0  0
 16 17  2  0  0  0  0
 18 19  1  0  0  0  0
 21 20  1  0  0  0  0
 22 21  1  0  0  0  0
 23 19  1  6  0  0  0
 23 25  1  0  0  0  0
 24 23  1  0  0  0  0
 24 22  1  0  0  0  0
 25 27  1  0  0  0  0
 25 20  2  0  0  0  0
 27 26  1  0  0  0  0
M  END
>  <MODEL>
6

>  <REMARK>
 VINA RESULT:      -6.9      3.414      5.485
  Name = 
  8 active torsions:
  status: ('A' for Active; 'I' for Inactive)
    1  A    between atoms: S_2  and  C_15
    2  A    between atoms: S_2  and  C_18
    3  A    between atoms: C_3  and  N_26
    4  A    between atoms: C_9  and  C_15
    5  A    between atoms: C_10  and  C_20
    6  A    between atoms: C_12  and  C_14
    7  A    between atoms: C_12  and  N_26
    8  A    between atoms: C_17  and  O_21
                            x       y       z     vdW  Elec       q    Type
                         _______ _______ _______ _____ _____    ______ ____

>  <TORSDO>
F 8

$$$$
=
 OpenBabel11052413553D

 27 29  0  0  1  0  0  0  0  0999 V2000
  189.7100  177.3250  143.7880 C   0  0  1  0  0  3  0  0  0  0  0  0
  190.3520  178.2030  142.7250 C   0  0  1  0  0  3  0  0  0  0  0  0
  190.7960  177.7270  144.7700 C   0  0  2  0  0  3  0  0  0  0  0  0
  191.3180  179.9340  144.0390 O   0  0  0  0  0  1  0  0  0  0  0  0
  191.4500  178.5870  143.7010 C   0  0  2  0  0  3  0  0  0  0  0  0
  192.4960  177.2530  141.3600 O   0  0  0  0  0  0  0  0  0  0  0  0
  190.9940  177.2090  141.3830 S   0  0  0  0  0  0  0  0  0  0  0  0
  190.5440  175.7840  141.5480 O   0  0  0  0  0  0  0  0  0  0  0  0
  190.3660  177.8480  139.8410 C   0  0  0  0  0  2  0  0  0  0  0  0
  190.8560  174.9330  136.7330 C   0  0  0  0  0  3  0  0  0  0  0  0
  190.5330  176.8460  138.7500 C   0  0  0  0  0  0  0  0  0  0  0  0
  191.8120  176.5430  138.2680 C   0  0  0  0  0  3  0  0  0  0  0  0
  191.9740  175.5890  137.2590 C   0  0  0  0  0  3  0  0  0  0  0  0
  189.5780  175.2300  137.2150 C   0  0  0  0  0  3  0  0  0  0  0  0
  189.4170  176.1850  138.2240 C   0  0  0  0  0  3  0  0  0  0  0  0
  191.6550  176.5450  145.0840 C   0  0  0  0  0  3  0  0  0  0  0  0
  192.0280  176.3430  146.2270 O   0  0  0  0  0  0  0  0  0  0  0  0
  188.4390  177.9010  144.2020 N   0  0  0  0  0  2  0  0  0  0  0  0
  187.4690  176.8170  144.2830 C   0  0  0  0  0  2  0  0  0  0  0  0
  186.6600  178.6350  147.3340 C   0  0  0  0  0  3  0  0  0  0  0  0
  185.4900  179.4570  146.8780 C   0  0  0  0  0  2  0  0  0  0  0  0
  184.5610  178.6410  145.9900 C   0  0  0  0  0  2  0  0  0  0  0  0
  186.4490  177.1060  145.3760 C   0  0  2  0  0  3  0  0  0  0  0  0
  185.3780  178.0650  144.8440 C   0  0  0  0  0  2  0  0  0  0  0  0
  187.1380  177.5900  146.6340 C   0  0  0  0  0  0  0  0  0  0  0  0
  189.1450  177.3670  148.0790 C   0  0  0  0  0  1  0  0  0  0  0  0
  188.2430  176.8680  147.1000 O   0  0  0  0  0  0  0  0  0  0  0  0
  1 18  1  1  0  0  0
  1  3  1  0  0  0  0
  2  7  1  6  0  0  0
  2  5  1  0  0  0  0
  2  1  1  0  0  0  0
  3 16  1  6  0  0  0
  5  4  1  1  0  0  0
  5  3  1  0  0  0  0
  6  7  2  0  0  0  0
  7  8  2  0  0  0  0
  9  7  1  0  0  0  0
 10 14  2  0  0  0  0
 10 13  1  0  0  0  0
 11  9  1  0  0  0  0
 12 11  1  0  0  0  0
 13 12  2  0  0  0  0
 14 15  1  0  0  0  0
 15 11  2  0  0  0  0
 16 17  2  0  0  0  0
 18 19  1  0  0  0  0
 21 20  1  0  0  0  0
 22 21  1  0  0  0  0
 23 19  1  6  0  0  0
 23 25  1  0  0  0  0
 24 23  1  0  0  0  0
 24 22  1  0  0  0  0
 25 27  1  0  0  0  0
 25 20  2  0  0  0  0
 27 26  1  0  0  0  0
M  END
>  <MODEL>
7

>  <REMARK>
 VINA RESULT:      -6.9      1.817      2.754
  Name = 
  8 active torsions:
  status: ('A' for Active; 'I' for Inactive)
    1  A    between atoms: S_2  and  C_15
    2  A    between atoms: S_2  and  C_18
    3  A    between atoms: C_3  and  N_26
    4  A    between atoms: C_9  and  C_15
    5  A    between atoms: C_10  and  C_20
    6  A    between atoms: C_12  and  C_14
    7  A    between atoms: C_12  and  N_26
    8  A    between atoms: C_17  and  O_21
                            x       y       z     vdW  Elec       q    Type
                         _______ _______ _______ _____ _____    ______ ____

>  <TORSDO>
F 8

$$$$
=
 OpenBabel11052413553D

 27 29  0  0  1  0  0  0  0  0999 V2000
  191.0770  177.5510  142.2810 C   0  0  1  0  0  3  0  0  0  0  0  0
  189.8270  176.6870  142.2040 C   0  0  1  0  0  3  0  0  0  0  0  0
  191.5150  176.8000  143.5250 C   0  0  2  0  0  3  0  0  0  0  0  0
  190.5910  174.6380  143.1360 O   0  0  0  0  0  1  0  0  0  0  0  0
  190.2540  175.9510  143.4610 C   0  0  2  0  0  3  0  0  0  0  0  0
  188.7080  178.9510  143.1950 O   0  0  0  0  0  0  0  0  0  0  0  0
  188.3590  177.6690  142.4920 S   0  0  0  0  0  0  0  0  0  0  0  0
  187.6980  177.9890  141.1810 O   0  0  0  0  0  0  0  0  0  0  0  0
  187.2300  176.7330  143.5070 C   0  0  0  0  0  2  0  0  0  0  0  0
  186.0530  178.9590  146.9800 C   0  0  0  0  0  3  0  0  0  0  0  0
  186.8310  177.5190  144.7090 C   0  0  0  0  0  0  0  0  0  0  0  0
  185.6380  178.2510  144.7020 C   0  0  0  0  0  3  0  0  0  0  0  0
  185.2500  178.9730  145.8350 C   0  0  0  0  0  3  0  0  0  0  0  0
  187.2430  178.2250  146.9920 C   0  0  0  0  0  3  0  0  0  0  0  0
  187.6300  177.5040  145.8580 C   0  0  0  0  0  3  0  0  0  0  0  0
  191.4680  177.7120  144.7080 C   0  0  0  0  0  3  0  0  0  0  0  0
  191.7940  177.3060  145.8100 O   0  0  0  0  0  0  0  0  0  0  0  0
  191.9680  177.2270  141.1760 N   0  0  0  0  0  2  0  0  0  0  0  0
  191.2510  177.4970  139.9370 C   0  0  0  0  0  2  0  0  0  0  0  0
  190.5360  176.1020  136.6490 C   0  0  0  0  0  3  0  0  0  0  0  0
  191.9180  175.9990  136.0730 C   0  0  0  0  0  2  0  0  0  0  0  0
  192.9090  175.5000  137.1150 C   0  0  0  0  0  2  0  0  0  0  0  0
  191.4330  176.3410  138.9630 C   0  0  2  0  0  3  0  0  0  0  0  0
  192.8270  176.4130  138.3290 C   0  0  0  0  0  2  0  0  0  0  0  0
  190.3020  176.3070  137.9580 C   0  0  0  0  0  0  0  0  0  0  0  0
  187.8480  176.4230  137.5910 C   0  0  0  0  0  1  0  0  0  0  0  0
  188.9900  176.4120  138.4380 O   0  0  0  0  0  0  0  0  0  0  0  0
  1 18  1  6  0  0  0
  1  3  1  0  0  0  0
  2  1  1  0  0  0  0
  2  7  1  1  0  0  0
  2  5  1  0  0  0  0
  3 16  1  1  0  0  0
  5  4  1  6  0  0  0
  5  3  1  0  0  0  0
  7  6  2  0  0  0  0
  7  9  1  0  0  0  0
  8  7  2  0  0  0  0
  9 11  1  0  0  0  0
 10 14  1  0  0  0  0
 11 15  1  0  0  0  0
 12 11  2  0  0  0  0
 12 13  1  0  0  0  0
 13 10  2  0  0  0  0
 15 14  2  0  0  0  0
 16 17  2  0  0  0  0
 19 18  1  0  0  0  0
 20 25  2  0  0  0  0
 21 20  1  0  0  0  0
 21 22  1  0  0  0  0
 22 24  1  0  0  0  0
 23 19  1  1  0  0  0
 24 23  1  0  0  0  0
 25 27  1  0  0  0  0
 25 23  1  0  0  0  0
 26 27  1  0  0  0  0
M  END
>  <MODEL>
8

>  <REMARK>
 VINA RESULT:      -6.8      2.206      7.027
  Name = 
  8 active torsions:
  status: ('A' for Active; 'I' for Inactive)
    1  A    between atoms: S_2  and  C_15
    2  A    between atoms: S_2  and  C_18
    3  A    between atoms: C_3  and  N_26
    4  A    between atoms: C_9  and  C_15
    5  A    between atoms: C_10  and  C_20
    6  A    between atoms: C_12  and  C_14
    7  A    between atoms: C_12  and  N_26
    8  A    between atoms: C_17  and  O_21
                            x       y       z     vdW  Elec       q    Type
                         _______ _______ _______ _____ _____    ______ ____

>  <TORSDO>
F 8

$$$$
=
 OpenBabel11052413553D

 27 29  0  0  1  0  0  0  0  0999 V2000
  187.9910  178.5370  140.0940 C   0  0  1  0  0  3  0  0  0  0  0  0
  188.4860  177.1280  140.3800 C   0  0  1  0  0  3  0  0  0  0  0  0
  188.1940  178.3040  138.6080 C   0  0  2  0  0  3  0  0  0  0  0  0
  187.7950  175.9620  138.4260 O   0  0  0  0  0  1  0  0  0  0  0  0
  188.7110  176.9030  138.8950 C   0  0  2  0  0  3  0  0  0  0  0  0
  190.2770  175.8650  141.9790 O   0  0  0  0  0  0  0  0  0  0  0  0
  190.0360  177.1700  141.2730 S   0  0  0  0  0  0  0  0  0  0  0  0
  191.1660  177.4300  140.3170 O   0  0  0  0  0  0  0  0  0  0  0  0
  189.9710  178.4840  142.4780 C   0  0  0  0  0  2  0  0  0  0  0  0
  190.2480  176.8610  146.4380 C   0  0  0  0  0  3  0  0  0  0  0  0
  190.0700  177.9350  143.8600 C   0  0  0  0  0  0  0  0  0  0  0  0
  188.9060  177.6630  144.5890 C   0  0  0  0  0  3  0  0  0  0  0  0
  188.9950  177.1290  145.8780 C   0  0  0  0  0  3  0  0  0  0  0  0
  191.4120  177.1270  145.7110 C   0  0  0  0  0  3  0  0  0  0  0  0
  191.3230  177.6620  144.4210 C   0  0  0  0  0  3  0  0  0  0  0  0
  189.3010  179.1740  138.1070 C   0  0  0  0  0  3  0  0  0  0  0  0
  189.4300  179.3770  136.9120 O   0  0  0  0  0  0  0  0  0  0  0  0
  186.5670  178.6280  140.3830 N   0  0  0  0  0  2  0  0  0  0  0  0
  186.4120  178.6550  141.8320 C   0  0  0  0  0  2  0  0  0  0  0  0
  183.4800  178.9670  143.9700 C   0  0  0  0  0  3  0  0  0  0  0  0
  182.4070  179.2220  142.9520 C   0  0  0  0  0  2  0  0  0  0  0  0
  182.5930  178.3380  141.7290 C   0  0  0  0  0  2  0  0  0  0  0  0
  185.0430  178.1160  142.2240 C   0  0  2  0  0  3  0  0  0  0  0  0
  183.9990  178.5530  141.1900 C   0  0  0  0  0  2  0  0  0  0  0  0
  184.7030  178.5100  143.6460 C   0  0  0  0  0  0  0  0  0  0  0  0
  185.5380  178.7830  145.9690 C   0  0  0  0  0  1  0  0  0  0  0  0
  185.6720  178.3060  144.6360 O   0  0  0  0  0  0  0  0  0  0  0  0
  1  2  1  0  0  0  0
  1 18  1  6  0  0  0
  2  7  1  1  0  0  0
  3 16  1  1  0  0  0
  3  5  1  0  0  0  0
  3  1  1  0  0  0  0
  5  4  1  6  0  0  0
  5  2  1  0  0  0  0
  7  6  2  0  0  0  0
  7  9  1  0  0  0  0
  8  7  2  0  0  0  0
  9 11  1  0  0  0  0
 11 15  2  0  0  0  0
 11 12  1  0  0  0  0
 12 13  2  0  0  0  0
 13 10  1  0  0  0  0
 14 10  2  0  0  0  0
 15 14  1  0  0  0  0
 17 16  2  0  0  0  0
 18 19  1  0  0  0  0
 21 20  1  0  0  0  0
 22 21  1  0  0  0  0
 23 19  1  6  0  0  0
 23 25  1  0  0  0  0
 24 22  1  0  0  0  0
 24 23  1  0  0  0  0
 25 20  2  0  0  0  0
 25 27  1  0  0  0  0
 27 26  1  0  0  0  0
M  END
>  <MODEL>
9

>  <REMARK>
 VINA RESULT:      -6.7      2.009      5.579
  Name = 
  8 active torsions:
  status: ('A' for Active; 'I' for Inactive)
    1  A    between atoms: S_2  and  C_15
    2  A    between atoms: S_2  and  C_18
    3  A    between atoms: C_3  and  N_26
    4  A    between atoms: C_9  and  C_15
    5  A    between atoms: C_10  and  C_20
    6  A    between atoms: C_12  and  C_14
    7  A    between atoms: C_12  and  N_26
    8  A    between atoms: C_17  and  O_21
                            x       y       z     vdW  Elec       q    Type
                         _______ _______ _______ _____ _____    ______ ____

>  <TORSDO>
F 8

$$$$
