=
 OpenBabel11052412563D

 31 34  0  0  1  0  0  0  0  0999 V2000
  188.1340  177.3710  145.7300 C   0  0  0  0  0  0  0  0  0  0  0  0
  186.4960  178.3350  142.5110 C   0  0  0  0  0  0  0  0  0  0  0  0
  185.0270  178.4840  142.9000 C   0  0  1  0  0  3  0  0  0  0  0  0
  183.8150  179.1600  145.0380 C   0  0  0  0  0  2  0  0  0  0  0  0
  187.4820  177.9890  143.4680 C   0  0  0  0  0  0  0  0  0  0  0  0
  189.4730  177.3250  145.3410 C   0  0  0  0  0  3  0  0  0  0  0  0
  184.8790  179.5310  144.0030 C   0  0  0  0  0  2  0  0  0  0  0  0
  188.2390  178.4700  140.7970 C   0  0  0  0  0  0  0  0  0  0  0  0
  187.6910  177.0210  147.3860 Cl  0  0  0  0  0  0  0  0  0  0  0  0
  184.5610  178.3540  140.4110 C   0  0  0  0  0  2  0  0  0  0  0  0
  182.5300  178.5530  144.4670 C   0  0  0  0  0  2  0  0  0  0  0  0
  189.2070  178.1800  141.7620 C   0  0  0  0  0  3  0  0  0  0  0  0
  186.8860  178.5070  141.1630 C   0  0  0  0  0  0  0  0  0  0  0  0
  187.1450  177.7000  144.8000 C   0  0  0  0  0  3  0  0  0  0  0  0
  182.0590  179.2430  143.1950 C   0  0  0  0  0  2  0  0  0  0  0  0
  188.8420  177.9260  143.0810 C   0  0  0  0  0  0  0  0  0  0  0  0
  189.8270  177.6010  144.0180 C   0  0  0  0  0  3  0  0  0  0  0  0
  185.9170  178.6980  140.1760 O   0  0  0  0  0  0  0  0  0  0  0  0
  184.1120  178.9340  141.7400 C   0  0  1  0  0  3  0  0  0  0  0  0
  182.6560  178.5430  141.9800 C   0  0  0  0  0  2  0  0  0  0  0  0
  189.5440  176.5860  138.8770 N   0  0  0  0  0  2  0  0  0  0  0  0
  189.2250  177.7840  138.5130 C   0  0  0  0  0  0  0  0  0  0  0  0
  188.5930  178.6980  139.4220 N   0  0  0  0  0  2  0  0  0  0  0  0
  189.3660  179.5710  136.9500 F   0  0  0  0  0  0  0  0  0  0  0  0
  189.4460  178.1960  137.0910 C   0  0  2  0  0  3  0  0  0  0  0  0
  188.8480  176.1060  136.0430 O   0  0  0  0  0  1  0  0  0  0  0  0
  188.5480  177.4710  136.0720 C   0  0  1  0  0  3  0  0  0  0  0  0
  187.0240  177.7020  136.1610 C   0  0  0  0  0  0  0  0  0  0  0  0
  186.3800  177.7730  134.7860 C   0  0  0  0  0  1  0  0  0  0  0  0
  186.3420  176.6160  136.9740 C   0  0  0  0  0  1  0  0  0  0  0  0
  186.8060  178.9090  136.7970 F   0  0  0  0  0  0  0  0  0  0  0  0
  1  9  1  0  0  0  0
  2  3  1  0  0  0  0
  2  5  1  0  0  0  0
  3  7  1  1  0  0  0
  5 14  1  0  0  0  0
  6  1  1  0  0  0  0
  7  4  1  0  0  0  0
  8 13  1  0  0  0  0
  8 12  2  0  0  0  0
 11  4  1  0  0  0  0
 12 16  1  0  0  0  0
 13  2  2  0  0  0  0
 14  1  2  0  0  0  0
 15 11  1  0  0  0  0
 16  5  2  0  0  0  0
 16 17  1  0  0  0  0
 17  6  2  0  0  0  0
 18 10  1  0  0  0  0
 18 13  1  0  0  0  0
 19 10  1  6  0  0  0
 19 20  1  0  0  0  0
 19  3  1  0  0  0  0
 20 15  1  0  0  0  0
 22 21  2  0  0  0  0
 22 23  1  0  0  0  0
 23  8  1  0  0  0  0
 25 24  1  1  0  0  0
 25 22  1  0  0  0  0
 27 26  1  1  0  0  0
 27 28  1  0  0  0  0
 27 25  1  0  0  0  0
 28 31  1  0  0  0  0
 28 30  1  0  0  0  0
 29 28  1  0  0  0  0
M  END
>  <MODEL>
1

>  <REMARK>
 VINA RESULT:      -9.9      0.000      0.000
  Name = 
  4 active torsions:
  status: ('A' for Active; 'I' for Inactive)
    1  A    between atoms: C_1  and  C_19
    2  A    between atoms: C_9  and  C_22
    3  A    between atoms: C_15  and  N_23
    4  A    between atoms: C_19  and  C_22
                            x       y       z     vdW  Elec       q    Type
                         _______ _______ _______ _____ _____    ______ ____

>  <TORSDO>
F 4

$$$$
=
 OpenBabel11052412563D

 31 34  0  0  1  0  0  0  0  0999 V2000
  190.0950  177.4820  140.5310 C   0  0  0  0  0  0  0  0  0  0  0  0
  187.9400  177.8510  143.5630 C   0  0  0  0  0  0  0  0  0  0  0  0
  188.8820  177.4800  144.7050 C   0  0  1  0  0  3  0  0  0  0  0  0
  191.3970  177.6750  145.0690 C   0  0  0  0  0  2  0  0  0  0  0  0
  188.3790  177.8580  142.2160 C   0  0  0  0  0  0  0  0  0  0  0  0
  189.2170  177.9060  139.5310 C   0  0  0  0  0  3  0  0  0  0  0  0
  190.1010  178.4010  144.7020 C   0  0  0  0  0  2  0  0  0  0  0  0
  185.7270  178.5960  142.8220 C   0  0  0  0  0  0  0  0  0  0  0  0
  191.7200  176.9860  140.1160 Cl  0  0  0  0  0  0  0  0  0  0  0  0
  186.7750  177.2200  146.0930 C   0  0  0  0  0  2  0  0  0  0  0  0
  191.2800  176.6670  146.2160 C   0  0  0  0  0  2  0  0  0  0  0  0
  186.1900  178.6490  141.5040 C   0  0  0  0  0  3  0  0  0  0  0  0
  186.5880  178.1600  143.8400 C   0  0  0  0  0  0  0  0  0  0  0  0
  189.6780  177.4580  141.8630 C   0  0  0  0  0  3  0  0  0  0  0  0
  190.4080  177.1640  147.3590 C   0  0  0  0  0  2  0  0  0  0  0  0
  187.4930  178.2730  141.1930 C   0  0  0  0  0  0  0  0  0  0  0  0
  187.9180  178.2990  139.8620 C   0  0  0  0  0  3  0  0  0  0  0  0
  186.0910  178.0130  145.1370 O   0  0  0  0  0  0  0  0  0  0  0  0
  188.2460  177.5960  146.1080 C   0  0  1  0  0  3  0  0  0  0  0  0
  188.9660  176.7250  147.1330 C   0  0  0  0  0  2  0  0  0  0  0  0
  183.2210  177.9850  141.3110 N   0  0  0  0  0  2  0  0  0  0  0  0
  183.1790  178.6490  142.4190 C   0  0  0  0  0  0  0  0  0  0  0  0
  184.3750  178.9450  143.1590 N   0  0  0  0  0  2  0  0  0  0  0  0
  181.7320  178.6610  144.3060 F   0  0  0  0  0  0  0  0  0  0  0  0
  181.8500  179.0440  142.9810 C   0  0  2  0  0  3  0  0  0  0  0  0
  179.7020  177.9430  142.9670 O   0  0  0  0  0  1  0  0  0  0  0  0
  180.6420  178.5750  142.1480 C   0  0  1  0  0  3  0  0  0  0  0  0
  179.9650  179.6020  141.2170 C   0  0  0  0  0  0  0  0  0  0  0  0
  178.9340  178.9530  140.3090 C   0  0  0  0  0  1  0  0  0  0  0  0
  179.3020  180.7180  142.0050 C   0  0  0  0  0  1  0  0  0  0  0  0
  180.9390  180.1700  140.4170 F   0  0  0  0  0  0  0  0  0  0  0  0
  1 14  1  0  0  0  0
  2 13  2  0  0  0  0
  2  3  1  0  0  0  0
  3  7  1  1  0  0  0
  3 19  1  0  0  0  0
  4 11  1  0  0  0  0
  5  2  1  0  0  0  0
  6 17  1  0  0  0  0
  6  1  2  0  0  0  0
  7  4  1  0  0  0  0
  8 23  1  0  0  0  0
  8 13  1  0  0  0  0
  9  1  1  0  0  0  0
 11 15  1  0  0  0  0
 12  8  2  0  0  0  0
 13 18  1  0  0  0  0
 14  5  2  0  0  0  0
 16 12  1  0  0  0  0
 16  5  1  0  0  0  0
 17 16  2  0  0  0  0
 18 10  1  0  0  0  0
 19 10  1  6  0  0  0
 19 20  1  0  0  0  0
 20 15  1  0  0  0  0
 21 22  2  0  0  0  0
 22 25  1  0  0  0  0
 22 23  1  0  0  0  0
 25 24  1  1  0  0  0
 27 26  1  1  0  0  0
 27 25  1  0  0  0  0
 28 30  1  0  0  0  0
 28 27  1  0  0  0  0
 29 28  1  0  0  0  0
 31 28  1  0  0  0  0
M  END
>  <MODEL>
2

>  <REMARK>
 VINA RESULT:      -9.8      4.034      7.058
  Name = 
  4 active torsions:
  status: ('A' for Active; 'I' for Inactive)
    1  A    between atoms: C_1  and  C_19
    2  A    between atoms: C_9  and  C_22
    3  A    between atoms: C_15  and  N_23
    4  A    between atoms: C_19  and  C_22
                            x       y       z     vdW  Elec       q    Type
                         _______ _______ _______ _____ _____    ______ ____

>  <TORSDO>
F 4

$$$$
=
 OpenBabel11052412563D

 31 34  0  0  1  0  0  0  0  0999 V2000
  186.5060  178.0730  146.4600 C   0  0  0  0  0  0  0  0  0  0  0  0
  186.7710  178.1130  142.7310 C   0  0  0  0  0  0  0  0  0  0  0  0
  188.2100  177.6700  142.4810 C   0  0  1  0  0  3  0  0  0  0  0  0
  189.8440  176.1550  143.7200 C   0  0  0  0  0  2  0  0  0  0  0  0
  186.2470  178.2140  144.0440 C   0  0  0  0  0  0  0  0  0  0  0  0
  185.1610  178.4060  146.6320 C   0  0  0  0  0  3  0  0  0  0  0  0
  188.4520  176.2950  143.1000 C   0  0  0  0  0  2  0  0  0  0  0  0
  184.5940  178.7870  141.8340 C   0  0  0  0  0  0  0  0  0  0  0  0
  187.5170  177.7690  147.8550 Cl  0  0  0  0  0  0  0  0  0  0  0  0
  187.8830  178.6080  140.1480 C   0  0  0  0  0  2  0  0  0  0  0  0
  190.9870  176.7720  142.9070 C   0  0  0  0  0  2  0  0  0  0  0  0
  184.0770  178.8310  143.1320 C   0  0  0  0  0  3  0  0  0  0  0  0
  185.9470  178.4690  141.6400 C   0  0  0  0  0  0  0  0  0  0  0  0
  187.0450  177.9790  145.1750 C   0  0  0  0  0  3  0  0  0  0  0  0
  190.8580  176.5210  141.4130 C   0  0  0  0  0  2  0  0  0  0  0  0
  184.8880  178.5640  144.2300 C   0  0  0  0  0  0  0  0  0  0  0  0
  184.3540  178.6510  145.5190 C   0  0  0  0  0  3  0  0  0  0  0  0
  186.4810  178.5260  140.3510 O   0  0  0  0  0  0  0  0  0  0  0  0
  188.5820  177.5530  140.9870 C   0  0  1  0  0  3  0  0  0  0  0  0
  190.0870  177.6650  140.7640 C   0  0  0  0  0  2  0  0  0  0  0  0
  182.9480  176.9280  140.1690 N   0  0  0  0  0  2  0  0  0  0  0  0
  183.0000  178.1900  139.8950 C   0  0  0  0  0  0  0  0  0  0  0  0
  183.7820  179.0960  140.6900 N   0  0  0  0  0  2  0  0  0  0  0  0
  182.8380  178.6630  137.5710 F   0  0  0  0  0  0  0  0  0  0  0  0
  182.1630  178.7280  138.7770 C   0  0  2  0  0  3  0  0  0  0  0  0
  181.4950  180.8460  137.8300 O   0  0  0  0  0  1  0  0  0  0  0  0
  181.5930  180.1370  139.0300 C   0  0  1  0  0  3  0  0  0  0  0  0
  180.2900  180.2510  139.8500 C   0  0  0  0  0  0  0  0  0  0  0  0
  179.6250  181.6060  139.6740 C   0  0  0  0  0  1  0  0  0  0  0  0
  179.3010  179.1600  139.4810 C   0  0  0  0  0  1  0  0  0  0  0  0
  180.6060  180.1020  141.1880 F   0  0  0  0  0  0  0  0  0  0  0  0
  1  6  1  0  0  0  0
  1  9  1  0  0  0  0
  2  5  1  0  0  0  0
  3  2  1  0  0  0  0
  3  7  1  1  0  0  0
  5 16  2  0  0  0  0
  5 14  1  0  0  0  0
  7  4  1  0  0  0  0
  8 12  2  0  0  0  0
 10 18  1  0  0  0  0
 11  4  1  0  0  0  0
 12 16  1  0  0  0  0
 13  8  1  0  0  0  0
 13  2  2  0  0  0  0
 14  1  2  0  0  0  0
 15 11  1  0  0  0  0
 16 17  1  0  0  0  0
 17  6  2  0  0  0  0
 18 13  1  0  0  0  0
 19 10  1  6  0  0  0
 19  3  1  0  0  0  0
 20 19  1  0  0  0  0
 20 15  1  0  0  0  0
 22 21  2  0  0  0  0
 22 23  1  0  0  0  0
 23  8  1  0  0  0  0
 25 24  1  6  0  0  0
 25 27  1  0  0  0  0
 25 22  1  0  0  0  0
 27 26  1  6  0  0  0
 27 28  1  0  0  0  0
 28 31  1  0  0  0  0
 29 28  1  0  0  0  0
 30 28  1  0  0  0  0
M  END
>  <MODEL>
3

>  <REMARK>
 VINA RESULT:      -9.6      3.064      5.924
  Name = 
  4 active torsions:
  status: ('A' for Active; 'I' for Inactive)
    1  A    between atoms: C_1  and  C_19
    2  A    between atoms: C_9  and  C_22
    3  A    between atoms: C_15  and  N_23
    4  A    between atoms: C_19  and  C_22
                            x       y       z     vdW  Elec       q    Type
                         _______ _______ _______ _____ _____    ______ ____

>  <TORSDO>
F 4

$$$$
=
 OpenBabel11052412563D

 31 34  0  0  1  0  0  0  0  0999 V2000
  189.9200  177.3290  147.2520 C   0  0  0  0  0  0  0  0  0  0  0  0
  187.8690  177.6300  144.1420 C   0  0  0  0  0  0  0  0  0  0  0  0
  188.9030  177.4850  143.0290 C   0  0  1  0  0  3  0  0  0  0  0  0
  191.1190  176.2430  142.8120 C   0  0  0  0  0  2  0  0  0  0  0  0
  188.2380  177.5540  145.5070 C   0  0  0  0  0  0  0  0  0  0  0  0
  188.9260  177.3880  148.2300 C   0  0  0  0  0  3  0  0  0  0  0  0
  189.6310  176.1480  143.1580 C   0  0  0  0  0  2  0  0  0  0  0  0
  185.5320  177.9240  144.8130 C   0  0  0  0  0  0  0  0  0  0  0  0
  191.5960  177.1460  147.7190 Cl  0  0  0  0  0  0  0  0  0  0  0  0
  187.1230  178.4730  141.5170 C   0  0  0  0  0  2  0  0  0  0  0  0
  191.4540  177.1120  141.5960 C   0  0  0  0  0  2  0  0  0  0  0  0
  185.9040  177.7950  146.1540 C   0  0  0  0  0  3  0  0  0  0  0  0
  186.5170  177.8820  143.8150 C   0  0  0  0  0  0  0  0  0  0  0  0
  189.5780  177.4120  145.9010 C   0  0  0  0  0  3  0  0  0  0  0  0
  190.4780  176.9250  140.4440 C   0  0  0  0  0  2  0  0  0  0  0  0
  187.2390  177.6270  146.5080 C   0  0  0  0  0  0  0  0  0  0  0  0
  187.5880  177.5370  147.8580 C   0  0  0  0  0  3  0  0  0  0  0  0
  186.1510  178.1130  142.4870 O   0  0  0  0  0  0  0  0  0  0  0  0
  188.3060  177.5250  141.6050 C   0  0  1  0  0  3  0  0  0  0  0  0
  189.3430  177.9350  140.5640 C   0  0  0  0  0  2  0  0  0  0  0  0
  184.1850  180.4900  144.0780 N   0  0  0  0  0  2  0  0  0  0  0  0
  183.5280  179.3770  144.0840 C   0  0  0  0  0  0  0  0  0  0  0  0
  184.1630  178.1360  144.4290 N   0  0  0  0  0  2  0  0  0  0  0  0
  181.3810  178.3740  144.2770 F   0  0  0  0  0  0  0  0  0  0  0  0
  182.0980  179.3740  143.6430 C   0  0  2  0  0  3  0  0  0  0  0  0
  182.6100  178.2490  141.5690 O   0  0  0  0  0  1  0  0  0  0  0  0
  181.9040  179.3250  142.1150 C   0  0  1  0  0  3  0  0  0  0  0  0
  180.4620  179.3770  141.5690 C   0  0  0  0  0  0  0  0  0  0  0  0
  179.6170  180.4120  142.2930 C   0  0  0  0  0  1  0  0  0  0  0  0
  180.4390  179.6720  140.0800 C   0  0  0  0  0  1  0  0  0  0  0  0
  179.8790  178.1390  141.7650 F   0  0  0  0  0  0  0  0  0  0  0  0
  1  9  1  0  0  0  0
  1  6  1  0  0  0  0
  2  5  1  0  0  0  0
  3  7  1  1  0  0  0
  3  2  1  0  0  0  0
  4  7  1  0  0  0  0
  5 14  1  0  0  0  0
  5 16  2  0  0  0  0
  8 12  2  0  0  0  0
 10 19  1  0  0  0  0
 10 18  1  0  0  0  0
 11  4  1  0  0  0  0
 12 16  1  0  0  0  0
 13  2  2  0  0  0  0
 13  8  1  0  0  0  0
 14  1  2  0  0  0  0
 15 20  1  0  0  0  0
 15 11  1  0  0  0  0
 16 17  1  0  0  0  0
 17  6  2  0  0  0  0
 18 13  1  0  0  0  0
 19 20  1  6  0  0  0
 19  3  1  0  0  0  0
 21 22  2  0  0  0  0
 22 23  1  0  0  0  0
 23  8  1  0  0  0  0
 25 22  1  0  0  0  0
 25 24  1  1  0  0  0
 27 26  1  1  0  0  0
 27 25  1  0  0  0  0
 28 31  1  0  0  0  0
 28 27  1  0  0  0  0
 28 29  1  0  0  0  0
 30 28  1  0  0  0  0
M  END
>  <MODEL>
4

>  <REMARK>
 VINA RESULT:      -9.6      4.126      6.679
  Name = 
  4 active torsions:
  status: ('A' for Active; 'I' for Inactive)
    1  A    between atoms: C_1  and  C_19
    2  A    between atoms: C_9  and  C_22
    3  A    between atoms: C_15  and  N_23
    4  A    between atoms: C_19  and  C_22
                            x       y       z     vdW  Elec       q    Type
                         _______ _______ _______ _____ _____    ______ ____

>  <TORSDO>
F 4

$$$$
=
 OpenBabel11052412563D

 31 34  0  0  1  0  0  0  0  0999 V2000
  188.1130  177.4000  146.1070 C   0  0  0  0  0  0  0  0  0  0  0  0
  186.5840  178.2620  142.8050 C   0  0  0  0  0  0  0  0  0  0  0  0
  185.1090  178.4520  143.1460 C   0  0  1  0  0  3  0  0  0  0  0  0
  183.8490  179.2360  145.2190 C   0  0  0  0  0  2  0  0  0  0  0  0
  187.5370  177.9380  143.8030 C   0  0  0  0  0  0  0  0  0  0  0  0
  189.4620  177.3160  145.7580 C   0  0  0  0  0  3  0  0  0  0  0  0
  184.9490  179.5450  144.2010 C   0  0  0  0  0  2  0  0  0  0  0  0
  188.3770  178.2970  141.1380 C   0  0  0  0  0  0  0  0  0  0  0  0
  187.6180  177.1260  147.7620 Cl  0  0  0  0  0  0  0  0  0  0  0  0
  184.7090  178.2290  140.6520 C   0  0  0  0  0  2  0  0  0  0  0  0
  182.5700  178.6280  144.6360 C   0  0  0  0  0  2  0  0  0  0  0  0
  189.3120  178.0280  142.1410 C   0  0  0  0  0  3  0  0  0  0  0  0
  187.0150  178.3720  141.4640 C   0  0  0  0  0  0  0  0  0  0  0  0
  187.1580  177.7090  145.1360 C   0  0  0  0  0  3  0  0  0  0  0  0
  182.1480  179.2740  143.3250 C   0  0  0  0  0  2  0  0  0  0  0  0
  188.9050  177.8350  143.4580 C   0  0  0  0  0  0  0  0  0  0  0  0
  189.8570  177.5320  144.4360 C   0  0  0  0  0  3  0  0  0  0  0  0
  186.0780  178.5390  140.4420 O   0  0  0  0  0  0  0  0  0  0  0  0
  184.2340  178.8700  141.9430 C   0  0  1  0  0  3  0  0  0  0  0  0
  182.7660  178.5150  142.1570 C   0  0  0  0  0  2  0  0  0  0  0  0
  189.9380  176.4170  139.4160 N   0  0  0  0  0  2  0  0  0  0  0  0
  189.5290  177.5510  138.9520 C   0  0  0  0  0  0  0  0  0  0  0  0
  188.7730  178.4620  139.7660 N   0  0  0  0  0  2  0  0  0  0  0  0
  189.4300  179.1940  137.2360 F   0  0  0  0  0  0  0  0  0  0  0  0
  189.7790  177.8840  137.5140 C   0  0  2  0  0  3  0  0  0  0  0  0
  188.5900  177.6010  135.4330 O   0  0  0  0  0  1  0  0  0  0  0  0
  189.1360  176.9040  136.5140 C   0  0  1  0  0  3  0  0  0  0  0  0
  189.9830  175.7070  136.0330 C   0  0  0  0  0  0  0  0  0  0  0  0
  189.6380  175.3040  134.6090 C   0  0  0  0  0  1  0  0  0  0  0  0
  191.4690  176.0040  136.1190 C   0  0  0  0  0  1  0  0  0  0  0  0
  189.7170  174.6300  136.8570 F   0  0  0  0  0  0  0  0  0  0  0  0
  1  9  1  0  0  0  0
  2  3  1  0  0  0  0
  2  5  1  0  0  0  0
  3  7  1  1  0  0  0
  5 14  1  0  0  0  0
  6  1  1  0  0  0  0
  7  4  1  0  0  0  0
  8 13  1  0  0  0  0
  8 12  2  0  0  0  0
 11  4  1  0  0  0  0
 12 16  1  0  0  0  0
 13  2  2  0  0  0  0
 14  1  2  0  0  0  0
 15 11  1  0  0  0  0
 16  5  2  0  0  0  0
 16 17  1  0  0  0  0
 17  6  2  0  0  0  0
 18 10  1  0  0  0  0
 18 13  1  0  0  0  0
 19 10  1  6  0  0  0
 19 20  1  0  0  0  0
 19  3  1  0  0  0  0
 20 15  1  0  0  0  0
 22 21  2  0  0  0  0
 22 23  1  0  0  0  0
 23  8  1  0  0  0  0
 25 24  1  6  0  0  0
 25 22  1  0  0  0  0
 27 26  1  6  0  0  0
 27 25  1  0  0  0  0
 28 30  1  0  0  0  0
 28 27  1  0  0  0  0
 28 31  1  0  0  0  0
 29 28  1  0  0  0  0
M  END
>  <MODEL>
5

>  <REMARK>
 VINA RESULT:      -9.3      1.331      1.713
  Name = 
  4 active torsions:
  status: ('A' for Active; 'I' for Inactive)
    1  A    between atoms: C_1  and  C_19
    2  A    between atoms: C_9  and  C_22
    3  A    between atoms: C_15  and  N_23
    4  A    between atoms: C_19  and  C_22
                            x       y       z     vdW  Elec       q    Type
                         _______ _______ _______ _____ _____    ______ ____

>  <TORSDO>
F 4

$$$$
=
 OpenBabel11052412563D

 31 34  0  0  1  0  0  0  0  0999 V2000
  189.0520  177.1000  145.8840 C   0  0  0  0  0  0  0  0  0  0  0  0
  186.9200  178.1990  143.0160 C   0  0  0  0  0  0  0  0  0  0  0  0
  185.5470  178.3850  143.6560 C   0  0  1  0  0  3  0  0  0  0  0  0
  184.7450  179.0450  145.9840 C   0  0  0  0  0  2  0  0  0  0  0  0
  188.0430  177.7970  143.7800 C   0  0  0  0  0  0  0  0  0  0  0  0
  190.3020  177.0220  145.2680 C   0  0  0  0  0  3  0  0  0  0  0  0
  185.6280  179.4070  144.7880 C   0  0  0  0  0  2  0  0  0  0  0  0
  188.3460  178.3210  141.0290 C   0  0  0  0  0  0  0  0  0  0  0  0
  188.8890  176.7230  147.5840 Cl  0  0  0  0  0  0  0  0  0  0  0  0
  184.6540  178.3330  141.2830 C   0  0  0  0  0  2  0  0  0  0  0  0
  183.3610  178.4940  145.6320 C   0  0  0  0  0  2  0  0  0  0  0  0
  189.4540  177.9750  141.8060 C   0  0  0  0  0  3  0  0  0  0  0  0
  187.0780  178.3920  141.6250 C   0  0  0  0  0  0  0  0  0  0  0  0
  187.9310  177.4850  145.1450 C   0  0  0  0  0  3  0  0  0  0  0  0
  182.7030  179.2300  144.4750 C   0  0  0  0  0  2  0  0  0  0  0  0
  189.3130  177.7000  143.1630 C   0  0  0  0  0  0  0  0  0  0  0  0
  190.4320  177.3200  143.9090 C   0  0  0  0  0  3  0  0  0  0  0  0
  185.9610  178.6390  140.8230 O   0  0  0  0  0  0  0  0  0  0  0  0
  184.4620  178.8930  142.6810 C   0  0  1  0  0  3  0  0  0  0  0  0
  183.0560  178.5430  143.1610 C   0  0  0  0  0  2  0  0  0  0  0  0
  190.0710  176.9170  139.0310 N   0  0  0  0  0  2  0  0  0  0  0  0
  189.3030  177.8920  138.6710 C   0  0  0  0  0  0  0  0  0  0  0  0
  188.4650  178.5730  139.6190 N   0  0  0  0  0  2  0  0  0  0  0  0
  189.4150  179.6240  137.0460 F   0  0  0  0  0  0  0  0  0  0  0  0
  189.2290  178.2640  137.2230 C   0  0  2  0  0  3  0  0  0  0  0  0
  187.2410  178.8500  135.9860 O   0  0  0  0  0  1  0  0  0  0  0  0
  187.9590  177.7690  136.5050 C   0  0  1  0  0  3  0  0  0  0  0  0
  188.1160  176.6510  135.4520 C   0  0  0  0  0  0  0  0  0  0  0  0
  188.4300  175.3090  136.0930 C   0  0  0  0  0  1  0  0  0  0  0  0
  186.8710  176.5130  134.5950 C   0  0  0  0  0  1  0  0  0  0  0  0
  189.1690  176.9830  134.6210 F   0  0  0  0  0  0  0  0  0  0  0  0
  1  9  1  0  0  0  0
  2  3  1  0  0  0  0
  2  5  1  0  0  0  0
  3  7  1  1  0  0  0
  5 14  1  0  0  0  0
  6  1  1  0  0  0  0
  7  4  1  0  0  0  0
  8 13  1  0  0  0  0
  8 12  2  0  0  0  0
 11  4  1  0  0  0  0
 12 16  1  0  0  0  0
 13  2  2  0  0  0  0
 14  1  2  0  0  0  0
 15 11  1  0  0  0  0
 16  5  2  0  0  0  0
 16 17  1  0  0  0  0
 17  6  2  0  0  0  0
 18 10  1  0  0  0  0
 18 13  1  0  0  0  0
 19 10  1  6  0  0  0
 19 20  1  0  0  0  0
 19  3  1  0  0  0  0
 20 15  1  0  0  0  0
 22 21  2  0  0  0  0
 22 23  1  0  0  0  0
 23  8  1  0  0  0  0
 25 24  1  1  0  0  0
 25 22  1  0  0  0  0
 27 26  1  6  0  0  0
 27 25  1  0  0  0  0
 28 29  1  0  0  0  0
 28 27  1  0  0  0  0
 30 28  1  0  0  0  0
 31 28  1  0  0  0  0
M  END
>  <MODEL>
6

>  <REMARK>
 VINA RESULT:      -9.2      1.207      1.436
  Name = 
  4 active torsions:
  status: ('A' for Active; 'I' for Inactive)
    1  A    between atoms: C_1  and  C_19
    2  A    between atoms: C_9  and  C_22
    3  A    between atoms: C_15  and  N_23
    4  A    between atoms: C_19  and  C_22
                            x       y       z     vdW  Elec       q    Type
                         _______ _______ _______ _____ _____    ______ ____

>  <TORSDO>
F 4

$$$$
=
 OpenBabel11052412563D

 31 34  0  0  1  0  0  0  0  0999 V2000
  186.6330  178.0100  146.5250 C   0  0  0  0  0  0  0  0  0  0  0  0
  187.0940  178.1370  142.8170 C   0  0  0  0  0  0  0  0  0  0  0  0
  188.5210  177.6290  142.6280 C   0  0  1  0  0  3  0  0  0  0  0  0
  190.0130  176.0010  143.9030 C   0  0  0  0  0  2  0  0  0  0  0  0
  186.5070  178.2280  144.1040 C   0  0  0  0  0  0  0  0  0  0  0  0
  185.2980  178.4040  146.6380 C   0  0  0  0  0  3  0  0  0  0  0  0
  188.6630  176.2270  143.2180 C   0  0  0  0  0  2  0  0  0  0  0  0
  185.0030  178.9430  141.8310 C   0  0  0  0  0  0  0  0  0  0  0  0
  187.5530  177.6180  147.9600 Cl  0  0  0  0  0  0  0  0  0  0  0  0
  188.3630  178.6440  140.3100 C   0  0  0  0  0  2  0  0  0  0  0  0
  191.2250  176.5820  143.1680 C   0  0  0  0  0  2  0  0  0  0  0  0
  184.4210  178.9780  143.1010 C   0  0  0  0  0  3  0  0  0  0  0  0
  186.3460  178.5630  141.6960 C   0  0  0  0  0  0  0  0  0  0  0  0
  187.2330  177.9230  145.2670 C   0  0  0  0  0  3  0  0  0  0  0  0
  191.1620  176.3780  141.6620 C   0  0  0  0  0  2  0  0  0  0  0  0
  185.1600  178.6410  144.2310 C   0  0  0  0  0  0  0  0  0  0  0  0
  184.5640  178.7200  145.4930 C   0  0  0  0  0  3  0  0  0  0  0  0
  186.9500  178.6270  140.4390 O   0  0  0  0  0  0  0  0  0  0  0  0
  188.9640  177.5330  141.1520 C   0  0  1  0  0  3  0  0  0  0  0  0
  190.4830  177.5760  141.0090 C   0  0  0  0  0  2  0  0  0  0  0  0
  183.1160  177.2890  140.2050 N   0  0  0  0  0  2  0  0  0  0  0  0
  183.3670  178.5150  139.8810 C   0  0  0  0  0  0  0  0  0  0  0  0
  184.2680  179.3230  140.6560 N   0  0  0  0  0  2  0  0  0  0  0  0
  182.4780  180.4880  138.8980 F   0  0  0  0  0  0  0  0  0  0  0  0
  182.6430  179.1250  138.7230 C   0  0  2  0  0  3  0  0  0  0  0  0
  180.2610  179.0080  139.0950 O   0  0  0  0  0  1  0  0  0  0  0  0
  181.3110  178.4360  138.3710 C   0  0  1  0  0  3  0  0  0  0  0  0
  180.9440  178.2940  136.8790 C   0  0  0  0  0  0  0  0  0  0  0  0
  179.9750  177.1480  136.6390 C   0  0  0  0  0  1  0  0  0  0  0  0
  180.3460  179.5750  136.3270 C   0  0  0  0  0  1  0  0  0  0  0  0
  182.1020  178.0270  136.1720 F   0  0  0  0  0  0  0  0  0  0  0  0
  1  6  1  0  0  0  0
  1  9  1  0  0  0  0
  2  5  1  0  0  0  0
  3  2  1  0  0  0  0
  3  7  1  6  0  0  0
  5 16  2  0  0  0  0
  5 14  1  0  0  0  0
  7  4  1  0  0  0  0
  8 12  2  0  0  0  0
 10 18  1  0  0  0  0
 11  4  1  0  0  0  0
 12 16  1  0  0  0  0
 13  8  1  0  0  0  0
 13  2  2  0  0  0  0
 14  1  2  0  0  0  0
 15 11  1  0  0  0  0
 16 17  1  0  0  0  0
 17  6  2  0  0  0  0
 18 13  1  0  0  0  0
 19 10  1  6  0  0  0
 19  3  1  0  0  0  0
 20 19  1  0  0  0  0
 20 15  1  0  0  0  0
 22 21  2  0  0  0  0
 22 23  1  0  0  0  0
 23  8  1  0  0  0  0
 25 24  1  1  0  0  0
 25 22  1  0  0  0  0
 27 25  1  0  0  0  0
 27 26  1  1  0  0  0
 28 27  1  0  0  0  0
 29 28  1  0  0  0  0
 30 28  1  0  0  0  0
 31 28  1  0  0  0  0
M  END
>  <MODEL>
7

>  <REMARK>
 VINA RESULT:      -9.1      3.131      5.630
  Name = 
  4 active torsions:
  status: ('A' for Active; 'I' for Inactive)
    1  A    between atoms: C_1  and  C_19
    2  A    between atoms: C_9  and  C_22
    3  A    between atoms: C_15  and  N_23
    4  A    between atoms: C_19  and  C_22
                            x       y       z     vdW  Elec       q    Type
                         _______ _______ _______ _____ _____    ______ ____

>  <TORSDO>
F 4

$$$$
=
 OpenBabel11052412563D

 31 34  0  0  1  0  0  0  0  0999 V2000
  185.1520  177.7460  137.3150 C   0  0  0  0  0  0  0  0  0  0  0  0
  188.4600  177.5210  139.0430 C   0  0  0  0  0  0  0  0  0  0  0  0
  189.3840  176.9810  137.9540 C   0  0  1  0  0  3  0  0  0  0  0  0
  189.4410  177.1760  135.4130 C   0  0  0  0  0  2  0  0  0  0  0  0
  187.0900  177.7760  138.7890 C   0  0  0  0  0  0  0  0  0  0  0  0
  184.3690  178.3150  138.3210 C   0  0  0  0  0  3  0  0  0  0  0  0
  189.3820  177.9200  136.7490 C   0  0  0  0  0  2  0  0  0  0  0  0
  188.1620  178.3260  141.3360 C   0  0  0  0  0  0  0  0  0  0  0  0
  184.4450  177.3730  135.7600 Cl  0  0  0  0  0  0  0  0  0  0  0  0
  190.9700  176.4250  139.8530 C   0  0  0  0  0  2  0  0  0  0  0  0
  190.3960  175.9800  135.3710 C   0  0  0  0  0  2  0  0  0  0  0  0
  186.8250  178.6200  141.0560 C   0  0  0  0  0  3  0  0  0  0  0  0
  188.9640  177.7410  140.3450 C   0  0  0  0  0  0  0  0  0  0  0  0
  186.5030  177.4780  137.5480 C   0  0  0  0  0  3  0  0  0  0  0  0
  191.7140  176.2450  136.0830 C   0  0  0  0  0  2  0  0  0  0  0  0
  186.2820  178.3390  139.8060 C   0  0  0  0  0  0  0  0  0  0  0  0
  184.9330  178.6100  139.5640 C   0  0  0  0  0  3  0  0  0  0  0  0
  190.2680  177.3560  140.6630 O   0  0  0  0  0  0  0  0  0  0  0  0
  190.8570  176.8330  138.3950 C   0  0  1  0  0  3  0  0  0  0  0  0
  191.6070  175.8150  137.5400 C   0  0  0  0  0  2  0  0  0  0  0  0
  188.2040  176.5250  143.7220 N   0  0  0  0  0  2  0  0  0  0  0  0
  188.7390  177.7000  143.7730 C   0  0  0  0  0  0  0  0  0  0  0  0
  188.7310  178.5740  142.6320 N   0  0  0  0  0  2  0  0  0  0  0  0
  190.7480  178.5210  144.7440 F   0  0  0  0  0  0  0  0  0  0  0  0
  189.4510  178.1240  145.0190 C   0  0  2  0  0  3  0  0  0  0  0  0
  190.7010  176.7810  146.5870 O   0  0  0  0  0  1  0  0  0  0  0  0
  189.4070  177.0890  146.1590 C   0  0  1  0  0  3  0  0  0  0  0  0
  188.4790  177.3770  147.3590 C   0  0  0  0  0  0  0  0  0  0  0  0
  189.1290  178.3060  148.3700 C   0  0  0  0  0  1  0  0  0  0  0  0
  187.1580  177.9750  146.9110 C   0  0  0  0  0  1  0  0  0  0  0  0
  188.2080  176.1790  147.9940 F   0  0  0  0  0  0  0  0  0  0  0  0
  1 14  2  0  0  0  0
  1  6  1  0  0  0  0
  2 13  1  0  0  0  0
  3  7  1  6  0  0  0
  3 19  1  0  0  0  0
  3  2  1  0  0  0  0
  4  7  1  0  0  0  0
  5  2  2  0  0  0  0
  5 16  1  0  0  0  0
  6 17  2  0  0  0  0
  8 23  1  0  0  0  0
  9  1  1  0  0  0  0
 10 18  1  0  0  0  0
 11  4  1  0  0  0  0
 11 15  1  0  0  0  0
 12  8  1  0  0  0  0
 13 18  1  0  0  0  0
 13  8  2  0  0  0  0
 14  5  1  0  0  0  0
 15 20  1  0  0  0  0
 16 12  2  0  0  0  0
 17 16  1  0  0  0  0
 19 20  1  6  0  0  0
 19 10  1  0  0  0  0
 21 22  2  0  0  0  0
 22 25  1  0  0  0  0
 23 22  1  0  0  0  0
 25 24  1  6  0  0  0
 25 27  1  0  0  0  0
 27 26  1  1  0  0  0
 27 28  1  0  0  0  0
 28 31  1  0  0  0  0
 28 29  1  0  0  0  0
 30 28  1  0  0  0  0
M  END
>  <MODEL>
8

>  <REMARK>
 VINA RESULT:      -8.4      4.178      8.462
  Name = 
  4 active torsions:
  status: ('A' for Active; 'I' for Inactive)
    1  A    between atoms: C_1  and  C_19
    2  A    between atoms: C_9  and  C_22
    3  A    between atoms: C_15  and  N_23
    4  A    between atoms: C_19  and  C_22
                            x       y       z     vdW  Elec       q    Type
                         _______ _______ _______ _____ _____    ______ ____

>  <TORSDO>
F 4

$$$$
=
 OpenBabel11052412563D

 31 34  0  0  1  0  0  0  0  0999 V2000
  180.7100  178.7660  143.1810 C   0  0  0  0  0  0  0  0  0  0  0  0
  183.4200  178.6430  140.6090 C   0  0  0  0  0  0  0  0  0  0  0  0
  182.6480  178.5400  139.2970 C   0  0  1  0  0  3  0  0  0  0  0  0
  180.3680  179.3610  138.5060 C   0  0  0  0  0  2  0  0  0  0  0  0
  182.7510  178.7350  141.8550 C   0  0  0  0  0  0  0  0  0  0  0  0
  181.4600  178.9390  144.3460 C   0  0  0  0  0  3  0  0  0  0  0  0
  181.7080  179.7340  139.1430 C   0  0  0  0  0  2  0  0  0  0  0  0
  185.5670  178.8010  141.7770 C   0  0  0  0  0  0  0  0  0  0  0  0
  178.9650  178.6820  143.2690 Cl  0  0  0  0  0  0  0  0  0  0  0  0
  184.8510  177.7890  138.2900 C   0  0  0  0  0  2  0  0  0  0  0  0
  180.4520  178.3770  137.3350 C   0  0  0  0  0  2  0  0  0  0  0  0
  184.8920  178.9420  142.9930 C   0  0  0  0  0  3  0  0  0  0  0  0
  184.8330  178.6110  140.5970 C   0  0  0  0  0  0  0  0  0  0  0  0
  181.3510  178.6640  141.9450 C   0  0  0  0  0  3  0  0  0  0  0  0
  181.6170  178.6620  136.4000 C   0  0  0  0  0  2  0  0  0  0  0  0
  183.5020  178.8970  143.0430 C   0  0  0  0  0  0  0  0  0  0  0  0
  182.8530  179.0030  144.2770 C   0  0  0  0  0  3  0  0  0  0  0  0
  185.5150  178.3700  139.4020 O   0  0  0  0  0  0  0  0  0  0  0  0
  183.5440  178.5200  138.0390 C   0  0  1  0  0  3  0  0  0  0  0  0
  182.8410  177.8740  136.8490 C   0  0  0  0  0  2  0  0  0  0  0  0
  187.4980  176.9470  143.1080 N   0  0  0  0  0  2  0  0  0  0  0  0
  187.9190  177.9130  142.3590 C   0  0  0  0  0  0  0  0  0  0  0  0
  187.0020  178.8080  141.7090 N   0  0  0  0  0  2  0  0  0  0  0  0
  189.6870  177.7970  140.7740 F   0  0  0  0  0  0  0  0  0  0  0  0
  189.3870  178.0500  142.1010 C   0  0  2  0  0  3  0  0  0  0  0  0
  191.3400  176.6530  142.3440 O   0  0  0  0  0  1  0  0  0  0  0  0
  190.2780  177.2250  143.0490 C   0  0  1  0  0  3  0  0  0  0  0  0
  190.7720  177.9010  144.3460 C   0  0  0  0  0  0  0  0  0  0  0  0
  191.5030  176.9250  145.2520 C   0  0  0  0  0  1  0  0  0  0  0  0
  191.6810  179.0800  144.0480 C   0  0  0  0  0  1  0  0  0  0  0  0
  189.6710  178.3780  145.0320 F   0  0  0  0  0  0  0  0  0  0  0  0
  1  9  1  0  0  0  0
  1  6  1  0  0  0  0
  2  5  1  0  0  0  0
  3  7  1  6  0  0  0
  3  2  1  0  0  0  0
  4  7  1  0  0  0  0
  5 14  1  0  0  0  0
  5 16  2  0  0  0  0
  8 12  2  0  0  0  0
 10 18  1  0  0  0  0
 11  4  1  0  0  0  0
 12 16  1  0  0  0  0
 13  2  2  0  0  0  0
 13  8  1  0  0  0  0
 14  1  2  0  0  0  0
 15 20  1  0  0  0  0
 15 11  1  0  0  0  0
 16 17  1  0  0  0  0
 17  6  2  0  0  0  0
 18 13  1  0  0  0  0
 19 20  1  6  0  0  0
 19 10  1  0  0  0  0
 19  3  1  0  0  0  0
 22 21  2  0  0  0  0
 23  8  1  0  0  0  0
 23 22  1  0  0  0  0
 25 24  1  6  0  0  0
 25 22  1  0  0  0  0
 25 27  1  0  0  0  0
 27 26  1  6  0  0  0
 27 28  1  0  0  0  0
 28 31  1  0  0  0  0
 28 29  1  0  0  0  0
 30 28  1  0  0  0  0
M  END
>  <MODEL>
9

>  <REMARK>
 VINA RESULT:      -8.3      3.501      6.334
  Name = 
  4 active torsions:
  status: ('A' for Active; 'I' for Inactive)
    1  A    between atoms: C_1  and  C_19
    2  A    between atoms: C_9  and  C_22
    3  A    between atoms: C_15  and  N_23
    4  A    between atoms: C_19  and  C_22
                            x       y       z     vdW  Elec       q    Type
                         _______ _______ _______ _____ _____    ______ ____

>  <TORSDO>
F 4

$$$$
