=
 OpenBabel11052414353D

 32 37  0  0  1  0  0  0  0  0999 V2000
  186.4060  178.3950  139.8720 C   0  0  0  0  0  0  0  0  0  0  0  0
  187.4730  178.3370  142.1680 C   0  0  2  0  0  3  0  0  0  0  0  0
  186.5280  178.3080  138.4770 C   0  0  0  0  0  3  0  0  0  0  0  0
  187.5180  178.0950  140.6810 C   0  0  0  0  0  0  0  0  0  0  0  0
  188.1270  177.1570  142.8820 C   0  0  2  0  0  3  0  0  0  0  0  0
  184.4640  178.7530  146.1310 C   0  0  0  0  0  3  0  0  0  0  0  0
  186.0730  178.7400  142.6910 C   0  0  1  0  0  3  0  0  0  0  0  0
  186.5710  177.5720  146.2930 C   0  0  0  0  0  3  0  0  0  0  0  0
  186.7850  177.7570  144.9240 C   0  0  0  0  0  0  0  0  0  0  0  0
  188.6820  177.5450  140.1040 C   0  0  0  0  0  0  0  0  0  0  0  0
  187.9830  177.2600  144.3280 N   0  0  0  0  0  2  0  0  0  0  0  0
  189.7650  176.9120  140.9470 C   0  0  0  0  0  2  0  0  0  0  0  0
  188.7720  177.4340  138.7140 C   0  0  0  0  0  3  0  0  0  0  0  0
  185.0040  178.1930  141.8600 N   0  0  0  0  0  2  0  0  0  0  0  0
  185.1100  178.8110  140.5370 C   0  0  2  0  0  3  0  0  0  0  0  0
  185.8380  178.4540  144.1510 C   0  0  0  0  0  0  0  0  0  0  0  0
  189.6080  177.0870  142.4690 C   0  0  1  0  0  3  0  0  0  0  0  0
  187.7110  177.8410  137.9000 C   0  0  0  0  0  3  0  0  0  0  0  0
  185.4110  178.0650  146.8960 C   0  0  0  0  0  3  0  0  0  0  0  0
  184.6810  178.9520  144.7650 C   0  0  0  0  0  3  0  0  0  0  0  0
  182.1670  179.1310  138.1370 C   0  0  0  0  0  0  0  0  0  0  0  0
  181.5830  180.0640  137.3460 F   0  0  0  0  0  0  0  0  0  0  0  0
  183.8900  178.4790  139.7200 C   0  0  0  0  0  0  0  0  0  0  0  0
  181.6360  177.8400  138.1830 C   0  0  0  0  0  3  0  0  0  0  0  0
  183.3500  177.1850  139.7560 C   0  0  0  0  0  3  0  0  0  0  0  0
  183.2940  179.4560  138.9020 C   0  0  0  0  0  0  0  0  0  0  0  0
  183.8300  180.7770  138.8440 N   0  0  0  0  0  1  0  0  0  0  0  0
  182.2260  176.8580  138.9940 C   0  0  0  0  0  0  0  0  0  0  0  0
  180.4860  175.2460  139.6930 C   0  0  0  0  0  1  0  0  0  0  0  0
  181.7180  175.5580  139.0590 O   0  0  0  0  0  0  0  0  0  0  0  0
  190.4080  178.3090  142.9160 C   0  0  0  0  0  2  0  0  0  0  0  0
  191.6210  177.9110  143.4790 O   0  0  0  0  0  1  0  0  0  0  0  0
  1 15  1  0  0  0  0
  1  4  1  0  0  0  0
  2  4  1  6  0  0  0
  2  7  1  0  0  0  0
  2  5  1  0  0  0  0
  3  1  2  0  0  0  0
  5 11  1  1  0  0  0
  6 19  1  0  0  0  0
  7 14  1  6  0  0  0
  7 16  1  0  0  0  0
  8 19  2  0  0  0  0
  9  8  1  0  0  0  0
 10  4  2  0  0  0  0
 10 12  1  0  0  0  0
 11  9  1  0  0  0  0
 12 17  1  0  0  0  0
 13 10  1  0  0  0  0
 15 23  1  6  0  0  0
 15 14  1  0  0  0  0
 16 20  1  0  0  0  0
 16  9  2  0  0  0  0
 17  5  1  0  0  0  0
 17 31  1  6  0  0  0
 18  3  1  0  0  0  0
 18 13  2  0  0  0  0
 20  6  2  0  0  0  0
 21 24  2  0  0  0  0
 21 26  1  0  0  0  0
 22 21  1  0  0  0  0
 23 25  1  0  0  0  0
 24 28  1  0  0  0  0
 26 23  2  0  0  0  0
 27 26  1  0  0  0  0
 28 30  1  0  0  0  0
 28 25  2  0  0  0  0
 30 29  1  0  0  0  0
 31 32  1  0  0  0  0
M  END
>  <MODEL>
1

>  <REMARK>
 VINA RESULT:      -9.0      0.000      0.000
  Name = 
  3 active torsions:
  status: ('A' for Active; 'I' for Inactive)
    1  A    between atoms: C_13  and  C_29
    2  A    between atoms: O_15  and  C_26
    3  A    between atoms: C_16  and  C_27
                            x       y       z     vdW  Elec       q    Type
                         _______ _______ _______ _____ _____    ______ ____

>  <TORSDO>
F 3

$$$$
=
 OpenBabel11052414353D

 32 37  0  0  1  0  0  0  0  0999 V2000
  188.6440  178.0470  141.2760 C   0  0  0  0  0  0  0  0  0  0  0  0
  186.3790  178.6770  142.2170 C   0  0  2  0  0  3  0  0  0  0  0  0
  189.9760  177.6550  141.4830 C   0  0  0  0  0  3  0  0  0  0  0  0
  187.7640  178.1030  142.3730 C   0  0  0  0  0  0  0  0  0  0  0  0
  185.3910  177.8000  142.9820 C   0  0  2  0  0  3  0  0  0  0  0  0
  182.6920  179.5780  138.9730 C   0  0  0  0  0  3  0  0  0  0  0  0
  185.9960  178.9890  140.7500 C   0  0  1  0  0  3  0  0  0  0  0  0
  182.2090  178.7760  141.2060 C   0  0  0  0  0  3  0  0  0  0  0  0
  183.5790  178.6640  141.4660 C   0  0  0  0  0  0  0  0  0  0  0  0
  188.1690  177.6040  143.6280 C   0  0  0  0  0  0  0  0  0  0  0  0
  184.0140  178.2160  142.7490 N   0  0  0  0  0  2  0  0  0  0  0  0
  187.1780  177.3440  144.7390 C   0  0  0  0  0  2  0  0  0  0  0  0
  189.4910  177.1860  143.8070 C   0  0  0  0  0  3  0  0  0  0  0  0
  186.6940  178.1190  139.8090 N   0  0  0  0  0  2  0  0  0  0  0  0
  188.1240  178.4200  139.9030 C   0  0  2  0  0  3  0  0  0  0  0  0
  184.5150  179.0210  140.4770 C   0  0  0  0  0  0  0  0  0  0  0  0
  185.7450  177.8450  144.4800 C   0  0  1  0  0  3  0  0  0  0  0  0
  190.4000  177.2380  142.7460 C   0  0  0  0  0  3  0  0  0  0  0  0
  181.7660  179.2270  139.9590 C   0  0  0  0  0  3  0  0  0  0  0  0
  184.0610  179.4810  139.2340 C   0  0  0  0  0  3  0  0  0  0  0  0
  189.5090  177.6170  136.4440 C   0  0  0  0  0  0  0  0  0  0  0  0
  189.4610  178.1030  135.1800 F   0  0  0  0  0  0  0  0  0  0  0  0
  188.8630  177.7380  138.7830 C   0  0  0  0  0  0  0  0  0  0  0  0
  190.2670  176.4750  136.7130 C   0  0  0  0  0  3  0  0  0  0  0  0
  189.6300  176.5910  139.0410 C   0  0  0  0  0  3  0  0  0  0  0  0
  188.8060  178.2540  137.4750 C   0  0  0  0  0  0  0  0  0  0  0  0
  188.0390  179.4220  137.1910 N   0  0  0  0  0  1  0  0  0  0  0  0
  190.3320  175.9550  138.0150 C   0  0  0  0  0  0  0  0  0  0  0  0
  192.2160  174.4220  137.5520 C   0  0  0  0  0  1  0  0  0  0  0  0
  191.0830  174.8150  138.3130 O   0  0  0  0  0  0  0  0  0  0  0  0
  185.5850  179.2380  145.0860 C   0  0  0  0  0  2  0  0  0  0  0  0
  185.1740  179.1400  146.4150 O   0  0  0  0  0  1  0  0  0  0  0  0
  1  3  2  0  0  0  0
  1  4  1  0  0  0  0
  2  4  1  6  0  0  0
  2  5  1  0  0  0  0
  3 18  1  0  0  0  0
  4 10  2  0  0  0  0
  5 11  1  1  0  0  0
  5 17  1  0  0  0  0
  6 20  2  0  0  0  0
  6 19  1  0  0  0  0
  7 14  1  6  0  0  0
  7  2  1  0  0  0  0
  8  9  1  0  0  0  0
  9 11  1  0  0  0  0
 10 13  1  0  0  0  0
 10 12  1  0  0  0  0
 14 15  1  0  0  0  0
 15 23  1  6  0  0  0
 15  1  1  0  0  0  0
 16  7  1  0  0  0  0
 16  9  2  0  0  0  0
 17 12  1  0  0  0  0
 17 31  1  6  0  0  0
 18 13  2  0  0  0  0
 19  8  2  0  0  0  0
 20 16  1  0  0  0  0
 21 24  2  0  0  0  0
 21 26  1  0  0  0  0
 22 21  1  0  0  0  0
 23 25  1  0  0  0  0
 24 28  1  0  0  0  0
 26 23  2  0  0  0  0
 27 26  1  0  0  0  0
 28 30  1  0  0  0  0
 28 25  2  0  0  0  0
 29 30  1  0  0  0  0
 31 32  1  0  0  0  0
M  END
>  <MODEL>
2

>  <REMARK>
 VINA RESULT:      -8.7      2.991      5.958
  Name = 
  3 active torsions:
  status: ('A' for Active; 'I' for Inactive)
    1  A    between atoms: C_13  and  C_29
    2  A    between atoms: O_15  and  C_26
    3  A    between atoms: C_16  and  C_27
                            x       y       z     vdW  Elec       q    Type
                         _______ _______ _______ _____ _____    ______ ____

>  <TORSDO>
F 3

$$$$
=
 OpenBabel11052414353D

 32 37  0  0  1  0  0  0  0  0999 V2000
  187.1020  177.4790  144.3410 C   0  0  0  0  0  0  0  0  0  0  0  0
  189.5500  176.9980  143.9080 C   0  0  2  0  0  3  0  0  0  0  0  0
  186.0500  177.6910  145.2460 C   0  0  0  0  0  3  0  0  0  0  0  0
  188.4200  177.3890  144.8250 C   0  0  0  0  0  0  0  0  0  0  0  0
  190.7590  177.8800  144.2070 C   0  0  2  0  0  3  0  0  0  0  0  0
  191.0900  176.9200  139.1580 C   0  0  0  0  0  3  0  0  0  0  0  0
  189.1400  176.9120  142.4170 C   0  0  1  0  0  3  0  0  0  0  0  0
  192.6170  177.4920  140.9470 C   0  0  0  0  0  3  0  0  0  0  0  0
  191.5700  177.4170  141.8710 C   0  0  0  0  0  0  0  0  0  0  0  0
  188.6970  177.6830  146.1770 C   0  0  0  0  0  0  0  0  0  0  0  0
  191.8370  177.6540  143.2530 N   0  0  0  0  0  2  0  0  0  0  0  0
  190.1070  177.9160  146.6690 C   0  0  0  0  0  2  0  0  0  0  0  0
  187.6380  177.9250  147.0570 C   0  0  0  0  0  3  0  0  0  0  0  0
  188.0290  177.8070  142.1060 N   0  0  0  0  0  2  0  0  0  0  0  0
  186.8590  177.3370  142.8520 C   0  0  2  0  0  3  0  0  0  0  0  0
  190.2730  177.0800  141.4400 C   0  0  0  0  0  0  0  0  0  0  0  0
  191.2220  177.6140  145.6510 C   0  0  1  0  0  3  0  0  0  0  0  0
  186.3170  177.9010  146.6000 C   0  0  0  0  0  3  0  0  0  0  0  0
  192.3760  177.2490  139.5920 C   0  0  0  0  0  3  0  0  0  0  0  0
  190.0430  176.8290  140.0810 C   0  0  0  0  0  3  0  0  0  0  0  0
  184.4230  179.2750  140.6530 C   0  0  0  0  0  0  0  0  0  0  0  0
  184.3650  179.8110  139.4090 F   0  0  0  0  0  0  0  0  0  0  0  0
  185.6280  178.0630  142.3800 C   0  0  0  0  0  0  0  0  0  0  0  0
  183.3200  179.3870  141.5020 C   0  0  0  0  0  3  0  0  0  0  0  0
  184.5120  178.1790  143.2220 C   0  0  0  0  0  3  0  0  0  0  0  0
  185.5800  178.6130  141.0860 C   0  0  0  0  0  0  0  0  0  0  0  0
  186.6990  178.5020  140.2090 N   0  0  0  0  0  1  0  0  0  0  0  0
  183.3580  178.8390  142.7930 C   0  0  0  0  0  0  0  0  0  0  0  0
  180.9220  178.8810  143.2160 C   0  0  0  0  0  1  0  0  0  0  0  0
  182.2700  178.9340  143.6630 O   0  0  0  0  0  0  0  0  0  0  0  0
  191.7170  176.1850  145.8610 C   0  0  0  0  0  2  0  0  0  0  0  0
  192.4430  176.0970  147.0490 O   0  0  0  0  0  1  0  0  0  0  0  0
  1  4  2  0  0  0  0
  1  3  1  0  0  0  0
  2  5  1  0  0  0  0
  2  4  1  1  0  0  0
  3 18  2  0  0  0  0
  4 10  1  0  0  0  0
  5 11  1  6  0  0  0
  5 17  1  0  0  0  0
  6 19  2  0  0  0  0
  6 20  1  0  0  0  0
  7 16  1  6  0  0  0
  7  2  1  0  0  0  0
  8  9  2  0  0  0  0
  9 11  1  0  0  0  0
 10 12  1  0  0  0  0
 10 13  2  0  0  0  0
 14  7  1  0  0  0  0
 14 15  1  0  0  0  0
 15 23  1  6  0  0  0
 15  1  1  0  0  0  0
 16  9  1  0  0  0  0
 17 31  1  6  0  0  0
 17 12  1  0  0  0  0
 18 13  1  0  0  0  0
 19  8  1  0  0  0  0
 20 16  2  0  0  0  0
 21 26  2  0  0  0  0
 21 24  1  0  0  0  0
 22 21  1  0  0  0  0
 23 25  2  0  0  0  0
 24 28  2  0  0  0  0
 26 23  1  0  0  0  0
 27 26  1  0  0  0  0
 28 25  1  0  0  0  0
 28 30  1  0  0  0  0
 29 30  1  0  0  0  0
 31 32  1  0  0  0  0
M  END
>  <MODEL>
3

>  <REMARK>
 VINA RESULT:      -8.6      2.603      5.495
  Name = 
  3 active torsions:
  status: ('A' for Active; 'I' for Inactive)
    1  A    between atoms: C_13  and  C_29
    2  A    between atoms: O_15  and  C_26
    3  A    between atoms: C_16  and  C_27
                            x       y       z     vdW  Elec       q    Type
                         _______ _______ _______ _____ _____    ______ ____

>  <TORSDO>
F 3

$$$$
=
 OpenBabel11052414353D

 32 37  0  0  1  0  0  0  0  0999 V2000
  189.8460  177.6280  143.0500 C   0  0  0  0  0  0  0  0  0  0  0  0
  188.2720  178.1380  144.9670 C   0  0  2  0  0  3  0  0  0  0  0  0
  191.1070  177.2140  142.5950 C   0  0  0  0  0  3  0  0  0  0  0  0
  189.5480  177.5500  144.4230 C   0  0  0  0  0  0  0  0  0  0  0  0
  187.6810  177.1740  145.9930 C   0  0  2  0  0  3  0  0  0  0  0  0
  183.5820  179.4250  143.8340 C   0  0  0  0  0  3  0  0  0  0  0  0
  187.2940  178.6260  143.8700 C   0  0  1  0  0  3  0  0  0  0  0  0
  184.0990  178.3580  145.9450 C   0  0  0  0  0  3  0  0  0  0  0  0
  185.4330  178.2160  145.5510 C   0  0  0  0  0  0  0  0  0  0  0  0
  190.4420  176.9020  145.3020 C   0  0  0  0  0  0  0  0  0  0  0  0
  186.3680  177.6150  146.4470 N   0  0  0  0  0  2  0  0  0  0  0  0
  190.0340  176.5080  146.7030 C   0  0  0  0  0  2  0  0  0  0  0  0
  191.6800  176.4660  144.8230 C   0  0  0  0  0  3  0  0  0  0  0  0
  187.4540  177.8770  142.6270 N   0  0  0  0  0  2  0  0  0  0  0  0
  188.7910  178.1650  142.1040 C   0  0  2  0  0  3  0  0  0  0  0  0
  185.8510  178.6900  144.2930 C   0  0  0  0  0  0  0  0  0  0  0  0
  188.6650  177.0370  147.1690 C   0  0  1  0  0  3  0  0  0  0  0  0
  192.0250  176.6470  143.4810 C   0  0  0  0  0  3  0  0  0  0  0  0
  183.1740  178.9570  145.0860 C   0  0  0  0  0  3  0  0  0  0  0  0
  184.9180  179.2980  143.4430 C   0  0  0  0  0  3  0  0  0  0  0  0
  188.0540  177.3830  138.4470 C   0  0  0  0  0  0  0  0  0  0  0  0
  187.0970  177.6220  137.5180 F   0  0  0  0  0  0  0  0  0  0  0  0
  188.9180  177.6240  140.7050 C   0  0  0  0  0  0  0  0  0  0  0  0
  189.1810  176.6350  138.0960 C   0  0  0  0  0  3  0  0  0  0  0  0
  190.0470  176.8750  140.3390 C   0  0  0  0  0  3  0  0  0  0  0  0
  187.9180  177.8810  139.7490 C   0  0  0  0  0  0  0  0  0  0  0  0
  186.7650  178.6450  140.0960 N   0  0  0  0  0  1  0  0  0  0  0  0
  190.1850  176.3770  139.0420 C   0  0  0  0  0  0  0  0  0  0  0  0
  192.4500  176.2020  138.0650 C   0  0  0  0  0  1  0  0  0  0  0  0
  191.3230  175.6350  138.7180 O   0  0  0  0  0  0  0  0  0  0  0  0
  188.8660  178.3450  147.9290 C   0  0  0  0  0  2  0  0  0  0  0  0
  188.3050  178.2530  149.2040 O   0  0  0  0  0  1  0  0  0  0  0  0
  1  4  1  0  0  0  0
  2  4  1  6  0  0  0
  2  5  1  0  0  0  0
  3  1  2  0  0  0  0
  3 18  1  0  0  0  0
  4 10  2  0  0  0  0
  5 11  1  1  0  0  0
  5 17  1  0  0  0  0
  6 19  1  0  0  0  0
  7 14  1  6  0  0  0
  7 16  1  0  0  0  0
  7  2  1  0  0  0  0
  9  8  1  0  0  0  0
  9 11  1  0  0  0  0
 10 12  1  0  0  0  0
 12 17  1  0  0  0  0
 13 10  1  0  0  0  0
 15 23  1  6  0  0  0
 15 14  1  0  0  0  0
 15  1  1  0  0  0  0
 16  9  2  0  0  0  0
 17 31  1  6  0  0  0
 18 13  2  0  0  0  0
 19  8  2  0  0  0  0
 20  6  2  0  0  0  0
 20 16  1  0  0  0  0
 21 26  1  0  0  0  0
 22 21  1  0  0  0  0
 24 21  2  0  0  0  0
 24 28  1  0  0  0  0
 25 23  1  0  0  0  0
 26 27  1  0  0  0  0
 26 23  2  0  0  0  0
 28 25  2  0  0  0  0
 29 30  1  0  0  0  0
 30 28  1  0  0  0  0
 31 32  1  0  0  0  0
M  END
>  <MODEL>
4

>  <REMARK>
 VINA RESULT:      -8.5      3.633      5.482
  Name = 
  3 active torsions:
  status: ('A' for Active; 'I' for Inactive)
    1  A    between atoms: C_13  and  C_29
    2  A    between atoms: O_15  and  C_26
    3  A    between atoms: C_16  and  C_27
                            x       y       z     vdW  Elec       q    Type
                         _______ _______ _______ _____ _____    ______ ____

>  <TORSDO>
F 3

$$$$
=
 OpenBabel11052414353D

 32 37  0  0  1  0  0  0  0  0999 V2000
  186.6360  178.4340  141.2550 C   0  0  0  0  0  0  0  0  0  0  0  0
  188.5000  178.0120  142.9180 C   0  0  2  0  0  3  0  0  0  0  0  0
  186.2010  178.5460  139.9260 C   0  0  0  0  0  3  0  0  0  0  0  0
  187.9440  177.9860  141.5170 C   0  0  0  0  0  0  0  0  0  0  0  0
  189.2760  176.7210  143.1670 C   0  0  2  0  0  3  0  0  0  0  0  0
  187.3060  177.9430  147.7660 C   0  0  0  0  0  3  0  0  0  0  0  0
  187.4500  178.3780  143.9960 C   0  0  1  0  0  3  0  0  0  0  0  0
  189.2030  176.6860  146.9380 C   0  0  0  0  0  3  0  0  0  0  0  0
  188.8850  177.0600  145.6290 C   0  0  0  0  0  0  0  0  0  0  0  0
  188.7430  177.4900  140.4650 C   0  0  0  0  0  0  0  0  0  0  0  0
  189.7120  176.6180  144.5530 N   0  0  0  0  0  2  0  0  0  0  0  0
  190.0100  176.7080  140.7280 C   0  0  0  0  0  2  0  0  0  0  0  0
  188.2780  177.5790  139.1500 C   0  0  0  0  0  3  0  0  0  0  0  0
  186.1010  177.9900  143.5950 N   0  0  0  0  0  2  0  0  0  0  0  0
  185.7390  178.7890  142.4230 C   0  0  2  0  0  3  0  0  0  0  0  0
  187.7750  177.8910  145.3830 C   0  0  0  0  0  0  0  0  0  0  0  0
  190.4700  176.6660  142.1970 C   0  0  1  0  0  3  0  0  0  0  0  0
  187.0240  178.1310  138.8770 C   0  0  0  0  0  3  0  0  0  0  0  0
  188.4120  177.1230  148.0050 C   0  0  0  0  0  3  0  0  0  0  0  0
  186.9930  178.3300  146.4600 C   0  0  0  0  0  3  0  0  0  0  0  0
  181.9420  178.9380  142.7200 C   0  0  0  0  0  0  0  0  0  0  0  0
  180.9950  179.3910  143.5770 F   0  0  0  0  0  0  0  0  0  0  0  0
  184.2750  178.6170  142.1210 C   0  0  0  0  0  0  0  0  0  0  0  0
  181.5520  178.3130  141.5330 C   0  0  0  0  0  3  0  0  0  0  0  0
  183.8700  177.9940  140.9300 C   0  0  0  0  0  3  0  0  0  0  0  0
  183.3020  179.0930  143.0180 C   0  0  0  0  0  0  0  0  0  0  0  0
  183.6890  179.7350  144.2320 N   0  0  0  0  0  1  0  0  0  0  0  0
  182.5150  177.8380  140.6300 C   0  0  0  0  0  0  0  0  0  0  0  0
  182.3290  175.8190  139.2140 C   0  0  0  0  0  1  0  0  0  0  0  0
  182.1550  177.2110  139.4340 O   0  0  0  0  0  0  0  0  0  0  0  0
  191.4810  177.7850  142.4360 C   0  0  0  0  0  2  0  0  0  0  0  0
  192.3860  177.8510  141.3770 O   0  0  0  0  0  1  0  0  0  0  0  0
  1  4  1  0  0  0  0
  1 15  1  0  0  0  0
  2  4  1  6  0  0  0
  2  5  1  0  0  0  0
  2  7  1  0  0  0  0
  3  1  2  0  0  0  0
  5 11  1  1  0  0  0
  6 19  1  0  0  0  0
  7 14  1  6  0  0  0
  7 16  1  0  0  0  0
  8 19  2  0  0  0  0
  9  8  1  0  0  0  0
 10 12  1  0  0  0  0
 10  4  2  0  0  0  0
 11  9  1  0  0  0  0
 12 17  1  0  0  0  0
 13 10  1  0  0  0  0
 15 23  1  6  0  0  0
 15 14  1  0  0  0  0
 16  9  2  0  0  0  0
 16 20  1  0  0  0  0
 17 31  1  1  0  0  0
 17  5  1  0  0  0  0
 18 13  2  0  0  0  0
 18  3  1  0  0  0  0
 20  6  2  0  0  0  0
 21 26  1  0  0  0  0
 21 22  1  0  0  0  0
 23 26  2  0  0  0  0
 24 21  2  0  0  0  0
 25 23  1  0  0  0  0
 26 27  1  0  0  0  0
 28 25  2  0  0  0  0
 28 24  1  0  0  0  0
 29 30  1  0  0  0  0
 30 28  1  0  0  0  0
 32 31  1  0  0  0  0
M  END
>  <MODEL>
5

>  <REMARK>
 VINA RESULT:      -8.1      2.111      2.636
  Name = 
  3 active torsions:
  status: ('A' for Active; 'I' for Inactive)
    1  A    between atoms: C_13  and  C_29
    2  A    between atoms: O_15  and  C_26
    3  A    between atoms: C_16  and  C_27
                            x       y       z     vdW  Elec       q    Type
                         _______ _______ _______ _____ _____    ______ ____

>  <TORSDO>
F 3

$$$$
=
 OpenBabel11052414353D

 32 37  0  0  1  0  0  0  0  0999 V2000
  189.4730  177.7420  139.6710 C   0  0  0  0  0  0  0  0  0  0  0  0
  188.8930  178.2410  142.0850 C   0  0  2  0  0  3  0  0  0  0  0  0
  190.4290  177.4110  138.6980 C   0  0  0  0  0  3  0  0  0  0  0  0
  189.8400  177.7310  141.0300 C   0  0  0  0  0  0  0  0  0  0  0  0
  188.9380  177.3010  143.2860 C   0  0  2  0  0  3  0  0  0  0  0  0
  184.0900  179.0340  143.1950 C   0  0  0  0  0  3  0  0  0  0  0  0
  187.4780  178.5670  141.5460 C   0  0  1  0  0  3  0  0  0  0  0  0
  185.6180  178.1610  144.8570 C   0  0  0  0  0  3  0  0  0  0  0  0
  186.6360  178.1100  143.9000 C   0  0  0  0  0  0  0  0  0  0  0  0
  191.0990  177.2250  141.4160 C   0  0  0  0  0  0  0  0  0  0  0  0
  187.9340  177.6550  144.2810 N   0  0  0  0  0  2  0  0  0  0  0  0
  191.4150  176.8920  142.8560 C   0  0  0  0  0  2  0  0  0  0  0  0
  192.0260  176.8670  140.4330 C   0  0  0  0  0  3  0  0  0  0  0  0
  187.1380  177.7520  140.3830 N   0  0  0  0  0  2  0  0  0  0  0  0
  188.0540  178.1200  139.3010 C   0  0  2  0  0  3  0  0  0  0  0  0
  186.3850  178.5330  142.5810 C   0  0  0  0  0  0  0  0  0  0  0  0
  190.3560  177.3300  143.8850 C   0  0  1  0  0  3  0  0  0  0  0  0
  191.7040  176.9870  139.0780 C   0  0  0  0  0  3  0  0  0  0  0  0
  184.3450  178.6180  144.5040 C   0  0  0  0  0  3  0  0  0  0  0  0
  185.1090  178.9980  142.2390 C   0  0  0  0  0  3  0  0  0  0  0  0
  186.9080  177.7150  135.6890 C   0  0  0  0  0  0  0  0  0  0  0  0
  186.6460  178.4820  134.6020 F   0  0  0  0  0  0  0  0  0  0  0  0
  187.5920  177.5000  138.0100 C   0  0  0  0  0  0  0  0  0  0  0  0
  186.7590  176.3290  135.6040 C   0  0  0  0  0  3  0  0  0  0  0  0
  187.4410  176.1080  137.9120 C   0  0  0  0  0  3  0  0  0  0  0  0
  187.3250  178.3060  136.8880 C   0  0  0  0  0  0  0  0  0  0  0  0
  187.4770  179.7220  136.9630 N   0  0  0  0  0  1  0  0  0  0  0  0
  187.0250  175.5170  136.7170 C   0  0  0  0  0  0  0  0  0  0  0  0
  185.6760  173.4630  136.9930 C   0  0  0  0  0  1  0  0  0  0  0  0
  186.8870  174.1280  136.6610 O   0  0  0  0  0  0  0  0  0  0  0  0
  190.7370  178.6990  144.4430 C   0  0  0  0  0  2  0  0  0  0  0  0
  192.0560  179.0060  144.1070 O   0  0  0  0  0  1  0  0  0  0  0  0
  1  4  1  0  0  0  0
  2  4  1  6  0  0  0
  2  5  1  0  0  0  0
  3 18  1  0  0  0  0
  3  1  2  0  0  0  0
  4 10  2  0  0  0  0
  5 17  1  0  0  0  0
  5 11  1  1  0  0  0
  6 19  1  0  0  0  0
  7 14  1  6  0  0  0
  7  2  1  0  0  0  0
  7 16  1  0  0  0  0
  9 11  1  0  0  0  0
  9  8  1  0  0  0  0
 10 12  1  0  0  0  0
 12 17  1  0  0  0  0
 13 10  1  0  0  0  0
 15 23  1  6  0  0  0
 15  1  1  0  0  0  0
 15 14  1  0  0  0  0
 16  9  2  0  0  0  0
 17 31  1  6  0  0  0
 18 13  2  0  0  0  0
 19  8  2  0  0  0  0
 20 16  1  0  0  0  0
 20  6  2  0  0  0  0
 21 26  1  0  0  0  0
 22 21  1  0  0  0  0
 24 21  2  0  0  0  0
 24 28  1  0  0  0  0
 25 23  1  0  0  0  0
 26 27  1  0  0  0  0
 26 23  2  0  0  0  0
 28 25  2  0  0  0  0
 30 28  1  0  0  0  0
 30 29  1  0  0  0  0
 32 31  1  0  0  0  0
M  END
>  <MODEL>
6

>  <REMARK>
 VINA RESULT:      -8.1      2.944      3.623
  Name = 
  3 active torsions:
  status: ('A' for Active; 'I' for Inactive)
    1  A    between atoms: C_13  and  C_29
    2  A    between atoms: O_15  and  C_26
    3  A    between atoms: C_16  and  C_27
                            x       y       z     vdW  Elec       q    Type
                         _______ _______ _______ _____ _____    ______ ____

>  <TORSDO>
F 3

$$$$
=
 OpenBabel11052414353D

 32 37  0  0  1  0  0  0  0  0999 V2000
  187.5330  178.4720  140.9240 C   0  0  0  0  0  0  0  0  0  0  0  0
  188.4210  177.8920  138.6240 C   0  0  2  0  0  3  0  0  0  0  0  0
  186.4840  178.9250  141.7390 C   0  0  0  0  0  3  0  0  0  0  0  0
  187.2870  178.2180  139.5620 C   0  0  0  0  0  0  0  0  0  0  0  0
  187.9860  176.7610  137.6960 C   0  0  2  0  0  3  0  0  0  0  0  0
  193.0440  176.0280  138.3290 C   0  0  0  0  0  3  0  0  0  0  0  0
  189.7790  177.6830  139.3390 C   0  0  1  0  0  3  0  0  0  0  0  0
  191.3820  175.4900  136.6540 C   0  0  0  0  0  3  0  0  0  0  0  0
  190.4180  176.2020  137.3750 C   0  0  0  0  0  0  0  0  0  0  0  0
  185.9670  178.2500  139.0660 C   0  0  0  0  0  0  0  0  0  0  0  0
  189.0890  176.2970  136.8640 N   0  0  0  0  0  2  0  0  0  0  0  0
  185.6110  177.6790  137.7130 C   0  0  0  0  0  2  0  0  0  0  0  0
  184.9290  178.6720  139.9030 C   0  0  0  0  0  3  0  0  0  0  0  0
  189.6050  177.1990  140.7060 N   0  0  0  0  0  2  0  0  0  0  0  0
  188.9300  178.2530  141.4670 C   0  0  2  0  0  3  0  0  0  0  0  0
  190.7700  176.8420  138.5790 C   0  0  0  0  0  0  0  0  0  0  0  0
  186.8040  177.2500  136.8400 C   0  0  1  0  0  3  0  0  0  0  0  0
  185.1910  179.0370  141.2260 C   0  0  0  0  0  3  0  0  0  0  0  0
  192.6920  175.3990  137.1330 C   0  0  0  0  0  3  0  0  0  0  0  0
  192.0870  176.7520  139.0460 C   0  0  0  0  0  3  0  0  0  0  0  0
  190.1750  177.5580  145.0020 C   0  0  0  0  0  0  0  0  0  0  0  0
  191.3430  177.5010  145.6870 F   0  0  0  0  0  0  0  0  0  0  0  0
  188.9510  177.9150  142.9340 C   0  0  0  0  0  0  0  0  0  0  0  0
  188.9740  177.3120  145.6700 C   0  0  0  0  0  3  0  0  0  0  0  0
  187.7500  177.6690  143.6170 C   0  0  0  0  0  3  0  0  0  0  0  0
  190.1700  177.8610  143.6340 C   0  0  0  0  0  0  0  0  0  0  0  0
  191.4030  178.1130  142.9620 N   0  0  0  0  0  1  0  0  0  0  0  0
  187.7530  177.3670  144.9800 C   0  0  0  0  0  0  0  0  0  0  0  0
  185.7640  178.1620  146.2170 C   0  0  0  0  0  1  0  0  0  0  0  0
  186.5360  177.1270  145.6230 O   0  0  0  0  0  0  0  0  0  0  0  0
  187.1820  178.4000  135.9080 C   0  0  0  0  0  2  0  0  0  0  0  0
  186.8350  178.0880  134.5940 O   0  0  0  0  0  1  0  0  0  0  0  0
  1 15  1  0  0  0  0
  1  3  1  0  0  0  0
  2  7  1  0  0  0  0
  2  4  1  1  0  0  0
  4  1  2  0  0  0  0
  5 11  1  6  0  0  0
  5  2  1  0  0  0  0
  6 20  1  0  0  0  0
  7 16  1  6  0  0  0
  7 14  1  0  0  0  0
  8 19  1  0  0  0  0
  8  9  2  0  0  0  0
  9 16  1  0  0  0  0
 10  4  1  0  0  0  0
 10 13  2  0  0  0  0
 11  9  1  0  0  0  0
 12 10  1  0  0  0  0
 13 18  1  0  0  0  0
 14 15  1  0  0  0  0
 15 23  1  1  0  0  0
 16 20  2  0  0  0  0
 17 31  1  1  0  0  0
 17  5  1  0  0  0  0
 17 12  1  0  0  0  0
 18  3  2  0  0  0  0
 19  6  2  0  0  0  0
 21 24  1  0  0  0  0
 21 22  1  0  0  0  0
 23 25  2  0  0  0  0
 23 26  1  0  0  0  0
 25 28  1  0  0  0  0
 26 21  2  0  0  0  0
 27 26  1  0  0  0  0
 28 30  1  0  0  0  0
 28 24  2  0  0  0  0
 30 29  1  0  0  0  0
 32 31  1  0  0  0  0
M  END
>  <MODEL>
7

>  <REMARK>
 VINA RESULT:      -8.0      3.741      7.762
  Name = 
  3 active torsions:
  status: ('A' for Active; 'I' for Inactive)
    1  A    between atoms: C_13  and  C_29
    2  A    between atoms: O_15  and  C_26
    3  A    between atoms: C_16  and  C_27
                            x       y       z     vdW  Elec       q    Type
                         _______ _______ _______ _____ _____    ______ ____

>  <TORSDO>
F 3

$$$$
=
 OpenBabel11052414353D

 32 37  0  0  1  0  0  0  0  0999 V2000
  187.9260  178.0800  140.5120 C   0  0  0  0  0  0  0  0  0  0  0  0
  185.8790  178.7360  141.8520 C   0  0  2  0  0  3  0  0  0  0  0  0
  189.2770  177.7020  140.4700 C   0  0  0  0  0  3  0  0  0  0  0  0
  187.2740  178.1740  141.7560 C   0  0  0  0  0  0  0  0  0  0  0  0
  185.0690  177.8850  142.8250 C   0  0  2  0  0  3  0  0  0  0  0  0
  181.6230  179.4990  139.3550 C   0  0  0  0  0  3  0  0  0  0  0  0
  185.2150  178.9910  140.4770 C   0  0  1  0  0  3  0  0  0  0  0  0
  181.5920  178.7790  141.6670 C   0  0  0  0  0  3  0  0  0  0  0  0
  182.9870  178.6830  141.6600 C   0  0  0  0  0  0  0  0  0  0  0  0
  187.9210  177.7240  142.9260 C   0  0  0  0  0  0  0  0  0  0  0  0
  183.6680  178.2860  142.8500 N   0  0  0  0  0  2  0  0  0  0  0  0
  187.1670  177.5020  144.2170 C   0  0  0  0  0  2  0  0  0  0  0  0
  189.2580  177.3190  142.8590 C   0  0  0  0  0  3  0  0  0  0  0  0
  185.7280  178.0890  139.4500 N   0  0  0  0  0  2  0  0  0  0  0  0
  187.1450  178.3990  139.2530 C   0  0  2  0  0  3  0  0  0  0  0  0
  183.7100  179.0070  140.4960 C   0  0  0  0  0  0  0  0  0  0  0  0
  185.7060  177.9870  144.2230 C   0  0  1  0  0  3  0  0  0  0  0  0
  189.9420  177.3350  141.6410 C   0  0  0  0  0  3  0  0  0  0  0  0
  180.9100  179.1820  140.5150 C   0  0  0  0  0  3  0  0  0  0  0  0
  183.0180  179.4170  139.3490 C   0  0  0  0  0  3  0  0  0  0  0  0
  189.0170  177.6400  136.0210 C   0  0  0  0  0  0  0  0  0  0  0  0
  189.8580  178.2530  135.1520 F   0  0  0  0  0  0  0  0  0  0  0  0
  187.6610  177.6790  138.0370 C   0  0  0  0  0  0  0  0  0  0  0  0
  188.6350  176.3170  135.7900 C   0  0  0  0  0  3  0  0  0  0  0  0
  187.2870  176.3480  137.7950 C   0  0  0  0  0  3  0  0  0  0  0  0
  188.5340  178.3260  137.1440 C   0  0  0  0  0  0  0  0  0  0  0  0
  188.9340  179.6760  137.3720 N   0  0  0  0  0  1  0  0  0  0  0  0
  187.7670  175.6620  136.6770 C   0  0  0  0  0  0  0  0  0  0  0  0
  186.3290  173.7250  137.2200 C   0  0  0  0  0  1  0  0  0  0  0  0
  187.3690  174.3390  136.4720 O   0  0  0  0  0  0  0  0  0  0  0  0
  185.6510  179.4010  144.7980 C   0  0  0  0  0  2  0  0  0  0  0  0
  185.4980  179.3510  146.1840 O   0  0  0  0  0  1  0  0  0  0  0  0
  1  4  1  0  0  0  0
  2  4  1  6  0  0  0
  2  5  1  0  0  0  0
  3  1  2  0  0  0  0
  3 18  1  0  0  0  0
  4 10  2  0  0  0  0
  5 11  1  1  0  0  0
  5 17  1  0  0  0  0
  6 19  1  0  0  0  0
  7 14  1  6  0  0  0
  7 16  1  0  0  0  0
  7  2  1  0  0  0  0
  9  8  1  0  0  0  0
  9 11  1  0  0  0  0
 10 12  1  0  0  0  0
 12 17  1  0  0  0  0
 13 10  1  0  0  0  0
 15 23  1  6  0  0  0
 15 14  1  0  0  0  0
 15  1  1  0  0  0  0
 16  9  2  0  0  0  0
 17 31  1  6  0  0  0
 18 13  2  0  0  0  0
 19  8  2  0  0  0  0
 20  6  2  0  0  0  0
 20 16  1  0  0  0  0
 21 26  1  0  0  0  0
 22 21  1  0  0  0  0
 24 21  2  0  0  0  0
 24 28  1  0  0  0  0
 25 23  1  0  0  0  0
 26 27  1  0  0  0  0
 26 23  2  0  0  0  0
 28 25  2  0  0  0  0
 30 28  1  0  0  0  0
 30 29  1  0  0  0  0
 31 32  1  0  0  0  0
M  END
>  <MODEL>
8

>  <REMARK>
 VINA RESULT:      -8.0      2.940      5.221
  Name = 
  3 active torsions:
  status: ('A' for Active; 'I' for Inactive)
    1  A    between atoms: C_13  and  C_29
    2  A    between atoms: O_15  and  C_26
    3  A    between atoms: C_16  and  C_27
                            x       y       z     vdW  Elec       q    Type
                         _______ _______ _______ _____ _____    ______ ____

>  <TORSDO>
F 3

$$$$
=
 OpenBabel11052414353D

 32 37  0  0  1  0  0  0  0  0999 V2000
  187.1960  178.4200  141.1120 C   0  0  0  0  0  0  0  0  0  0  0  0
  189.4580  177.8180  142.0790 C   0  0  2  0  0  3  0  0  0  0  0  0
  186.3740  178.6340  139.9950 C   0  0  0  0  0  3  0  0  0  0  0  0
  188.4920  177.9030  140.9260 C   0  0  0  0  0  0  0  0  0  0  0  0
  190.1960  176.4840  142.0090 C   0  0  2  0  0  3  0  0  0  0  0  0
  189.8390  177.4880  147.0470 C   0  0  0  0  0  3  0  0  0  0  0  0
  188.8220  178.1560  143.4500 C   0  0  1  0  0  3  0  0  0  0  0  0
  191.3040  176.2110  145.6040 C   0  0  0  0  0  3  0  0  0  0  0  0
  190.6150  176.6800  144.4820 C   0  0  0  0  0  0  0  0  0  0  0  0
  188.8910  177.4440  139.6530 C   0  0  0  0  0  0  0  0  0  0  0  0
  191.0370  176.2750  143.1800 N   0  0  0  0  0  2  0  0  0  0  0  0
  190.1280  176.5960  139.4650 C   0  0  0  0  0  2  0  0  0  0  0  0
  188.0440  177.6350  138.5570 C   0  0  0  0  0  3  0  0  0  0  0  0
  187.3940  177.8500  143.4770 N   0  0  0  0  0  2  0  0  0  0  0  0
  186.7320  178.7360  142.5190 C   0  0  2  0  0  3  0  0  0  0  0  0
  189.5350  177.5690  144.6390 C   0  0  0  0  0  0  0  0  0  0  0  0
  191.0220  176.4420  140.7100 C   0  0  1  0  0  3  0  0  0  0  0  0
  186.8020  178.2540  138.7210 C   0  0  0  0  0  3  0  0  0  0  0  0
  190.9140  176.6100  146.8850 C   0  0  0  0  0  3  0  0  0  0  0  0
  189.1560  177.9700  145.9270 C   0  0  0  0  0  3  0  0  0  0  0  0
  183.2550  178.8010  144.0800 C   0  0  0  0  0  0  0  0  0  0  0  0
  182.6730  179.0260  145.2840 F   0  0  0  0  0  0  0  0  0  0  0  0
  185.2390  178.6430  142.6860 C   0  0  0  0  0  0  0  0  0  0  0  0
  182.4560  178.4920  142.9780 C   0  0  0  0  0  3  0  0  0  0  0  0
  184.4250  178.3360  141.5850 C   0  0  0  0  0  3  0  0  0  0  0  0
  184.6470  178.8790  143.9410 C   0  0  0  0  0  0  0  0  0  0  0  0
  185.4540  179.1990  145.0720 N   0  0  0  0  0  1  0  0  0  0  0  0
  183.0370  178.2580  141.7220 C   0  0  0  0  0  0  0  0  0  0  0  0
  182.6490  176.9700  139.6470 C   0  0  0  0  0  1  0  0  0  0  0  0
  182.2620  177.9490  140.6010 O   0  0  0  0  0  0  0  0  0  0  0  0
  192.1200  177.5020  140.6710 C   0  0  0  0  0  2  0  0  0  0  0  0
  193.0510  177.1940  139.6790 O   0  0  0  0  0  1  0  0  0  0  0  0
  1 15  1  0  0  0  0
  2  4  1  6  0  0  0
  2  7  1  0  0  0  0
  3  1  2  0  0  0  0
  4  1  1  0  0  0  0
  5  2  1  0  0  0  0
  5 11  1  1  0  0  0
  7 14  1  6  0  0  0
  7 16  1  0  0  0  0
  8 19  2  0  0  0  0
  9 16  2  0  0  0  0
  9  8  1  0  0  0  0
 10  4  2  0  0  0  0
 11  9  1  0  0  0  0
 12 10  1  0  0  0  0
 12 17  1  0  0  0  0
 13 18  2  0  0  0  0
 13 10  1  0  0  0  0
 15 23  1  6  0  0  0
 15 14  1  0  0  0  0
 16 20  1  0  0  0  0
 17 31  1  1  0  0  0
 17  5  1  0  0  0  0
 18  3  1  0  0  0  0
 19  6  1  0  0  0  0
 20  6  2  0  0  0  0
 21 22  1  0  0  0  0
 23 26  2  0  0  0  0
 24 21  2  0  0  0  0
 25 28  2  0  0  0  0
 25 23  1  0  0  0  0
 26 21  1  0  0  0  0
 26 27  1  0  0  0  0
 28 24  1  0  0  0  0
 29 30  1  0  0  0  0
 30 28  1  0  0  0  0
 32 31  1  0  0  0  0
M  END
>  <MODEL>
9

>  <REMARK>
 VINA RESULT:      -7.9      2.596      3.825
  Name = 
  3 active torsions:
  status: ('A' for Active; 'I' for Inactive)
    1  A    between atoms: C_13  and  C_29
    2  A    between atoms: O_15  and  C_26
    3  A    between atoms: C_16  and  C_27
                            x       y       z     vdW  Elec       q    Type
                         _______ _______ _______ _____ _____    ______ ____

>  <TORSDO>
F 3

$$$$
