=
 OpenBabel11052415483D

 34 38  0  0  0  0  0  0  0  0999 V2000
  186.7100  178.1780  143.7860 C   0  0  0  0  0  0  0  0  0  0  0  0
  187.9350  177.4940  147.2110 C   0  0  0  0  0  3  0  0  0  0  0  0
  185.9240  178.1790  146.4210 N   0  0  0  0  0  0  0  0  0  0  0  0
  186.1610  178.6510  141.3400 C   0  0  0  0  0  0  0  0  0  0  0  0
  187.1520  178.1160  142.3360 C   0  0  0  0  0  2  0  0  0  0  0  0
  184.5240  178.9450  143.1410 C   0  0  0  0  0  0  0  0  0  0  0  0
  183.2130  179.3150  143.4180 O   0  0  0  0  0  1  0  0  0  0  0  0
  184.9420  179.0030  141.7330 C   0  0  0  0  0  3  0  0  0  0  0  0
  185.0190  178.5440  145.4840 C   0  0  0  0  0  0  0  0  0  0  0  0
  185.3850  178.5640  144.1200 C   0  0  0  0  0  0  0  0  0  0  0  0
  183.7130  178.9070  145.9250 N   0  0  0  0  0  1  0  0  0  0  0  0
  189.3250  177.0560  147.3640 C   0  0  0  0  0  3  0  0  0  0  0  0
  190.2610  176.8490  146.4440 C   0  0  0  0  0  0  0  0  0  0  0  0
  190.0680  177.0310  145.0030 C   0  0  0  0  0  3  0  0  0  0  0  0
  187.2010  177.8140  146.1440 C   0  0  0  0  0  0  0  0  0  0  0  0
  188.9880  177.4220  144.3370 C   0  0  0  0  0  3  0  0  0  0  0  0
  187.6340  177.8010  144.7960 C   0  0  0  0  0  0  0  0  0  0  0  0
  191.5900  176.4020  146.9040 C   0  0  0  0  0  0  0  0  0  0  0  0
  192.1470  176.9220  148.0670 O   0  0  0  0  0  1  0  0  0  0  0  0
  192.2360  175.5430  146.2460 O   0  0  0  0  0  0  0  0  0  0  0  0
  186.4610  178.7380  139.9740 O   0  0  0  0  0  0  0  0  0  0  0  0
  188.6840  177.4680  137.1700 C   0  0  0  0  0  2  0  0  0  0  0  0
  188.7430  178.1800  139.9590 C   0  0  0  0  0  3  0  0  0  0  0  0
  192.2290  176.4810  138.1450 C   0  0  0  0  0  0  0  0  0  0  0  0
  191.0510  176.6560  137.3970 C   0  0  0  0  0  3  0  0  0  0  0  0
  189.9100  177.2010  137.9930 C   0  0  0  0  0  0  0  0  0  0  0  0
  191.1140  177.4370  140.0860 C   0  0  0  0  0  3  0  0  0  0  0  0
  189.9430  177.5970  139.3400 C   0  0  0  0  0  0  0  0  0  0  0  0
  192.2490  176.8790  139.4900 C   0  0  0  0  0  3  0  0  0  0  0  0
  187.5600  178.1490  139.3350 C   0  0  0  0  0  0  0  0  0  0  0  0
  187.4180  177.3920  138.0300 C   0  0  0  0  0  2  0  0  0  0  0  0
  193.4430  175.8980  137.5380 C   0  0  0  0  0  0  0  0  0  0  0  0
  194.2380  176.6700  136.7000 O   0  0  0  0  0  1  0  0  0  0  0  0
  193.8010  174.6410  137.7760 C   0  0  0  0  0  2  0  0  0  0  0  0
  1 10  1  0  0  0  0
  1 17  2  0  0  0  0
  2 12  1  0  0  0  0
  4  8  2  0  0  0  0
  4  5  1  0  0  0  0
  5  1  1  0  0  0  0
  6  7  1  0  0  0  0
  6 10  2  0  0  0  0
  8  6  1  0  0  0  0
  9 11  1  0  0  0  0
  9  3  2  0  0  0  0
 10  9  1  0  0  0  0
 13 18  1  0  0  0  0
 13 12  2  0  0  0  0
 14 13  1  0  0  0  0
 15  3  1  0  0  0  0
 15  2  2  0  0  0  0
 16 17  1  0  0  0  0
 16 14  2  0  0  0  0
 17 15  1  0  0  0  0
 18 19  1  0  0  0  0
 20 18  2  0  0  0  0
 21  4  1  0  0  0  0
 22 26  1  0  0  0  0
 22 31  1  0  0  0  0
 24 29  1  0  0  0  0
 25 26  1  0  0  0  0
 25 24  2  0  0  0  0
 26 28  2  0  0  0  0
 28 23  1  0  0  0  0
 28 27  1  0  0  0  0
 29 27  2  0  0  0  0
 30 23  2  0  0  0  0
 30 21  1  0  0  0  0
 31 30  1  0  0  0  0
 32 34  2  0  0  0  0
 32 24  1  0  0  0  0
 33 32  1  0  0  0  0
M  END
>  <MODEL>
1

>  <REMARK>
 VINA RESULT:     -12.1      0.000      0.000
  Name = 
  4 active torsions:
  status: ('A' for Active; 'I' for Inactive)
    1  A    between atoms: C_3  and  C_25
    2  A    between atoms: C_7  and  C_11
    3  A    between atoms: C_8  and  O_18
    4  A    between atoms: O_18  and  C_30
                            x       y       z     vdW  Elec       q    Type
                         _______ _______ _______ _____ _____    ______ ____

>  <TORSDO>
F 4

$$$$
=
 OpenBabel11052415483D

 34 38  0  0  1  0  0  0  0  0999 V2000
  184.3570  178.7650  141.9510 C   0  0  1  0  0  3  0  0  0  0  0  0
  185.3490  178.3120  138.4140 C   0  0  0  0  0  3  0  0  0  0  0  0
  183.3260  178.5140  139.4160 N   0  0  0  0  0  0  0  0  0  0  0  0
  183.9610  178.9930  144.4620 C   0  0  0  0  0  0  0  0  0  0  0  0
  184.9540  178.9570  143.3340 C   0  0  0  0  0  3  0  0  0  0  0  0
  182.1270  178.9220  142.8360 C   0  0  0  0  0  0  0  0  0  0  0  0
  180.7440  178.9700  142.7000 O   0  0  0  0  0  1  0  0  0  0  0  0
  182.6580  179.0030  144.2040 C   0  0  0  0  0  3  0  0  0  0  0  0
  182.4610  178.6660  140.4460 C   0  0  0  0  0  0  0  0  0  0  0  0
  182.9510  178.7920  141.7640 C   0  0  0  0  0  0  0  0  0  0  0  0
  181.0670  178.6870  140.1480 N   0  0  0  0  0  1  0  0  0  0  0  0
  186.7800  178.2170  138.1140 C   0  0  0  0  0  3  0  0  0  0  0  0
  187.8290  178.2710  138.9280 C   0  0  0  0  0  0  0  0  0  0  0  0
  187.7490  178.4500  140.3800 C   0  0  0  0  0  3  0  0  0  0  0  0
  184.6740  178.4740  139.5540 C   0  0  0  0  0  0  0  0  0  0  0  0
  186.6820  178.5850  141.1580 C   0  0  0  0  0  3  0  0  0  0  0  0
  185.2350  178.6030  140.8480 C   0  0  0  0  0  0  0  0  0  0  0  0
  189.1710  178.1440  138.3280 C   0  0  0  0  0  0  0  0  0  0  0  0
  190.2080  177.5460  139.0350 O   0  0  0  0  0  1  0  0  0  0  0  0
  189.3940  178.5770  137.1650 O   0  0  0  0  0  0  0  0  0  0  0  0
  184.3670  179.0790  145.8000 O   0  0  0  0  0  0  0  0  0  0  0  0
  187.1280  178.3490  148.3020 C   0  0  0  0  0  2  0  0  0  0  0  0
  186.4480  178.0250  145.5240 C   0  0  0  0  0  3  0  0  0  0  0  0
  190.3460  176.8930  146.8840 C   0  0  0  0  0  0  0  0  0  0  0  0
  189.4160  177.4540  147.7770 C   0  0  0  0  0  3  0  0  0  0  0  0
  188.1470  177.8330  147.3290 C   0  0  0  0  0  0  0  0  0  0  0  0
  188.7040  177.0660  145.0960 C   0  0  0  0  0  3  0  0  0  0  0  0
  187.7890  177.6340  145.9860 C   0  0  0  0  0  0  0  0  0  0  0  0
  189.9770  176.7010  145.5440 C   0  0  0  0  0  3  0  0  0  0  0  0
  185.6370  178.7570  146.2960 C   0  0  0  0  0  0  0  0  0  0  0  0
  186.1460  179.3030  147.6140 C   0  0  0  0  0  2  0  0  0  0  0  0
  191.6960  176.4940  147.3330 C   0  0  0  0  0  0  0  0  0  0  0  0
  192.3050  177.1710  148.3830 O   0  0  0  0  0  1  0  0  0  0  0  0
  192.3520  175.4950  146.7530 C   0  0  0  0  0  2  0  0  0  0  0  0
  1  5  1  6  0  0  0
  2 15  1  0  0  0  0
  3 15  2  0  0  0  0
  3  9  1  0  0  0  0
  4 21  1  0  0  0  0
  5  4  2  0  0  0  0
  6  8  2  0  0  0  0
  7  6  1  0  0  0  0
  8  4  1  0  0  0  0
  9 10  2  0  0  0  0
 10  1  1  0  0  0  0
 10  6  1  0  0  0  0
 11  9  1  0  0  0  0
 12  2  2  0  0  0  0
 12 13  1  0  0  0  0
 13 14  2  0  0  0  0
 14 16  1  0  0  0  0
 15 17  1  0  0  0  0
 17 16  2  0  0  0  0
 17  1  1  0  0  0  0
 18 13  1  0  0  0  0
 18 19  1  0  0  0  0
 20 18  2  0  0  0  0
 21 30  1  0  0  0  0
 23 28  1  0  0  0  0
 23 30  2  0  0  0  0
 24 32  1  0  0  0  0
 24 25  1  0  0  0  0
 26 25  2  0  0  0  0
 26 22  1  0  0  0  0
 27 29  1  0  0  0  0
 27 28  2  0  0  0  0
 28 26  1  0  0  0  0
 29 24  2  0  0  0  0
 30 31  1  0  0  0  0
 31 22  1  0  0  0  0
 32 33  1  0  0  0  0
 34 32  2  0  0  0  0
M  END
>  <MODEL>
2

>  <REMARK>
 VINA RESULT:     -11.8      2.796      7.477
  Name = 
  4 active torsions:
  status: ('A' for Active; 'I' for Inactive)
    1  A    between atoms: C_3  and  C_25
    2  A    between atoms: C_7  and  C_11
    3  A    between atoms: C_8  and  O_18
    4  A    between atoms: O_18  and  C_30
                            x       y       z     vdW  Elec       q    Type
                         _______ _______ _______ _____ _____    ______ ____

>  <TORSDO>
F 4

$$$$
=
 OpenBabel11052415483D

 34 38  0  0  1  0  0  0  0  0999 V2000
  188.0040  177.7850  145.0510 C   0  0  1  0  0  3  0  0  0  0  0  0
  184.5260  178.5630  146.0500 C   0  0  0  0  0  3  0  0  0  0  0  0
  186.4080  178.1750  147.2540 N   0  0  0  0  0  0  0  0  0  0  0  0
  190.2870  177.1850  144.0820 C   0  0  0  0  0  0  0  0  0  0  0  0
  188.8750  177.6280  143.8170 C   0  0  0  0  0  3  0  0  0  0  0  0
  189.8800  177.3610  146.4930 C   0  0  0  0  0  0  0  0  0  0  0  0
  190.4790  177.2590  147.7440 O   0  0  0  0  0  1  0  0  0  0  0  0
  190.7370  177.0950  145.3290 C   0  0  0  0  0  3  0  0  0  0  0  0
  187.7150  177.8890  147.4540 C   0  0  0  0  0  0  0  0  0  0  0  0
  188.5670  177.6750  146.3490 C   0  0  0  0  0  0  0  0  0  0  0  0
  188.1810  177.8080  148.7990 N   0  0  0  0  0  1  0  0  0  0  0  0
  183.5390  178.7600  144.9870 C   0  0  0  0  0  3  0  0  0  0  0  0
  183.6830  178.7080  143.6670 C   0  0  0  0  0  0  0  0  0  0  0  0
  184.9440  178.4250  142.9770 C   0  0  0  0  0  3  0  0  0  0  0  0
  185.8310  178.2790  146.0320 C   0  0  0  0  0  0  0  0  0  0  0  0
  186.1460  178.1720  143.4810 C   0  0  0  0  0  3  0  0  0  0  0  0
  186.6270  178.0850  144.8780 C   0  0  0  0  0  0  0  0  0  0  0  0
  182.4890  178.9520  142.8350 C   0  0  0  0  0  0  0  0  0  0  0  0
  182.5410  178.7800  141.4560 O   0  0  0  0  0  0  0  0  0  0  0  0
  181.4070  179.3200  143.3660 O   0  0  0  0  0  1  0  0  0  0  0  0
  191.1840  176.9160  143.0390 O   0  0  0  0  0  0  0  0  0  0  0  0
  191.6910  176.7600  139.2800 C   0  0  0  0  0  2  0  0  0  0  0  0
  189.6590  177.1890  141.2730 C   0  0  0  0  0  3  0  0  0  0  0  0
  188.6860  177.6830  137.1340 C   0  0  0  0  0  0  0  0  0  0  0  0
  189.9960  177.3510  137.5220 C   0  0  0  0  0  3  0  0  0  0  0  0
  190.3150  177.2010  138.8740 C   0  0  0  0  0  0  0  0  0  0  0  0
  188.0130  177.6780  139.4730 C   0  0  0  0  0  3  0  0  0  0  0  0
  189.3190  177.3600  139.8520 C   0  0  0  0  0  0  0  0  0  0  0  0
  187.7010  177.8410  138.1190 C   0  0  0  0  0  3  0  0  0  0  0  0
  190.9320  177.0950  141.6720 C   0  0  0  0  0  0  0  0  0  0  0  0
  192.0500  177.2940  140.6700 C   0  0  0  0  0  2  0  0  0  0  0  0
  188.3280  177.8570  135.7110 C   0  0  0  0  0  0  0  0  0  0  0  0
  189.3190  177.8170  134.7370 O   0  0  0  0  0  1  0  0  0  0  0  0
  187.0700  178.0530  135.3320 C   0  0  0  0  0  2  0  0  0  0  0  0
  1  5  1  6  0  0  0
  1 10  1  0  0  0  0
  3  9  1  0  0  0  0
  4  8  1  0  0  0  0
  5  4  2  0  0  0  0
  6  7  1  0  0  0  0
  8  6  2  0  0  0  0
  9 11  1  0  0  0  0
 10  6  1  0  0  0  0
 10  9  2  0  0  0  0
 12  2  2  0  0  0  0
 13 12  1  0  0  0  0
 14 16  1  0  0  0  0
 14 13  2  0  0  0  0
 15  2  1  0  0  0  0
 15  3  2  0  0  0  0
 16 17  2  0  0  0  0
 17  1  1  0  0  0  0
 17 15  1  0  0  0  0
 18 20  1  0  0  0  0
 18 13  1  0  0  0  0
 19 18  2  0  0  0  0
 21  4  1  0  0  0  0
 22 31  1  0  0  0  0
 23 30  2  0  0  0  0
 24 25  2  0  0  0  0
 24 29  1  0  0  0  0
 25 26  1  0  0  0  0
 26 22  1  0  0  0  0
 26 28  2  0  0  0  0
 27 28  1  0  0  0  0
 28 23  1  0  0  0  0
 29 27  2  0  0  0  0
 30 21  1  0  0  0  0
 31 30  1  0  0  0  0
 32 24  1  0  0  0  0
 33 32  1  0  0  0  0
 34 32  2  0  0  0  0
M  END
>  <MODEL>
3

>  <REMARK>
 VINA RESULT:     -11.5      1.854      5.633
  Name = 
  4 active torsions:
  status: ('A' for Active; 'I' for Inactive)
    1  A    between atoms: C_3  and  C_25
    2  A    between atoms: C_7  and  C_11
    3  A    between atoms: C_8  and  O_18
    4  A    between atoms: O_18  and  C_30
                            x       y       z     vdW  Elec       q    Type
                         _______ _______ _______ _____ _____    ______ ____

>  <TORSDO>
F 4

$$$$
=
 OpenBabel11052415483D

 34 38  0  0  1  0  0  0  0  0999 V2000
  188.3800  177.7060  145.1390 C   0  0  1  0  0  3  0  0  0  0  0  0
  191.5260  176.8570  143.3840 C   0  0  0  0  0  3  0  0  0  0  0  0
  191.0040  177.0200  145.5840 N   0  0  0  0  0  0  0  0  0  0  0  0
  186.1100  178.3990  146.0770 C   0  0  0  0  0  0  0  0  0  0  0  0
  186.9220  178.0300  144.8660 C   0  0  0  0  0  3  0  0  0  0  0  0
  188.0260  177.8690  147.5110 C   0  0  0  0  0  0  0  0  0  0  0  0
  188.4460  177.7690  148.8330 O   0  0  0  0  0  1  0  0  0  0  0  0
  186.6350  178.2900  147.2920 C   0  0  0  0  0  3  0  0  0  0  0  0
  190.2110  177.2460  146.6570 C   0  0  0  0  0  0  0  0  0  0  0  0
  188.8590  177.6080  146.4710 C   0  0  0  0  0  0  0  0  0  0  0  0
  190.7900  177.1130  147.9530 N   0  0  0  0  0  1  0  0  0  0  0  0
  191.5090  176.8430  141.9200 C   0  0  0  0  0  3  0  0  0  0  0  0
  190.5130  177.0910  141.0760 C   0  0  0  0  0  0  0  0  0  0  0  0
  189.1500  177.4490  141.4760 C   0  0  0  0  0  3  0  0  0  0  0  0
  190.5870  177.1140  144.2970 C   0  0  0  0  0  0  0  0  0  0  0  0
  188.6380  177.5990  142.6920 C   0  0  0  0  0  3  0  0  0  0  0  0
  189.2410  177.4640  144.0360 C   0  0  0  0  0  0  0  0  0  0  0  0
  190.7980  176.9990  139.6310 C   0  0  0  0  0  0  0  0  0  0  0  0
  192.0960  176.7850  139.1780 O   0  0  0  0  0  1  0  0  0  0  0  0
  189.8680  177.1140  138.7890 O   0  0  0  0  0  0  0  0  0  0  0  0
  184.7730  178.8040  145.9720 O   0  0  0  0  0  0  0  0  0  0  0  0
  183.9450  178.6290  142.2710 C   0  0  0  0  0  2  0  0  0  0  0  0
  182.7060  178.6290  144.8690 C   0  0  0  0  0  3  0  0  0  0  0  0
  180.2500  178.7090  141.3640 C   0  0  0  0  0  0  0  0  0  0  0  0
  181.6520  178.7200  141.2510 C   0  0  0  0  0  3  0  0  0  0  0  0
  182.4530  178.7050  142.3960 C   0  0  0  0  0  0  0  0  0  0  0  0
  180.4660  178.6320  143.7870 C   0  0  0  0  0  3  0  0  0  0  0  0
  181.8580  178.6560  143.6680 C   0  0  0  0  0  0  0  0  0  0  0  0
  179.6680  178.6620  142.6390 C   0  0  0  0  0  3  0  0  0  0  0  0
  184.0210  178.8620  144.7910 C   0  0  0  0  0  0  0  0  0  0  0  0
  184.6320  179.2870  143.4720 C   0  0  0  0  0  2  0  0  0  0  0  0
  179.3840  178.7350  140.1670 C   0  0  0  0  0  0  0  0  0  0  0  0
  179.0280  179.9510  139.5950 O   0  0  0  0  0  1  0  0  0  0  0  0
  178.9310  177.6150  139.6150 C   0  0  0  0  0  2  0  0  0  0  0  0
  1  5  1  1  0  0  0
  1 10  1  0  0  0  0
  2 15  1  0  0  0  0
  3  9  1  0  0  0  0
  4  8  1  0  0  0  0
  5  4  2  0  0  0  0
  6  7  1  0  0  0  0
  8  6  2  0  0  0  0
  9 11  1  0  0  0  0
 10  9  2  0  0  0  0
 10  6  1  0  0  0  0
 12  2  2  0  0  0  0
 13 14  2  0  0  0  0
 13 12  1  0  0  0  0
 14 16  1  0  0  0  0
 15  3  2  0  0  0  0
 16 17  2  0  0  0  0
 17 15  1  0  0  0  0
 17  1  1  0  0  0  0
 18 13  1  0  0  0  0
 19 18  1  0  0  0  0
 20 18  2  0  0  0  0
 21  4  1  0  0  0  0
 22 26  1  0  0  0  0
 22 31  1  0  0  0  0
 24 29  1  0  0  0  0
 25 24  2  0  0  0  0
 25 26  1  0  0  0  0
 26 28  2  0  0  0  0
 28 27  1  0  0  0  0
 28 23  1  0  0  0  0
 29 27  2  0  0  0  0
 30 23  2  0  0  0  0
 30 21  1  0  0  0  0
 31 30  1  0  0  0  0
 32 24  1  0  0  0  0
 33 32  1  0  0  0  0
 34 32  2  0  0  0  0
M  END
>  <MODEL>
4

>  <REMARK>
 VINA RESULT:     -11.1      3.126      8.179
  Name = 
  4 active torsions:
  status: ('A' for Active; 'I' for Inactive)
    1  A    between atoms: C_3  and  C_25
    2  A    between atoms: C_7  and  C_11
    3  A    between atoms: C_8  and  O_18
    4  A    between atoms: O_18  and  C_30
                            x       y       z     vdW  Elec       q    Type
                         _______ _______ _______ _____ _____    ______ ____

>  <TORSDO>
F 4

$$$$
=
 OpenBabel11052415483D

 34 38  0  0  1  0  0  0  0  0999 V2000
  182.8920  178.6240  141.7260 C   0  0  1  0  0  3  0  0  0  0  0  0
  183.1810  178.1040  138.0720 C   0  0  0  0  0  3  0  0  0  0  0  0
  181.3910  178.2270  139.4580 N   0  0  0  0  0  0  0  0  0  0  0  0
  182.9940  178.9160  144.2580 C   0  0  0  0  0  0  0  0  0  0  0  0
  183.7420  178.8970  142.9540 C   0  0  0  0  0  3  0  0  0  0  0  0
  180.8800  178.6860  143.0400 C   0  0  0  0  0  0  0  0  0  0  0  0
  179.4980  178.6520  143.1850 O   0  0  0  0  0  1  0  0  0  0  0  0
  181.6680  178.8450  144.2700 C   0  0  0  0  0  3  0  0  0  0  0  0
  180.7430  178.3660  140.6370 C   0  0  0  0  0  0  0  0  0  0  0  0
  181.4780  178.5650  141.8260 C   0  0  0  0  0  0  0  0  0  0  0  0
  179.3190  178.2980  140.6270 N   0  0  0  0  0  1  0  0  0  0  0  0
  184.5250  178.0790  137.4910 C   0  0  0  0  0  3  0  0  0  0  0  0
  185.7100  178.2210  138.0740 C   0  0  0  0  0  0  0  0  0  0  0  0
  185.9130  178.4450  139.5070 C   0  0  0  0  0  3  0  0  0  0  0  0
  182.7390  178.2680  139.3210 C   0  0  0  0  0  0  0  0  0  0  0  0
  185.0170  178.5470  140.4820 C   0  0  0  0  0  3  0  0  0  0  0  0
  183.5400  178.4730  140.4710 C   0  0  0  0  0  0  0  0  0  0  0  0
  186.9100  178.1490  137.2180 C   0  0  0  0  0  0  0  0  0  0  0  0
  187.4400  176.9180  136.8440 O   0  0  0  0  0  1  0  0  0  0  0  0
  187.4710  179.2030  136.8150 O   0  0  0  0  0  0  0  0  0  0  0  0
  183.6550  179.0720  145.4840 O   0  0  0  0  0  0  0  0  0  0  0  0
  186.8140  178.3000  147.4430 C   0  0  0  0  0  2  0  0  0  0  0  0
  185.6740  178.0800  144.8090 C   0  0  0  0  0  3  0  0  0  0  0  0
  189.7650  176.9820  145.4320 C   0  0  0  0  0  0  0  0  0  0  0  0
  188.9920  177.4820  146.4950 C   0  0  0  0  0  3  0  0  0  0  0  0
  187.6600  177.8500  146.2880 C   0  0  0  0  0  0  0  0  0  0  0  0
  187.8380  177.1930  143.9600 C   0  0  0  0  0  3  0  0  0  0  0  0
  187.0800  177.7010  145.0180 C   0  0  0  0  0  0  0  0  0  0  0  0
  189.1750  176.8390  144.1670 C   0  0  0  0  0  3  0  0  0  0  0  0
  184.9960  178.7580  145.7410 C   0  0  0  0  0  0  0  0  0  0  0  0
  185.7150  179.2590  146.9770 C   0  0  0  0  0  2  0  0  0  0  0  0
  191.1780  176.5960  145.6250 C   0  0  0  0  0  0  0  0  0  0  0  0
  192.0130  176.4490  144.5240 O   0  0  0  0  0  1  0  0  0  0  0  0
  191.6780  176.3840  146.8370 C   0  0  0  0  0  2  0  0  0  0  0  0
  1 10  1  0  0  0  0
  1  5  1  6  0  0  0
  2 15  1  0  0  0  0
  3  9  1  0  0  0  0
  4  8  1  0  0  0  0
  4 21  1  0  0  0  0
  5  4  2  0  0  0  0
  6  7  1  0  0  0  0
  6  8  2  0  0  0  0
  9 10  2  0  0  0  0
 10  6  1  0  0  0  0
 11  9  1  0  0  0  0
 12  2  2  0  0  0  0
 12 13  1  0  0  0  0
 13 14  2  0  0  0  0
 14 16  1  0  0  0  0
 15  3  2  0  0  0  0
 15 17  1  0  0  0  0
 17 16  2  0  0  0  0
 17  1  1  0  0  0  0
 18 13  1  0  0  0  0
 19 18  1  0  0  0  0
 20 18  2  0  0  0  0
 21 30  1  0  0  0  0
 23 28  1  0  0  0  0
 23 30  2  0  0  0  0
 24 32  1  0  0  0  0
 24 25  1  0  0  0  0
 26 25  2  0  0  0  0
 26 22  1  0  0  0  0
 27 29  1  0  0  0  0
 27 28  2  0  0  0  0
 28 26  1  0  0  0  0
 29 24  2  0  0  0  0
 30 31  1  0  0  0  0
 31 22  1  0  0  0  0
 32 34  2  0  0  0  0
 33 32  1  0  0  0  0
M  END
>  <MODEL>
5

>  <REMARK>
 VINA RESULT:     -11.0      3.692      7.731
  Name = 
  4 active torsions:
  status: ('A' for Active; 'I' for Inactive)
    1  A    between atoms: C_3  and  C_25
    2  A    between atoms: C_7  and  C_11
    3  A    between atoms: C_8  and  O_18
    4  A    between atoms: O_18  and  C_30
                            x       y       z     vdW  Elec       q    Type
                         _______ _______ _______ _____ _____    ______ ____

>  <TORSDO>
F 4

$$$$
=
 OpenBabel11052415483D

 34 38  0  0  1  0  0  0  0  0999 V2000
  187.6400  177.8690  144.8450 C   0  0  1  0  0  3  0  0  0  0  0  0
  190.8630  176.9560  143.2710 C   0  0  0  0  0  3  0  0  0  0  0  0
  190.2340  177.1790  145.4370 N   0  0  0  0  0  0  0  0  0  0  0  0
  185.3320  178.5990  145.6510 C   0  0  0  0  0  0  0  0  0  0  0  0
  186.2000  178.1950  144.4920 C   0  0  0  0  0  3  0  0  0  0  0  0
  187.1700  178.0950  147.1920 C   0  0  0  0  0  0  0  0  0  0  0  0
  187.5240  178.0260  148.5350 O   0  0  0  0  0  1  0  0  0  0  0  0
  185.7950  178.5180  146.8930 C   0  0  0  0  0  3  0  0  0  0  0  0
  189.3900  177.4370  146.4640 C   0  0  0  0  0  0  0  0  0  0  0  0
  188.0520  177.8020  146.2010 C   0  0  0  0  0  0  0  0  0  0  0  0
  189.9030  177.3340  147.7900 N   0  0  0  0  0  1  0  0  0  0  0  0
  190.9180  176.9060  141.8090 C   0  0  0  0  0  3  0  0  0  0  0  0
  189.9670  177.1380  140.9100 C   0  0  0  0  0  0  0  0  0  0  0  0
  188.5890  177.5140  141.2330 C   0  0  0  0  0  3  0  0  0  0  0  0
  189.8820  177.2420  144.1300 C   0  0  0  0  0  0  0  0  0  0  0  0
  188.0180  177.6980  142.4170 C   0  0  0  0  0  3  0  0  0  0  0  0
  188.5520  177.5930  143.7930 C   0  0  0  0  0  0  0  0  0  0  0  0
  190.3230  177.0080  139.4840 C   0  0  0  0  0  0  0  0  0  0  0  0
  189.8030  177.8880  138.5410 O   0  0  0  0  0  0  0  0  0  0  0  0
  191.1040  176.0950  139.1020 O   0  0  0  0  0  1  0  0  0  0  0  0
  184.0040  179.0090  145.4710 O   0  0  0  0  0  0  0  0  0  0  0  0
  181.0400  179.1790  143.1030 C   0  0  0  0  0  2  0  0  0  0  0  0
  183.8910  178.7820  143.1350 C   0  0  0  0  0  3  0  0  0  0  0  0
  181.7430  178.3370  139.4590 C   0  0  0  0  0  0  0  0  0  0  0  0
  181.0600  178.6380  140.6510 C   0  0  0  0  0  3  0  0  0  0  0  0
  181.7610  178.7720  141.8520 C   0  0  0  0  0  0  0  0  0  0  0  0
  183.8440  178.3410  140.6870 C   0  0  0  0  0  3  0  0  0  0  0  0
  183.1580  178.6280  141.8690 C   0  0  0  0  0  0  0  0  0  0  0  0
  183.1380  178.1930  139.4890 C   0  0  0  0  0  3  0  0  0  0  0  0
  183.2440  178.8450  144.3050 C   0  0  0  0  0  0  0  0  0  0  0  0
  181.7460  178.6290  144.3470 C   0  0  0  0  0  2  0  0  0  0  0  0
  181.0210  178.1800  138.1790 C   0  0  0  0  0  0  0  0  0  0  0  0
  181.4580  178.8610  137.0490 O   0  0  0  0  0  1  0  0  0  0  0  0
  179.9530  177.3960  138.0780 C   0  0  0  0  0  2  0  0  0  0  0  0
  1  5  1  1  0  0  0
  1 10  1  0  0  0  0
  2 15  1  0  0  0  0
  3  9  1  0  0  0  0
  4  8  1  0  0  0  0
  5  4  2  0  0  0  0
  6  7  1  0  0  0  0
  8  6  2  0  0  0  0
  9 11  1  0  0  0  0
 10  9  2  0  0  0  0
 10  6  1  0  0  0  0
 12  2  2  0  0  0  0
 13 14  2  0  0  0  0
 13 12  1  0  0  0  0
 14 16  1  0  0  0  0
 15  3  2  0  0  0  0
 16 17  2  0  0  0  0
 17 15  1  0  0  0  0
 17  1  1  0  0  0  0
 18 13  1  0  0  0  0
 19 18  2  0  0  0  0
 20 18  1  0  0  0  0
 21  4  1  0  0  0  0
 22 31  1  0  0  0  0
 23 30  2  0  0  0  0
 24 29  2  0  0  0  0
 24 25  1  0  0  0  0
 25 26  2  0  0  0  0
 26 28  1  0  0  0  0
 26 22  1  0  0  0  0
 27 28  2  0  0  0  0
 28 23  1  0  0  0  0
 29 27  1  0  0  0  0
 30 31  1  0  0  0  0
 30 21  1  0  0  0  0
 32 24  1  0  0  0  0
 33 32  1  0  0  0  0
 34 32  2  0  0  0  0
M  END
>  <MODEL>
6

>  <REMARK>
 VINA RESULT:     -10.8      2.976      7.418
  Name = 
  4 active torsions:
  status: ('A' for Active; 'I' for Inactive)
    1  A    between atoms: C_3  and  C_25
    2  A    between atoms: C_7  and  C_11
    3  A    between atoms: C_8  and  O_18
    4  A    between atoms: O_18  and  C_30
                            x       y       z     vdW  Elec       q    Type
                         _______ _______ _______ _____ _____    ______ ____

>  <TORSDO>
F 4

$$$$
=
 OpenBabel11052415483D

 34 38  0  0  0  0  0  0  0  0999 V2000
  185.4710  178.4680  142.8320 C   0  0  0  0  0  0  0  0  0  0  0  0
  185.4880  178.2800  146.5280 C   0  0  0  0  0  3  0  0  0  0  0  0
  183.8240  178.6220  145.0270 N   0  0  0  0  0  0  0  0  0  0  0  0
  185.7660  178.6300  140.3020 C   0  0  0  0  0  0  0  0  0  0  0  0
  186.3930  178.3250  141.6340 C   0  0  0  0  0  2  0  0  0  0  0  0
  183.5870  178.8830  141.3970 C   0  0  0  0  0  0  0  0  0  0  0  0
  182.2340  179.1060  141.1680 O   0  0  0  0  0  1  0  0  0  0  0  0
  184.4610  178.8580  140.2150 C   0  0  0  0  0  3  0  0  0  0  0  0
  183.2720  178.7760  143.8010 C   0  0  0  0  0  0  0  0  0  0  0  0
  184.0850  178.7110  142.6490 C   0  0  0  0  0  0  0  0  0  0  0  0
  181.8670  179.0080  143.7280 N   0  0  0  0  0  1  0  0  0  0  0  0
  186.7710  178.0410  147.1930 C   0  0  0  0  0  3  0  0  0  0  0  0
  187.9820  177.8680  146.6750 C   0  0  0  0  0  0  0  0  0  0  0  0
  188.2860  177.8860  145.2420 C   0  0  0  0  0  3  0  0  0  0  0  0
  185.1440  178.3990  145.2440 C   0  0  0  0  0  0  0  0  0  0  0  0
  187.4740  178.0680  144.2080 C   0  0  0  0  0  3  0  0  0  0  0  0
  186.0170  178.3130  144.1330 C   0  0  0  0  0  0  0  0  0  0  0  0
  189.1030  177.6430  147.6080 C   0  0  0  0  0  0  0  0  0  0  0  0
  190.2320  176.9410  147.2010 O   0  0  0  0  0  0  0  0  0  0  0  0
  189.0500  178.0850  148.7880 O   0  0  0  0  0  1  0  0  0  0  0  0
  186.5130  178.6230  139.1170 O   0  0  0  0  0  0  0  0  0  0  0  0
  190.0810  177.5620  139.8620 C   0  0  0  0  0  2  0  0  0  0  0  0
  187.8550  176.9610  138.1390 C   0  0  0  0  0  3  0  0  0  0  0  0
  191.5970  174.9760  137.5160 C   0  0  0  0  0  0  0  0  0  0  0  0
  191.4630  175.9420  138.5290 C   0  0  0  0  0  3  0  0  0  0  0  0
  190.2440  176.5980  138.7250 C   0  0  0  0  0  0  0  0  0  0  0  0
  189.2600  175.3090  136.9210 C   0  0  0  0  0  3  0  0  0  0  0  0
  189.1380  176.2760  137.9210 C   0  0  0  0  0  0  0  0  0  0  0  0
  190.4850  174.6650  136.7190 C   0  0  0  0  0  3  0  0  0  0  0  0
  187.7700  178.0290  138.9400 C   0  0  0  0  0  0  0  0  0  0  0  0
  189.0290  178.6260  139.5330 C   0  0  0  0  0  2  0  0  0  0  0  0
  192.8780  174.2790  137.2850 C   0  0  0  0  0  0  0  0  0  0  0  0
  192.9540  173.2640  136.3380 O   0  0  0  0  0  1  0  0  0  0  0  0
  193.9740  174.5990  137.9640 C   0  0  0  0  0  2  0  0  0  0  0  0
  1 17  2  0  0  0  0
  2 12  1  0  0  0  0
  3 15  1  0  0  0  0
  4  5  1  0  0  0  0
  5  1  1  0  0  0  0
  6 10  2  0  0  0  0
  7  6  1  0  0  0  0
  8  4  2  0  0  0  0
  8  6  1  0  0  0  0
  9  3  2  0  0  0  0
 10  1  1  0  0  0  0
 10  9  1  0  0  0  0
 11  9  1  0  0  0  0
 13 12  2  0  0  0  0
 13 18  1  0  0  0  0
 14 13  1  0  0  0  0
 15  2  2  0  0  0  0
 16 14  2  0  0  0  0
 17 16  1  0  0  0  0
 17 15  1  0  0  0  0
 18 20  1  0  0  0  0
 19 18  2  0  0  0  0
 21  4  1  0  0  0  0
 23 30  2  0  0  0  0
 24 25  1  0  0  0  0
 25 26  2  0  0  0  0
 26 22  1  0  0  0  0
 27 28  2  0  0  0  0
 28 23  1  0  0  0  0
 28 26  1  0  0  0  0
 29 27  1  0  0  0  0
 29 24  2  0  0  0  0
 30 21  1  0  0  0  0
 30 31  1  0  0  0  0
 31 22  1  0  0  0  0
 32 24  1  0  0  0  0
 32 34  2  0  0  0  0
 33 32  1  0  0  0  0
M  END
>  <MODEL>
7

>  <REMARK>
 VINA RESULT:     -10.7      1.526      2.405
  Name = 
  4 active torsions:
  status: ('A' for Active; 'I' for Inactive)
    1  A    between atoms: C_3  and  C_25
    2  A    between atoms: C_7  and  C_11
    3  A    between atoms: C_8  and  O_18
    4  A    between atoms: O_18  and  C_30
                            x       y       z     vdW  Elec       q    Type
                         _______ _______ _______ _____ _____    ______ ____

>  <TORSDO>
F 4

$$$$
=
 OpenBabel11052415483D

 34 38  0  0  0  0  0  0  0  0999 V2000
  187.9110  177.9000  143.2220 C   0  0  0  0  0  0  0  0  0  0  0  0
  188.2700  177.2640  146.8500 C   0  0  0  0  0  3  0  0  0  0  0  0
  186.4960  177.8730  145.5780 N   0  0  0  0  0  0  0  0  0  0  0  0
  187.9710  178.3520  140.7110 C   0  0  0  0  0  0  0  0  0  0  0  0
  188.7020  177.8540  141.9270 C   0  0  0  0  0  2  0  0  0  0  0  0
  185.9290  178.5860  142.0470 C   0  0  0  0  0  0  0  0  0  0  0  0
  184.5770  178.9070  141.9850 O   0  0  0  0  0  1  0  0  0  0  0  0
  186.6810  178.6580  140.7860 C   0  0  0  0  0  3  0  0  0  0  0  0
  185.8390  178.2050  144.4420 C   0  0  0  0  0  0  0  0  0  0  0  0
  186.5320  178.2370  143.2120 C   0  0  0  0  0  0  0  0  0  0  0  0
  184.4520  178.5190  144.5410 N   0  0  0  0  0  1  0  0  0  0  0  0
  189.5930  176.8770  147.3470 C   0  0  0  0  0  3  0  0  0  0  0  0
  190.7350  176.7050  146.6910 C   0  0  0  0  0  0  0  0  0  0  0  0
  190.9000  176.8800  145.2460 C   0  0  0  0  0  3  0  0  0  0  0  0
  187.8130  177.5560  145.6310 C   0  0  0  0  0  0  0  0  0  0  0  0
  190.0060  177.2300  144.3280 C   0  0  0  0  0  3  0  0  0  0  0  0
  188.5680  177.5590  144.4330 C   0  0  0  0  0  0  0  0  0  0  0  0
  191.9230  176.3080  147.4710 C   0  0  0  0  0  0  0  0  0  0  0  0
  192.4110  177.1280  148.4830 O   0  0  0  0  0  1  0  0  0  0  0  0
  192.5100  175.2200  147.2290 O   0  0  0  0  0  0  0  0  0  0  0  0
  188.5980  178.4490  139.4620 O   0  0  0  0  0  0  0  0  0  0  0  0
  188.9630  175.7760  136.7900 C   0  0  0  0  0  2  0  0  0  0  0  0
  190.4810  177.2370  138.7520 C   0  0  0  0  0  3  0  0  0  0  0  0
  192.3640  174.0840  136.5520 C   0  0  0  0  0  0  0  0  0  0  0  0
  191.0050  174.3820  136.3480 C   0  0  0  0  0  3  0  0  0  0  0  0
  190.3890  175.4040  137.0740 C   0  0  0  0  0  0  0  0  0  0  0  0
  192.4860  175.8720  138.1980 C   0  0  0  0  0  3  0  0  0  0  0  0
  191.1330  176.1550  137.9990 C   0  0  0  0  0  0  0  0  0  0  0  0
  193.0970  174.8400  137.4800 C   0  0  0  0  0  3  0  0  0  0  0  0
  189.1520  177.3860  138.7350 C   0  0  0  0  0  0  0  0  0  0  0  0
  188.2880  176.3560  138.0380 C   0  0  0  0  0  2  0  0  0  0  0  0
  193.0340  173.0010  135.8030 C   0  0  0  0  0  0  0  0  0  0  0  0
  192.2760  172.0720  135.1010 O   0  0  0  0  0  1  0  0  0  0  0  0
  194.3580  172.8900  135.7810 C   0  0  0  0  0  2  0  0  0  0  0  0
  1 17  2  0  0  0  0
  2 12  1  0  0  0  0
  3 15  1  0  0  0  0
  4  8  2  0  0  0  0
  4  5  1  0  0  0  0
  5  1  1  0  0  0  0
  6 10  2  0  0  0  0
  7  6  1  0  0  0  0
  8  6  1  0  0  0  0
  9 11  1  0  0  0  0
  9  3  2  0  0  0  0
 10  1  1  0  0  0  0
 10  9  1  0  0  0  0
 13 12  2  0  0  0  0
 13 18  1  0  0  0  0
 14 13  1  0  0  0  0
 15  2  2  0  0  0  0
 16 17  1  0  0  0  0
 16 14  2  0  0  0  0
 17 15  1  0  0  0  0
 18 19  1  0  0  0  0
 20 18  2  0  0  0  0
 21  4  1  0  0  0  0
 22 26  1  0  0  0  0
 22 31  1  0  0  0  0
 24 29  1  0  0  0  0
 25 24  2  0  0  0  0
 25 26  1  0  0  0  0
 26 28  2  0  0  0  0
 28 27  1  0  0  0  0
 28 23  1  0  0  0  0
 29 27  2  0  0  0  0
 30 23  2  0  0  0  0
 30 21  1  0  0  0  0
 31 30  1  0  0  0  0
 32 24  1  0  0  0  0
 33 32  1  0  0  0  0
 34 32  2  0  0  0  0
M  END
>  <MODEL>
8

>  <REMARK>
 VINA RESULT:     -10.5      1.603      2.028
  Name = 
  4 active torsions:
  status: ('A' for Active; 'I' for Inactive)
    1  A    between atoms: C_3  and  C_25
    2  A    between atoms: C_7  and  C_11
    3  A    between atoms: C_8  and  O_18
    4  A    between atoms: O_18  and  C_30
                            x       y       z     vdW  Elec       q    Type
                         _______ _______ _______ _____ _____    ______ ____

>  <TORSDO>
F 4

$$$$
=
 OpenBabel11052415483D

 34 38  0  0  1  0  0  0  0  0999 V2000
  187.5380  177.9880  144.9480 C   0  0  1  0  0  3  0  0  0  0  0  0
  183.9800  178.6550  145.7230 C   0  0  0  0  0  3  0  0  0  0  0  0
  185.7990  178.3590  147.0440 N   0  0  0  0  0  0  0  0  0  0  0  0
  189.8950  177.4560  144.1290 C   0  0  0  0  0  0  0  0  0  0  0  0
  188.4860  177.8420  143.7720 C   0  0  0  0  0  3  0  0  0  0  0  0
  189.3380  177.6610  146.5070 C   0  0  0  0  0  0  0  0  0  0  0  0
  189.8640  177.6040  147.7930 O   0  0  0  0  0  1  0  0  0  0  0  0
  190.2720  177.4060  145.4010 C   0  0  0  0  0  3  0  0  0  0  0  0
  187.1010  178.1250  147.3280 C   0  0  0  0  0  0  0  0  0  0  0  0
  188.0250  177.9230  146.2790 C   0  0  0  0  0  0  0  0  0  0  0  0
  187.4880  178.0870  148.6990 N   0  0  0  0  0  1  0  0  0  0  0  0
  183.0520  178.7950  144.5990 C   0  0  0  0  0  3  0  0  0  0  0  0
  183.2770  178.7250  143.2920 C   0  0  0  0  0  0  0  0  0  0  0  0
  184.5870  178.4770  142.6840 C   0  0  0  0  0  3  0  0  0  0  0  0
  185.2930  178.4190  145.7880 C   0  0  0  0  0  0  0  0  0  0  0  0
  185.7640  178.2770  143.2630 C   0  0  0  0  0  3  0  0  0  0  0  0
  186.1640  178.2340  144.6870 C   0  0  0  0  0  0  0  0  0  0  0  0
  182.1270  178.9100  142.3860 C   0  0  0  0  0  0  0  0  0  0  0  0
  181.0190  179.6460  142.7900 O   0  0  0  0  0  1  0  0  0  0  0  0
  182.1370  178.4020  141.2320 O   0  0  0  0  0  0  0  0  0  0  0  0
  190.8620  177.2030  143.1470 O   0  0  0  0  0  0  0  0  0  0  0  0
  189.0430  177.2980  139.8150 C   0  0  0  0  0  2  0  0  0  0  0  0
  191.6650  176.9570  140.9530 C   0  0  0  0  0  3  0  0  0  0  0  0
  191.1160  176.4450  136.7380 C   0  0  0  0  0  0  0  0  0  0  0  0
  190.0200  176.7400  137.5680 C   0  0  0  0  0  3  0  0  0  0  0  0
  190.1990  176.8960  138.9460 C   0  0  0  0  0  0  0  0  0  0  0  0
  192.5770  176.5000  138.6840 C   0  0  0  0  0  3  0  0  0  0  0  0
  191.4820  176.7810  139.5040 C   0  0  0  0  0  0  0  0  0  0  0  0
  192.3930  176.3300  137.3080 C   0  0  0  0  0  3  0  0  0  0  0  0
  190.6150  177.0160  141.7800 C   0  0  0  0  0  0  0  0  0  0  0  0
  189.2210  176.7700  141.2420 C   0  0  0  0  0  2  0  0  0  0  0  0
  190.9490  176.2660  135.2810 C   0  0  0  0  0  0  0  0  0  0  0  0
  191.7680  175.3780  134.5940 O   0  0  0  0  0  1  0  0  0  0  0  0
  190.0260  176.9380  134.6020 C   0  0  0  0  0  2  0  0  0  0  0  0
  1  5  1  6  0  0  0
  1 10  1  0  0  0  0
  2 15  1  0  0  0  0
  3  9  1  0  0  0  0
  4  8  1  0  0  0  0
  5  4  2  0  0  0  0
  6  7  1  0  0  0  0
  8  6  2  0  0  0  0
  9 11  1  0  0  0  0
 10  6  1  0  0  0  0
 10  9  2  0  0  0  0
 12  2  2  0  0  0  0
 13 12  1  0  0  0  0
 14 16  1  0  0  0  0
 14 13  2  0  0  0  0
 15  3  2  0  0  0  0
 16 17  2  0  0  0  0
 17  1  1  0  0  0  0
 17 15  1  0  0  0  0
 18 19  1  0  0  0  0
 18 13  1  0  0  0  0
 20 18  2  0  0  0  0
 21  4  1  0  0  0  0
 22 31  1  0  0  0  0
 23 30  2  0  0  0  0
 24 29  2  0  0  0  0
 24 25  1  0  0  0  0
 25 26  2  0  0  0  0
 26 28  1  0  0  0  0
 26 22  1  0  0  0  0
 27 28  2  0  0  0  0
 28 23  1  0  0  0  0
 29 27  1  0  0  0  0
 30 21  1  0  0  0  0
 31 30  1  0  0  0  0
 32 24  1  0  0  0  0
 33 32  1  0  0  0  0
 34 32  2  0  0  0  0
M  END
>  <MODEL>
9

>  <REMARK>
 VINA RESULT:     -10.3      1.764      5.340
  Name = 
  4 active torsions:
  status: ('A' for Active; 'I' for Inactive)
    1  A    between atoms: C_3  and  C_25
    2  A    between atoms: C_7  and  C_11
    3  A    between atoms: C_8  and  O_18
    4  A    between atoms: O_18  and  C_30
                            x       y       z     vdW  Elec       q    Type
                         _______ _______ _______ _____ _____    ______ ____

>  <TORSDO>
F 4

$$$$
