=
 OpenBabel11052414363D

 32 37  0  0  0  0  0  0  0  0999 V2000
  187.0670  178.0010  144.8970 C   0  0  0  0  0  0  0  0  0  0  0  0
  189.3610  177.4190  144.0600 C   0  0  0  0  0  0  0  0  0  0  0  0
  186.1420  178.1960  145.9370 C   0  0  0  0  0  3  0  0  0  0  0  0
  188.4210  177.6240  145.2060 C   0  0  0  0  0  0  0  0  0  0  0  0
  190.6770  177.0710  144.1290 C   0  0  0  0  0  0  0  0  0  0  0  0
  189.9730  177.3740  139.1670 C   0  0  0  0  0  3  0  0  0  0  0  0
  188.7910  177.6170  142.6940 C   0  0  0  0  0  0  0  0  0  0  0  0
  191.7850  176.8760  140.6900 C   0  0  0  0  0  3  0  0  0  0  0  0
  190.9290  177.0710  141.7800 C   0  0  0  0  0  0  0  0  0  0  0  0
  191.1070  176.8770  146.5130 C   0  0  0  0  0  0  0  0  0  0  0  0
  188.7670  177.4650  146.5770 C   0  0  0  0  0  0  0  0  0  0  0  0
  191.3900  176.9150  143.0090 O   0  0  0  0  0  0  0  0  0  0  0  0
  189.9430  177.1410  147.0670 O   0  0  0  0  0  0  0  0  0  0  0  0
  187.8000  177.6640  147.5640 C   0  0  0  0  0  3  0  0  0  0  0  0
  187.4640  177.9870  142.5460 C   0  0  0  0  0  3  0  0  0  0  0  0
  192.0840  176.6110  147.3140 N   0  0  0  0  0  2  0  0  0  0  0  0
  186.6450  178.1750  143.6040 N   0  0  0  0  0  0  0  0  0  0  0  0
  189.5950  177.4260  141.5680 C   0  0  0  0  0  0  0  0  0  0  0  0
  191.3780  176.8520  145.2240 O   0  0  0  0  0  0  0  0  0  0  0  0
  186.5010  178.0300  147.2590 C   0  0  0  0  0  3  0  0  0  0  0  0
  191.3080  177.0280  139.3860 C   0  0  0  0  0  3  0  0  0  0  0  0
  189.1170  177.5760  140.2550 C   0  0  0  0  0  3  0  0  0  0  0  0
  183.8240  178.9640  141.3220 C   0  0  0  0  0  0  0  0  0  0  0  0
  180.7830  179.2480  143.2450 C   0  0  0  0  0  1  0  0  0  0  0  0
  183.6590  179.4950  140.0800 F   0  0  0  0  0  0  0  0  0  0  0  0
  182.9720  178.9080  144.2510 C   0  0  0  0  0  3  0  0  0  0  0  0
  185.2930  178.5580  143.3020 C   0  0  0  0  0  0  0  0  0  0  0  0
  182.6950  178.1790  141.9080 C   0  0  0  0  0  2  0  0  0  0  0  0
  184.3990  178.5360  144.3100 C   0  0  0  0  0  3  0  0  0  0  0  0
  185.0060  179.0900  141.9400 C   0  0  0  0  0  0  0  0  0  0  0  0
  186.0400  179.7280  141.2610 O   0  0  0  0  0  1  0  0  0  0  0  0
  182.2020  178.8110  143.1680 C   0  0  0  0  0  0  0  0  0  0  0  0
  1  4  2  0  0  0  0
  1  3  1  0  0  0  0
  2  5  2  0  0  0  0
  2  4  1  0  0  0  0
  3 20  2  0  0  0  0
  4 11  1  0  0  0  0
  5 19  1  0  0  0  0
  6 21  2  0  0  0  0
  6 22  1  0  0  0  0
  7  2  1  0  0  0  0
  8  9  2  0  0  0  0
  9 12  1  0  0  0  0
 10 13  1  0  0  0  0
 10 16  2  0  0  0  0
 11 13  1  0  0  0  0
 11 14  2  0  0  0  0
 12  5  1  0  0  0  0
 15  7  2  0  0  0  0
 15 17  1  0  0  0  0
 17  1  1  0  0  0  0
 18  9  1  0  0  0  0
 18  7  1  0  0  0  0
 19 10  1  0  0  0  0
 20 14  1  0  0  0  0
 21  8  1  0  0  0  0
 22 18  2  0  0  0  0
 23 28  1  0  0  0  0
 23 30  2  0  0  0  0
 25 23  1  0  0  0  0
 26 29  1  0  0  0  0
 27 17  1  0  0  0  0
 27 29  2  0  0  0  0
 28 32  1  0  0  0  0
 30 27  1  0  0  0  0
 31 30  1  0  0  0  0
 32 24  1  0  0  0  0
 32 26  2  0  0  0  0
M  END
>  <MODEL>
1

>  <REMARK>
 VINA RESULT:     -12.7      0.000      0.000
  Name = 
  1 active torsions:
  status: ('A' for Active; 'I' for Inactive)
    1  A    between atoms: C_16  and  N_27
                            x       y       z     vdW  Elec       q    Type
                         _______ _______ _______ _____ _____    ______ ____

>  <TORSDO>
F 1

$$$$
=
 OpenBabel11052414363D

 32 37  0  0  0  0  0  0  0  0999 V2000
  187.4820  178.0140  141.6500 C   0  0  0  0  0  0  0  0  0  0  0  0
  187.6380  177.8120  144.1470 C   0  0  0  0  0  0  0  0  0  0  0  0
  186.7710  178.3130  140.4750 C   0  0  0  0  0  3  0  0  0  0  0  0
  186.8390  178.1540  142.9300 C   0  0  0  0  0  0  0  0  0  0  0  0
  187.2290  177.8810  145.4450 C   0  0  0  0  0  0  0  0  0  0  0  0
  191.9220  176.1750  145.9590 C   0  0  0  0  0  3  0  0  0  0  0  0
  189.0360  177.3430  143.9090 C   0  0  0  0  0  0  0  0  0  0  0  0
  190.0670  176.7680  147.3930 C   0  0  0  0  0  3  0  0  0  0  0  0
  189.3010  177.1030  146.2710 C   0  0  0  0  0  0  0  0  0  0  0  0
  184.9400  178.6820  145.2940 C   0  0  0  0  0  0  0  0  0  0  0  0
  185.4880  178.5990  142.9460 C   0  0  0  0  0  0  0  0  0  0  0  0
  188.0600  177.5300  146.4310 O   0  0  0  0  0  0  0  0  0  0  0  0
  184.7310  178.8040  144.0010 O   0  0  0  0  0  0  0  0  0  0  0  0
  184.8320  178.8720  141.7430 C   0  0  0  0  0  3  0  0  0  0  0  0
  189.5280  177.2620  142.6170 C   0  0  0  0  0  3  0  0  0  0  0  0
  183.9580  178.9970  146.0720 N   0  0  0  0  0  2  0  0  0  0  0  0
  188.7810  177.5900  141.5390 N   0  0  0  0  0  0  0  0  0  0  0  0
  189.8440  176.9840  144.9900 C   0  0  0  0  0  0  0  0  0  0  0  0
  186.0450  178.2690  145.8790 O   0  0  0  0  0  0  0  0  0  0  0  0
  185.4590  178.7380  140.5160 C   0  0  0  0  0  3  0  0  0  0  0  0
  191.3760  176.3040  147.2370 C   0  0  0  0  0  3  0  0  0  0  0  0
  191.1610  176.5150  144.8360 C   0  0  0  0  0  3  0  0  0  0  0  0
  191.6040  176.7350  139.2830 C   0  0  0  0  0  0  0  0  0  0  0  0
  190.4600  176.8220  135.8620 C   0  0  0  0  0  1  0  0  0  0  0  0
  192.9640  176.7370  139.3360 F   0  0  0  0  0  0  0  0  0  0  0  0
  189.0690  177.4640  137.7510 C   0  0  0  0  0  3  0  0  0  0  0  0
  189.4200  177.4590  140.2580 C   0  0  0  0  0  0  0  0  0  0  0  0
  190.9410  175.9240  138.2170 C   0  0  0  0  0  2  0  0  0  0  0  0
  188.6420  177.5420  139.1620 C   0  0  0  0  0  3  0  0  0  0  0  0
  190.9080  177.3860  140.2250 C   0  0  0  0  0  0  0  0  0  0  0  0
  191.6120  178.0070  141.2530 O   0  0  0  0  0  1  0  0  0  0  0  0
  190.1320  176.7910  137.3110 C   0  0  0  0  0  0  0  0  0  0  0  0
  1  4  1  0  0  0  0
  2  5  2  0  0  0  0
  3 20  1  0  0  0  0
  3  1  2  0  0  0  0
  4 11  2  0  0  0  0
  4  2  1  0  0  0  0
  5 19  1  0  0  0  0
  5 12  1  0  0  0  0
  6 21  1  0  0  0  0
  7  2  1  0  0  0  0
  7 18  1  0  0  0  0
  9 12  1  0  0  0  0
  9  8  1  0  0  0  0
 10 19  1  0  0  0  0
 10 16  2  0  0  0  0
 11 13  1  0  0  0  0
 13 10  1  0  0  0  0
 14 11  1  0  0  0  0
 15  7  2  0  0  0  0
 17  1  1  0  0  0  0
 17 15  1  0  0  0  0
 18  9  2  0  0  0  0
 20 14  2  0  0  0  0
 21  8  2  0  0  0  0
 22 18  1  0  0  0  0
 22  6  2  0  0  0  0
 23 25  1  0  0  0  0
 23 30  2  0  0  0  0
 24 32  1  0  0  0  0
 26 29  1  0  0  0  0
 27 17  1  0  0  0  0
 28 23  1  0  0  0  0
 29 27  2  0  0  0  0
 30 27  1  0  0  0  0
 30 31  1  0  0  0  0
 32 26  2  0  0  0  0
 32 28  1  0  0  0  0
M  END
>  <MODEL>
2

>  <REMARK>
 VINA RESULT:     -12.0      2.757      6.533
  Name = 
  1 active torsions:
  status: ('A' for Active; 'I' for Inactive)
    1  A    between atoms: C_16  and  N_27
                            x       y       z     vdW  Elec       q    Type
                         _______ _______ _______ _____ _____    ______ ____

>  <TORSDO>
F 1

$$$$
=
 OpenBabel11052414363D

 32 37  0  0  0  0  0  0  0  0999 V2000
  189.3090  177.4660  143.1540 C   0  0  0  0  0  0  0  0  0  0  0  0
  187.4080  177.9600  144.7170 C   0  0  0  0  0  0  0  0  0  0  0  0
  190.6620  177.1780  142.9030 C   0  0  0  0  0  3  0  0  0  0  0  0
  188.8550  177.6440  144.5080 C   0  0  0  0  0  0  0  0  0  0  0  0
  186.7730  178.1570  145.9070 C   0  0  0  0  0  0  0  0  0  0  0  0
  183.0220  178.8370  142.6410 C   0  0  0  0  0  3  0  0  0  0  0  0
  186.5720  178.0730  143.4850 C   0  0  0  0  0  0  0  0  0  0  0  0
  183.3340  178.8650  145.0390 C   0  0  0  0  0  3  0  0  0  0  0  0
  184.6890  178.5610  144.8720 C   0  0  0  0  0  0  0  0  0  0  0  0
  188.5300  177.8680  147.5610 C   0  0  0  0  0  0  0  0  0  0  0  0
  189.8150  177.5150  145.5500 C   0  0  0  0  0  0  0  0  0  0  0  0
  185.4680  178.4430  145.9330 O   0  0  0  0  0  0  0  0  0  0  0  0
  189.6050  177.6250  146.8430 O   0  0  0  0  0  0  0  0  0  0  0  0
  191.1470  177.2360  145.2350 C   0  0  0  0  0  3  0  0  0  0  0  0
  187.1440  177.8700  142.2400 C   0  0  0  0  0  3  0  0  0  0  0  0
  188.6810  177.8850  148.8430 N   0  0  0  0  0  2  0  0  0  0  0  0
  188.4540  177.5750  142.0880 N   0  0  0  0  0  0  0  0  0  0  0  0
  185.2150  178.3850  143.5900 C   0  0  0  0  0  0  0  0  0  0  0  0
  187.3150  178.1010  147.1080 O   0  0  0  0  0  0  0  0  0  0  0  0
  191.5750  177.0630  143.9310 C   0  0  0  0  0  3  0  0  0  0  0  0
  182.5010  179.0030  143.9260 C   0  0  0  0  0  3  0  0  0  0  0  0
  184.3750  178.5260  142.4710 C   0  0  0  0  0  3  0  0  0  0  0  0
  188.8950  178.5780  138.5400 C   0  0  0  0  0  0  0  0  0  0  0  0
  191.1640  176.2810  136.9290 C   0  0  0  0  0  1  0  0  0  0  0  0
  188.2200  179.3150  137.6160 F   0  0  0  0  0  0  0  0  0  0  0  0
  190.3840  176.0030  139.2160 C   0  0  0  0  0  3  0  0  0  0  0  0
  188.9120  177.3900  140.7380 C   0  0  0  0  0  0  0  0  0  0  0  0
  190.3410  178.2930  138.2930 C   0  0  0  0  0  2  0  0  0  0  0  0
  189.7950  176.3980  140.5100 C   0  0  0  0  0  3  0  0  0  0  0  0
  188.2730  178.2050  139.6670 C   0  0  0  0  0  0  0  0  0  0  0  0
  186.9620  178.6280  139.8660 O   0  0  0  0  0  1  0  0  0  0  0  0
  190.5850  176.8230  138.1850 C   0  0  0  0  0  0  0  0  0  0  0  0
  1  4  1  0  0  0  0
  2  5  2  0  0  0  0
  3  1  2  0  0  0  0
  3 20  1  0  0  0  0
  4  2  1  0  0  0  0
  4 11  2  0  0  0  0
  5 12  1  0  0  0  0
  5 19  1  0  0  0  0
  6 21  1  0  0  0  0
  7 18  1  0  0  0  0
  7  2  1  0  0  0  0
  9  8  1  0  0  0  0
  9 12  1  0  0  0  0
 10 16  2  0  0  0  0
 11 13  1  0  0  0  0
 13 10  1  0  0  0  0
 14 11  1  0  0  0  0
 15  7  2  0  0  0  0
 17 15  1  0  0  0  0
 17  1  1  0  0  0  0
 18  9  2  0  0  0  0
 19 10  1  0  0  0  0
 20 14  2  0  0  0  0
 21  8  2  0  0  0  0
 22  6  2  0  0  0  0
 22 18  1  0  0  0  0
 23 30  2  0  0  0  0
 24 32  1  0  0  0  0
 25 23  1  0  0  0  0
 26 29  1  0  0  0  0
 27 17  1  0  0  0  0
 28 23  1  0  0  0  0
 29 27  2  0  0  0  0
 30 31  1  0  0  0  0
 30 27  1  0  0  0  0
 32 28  1  0  0  0  0
 32 26  2  0  0  0  0
M  END
>  <MODEL>
3

>  <REMARK>
 VINA RESULT:     -11.8      1.900      6.002
  Name = 
  1 active torsions:
  status: ('A' for Active; 'I' for Inactive)
    1  A    between atoms: C_16  and  N_27
                            x       y       z     vdW  Elec       q    Type
                         _______ _______ _______ _____ _____    ______ ____

>  <TORSDO>
F 1

$$$$
=
 OpenBabel11052414363D

 32 37  0  0  0  0  0  0  0  0999 V2000
  189.1650  177.6400  142.5530 C   0  0  0  0  0  0  0  0  0  0  0  0
  186.9360  178.2290  141.5610 C   0  0  0  0  0  0  0  0  0  0  0  0
  190.5320  177.3350  142.4310 C   0  0  0  0  0  3  0  0  0  0  0  0
  188.3870  177.9200  141.3750 C   0  0  0  0  0  0  0  0  0  0  0  0
  186.0280  178.5280  140.5900 C   0  0  0  0  0  0  0  0  0  0  0  0
  183.1780  178.6990  144.7200 C   0  0  0  0  0  3  0  0  0  0  0  0
  186.4300  178.2020  142.9660 C   0  0  0  0  0  0  0  0  0  0  0  0
  182.9010  179.0300  142.3400 C   0  0  0  0  0  3  0  0  0  0  0  0
  184.2580  178.7540  142.1390 C   0  0  0  0  0  0  0  0  0  0  0  0
  187.3220  178.4460  138.5350 C   0  0  0  0  0  0  0  0  0  0  0  0
  189.0520  177.8770  140.1170 C   0  0  0  0  0  0  0  0  0  0  0  0
  184.7540  178.7730  140.9130 O   0  0  0  0  0  0  0  0  0  0  0  0
  188.5300  178.1140  138.9340 O   0  0  0  0  0  0  0  0  0  0  0  0
  190.4110  177.5580  140.0610 C   0  0  0  0  0  3  0  0  0  0  0  0
  187.2980  177.9210  144.0080 C   0  0  0  0  0  3  0  0  0  0  0  0
  187.1590  178.6270  137.2670 N   0  0  0  0  0  2  0  0  0  0  0  0
  188.6070  177.6570  143.8050 N   0  0  0  0  0  0  0  0  0  0  0  0
  185.0820  178.4590  143.2270 C   0  0  0  0  0  0  0  0  0  0  0  0
  186.2570  178.6100  139.2940 O   0  0  0  0  0  0  0  0  0  0  0  0
  191.1520  177.2930  141.1990 C   0  0  0  0  0  3  0  0  0  0  0  0
  182.3610  179.0030  143.6290 C   0  0  0  0  0  3  0  0  0  0  0  0
  184.5360  178.4300  144.5230 C   0  0  0  0  0  3  0  0  0  0  0  0
  189.0810  176.9680  147.4230 C   0  0  0  0  0  0  0  0  0  0  0  0
  192.5090  176.0020  148.0100 C   0  0  0  0  0  1  0  0  0  0  0  0
  188.4650  177.2890  148.5930 F   0  0  0  0  0  0  0  0  0  0  0  0
  191.6800  176.7300  145.8420 C   0  0  0  0  0  3  0  0  0  0  0  0
  189.3910  177.3830  144.9790 C   0  0  0  0  0  0  0  0  0  0  0  0
  190.0190  175.8040  147.4170 C   0  0  0  0  0  2  0  0  0  0  0  0
  190.6800  177.0330  144.8000 C   0  0  0  0  0  3  0  0  0  0  0  0
  188.7720  177.6430  146.3080 C   0  0  0  0  0  0  0  0  0  0  0  0
  187.7900  178.6270  146.3860 O   0  0  0  0  0  1  0  0  0  0  0  0
  191.4010  176.2330  147.0460 C   0  0  0  0  0  0  0  0  0  0  0  0
  1 17  1  0  0  0  0
  2  7  1  0  0  0  0
  3  1  1  0  0  0  0
  4  2  1  0  0  0  0
  4  1  2  0  0  0  0
  5 12  1  0  0  0  0
  5  2  2  0  0  0  0
  7 18  1  0  0  0  0
  7 15  2  0  0  0  0
  8 21  1  0  0  0  0
  9  8  2  0  0  0  0
  9 18  1  0  0  0  0
 10 13  1  0  0  0  0
 10 19  1  0  0  0  0
 11  4  1  0  0  0  0
 12  9  1  0  0  0  0
 13 11  1  0  0  0  0
 14 11  2  0  0  0  0
 14 20  1  0  0  0  0
 16 10  2  0  0  0  0
 17 15  1  0  0  0  0
 17 27  1  0  0  0  0
 18 22  2  0  0  0  0
 19  5  1  0  0  0  0
 20  3  2  0  0  0  0
 21  6  2  0  0  0  0
 22  6  1  0  0  0  0
 23 25  1  0  0  0  0
 26 32  2  0  0  0  0
 27 30  1  0  0  0  0
 28 23  1  0  0  0  0
 29 27  2  0  0  0  0
 29 26  1  0  0  0  0
 30 31  1  0  0  0  0
 30 23  2  0  0  0  0
 32 28  1  0  0  0  0
 32 24  1  0  0  0  0
M  END
>  <MODEL>
4

>  <REMARK>
 VINA RESULT:     -11.8      2.582      7.508
  Name = 
  1 active torsions:
  status: ('A' for Active; 'I' for Inactive)
    1  A    between atoms: C_16  and  N_27
                            x       y       z     vdW  Elec       q    Type
                         _______ _______ _______ _____ _____    ______ ____

>  <TORSDO>
F 1

$$$$
=
 OpenBabel11052414363D

 32 37  0  0  0  0  0  0  0  0999 V2000
  185.0080  178.4220  143.1140 C   0  0  0  0  0  0  0  0  0  0  0  0
  185.2340  178.6060  140.6220 C   0  0  0  0  0  0  0  0  0  0  0  0
  184.2470  178.4760  144.2950 C   0  0  0  0  0  3  0  0  0  0  0  0
  184.3760  178.6660  141.8450 C   0  0  0  0  0  0  0  0  0  0  0  0
  184.8400  178.7950  139.3310 C   0  0  0  0  0  0  0  0  0  0  0  0
  189.7570  177.9520  138.7680 C   0  0  0  0  0  3  0  0  0  0  0  0
  186.6810  178.3080  140.8430 C   0  0  0  0  0  0  0  0  0  0  0  0
  187.8480  178.4120  137.3570 C   0  0  0  0  0  3  0  0  0  0  0  0
  187.0210  178.4650  138.4840 C   0  0  0  0  0  0  0  0  0  0  0  0
  182.4570  179.2360  139.5070 C   0  0  0  0  0  0  0  0  0  0  0  0
  182.9830  178.9540  141.8440 C   0  0  0  0  0  0  0  0  0  0  0  0
  185.7310  178.7190  138.3380 O   0  0  0  0  0  0  0  0  0  0  0  0
  182.2200  179.1910  140.8000 O   0  0  0  0  0  0  0  0  0  0  0  0
  182.2840  179.0030  143.0530 C   0  0  0  0  0  3  0  0  0  0  0  0
  187.1520  178.0870  142.1270 C   0  0  0  0  0  3  0  0  0  0  0  0
  181.4470  179.4800  138.7410 N   0  0  0  0  0  2  0  0  0  0  0  0
  186.3470  178.1380  143.2100 N   0  0  0  0  0  0  0  0  0  0  0  0
  187.5560  178.2530  139.7560 C   0  0  0  0  0  0  0  0  0  0  0  0
  183.6190  179.0640  138.9110 O   0  0  0  0  0  0  0  0  0  0  0  0
  182.8980  178.7640  144.2690 C   0  0  0  0  0  3  0  0  0  0  0  0
  189.2140  178.1560  137.4980 C   0  0  0  0  0  3  0  0  0  0  0  0
  188.9320  177.9970  139.8960 C   0  0  0  0  0  3  0  0  0  0  0  0
  189.1760  177.1720  145.4130 C   0  0  0  0  0  0  0  0  0  0  0  0
  188.3060  177.8780  148.8430 C   0  0  0  0  0  1  0  0  0  0  0  0
  190.2580  176.3490  145.3500 F   0  0  0  0  0  0  0  0  0  0  0  0
  186.7570  178.1580  146.9890 C   0  0  0  0  0  3  0  0  0  0  0  0
  186.9710  177.8890  144.4810 C   0  0  0  0  0  0  0  0  0  0  0  0
  189.1650  178.2450  146.4530 C   0  0  0  0  0  2  0  0  0  0  0  0
  186.3300  178.3180  145.5850 C   0  0  0  0  0  3  0  0  0  0  0  0
  188.2020  177.0500  144.5010 C   0  0  0  0  0  0  0  0  0  0  0  0
  188.3610  176.1060  143.4910 O   0  0  0  0  0  1  0  0  0  0  0  0
  188.0220  178.0640  147.3960 C   0  0  0  0  0  0  0  0  0  0  0  0
  1 17  1  0  0  0  0
  1  3  1  0  0  0  0
  2  7  1  0  0  0  0
  2  4  1  0  0  0  0
  4  1  2  0  0  0  0
  5  2  2  0  0  0  0
  6 22  1  0  0  0  0
  7 15  2  0  0  0  0
  8 21  1  0  0  0  0
  8  9  2  0  0  0  0
  9 18  1  0  0  0  0
 10 13  1  0  0  0  0
 11  4  1  0  0  0  0
 11 14  2  0  0  0  0
 12  9  1  0  0  0  0
 12  5  1  0  0  0  0
 13 11  1  0  0  0  0
 14 20  1  0  0  0  0
 15 17  1  0  0  0  0
 16 10  2  0  0  0  0
 17 27  1  0  0  0  0
 18 22  2  0  0  0  0
 18  7  1  0  0  0  0
 19  5  1  0  0  0  0
 19 10  1  0  0  0  0
 20  3  2  0  0  0  0
 21  6  2  0  0  0  0
 23 28  1  0  0  0  0
 25 23  1  0  0  0  0
 26 32  2  0  0  0  0
 27 30  1  0  0  0  0
 27 29  2  0  0  0  0
 28 32  1  0  0  0  0
 29 26  1  0  0  0  0
 30 23  2  0  0  0  0
 31 30  1  0  0  0  0
 32 24  1  0  0  0  0
M  END
>  <MODEL>
5

>  <REMARK>
 VINA RESULT:     -11.7      2.674      6.498
  Name = 
  1 active torsions:
  status: ('A' for Active; 'I' for Inactive)
    1  A    between atoms: C_16  and  N_27
                            x       y       z     vdW  Elec       q    Type
                         _______ _______ _______ _____ _____    ______ ____

>  <TORSDO>
F 1

$$$$
=
 OpenBabel11052414363D

 32 37  0  0  0  0  0  0  0  0999 V2000
  186.7780  177.9090  143.3280 C   0  0  0  0  0  0  0  0  0  0  0  0
  186.3560  178.2950  140.8850 C   0  0  0  0  0  0  0  0  0  0  0  0
  186.3590  177.8980  144.6700 C   0  0  0  0  0  3  0  0  0  0  0  0
  185.8540  178.2910  142.2940 C   0  0  0  0  0  0  0  0  0  0  0  0
  185.6510  178.6130  139.7620 C   0  0  0  0  0  0  0  0  0  0  0  0
  190.1810  177.5920  137.8520 C   0  0  0  0  0  3  0  0  0  0  0  0
  187.7870  177.9120  140.6910 C   0  0  0  0  0  0  0  0  0  0  0  0
  188.0040  178.2600  137.0370 C   0  0  0  0  0  3  0  0  0  0  0  0
  187.5070  178.2550  138.3440 C   0  0  0  0  0  0  0  0  0  0  0  0
  183.4330  179.1480  140.5970 C   0  0  0  0  0  0  0  0  0  0  0  0
  184.5320  178.6430  142.6840 C   0  0  0  0  0  0  0  0  0  0  0  0
  186.2440  178.5800  138.5650 O   0  0  0  0  0  0  0  0  0  0  0  0
  183.5410  179.0030  141.9000 O   0  0  0  0  0  0  0  0  0  0  0  0
  184.1780  178.6200  144.0350 C   0  0  0  0  0  3  0  0  0  0  0  0
  188.5620  177.5610  141.7850 C   0  0  0  0  0  3  0  0  0  0  0  0
  182.2760  179.5030  140.1460 N   0  0  0  0  0  2  0  0  0  0  0  0
  188.0730  177.5570  143.0440 N   0  0  0  0  0  0  0  0  0  0  0  0
  188.3410  177.9100  139.4100 C   0  0  0  0  0  0  0  0  0  0  0  0
  184.3840  178.9730  139.7020 O   0  0  0  0  0  0  0  0  0  0  0  0
  185.0720  178.2500  145.0250 C   0  0  0  0  0  3  0  0  0  0  0  0
  189.3390  177.9290  136.7900 C   0  0  0  0  0  3  0  0  0  0  0  0
  189.6850  177.5790  139.1600 C   0  0  0  0  0  3  0  0  0  0  0  0
  191.2440  176.1240  144.3410 C   0  0  0  0  0  0  0  0  0  0  0  0
  191.4900  176.7910  147.8790 C   0  0  0  0  0  1  0  0  0  0  0  0
  192.1370  175.1670  143.9680 F   0  0  0  0  0  0  0  0  0  0  0  0
  189.5350  177.3580  146.5470 C   0  0  0  0  0  3  0  0  0  0  0  0
  188.9900  177.1710  144.0820 C   0  0  0  0  0  0  0  0  0  0  0  0
  191.6800  177.1430  145.3440 C   0  0  0  0  0  2  0  0  0  0  0  0
  188.7560  177.6340  145.3250 C   0  0  0  0  0  3  0  0  0  0  0  0
  190.0450  176.1740  143.7460 C   0  0  0  0  0  0  0  0  0  0  0  0
  189.7760  175.2610  142.7300 O   0  0  0  0  0  1  0  0  0  0  0  0
  190.8370  177.0770  146.5740 C   0  0  0  0  0  0  0  0  0  0  0  0
  1  3  1  0  0  0  0
  2  4  1  0  0  0  0
  3 20  2  0  0  0  0
  4 11  1  0  0  0  0
  4  1  2  0  0  0  0
  5  2  2  0  0  0  0
  6 22  1  0  0  0  0
  7  2  1  0  0  0  0
  7 15  2  0  0  0  0
  8  9  2  0  0  0  0
  9 12  1  0  0  0  0
  9 18  1  0  0  0  0
 10 13  1  0  0  0  0
 11 14  2  0  0  0  0
 12  5  1  0  0  0  0
 13 11  1  0  0  0  0
 14 20  1  0  0  0  0
 15 17  1  0  0  0  0
 16 10  2  0  0  0  0
 17  1  1  0  0  0  0
 17 27  1  0  0  0  0
 18  7  1  0  0  0  0
 19  5  1  0  0  0  0
 19 10  1  0  0  0  0
 21  8  1  0  0  0  0
 21  6  2  0  0  0  0
 22 18  2  0  0  0  0
 23 28  1  0  0  0  0
 25 23  1  0  0  0  0
 26 32  2  0  0  0  0
 27 29  2  0  0  0  0
 28 32  1  0  0  0  0
 29 26  1  0  0  0  0
 30 27  1  0  0  0  0
 30 23  2  0  0  0  0
 31 30  1  0  0  0  0
 32 24  1  0  0  0  0
M  END
>  <MODEL>
6

>  <REMARK>
 VINA RESULT:     -11.7      2.790      6.526
  Name = 
  1 active torsions:
  status: ('A' for Active; 'I' for Inactive)
    1  A    between atoms: C_16  and  N_27
                            x       y       z     vdW  Elec       q    Type
                         _______ _______ _______ _____ _____    ______ ____

>  <TORSDO>
F 1

$$$$
=
 OpenBabel11052414363D

 32 37  0  0  0  0  0  0  0  0999 V2000
  187.6890  178.0010  141.6830 C   0  0  0  0  0  0  0  0  0  0  0  0
  189.9080  177.4450  142.7160 C   0  0  0  0  0  0  0  0  0  0  0  0
  186.8850  178.3230  140.5760 C   0  0  0  0  0  3  0  0  0  0  0  0
  189.0980  177.7750  141.5020 C   0  0  0  0  0  0  0  0  0  0  0  0
  191.2450  177.1880  142.7670 C   0  0  0  0  0  0  0  0  0  0  0  0
  189.9570  176.7830  147.6020 C   0  0  0  0  0  3  0  0  0  0  0  0
  189.1670  177.3960  144.0110 C   0  0  0  0  0  0  0  0  0  0  0  0
  191.9580  176.5730  146.2600 C   0  0  0  0  0  3  0  0  0  0  0  0
  191.2220  176.8690  145.1080 C   0  0  0  0  0  0  0  0  0  0  0  0
  191.9670  177.3860  140.4550 C   0  0  0  0  0  0  0  0  0  0  0  0
  189.6220  177.8880  140.1840 C   0  0  0  0  0  0  0  0  0  0  0  0
  191.8330  176.9170  143.9360 O   0  0  0  0  0  0  0  0  0  0  0  0
  190.8680  177.7080  139.8060 O   0  0  0  0  0  0  0  0  0  0  0  0
  188.7730  178.2200  139.1260 C   0  0  0  0  0  3  0  0  0  0  0  0
  187.8010  177.6300  144.0360 C   0  0  0  0  0  3  0  0  0  0  0  0
  193.0430  177.2690  139.7510 N   0  0  0  0  0  2  0  0  0  0  0  0
  187.0980  177.9150  142.9180 N   0  0  0  0  0  0  0  0  0  0  0  0
  189.8510  177.1150  145.1960 C   0  0  0  0  0  0  0  0  0  0  0  0
  192.0850  177.1760  141.7500 O   0  0  0  0  0  0  0  0  0  0  0  0
  187.4180  178.4330  139.3080 C   0  0  0  0  0  3  0  0  0  0  0  0
  191.3270  176.5290  147.5060 C   0  0  0  0  0  3  0  0  0  0  0  0
  189.2180  177.0730  146.4510 C   0  0  0  0  0  3  0  0  0  0  0  0
  184.0810  178.9080  144.8420 C   0  0  0  0  0  0  0  0  0  0  0  0
  181.2530  179.0900  142.6080 C   0  0  0  0  0  1  0  0  0  0  0  0
  183.6700  178.8890  146.1390 F   0  0  0  0  0  0  0  0  0  0  0  0
  183.4540  178.3220  141.9150 C   0  0  0  0  0  3  0  0  0  0  0  0
  185.6880  178.1350  143.0910 C   0  0  0  0  0  0  0  0  0  0  0  0
  183.3610  179.8040  143.8870 C   0  0  0  0  0  2  0  0  0  0  0  0
  184.9170  178.1420  141.9860 C   0  0  0  0  0  3  0  0  0  0  0  0
  185.1570  178.1950  144.4820 C   0  0  0  0  0  0  0  0  0  0  0  0
  185.8420  177.4920  145.4690 O   0  0  0  0  0  1  0  0  0  0  0  0
  182.7270  179.0150  142.7890 C   0  0  0  0  0  0  0  0  0  0  0  0
  1 17  1  0  0  0  0
  2  5  2  0  0  0  0
  2  7  1  0  0  0  0
  3  1  2  0  0  0  0
  4  1  1  0  0  0  0
  4  2  1  0  0  0  0
  5 12  1  0  0  0  0
  7 15  2  0  0  0  0
  7 18  1  0  0  0  0
  8 21  2  0  0  0  0
  9 18  2  0  0  0  0
  9  8  1  0  0  0  0
 10 19  1  0  0  0  0
 11  4  2  0  0  0  0
 12  9  1  0  0  0  0
 13 11  1  0  0  0  0
 13 10  1  0  0  0  0
 14 20  2  0  0  0  0
 14 11  1  0  0  0  0
 16 10  2  0  0  0  0
 17 27  1  0  0  0  0
 17 15  1  0  0  0  0
 18 22  1  0  0  0  0
 19  5  1  0  0  0  0
 20  3  1  0  0  0  0
 21  6  1  0  0  0  0
 22  6  2  0  0  0  0
 23 25  1  0  0  0  0
 24 32  1  0  0  0  0
 26 29  1  0  0  0  0
 26 32  2  0  0  0  0
 27 30  1  0  0  0  0
 28 23  1  0  0  0  0
 29 27  2  0  0  0  0
 30 23  2  0  0  0  0
 30 31  1  0  0  0  0
 32 28  1  0  0  0  0
M  END
>  <MODEL>
7

>  <REMARK>
 VINA RESULT:     -11.7      2.221      4.802
  Name = 
  1 active torsions:
  status: ('A' for Active; 'I' for Inactive)
    1  A    between atoms: C_16  and  N_27
                            x       y       z     vdW  Elec       q    Type
                         _______ _______ _______ _____ _____    ______ ____

>  <TORSDO>
F 1

$$$$
=
 OpenBabel11052414363D

 32 37  0  0  0  0  0  0  0  0999 V2000
  184.5020  178.6640  142.5310 C   0  0  0  0  0  0  0  0  0  0  0  0
  186.9270  178.1310  142.8940 C   0  0  0  0  0  0  0  0  0  0  0  0
  183.2060  178.9200  143.0120 C   0  0  0  0  0  3  0  0  0  0  0  0
  185.5710  178.4070  143.4600 C   0  0  0  0  0  0  0  0  0  0  0  0
  188.0710  177.8730  143.5890 C   0  0  0  0  0  0  0  0  0  0  0  0
  189.6850  177.5640  138.8440 C   0  0  0  0  0  3  0  0  0  0  0  0
  187.0360  178.1360  141.4040 C   0  0  0  0  0  0  0  0  0  0  0  0
  190.6140  177.3550  141.0680 C   0  0  0  0  0  3  0  0  0  0  0  0
  189.3580  177.6200  141.6230 C   0  0  0  0  0  0  0  0  0  0  0  0
  187.3780  177.9790  145.9150 C   0  0  0  0  0  0  0  0  0  0  0  0
  185.2610  178.4270  144.8480 C   0  0  0  0  0  0  0  0  0  0  0  0
  189.2140  177.6340  142.9380 O   0  0  0  0  0  0  0  0  0  0  0  0
  186.0890  178.2340  145.8510 O   0  0  0  0  0  0  0  0  0  0  0  0
  183.9510  178.6790  145.2630 C   0  0  0  0  0  3  0  0  0  0  0  0
  185.9180  178.4060  140.6310 C   0  0  0  0  0  3  0  0  0  0  0  0
  187.8880  177.8670  147.0960 N   0  0  0  0  0  2  0  0  0  0  0  0
  184.7090  178.6630  141.1760 N   0  0  0  0  0  0  0  0  0  0  0  0
  188.2620  177.8670  140.7930 C   0  0  0  0  0  0  0  0  0  0  0  0
  188.2030  177.8240  144.9000 O   0  0  0  0  0  0  0  0  0  0  0  0
  182.9290  178.9270  144.3640 C   0  0  0  0  0  3  0  0  0  0  0  0
  190.7780  177.3270  139.6800 C   0  0  0  0  0  3  0  0  0  0  0  0
  188.4290  177.8360  139.3970 C   0  0  0  0  0  3  0  0  0  0  0  0
  181.3370  178.1090  139.7220 C   0  0  0  0  0  0  0  0  0  0  0  0
  180.5980  180.7630  137.3910 C   0  0  0  0  0  1  0  0  0  0  0  0
  180.4780  177.0670  139.5540 F   0  0  0  0  0  0  0  0  0  0  0  0
  182.7440  180.5310  138.5120 C   0  0  0  0  0  3  0  0  0  0  0  0
  183.6380  178.9260  140.2540 C   0  0  0  0  0  0  0  0  0  0  0  0
  180.7920  179.4970  139.6150 C   0  0  0  0  0  2  0  0  0  0  0  0
  183.7030  180.0610  139.5310 C   0  0  0  0  0  3  0  0  0  0  0  0
  182.6120  177.8640  140.0550 C   0  0  0  0  0  0  0  0  0  0  0  0
  182.9960  176.5430  140.2590 O   0  0  0  0  0  1  0  0  0  0  0  0
  181.4430  180.2420  138.4970 C   0  0  0  0  0  0  0  0  0  0  0  0
  1  3  2  0  0  0  0
  1  4  1  0  0  0  0
  2  4  1  0  0  0  0
  2  5  2  0  0  0  0
  3 20  1  0  0  0  0
  4 11  2  0  0  0  0
  5 19  1  0  0  0  0
  6 22  2  0  0  0  0
  6 21  1  0  0  0  0
  7  2  1  0  0  0  0
  8  9  1  0  0  0  0
  9 12  1  0  0  0  0
 10 16  2  0  0  0  0
 11 14  1  0  0  0  0
 11 13  1  0  0  0  0
 12  5  1  0  0  0  0
 13 10  1  0  0  0  0
 15 17  1  0  0  0  0
 15  7  2  0  0  0  0
 17  1  1  0  0  0  0
 18  7  1  0  0  0  0
 18  9  2  0  0  0  0
 19 10  1  0  0  0  0
 20 14  2  0  0  0  0
 21  8  2  0  0  0  0
 22 18  1  0  0  0  0
 23 30  2  0  0  0  0
 24 32  1  0  0  0  0
 25 23  1  0  0  0  0
 26 29  1  0  0  0  0
 27 17  1  0  0  0  0
 28 23  1  0  0  0  0
 29 27  2  0  0  0  0
 30 27  1  0  0  0  0
 30 31  1  0  0  0  0
 32 26  2  0  0  0  0
 32 28  1  0  0  0  0
M  END
>  <MODEL>
8

>  <REMARK>
 VINA RESULT:     -11.6      2.431      3.613
  Name = 
  1 active torsions:
  status: ('A' for Active; 'I' for Inactive)
    1  A    between atoms: C_16  and  N_27
                            x       y       z     vdW  Elec       q    Type
                         _______ _______ _______ _____ _____    ______ ____

>  <TORSDO>
F 1

$$$$
=
 OpenBabel11052414363D

 32 37  0  0  0  0  0  0  0  0999 V2000
  185.8000  178.4020  139.6860 C   0  0  0  0  0  0  0  0  0  0  0  0
  187.0630  178.1180  141.8360 C   0  0  0  0  0  0  0  0  0  0  0  0
  185.7420  178.4530  138.2820 C   0  0  0  0  0  3  0  0  0  0  0  0
  187.0570  178.1520  140.3400 C   0  0  0  0  0  0  0  0  0  0  0  0
  188.1340  177.8910  142.6480 C   0  0  0  0  0  0  0  0  0  0  0  0
  184.4620  178.6030  145.9970 C   0  0  0  0  0  3  0  0  0  0  0  0
  185.7530  178.3640  142.5080 C   0  0  0  0  0  0  0  0  0  0  0  0
  186.8290  178.1040  146.0160 C   0  0  0  0  0  3  0  0  0  0  0  0
  186.8480  178.1210  144.6170 C   0  0  0  0  0  0  0  0  0  0  0  0
  189.9790  177.5560  141.1030 C   0  0  0  0  0  0  0  0  0  0  0  0
  188.2040  177.9620  139.5200 C   0  0  0  0  0  0  0  0  0  0  0  0
  187.9840  177.9020  143.9760 O   0  0  0  0  0  0  0  0  0  0  0  0
  189.4320  177.7100  139.9170 O   0  0  0  0  0  0  0  0  0  0  0  0
  188.0830  178.0340  138.1310 C   0  0  0  0  0  3  0  0  0  0  0  0
  184.6170  178.5860  141.7470 C   0  0  0  0  0  3  0  0  0  0  0  0
  191.2420  177.2880  141.1280 N   0  0  0  0  0  2  0  0  0  0  0  0
  184.6440  178.5990  140.3970 N   0  0  0  0  0  0  0  0  0  0  0  0
  185.6740  178.3700  143.9030 C   0  0  0  0  0  0  0  0  0  0  0  0
  189.3740  177.6510  142.2690 O   0  0  0  0  0  0  0  0  0  0  0  0
  186.8700  178.2720  137.5080 C   0  0  0  0  0  3  0  0  0  0  0  0
  185.6380  178.3450  146.7050 C   0  0  0  0  0  3  0  0  0  0  0  0
  184.4770  178.6130  144.5990 C   0  0  0  0  0  3  0  0  0  0  0  0
  181.0930  177.8710  139.5920 C   0  0  0  0  0  0  0  0  0  0  0  0
  179.7050  180.6340  137.7320 C   0  0  0  0  0  1  0  0  0  0  0  0
  180.2930  176.7740  139.4940 F   0  0  0  0  0  0  0  0  0  0  0  0
  182.0460  180.5010  138.3760 C   0  0  0  0  0  3  0  0  0  0  0  0
  183.3900  178.8420  139.7360 C   0  0  0  0  0  0  0  0  0  0  0  0
  180.4410  179.2080  139.7350 C   0  0  0  0  0  2  0  0  0  0  0  0
  183.2250  180.0350  139.1320 C   0  0  0  0  0  3  0  0  0  0  0  0
  182.4220  177.7140  139.6400 C   0  0  0  0  0  0  0  0  0  0  0  0
  182.9330  176.4190  139.6300 O   0  0  0  0  0  1  0  0  0  0  0  0
  180.7940  180.1000  138.5900 C   0  0  0  0  0  0  0  0  0  0  0  0
  1  4  1  0  0  0  0
  1 17  1  0  0  0  0
  2  7  1  0  0  0  0
  2  5  2  0  0  0  0
  3  1  2  0  0  0  0
  4  2  1  0  0  0  0
  5 12  1  0  0  0  0
  6 21  1  0  0  0  0
  7 18  1  0  0  0  0
  8 21  2  0  0  0  0
  9  8  1  0  0  0  0
 10 16  2  0  0  0  0
 10 19  1  0  0  0  0
 11 13  1  0  0  0  0
 11  4  2  0  0  0  0
 12  9  1  0  0  0  0
 13 10  1  0  0  0  0
 14 11  1  0  0  0  0
 15  7  2  0  0  0  0
 17 15  1  0  0  0  0
 18 22  1  0  0  0  0
 18  9  2  0  0  0  0
 19  5  1  0  0  0  0
 20 14  2  0  0  0  0
 20  3  1  0  0  0  0
 22  6  2  0  0  0  0
 23 30  2  0  0  0  0
 23 28  1  0  0  0  0
 24 32  1  0  0  0  0
 25 23  1  0  0  0  0
 26 32  2  0  0  0  0
 26 29  1  0  0  0  0
 27 17  1  0  0  0  0
 29 27  2  0  0  0  0
 30 27  1  0  0  0  0
 31 30  1  0  0  0  0
 32 28  1  0  0  0  0
M  END
>  <MODEL>
9

>  <REMARK>
 VINA RESULT:     -11.6      2.888      5.814
  Name = 
  1 active torsions:
  status: ('A' for Active; 'I' for Inactive)
    1  A    between atoms: C_16  and  N_27
                            x       y       z     vdW  Elec       q    Type
                         _______ _______ _______ _____ _____    ______ ____

>  <TORSDO>
F 1

$$$$
