=
 OpenBabel11052413393D

 27 30  0  0  1  0  0  0  0  0999 V2000
  190.3960  177.5290  141.8560 N   0  0  0  0  0  0  0  0  0  0  0  0
  188.0310  177.9820  141.5540 C   0  0  0  0  0  0  0  0  0  0  0  0
  188.3190  176.6870  143.7180 C   0  0  0  0  0  2  0  0  0  0  0  0
  184.4170  179.3150  142.9300 N   0  0  0  0  0  0  0  0  0  0  0  0
  183.3460  178.7870  145.1260 C   0  0  0  0  0  1  0  0  0  0  0  0
  187.2860  178.8000  140.7420 N   0  0  0  0  0  0  0  0  0  0  0  0
  185.5770  177.9550  144.3270 N   0  0  0  0  0  0  0  0  0  0  0  0
  185.9080  177.1520  145.4960 C   0  0  0  0  0  1  0  0  0  0  0  0
  186.2920  178.1320  143.2020 C   0  0  0  0  0  0  0  0  0  0  0  0
  189.3490  177.4850  141.0780 C   0  0  0  0  0  0  0  0  0  0  0  0
  184.4520  178.6830  144.1310 C   0  0  0  0  0  0  0  0  0  0  0  0
  185.5860  178.9500  142.3720 C   0  0  0  0  0  0  0  0  0  0  0  0
  190.4180  178.1260  143.1920 C   0  0  1  0  0  3  0  0  0  0  0  0
  187.5430  177.6190  142.8340 C   0  0  0  0  0  0  0  0  0  0  0  0
  186.0720  179.2970  141.1190 C   0  0  0  0  0  3  0  0  0  0  0  0
  189.6330  177.2930  144.2270 C   0  0  1  0  0  3  0  0  0  0  0  0
  189.7710  175.8260  137.1790 N   0  0  0  0  0  0  0  0  0  0  0  0
  189.4930  176.9170  139.7160 C   0  0  0  0  0  0  0  0  0  0  0  0
  188.4290  176.9490  138.8030 C   0  0  0  0  0  3  0  0  0  0  0  0
  188.5880  176.3960  137.5310 C   0  0  0  0  0  3  0  0  0  0  0  0
  190.8210  175.7760  138.0420 C   0  0  0  0  0  3  0  0  0  0  0  0
  190.6990  176.3190  139.3230 C   0  0  0  0  0  3  0  0  0  0  0  0
  191.8610  178.3350  143.6370 C   0  0  0  0  0  2  0  0  0  0  0  0
  192.0210  179.5960  144.2150 O   0  0  0  0  0  1  0  0  0  0  0  0
  189.4350  178.0400  145.5490 C   0  0  0  0  0  2  0  0  0  0  0  0
  189.7200  177.1660  146.7600 C   0  0  0  0  0  2  0  0  0  0  0  0
  191.0750  176.8420  146.7900 O   0  0  0  0  0  1  0  0  0  0  0  0
  1 13  1  0  0  0  0
  2 14  1  0  0  0  0
  3 16  1  0  0  0  0
  4 11  2  0  0  0  0
  6 15  1  0  0  0  0
  6  2  2  0  0  0  0
  7  8  1  0  0  0  0
  9  7  1  0  0  0  0
 10  2  1  0  0  0  0
 10  1  2  0  0  0  0
 11  7  1  0  0  0  0
 11  5  1  0  0  0  0
 12  4  1  0  0  0  0
 12  9  1  0  0  0  0
 13 23  1  1  0  0  0
 13 16  1  0  0  0  0
 14  9  2  0  0  0  0
 14  3  1  0  0  0  0
 15 12  2  0  0  0  0
 16 25  1  1  0  0  0
 17 20  2  0  0  0  0
 17 21  1  0  0  0  0
 18 10  1  0  0  0  0
 19 18  2  0  0  0  0
 20 19  1  0  0  0  0
 21 22  2  0  0  0  0
 22 18  1  0  0  0  0
 23 24  1  0  0  0  0
 25 26  1  0  0  0  0
 26 27  1  0  0  0  0
M  END
>  <MODEL>
1

>  <REMARK>
 VINA RESULT:      -7.9      0.000      0.000
  Name = 
  4 active torsions:
  status: ('A' for Active; 'I' for Inactive)
    1  A    between atoms: C_9  and  C_15
    2  A    between atoms: C_10  and  C_20
    3  A    between atoms: CA_18  and  C_22
    4  A    between atoms: C_20  and  C_26
                            x       y       z     vdW  Elec       q    Type
                         _______ _______ _______ _____ _____    ______ ____

>  <TORSDO>
F 4

$$$$
=
 OpenBabel11052413393D

 27 30  0  0  1  0  0  0  0  0999 V2000
  186.1860  178.2840  141.0190 N   0  0  0  0  0  0  0  0  0  0  0  0
  185.3810  178.5730  143.2890 C   0  0  0  0  0  0  0  0  0  0  0  0
  187.2760  176.8850  143.3310 C   0  0  0  0  0  2  0  0  0  0  0  0
  186.0140  179.2560  147.2730 N   0  0  0  0  0  0  0  0  0  0  0  0
  187.7320  178.1840  148.7370 C   0  0  0  0  0  1  0  0  0  0  0  0
  184.5690  179.4730  143.9340 N   0  0  0  0  0  0  0  0  0  0  0  0
  187.3880  177.7430  146.2880 N   0  0  0  0  0  0  0  0  0  0  0  0
  188.4380  176.7470  146.1280 C   0  0  0  0  0  1  0  0  0  0  0  0
  186.5340  178.2170  145.3650 C   0  0  0  0  0  0  0  0  0  0  0  0
  185.1730  178.3090  141.8410 C   0  0  0  0  0  0  0  0  0  0  0  0
  187.0490  178.3910  147.4280 C   0  0  0  0  0  0  0  0  0  0  0  0
  185.7140  179.1230  145.9680 C   0  0  0  0  0  0  0  0  0  0  0  0
  187.5700  178.5860  141.3890 C   0  0  1  0  0  3  0  0  0  0  0  0
  186.4080  177.9070  144.0050 C   0  0  0  0  0  0  0  0  0  0  0  0
  184.7090  179.7680  145.2590 C   0  0  0  0  0  3  0  0  0  0  0  0
  188.2030  177.4870  142.2670 C   0  0  1  0  0  3  0  0  0  0  0  0
  181.2610  177.6120  140.3100 N   0  0  0  0  0  0  0  0  0  0  0  0
  183.8130  178.0550  141.3090 C   0  0  0  0  0  0  0  0  0  0  0  0
  183.6140  177.2150  140.2040 C   0  0  0  0  0  3  0  0  0  0  0  0
  182.3220  177.0030  139.7170 C   0  0  0  0  0  3  0  0  0  0  0  0
  181.4220  178.4350  141.3810 C   0  0  0  0  0  3  0  0  0  0  0  0
  182.6980  178.6710  141.8960 C   0  0  0  0  0  3  0  0  0  0  0  0
  188.3960  178.8280  140.1310 C   0  0  0  0  0  2  0  0  0  0  0  0
  187.6490  178.5380  138.9870 O   0  0  0  0  0  1  0  0  0  0  0  0
  189.5440  177.9190  142.8670 C   0  0  0  0  0  2  0  0  0  0  0  0
  190.6020  176.8310  142.7710 C   0  0  0  0  0  2  0  0  0  0  0  0
  190.3420  176.0280  141.6620 O   0  0  0  0  0  1  0  0  0  0  0  0
  1 13  1  0  0  0  0
  1 10  2  0  0  0  0
  2  6  2  0  0  0  0
  2 14  1  0  0  0  0
  3 14  1  0  0  0  0
  4 11  2  0  0  0  0
  6 15  1  0  0  0  0
  7 11  1  0  0  0  0
  8  7  1  0  0  0  0
  9 12  1  0  0  0  0
  9  7  1  0  0  0  0
 10  2  1  0  0  0  0
 11  5  1  0  0  0  0
 12  4  1  0  0  0  0
 13 23  1  6  0  0  0
 13 16  1  0  0  0  0
 14  9  2  0  0  0  0
 15 12  2  0  0  0  0
 16 25  1  1  0  0  0
 16  3  1  0  0  0  0
 17 21  1  0  0  0  0
 18 10  1  0  0  0  0
 18 22  1  0  0  0  0
 19 18  2  0  0  0  0
 20 19  1  0  0  0  0
 20 17  2  0  0  0  0
 21 22  2  0  0  0  0
 24 23  1  0  0  0  0
 26 25  1  0  0  0  0
 27 26  1  0  0  0  0
M  END
>  <MODEL>
2

>  <REMARK>
 VINA RESULT:      -7.3      2.779      5.121
  Name = 
  4 active torsions:
  status: ('A' for Active; 'I' for Inactive)
    1  A    between atoms: C_9  and  C_15
    2  A    between atoms: C_10  and  C_20
    3  A    between atoms: CA_18  and  C_22
    4  A    between atoms: C_20  and  C_26
                            x       y       z     vdW  Elec       q    Type
                         _______ _______ _______ _____ _____    ______ ____

>  <TORSDO>
F 4

$$$$
=
 OpenBabel11052413393D

 27 30  0  0  1  0  0  0  0  0999 V2000
  187.7300  177.5440  142.8400 N   0  0  0  0  0  0  0  0  0  0  0  0
  189.8770  176.5840  143.4380 C   0  0  0  0  0  0  0  0  0  0  0  0
  189.2760  178.3280  145.1830 C   0  0  0  0  0  2  0  0  0  0  0  0
  192.4310  174.8800  146.1420 N   0  0  0  0  0  0  0  0  0  0  0  0
  192.8720  175.6280  148.4850 C   0  0  0  0  0  1  0  0  0  0  0  0
  190.6030  175.4860  143.0480 N   0  0  0  0  0  0  0  0  0  0  0  0
  191.2820  176.6990  146.8620 N   0  0  0  0  0  0  0  0  0  0  0  0
  190.8230  177.7740  147.7300 C   0  0  0  0  0  1  0  0  0  0  0  0
  190.9270  176.4380  145.5920 C   0  0  0  0  0  0  0  0  0  0  0  0
  188.9400  177.2210  142.4750 C   0  0  0  0  0  0  0  0  0  0  0  0
  192.1900  175.7400  147.1640 C   0  0  0  0  0  0  0  0  0  0  0  0
  191.6230  175.3450  145.1710 C   0  0  0  0  0  0  0  0  0  0  0  0
  187.1480  177.2520  144.1510 C   0  0  1  0  0  3  0  0  0  0  0  0
  190.0240  177.1000  144.7500 C   0  0  0  0  0  0  0  0  0  0  0  0
  191.4740  174.8490  143.8820 C   0  0  0  0  0  3  0  0  0  0  0  0
  187.7610  178.1090  145.2780 C   0  0  1  0  0  3  0  0  0  0  0  0
  190.1800  178.0290  138.4820 N   0  0  0  0  0  0  0  0  0  0  0  0
  189.3710  177.5140  141.0860 C   0  0  0  0  0  0  0  0  0  0  0  0
  188.5820  178.3000  140.2350 C   0  0  0  0  0  3  0  0  0  0  0  0
  189.0070  178.5500  138.9280 C   0  0  0  0  0  3  0  0  0  0  0  0
  190.9650  177.2590  139.2810 C   0  0  0  0  0  3  0  0  0  0  0  0
  190.5740  176.9880  140.5940 C   0  0  0  0  0  3  0  0  0  0  0  0
  185.6350  177.4250  144.0900 C   0  0  0  0  0  2  0  0  0  0  0  0
  185.3020  178.7400  143.7590 O   0  0  0  0  0  1  0  0  0  0  0  0
  187.3470  177.6250  146.6700 C   0  0  0  0  0  2  0  0  0  0  0  0
  186.8750  178.7620  147.5640 C   0  0  0  0  0  2  0  0  0  0  0  0
  185.6800  179.2790  147.0650 O   0  0  0  0  0  1  0  0  0  0  0  0
  1 13  1  0  0  0  0
  2 14  1  0  0  0  0
  3 16  1  0  0  0  0
  4 11  2  0  0  0  0
  6  2  2  0  0  0  0
  6 15  1  0  0  0  0
  7 11  1  0  0  0  0
  7  8  1  0  0  0  0
  9  7  1  0  0  0  0
 10  1  2  0  0  0  0
 10  2  1  0  0  0  0
 11  5  1  0  0  0  0
 12  9  1  0  0  0  0
 12  4  1  0  0  0  0
 13 23  1  6  0  0  0
 13 16  1  0  0  0  0
 14  3  1  0  0  0  0
 14  9  2  0  0  0  0
 15 12  2  0  0  0  0
 16 25  1  1  0  0  0
 17 20  2  0  0  0  0
 17 21  1  0  0  0  0
 18 10  1  0  0  0  0
 19 18  2  0  0  0  0
 20 19  1  0  0  0  0
 21 22  2  0  0  0  0
 22 18  1  0  0  0  0
 24 23  1  0  0  0  0
 25 26  1  0  0  0  0
 27 26  1  0  0  0  0
M  END
>  <MODEL>
3

>  <REMARK>
 VINA RESULT:      -6.7      2.939      5.241
  Name = 
  4 active torsions:
  status: ('A' for Active; 'I' for Inactive)
    1  A    between atoms: C_9  and  C_15
    2  A    between atoms: C_10  and  C_20
    3  A    between atoms: CA_18  and  C_22
    4  A    between atoms: C_20  and  C_26
                            x       y       z     vdW  Elec       q    Type
                         _______ _______ _______ _____ _____    ______ ____

>  <TORSDO>
F 4

$$$$
=
 OpenBabel11052413393D

 27 30  0  0  1  0  0  0  0  0999 V2000
  188.3180  177.6410  139.2380 N   0  0  0  0  0  0  0  0  0  0  0  0
  190.6270  176.9370  139.4850 C   0  0  0  0  0  0  0  0  0  0  0  0
  189.5400  175.4780  137.7140 C   0  0  0  0  0  2  0  0  0  0  0  0
  194.2810  175.9670  137.9230 N   0  0  0  0  0  0  0  0  0  0  0  0
  194.7430  174.4810  135.9670 C   0  0  0  0  0  1  0  0  0  0  0  0
  191.7500  177.4530  140.0830 N   0  0  0  0  0  0  0  0  0  0  0  0
  192.4780  175.0600  136.8850 N   0  0  0  0  0  0  0  0  0  0  0  0
  191.6890  174.2720  135.9490 C   0  0  0  0  0  1  0  0  0  0  0  0
  192.0510  175.8250  137.9050 C   0  0  0  0  0  0  0  0  0  0  0  0
  189.2870  177.2770  140.0320 C   0  0  0  0  0  0  0  0  0  0  0  0
  193.8280  175.1690  136.9220 C   0  0  0  0  0  0  0  0  0  0  0  0
  193.1420  176.3630  138.5200 C   0  0  0  0  0  0  0  0  0  0  0  0
  188.4510  177.8370  137.7930 C   0  0  1  0  0  3  0  0  0  0  0  0
  190.7520  176.0910  138.3550 C   0  0  0  0  0  0  0  0  0  0  0  0
  193.0090  177.1880  139.6280 C   0  0  0  0  0  3  0  0  0  0  0  0
  188.6340  176.5090  137.0290 C   0  0  1  0  0  3  0  0  0  0  0  0
  188.5640  177.0440  144.2230 N   0  0  0  0  0  0  0  0  0  0  0  0
  189.0240  177.1920  141.4890 C   0  0  0  0  0  0  0  0  0  0  0  0
  187.9460  177.8740  142.0700 C   0  0  0  0  0  3  0  0  0  0  0  0
  187.7290  177.7860  143.4470 C   0  0  0  0  0  3  0  0  0  0  0  0
  189.6210  176.3750  143.6900 C   0  0  0  0  0  3  0  0  0  0  0  0
  189.8700  176.4390  142.3170 C   0  0  0  0  0  3  0  0  0  0  0  0
  187.2490  178.6130  137.2680 C   0  0  0  0  0  2  0  0  0  0  0  0
  186.2190  178.6250  138.2100 O   0  0  0  0  0  1  0  0  0  0  0  0
  189.0330  176.7280  135.5670 C   0  0  0  0  0  2  0  0  0  0  0  0
  188.2260  175.8660  134.6080 C   0  0  0  0  0  2  0  0  0  0  0  0
  186.9540  175.6520  135.1360 O   0  0  0  0  0  1  0  0  0  0  0  0
  1 10  2  0  0  0  0
  2 10  1  0  0  0  0
  2  6  1  0  0  0  0
  3 14  1  0  0  0  0
  4 12  1  0  0  0  0
  5 11  1  0  0  0  0
  7 11  1  0  0  0  0
  7  9  1  0  0  0  0
  8  7  1  0  0  0  0
  9 14  1  0  0  0  0
  9 12  2  0  0  0  0
 10 18  1  0  0  0  0
 11  4  2  0  0  0  0
 12 15  1  0  0  0  0
 13 23  1  6  0  0  0
 13  1  1  0  0  0  0
 14  2  2  0  0  0  0
 15  6  2  0  0  0  0
 16 25  1  6  0  0  0
 16  3  1  0  0  0  0
 16 13  1  0  0  0  0
 18 19  2  0  0  0  0
 18 22  1  0  0  0  0
 19 20  1  0  0  0  0
 20 17  2  0  0  0  0
 21 17  1  0  0  0  0
 22 21  2  0  0  0  0
 23 24  1  0  0  0  0
 26 27  1  0  0  0  0
 26 25  1  0  0  0  0
M  END
>  <MODEL>
4

>  <REMARK>
 VINA RESULT:      -6.4      3.468      8.291
  Name = 
  4 active torsions:
  status: ('A' for Active; 'I' for Inactive)
    1  A    between atoms: C_9  and  C_15
    2  A    between atoms: C_10  and  C_20
    3  A    between atoms: CA_18  and  C_22
    4  A    between atoms: C_20  and  C_26
                            x       y       z     vdW  Elec       q    Type
                         _______ _______ _______ _____ _____    ______ ____

>  <TORSDO>
F 4

$$$$
=
 OpenBabel11052413393D

 27 30  0  0  1  0  0  0  0  0999 V2000
  182.1980  178.9380  142.1710 N   0  0  0  0  0  0  0  0  0  0  0  0
  183.9600  178.3380  140.6140 C   0  0  0  0  0  0  0  0  0  0  0  0
  181.9780  176.8080  140.1940 C   0  0  0  0  0  2  0  0  0  0  0  0
  185.2970  177.5030  136.8390 N   0  0  0  0  0  0  0  0  0  0  0  0
  184.2200  176.0100  135.1480 C   0  0  0  0  0  1  0  0  0  0  0  0
  185.1360  178.9100  140.1970 N   0  0  0  0  0  0  0  0  0  0  0  0
  183.3540  176.5050  137.4540 N   0  0  0  0  0  0  0  0  0  0  0  0
  182.1640  175.6700  137.3910 C   0  0  0  0  0  1  0  0  0  0  0  0
  183.7920  177.2650  138.4730 C   0  0  0  0  0  0  0  0  0  0  0  0
  183.4510  178.6270  141.9810 C   0  0  0  0  0  0  0  0  0  0  0  0
  184.2840  176.6720  136.4830 C   0  0  0  0  0  0  0  0  0  0  0  0
  184.9590  177.8580  138.0920 C   0  0  0  0  0  0  0  0  0  0  0  0
  181.2110  179.1180  141.1050 C   0  0  1  0  0  3  0  0  0  0  0  0
  183.2410  177.4820  139.7430 C   0  0  0  0  0  0  0  0  0  0  0  0
  185.6560  178.6930  138.9540 C   0  0  0  0  0  3  0  0  0  0  0  0
  180.8210  177.7890  140.4260 C   0  0  1  0  0  3  0  0  0  0  0  0
  186.0280  178.3980  145.3640 N   0  0  0  0  0  0  0  0  0  0  0  0
  184.3560  178.5530  143.1530 C   0  0  0  0  0  0  0  0  0  0  0  0
  185.6110  177.9330  143.0590 C   0  0  0  0  0  3  0  0  0  0  0  0
  186.4380  177.8660  144.1820 C   0  0  0  0  0  3  0  0  0  0  0  0
  184.8150  179.0020  145.4880 C   0  0  0  0  0  3  0  0  0  0  0  0
  183.9610  179.0880  144.3870 C   0  0  0  0  0  3  0  0  0  0  0  0
  179.9840  179.8340  141.6570 C   0  0  0  0  0  2  0  0  0  0  0  0
  180.2960  180.5030  142.8430 O   0  0  0  0  0  1  0  0  0  0  0  0
  179.9990  178.0030  139.1520 C   0  0  0  0  0  2  0  0  0  0  0  0
  180.4490  179.2270  138.3690 C   0  0  0  0  0  2  0  0  0  0  0  0
  180.8340  178.8400  137.0860 O   0  0  0  0  0  1  0  0  0  0  0  0
  2 10  1  0  0  0  0
  3 16  1  0  0  0  0
  4 12  1  0  0  0  0
  5 11  1  0  0  0  0
  6  2  1  0  0  0  0
  7  9  1  0  0  0  0
  8  7  1  0  0  0  0
  9 14  1  0  0  0  0
 10  1  2  0  0  0  0
 10 18  1  0  0  0  0
 11  4  2  0  0  0  0
 11  7  1  0  0  0  0
 12  9  2  0  0  0  0
 12 15  1  0  0  0  0
 13 23  1  1  0  0  0
 13  1  1  0  0  0  0
 14  3  1  0  0  0  0
 14  2  2  0  0  0  0
 15  6  2  0  0  0  0
 16 25  1  6  0  0  0
 16 13  1  0  0  0  0
 17 21  1  0  0  0  0
 18 22  1  0  0  0  0
 19 18  2  0  0  0  0
 19 20  1  0  0  0  0
 20 17  2  0  0  0  0
 22 21  2  0  0  0  0
 23 24  1  0  0  0  0
 26 25  1  0  0  0  0
 27 26  1  0  0  0  0
M  END
>  <MODEL>
5

>  <REMARK>
 VINA RESULT:      -6.3      5.115      8.526
  Name = 
  4 active torsions:
  status: ('A' for Active; 'I' for Inactive)
    1  A    between atoms: C_9  and  C_15
    2  A    between atoms: C_10  and  C_20
    3  A    between atoms: CA_18  and  C_22
    4  A    between atoms: C_20  and  C_26
                            x       y       z     vdW  Elec       q    Type
                         _______ _______ _______ _____ _____    ______ ____

>  <TORSDO>
F 4

$$$$
=
 OpenBabel11052413393D

 27 30  0  0  1  0  0  0  0  0999 V2000
  188.8380  177.6530  146.4440 N   0  0  0  0  0  0  0  0  0  0  0  0
  188.8650  177.7350  144.0190 C   0  0  0  0  0  0  0  0  0  0  0  0
  186.5070  177.1610  144.7650 C   0  0  0  0  0  2  0  0  0  0  0  0
  187.3340  179.0030  140.4430 N   0  0  0  0  0  0  0  0  0  0  0  0
  184.9340  179.0170  139.7440 C   0  0  0  0  0  1  0  0  0  0  0  0
  189.7350  178.1970  143.0630 N   0  0  0  0  0  0  0  0  0  0  0  0
  185.8290  178.2400  141.9600 N   0  0  0  0  0  0  0  0  0  0  0  0
  184.5560  177.8520  142.5500 C   0  0  0  0  0  1  0  0  0  0  0  0
  187.0590  178.1630  142.4950 C   0  0  0  0  0  0  0  0  0  0  0  0
  189.3950  177.2710  145.3280 C   0  0  0  0  0  0  0  0  0  0  0  0
  186.0290  178.7520  140.7220 C   0  0  0  0  0  0  0  0  0  0  0  0
  187.9540  178.6230  141.5750 C   0  0  0  0  0  0  0  0  0  0  0  0
  187.7330  178.6090  146.5410 C   0  0  1  0  0  3  0  0  0  0  0  0
  187.4730  177.7060  143.7530 C   0  0  0  0  0  0  0  0  0  0  0  0
  189.3160  178.6450  141.8440 C   0  0  0  0  0  3  0  0  0  0  0  0
  186.4000  178.0290  146.0250 C   0  0  1  0  0  3  0  0  0  0  0  0
  192.7220  174.6200  145.5200 N   0  0  0  0  0  0  0  0  0  0  0  0
  190.5590  176.3530  145.3860 C   0  0  0  0  0  0  0  0  0  0  0  0
  190.9630  175.6270  144.2570 C   0  0  0  0  0  3  0  0  0  0  0  0
  192.0560  174.7610  144.3430 C   0  0  0  0  0  3  0  0  0  0  0  0
  192.3520  175.3070  146.6330 C   0  0  0  0  0  3  0  0  0  0  0  0
  191.2650  176.1830  146.5850 C   0  0  0  0  0  3  0  0  0  0  0  0
  187.6010  179.0960  147.9790 C   0  0  0  0  0  2  0  0  0  0  0  0
  188.2120  178.2020  148.8610 O   0  0  0  0  0  1  0  0  0  0  0  0
  185.3150  179.1000  145.8810 C   0  0  0  0  0  2  0  0  0  0  0  0
  183.9140  178.5080  145.8440 C   0  0  0  0  0  2  0  0  0  0  0  0
  183.0620  179.3770  145.1650 O   0  0  0  0  0  1  0  0  0  0  0  0
  1 13  1  0  0  0  0
  2 10  1  0  0  0  0
  3 16  1  0  0  0  0
  4 11  2  0  0  0  0
  4 12  1  0  0  0  0
  5 11  1  0  0  0  0
  6  2  2  0  0  0  0
  7  9  1  0  0  0  0
  7  8  1  0  0  0  0
  9 14  2  0  0  0  0
 10 18  1  0  0  0  0
 10  1  2  0  0  0  0
 11  7  1  0  0  0  0
 12 15  2  0  0  0  0
 12  9  1  0  0  0  0
 13 23  1  1  0  0  0
 14  2  1  0  0  0  0
 14  3  1  0  0  0  0
 15  6  1  0  0  0  0
 16 25  1  6  0  0  0
 16 13  1  0  0  0  0
 17 21  1  0  0  0  0
 18 22  1  0  0  0  0
 19 20  1  0  0  0  0
 19 18  2  0  0  0  0
 20 17  2  0  0  0  0
 22 21  2  0  0  0  0
 23 24  1  0  0  0  0
 26 25  1  0  0  0  0
 27 26  1  0  0  0  0
M  END
>  <MODEL>
6

>  <REMARK>
 VINA RESULT:      -6.0      2.739      5.235
  Name = 
  4 active torsions:
  status: ('A' for Active; 'I' for Inactive)
    1  A    between atoms: C_9  and  C_15
    2  A    between atoms: C_10  and  C_20
    3  A    between atoms: CA_18  and  C_22
    4  A    between atoms: C_20  and  C_26
                            x       y       z     vdW  Elec       q    Type
                         _______ _______ _______ _____ _____    ______ ____

>  <TORSDO>
F 4

$$$$
=
 OpenBabel11052413393D

 27 30  0  0  1  0  0  0  0  0999 V2000
  183.7330  178.6410  142.7060 N   0  0  0  0  0  0  0  0  0  0  0  0
  182.9510  177.7910  140.5720 C   0  0  0  0  0  0  0  0  0  0  0  0
  185.0350  179.1800  140.1550 C   0  0  0  0  0  2  0  0  0  0  0  0
  183.5880  175.9130  136.9940 N   0  0  0  0  0  0  0  0  0  0  0  0
  185.4550  176.3200  135.3830 C   0  0  0  0  0  1  0  0  0  0  0  0
  182.0530  176.8350  140.1680 N   0  0  0  0  0  0  0  0  0  0  0  0
  185.1110  177.4900  137.5800 N   0  0  0  0  0  0  0  0  0  0  0  0
  186.2680  178.3700  137.5070 C   0  0  0  0  0  1  0  0  0  0  0  0
  184.1850  177.4010  138.5500 C   0  0  0  0  0  0  0  0  0  0  0  0
  182.7440  178.4870  141.8700 C   0  0  0  0  0  0  0  0  0  0  0  0
  184.7230  176.5780  136.6560 C   0  0  0  0  0  0  0  0  0  0  0  0
  183.2760  176.4520  138.1870 C   0  0  0  0  0  0  0  0  0  0  0  0
  185.0790  178.0970  142.5170 C   0  0  1  0  0  3  0  0  0  0  0  0
  184.0660  178.1050  139.7550 C   0  0  0  0  0  0  0  0  0  0  0  0
  182.1860  176.1540  138.9930 C   0  0  0  0  0  3  0  0  0  0  0  0
  185.8590  178.8170  141.3970 C   0  0  1  0  0  3  0  0  0  0  0  0
  178.9310  180.0600  142.9270 N   0  0  0  0  0  0  0  0  0  0  0  0
  181.4120  179.0300  142.2290 C   0  0  0  0  0  0  0  0  0  0  0  0
  180.7040  179.8530  141.3410 C   0  0  0  0  0  3  0  0  0  0  0  0
  179.4560  180.3600  141.7100 C   0  0  0  0  0  3  0  0  0  0  0  0
  179.5940  179.2680  143.8110 C   0  0  0  0  0  3  0  0  0  0  0  0
  180.8440  178.7420  143.4790 C   0  0  0  0  0  3  0  0  0  0  0  0
  185.8420  178.1450  143.8360 C   0  0  0  0  0  2  0  0  0  0  0  0
  185.0250  178.6270  144.8610 O   0  0  0  0  0  1  0  0  0  0  0  0
  187.1520  178.0870  141.0240 C   0  0  0  0  0  2  0  0  0  0  0  0
  188.3950  178.9010  141.3490 C   0  0  0  0  0  2  0  0  0  0  0  0
  189.1090  178.2690  142.3660 O   0  0  0  0  0  1  0  0  0  0  0  0
  2 10  1  0  0  0  0
  3 16  1  0  0  0  0
  4 12  1  0  0  0  0
  5 11  1  0  0  0  0
  6  2  1  0  0  0  0
  7  9  1  0  0  0  0
  8  7  1  0  0  0  0
  9 14  1  0  0  0  0
 10 18  1  0  0  0  0
 10  1  2  0  0  0  0
 11  4  2  0  0  0  0
 11  7  1  0  0  0  0
 12  9  2  0  0  0  0
 12 15  1  0  0  0  0
 13  1  1  0  0  0  0
 13 23  1  1  0  0  0
 14  3  1  0  0  0  0
 14  2  2  0  0  0  0
 15  6  2  0  0  0  0
 16 25  1  6  0  0  0
 16 13  1  0  0  0  0
 17 21  1  0  0  0  0
 18 22  1  0  0  0  0
 19 20  1  0  0  0  0
 19 18  2  0  0  0  0
 20 17  2  0  0  0  0
 22 21  2  0  0  0  0
 23 24  1  0  0  0  0
 25 26  1  0  0  0  0
 26 27  1  0  0  0  0
M  END
>  <MODEL>
7

>  <REMARK>
 VINA RESULT:      -5.8      3.795      7.612
  Name = 
  4 active torsions:
  status: ('A' for Active; 'I' for Inactive)
    1  A    between atoms: C_9  and  C_15
    2  A    between atoms: C_10  and  C_20
    3  A    between atoms: CA_18  and  C_22
    4  A    between atoms: C_20  and  C_26
                            x       y       z     vdW  Elec       q    Type
                         _______ _______ _______ _____ _____    ______ ____

>  <TORSDO>
F 4

$$$$
=
 OpenBabel11052413393D

 27 30  0  0  1  0  0  0  0  0999 V2000
  187.3080  178.4110  141.8800 N   0  0  0  0  0  0  0  0  0  0  0  0
  187.8910  177.9620  144.1920 C   0  0  0  0  0  0  0  0  0  0  0  0
  188.9760  176.1830  142.7430 C   0  0  0  0  0  2  0  0  0  0  0  0
  190.6260  177.1270  147.1190 N   0  0  0  0  0  0  0  0  0  0  0  0
  192.4660  175.4380  147.0320 C   0  0  0  0  0  1  0  0  0  0  0  0
  187.8130  178.6550  145.3750 N   0  0  0  0  0  0  0  0  0  0  0  0
  190.8150  175.9270  145.2020 N   0  0  0  0  0  0  0  0  0  0  0  0
  191.3050  174.9500  144.2410 C   0  0  0  0  0  1  0  0  0  0  0  0
  189.7840  176.7810  145.0780 C   0  0  0  0  0  0  0  0  0  0  0  0
  186.9110  178.2480  143.1120 C   0  0  0  0  0  0  0  0  0  0  0  0
  191.3030  176.1630  146.4440 C   0  0  0  0  0  0  0  0  0  0  0  0
  189.6800  177.4950  146.2340 C   0  0  0  0  0  0  0  0  0  0  0  0
  188.7070  178.4200  141.4480 C   0  0  1  0  0  3  0  0  0  0  0  0
  188.9020  176.9850  144.0090 C   0  0  0  0  0  0  0  0  0  0  0  0
  188.6850  178.4470  146.4050 C   0  0  0  0  0  3  0  0  0  0  0  0
  189.3580  177.0230  141.5180 C   0  0  1  0  0  3  0  0  0  0  0  0
  182.7550  178.5370  143.9950 N   0  0  0  0  0  0  0  0  0  0  0  0
  185.4620  178.3390  143.4140 C   0  0  0  0  0  0  0  0  0  0  0  0
  184.5030  178.2530  142.3940 C   0  0  0  0  0  3  0  0  0  0  0  0
  183.1460  178.3530  142.7060 C   0  0  0  0  0  3  0  0  0  0  0  0
  183.6590  178.6280  145.0060 C   0  0  0  0  0  3  0  0  0  0  0  0
  185.0260  178.5320  144.7330 C   0  0  0  0  0  3  0  0  0  0  0  0
  188.8070  179.0040  140.0440 C   0  0  0  0  0  2  0  0  0  0  0  0
  187.7480  178.5600  139.2490 O   0  0  0  0  0  1  0  0  0  0  0  0
  190.8760  177.0770  141.3220 C   0  0  0  0  0  2  0  0  0  0  0  0
  191.2770  177.0050  139.8560 C   0  0  0  0  0  2  0  0  0  0  0  0
  190.5550  175.9920  139.2280 O   0  0  0  0  0  1  0  0  0  0  0  0
  1 10  2  0  0  0  0
  2  6  1  0  0  0  0
  3 14  1  0  0  0  0
  6 15  2  0  0  0  0
  7 11  1  0  0  0  0
  8  7  1  0  0  0  0
  9  7  1  0  0  0  0
  9 12  2  0  0  0  0
 10 18  1  0  0  0  0
 10  2  1  0  0  0  0
 11  5  1  0  0  0  0
 11  4  2  0  0  0  0
 12 15  1  0  0  0  0
 12  4  1  0  0  0  0
 13 23  1  6  0  0  0
 13 16  1  0  0  0  0
 13  1  1  0  0  0  0
 14  2  2  0  0  0  0
 14  9  1  0  0  0  0
 16 25  1  1  0  0  0
 16  3  1  0  0  0  0
 17 21  1  0  0  0  0
 18 22  1  0  0  0  0
 19 20  1  0  0  0  0
 19 18  2  0  0  0  0
 20 17  2  0  0  0  0
 22 21  2  0  0  0  0
 24 23  1  0  0  0  0
 26 25  1  0  0  0  0
 27 26  1  0  0  0  0
M  END
>  <MODEL>
8

>  <REMARK>
 VINA RESULT:      -5.8      2.801      6.195
  Name = 
  4 active torsions:
  status: ('A' for Active; 'I' for Inactive)
    1  A    between atoms: C_9  and  C_15
    2  A    between atoms: C_10  and  C_20
    3  A    between atoms: CA_18  and  C_22
    4  A    between atoms: C_20  and  C_26
                            x       y       z     vdW  Elec       q    Type
                         _______ _______ _______ _____ _____    ______ ____

>  <TORSDO>
F 4

$$$$
=
 OpenBabel11052413393D

 27 30  0  0  1  0  0  0  0  0999 V2000
  185.9270  178.2790  139.7100 N   0  0  0  0  0  0  0  0  0  0  0  0
  183.6200  178.9010  139.2850 C   0  0  0  0  0  0  0  0  0  0  0  0
  183.7340  177.8000  141.5690 C   0  0  0  0  0  2  0  0  0  0  0  0
  180.1030  180.6660  140.4030 N   0  0  0  0  0  0  0  0  0  0  0  0
  178.9310  180.4450  142.6000 C   0  0  0  0  0  1  0  0  0  0  0  0
  182.9720  179.6990  138.3750 N   0  0  0  0  0  0  0  0  0  0  0  0
  181.1000  179.3510  141.9600 N   0  0  0  0  0  0  0  0  0  0  0  0
  181.3270  178.6400  143.2100 C   0  0  0  0  0  1  0  0  0  0  0  0
  181.8580  179.3580  140.8500 C   0  0  0  0  0  0  0  0  0  0  0  0
  184.9010  178.2500  138.9040 C   0  0  0  0  0  0  0  0  0  0  0  0
  180.0500  180.1510  141.6580 C   0  0  0  0  0  0  0  0  0  0  0  0
  181.2490  180.1500  139.9230 C   0  0  0  0  0  0  0  0  0  0  0  0
  185.9660  178.9960  140.9850 C   0  0  1  0  0  3  0  0  0  0  0  0
  183.0670  178.7060  140.5750 C   0  0  0  0  0  0  0  0  0  0  0  0
  181.7970  180.3320  138.6610 C   0  0  0  0  0  3  0  0  0  0  0  0
  185.0830  178.3370  142.0650 C   0  0  1  0  0  3  0  0  0  0  0  0
  185.3020  176.2120  135.1860 N   0  0  0  0  0  0  0  0  0  0  0  0
  185.0310  177.5440  137.6060 C   0  0  0  0  0  0  0  0  0  0  0  0
  184.0990  176.5700  137.2170 C   0  0  0  0  0  3  0  0  0  0  0  0
  184.2520  175.9120  135.9950 C   0  0  0  0  0  3  0  0  0  0  0  0
  186.2240  177.1480  135.5370 C   0  0  0  0  0  3  0  0  0  0  0  0
  186.1050  177.8270  136.7510 C   0  0  0  0  0  3  0  0  0  0  0  0
  187.4090  179.1230  141.4580 C   0  0  0  0  0  2  0  0  0  0  0  0
  188.2900  178.6350  140.4910 O   0  0  0  0  0  1  0  0  0  0  0  0
  184.9160  179.2220  143.3030 C   0  0  0  0  0  2  0  0  0  0  0  0
  185.0530  178.4400  144.6010 C   0  0  0  0  0  2  0  0  0  0  0  0
  185.0890  179.3270  145.6750 O   0  0  0  0  0  1  0  0  0  0  0  0
  1 13  1  0  0  0  0
  2 14  1  0  0  0  0
  3 16  1  0  0  0  0
  4 11  2  0  0  0  0
  6 15  1  0  0  0  0
  6  2  2  0  0  0  0
  7  8  1  0  0  0  0
  9  7  1  0  0  0  0
 10  2  1  0  0  0  0
 10  1  2  0  0  0  0
 11  7  1  0  0  0  0
 11  5  1  0  0  0  0
 12  4  1  0  0  0  0
 12  9  1  0  0  0  0
 13 23  1  1  0  0  0
 13 16  1  0  0  0  0
 14  9  2  0  0  0  0
 14  3  1  0  0  0  0
 15 12  2  0  0  0  0
 16 25  1  1  0  0  0
 17 21  2  0  0  0  0
 17 20  1  0  0  0  0
 18 10  1  0  0  0  0
 19 18  1  0  0  0  0
 20 19  2  0  0  0  0
 21 22  1  0  0  0  0
 22 18  2  0  0  0  0
 24 23  1  0  0  0  0
 25 26  1  0  0  0  0
 26 27  1  0  0  0  0
M  END
>  <MODEL>
9

>  <REMARK>
 VINA RESULT:      -5.5      3.847      5.186
  Name = 
  4 active torsions:
  status: ('A' for Active; 'I' for Inactive)
    1  A    between atoms: C_9  and  C_15
    2  A    between atoms: C_10  and  C_20
    3  A    between atoms: CA_18  and  C_22
    4  A    between atoms: C_20  and  C_26
                            x       y       z     vdW  Elec       q    Type
                         _______ _______ _______ _____ _____    ______ ____

>  <TORSDO>
F 4

$$$$
