=
 OpenBabel11052413313D

 28 32  0  0  1  0  0  0  0  0999 V2000
  190.2490  176.4060  143.8580 N   0  0  0  0  0  0  0  0  0  0  0  0
  185.2900  178.2840  143.0400 C   0  0  0  0  0  3  0  0  0  0  0  0
  188.8350  177.6540  148.0330 O   0  0  0  0  0  0  0  0  0  0  0  0
  184.5740  178.5850  145.3420 C   0  0  0  0  0  0  0  0  0  0  0  0
  187.0000  177.9880  144.8720 C   0  0  2  0  0  3  0  0  0  0  0  0
  183.0030  178.9070  143.5220 C   0  0  0  0  0  0  0  0  0  0  0  0
  185.5830  178.2390  144.4110 C   0  0  0  0  0  0  0  0  0  0  0  0
  186.2980  178.6430  147.1830 C   0  0  0  0  0  2  0  0  0  0  0  0
  183.2880  178.8960  144.8900 C   0  0  0  0  0  3  0  0  0  0  0  0
  189.4810  177.0150  145.8370 C   0  0  0  0  0  0  0  0  0  0  0  0
  187.7610  176.9770  143.9890 C   0  0  0  0  0  2  0  0  0  0  0  0
  184.8170  178.5450  146.8270 C   0  0  0  0  0  2  0  0  0  0  0  0
  190.8300  176.7280  145.9150 C   0  0  0  0  0  0  0  0  0  0  0  0
  188.5050  177.4710  146.8310 C   0  0  0  0  0  0  0  0  0  0  0  0
  191.6880  176.8080  147.1280 C   0  0  0  0  0  1  0  0  0  0  0  0
  181.3920  179.3040  142.9690 Cl  0  0  0  0  0  0  0  0  0  0  0  0
  184.0050  178.6070  142.5980 C   0  0  0  0  0  3  0  0  0  0  0  0
  187.0710  177.6120  146.3730 C   0  0  2  0  0  3  0  0  0  0  0  0
  191.2790  176.3590  144.6950 N   0  0  0  0  0  0  0  0  0  0  0  0
  189.1520  176.8120  144.5240 C   0  0  0  0  0  0  0  0  0  0  0  0
  190.3430  176.1130  142.4330 C   0  0  0  0  0  2  0  0  0  0  0  0
  190.4610  177.3910  141.5990 C   0  0  2  0  0  3  0  0  0  0  0  0
  189.9290  177.6510  138.7740 C   0  0  0  0  0  0  0  0  0  0  0  0
  189.1140  177.8170  141.0580 C   0  0  0  0  0  3  0  0  0  0  0  0
  191.5420  177.2580  140.5490 C   0  0  0  0  0  3  0  0  0  0  0  0
  191.2890  177.3590  139.2430 C   0  0  0  0  0  3  0  0  0  0  0  0
  189.6810  177.6950  137.5410 O   0  0  0  0  0  0  0  0  0  0  0  0
  188.8670  177.9190  139.7510 C   0  0  0  0  0  3  0  0  0  0  0  0
  1 20  1  0  0  0  0
  1 19  1  0  0  0  0
  2  7  1  0  0  0  0
  4 12  1  0  0  0  0
  5 11  1  6  0  0  0
  5 18  1  0  0  0  0
  6  9  2  0  0  0  0
  7  5  1  0  0  0  0
  7  4  2  0  0  0  0
  9  4  1  0  0  0  0
 10 13  1  0  0  0  0
 10 14  1  0  0  0  0
 11 20  1  0  0  0  0
 12  8  1  0  0  0  0
 13 15  1  0  0  0  0
 14  3  2  0  0  0  0
 16  6  1  0  0  0  0
 17  2  2  0  0  0  0
 17  6  1  0  0  0  0
 18 14  1  0  0  0  0
 18  8  1  1  0  0  0
 19 13  2  0  0  0  0
 20 10  2  0  0  0  0
 21  1  1  0  0  0  0
 22 21  1  6  0  0  0
 23 26  1  0  0  0  0
 23 28  1  0  0  0  0
 24 22  1  0  0  0  0
 25 22  1  0  0  0  0
 26 25  2  0  0  0  0
 27 23  2  0  0  0  0
 28 24  2  0  0  0  0
M  END
>  <MODEL>
1

>  <REMARK>
 VINA RESULT:     -12.0      0.000      0.000
  Name = 
  2 active torsions:
  status: ('A' for Active; 'I' for Inactive)
    1  A    between atoms: N_1  and  C_2
    2  A    between atoms: C_2  and  C_3
                            x       y       z     vdW  Elec       q    Type
                         _______ _______ _______ _____ _____    ______ ____

>  <TORSDO>
F 2

$$$$
=
 OpenBabel11052413313D

 28 32  0  0  1  0  0  0  0  0999 V2000
  187.4960  178.5640  140.4910 N   0  0  0  0  0  0  0  0  0  0  0  0
  190.4980  176.9080  144.6180 C   0  0  0  0  0  3  0  0  0  0  0  0
  184.5340  178.2970  143.9760 O   0  0  0  0  0  0  0  0  0  0  0  0
  188.8850  177.1350  146.4220 C   0  0  0  0  0  0  0  0  0  0  0  0
  188.1070  177.4520  144.0230 C   0  0  2  0  0  3  0  0  0  0  0  0
  191.1910  176.5580  146.9080 C   0  0  0  0  0  0  0  0  0  0  0  0
  189.1960  177.2120  145.0420 C   0  0  0  0  0  0  0  0  0  0  0  0
  186.4310  177.3340  145.8780 C   0  0  0  0  0  2  0  0  0  0  0  0
  189.8910  176.8280  147.3440 C   0  0  0  0  0  3  0  0  0  0  0  0
  186.1410  178.4280  142.2290 C   0  0  0  0  0  0  0  0  0  0  0  0
  188.5970  178.2060  142.7690 C   0  0  0  0  0  2  0  0  0  0  0  0
  187.5130  177.4600  146.9470 C   0  0  0  0  0  2  0  0  0  0  0  0
  185.4140  178.6300  141.0710 C   0  0  0  0  0  0  0  0  0  0  0  0
  185.7460  178.2530  143.6300 C   0  0  0  0  0  0  0  0  0  0  0  0
  183.9350  178.7390  140.9560 C   0  0  0  0  0  1  0  0  0  0  0  0
  192.4380  176.1690  148.0720 Cl  0  0  0  0  0  0  0  0  0  0  0  0
  191.4930  176.5920  145.5460 C   0  0  0  0  0  3  0  0  0  0  0  0
  186.8560  178.1210  144.6470 C   0  0  2  0  0  3  0  0  0  0  0  0
  186.2620  178.7090  140.0220 N   0  0  0  0  0  0  0  0  0  0  0  0
  187.4470  178.3800  141.8240 C   0  0  0  0  0  0  0  0  0  0  0  0
  188.6900  178.5520  139.6540 C   0  0  0  0  0  2  0  0  0  0  0  0
  189.0850  177.1300  139.2510 C   0  0  2  0  0  3  0  0  0  0  0  0
  191.3250  176.3750  137.5960 C   0  0  0  0  0  0  0  0  0  0  0  0
  190.4320  176.7530  139.8250 C   0  0  0  0  0  3  0  0  0  0  0  0
  188.9660  176.9340  137.7560 C   0  0  0  0  0  3  0  0  0  0  0  0
  190.0080  176.6040  136.9910 C   0  0  0  0  0  3  0  0  0  0  0  0
  192.3190  176.1140  136.8690 O   0  0  0  0  0  0  0  0  0  0  0  0
  191.4710  176.4220  139.0550 C   0  0  0  0  0  3  0  0  0  0  0  0
  1 20  1  0  0  0  0
  2  7  2  0  0  0  0
  2 17  1  0  0  0  0
  4 12  1  0  0  0  0
  4  9  2  0  0  0  0
  5 11  1  6  0  0  0
  5 18  1  0  0  0  0
  5  7  1  0  0  0  0
  6  9  1  0  0  0  0
  6 16  1  0  0  0  0
  7  4  1  0  0  0  0
  8 12  1  0  0  0  0
 10 14  1  0  0  0  0
 13 10  1  0  0  0  0
 14  3  2  0  0  0  0
 14 18  1  0  0  0  0
 15 13  1  0  0  0  0
 17  6  2  0  0  0  0
 18  8  1  1  0  0  0
 19  1  1  0  0  0  0
 19 13  2  0  0  0  0
 20 10  2  0  0  0  0
 20 11  1  0  0  0  0
 21  1  1  0  0  0  0
 22 21  1  6  0  0  0
 22 24  1  0  0  0  0
 23 28  1  0  0  0  0
 25 22  1  0  0  0  0
 26 23  1  0  0  0  0
 26 25  2  0  0  0  0
 27 23  2  0  0  0  0
 28 24  2  0  0  0  0
M  END
>  <MODEL>
2

>  <REMARK>
 VINA RESULT:     -11.2      3.355      5.527
  Name = 
  2 active torsions:
  status: ('A' for Active; 'I' for Inactive)
    1  A    between atoms: N_1  and  C_2
    2  A    between atoms: C_2  and  C_3
                            x       y       z     vdW  Elec       q    Type
                         _______ _______ _______ _____ _____    ______ ____

>  <TORSDO>
F 2

$$$$
=
 OpenBabel11052413313D

 28 32  0  0  1  0  0  0  0  0999 V2000
  183.5470  178.4480  141.0610 N   0  0  0  0  0  0  0  0  0  0  0  0
  188.2660  176.8290  143.0340 C   0  0  0  0  0  3  0  0  0  0  0  0
  183.1560  179.1410  145.5720 O   0  0  0  0  0  0  0  0  0  0  0  0
  188.0240  177.5570  145.3400 C   0  0  0  0  0  0  0  0  0  0  0  0
  186.0190  177.7010  143.7830 C   0  0  2  0  0  3  0  0  0  0  0  0
  190.1360  176.6540  144.5580 C   0  0  0  0  0  0  0  0  0  0  0  0
  187.4790  177.4050  144.0420 C   0  0  0  0  0  0  0  0  0  0  0  0
  185.7320  178.1100  146.2350 C   0  0  0  0  0  2  0  0  0  0  0  0
  189.3540  177.1990  145.5800 C   0  0  0  0  0  3  0  0  0  0  0  0
  183.4500  178.7690  143.2440 C   0  0  0  0  0  0  0  0  0  0  0  0
  185.7400  178.1940  142.3490 C   0  0  0  0  0  2  0  0  0  0  0  0
  187.2400  178.1800  146.4630 C   0  0  0  0  0  2  0  0  0  0  0  0
  182.2020  178.9470  142.6780 C   0  0  0  0  0  0  0  0  0  0  0  0
  183.9330  178.8430  144.6250 C   0  0  0  0  0  0  0  0  0  0  0  0
  180.9440  179.2970  143.3910 C   0  0  0  0  0  1  0  0  0  0  0  0
  191.7970  176.2040  144.8740 Cl  0  0  0  0  0  0  0  0  0  0  0  0
  189.5900  176.4640  143.2880 C   0  0  0  0  0  3  0  0  0  0  0  0
  185.4150  178.6500  144.8480 C   0  0  2  0  0  3  0  0  0  0  0  0
  182.2840  178.7450  141.3450 N   0  0  0  0  0  0  0  0  0  0  0  0
  184.2700  178.4450  142.1970 C   0  0  0  0  0  0  0  0  0  0  0  0
  184.0260  178.1230  139.7230 C   0  0  0  0  0  2  0  0  0  0  0  0
  182.9350  177.4700  138.8730 C   0  0  2  0  0  3  0  0  0  0  0  0
  183.3250  175.5100  136.7900 C   0  0  0  0  0  0  0  0  0  0  0  0
  182.8610  175.9800  139.1290 C   0  0  0  0  0  3  0  0  0  0  0  0
  183.0820  177.8460  137.4150 C   0  0  0  0  0  3  0  0  0  0  0  0
  183.2810  176.9390  136.4570 C   0  0  0  0  0  3  0  0  0  0  0  0
  183.5650  174.6590  135.8940 O   0  0  0  0  0  0  0  0  0  0  0  0
  183.0590  175.0780  138.1670 C   0  0  0  0  0  3  0  0  0  0  0  0
  1 19  1  0  0  0  0
  1 20  1  0  0  0  0
  2 17  2  0  0  0  0
  2  7  1  0  0  0  0
  4  9  1  0  0  0  0
  4 12  1  0  0  0  0
  5 11  1  6  0  0  0
  5  7  1  0  0  0  0
  5 18  1  0  0  0  0
  6 16  1  0  0  0  0
  6  9  2  0  0  0  0
  7  4  2  0  0  0  0
  8 12  1  0  0  0  0
 10 14  1  0  0  0  0
 13 10  1  0  0  0  0
 13 15  1  0  0  0  0
 14 18  1  0  0  0  0
 14  3  2  0  0  0  0
 17  6  1  0  0  0  0
 18  8  1  1  0  0  0
 19 13  2  0  0  0  0
 20 11  1  0  0  0  0
 20 10  2  0  0  0  0
 21  1  1  0  0  0  0
 22 24  1  0  0  0  0
 22 21  1  1  0  0  0
 23 28  1  0  0  0  0
 25 22  1  0  0  0  0
 26 23  1  0  0  0  0
 26 25  2  0  0  0  0
 27 23  2  0  0  0  0
 28 24  2  0  0  0  0
M  END
>  <MODEL>
3

>  <REMARK>
 VINA RESULT:      -9.9      4.434      6.801
  Name = 
  2 active torsions:
  status: ('A' for Active; 'I' for Inactive)
    1  A    between atoms: N_1  and  C_2
    2  A    between atoms: C_2  and  C_3
                            x       y       z     vdW  Elec       q    Type
                         _______ _______ _______ _____ _____    ______ ____

>  <TORSDO>
F 2

$$$$
=
 OpenBabel11052413313D

 28 32  0  0  1  0  0  0  0  0999 V2000
  186.8150  178.5980  139.3730 N   0  0  0  0  0  0  0  0  0  0  0  0
  188.2220  177.8030  144.4880 C   0  0  0  0  0  3  0  0  0  0  0  0
  182.8470  178.7940  141.6550 O   0  0  0  0  0  0  0  0  0  0  0  0
  186.0990  178.2600  145.5790 C   0  0  0  0  0  0  0  0  0  0  0  0
  186.1810  178.1300  143.0420 C   0  0  2  0  0  3  0  0  0  0  0  0
  188.0960  177.8780  146.9030 C   0  0  0  0  0  0  0  0  0  0  0  0
  186.8580  178.1160  144.3930 C   0  0  0  0  0  0  0  0  0  0  0  0
  183.9750  178.2530  144.2190 C   0  0  0  0  0  2  0  0  0  0  0  0
  186.7300  178.1590  146.8230 C   0  0  0  0  0  3  0  0  0  0  0  0
  184.9510  178.6980  140.5520 C   0  0  0  0  0  0  0  0  0  0  0  0
  187.0770  178.6820  141.9140 C   0  0  0  0  0  2  0  0  0  0  0  0
  184.6350  178.6070  145.5490 C   0  0  0  0  0  2  0  0  0  0  0  0
  184.6610  178.6680  139.2020 C   0  0  0  0  0  0  0  0  0  0  0  0
  184.1040  178.7460  141.7470 C   0  0  0  0  0  0  0  0  0  0  0  0
  183.3090  178.6900  138.5800 C   0  0  0  0  0  1  0  0  0  0  0  0
  188.8720  177.7490  148.4660 Cl  0  0  0  0  0  0  0  0  0  0  0  0
  188.8410  177.6940  145.7370 C   0  0  0  0  0  3  0  0  0  0  0  0
  184.8030  178.8390  143.0840 C   0  0  2  0  0  3  0  0  0  0  0  0
  185.8140  178.6060  138.5000 N   0  0  0  0  0  0  0  0  0  0  0  0
  186.3160  178.6410  140.6230 C   0  0  0  0  0  0  0  0  0  0  0  0
  188.2210  178.4980  139.0000 C   0  0  0  0  0  2  0  0  0  0  0  0
  188.7770  177.0960  139.2550 C   0  0  2  0  0  3  0  0  0  0  0  0
  191.3150  176.0640  138.3480 C   0  0  0  0  0  0  0  0  0  0  0  0
  190.0280  177.1490  140.1030 C   0  0  0  0  0  3  0  0  0  0  0  0
  188.9310  176.3270  137.9620 C   0  0  0  0  0  3  0  0  0  0  0  0
  190.1090  175.8680  137.5360 C   0  0  0  0  0  3  0  0  0  0  0  0
  192.4340  175.6770  137.9230 O   0  0  0  0  0  0  0  0  0  0  0  0
  191.2040  176.6870  139.6720 C   0  0  0  0  0  3  0  0  0  0  0  0
  1 20  1  0  0  0  0
  2 17  1  0  0  0  0
  3 14  2  0  0  0  0
  4  9  2  0  0  0  0
  5 11  1  6  0  0  0
  5 18  1  0  0  0  0
  5  7  1  0  0  0  0
  6 16  1  0  0  0  0
  7  2  2  0  0  0  0
  7  4  1  0  0  0  0
  8 12  1  0  0  0  0
  9  6  1  0  0  0  0
 10 20  2  0  0  0  0
 10 14  1  0  0  0  0
 12  4  1  0  0  0  0
 13 10  1  0  0  0  0
 14 18  1  0  0  0  0
 15 13  1  0  0  0  0
 17  6  2  0  0  0  0
 18  8  1  1  0  0  0
 19 13  2  0  0  0  0
 19  1  1  0  0  0  0
 20 11  1  0  0  0  0
 21  1  1  0  0  0  0
 22 21  1  6  0  0  0
 22 24  1  0  0  0  0
 23 28  1  0  0  0  0
 25 22  1  0  0  0  0
 26 25  2  0  0  0  0
 26 23  1  0  0  0  0
 27 23  2  0  0  0  0
 28 24  2  0  0  0  0
M  END
>  <MODEL>
4

>  <REMARK>
 VINA RESULT:      -9.9      3.402      5.544
  Name = 
  2 active torsions:
  status: ('A' for Active; 'I' for Inactive)
    1  A    between atoms: N_1  and  C_2
    2  A    between atoms: C_2  and  C_3
                            x       y       z     vdW  Elec       q    Type
                         _______ _______ _______ _____ _____    ______ ____

>  <TORSDO>
F 2

$$$$
=
 OpenBabel11052413313D

 28 32  0  0  1  0  0  0  0  0999 V2000
  186.2470  178.7590  145.7660 N   0  0  0  0  0  0  0  0  0  0  0  0
  188.3970  177.7060  140.9660 C   0  0  0  0  0  3  0  0  0  0  0  0
  190.2040  176.6770  146.7600 O   0  0  0  0  0  0  0  0  0  0  0  0
  190.5920  176.9230  141.6560 C   0  0  0  0  0  0  0  0  0  0  0  0
  188.8180  177.3450  143.4270 C   0  0  2  0  0  3  0  0  0  0  0  0
  190.0910  177.2400  139.3030 C   0  0  0  0  0  0  0  0  0  0  0  0
  189.2930  177.3760  141.9930 C   0  0  0  0  0  0  0  0  0  0  0  0
  190.9640  176.2190  144.0490 C   0  0  0  0  0  2  0  0  0  0  0  0
  190.9850  176.8790  140.3150 C   0  0  0  0  0  3  0  0  0  0  0  0
  188.1800  177.7670  146.1570 C   0  0  0  0  0  0  0  0  0  0  0  0
  187.7960  178.4530  143.7570 C   0  0  0  0  0  2  0  0  0  0  0  0
  191.6070  176.5660  142.7080 C   0  0  0  0  0  2  0  0  0  0  0  0
  187.4530  177.8740  147.3270 C   0  0  0  0  0  0  0  0  0  0  0  0
  189.4920  177.1890  145.8540 C   0  0  0  0  0  0  0  0  0  0  0  0
  187.8630  177.4000  148.6760 C   0  0  0  0  0  1  0  0  0  0  0  0
  190.5940  177.1740  137.6290 Cl  0  0  0  0  0  0  0  0  0  0  0  0
  188.7970  177.6480  139.6280 C   0  0  0  0  0  3  0  0  0  0  0  0
  189.9950  177.3260  144.4350 C   0  0  2  0  0  3  0  0  0  0  0  0
  186.2750  178.4820  147.0650 N   0  0  0  0  0  0  0  0  0  0  0  0
  187.3840  178.3250  145.1930 C   0  0  0  0  0  0  0  0  0  0  0  0
  185.1150  179.3850  145.0910 C   0  0  0  0  0  2  0  0  0  0  0  0
  184.2240  178.3500  144.4020 C   0  0  2  0  0  3  0  0  0  0  0  0
  182.3720  178.8460  142.2450 C   0  0  0  0  0  0  0  0  0  0  0  0
  184.6040  178.1850  142.9460 C   0  0  0  0  0  3  0  0  0  0  0  0
  182.7600  178.6490  144.6350 C   0  0  0  0  0  3  0  0  0  0  0  0
  181.9110  178.8970  143.6370 C   0  0  0  0  0  3  0  0  0  0  0  0
  181.5840  179.1300  141.3060 O   0  0  0  0  0  0  0  0  0  0  0  0
  183.7490  178.4320  141.9520 C   0  0  0  0  0  3  0  0  0  0  0  0
  1 19  1  0  0  0  0
  2  7  1  0  0  0  0
  4  7  2  0  0  0  0
  4 12  1  0  0  0  0
  5 11  1  1  0  0  0
  5 18  1  0  0  0  0
  6 17  1  0  0  0  0
  6  9  2  0  0  0  0
  7  5  1  0  0  0  0
  9  4  1  0  0  0  0
 10 13  1  0  0  0  0
 11 20  1  0  0  0  0
 12  8  1  0  0  0  0
 13 15  1  0  0  0  0
 14 10  1  0  0  0  0
 14  3  2  0  0  0  0
 16  6  1  0  0  0  0
 17  2  2  0  0  0  0
 18  8  1  6  0  0  0
 18 14  1  0  0  0  0
 19 13  2  0  0  0  0
 20  1  1  0  0  0  0
 20 10  2  0  0  0  0
 21  1  1  0  0  0  0
 22 25  1  0  0  0  0
 22 21  1  6  0  0  0
 23 26  1  0  0  0  0
 24 22  1  0  0  0  0
 26 25  2  0  0  0  0
 27 23  2  0  0  0  0
 28 23  1  0  0  0  0
 28 24  2  0  0  0  0
M  END
>  <MODEL>
5

>  <REMARK>
 VINA RESULT:      -9.8      3.221      6.354
  Name = 
  2 active torsions:
  status: ('A' for Active; 'I' for Inactive)
    1  A    between atoms: N_1  and  C_2
    2  A    between atoms: C_2  and  C_3
                            x       y       z     vdW  Elec       q    Type
                         _______ _______ _______ _____ _____    ______ ____

>  <TORSDO>
F 2

$$$$
=
 OpenBabel11052413313D

 28 32  0  0  1  0  0  0  0  0999 V2000
  188.0450  178.5320  140.0930 N   0  0  0  0  0  0  0  0  0  0  0  0
  190.7010  176.8580  144.4430 C   0  0  0  0  0  3  0  0  0  0  0  0
  184.8250  178.3270  143.3440 O   0  0  0  0  0  0  0  0  0  0  0  0
  188.9600  177.1180  146.1190 C   0  0  0  0  0  0  0  0  0  0  0  0
  188.3700  177.4320  143.6660 C   0  0  2  0  0  3  0  0  0  0  0  0
  191.2140  176.5110  146.7820 C   0  0  0  0  0  0  0  0  0  0  0  0
  189.3760  177.1820  144.7670 C   0  0  0  0  0  0  0  0  0  0  0  0
  186.5570  177.3490  145.3890 C   0  0  0  0  0  2  0  0  0  0  0  0
  189.8890  176.8020  147.1160 C   0  0  0  0  0  3  0  0  0  0  0  0
  186.5610  178.4250  141.7240 C   0  0  0  0  0  0  0  0  0  0  0  0
  188.9650  178.1720  142.4500 C   0  0  0  0  0  2  0  0  0  0  0  0
  187.5570  177.4660  146.5360 C   0  0  0  0  0  2  0  0  0  0  0  0
  185.9270  178.6310  140.5130 C   0  0  0  0  0  0  0  0  0  0  0  0
  186.0580  178.2640  143.0910 C   0  0  0  0  0  0  0  0  0  0  0  0
  184.4620  178.7600  140.2860 C   0  0  0  0  0  1  0  0  0  0  0  0
  192.3640  176.1120  148.0380 Cl  0  0  0  0  0  0  0  0  0  0  0  0
  191.6180  176.5330  145.4460 C   0  0  0  0  0  3  0  0  0  0  0  0
  187.0860  178.1230  144.1900 C   0  0  2  0  0  3  0  0  0  0  0  0
  186.8530  178.6920  139.5310 N   0  0  0  0  0  0  0  0  0  0  0  0
  187.8930  178.3560  141.4190 C   0  0  0  0  0  0  0  0  0  0  0  0
  189.2990  178.4980  139.3490 C   0  0  0  0  0  2  0  0  0  0  0  0
  189.1380  177.7950  137.9990 C   0  0  2  0  0  3  0  0  0  0  0  0
  186.6600  177.3040  136.6050 C   0  0  0  0  0  0  0  0  0  0  0  0
  188.5900  178.7400  136.9530 C   0  0  0  0  0  3  0  0  0  0  0  0
  188.3610  176.5060  138.1450 C   0  0  0  0  0  3  0  0  0  0  0  0
  187.2060  176.2900  137.5140 C   0  0  0  0  0  3  0  0  0  0  0  0
  185.5450  177.1220  136.0500 O   0  0  0  0  0  0  0  0  0  0  0  0
  187.4350  178.5180  136.3230 C   0  0  0  0  0  3  0  0  0  0  0  0
  1 20  1  0  0  0  0
  2  7  2  0  0  0  0
  2 17  1  0  0  0  0
  4 12  1  0  0  0  0
  4  9  2  0  0  0  0
  5 11  1  6  0  0  0
  5 18  1  0  0  0  0
  5  7  1  0  0  0  0
  6  9  1  0  0  0  0
  6 16  1  0  0  0  0
  7  4  1  0  0  0  0
  8 12  1  0  0  0  0
 10 14  1  0  0  0  0
 13 10  1  0  0  0  0
 14  3  2  0  0  0  0
 14 18  1  0  0  0  0
 15 13  1  0  0  0  0
 17  6  2  0  0  0  0
 18  8  1  1  0  0  0
 19  1  1  0  0  0  0
 19 13  2  0  0  0  0
 20 10  2  0  0  0  0
 20 11  1  0  0  0  0
 21  1  1  0  0  0  0
 22 25  1  0  0  0  0
 22 21  1  1  0  0  0
 23 26  1  0  0  0  0
 24 22  1  0  0  0  0
 26 25  2  0  0  0  0
 27 23  2  0  0  0  0
 28 23  1  0  0  0  0
 28 24  2  0  0  0  0
M  END
>  <MODEL>
6

>  <REMARK>
 VINA RESULT:      -9.8      3.551      5.772
  Name = 
  2 active torsions:
  status: ('A' for Active; 'I' for Inactive)
    1  A    between atoms: N_1  and  C_2
    2  A    between atoms: C_2  and  C_3
                            x       y       z     vdW  Elec       q    Type
                         _______ _______ _______ _____ _____    ______ ____

>  <TORSDO>
F 2

$$$$
=
 OpenBabel11052413313D

 28 32  0  0  1  0  0  0  0  0999 V2000
  185.3330  178.5600  139.6990 N   0  0  0  0  0  0  0  0  0  0  0  0
  188.1590  177.3960  144.1090 C   0  0  0  0  0  3  0  0  0  0  0  0
  182.3470  179.1690  143.1190 O   0  0  0  0  0  0  0  0  0  0  0  0
  186.5670  178.0760  145.8140 C   0  0  0  0  0  0  0  0  0  0  0  0
  185.8290  178.0360  143.3820 C   0  0  2  0  0  3  0  0  0  0  0  0
  188.8090  177.3930  146.4380 C   0  0  0  0  0  0  0  0  0  0  0  0
  186.8880  177.8830  144.4490 C   0  0  0  0  0  0  0  0  0  0  0  0
  184.1420  178.3920  145.1960 C   0  0  0  0  0  2  0  0  0  0  0  0
  187.5370  177.8490  146.7950 C   0  0  0  0  0  3  0  0  0  0  0  0
  183.9650  178.8500  141.4080 C   0  0  0  0  0  0  0  0  0  0  0  0
  186.3890  178.5120  142.0260 C   0  0  0  0  0  2  0  0  0  0  0  0
  185.2270  178.6080  146.2470 C   0  0  0  0  0  2  0  0  0  0  0  0
  183.2640  178.9100  140.2180 C   0  0  0  0  0  0  0  0  0  0  0  0
  183.5510  178.9590  142.8090 C   0  0  0  0  0  0  0  0  0  0  0  0
  181.8010  179.1270  140.0570 C   0  0  0  0  0  1  0  0  0  0  0  0
  190.0120  177.1070  147.6760 Cl  0  0  0  0  0  0  0  0  0  0  0  0
  189.1180  177.1620  145.0970 C   0  0  0  0  0  3  0  0  0  0  0  0
  184.6410  178.9110  143.8550 C   0  0  2  0  0  3  0  0  0  0  0  0
  184.1200  178.7290  139.1880 N   0  0  0  0  0  0  0  0  0  0  0  0
  185.2630  178.6180  141.0420 C   0  0  0  0  0  0  0  0  0  0  0  0
  186.5250  178.2970  138.9000 C   0  0  0  0  0  2  0  0  0  0  0  0
  186.1760  178.0220  137.4360 C   0  0  2  0  0  3  0  0  0  0  0  0
  187.7010  176.4230  135.5790 C   0  0  0  0  0  0  0  0  0  0  0  0
  185.8990  176.5530  137.2060 C   0  0  0  0  0  3  0  0  0  0  0  0
  187.2130  178.6150  136.5090 C   0  0  0  0  0  3  0  0  0  0  0  0
  187.9300  177.8700  135.6650 C   0  0  0  0  0  3  0  0  0  0  0  0
  188.4120  175.7140  134.8220 O   0  0  0  0  0  0  0  0  0  0  0  0
  186.6180  175.8130  136.3600 C   0  0  0  0  0  3  0  0  0  0  0  0
  1 20  1  0  0  0  0
  2  7  2  0  0  0  0
  2 17  1  0  0  0  0
  4 12  1  0  0  0  0
  4  9  2  0  0  0  0
  5 11  1  6  0  0  0
  5 18  1  0  0  0  0
  5  7  1  0  0  0  0
  6  9  1  0  0  0  0
  6 16  1  0  0  0  0
  7  4  1  0  0  0  0
  8 12  1  0  0  0  0
 10 14  1  0  0  0  0
 13 10  1  0  0  0  0
 14  3  2  0  0  0  0
 14 18  1  0  0  0  0
 15 13  1  0  0  0  0
 17  6  2  0  0  0  0
 18  8  1  1  0  0  0
 19  1  1  0  0  0  0
 19 13  2  0  0  0  0
 20 10  2  0  0  0  0
 20 11  1  0  0  0  0
 21  1  1  0  0  0  0
 22 21  1  1  0  0  0
 23 26  1  0  0  0  0
 23 28  1  0  0  0  0
 24 22  1  0  0  0  0
 25 22  1  0  0  0  0
 26 25  2  0  0  0  0
 27 23  2  0  0  0  0
 28 24  2  0  0  0  0
M  END
>  <MODEL>
7

>  <REMARK>
 VINA RESULT:      -9.6      3.896      6.086
  Name = 
  2 active torsions:
  status: ('A' for Active; 'I' for Inactive)
    1  A    between atoms: N_1  and  C_2
    2  A    between atoms: C_2  and  C_3
                            x       y       z     vdW  Elec       q    Type
                         _______ _______ _______ _____ _____    ______ ____

>  <TORSDO>
F 2

$$$$
=
 OpenBabel11052413313D

 28 32  0  0  1  0  0  0  0  0999 V2000
  183.5010  178.1350  140.9560 N   0  0  0  0  0  0  0  0  0  0  0  0
  188.1570  176.8210  143.2750 C   0  0  0  0  0  3  0  0  0  0  0  0
  182.9470  179.3760  145.3300 O   0  0  0  0  0  0  0  0  0  0  0  0
  187.8300  177.8260  145.4630 C   0  0  0  0  0  0  0  0  0  0  0  0
  185.8810  177.7550  143.8330 C   0  0  2  0  0  3  0  0  0  0  0  0
  189.9730  176.8560  144.8720 C   0  0  0  0  0  0  0  0  0  0  0  0
  187.3320  177.5090  144.1760 C   0  0  0  0  0  0  0  0  0  0  0  0
  185.5040  178.4620  146.2040 C   0  0  0  0  0  2  0  0  0  0  0  0
  189.1530  177.5140  145.7910 C   0  0  0  0  0  3  0  0  0  0  0  0
  183.3260  178.7230  143.0770 C   0  0  0  0  0  0  0  0  0  0  0  0
  185.6490  178.0650  142.3390 C   0  0  0  0  0  2  0  0  0  0  0  0
  187.0030  178.5750  146.4730 C   0  0  0  0  0  2  0  0  0  0  0  0
  182.0970  178.8160  142.4520 C   0  0  0  0  0  0  0  0  0  0  0  0
  183.7590  178.9720  144.4550 C   0  0  0  0  0  0  0  0  0  0  0  0
  180.8120  179.2380  143.0720 C   0  0  0  0  0  1  0  0  0  0  0  0
  191.6250  176.4660  145.2980 Cl  0  0  0  0  0  0  0  0  0  0  0  0
  189.4740  176.5040  143.6170 C   0  0  0  0  0  3  0  0  0  0  0  0
  185.2340  178.8230  144.7510 C   0  0  2  0  0  3  0  0  0  0  0  0
  182.2270  178.4520  141.1570 N   0  0  0  0  0  0  0  0  0  0  0  0
  184.1840  178.2790  142.1070 C   0  0  0  0  0  0  0  0  0  0  0  0
  184.0300  177.6520  139.6850 C   0  0  0  0  0  2  0  0  0  0  0  0
  183.7890  178.6540  138.5540 C   0  0  2  0  0  3  0  0  0  0  0  0
  181.3950  180.2040  138.1150 C   0  0  0  0  0  0  0  0  0  0  0  0
  183.6160  180.0560  139.0940 C   0  0  0  0  0  3  0  0  0  0  0  0
  182.6730  178.1910  137.6450 C   0  0  0  0  0  3  0  0  0  0  0  0
  181.5590  178.9020  137.4590 C   0  0  0  0  0  3  0  0  0  0  0  0
  180.3230  180.8500  137.9810 O   0  0  0  0  0  0  0  0  0  0  0  0
  182.5000  180.7630  138.9030 C   0  0  0  0  0  3  0  0  0  0  0  0
  1 19  1  0  0  0  0
  1 20  1  0  0  0  0
  2 17  2  0  0  0  0
  2  7  1  0  0  0  0
  4  9  1  0  0  0  0
  4 12  1  0  0  0  0
  5 11  1  6  0  0  0
  5  7  1  0  0  0  0
  5 18  1  0  0  0  0
  6 16  1  0  0  0  0
  6  9  2  0  0  0  0
  7  4  2  0  0  0  0
  8 12  1  0  0  0  0
 10 14  1  0  0  0  0
 13 15  1  0  0  0  0
 13 10  1  0  0  0  0
 14 18  1  0  0  0  0
 14  3  2  0  0  0  0
 17  6  1  0  0  0  0
 18  8  1  1  0  0  0
 19 13  2  0  0  0  0
 20 11  1  0  0  0  0
 20 10  2  0  0  0  0
 21  1  1  0  0  0  0
 22 24  1  0  0  0  0
 22 21  1  1  0  0  0
 23 28  1  0  0  0  0
 25 22  1  0  0  0  0
 26 25  2  0  0  0  0
 26 23  1  0  0  0  0
 27 23  2  0  0  0  0
 28 24  2  0  0  0  0
M  END
>  <MODEL>
8

>  <REMARK>
 VINA RESULT:      -9.4      4.469      7.071
  Name = 
  2 active torsions:
  status: ('A' for Active; 'I' for Inactive)
    1  A    between atoms: N_1  and  C_2
    2  A    between atoms: C_2  and  C_3
                            x       y       z     vdW  Elec       q    Type
                         _______ _______ _______ _____ _____    ______ ____

>  <TORSDO>
F 2

$$$$
=
 OpenBabel11052413313D

 28 32  0  0  1  0  0  0  0  0999 V2000
  188.6540  178.4220  141.7030 N   0  0  0  0  0  0  0  0  0  0  0  0
  183.5640  178.6460  143.3830 C   0  0  0  0  0  3  0  0  0  0  0  0
  186.2010  177.9830  137.8600 O   0  0  0  0  0  0  0  0  0  0  0  0
  182.4220  178.7330  141.2390 C   0  0  0  0  0  0  0  0  0  0  0  0
  184.9260  178.2990  141.2880 C   0  0  2  0  0  3  0  0  0  0  0  0
  181.1720  179.0010  143.3010 C   0  0  0  0  0  0  0  0  0  0  0  0
  183.6220  178.6170  141.9820 C   0  0  0  0  0  0  0  0  0  0  0  0
  183.6560  178.0560  139.1450 C   0  0  0  0  0  2  0  0  0  0  0  0
  181.2110  178.9440  141.9060 C   0  0  0  0  0  3  0  0  0  0  0  0
  187.3960  178.2370  139.8980 C   0  0  0  0  0  0  0  0  0  0  0  0
  186.1590  178.8930  141.9990 C   0  0  0  0  0  2  0  0  0  0  0  0
  182.4150  178.7230  139.7340 C   0  0  0  0  0  2  0  0  0  0  0  0
  188.7160  177.9660  139.5910 C   0  0  0  0  0  0  0  0  0  0  0  0
  186.1710  178.2410  139.0930 C   0  0  0  0  0  0  0  0  0  0  0  0
  189.2610  177.5920  138.2580 C   0  0  0  0  0  1  0  0  0  0  0  0
  179.6490  179.2590  144.1230 Cl  0  0  0  0  0  0  0  0  0  0  0  0
  182.3470  178.8460  144.0390 C   0  0  0  0  0  3  0  0  0  0  0  0
  184.8950  178.6660  139.7830 C   0  0  2  0  0  3  0  0  0  0  0  0
  189.4660  178.0840  140.7090 N   0  0  0  0  0  0  0  0  0  0  0  0
  187.3930  178.5090  141.2390 C   0  0  0  0  0  0  0  0  0  0  0  0
  189.0880  178.6050  143.0840 C   0  0  0  0  0  2  0  0  0  0  0  0
  188.8140  177.3620  143.9330 C   0  0  2  0  0  3  0  0  0  0  0  0
  188.6760  177.2470  146.8130 C   0  0  0  0  0  0  0  0  0  0  0  0
  187.5130  177.4950  144.6930 C   0  0  0  0  0  3  0  0  0  0  0  0
  190.0080  177.0160  144.7940 C   0  0  0  0  0  3  0  0  0  0  0  0
  189.9460  176.9830  146.1260 C   0  0  0  0  0  3  0  0  0  0  0  0
  188.6290  177.2670  148.0710 O   0  0  0  0  0  0  0  0  0  0  0  0
  187.4560  177.4590  146.0260 C   0  0  0  0  0  3  0  0  0  0  0  0
  1 21  1  0  0  0  0
  2 17  1  0  0  0  0
  3 14  2  0  0  0  0
  4  9  2  0  0  0  0
  4  7  1  0  0  0  0
  5  7  1  0  0  0  0
  5 11  1  1  0  0  0
  6 17  2  0  0  0  0
  6 16  1  0  0  0  0
  7  2  2  0  0  0  0
  8 12  1  0  0  0  0
  9  6  1  0  0  0  0
 10 20  2  0  0  0  0
 12  4  1  0  0  0  0
 13 10  1  0  0  0  0
 13 19  2  0  0  0  0
 14 18  1  0  0  0  0
 14 10  1  0  0  0  0
 15 13  1  0  0  0  0
 18  8  1  6  0  0  0
 18  5  1  0  0  0  0
 19  1  1  0  0  0  0
 20  1  1  0  0  0  0
 20 11  1  0  0  0  0
 22 21  1  1  0  0  0
 22 24  1  0  0  0  0
 22 25  1  0  0  0  0
 23 27  2  0  0  0  0
 24 28  2  0  0  0  0
 25 26  2  0  0  0  0
 26 23  1  0  0  0  0
 28 23  1  0  0  0  0
M  END
>  <MODEL>
9

>  <REMARK>
 VINA RESULT:      -9.4      2.029      5.935
  Name = 
  2 active torsions:
  status: ('A' for Active; 'I' for Inactive)
    1  A    between atoms: N_1  and  C_2
    2  A    between atoms: C_2  and  C_3
                            x       y       z     vdW  Elec       q    Type
                         _______ _______ _______ _____ _____    ______ ____

>  <TORSDO>
F 2

$$$$
