=
 OpenBabel11052415123D

 55 61  0  0  1  0  0  0  0  0999 V2000
  188.1700  178.2180  141.7730 C   0  0  1  0  0  3  0  0  0  0  0  0
  190.3150  178.7210  142.8030 O   0  0  0  0  0  0  0  0  0  0  0  0
  189.0140  176.9970  143.8110 C   0  0  1  0  0  3  0  0  0  0  0  0
  191.0780  178.1720  143.8420 C   0  0  0  0  0  2  0  0  0  0  0  0
  188.9920  178.3150  143.0610 C   0  0  2  0  0  3  0  0  0  0  0  0
  190.4400  176.8690  144.2690 C   0  0  0  0  0  2  0  0  0  0  0  0
  188.0710  177.0730  144.9990 C   0  0  0  0  0  2  0  0  0  0  0  0
  188.6850  177.9180  146.1050 C   0  0  0  0  0  2  0  0  0  0  0  0
  188.7000  177.1500  147.4140 C   0  0  0  0  0  2  0  0  0  0  0  0
  188.3910  178.0770  148.5780 C   0  0  0  0  0  1  0  0  0  0  0  0
  188.8180  177.2230  140.8250 C   0  0  0  0  0  2  0  0  0  0  0  0
  186.0990  177.7560  137.2120 C   0  0  0  0  0  2  0  0  0  0  0  0
  186.2120  177.1180  135.8380 C   0  0  0  0  0  2  0  0  0  0  0  0
  188.2310  176.5750  137.0150 C   0  0  2  0  0  3  0  0  0  0  0  0
  187.6880  176.8700  135.6220 C   0  0  2  0  0  3  0  0  0  0  0  0
  188.2650  178.0230  135.0860 O   0  0  0  0  0  1  0  0  0  0  0  0
  187.2740  177.2330  138.0170 C   0  0  1  0  0  3  0  0  0  0  0  0
  190.0860  176.9490  138.6820 C   0  0  2  0  0  3  0  0  0  0  0  0
  189.7020  176.9690  137.1970 C   0  0  0  0  0  2  0  0  0  0  0  0
  187.9340  178.3790  138.7820 C   0  0  0  0  0  2  0  0  0  0  0  0
  189.1950  177.9000  139.5160 C   0  0  1  0  0  3  0  0  0  0  0  0
  192.0090  177.1720  140.3340 C   0  0  0  0  0  1  0  0  0  0  0  0
  191.5820  177.2650  138.8630 C   0  0  1  0  0  3  0  0  0  0  0  0
  192.4490  176.4470  137.8770 C   0  0  2  0  0  3  0  0  0  0  0  0
  192.1840  174.9530  137.9570 C   0  0  0  0  0  2  0  0  0  0  0  0
  193.4510  175.5330  138.5650 C   0  0  1  0  0  3  0  0  0  0  0  0
  195.6460  174.4220  138.0180 C   0  0  0  0  0  0  0  0  0  0  0  0
  196.7150  174.2170  137.1020 N   0  0  0  0  0  1  0  0  0  0  0  0
  194.5730  175.2960  137.6690 N   0  0  0  0  0  2  0  0  0  0  0  0
  195.6540  173.8330  139.1300 O   0  0  0  0  0  0  0  0  0  0  0  0
  186.7160  177.8290  142.0390 C   0  0  0  0  0  2  0  0  0  0  0  0
  185.7950  179.0080  141.7760 C   0  0  1  0  0  3  0  0  0  0  0  0
  184.9310  178.7500  140.5510 C   0  0  0  0  0  2  0  0  0  0  0  0
  184.7700  179.9250  139.8180 O   0  0  0  0  0  1  0  0  0  0  0  0
  184.9170  179.2390  142.9880 C   0  0  0  0  0  2  0  0  0  0  0  0
  183.6560  178.4130  142.8540 C   0  0  0  0  0  2  0  0  0  0  0  0
  182.5220  179.0620  143.6340 C   0  0  0  0  0  2  0  0  0  0  0  0
  180.5550  178.7350  140.7800 C   0  0  1  0  0  0  0  0  0  0  0  0
  180.5930  180.2260  142.6000 C   0  0  0  0  0  2  0  0  0  0  0  0
  180.2140  178.1370  143.8700 C   0  0  0  0  0  1  0  0  0  0  0  0
  181.1770  178.8640  142.9450 C   0  0  2  0  0  0  0  0  0  0  0  0
  178.9370  180.5510  140.7040 F   0  0  0  0  0  0  0  0  0  0  0  0
  180.1490  180.0800  141.1780 C   0  0  2  0  0  0  0  0  0  0  0  0
  181.1680  179.8810  140.2240 O   0  0  0  0  0  0  0  0  0  0  0  0
  181.3530  178.1170  141.7570 O   0  0  0  0  0  0  0  0  0  0  0  0
  179.7180  178.4550  138.4950 O   0  0  0  0  0  1  0  0  0  0  0  0
  179.8390  177.8420  139.7460 C   0  0  1  0  0  3  0  0  0  0  0  0
  180.4360  176.4320  139.5990 C   0  0  1  0  0  3  0  0  0  0  0  0
  179.7890  175.4390  140.5500 C   0  0  0  0  0  1  0  0  0  0  0  0
  179.9560  173.8080  137.1240 O   0  0  0  0  0  1  0  0  0  0  0  0
  180.6740  174.4190  138.1510 C   0  0  1  0  0  3  0  0  0  0  0  0
  181.6680  175.3950  137.5530 C   0  0  1  0  0  3  0  0  0  0  0  0
  180.3550  175.9020  138.1640 C   0  0  2  0  0  3  0  0  0  0  0  0
  182.8860  175.5020  138.4620 C   0  0  0  0  0  2  0  0  0  0  0  0
  184.0400  174.7390  137.8420 C   0  0  0  0  0  1  0  0  0  0  0  0
  1 11  1  6  0  0  0
  1 31  1  0  0  0  0
  2  5  1  0  0  0  0
  2  4  1  0  0  0  0
  3  6  1  0  0  0  0
  3  7  1  1  0  0  0
  4  6  1  0  0  0  0
  5  1  1  6  0  0  0
  5  3  1  0  0  0  0
  7  8  1  0  0  0  0
  8  9  1  0  0  0  0
  9 10  1  0  0  0  0
 13 12  1  0  0  0  0
 14 19  1  6  0  0  0
 14 17  1  0  0  0  0
 15 16  1  1  0  0  0
 15 13  1  0  0  0  0
 15 14  1  0  0  0  0
 17 12  1  6  0  0  0
 17 20  1  0  0  0  0
 18 23  1  6  0  0  0
 18 21  1  0  0  0  0
 19 18  1  0  0  0  0
 20 21  1  0  0  0  0
 21 11  1  1  0  0  0
 23 22  1  1  0  0  0
 24 25  1  0  0  0  0
 24 26  1  0  0  0  0
 24 23  1  1  0  0  0
 25 26  1  0  0  0  0
 26 29  1  6  0  0  0
 27 30  2  0  0  0  0
 28 27  1  0  0  0  0
 29 27  1  0  0  0  0
 32 33  1  6  0  0  0
 32 31  1  0  0  0  0
 32 35  1  0  0  0  0
 34 33  1  0  0  0  0
 36 35  1  0  0  0  0
 36 37  1  0  0  0  0
 38 47  1  6  0  0  0
 38 43  1  0  0  0  0
 38 45  1  0  0  0  0
 39 41  1  0  0  0  0
 41 37  1  0  0  0  0
 41 40  1  1  0  0  0
 43 42  1  6  0  0  0
 43 39  1  0  0  0  0
 44 38  1  0  0  0  0
 44 43  1  0  0  0  0
 45 41  1  0  0  0  0
 47 46  1  6  0  0  0
 48 47  1  0  0  0  0
 48 49  1  1  0  0  0
 51 50  1  6  0  0  0
 51 53  1  0  0  0  0
 52 51  1  0  0  0  0
 52 53  1  0  0  0  0
 52 54  1  1  0  0  0
 53 48  1  1  0  0  0
 55 54  1  0  0  0  0
M  END
>  <MODEL>
1

>  <REMARK>
 VINA RESULT:      -7.5      0.000      0.000
  Name = 
  20 active torsions:
  status: ('A' for Active; 'I' for Inactive)
    1  A    between atoms: C_1  and  C_38
    2  A    between atoms: C_2  and  C_19
    3  A    between atoms: C_2  and  C_28
    4  A    between atoms: C_2  and  C_44
    5  A    between atoms: C_4  and  C_40
    6  A    between atoms: C_5  and  C_40
    7  A    between atoms: C_5  and  C_46
    8  A    between atoms: C_6  and  C_14
    9  A    between atoms: C_6  and  C_46
   10  A    between atoms: C_8  and  C_22
   11  A    between atoms: C_13  and  C_52
   12  A    between atoms: C_19  and  C_40
   13  A    between atoms: C_21  and  C_38
   14  A    between atoms: C_21  and  C_42
   15  A    between atoms: C_27  and  C_31
   16  A    between atoms: C_28  and  C_49
   17  A    between atoms: C_31  and  C_51
   18  A    between atoms: N_32  and  C_48
   19  A    between atoms: C_33  and  C_52
   20  A    between atoms: C_35  and  C_51
                            x       y       z     vdW  Elec       q    Type
                         _______ _______ _______ _____ _____    ______ ____

>  <TORSDO>
F 20

$$$$
=
 OpenBabel11052415123D

 55 61  0  0  1  0  0  0  0  0999 V2000
  185.2110  177.9410  136.8210 C   0  0  1  0  0  3  0  0  0  0  0  0
  183.4570  177.5280  135.1880 O   0  0  0  0  0  0  0  0  0  0  0  0
  184.3400  175.6280  136.3240 C   0  0  1  0  0  3  0  0  0  0  0  0
  182.7170  176.4100  134.7760 C   0  0  0  0  0  2  0  0  0  0  0  0
  184.6330  177.0030  135.7570 C   0  0  2  0  0  3  0  0  0  0  0  0
  183.0120  175.2650  135.7190 C   0  0  0  0  0  2  0  0  0  0  0  0
  185.4170  174.6550  135.8780 C   0  0  0  0  0  2  0  0  0  0  0  0
  185.7070  173.6480  136.9810 C   0  0  0  0  0  2  0  0  0  0  0  0
  185.2860  172.2540  136.5500 C   0  0  0  0  0  2  0  0  0  0  0  0
  183.8960  171.9330  137.0750 C   0  0  0  0  0  1  0  0  0  0  0  0
  184.9390  177.3750  138.2050 C   0  0  0  0  0  2  0  0  0  0  0  0
  185.4790  179.6260  142.1260 C   0  0  0  0  0  2  0  0  0  0  0  0
  184.8420  179.3450  143.4760 C   0  0  0  0  0  2  0  0  0  0  0  0
  183.7540  177.9100  141.8910 C   0  0  2  0  0  3  0  0  0  0  0  0
  183.5090  178.6970  143.1730 C   0  0  2  0  0  3  0  0  0  0  0  0
  182.5550  179.6990  142.9800 O   0  0  0  0  0  1  0  0  0  0  0  0
  184.9380  178.5730  141.1780 C   0  0  1  0  0  3  0  0  0  0  0  0
  182.8770  177.2460  139.6220 C   0  0  2  0  0  3  0  0  0  0  0  0
  182.5010  177.7530  141.0190 C   0  0  0  0  0  2  0  0  0  0  0  0
  184.5310  179.2200  139.8560 C   0  0  0  0  0  2  0  0  0  0  0  0
  183.8750  178.1960  138.9170 C   0  0  1  0  0  3  0  0  0  0  0  0
  181.1360  175.5550  138.8550 C   0  0  0  0  0  1  0  0  0  0  0  0
  181.6170  177.0100  138.7690 C   0  0  1  0  0  3  0  0  0  0  0  0
  180.5350  178.0760  139.0640 C   0  0  2  0  0  3  0  0  0  0  0  0
  179.5510  178.2510  137.9210 C   0  0  0  0  0  2  0  0  0  0  0  0
  180.6260  179.2980  138.1660 C   0  0  1  0  0  3  0  0  0  0  0  0
  179.7950  181.6770  138.1880 C   0  0  0  0  0  0  0  0  0  0  0  0
  179.2150  182.7610  138.9040 N   0  0  0  0  0  1  0  0  0  0  0  0
  180.0430  180.4400  138.8540 N   0  0  0  0  0  2  0  0  0  0  0  0
  180.0870  181.8170  136.9710 O   0  0  0  0  0  0  0  0  0  0  0  0
  186.7080  178.1830  136.6300 C   0  0  0  0  0  2  0  0  0  0  0  0
  187.5130  177.2850  137.5520 C   0  0  1  0  0  3  0  0  0  0  0  0
  188.5690  176.5210  136.7680 C   0  0  0  0  0  2  0  0  0  0  0  0
  189.6200  177.3700  136.4220 O   0  0  0  0  0  1  0  0  0  0  0  0
  188.1730  178.1280  138.6230 C   0  0  0  0  0  2  0  0  0  0  0  0
  188.2950  177.3130  139.8940 C   0  0  0  0  0  2  0  0  0  0  0  0
  188.7790  178.1960  141.0340 C   0  0  0  0  0  2  0  0  0  0  0  0
  190.8420  177.3550  143.7110 C   0  0  1  0  0  0  0  0  0  0  0  0
  189.9340  176.1740  141.8880 C   0  0  0  0  0  2  0  0  0  0  0  0
  187.8080  176.8920  142.9320 C   0  0  0  0  0  1  0  0  0  0  0  0
  189.0940  177.3800  142.2840 C   0  0  2  0  0  0  0  0  0  0  0  0
  191.5010  175.0210  143.5180 F   0  0  0  0  0  0  0  0  0  0  0  0
  191.0490  176.1660  142.8880 C   0  0  2  0  0  0  0  0  0  0  0  0
  191.9440  177.2530  142.8310 O   0  0  0  0  0  0  0  0  0  0  0  0
  189.8200  178.1740  143.2020 O   0  0  0  0  0  0  0  0  0  0  0  0
  191.5890  178.8180  145.5270 O   0  0  0  0  0  1  0  0  0  0  0  0
  191.2340  177.5070  145.1940 C   0  0  1  0  0  3  0  0  0  0  0  0
  190.1920  176.9640  146.1880 C   0  0  1  0  0  3  0  0  0  0  0  0
  190.7590  175.8480  147.0510 C   0  0  0  0  0  1  0  0  0  0  0  0
  188.5130  178.1570  149.1870 O   0  0  0  0  0  1  0  0  0  0  0  0
  188.5350  177.4570  147.9810 C   0  0  1  0  0  3  0  0  0  0  0  0
  188.1150  178.3830  146.8570 C   0  0  1  0  0  3  0  0  0  0  0  0
  189.5980  178.0570  147.0800 C   0  0  2  0  0  3  0  0  0  0  0  0
  187.4350  177.5760  145.7600 C   0  0  0  0  0  2  0  0  0  0  0  0
  185.9550  177.4640  146.0670 C   0  0  0  0  0  1  0  0  0  0  0  0
  1 31  1  6  0  0  0
  1 11  1  0  0  0  0
  2  5  1  0  0  0  0
  3  7  1  6  0  0  0
  4  2  1  0  0  0  0
  4  6  1  0  0  0  0
  5  3  1  0  0  0  0
  5  1  1  1  0  0  0
  6  3  1  0  0  0  0
  7  8  1  0  0  0  0
  9  8  1  0  0  0  0
  9 10  1  0  0  0  0
 12 13  1  0  0  0  0
 14 19  1  6  0  0  0
 14 15  1  0  0  0  0
 15 16  1  6  0  0  0
 15 13  1  0  0  0  0
 17 20  1  6  0  0  0
 17 14  1  0  0  0  0
 17 12  1  0  0  0  0
 18 23  1  6  0  0  0
 18 19  1  0  0  0  0
 21 11  1  1  0  0  0
 21 18  1  0  0  0  0
 21 20  1  0  0  0  0
 23 22  1  1  0  0  0
 24 23  1  6  0  0  0
 25 26  1  0  0  0  0
 25 24  1  0  0  0  0
 26 29  1  1  0  0  0
 26 24  1  0  0  0  0
 27 29  1  0  0  0  0
 27 28  1  0  0  0  0
 30 27  2  0  0  0  0
 32 31  1  6  0  0  0
 32 35  1  0  0  0  0
 33 32  1  0  0  0  0
 34 33  1  0  0  0  0
 35 36  1  0  0  0  0
 36 37  1  0  0  0  0
 37 41  1  0  0  0  0
 38 47  1  1  0  0  0
 39 41  1  0  0  0  0
 39 43  1  0  0  0  0
 41 40  1  1  0  0  0
 41 45  1  0  0  0  0
 43 42  1  1  0  0  0
 43 38  1  0  0  0  0
 44 43  1  0  0  0  0
 44 38  1  0  0  0  0
 45 38  1  0  0  0  0
 47 46  1  1  0  0  0
 47 48  1  0  0  0  0
 48 49  1  1  0  0  0
 51 50  1  1  0  0  0
 52 54  1  6  0  0  0
 52 53  1  0  0  0  0
 52 51  1  0  0  0  0
 53 48  1  6  0  0  0
 53 51  1  0  0  0  0
 54 55  1  0  0  0  0
M  END
>  <MODEL>
2

>  <REMARK>
 VINA RESULT:      -7.3      4.444     10.651
  Name = 
  20 active torsions:
  status: ('A' for Active; 'I' for Inactive)
    1  A    between atoms: C_1  and  C_38
    2  A    between atoms: C_2  and  C_19
    3  A    between atoms: C_2  and  C_28
    4  A    between atoms: C_2  and  C_44
    5  A    between atoms: C_4  and  C_40
    6  A    between atoms: C_5  and  C_40
    7  A    between atoms: C_5  and  C_46
    8  A    between atoms: C_6  and  C_14
    9  A    between atoms: C_6  and  C_46
   10  A    between atoms: C_8  and  C_22
   11  A    between atoms: C_13  and  C_52
   12  A    between atoms: C_19  and  C_40
   13  A    between atoms: C_21  and  C_38
   14  A    between atoms: C_21  and  C_42
   15  A    between atoms: C_27  and  C_31
   16  A    between atoms: C_28  and  C_49
   17  A    between atoms: C_31  and  C_51
   18  A    between atoms: N_32  and  C_48
   19  A    between atoms: C_33  and  C_52
   20  A    between atoms: C_35  and  C_51
                            x       y       z     vdW  Elec       q    Type
                         _______ _______ _______ _____ _____    ______ ____

>  <TORSDO>
F 20

$$$$
=
 OpenBabel11052415123D

 55 61  0  0  1  0  0  0  0  0999 V2000
  182.7600  177.3300  139.2810 C   0  0  1  0  0  3  0  0  0  0  0  0
  180.5690  177.5780  140.3060 O   0  0  0  0  0  0  0  0  0  0  0  0
  180.7100  177.9690  137.9600 C   0  0  1  0  0  3  0  0  0  0  0  0
  179.2680  177.8170  139.8410 C   0  0  0  0  0  2  0  0  0  0  0  0
  181.4180  178.0680  139.2960 C   0  0  2  0  0  3  0  0  0  0  0  0
  179.2740  177.7240  138.3310 C   0  0  0  0  0  2  0  0  0  0  0  0
  180.8550  179.2820  137.2100 C   0  0  0  0  0  2  0  0  0  0  0  0
  181.0850  180.4250  138.1880 C   0  0  0  0  0  2  0  0  0  0  0  0
  180.8970  181.7620  137.4950 C   0  0  0  0  0  2  0  0  0  0  0  0
  180.6450  181.5600  136.0090 C   0  0  0  0  0  1  0  0  0  0  0  0
  183.7090  178.0110  138.3090 C   0  0  0  0  0  2  0  0  0  0  0  0
  188.2280  178.2780  137.8230 C   0  0  0  0  0  2  0  0  0  0  0  0
  189.0360  178.4570  136.5490 C   0  0  0  0  0  2  0  0  0  0  0  0
  186.7660  178.0700  135.8750 C   0  0  2  0  0  3  0  0  0  0  0  0
  188.2100  177.8300  135.4490 C   0  0  2  0  0  3  0  0  0  0  0  0
  188.5010  176.4650  135.3890 O   0  0  0  0  0  1  0  0  0  0  0  0
  186.7720  178.2460  137.3980 C   0  0  1  0  0  3  0  0  0  0  0  0
  184.4410  177.1180  136.0860 C   0  0  2  0  0  3  0  0  0  0  0  0
  185.7910  177.0000  135.3680 C   0  0  0  0  0  2  0  0  0  0  0  0
  186.0430  177.1120  138.1150 C   0  0  0  0  0  2  0  0  0  0  0  0
  184.5950  176.9850  137.6200 C   0  0  1  0  0  3  0  0  0  0  0  0
  182.4080  176.7650  134.5950 C   0  0  0  0  0  1  0  0  0  0  0  0
  183.4330  176.0990  135.5240 C   0  0  1  0  0  3  0  0  0  0  0  0
  184.1560  174.8700  134.9250 C   0  0  2  0  0  3  0  0  0  0  0  0
  183.2450  173.6630  134.7770 C   0  0  0  0  0  2  0  0  0  0  0  0
  184.2750  173.7040  135.8940 C   0  0  1  0  0  3  0  0  0  0  0  0
  186.3710  172.4410  136.4930 C   0  0  0  0  0  0  0  0  0  0  0  0
  187.4740  171.6420  136.0820 N   0  0  0  0  0  1  0  0  0  0  0  0
  185.4250  172.8930  135.5260 N   0  0  0  0  0  2  0  0  0  0  0  0
  186.2380  172.7450  137.7080 O   0  0  0  0  0  0  0  0  0  0  0  0
  183.3920  177.2430  140.6690 C   0  0  0  0  0  2  0  0  0  0  0  0
  183.4820  178.6230  141.2980 C   0  0  1  0  0  3  0  0  0  0  0  0
  183.1800  178.5550  142.7860 C   0  0  0  0  0  2  0  0  0  0  0  0
  182.1570  179.4460  143.1120 O   0  0  0  0  0  1  0  0  0  0  0  0
  184.8710  179.1840  141.0780 C   0  0  0  0  0  2  0  0  0  0  0  0
  185.8110  178.6100  142.1170 C   0  0  0  0  0  2  0  0  0  0  0  0
  187.2540  178.8790  141.7200 C   0  0  0  0  0  2  0  0  0  0  0  0
  190.4470  177.7930  142.5890 C   0  0  1  0  0  0  0  0  0  0  0  0
  188.7280  176.9480  141.2210 C   0  0  0  0  0  2  0  0  0  0  0  0
  187.4780  177.0040  143.3560 C   0  0  0  0  0  1  0  0  0  0  0  0
  188.2060  177.8540  142.3270 C   0  0  2  0  0  0  0  0  0  0  0  0
  190.9460  175.7290  141.4000 F   0  0  0  0  0  0  0  0  0  0  0  0
  190.2040  176.8940  141.4630 C   0  0  2  0  0  0  0  0  0  0  0  0
  190.9080  178.1030  141.2900 O   0  0  0  0  0  0  0  0  0  0  0  0
  189.2950  178.5160  142.9410 O   0  0  0  0  0  0  0  0  0  0  0  0
  191.9530  178.8720  144.1910 O   0  0  0  0  0  1  0  0  0  0  0  0
  191.5690  177.6470  143.6360 C   0  0  1  0  0  3  0  0  0  0  0  0
  191.2770  176.6230  144.7460 C   0  0  1  0  0  3  0  0  0  0  0  0
  191.8780  175.2610  144.4350 C   0  0  0  0  0  1  0  0  0  0  0  0
  192.6530  176.0830  148.0710 O   0  0  0  0  0  1  0  0  0  0  0  0
  191.6470  175.9480  147.1150 C   0  0  1  0  0  3  0  0  0  0  0  0
  190.6860  177.1150  147.2330 C   0  0  1  0  0  3  0  0  0  0  0  0
  191.7470  177.0930  146.1260 C   0  0  2  0  0  3  0  0  0  0  0  0
  189.2930  176.6730  146.8020 C   0  0  0  0  0  2  0  0  0  0  0  0
  188.2920  177.7510  147.1680 C   0  0  0  0  0  1  0  0  0  0  0  0
  1 11  1  6  0  0  0
  1 31  1  0  0  0  0
  3  7  1  1  0  0  0
  3  6  1  0  0  0  0
  3  5  1  0  0  0  0
  4  2  1  0  0  0  0
  5  1  1  6  0  0  0
  5  2  1  0  0  0  0
  6  4  1  0  0  0  0
  7  8  1  0  0  0  0
  9  8  1  0  0  0  0
 10  9  1  0  0  0  0
 13 12  1  0  0  0  0
 14 19  1  1  0  0  0
 14 17  1  0  0  0  0
 15 16  1  1  0  0  0
 15 14  1  0  0  0  0
 15 13  1  0  0  0  0
 17 12  1  1  0  0  0
 17 20  1  0  0  0  0
 18 23  1  6  0  0  0
 18 21  1  0  0  0  0
 19 18  1  0  0  0  0
 21 20  1  0  0  0  0
 21 11  1  1  0  0  0
 23 22  1  6  0  0  0
 24 23  1  1  0  0  0
 24 26  1  0  0  0  0
 25 24  1  0  0  0  0
 25 26  1  0  0  0  0
 26 29  1  6  0  0  0
 27 30  2  0  0  0  0
 28 27  1  0  0  0  0
 29 27  1  0  0  0  0
 32 31  1  1  0  0  0
 32 33  1  0  0  0  0
 33 34  1  0  0  0  0
 35 32  1  0  0  0  0
 35 36  1  0  0  0  0
 37 36  1  0  0  0  0
 37 41  1  0  0  0  0
 38 45  1  0  0  0  0
 38 47  1  1  0  0  0
 39 43  1  0  0  0  0
 39 41  1  0  0  0  0
 41 45  1  0  0  0  0
 41 40  1  1  0  0  0
 43 42  1  6  0  0  0
 43 38  1  0  0  0  0
 44 43  1  0  0  0  0
 44 38  1  0  0  0  0
 47 46  1  1  0  0  0
 47 48  1  0  0  0  0
 48 49  1  6  0  0  0
 51 52  1  0  0  0  0
 51 50  1  1  0  0  0
 52 54  1  6  0  0  0
 53 48  1  6  0  0  0
 53 51  1  0  0  0  0
 53 52  1  0  0  0  0
 54 55  1  0  0  0  0
M  END
>  <MODEL>
3

>  <REMARK>
 VINA RESULT:      -7.2      3.493      9.355
  Name = 
  20 active torsions:
  status: ('A' for Active; 'I' for Inactive)
    1  A    between atoms: C_1  and  C_38
    2  A    between atoms: C_2  and  C_19
    3  A    between atoms: C_2  and  C_28
    4  A    between atoms: C_2  and  C_44
    5  A    between atoms: C_4  and  C_40
    6  A    between atoms: C_5  and  C_40
    7  A    between atoms: C_5  and  C_46
    8  A    between atoms: C_6  and  C_14
    9  A    between atoms: C_6  and  C_46
   10  A    between atoms: C_8  and  C_22
   11  A    between atoms: C_13  and  C_52
   12  A    between atoms: C_19  and  C_40
   13  A    between atoms: C_21  and  C_38
   14  A    between atoms: C_21  and  C_42
   15  A    between atoms: C_27  and  C_31
   16  A    between atoms: C_28  and  C_49
   17  A    between atoms: C_31  and  C_51
   18  A    between atoms: N_32  and  C_48
   19  A    between atoms: C_33  and  C_52
   20  A    between atoms: C_35  and  C_51
                            x       y       z     vdW  Elec       q    Type
                         _______ _______ _______ _____ _____    ______ ____

>  <TORSDO>
F 20

$$$$
=
 OpenBabel11052415123D

 55 61  0  0  1  0  0  0  0  0999 V2000
  182.7580  177.7880  139.8950 C   0  0  1  0  0  3  0  0  0  0  0  0
  180.4210  177.9300  140.5510 O   0  0  0  0  0  0  0  0  0  0  0  0
  181.1310  179.3580  138.7800 C   0  0  1  0  0  3  0  0  0  0  0  0
  179.2880  178.6060  140.0760 C   0  0  0  0  0  2  0  0  0  0  0  0
  181.5200  178.6700  140.0740 C   0  0  2  0  0  3  0  0  0  0  0  0
  179.6330  179.2450  138.7490 C   0  0  0  0  0  2  0  0  0  0  0  0
  181.5600  180.8140  138.8310 C   0  0  0  0  0  2  0  0  0  0  0  0
  180.4670  181.7050  138.2590 C   0  0  0  0  0  2  0  0  0  0  0  0
  180.8150  182.1280  136.8430 C   0  0  0  0  0  2  0  0  0  0  0  0
  179.5500  182.3860  136.0400 C   0  0  0  0  0  1  0  0  0  0  0  0
  183.6500  178.3700  138.8120 C   0  0  0  0  0  2  0  0  0  0  0  0
  188.1730  178.2070  138.3160 C   0  0  0  0  0  2  0  0  0  0  0  0
  188.9930  178.3160  137.0420 C   0  0  0  0  0  2  0  0  0  0  0  0
  186.6950  178.1520  136.3700 C   0  0  2  0  0  3  0  0  0  0  0  0
  188.1080  177.7770  135.9390 C   0  0  2  0  0  3  0  0  0  0  0  0
  188.2670  176.3910  135.8710 O   0  0  0  0  0  1  0  0  0  0  0  0
  186.7210  178.3170  137.8950 C   0  0  1  0  0  3  0  0  0  0  0  0
  184.2900  177.4250  136.5820 C   0  0  2  0  0  3  0  0  0  0  0  0
  185.6210  177.1830  135.8600 C   0  0  0  0  0  2  0  0  0  0  0  0
  185.8880  177.2540  138.6070 C   0  0  0  0  0  2  0  0  0  0  0  0
  184.4330  177.2680  138.1150 C   0  0  1  0  0  3  0  0  0  0  0  0
  183.5140  176.0370  134.5940 C   0  0  0  0  0  1  0  0  0  0  0  0
  183.1880  176.5100  136.0170 C   0  0  1  0  0  3  0  0  0  0  0  0
  182.8320  175.3820  137.0150 C   0  0  2  0  0  3  0  0  0  0  0  0
  182.0920  174.2280  136.3620 C   0  0  0  0  0  2  0  0  0  0  0  0
  181.3370  175.2170  137.2360 C   0  0  1  0  0  3  0  0  0  0  0  0
  179.8710  174.7810  139.2390 C   0  0  0  0  0  0  0  0  0  0  0  0
  179.6990  174.1810  140.5170 N   0  0  0  0  0  1  0  0  0  0  0  0
  181.1110  174.6310  138.5480 N   0  0  0  0  0  2  0  0  0  0  0  0
  178.9310  175.4420  138.7260 O   0  0  0  0  0  0  0  0  0  0  0  0
  183.5430  177.6170  141.1950 C   0  0  0  0  0  2  0  0  0  0  0  0
  183.5260  178.9060  141.9980 C   0  0  1  0  0  3  0  0  0  0  0  0
  183.0380  178.6480  143.4150 C   0  0  0  0  0  2  0  0  0  0  0  0
  183.6650  179.5170  144.3070 O   0  0  0  0  0  1  0  0  0  0  0  0
  184.9210  179.4940  142.0320 C   0  0  0  0  0  2  0  0  0  0  0  0
  185.9350  178.3700  142.0440 C   0  0  0  0  0  2  0  0  0  0  0  0
  186.6590  178.3360  143.3810 C   0  0  0  0  0  2  0  0  0  0  0  0
  190.0910  177.7600  143.2440 C   0  0  1  0  0  0  0  0  0  0  0  0
  188.2580  177.1570  141.8960 C   0  0  0  0  0  2  0  0  0  0  0  0
  187.5190  176.0710  143.9940 C   0  0  0  0  0  1  0  0  0  0  0  0
  187.8650  177.4030  143.3460 C   0  0  2  0  0  0  0  0  0  0  0  0
  190.6180  176.5130  141.2220 F   0  0  0  0  0  0  0  0  0  0  0  0
  189.7420  177.3530  141.8850 C   0  0  2  0  0  0  0  0  0  0  0  0
  190.2000  178.6580  142.1580 O   0  0  0  0  0  0  0  0  0  0  0  0
  188.9510  177.9980  144.0300 O   0  0  0  0  0  0  0  0  0  0  0  0
  191.9960  178.6200  144.5210 O   0  0  0  0  0  1  0  0  0  0  0  0
  191.4270  177.4730  143.9590 C   0  0  1  0  0  3  0  0  0  0  0  0
  191.3640  176.3400  144.9980 C   0  0  1  0  0  3  0  0  0  0  0  0
  192.0340  175.0710  144.4970 C   0  0  0  0  0  1  0  0  0  0  0  0
  192.7730  175.6180  148.2740 O   0  0  0  0  0  1  0  0  0  0  0  0
  191.7190  175.6380  147.3620 C   0  0  1  0  0  3  0  0  0  0  0  0
  190.9650  176.9460  147.4980 C   0  0  1  0  0  3  0  0  0  0  0  0
  191.9610  176.7420  146.3500 C   0  0  2  0  0  3  0  0  0  0  0  0
  189.5030  176.7320  147.1300 C   0  0  0  0  0  2  0  0  0  0  0  0
  188.6450  177.7170  147.9000 C   0  0  0  0  0  1  0  0  0  0  0  0
  1 11  1  6  0  0  0
  1 31  1  0  0  0  0
  3  7  1  1  0  0  0
  3  5  1  0  0  0  0
  4  2  1  0  0  0  0
  5  1  1  6  0  0  0
  5  2  1  0  0  0  0
  6  3  1  0  0  0  0
  6  4  1  0  0  0  0
  8  7  1  0  0  0  0
  9  8  1  0  0  0  0
 10  9  1  0  0  0  0
 13 12  1  0  0  0  0
 14 19  1  1  0  0  0
 14 17  1  0  0  0  0
 15 16  1  1  0  0  0
 15 14  1  0  0  0  0
 15 13  1  0  0  0  0
 17 12  1  1  0  0  0
 17 20  1  0  0  0  0
 18 23  1  6  0  0  0
 18 21  1  0  0  0  0
 19 18  1  0  0  0  0
 21 20  1  0  0  0  0
 21 11  1  1  0  0  0
 23 22  1  6  0  0  0
 24 23  1  6  0  0  0
 24 26  1  0  0  0  0
 25 24  1  0  0  0  0
 25 26  1  0  0  0  0
 26 29  1  1  0  0  0
 27 28  1  0  0  0  0
 29 27  1  0  0  0  0
 30 27  2  0  0  0  0
 32 31  1  6  0  0  0
 32 35  1  0  0  0  0
 32 33  1  0  0  0  0
 33 34  1  0  0  0  0
 35 36  1  0  0  0  0
 36 37  1  0  0  0  0
 38 47  1  1  0  0  0
 38 45  1  0  0  0  0
 39 41  1  0  0  0  0
 41 37  1  0  0  0  0
 41 40  1  1  0  0  0
 41 45  1  0  0  0  0
 43 42  1  6  0  0  0
 43 39  1  0  0  0  0
 43 44  1  0  0  0  0
 43 38  1  0  0  0  0
 44 38  1  0  0  0  0
 47 46  1  1  0  0  0
 47 48  1  0  0  0  0
 48 49  1  6  0  0  0
 51 52  1  0  0  0  0
 51 50  1  1  0  0  0
 52 54  1  6  0  0  0
 53 48  1  6  0  0  0
 53 51  1  0  0  0  0
 53 52  1  0  0  0  0
 54 55  1  0  0  0  0
M  END
>  <MODEL>
4

>  <REMARK>
 VINA RESULT:      -7.2      4.063     10.029
  Name = 
  20 active torsions:
  status: ('A' for Active; 'I' for Inactive)
    1  A    between atoms: C_1  and  C_38
    2  A    between atoms: C_2  and  C_19
    3  A    between atoms: C_2  and  C_28
    4  A    between atoms: C_2  and  C_44
    5  A    between atoms: C_4  and  C_40
    6  A    between atoms: C_5  and  C_40
    7  A    between atoms: C_5  and  C_46
    8  A    between atoms: C_6  and  C_14
    9  A    between atoms: C_6  and  C_46
   10  A    between atoms: C_8  and  C_22
   11  A    between atoms: C_13  and  C_52
   12  A    between atoms: C_19  and  C_40
   13  A    between atoms: C_21  and  C_38
   14  A    between atoms: C_21  and  C_42
   15  A    between atoms: C_27  and  C_31
   16  A    between atoms: C_28  and  C_49
   17  A    between atoms: C_31  and  C_51
   18  A    between atoms: N_32  and  C_48
   19  A    between atoms: C_33  and  C_52
   20  A    between atoms: C_35  and  C_51
                            x       y       z     vdW  Elec       q    Type
                         _______ _______ _______ _____ _____    ______ ____

>  <TORSDO>
F 20

$$$$
=
 OpenBabel11052415123D

 55 61  0  0  1  0  0  0  0  0999 V2000
  188.7200  176.6710  141.8830 C   0  0  1  0  0  3  0  0  0  0  0  0
  190.3860  175.5850  143.2840 O   0  0  0  0  0  0  0  0  0  0  0  0
  191.0660  177.5600  142.1360 C   0  0  1  0  0  3  0  0  0  0  0  0
  191.6940  175.8800  143.6920 C   0  0  0  0  0  2  0  0  0  0  0  0
  190.1960  176.3200  142.0980 C   0  0  2  0  0  3  0  0  0  0  0  0
  192.0250  177.2910  143.2620 C   0  0  0  0  0  2  0  0  0  0  0  0
  191.8090  177.7000  140.8190 C   0  0  0  0  0  2  0  0  0  0  0  0
  191.6230  176.4490  139.9730 C   0  0  0  0  0  2  0  0  0  0  0  0
  191.8780  176.7560  138.5080 C   0  0  0  0  0  2  0  0  0  0  0  0
  193.0330  175.9180  137.9840 C   0  0  0  0  0  1  0  0  0  0  0  0
  187.9280  176.3400  143.1370 C   0  0  0  0  0  2  0  0  0  0  0  0
  189.9300  177.5730  147.0350 C   0  0  0  0  0  2  0  0  0  0  0  0
  189.3220  177.6740  148.4240 C   0  0  0  0  0  2  0  0  0  0  0  0
  187.5050  177.2980  146.9030 C   0  0  2  0  0  3  0  0  0  0  0  0
  187.8610  178.0010  148.2070 C   0  0  2  0  0  3  0  0  0  0  0  0
  187.7210  179.3850  148.0930 O   0  0  0  0  0  1  0  0  0  0  0  0
  188.8100  177.1270  146.1160 C   0  0  1  0  0  3  0  0  0  0  0  0
  186.2980  177.4340  144.6930 C   0  0  2  0  0  3  0  0  0  0  0  0
  186.3830  177.9910  146.1190 C   0  0  0  0  0  2  0  0  0  0  0  0
  188.8260  177.9560  144.8330 C   0  0  0  0  0  2  0  0  0  0  0  0
  187.6340  177.6040  143.9310 C   0  0  1  0  0  3  0  0  0  0  0  0
  184.6640  179.3820  144.5750 C   0  0  0  0  0  1  0  0  0  0  0  0
  185.1220  178.0680  143.9280 C   0  0  1  0  0  3  0  0  0  0  0  0
  185.4230  178.1570  142.4130 C   0  0  2  0  0  3  0  0  0  0  0  0
  185.3510  179.5760  141.8780 C   0  0  0  0  0  2  0  0  0  0  0  0
  184.2290  178.5950  141.5810 C   0  0  1  0  0  3  0  0  0  0  0  0
  183.9350  178.8210  139.0880 C   0  0  0  0  0  0  0  0  0  0  0  0
  184.1110  178.2790  137.7850 N   0  0  0  0  0  1  0  0  0  0  0  0
  184.3770  178.0830  140.2280 N   0  0  0  0  0  2  0  0  0  0  0  0
  183.3890  179.9460  139.2290 O   0  0  0  0  0  0  0  0  0  0  0  0
  188.5230  178.1370  141.5000 C   0  0  0  0  0  2  0  0  0  0  0  0
  188.1060  178.2530  140.0440 C   0  0  1  0  0  3  0  0  0  0  0  0
  188.8650  179.3780  139.3580 C   0  0  0  0  0  2  0  0  0  0  0  0
  189.2670  178.9800  138.0820 O   0  0  0  0  0  1  0  0  0  0  0  0
  188.3770  176.9410  139.3380 C   0  0  0  0  0  2  0  0  0  0  0  0
  187.4550  176.8170  138.1440 C   0  0  0  0  0  2  0  0  0  0  0  0
  188.1750  176.1210  136.9990 C   0  0  0  0  0  2  0  0  0  0  0  0
  185.6470  173.7270  136.9330 C   0  0  1  0  0  0  0  0  0  0  0  0
  187.8960  173.7770  136.2390 C   0  0  0  0  0  2  0  0  0  0  0  0
  187.0530  175.6230  134.8230 C   0  0  0  0  0  1  0  0  0  0  0  0
  187.2560  175.1580  136.2560 C   0  0  2  0  0  0  0  0  0  0  0  0
  186.5280  171.6510  136.0180 F   0  0  0  0  0  0  0  0  0  0  0  0
  186.7850  172.8580  136.6430 C   0  0  2  0  0  0  0  0  0  0  0  0
  186.3010  173.0070  137.9580 O   0  0  0  0  0  0  0  0  0  0  0  0
  186.0060  175.0860  136.9150 O   0  0  0  0  0  0  0  0  0  0  0  0
  183.7600  172.3130  137.5930 O   0  0  0  0  0  1  0  0  0  0  0  0
  184.1600  173.3590  136.7560 C   0  0  1  0  0  3  0  0  0  0  0  0
  183.1900  174.5470  136.8790 C   0  0  1  0  0  3  0  0  0  0  0  0
  183.2410  175.4510  135.6570 C   0  0  0  0  0  1  0  0  0  0  0  0
  179.5820  174.8780  136.5470 O   0  0  0  0  0  1  0  0  0  0  0  0
  180.8220  175.3050  137.0210 C   0  0  1  0  0  3  0  0  0  0  0  0
  181.0720  174.6950  138.3850 C   0  0  1  0  0  3  0  0  0  0  0  0
  181.7460  174.1080  137.1380 C   0  0  2  0  0  3  0  0  0  0  0  0
  181.9450  175.6320  139.2100 C   0  0  0  0  0  2  0  0  0  0  0  0
  181.0740  176.7020  139.8380 C   0  0  0  0  0  1  0  0  0  0  0  0
  1 31  1  1  0  0  0
  1 11  1  0  0  0  0
  2  4  1  0  0  0  0
  3  7  1  6  0  0  0
  3  6  1  0  0  0  0
  5  1  1  1  0  0  0
  5  3  1  0  0  0  0
  5  2  1  0  0  0  0
  6  4  1  0  0  0  0
  8  7  1  0  0  0  0
  9  8  1  0  0  0  0
 10  9  1  0  0  0  0
 12 13  1  0  0  0  0
 14 19  1  6  0  0  0
 14 15  1  0  0  0  0
 15 16  1  6  0  0  0
 15 13  1  0  0  0  0
 17 20  1  6  0  0  0
 17 14  1  0  0  0  0
 17 12  1  0  0  0  0
 18 23  1  6  0  0  0
 18 19  1  0  0  0  0
 21 11  1  1  0  0  0
 21 18  1  0  0  0  0
 21 20  1  0  0  0  0
 23 22  1  1  0  0  0
 24 23  1  1  0  0  0
 25 24  1  0  0  0  0
 26 29  1  6  0  0  0
 26 25  1  0  0  0  0
 26 24  1  0  0  0  0
 27 30  2  0  0  0  0
 27 29  1  0  0  0  0
 28 27  1  0  0  0  0
 32 35  1  6  0  0  0
 32 31  1  0  0  0  0
 33 32  1  0  0  0  0
 34 33  1  0  0  0  0
 36 35  1  0  0  0  0
 37 36  1  0  0  0  0
 38 47  1  6  0  0  0
 38 44  1  0  0  0  0
 39 41  1  0  0  0  0
 39 43  1  0  0  0  0
 41 40  1  6  0  0  0
 41 45  1  0  0  0  0
 41 37  1  0  0  0  0
 43 42  1  6  0  0  0
 43 38  1  0  0  0  0
 43 44  1  0  0  0  0
 45 38  1  0  0  0  0
 47 48  1  0  0  0  0
 47 46  1  1  0  0  0
 48 49  1  6  0  0  0
 51 50  1  6  0  0  0
 51 53  1  0  0  0  0
 51 52  1  0  0  0  0
 52 54  1  1  0  0  0
 53 48  1  1  0  0  0
 53 52  1  0  0  0  0
 54 55  1  0  0  0  0
M  END
>  <MODEL>
5

>  <REMARK>
 VINA RESULT:      -6.8      3.576      8.101
  Name = 
  20 active torsions:
  status: ('A' for Active; 'I' for Inactive)
    1  A    between atoms: C_1  and  C_38
    2  A    between atoms: C_2  and  C_19
    3  A    between atoms: C_2  and  C_28
    4  A    between atoms: C_2  and  C_44
    5  A    between atoms: C_4  and  C_40
    6  A    between atoms: C_5  and  C_40
    7  A    between atoms: C_5  and  C_46
    8  A    between atoms: C_6  and  C_14
    9  A    between atoms: C_6  and  C_46
   10  A    between atoms: C_8  and  C_22
   11  A    between atoms: C_13  and  C_52
   12  A    between atoms: C_19  and  C_40
   13  A    between atoms: C_21  and  C_38
   14  A    between atoms: C_21  and  C_42
   15  A    between atoms: C_27  and  C_31
   16  A    between atoms: C_28  and  C_49
   17  A    between atoms: C_31  and  C_51
   18  A    between atoms: N_32  and  C_48
   19  A    between atoms: C_33  and  C_52
   20  A    between atoms: C_35  and  C_51
                            x       y       z     vdW  Elec       q    Type
                         _______ _______ _______ _____ _____    ______ ____

>  <TORSDO>
F 20

$$$$
=
 OpenBabel11052415123D

 55 61  0  0  1  0  0  0  0  0999 V2000
  182.0060  177.5600  136.9490 C   0  0  1  0  0  3  0  0  0  0  0  0
  179.8980  177.1450  135.8100 O   0  0  0  0  0  0  0  0  0  0  0  0
  180.6520  179.4040  135.8890 C   0  0  1  0  0  3  0  0  0  0  0  0
  178.9960  177.9150  135.0630 C   0  0  0  0  0  2  0  0  0  0  0  0
  180.6030  178.0690  136.6050 C   0  0  2  0  0  3  0  0  0  0  0  0
  179.6220  179.2680  134.8030 C   0  0  0  0  0  2  0  0  0  0  0  0
  180.2720  180.5120  136.8550 C   0  0  0  0  0  2  0  0  0  0  0  0
  180.7860  181.8520  136.3490 C   0  0  0  0  0  2  0  0  0  0  0  0
  181.2280  182.7240  137.5110 C   0  0  0  0  0  2  0  0  0  0  0  0
  180.9170  184.1840  137.2270 C   0  0  0  0  0  1  0  0  0  0  0  0
  182.8790  177.5830  135.7050 C   0  0  0  0  0  2  0  0  0  0  0  0
  180.8520  173.5070  135.5930 C   0  0  0  0  0  2  0  0  0  0  0  0
  180.9560  172.3680  136.5930 C   0  0  0  0  0  2  0  0  0  0  0  0
  182.6010  173.9940  137.2300 C   0  0  2  0  0  3  0  0  0  0  0  0
  182.3280  172.4950  137.2170 C   0  0  2  0  0  3  0  0  0  0  0  0
  183.2500  171.8180  136.4170 O   0  0  0  0  0  1  0  0  0  0  0  0
  181.7410  174.6160  136.1230 C   0  0  1  0  0  3  0  0  0  0  0  0
  184.2750  175.8390  136.8380 C   0  0  2  0  0  3  0  0  0  0  0  0
  184.0910  174.3470  137.1420 C   0  0  0  0  0  2  0  0  0  0  0  0
  182.5850  175.1960  134.9900 C   0  0  0  0  0  2  0  0  0  0  0  0
  183.5760  176.2440  135.5180 C   0  0  1  0  0  3  0  0  0  0  0  0
  186.3430  176.2320  135.4060 C   0  0  0  0  0  1  0  0  0  0  0  0
  185.7680  176.2140  136.8290 C   0  0  1  0  0  3  0  0  0  0  0  0
  186.0270  177.4970  137.6540 C   0  0  2  0  0  3  0  0  0  0  0  0
  186.6860  178.5990  136.8420 C   0  0  0  0  0  2  0  0  0  0  0  0
  187.5020  177.8060  137.8500 C   0  0  1  0  0  3  0  0  0  0  0  0
  188.5490  178.1820  140.1110 C   0  0  0  0  0  0  0  0  0  0  0  0
  188.6810  178.9890  141.2750 N   0  0  0  0  0  1  0  0  0  0  0  0
  187.6680  178.5890  139.0640 N   0  0  0  0  0  2  0  0  0  0  0  0
  189.2070  177.1140  140.0130 O   0  0  0  0  0  0  0  0  0  0  0  0
  182.6580  178.3680  138.0710 C   0  0  0  0  0  2  0  0  0  0  0  0
  182.2300  177.8330  139.4270 C   0  0  1  0  0  3  0  0  0  0  0  0
  181.1820  176.7430  139.2660 C   0  0  0  0  0  2  0  0  0  0  0  0
  180.5860  176.4620  140.4960 O   0  0  0  0  0  1  0  0  0  0  0  0
  183.4400  177.2830  140.1530 C   0  0  0  0  0  2  0  0  0  0  0  0
  184.0180  178.3610  141.0450 C   0  0  0  0  0  2  0  0  0  0  0  0
  184.0370  177.8870  142.4910 C   0  0  0  0  0  2  0  0  0  0  0  0
  186.3570  178.0510  145.0820 C   0  0  1  0  0  0  0  0  0  0  0  0
  184.4020  179.2420  144.5350 C   0  0  0  0  0  2  0  0  0  0  0  0
  185.7020  179.7500  142.4910 C   0  0  0  0  0  1  0  0  0  0  0  0
  185.0790  178.6330  143.3160 C   0  0  2  0  0  0  0  0  0  0  0  0
  185.6680  179.7590  146.6720 F   0  0  0  0  0  0  0  0  0  0  0  0
  185.3060  178.8760  145.6710 C   0  0  2  0  0  0  0  0  0  0  0  0
  185.4050  177.5030  145.9710 O   0  0  0  0  0  0  0  0  0  0  0  0
  186.0860  177.7360  143.7400 O   0  0  0  0  0  0  0  0  0  0  0  0
  187.8980  177.6200  146.9360 O   0  0  0  0  0  1  0  0  0  0  0  0
  187.8130  177.9500  145.5800 C   0  0  1  0  0  3  0  0  0  0  0  0
  188.7100  177.0200  144.7440 C   0  0  1  0  0  3  0  0  0  0  0  0
  187.9480  176.3770  143.5960 C   0  0  0  0  0  1  0  0  0  0  0  0
  191.7560  177.1790  142.7600 O   0  0  0  0  0  1  0  0  0  0  0  0
  191.0050  176.6970  143.8310 C   0  0  1  0  0  3  0  0  0  0  0  0
  191.2350  177.5810  145.0400 C   0  0  1  0  0  3  0  0  0  0  0  0
  189.9560  177.7280  144.2050 C   0  0  2  0  0  3  0  0  0  0  0  0
  191.0840  176.7550  146.3110 C   0  0  0  0  0  2  0  0  0  0  0  0
  192.0570  175.5940  146.2700 C   0  0  0  0  0  1  0  0  0  0  0  0
  1 11  1  6  0  0  0
  1 31  1  0  0  0  0
  2  5  1  0  0  0  0
  3  5  1  0  0  0  0
  3  7  1  1  0  0  0
  4  2  1  0  0  0  0
  5  1  1  6  0  0  0
  6  4  1  0  0  0  0
  6  3  1  0  0  0  0
  8  7  1  0  0  0  0
  8  9  1  0  0  0  0
 10  9  1  0  0  0  0
 12 17  1  0  0  0  0
 12 13  1  0  0  0  0
 13 15  1  0  0  0  0
 14 19  1  6  0  0  0
 15 16  1  6  0  0  0
 15 14  1  0  0  0  0
 17 20  1  6  0  0  0
 17 14  1  0  0  0  0
 18 23  1  6  0  0  0
 18 19  1  0  0  0  0
 20 21  1  0  0  0  0
 21 11  1  1  0  0  0
 21 18  1  0  0  0  0
 23 22  1  6  0  0  0
 24 23  1  6  0  0  0
 24 26  1  0  0  0  0
 25 24  1  0  0  0  0
 25 26  1  0  0  0  0
 26 29  1  1  0  0  0
 27 28  1  0  0  0  0
 29 27  1  0  0  0  0
 30 27  2  0  0  0  0
 32 31  1  6  0  0  0
 32 35  1  0  0  0  0
 33 32  1  0  0  0  0
 33 34  1  0  0  0  0
 35 36  1  0  0  0  0
 36 37  1  0  0  0  0
 37 41  1  0  0  0  0
 38 47  1  1  0  0  0
 38 43  1  0  0  0  0
 38 44  1  0  0  0  0
 39 43  1  0  0  0  0
 41 40  1  6  0  0  0
 41 45  1  0  0  0  0
 41 39  1  0  0  0  0
 43 44  1  0  0  0  0
 43 42  1  1  0  0  0
 45 38  1  0  0  0  0
 47 46  1  1  0  0  0
 48 49  1  6  0  0  0
 48 47  1  0  0  0  0
 51 50  1  6  0  0  0
 51 53  1  0  0  0  0
 51 52  1  0  0  0  0
 52 54  1  1  0  0  0
 53 48  1  1  0  0  0
 53 52  1  0  0  0  0
 55 54  1  0  0  0  0
M  END
>  <MODEL>
6

>  <REMARK>
 VINA RESULT:      -6.5      3.546      8.964
  Name = 
  20 active torsions:
  status: ('A' for Active; 'I' for Inactive)
    1  A    between atoms: C_1  and  C_38
    2  A    between atoms: C_2  and  C_19
    3  A    between atoms: C_2  and  C_28
    4  A    between atoms: C_2  and  C_44
    5  A    between atoms: C_4  and  C_40
    6  A    between atoms: C_5  and  C_40
    7  A    between atoms: C_5  and  C_46
    8  A    between atoms: C_6  and  C_14
    9  A    between atoms: C_6  and  C_46
   10  A    between atoms: C_8  and  C_22
   11  A    between atoms: C_13  and  C_52
   12  A    between atoms: C_19  and  C_40
   13  A    between atoms: C_21  and  C_38
   14  A    between atoms: C_21  and  C_42
   15  A    between atoms: C_27  and  C_31
   16  A    between atoms: C_28  and  C_49
   17  A    between atoms: C_31  and  C_51
   18  A    between atoms: N_32  and  C_48
   19  A    between atoms: C_33  and  C_52
   20  A    between atoms: C_35  and  C_51
                            x       y       z     vdW  Elec       q    Type
                         _______ _______ _______ _____ _____    ______ ____

>  <TORSDO>
F 20

$$$$
=
 OpenBabel11052415123D

 55 61  0  0  1  0  0  0  0  0999 V2000
  181.3540  178.2660  140.2700 C   0  0  1  0  0  3  0  0  0  0  0  0
  180.2330  179.8340  141.7540 O   0  0  0  0  0  0  0  0  0  0  0  0
  180.2930  180.3960  139.4390 C   0  0  1  0  0  3  0  0  0  0  0  0
  179.4880  181.0100  141.5880 C   0  0  0  0  0  2  0  0  0  0  0  0
  181.0170  179.7260  140.5890 C   0  0  2  0  0  3  0  0  0  0  0  0
  179.2160  181.2000  140.1120 C   0  0  0  0  0  2  0  0  0  0  0  0
  181.2550  181.3050  138.6940 C   0  0  0  0  0  2  0  0  0  0  0  0
  180.4940  182.2010  137.7290 C   0  0  0  0  0  2  0  0  0  0  0  0
  180.6920  181.7310  136.2990 C   0  0  0  0  0  2  0  0  0  0  0  0
  180.7440  182.9180  135.3510 C   0  0  0  0  0  1  0  0  0  0  0  0
  182.1260  178.1920  138.9640 C   0  0  0  0  0  2  0  0  0  0  0  0
  178.9320  175.0470  139.7620 C   0  0  0  0  0  2  0  0  0  0  0  0
  178.9630  173.5620  139.4450 C   0  0  0  0  0  2  0  0  0  0  0  0
  180.8830  174.5310  138.3840 C   0  0  2  0  0  3  0  0  0  0  0  0
  179.8510  173.4210  138.2290 C   0  0  2  0  0  3  0  0  0  0  0  0
  179.0760  173.6050  137.0810 O   0  0  0  0  0  1  0  0  0  0  0  0
  180.2510  175.6100  139.2710 C   0  0  1  0  0  3  0  0  0  0  0  0
  182.2020  176.3610  137.2560 C   0  0  2  0  0  3  0  0  0  0  0  0
  181.4280  175.0540  137.0480 C   0  0  0  0  0  2  0  0  0  0  0  0
  180.0130  176.9160  138.5150 C   0  0  0  0  0  2  0  0  0  0  0  0
  181.3180  177.4510  137.9090 C   0  0  1  0  0  3  0  0  0  0  0  0
  182.2880  178.2300  135.5280 C   0  0  0  0  0  1  0  0  0  0  0  0
  182.8190  176.8470  135.9310 C   0  0  1  0  0  3  0  0  0  0  0  0
  184.3610  176.7200  135.9540 C   0  0  2  0  0  3  0  0  0  0  0  0
  184.8810  176.0670  137.2220 C   0  0  0  0  0  2  0  0  0  0  0  0
  185.0240  177.5680  137.0270 C   0  0  1  0  0  3  0  0  0  0  0  0
  187.3510  178.3930  137.5320 C   0  0  0  0  0  0  0  0  0  0  0  0
  188.6710  178.6700  137.0820 N   0  0  0  0  0  1  0  0  0  0  0  0
  186.3850  177.8760  136.6170 N   0  0  0  0  0  2  0  0  0  0  0  0
  187.0420  178.6070  138.7330 O   0  0  0  0  0  0  0  0  0  0  0  0
  182.1430  177.5940  141.3930 C   0  0  0  0  0  2  0  0  0  0  0  0
  183.2130  178.5310  141.9250 C   0  0  1  0  0  3  0  0  0  0  0  0
  182.9950  178.8080  143.4040 C   0  0  0  0  0  2  0  0  0  0  0  0
  182.8820  180.1800  143.6270 O   0  0  0  0  0  1  0  0  0  0  0  0
  184.5770  177.9090  141.7110 C   0  0  0  0  0  2  0  0  0  0  0  0
  185.6470  178.9220  142.0580 C   0  0  0  0  0  2  0  0  0  0  0  0
  186.2440  178.6030  143.4200 C   0  0  0  0  0  2  0  0  0  0  0  0
  189.6710  178.0870  143.0840 C   0  0  1  0  0  0  0  0  0  0  0  0
  187.7760  177.4730  141.8310 C   0  0  0  0  0  2  0  0  0  0  0  0
  187.1730  176.3450  143.9490 C   0  0  0  0  0  1  0  0  0  0  0  0
  187.4610  177.6920  143.3040 C   0  0  2  0  0  0  0  0  0  0  0  0
  190.1050  176.8790  141.0160 F   0  0  0  0  0  0  0  0  0  0  0  0
  189.2540  177.6950  141.7400 C   0  0  2  0  0  0  0  0  0  0  0  0
  189.7050  179.0030  142.0080 O   0  0  0  0  0  0  0  0  0  0  0  0
  188.5730  178.2950  143.9350 O   0  0  0  0  0  0  0  0  0  0  0  0
  191.6370  178.9630  144.2540 O   0  0  0  0  0  1  0  0  0  0  0  0
  191.0500  177.8130  143.7190 C   0  0  1  0  0  3  0  0  0  0  0  0
  191.0590  176.6740  144.7530 C   0  0  1  0  0  3  0  0  0  0  0  0
  191.7590  175.4320  144.2250 C   0  0  0  0  0  1  0  0  0  0  0  0
  192.7180  175.9960  147.9210 O   0  0  0  0  0  1  0  0  0  0  0  0
  191.6190  175.9330  147.0650 C   0  0  1  0  0  3  0  0  0  0  0  0
  190.7370  177.1440  147.2940 C   0  0  1  0  0  3  0  0  0  0  0  0
  191.6840  177.0910  146.0880 C   0  0  2  0  0  3  0  0  0  0  0  0
  189.2880  176.7840  146.9930 C   0  0  0  0  0  2  0  0  0  0  0  0
  188.3960  177.3540  148.0770 C   0  0  0  0  0  1  0  0  0  0  0  0
  1 11  1  6  0  0  0
  1 31  1  0  0  0  0
  3  7  1  1  0  0  0
  3  6  1  0  0  0  0
  3  5  1  0  0  0  0
  4  2  1  0  0  0  0
  5  1  1  6  0  0  0
  5  2  1  0  0  0  0
  6  4  1  0  0  0  0
  8  7  1  0  0  0  0
  9  8  1  0  0  0  0
 10  9  1  0  0  0  0
 13 12  1  0  0  0  0
 14 19  1  6  0  0  0
 14 17  1  0  0  0  0
 15 16  1  6  0  0  0
 15 14  1  0  0  0  0
 15 13  1  0  0  0  0
 17 20  1  6  0  0  0
 17 12  1  0  0  0  0
 18 23  1  6  0  0  0
 18 21  1  0  0  0  0
 19 18  1  0  0  0  0
 21 20  1  0  0  0  0
 21 11  1  1  0  0  0
 23 22  1  1  0  0  0
 24 23  1  1  0  0  0
 24 26  1  0  0  0  0
 24 25  1  0  0  0  0
 26 29  1  6  0  0  0
 26 25  1  0  0  0  0
 27 30  2  0  0  0  0
 28 27  1  0  0  0  0
 29 27  1  0  0  0  0
 32 31  1  1  0  0  0
 32 33  1  0  0  0  0
 33 34  1  0  0  0  0
 35 32  1  0  0  0  0
 35 36  1  0  0  0  0
 36 37  1  0  0  0  0
 38 47  1  1  0  0  0
 38 45  1  0  0  0  0
 39 41  1  0  0  0  0
 41 37  1  0  0  0  0
 41 45  1  0  0  0  0
 41 40  1  1  0  0  0
 43 42  1  6  0  0  0
 43 39  1  0  0  0  0
 43 44  1  0  0  0  0
 43 38  1  0  0  0  0
 44 38  1  0  0  0  0
 47 46  1  1  0  0  0
 47 48  1  0  0  0  0
 48 49  1  6  0  0  0
 51 52  1  0  0  0  0
 51 50  1  1  0  0  0
 52 54  1  6  0  0  0
 53 48  1  6  0  0  0
 53 51  1  0  0  0  0
 53 52  1  0  0  0  0
 54 55  1  0  0  0  0
M  END
>  <MODEL>
7

>  <REMARK>
 VINA RESULT:      -6.4      3.411      9.793
  Name = 
  20 active torsions:
  status: ('A' for Active; 'I' for Inactive)
    1  A    between atoms: C_1  and  C_38
    2  A    between atoms: C_2  and  C_19
    3  A    between atoms: C_2  and  C_28
    4  A    between atoms: C_2  and  C_44
    5  A    between atoms: C_4  and  C_40
    6  A    between atoms: C_5  and  C_40
    7  A    between atoms: C_5  and  C_46
    8  A    between atoms: C_6  and  C_14
    9  A    between atoms: C_6  and  C_46
   10  A    between atoms: C_8  and  C_22
   11  A    between atoms: C_13  and  C_52
   12  A    between atoms: C_19  and  C_40
   13  A    between atoms: C_21  and  C_38
   14  A    between atoms: C_21  and  C_42
   15  A    between atoms: C_27  and  C_31
   16  A    between atoms: C_28  and  C_49
   17  A    between atoms: C_31  and  C_51
   18  A    between atoms: N_32  and  C_48
   19  A    between atoms: C_33  and  C_52
   20  A    between atoms: C_35  and  C_51
                            x       y       z     vdW  Elec       q    Type
                         _______ _______ _______ _____ _____    ______ ____

>  <TORSDO>
F 20

$$$$
=
 OpenBabel11052415123D

 55 61  0  0  1  0  0  0  0  0999 V2000
  181.6130  177.8680  140.4380 C   0  0  1  0  0  3  0  0  0  0  0  0
  179.9460  179.2290  141.5720 O   0  0  0  0  0  0  0  0  0  0  0  0
  180.5030  179.8460  139.3380 C   0  0  1  0  0  3  0  0  0  0  0  0
  179.1080  180.2920  141.2080 C   0  0  0  0  0  2  0  0  0  0  0  0
  181.0040  179.2590  140.6420 C   0  0  2  0  0  3  0  0  0  0  0  0
  179.1890  180.4760  139.7080 C   0  0  0  0  0  2  0  0  0  0  0  0
  181.4830  180.8970  138.8460 C   0  0  0  0  0  2  0  0  0  0  0  0
  180.9030  181.6390  137.6500 C   0  0  0  0  0  2  0  0  0  0  0  0
  180.7990  180.7130  136.4520 C   0  0  0  0  0  2  0  0  0  0  0  0
  180.4390  181.5000  135.2020 C   0  0  0  0  0  1  0  0  0  0  0  0
  181.6590  177.5420  138.9550 C   0  0  0  0  0  2  0  0  0  0  0  0
  185.9190  177.8780  137.3830 C   0  0  0  0  0  2  0  0  0  0  0  0
  186.4750  177.4190  136.0460 C   0  0  0  0  0  2  0  0  0  0  0  0
  184.2440  176.5500  136.1960 C   0  0  2  0  0  3  0  0  0  0  0  0
  185.6250  176.2390  135.6310 C   0  0  2  0  0  3  0  0  0  0  0  0
  186.1560  175.0800  136.2000 O   0  0  0  0  0  1  0  0  0  0  0  0
  184.4480  177.5070  137.3770 C   0  0  1  0  0  3  0  0  0  0  0  0
  182.2000  175.6690  137.3820 C   0  0  2  0  0  3  0  0  0  0  0  0
  183.4230  175.2990  136.5340 C   0  0  0  0  0  2  0  0  0  0  0  0
  184.0640  176.8710  138.7110 C   0  0  0  0  0  2  0  0  0  0  0  0
  182.6080  176.3820  138.6930 C   0  0  1  0  0  3  0  0  0  0  0  0
  179.8640  174.8070  137.9110 C   0  0  0  0  0  1  0  0  0  0  0  0
  181.3300  174.4290  137.6550 C   0  0  1  0  0  3  0  0  0  0  0  0
  181.5460  173.3450  136.5720 C   0  0  2  0  0  3  0  0  0  0  0  0
  180.2480  172.7040  136.1110 C   0  0  0  0  0  2  0  0  0  0  0  0
  181.1840  171.9430  137.0360 C   0  0  1  0  0  3  0  0  0  0  0  0
  183.3650  170.8590  136.3880 C   0  0  0  0  0  0  0  0  0  0  0  0
  184.0630  169.8890  135.6180 N   0  0  0  0  0  1  0  0  0  0  0  0
  181.9480  170.9740  136.2650 N   0  0  0  0  0  2  0  0  0  0  0  0
  184.0010  171.6110  137.1720 O   0  0  0  0  0  0  0  0  0  0  0  0
  183.0070  177.7490  141.0530 C   0  0  0  0  0  2  0  0  0  0  0  0
  183.3190  178.9700  141.9010 C   0  0  1  0  0  3  0  0  0  0  0  0
  182.8550  178.7580  143.3340 C   0  0  0  0  0  2  0  0  0  0  0  0
  183.4730  179.6780  144.1820 O   0  0  0  0  0  1  0  0  0  0  0  0
  184.8100  179.2320  141.8750 C   0  0  0  0  0  2  0  0  0  0  0  0
  185.5450  177.9700  142.2770 C   0  0  0  0  0  2  0  0  0  0  0  0
  186.5880  178.2900  143.3370 C   0  0  0  0  0  2  0  0  0  0  0  0
  190.0460  177.9210  143.1600 C   0  0  1  0  0  0  0  0  0  0  0  0
  188.2560  177.4510  141.7060 C   0  0  0  0  0  2  0  0  0  0  0  0
  187.5630  176.0040  143.5900 C   0  0  0  0  0  1  0  0  0  0  0  0
  187.8420  177.4390  143.1700 C   0  0  2  0  0  0  0  0  0  0  0  0
  190.6510  177.0460  140.9710 F   0  0  0  0  0  0  0  0  0  0  0  0
  189.7280  177.7220  141.7480 C   0  0  2  0  0  0  0  0  0  0  0  0
  190.1140  178.9870  142.2340 O   0  0  0  0  0  0  0  0  0  0  0  0
  188.8900  177.9700  143.9560 O   0  0  0  0  0  0  0  0  0  0  0  0
  192.0340  178.7260  144.3420 O   0  0  0  0  0  1  0  0  0  0  0  0
  191.3910  177.5910  143.8380 C   0  0  1  0  0  3  0  0  0  0  0  0
  191.3090  176.4960  144.9160 C   0  0  1  0  0  3  0  0  0  0  0  0
  192.0200  175.2220  144.4880 C   0  0  0  0  0  1  0  0  0  0  0  0
  192.7340  175.9250  148.2150 O   0  0  0  0  0  1  0  0  0  0  0  0
  191.6950  175.8440  147.2900 C   0  0  1  0  0  3  0  0  0  0  0  0
  190.8240  177.0790  147.4070 C   0  0  1  0  0  3  0  0  0  0  0  0
  191.8500  176.9590  146.2730 C   0  0  2  0  0  3  0  0  0  0  0  0
  189.3920  176.7310  147.0220 C   0  0  0  0  0  2  0  0  0  0  0  0
  188.4420  177.6820  147.7220 C   0  0  0  0  0  1  0  0  0  0  0  0
  1 11  1  6  0  0  0
  1 31  1  0  0  0  0
  3  7  1  1  0  0  0
  3  6  1  0  0  0  0
  3  5  1  0  0  0  0
  4  2  1  0  0  0  0
  5  1  1  6  0  0  0
  5  2  1  0  0  0  0
  6  4  1  0  0  0  0
  8  7  1  0  0  0  0
  9  8  1  0  0  0  0
 10  9  1  0  0  0  0
 13 12  1  0  0  0  0
 14 19  1  1  0  0  0
 14 17  1  0  0  0  0
 15 13  1  0  0  0  0
 15 14  1  0  0  0  0
 15 16  1  1  0  0  0
 17 12  1  1  0  0  0
 17 20  1  0  0  0  0
 18 23  1  1  0  0  0
 18 21  1  0  0  0  0
 19 18  1  0  0  0  0
 21 20  1  0  0  0  0
 21 11  1  6  0  0  0
 23 22  1  6  0  0  0
 24 26  1  0  0  0  0
 24 23  1  1  0  0  0
 25 24  1  0  0  0  0
 25 26  1  0  0  0  0
 26 29  1  6  0  0  0
 27 30  2  0  0  0  0
 28 27  1  0  0  0  0
 29 27  1  0  0  0  0
 32 31  1  6  0  0  0
 32 33  1  0  0  0  0
 33 34  1  0  0  0  0
 35 32  1  0  0  0  0
 35 36  1  0  0  0  0
 36 37  1  0  0  0  0
 38 47  1  1  0  0  0
 38 45  1  0  0  0  0
 39 43  1  0  0  0  0
 39 41  1  0  0  0  0
 41 37  1  0  0  0  0
 41 40  1  1  0  0  0
 41 45  1  0  0  0  0
 43 42  1  6  0  0  0
 43 44  1  0  0  0  0
 43 38  1  0  0  0  0
 44 38  1  0  0  0  0
 47 46  1  1  0  0  0
 47 48  1  0  0  0  0
 48 49  1  6  0  0  0
 51 52  1  0  0  0  0
 51 50  1  1  0  0  0
 52 54  1  6  0  0  0
 53 48  1  6  0  0  0
 53 51  1  0  0  0  0
 53 52  1  0  0  0  0
 54 55  1  0  0  0  0
M  END
>  <MODEL>
8

>  <REMARK>
 VINA RESULT:      -6.4      3.976     10.004
  Name = 
  20 active torsions:
  status: ('A' for Active; 'I' for Inactive)
    1  A    between atoms: C_1  and  C_38
    2  A    between atoms: C_2  and  C_19
    3  A    between atoms: C_2  and  C_28
    4  A    between atoms: C_2  and  C_44
    5  A    between atoms: C_4  and  C_40
    6  A    between atoms: C_5  and  C_40
    7  A    between atoms: C_5  and  C_46
    8  A    between atoms: C_6  and  C_14
    9  A    between atoms: C_6  and  C_46
   10  A    between atoms: C_8  and  C_22
   11  A    between atoms: C_13  and  C_52
   12  A    between atoms: C_19  and  C_40
   13  A    between atoms: C_21  and  C_38
   14  A    between atoms: C_21  and  C_42
   15  A    between atoms: C_27  and  C_31
   16  A    between atoms: C_28  and  C_49
   17  A    between atoms: C_31  and  C_51
   18  A    between atoms: N_32  and  C_48
   19  A    between atoms: C_33  and  C_52
   20  A    between atoms: C_35  and  C_51
                            x       y       z     vdW  Elec       q    Type
                         _______ _______ _______ _____ _____    ______ ____

>  <TORSDO>
F 20

$$$$
=
 OpenBabel11052415123D

 55 61  0  0  1  0  0  0  0  0999 V2000
  188.8590  177.3200  142.3200 C   0  0  1  0  0  3  0  0  0  0  0  0
  190.4320  179.0210  143.0600 O   0  0  0  0  0  0  0  0  0  0  0  0
  190.9600  176.7590  143.5950 C   0  0  1  0  0  3  0  0  0  0  0  0
  191.6910  179.0180  143.6770 C   0  0  0  0  0  2  0  0  0  0  0  0
  189.8570  177.7780  143.3880 C   0  0  2  0  0  3  0  0  0  0  0  0
  192.2040  177.5950  143.7130 C   0  0  0  0  0  2  0  0  0  0  0  0
  190.7050  175.9890  144.8790 C   0  0  0  0  0  2  0  0  0  0  0  0
  191.6540  176.4590  145.9720 C   0  0  0  0  0  2  0  0  0  0  0  0
  191.5640  175.5460  147.1810 C   0  0  0  0  0  2  0  0  0  0  0  0
  192.8140  175.6730  148.0380 C   0  0  0  0  0  1  0  0  0  0  0  0
  187.5450  176.9350  142.9790 C   0  0  0  0  0  2  0  0  0  0  0  0
  188.6620  178.2480  147.1930 C   0  0  0  0  0  2  0  0  0  0  0  0
  187.8130  178.2190  148.4520 C   0  0  0  0  0  2  0  0  0  0  0  0
  186.3530  177.6830  146.6260 C   0  0  2  0  0  3  0  0  0  0  0  0
  186.3830  178.3710  147.9850 C   0  0  2  0  0  3  0  0  0  0  0  0
  186.0880  179.7320  147.8720 O   0  0  0  0  0  1  0  0  0  0  0  0
  187.7860  177.7050  146.0810 C   0  0  1  0  0  3  0  0  0  0  0  0
  185.5420  177.7570  144.2390 C   0  0  2  0  0  3  0  0  0  0  0  0
  185.3050  178.2630  145.6670 C   0  0  0  0  0  2  0  0  0  0  0  0
  187.9190  178.5800  144.8360 C   0  0  0  0  0  2  0  0  0  0  0  0
  186.9570  178.1200  143.7300 C   0  0  1  0  0  3  0  0  0  0  0  0
  184.0290  179.7100  143.6240 C   0  0  0  0  0  1  0  0  0  0  0  0
  184.4460  178.2710  143.2880 C   0  0  1  0  0  3  0  0  0  0  0  0
  184.8320  178.0320  141.8090 C   0  0  2  0  0  3  0  0  0  0  0  0
  185.3130  179.2930  141.1120 C   0  0  0  0  0  2  0  0  0  0  0  0
  183.9240  178.7470  140.8210 C   0  0  1  0  0  3  0  0  0  0  0  0
  183.0360  176.9590  139.2830 C   0  0  0  0  0  0  0  0  0  0  0  0
  183.0860  176.2980  138.0250 N   0  0  0  0  0  1  0  0  0  0  0  0
  183.9390  178.0310  139.5550 N   0  0  0  0  0  2  0  0  0  0  0  0
  182.1970  176.5960  140.1480 O   0  0  0  0  0  0  0  0  0  0  0  0
  188.6250  178.3840  141.2490 C   0  0  0  0  0  2  0  0  0  0  0  0
  189.1110  177.8910  139.8970 C   0  0  1  0  0  3  0  0  0  0  0  0
  190.0340  176.6950  140.0630 C   0  0  0  0  0  2  0  0  0  0  0  0
  191.3670  177.1090  140.0480 O   0  0  0  0  0  1  0  0  0  0  0  0
  187.9190  177.5090  139.0440 C   0  0  0  0  0  2  0  0  0  0  0  0
  188.3900  177.1950  137.6400 C   0  0  0  0  0  2  0  0  0  0  0  0
  187.9660  175.7880  137.2500 C   0  0  0  0  0  2  0  0  0  0  0  0
  191.2040  174.7030  136.5680 C   0  0  1  0  0  0  0  0  0  0  0  0
  189.7020  176.1840  135.5240 C   0  0  0  0  0  2  0  0  0  0  0  0
  188.3140  174.1390  135.4050 C   0  0  0  0  0  1  0  0  0  0  0  0
  188.9970  175.1170  136.3490 C   0  0  2  0  0  0  0  0  0  0  0  0
  192.0400  175.8540  134.5940 F   0  0  0  0  0  0  0  0  0  0  0  0
  191.1540  175.8430  135.6560 C   0  0  2  0  0  0  0  0  0  0  0  0
  191.7090  175.9680  136.9450 O   0  0  0  0  0  0  0  0  0  0  0  0
  189.9490  174.4310  137.1380 O   0  0  0  0  0  0  0  0  0  0  0  0
  192.0790  172.6760  135.5080 O   0  0  0  0  0  1  0  0  0  0  0  0
  192.2630  173.5820  136.5570 C   0  0  1  0  0  3  0  0  0  0  0  0
  193.7190  174.0800  136.5870 C   0  0  1  0  0  3  0  0  0  0  0  0
  194.3570  173.8870  137.9530 C   0  0  0  0  0  1  0  0  0  0  0  0
  196.6820  172.3090  135.4380 O   0  0  0  0  0  1  0  0  0  0  0  0
  196.0400  173.4310  135.9590 C   0  0  1  0  0  3  0  0  0  0  0  0
  195.6140  174.3370  134.8210 C   0  0  1  0  0  3  0  0  0  0  0  0
  194.5910  173.4260  135.5120 C   0  0  2  0  0  3  0  0  0  0  0  0
  195.6130  175.7850  135.2960 C   0  0  0  0  0  2  0  0  0  0  0  0
  196.8670  176.4740  134.7960 C   0  0  0  0  0  1  0  0  0  0  0  0
  1 31  1  6  0  0  0
  1 11  1  0  0  0  0
  2  5  1  0  0  0  0
  2  4  1  0  0  0  0
  3  6  1  0  0  0  0
  3  7  1  1  0  0  0
  4  6  1  0  0  0  0
  5  1  1  6  0  0  0
  5  3  1  0  0  0  0
  7  8  1  0  0  0  0
  8  9  1  0  0  0  0
  9 10  1  0  0  0  0
 12 13  1  0  0  0  0
 14 19  1  6  0  0  0
 14 15  1  0  0  0  0
 15 16  1  6  0  0  0
 15 13  1  0  0  0  0
 17 20  1  6  0  0  0
 17 14  1  0  0  0  0
 17 12  1  0  0  0  0
 18 23  1  6  0  0  0
 18 19  1  0  0  0  0
 21 11  1  1  0  0  0
 21 18  1  0  0  0  0
 21 20  1  0  0  0  0
 23 22  1  6  0  0  0
 24 23  1  1  0  0  0
 25 24  1  0  0  0  0
 26 29  1  6  0  0  0
 26 25  1  0  0  0  0
 26 24  1  0  0  0  0
 27 29  1  0  0  0  0
 27 30  2  0  0  0  0
 28 27  1  0  0  0  0
 32 35  1  6  0  0  0
 32 33  1  0  0  0  0
 32 31  1  0  0  0  0
 34 33  1  0  0  0  0
 36 35  1  0  0  0  0
 37 36  1  0  0  0  0
 38 47  1  6  0  0  0
 38 44  1  0  0  0  0
 38 45  1  0  0  0  0
 39 43  1  0  0  0  0
 39 41  1  0  0  0  0
 41 40  1  6  0  0  0
 41 45  1  0  0  0  0
 41 37  1  0  0  0  0
 43 42  1  6  0  0  0
 43 38  1  0  0  0  0
 43 44  1  0  0  0  0
 47 46  1  6  0  0  0
 47 48  1  0  0  0  0
 48 49  1  1  0  0  0
 51 50  1  6  0  0  0
 52 54  1  1  0  0  0
 52 53  1  0  0  0  0
 52 51  1  0  0  0  0
 53 51  1  0  0  0  0
 53 48  1  1  0  0  0
 55 54  1  0  0  0  0
M  END
>  <MODEL>
9

>  <REMARK>
 VINA RESULT:      -6.3      3.937     10.165
  Name = 
  20 active torsions:
  status: ('A' for Active; 'I' for Inactive)
    1  A    between atoms: C_1  and  C_38
    2  A    between atoms: C_2  and  C_19
    3  A    between atoms: C_2  and  C_28
    4  A    between atoms: C_2  and  C_44
    5  A    between atoms: C_4  and  C_40
    6  A    between atoms: C_5  and  C_40
    7  A    between atoms: C_5  and  C_46
    8  A    between atoms: C_6  and  C_14
    9  A    between atoms: C_6  and  C_46
   10  A    between atoms: C_8  and  C_22
   11  A    between atoms: C_13  and  C_52
   12  A    between atoms: C_19  and  C_40
   13  A    between atoms: C_21  and  C_38
   14  A    between atoms: C_21  and  C_42
   15  A    between atoms: C_27  and  C_31
   16  A    between atoms: C_28  and  C_49
   17  A    between atoms: C_31  and  C_51
   18  A    between atoms: N_32  and  C_48
   19  A    between atoms: C_33  and  C_52
   20  A    between atoms: C_35  and  C_51
                            x       y       z     vdW  Elec       q    Type
                         _______ _______ _______ _____ _____    ______ ____

>  <TORSDO>
F 20

$$$$
