=
 OpenBabel11052413173D

 31 34  0  0  1  0  0  0  0  0999 V2000
  189.0610  177.5450  148.0410 C   0  0  0  0  0  2  0  0  0  0  0  0
  188.5240  176.4640  144.7430 C   0  0  1  0  0  3  0  0  0  0  0  0
  189.7460  177.2990  144.4540 C   0  0  0  0  0  0  0  0  0  0  0  0
  190.8640  179.5330  144.6260 C   0  0  0  0  0  2  0  0  0  0  0  0
  187.7140  176.7990  146.0000 C   0  0  1  0  0  3  0  0  0  0  0  0
  187.3610  179.3950  147.8960 C   0  0  0  0  0  2  0  0  0  0  0  0
  190.2760  178.3510  145.3940 C   0  0  0  0  0  2  0  0  0  0  0  0
  186.8650  177.8520  143.3940 C   0  0  1  0  0  3  0  0  0  0  0  0
  188.1060  178.4400  148.8160 C   0  0  0  0  0  2  0  0  0  0  0  0
  189.6750  176.0790  142.3520 C   0  0  0  0  0  2  0  0  0  0  0  0
  191.9560  179.0440  143.6760 C   0  0  0  0  0  2  0  0  0  0  0  0
  186.3890  178.4320  144.7080 C   0  0  0  0  0  3  0  0  0  0  0  0
  187.6080  176.5030  143.4960 C   0  0  1  0  0  3  0  0  0  0  0  0
  188.3180  176.4080  147.3530 C   0  0  0  0  0  2  0  0  0  0  0  0
  191.9670  177.7420  141.6740 O   0  0  0  0  0  0  0  0  0  0  0  0
  186.8220  178.0120  145.9040 C   0  0  0  0  0  0  0  0  0  0  0  0
  186.2670  178.6700  147.1270 C   0  0  0  0  0  2  0  0  0  0  0  0
  188.2660  176.2500  142.2490 O   0  0  0  0  0  0  0  0  0  0  0  0
  190.3080  177.1050  143.2540 C   0  0  0  0  0  0  0  0  0  0  0  0
  191.4300  177.9490  142.7930 C   0  0  0  0  0  0  0  0  0  0  0  0
  185.7400  177.8270  142.3600 C   0  0  0  0  0  2  0  0  0  0  0  0
  185.2500  180.1720  142.1510 O   0  0  0  0  0  1  0  0  0  0  0  0
  185.7400  179.0630  141.4540 C   0  0  2  0  0  3  0  0  0  0  0  0
  184.9620  178.8470  140.1410 C   0  0  2  0  0  0  0  0  0  0  0  0
  184.5730  180.0890  139.6250 O   0  0  0  0  0  1  0  0  0  0  0  0
  183.7290  178.0400  140.4590 C   0  0  0  0  0  0  0  0  0  0  0  0
  183.5420  176.9200  139.9120 O   0  0  0  0  0  0  0  0  0  0  0  0
  182.7520  178.5550  141.3030 O   0  0  0  0  0  1  0  0  0  0  0  0
  187.1450  178.0540  139.4730 F   0  0  0  0  0  0  0  0  0  0  0  0
  185.7310  178.7540  137.8490 O   0  0  0  0  0  1  0  0  0  0  0  0
  185.8160  178.1140  139.0890 C   0  0  2  0  0  3  0  0  0  0  0  0
  1  9  1  0  0  0  0
  2  3  1  6  0  0  0
  2  5  1  0  0  0  0
  3  7  1  0  0  0  0
  4  7  1  0  0  0  0
  5 14  1  1  0  0  0
  6  9  1  0  0  0  0
  8 21  1  6  0  0  0
  8 13  1  0  0  0  0
  8 12  1  0  0  0  0
 10 19  1  0  0  0  0
 11  4  1  0  0  0  0
 12 16  2  0  0  0  0
 13 18  1  6  0  0  0
 13  2  1  0  0  0  0
 14  1  1  0  0  0  0
 15 20  2  0  0  0  0
 16  5  1  0  0  0  0
 16 17  1  0  0  0  0
 17  6  1  0  0  0  0
 18 10  1  0  0  0  0
 19  3  2  0  0  0  0
 20 19  1  0  0  0  0
 20 11  1  0  0  0  0
 23 22  1  1  0  0  0
 23 21  1  0  0  0  0
 24 25  1  6  0  0  0
 24 26  1  0  0  0  0
 24 23  1  0  0  0  0
 26 28  1  0  0  0  0
 27 26  2  0  0  0  0
 31 30  1  6  0  0  0
 31 29  1  0  0  0  0
 31 24  1  0  0  0  0
M  END
>  <MODEL>
1

>  <REMARK>
 VINA RESULT:      -7.1      0.000      0.000
  Name = 
  5 active torsions:
  status: ('A' for Active; 'I' for Inactive)
    1  A    between atoms: C_1  and  C_19
    2  A    between atoms: C_9  and  C_19
    3  A    between atoms: C_9  and  C_23
    4  A    between atoms: C_15  and  C_23
    5  A    between atoms: C_19  and  C_22
                            x       y       z     vdW  Elec       q    Type
                         _______ _______ _______ _____ _____    ______ ____

>  <TORSDO>
F 5

$$$$
=
 OpenBabel11052413173D

 31 34  0  0  1  0  0  0  0  0999 V2000
  186.3740  177.3320  135.0230 C   0  0  0  0  0  2  0  0  0  0  0  0
  188.9740  177.9340  137.3060 C   0  0  1  0  0  3  0  0  0  0  0  0
  189.2790  176.4760  137.0800 C   0  0  0  0  0  0  0  0  0  0  0  0
  188.4380  174.1170  137.0910 C   0  0  0  0  0  2  0  0  0  0  0  0
  187.5480  178.4170  137.0190 C   0  0  1  0  0  3  0  0  0  0  0  0
  184.6360  177.0240  136.8180 C   0  0  0  0  0  2  0  0  0  0  0  0
  188.2990  175.5060  136.4700 C   0  0  0  0  0  2  0  0  0  0  0  0
  188.3340  177.7460  139.7670 C   0  0  1  0  0  3  0  0  0  0  0  0
  184.8950  177.4090  135.3690 C   0  0  0  0  0  2  0  0  0  0  0  0
  191.3610  177.0810  138.1790 C   0  0  0  0  0  2  0  0  0  0  0  0
  189.8750  173.6200  136.9340 C   0  0  0  0  0  2  0  0  0  0  0  0
  186.8900  177.8390  139.3260 C   0  0  0  0  0  3  0  0  0  0  0  0
  189.3700  178.2900  138.7600 C   0  0  1  0  0  3  0  0  0  0  0  0
  187.1290  178.5440  135.5510 C   0  0  0  0  0  2  0  0  0  0  0  0
  191.9730  174.2500  137.8840 O   0  0  0  0  0  0  0  0  0  0  0  0
  186.5130  178.0710  138.0620 C   0  0  0  0  0  0  0  0  0  0  0  0
  185.0500  178.1420  137.7620 C   0  0  0  0  0  2  0  0  0  0  0  0
  190.6710  177.8450  139.1610 O   0  0  0  0  0  0  0  0  0  0  0  0
  190.4700  176.0580  137.5260 C   0  0  0  0  0  0  0  0  0  0  0  0
  190.8410  174.6280  137.4850 C   0  0  0  0  0  0  0  0  0  0  0  0
  188.5220  178.3180  141.1720 C   0  0  0  0  0  2  0  0  0  0  0  0
  187.2050  177.1970  142.8420 O   0  0  0  0  0  1  0  0  0  0  0  0
  188.4770  177.2410  142.2610 C   0  0  2  0  0  3  0  0  0  0  0  0
  189.5680  177.4240  143.3340 C   0  0  2  0  0  0  0  0  0  0  0  0
  190.0800  178.7250  143.2540 O   0  0  0  0  0  1  0  0  0  0  0  0
  190.6750  176.4430  143.0410 C   0  0  0  0  0  0  0  0  0  0  0  0
  191.8550  176.8490  142.8610 O   0  0  0  0  0  0  0  0  0  0  0  0
  190.3930  175.0890  142.8970 O   0  0  0  0  0  1  0  0  0  0  0  0
  188.4130  178.3320  145.2510 F   0  0  0  0  0  0  0  0  0  0  0  0
  190.0370  176.7990  145.6230 O   0  0  0  0  0  1  0  0  0  0  0  0
  189.0160  177.1900  144.7530 C   0  0  2  0  0  3  0  0  0  0  0  0
  1  9  1  0  0  0  0
  1 14  1  0  0  0  0
  2  3  1  1  0  0  0
  2 13  1  0  0  0  0
  3 19  2  0  0  0  0
  5 14  1  6  0  0  0
  5  2  1  0  0  0  0
  5 16  1  0  0  0  0
  6 17  1  0  0  0  0
  7  3  1  0  0  0  0
  7  4  1  0  0  0  0
  8 21  1  1  0  0  0
  9  6  1  0  0  0  0
 10 18  1  0  0  0  0
 11  4  1  0  0  0  0
 11 20  1  0  0  0  0
 12  8  1  0  0  0  0
 13 18  1  1  0  0  0
 13  8  1  0  0  0  0
 16 12  2  0  0  0  0
 17 16  1  0  0  0  0
 19 10  1  0  0  0  0
 20 19  1  0  0  0  0
 20 15  2  0  0  0  0
 21 23  1  0  0  0  0
 23 22  1  1  0  0  0
 23 24  1  0  0  0  0
 24 25  1  6  0  0  0
 24 31  1  0  0  0  0
 26 24  1  0  0  0  0
 27 26  2  0  0  0  0
 28 26  1  0  0  0  0
 31 29  1  1  0  0  0
 31 30  1  0  0  0  0
M  END
>  <MODEL>
2

>  <REMARK>
 VINA RESULT:      -7.0      3.539      7.941
  Name = 
  5 active torsions:
  status: ('A' for Active; 'I' for Inactive)
    1  A    between atoms: C_1  and  C_19
    2  A    between atoms: C_9  and  C_19
    3  A    between atoms: C_9  and  C_23
    4  A    between atoms: C_15  and  C_23
    5  A    between atoms: C_19  and  C_22
                            x       y       z     vdW  Elec       q    Type
                         _______ _______ _______ _____ _____    ______ ____

>  <TORSDO>
F 5

$$$$
=
 OpenBabel11052413173D

 31 34  0  0  1  0  0  0  0  0999 V2000
  187.7980  177.7750  135.8180 C   0  0  0  0  0  2  0  0  0  0  0  0
  190.6460  177.5480  137.8600 C   0  0  1  0  0  3  0  0  0  0  0  0
  190.7400  176.1600  137.2800 C   0  0  0  0  0  0  0  0  0  0  0  0
  189.6070  173.9660  136.8630 C   0  0  0  0  0  2  0  0  0  0  0  0
  189.2740  178.2320  137.8550 C   0  0  1  0  0  3  0  0  0  0  0  0
  186.2010  177.2370  137.6880 C   0  0  0  0  0  2  0  0  0  0  0  0
  189.5930  175.4690  136.5880 C   0  0  0  0  0  2  0  0  0  0  0  0
  190.2090  176.8540  140.2740 C   0  0  1  0  0  3  0  0  0  0  0  0
  186.3780  177.9230  136.3420 C   0  0  0  0  0  2  0  0  0  0  0  0
  192.9720  176.2690  138.2370 C   0  0  0  0  0  2  0  0  0  0  0  0
  190.9480  173.3720  136.4330 C   0  0  0  0  0  2  0  0  0  0  0  0
  188.7550  177.1990  140.0360 C   0  0  0  0  0  3  0  0  0  0  0  0
  191.2130  177.5080  139.3010 C   0  0  1  0  0  3  0  0  0  0  0  0
  188.7460  178.7430  136.5110 C   0  0  0  0  0  2  0  0  0  0  0  0
  193.1860  173.5390  137.2490 O   0  0  0  0  0  0  0  0  0  0  0  0
  188.3010  177.7600  138.9080 C   0  0  0  0  0  0  0  0  0  0  0  0
  186.8380  178.0520  138.8030 C   0  0  0  0  0  2  0  0  0  0  0  0
  192.4760  176.8480  139.4390 O   0  0  0  0  0  0  0  0  0  0  0  0
  191.9030  175.5270  137.4810 C   0  0  0  0  0  0  0  0  0  0  0  0
  192.0810  174.1170  137.0780 C   0  0  0  0  0  0  0  0  0  0  0  0
  190.5930  177.0560  141.7390 C   0  0  0  0  0  2  0  0  0  0  0  0
  190.0910  178.9780  143.0940 O   0  0  0  0  0  1  0  0  0  0  0  0
  189.5310  177.8270  142.5300 C   0  0  2  0  0  3  0  0  0  0  0  0
  188.8380  176.9660  143.6040 C   0  0  2  0  0  0  0  0  0  0  0  0
  188.8660  175.6230  143.2080 O   0  0  0  0  0  1  0  0  0  0  0  0
  187.4040  177.4170  143.7060 C   0  0  0  0  0  0  0  0  0  0  0  0
  186.7020  177.0930  144.7020 O   0  0  0  0  0  1  0  0  0  0  0  0
  186.8180  178.1360  142.6690 O   0  0  0  0  0  0  0  0  0  0  0  0
  189.5230  178.4080  145.4170 F   0  0  0  0  0  0  0  0  0  0  0  0
  190.8550  176.6510  144.9030 O   0  0  0  0  0  1  0  0  0  0  0  0
  189.5320  177.0970  144.9730 C   0  0  2  0  0  3  0  0  0  0  0  0
  1  9  1  0  0  0  0
  1 14  1  0  0  0  0
  2  3  1  1  0  0  0
  2 13  1  0  0  0  0
  3 19  2  0  0  0  0
  5 14  1  6  0  0  0
  5  2  1  0  0  0  0
  5 16  1  0  0  0  0
  6 17  1  0  0  0  0
  7  4  1  0  0  0  0
  7  3  1  0  0  0  0
  8 21  1  1  0  0  0
  9  6  1  0  0  0  0
 10 18  1  0  0  0  0
 11  4  1  0  0  0  0
 11 20  1  0  0  0  0
 12  8  1  0  0  0  0
 13 18  1  6  0  0  0
 13  8  1  0  0  0  0
 16 12  2  0  0  0  0
 17 16  1  0  0  0  0
 19 10  1  0  0  0  0
 20 15  2  0  0  0  0
 20 19  1  0  0  0  0
 21 23  1  0  0  0  0
 23 22  1  1  0  0  0
 23 24  1  0  0  0  0
 24 25  1  6  0  0  0
 24 26  1  0  0  0  0
 24 31  1  0  0  0  0
 26 27  1  0  0  0  0
 28 26  2  0  0  0  0
 31 30  1  6  0  0  0
 31 29  1  0  0  0  0
M  END
>  <MODEL>
3

>  <REMARK>
 VINA RESULT:      -6.6      3.872      7.544
  Name = 
  5 active torsions:
  status: ('A' for Active; 'I' for Inactive)
    1  A    between atoms: C_1  and  C_19
    2  A    between atoms: C_9  and  C_19
    3  A    between atoms: C_9  and  C_23
    4  A    between atoms: C_15  and  C_23
    5  A    between atoms: C_19  and  C_22
                            x       y       z     vdW  Elec       q    Type
                         _______ _______ _______ _____ _____    ______ ____

>  <TORSDO>
F 5

$$$$
=
 OpenBabel11052413173D

 31 34  0  0  1  0  0  0  0  0999 V2000
  179.9320  178.6290  140.1800 C   0  0  0  0  0  2  0  0  0  0  0  0
  183.3690  179.0980  139.6320 C   0  0  1  0  0  3  0  0  0  0  0  0
  183.2800  177.7290  139.0050 C   0  0  0  0  0  0  0  0  0  0  0  0
  182.6060  175.3310  139.2600 C   0  0  0  0  0  2  0  0  0  0  0  0
  182.2940  179.4850  140.6530 C   0  0  1  0  0  3  0  0  0  0  0  0
  180.2380  177.8770  142.5620 C   0  0  0  0  0  2  0  0  0  0  0  0
  182.1300  176.7830  139.2350 C   0  0  0  0  0  2  0  0  0  0  0  0
  184.8840  178.4570  141.5790 C   0  0  1  0  0  3  0  0  0  0  0  0
  179.2920  178.5120  141.5540 C   0  0  0  0  0  2  0  0  0  0  0  0
  185.4710  178.3420  138.1490 C   0  0  0  0  0  2  0  0  0  0  0  0
  183.3380  175.0020  137.9610 C   0  0  0  0  0  2  0  0  0  0  0  0
  183.6520  178.4840  142.4560 C   0  0  0  0  0  3  0  0  0  0  0  0
  184.7770  179.2500  140.2590 C   0  0  1  0  0  3  0  0  0  0  0  0
  180.8960  179.8060  140.1180 C   0  0  0  0  0  2  0  0  0  0  0  0
  185.4240  175.6650  137.0050 O   0  0  0  0  0  0  0  0  0  0  0  0
  182.4460  178.8810  142.0280 C   0  0  0  0  0  0  0  0  0  0  0  0
  181.3100  178.8620  143.0010 C   0  0  0  0  0  2  0  0  0  0  0  0
  185.8650  178.8700  139.4100 O   0  0  0  0  0  0  0  0  0  0  0  0
  184.3380  177.3580  138.2730 C   0  0  0  0  0  0  0  0  0  0  0  0
  184.4360  175.9950  137.7130 C   0  0  0  0  0  0  0  0  0  0  0  0
  186.1390  178.8110  142.3770 C   0  0  0  0  0  2  0  0  0  0  0  0
  186.1490  177.5320  144.4130 O   0  0  0  0  0  1  0  0  0  0  0  0
  186.7160  177.6120  143.1370 C   0  0  2  0  0  3  0  0  0  0  0  0
  188.2550  177.6330  143.2150 C   0  0  2  0  0  0  0  0  0  0  0  0
  188.7560  178.4840  142.2210 O   0  0  0  0  0  1  0  0  0  0  0  0
  188.7520  176.2340  142.9590 C   0  0  0  0  0  0  0  0  0  0  0  0
  187.9950  175.2440  143.1450 O   0  0  0  0  0  1  0  0  0  0  0  0
  190.0740  176.0160  142.5850 O   0  0  0  0  0  0  0  0  0  0  0  0
  189.8960  178.8910  144.4660 F   0  0  0  0  0  0  0  0  0  0  0  0
  189.0090  177.0480  145.4380 O   0  0  0  0  0  1  0  0  0  0  0  0
  188.7480  178.1260  144.5890 C   0  0  2  0  0  3  0  0  0  0  0  0
  1  9  1  0  0  0  0
  2  3  1  1  0  0  0
  2 13  1  0  0  0  0
  2  5  1  0  0  0  0
  3  7  1  0  0  0  0
  5 14  1  6  0  0  0
  5 16  1  0  0  0  0
  6 17  1  0  0  0  0
  7  4  1  0  0  0  0
  8 21  1  1  0  0  0
  8 12  1  0  0  0  0
  9  6  1  0  0  0  0
 10 19  1  0  0  0  0
 10 18  1  0  0  0  0
 11  4  1  0  0  0  0
 13 18  1  6  0  0  0
 13  8  1  0  0  0  0
 14  1  1  0  0  0  0
 15 20  2  0  0  0  0
 16 12  2  0  0  0  0
 16 17  1  0  0  0  0
 19  3  2  0  0  0  0
 20 11  1  0  0  0  0
 20 19  1  0  0  0  0
 21 23  1  0  0  0  0
 23 24  1  0  0  0  0
 23 22  1  1  0  0  0
 24 25  1  6  0  0  0
 24 31  1  0  0  0  0
 26 27  1  0  0  0  0
 26 24  1  0  0  0  0
 28 26  2  0  0  0  0
 31 29  1  6  0  0  0
 31 30  1  0  0  0  0
M  END
>  <MODEL>
4

>  <REMARK>
 VINA RESULT:      -6.5      2.691      7.517
  Name = 
  5 active torsions:
  status: ('A' for Active; 'I' for Inactive)
    1  A    between atoms: C_1  and  C_19
    2  A    between atoms: C_9  and  C_19
    3  A    between atoms: C_9  and  C_23
    4  A    between atoms: C_15  and  C_23
    5  A    between atoms: C_19  and  C_22
                            x       y       z     vdW  Elec       q    Type
                         _______ _______ _______ _____ _____    ______ ____

>  <TORSDO>
F 5

$$$$
=
 OpenBabel11052413173D

 31 34  0  0  1  0  0  0  0  0999 V2000
  180.7160  178.5900  138.8640 C   0  0  0  0  0  2  0  0  0  0  0  0
  184.2070  178.9660  138.8300 C   0  0  1  0  0  3  0  0  0  0  0  0
  184.1760  177.5960  138.2030 C   0  0  0  0  0  0  0  0  0  0  0  0
  183.4090  175.2180  138.3650 C   0  0  0  0  0  2  0  0  0  0  0  0
  183.0030  179.3890  139.6800 C   0  0  1  0  0  3  0  0  0  0  0  0
  180.6460  177.8480  141.2680 C   0  0  0  0  0  2  0  0  0  0  0  0
  182.9800  176.6810  138.2630 C   0  0  0  0  0  2  0  0  0  0  0  0
  185.4000  178.3030  140.9840 C   0  0  1  0  0  3  0  0  0  0  0  0
  179.8760  178.4990  140.1290 C   0  0  0  0  0  2  0  0  0  0  0  0
  186.4860  178.1460  137.6790 C   0  0  0  0  0  2  0  0  0  0  0  0
  184.3170  174.8600  137.1890 C   0  0  0  0  0  2  0  0  0  0  0  0
  184.0520  178.3680  141.6680 C   0  0  0  0  0  3  0  0  0  0  0  0
  185.5100  179.0880  139.6590 C   0  0  1  0  0  3  0  0  0  0  0  0
  181.7090  179.7420  138.9410 C   0  0  0  0  0  2  0  0  0  0  0  0
  186.5380  175.4620  136.5520 O   0  0  0  0  0  0  0  0  0  0  0  0
  182.9340  178.7920  141.0640 C   0  0  0  0  0  0  0  0  0  0  0  0
  181.6660  178.8090  141.8570 C   0  0  0  0  0  2  0  0  0  0  0  0
  186.7020  178.6740  138.9820 O   0  0  0  0  0  0  0  0  0  0  0  0
  185.3220  177.1920  137.6380 C   0  0  0  0  0  0  0  0  0  0  0  0
  185.4660  175.8230  137.1030 C   0  0  0  0  0  0  0  0  0  0  0  0
  186.5310  178.6310  141.9570 C   0  0  0  0  0  2  0  0  0  0  0  0
  186.3540  177.8950  144.2390 O   0  0  0  0  0  1  0  0  0  0  0  0
  186.7890  177.5080  142.9670 C   0  0  2  0  0  3  0  0  0  0  0  0
  188.2610  177.0530  143.0000 C   0  0  2  0  0  0  0  0  0  0  0  0
  188.3110  175.6540  143.0290 O   0  0  0  0  0  1  0  0  0  0  0  0
  188.8850  177.5920  144.2620 C   0  0  0  0  0  0  0  0  0  0  0  0
  189.4090  178.7380  144.2760 O   0  0  0  0  0  0  0  0  0  0  0  0
  188.9530  176.8010  145.4050 O   0  0  0  0  0  1  0  0  0  0  0  0
  188.6120  176.9250  140.6140 F   0  0  0  0  0  0  0  0  0  0  0  0
  190.4100  177.3370  141.9270 O   0  0  0  0  0  1  0  0  0  0  0  0
  189.0390  177.5560  141.7700 C   0  0  2  0  0  3  0  0  0  0  0  0
  1 14  1  0  0  0  0
  1  9  1  0  0  0  0
  2  3  1  1  0  0  0
  2 13  1  0  0  0  0
  2  5  1  0  0  0  0
  3  7  1  0  0  0  0
  5 14  1  6  0  0  0
  5 16  1  0  0  0  0
  6 17  1  0  0  0  0
  7  4  1  0  0  0  0
  8 12  1  0  0  0  0
  8 21  1  1  0  0  0
  9  6  1  0  0  0  0
 10 18  1  0  0  0  0
 11  4  1  0  0  0  0
 13 18  1  6  0  0  0
 13  8  1  0  0  0  0
 15 20  2  0  0  0  0
 16 12  2  0  0  0  0
 16 17  1  0  0  0  0
 19 10  1  0  0  0  0
 19  3  2  0  0  0  0
 20 11  1  0  0  0  0
 20 19  1  0  0  0  0
 21 23  1  0  0  0  0
 23 24  1  0  0  0  0
 23 22  1  1  0  0  0
 24 25  1  1  0  0  0
 24 26  1  0  0  0  0
 26 27  2  0  0  0  0
 26 28  1  0  0  0  0
 31 29  1  6  0  0  0
 31 30  1  0  0  0  0
 31 24  1  0  0  0  0
M  END
>  <MODEL>
5

>  <REMARK>
 VINA RESULT:      -6.4      2.592      7.490
  Name = 
  5 active torsions:
  status: ('A' for Active; 'I' for Inactive)
    1  A    between atoms: C_1  and  C_19
    2  A    between atoms: C_9  and  C_19
    3  A    between atoms: C_9  and  C_23
    4  A    between atoms: C_15  and  C_23
    5  A    between atoms: C_19  and  C_22
                            x       y       z     vdW  Elec       q    Type
                         _______ _______ _______ _____ _____    ______ ____

>  <TORSDO>
F 5

$$$$
=
 OpenBabel11052413173D

 31 34  0  0  1  0  0  0  0  0999 V2000
  181.5580  176.2570  137.1180 C   0  0  0  0  0  2  0  0  0  0  0  0
  182.5590  177.3190  140.3120 C   0  0  1  0  0  3  0  0  0  0  0  0
  181.5040  178.3740  140.1040 C   0  0  0  0  0  0  0  0  0  0  0  0
  180.6120  180.2100  138.6520 C   0  0  0  0  0  2  0  0  0  0  0  0
  183.1630  176.6580  139.0680 C   0  0  1  0  0  3  0  0  0  0  0  0
  183.4400  177.4450  135.9440 C   0  0  0  0  0  2  0  0  0  0  0  0
  180.9270  178.7180  138.7550 C   0  0  0  0  0  2  0  0  0  0  0  0
  184.5690  178.8870  140.3640 C   0  0  1  0  0  3  0  0  0  0  0  0
  182.4480  176.2940  135.8850 C   0  0  0  0  0  2  0  0  0  0  0  0
  181.8210  178.6930  142.4930 C   0  0  0  0  0  2  0  0  0  0  0  0
  179.6620  180.6190  139.7780 C   0  0  0  0  0  2  0  0  0  0  0  0
  184.8610  178.4460  138.9460 C   0  0  0  0  0  3  0  0  0  0  0  0
  183.6830  177.9280  141.1870 C   0  0  1  0  0  3  0  0  0  0  0  0
  182.2900  175.6540  138.3100 C   0  0  0  0  0  2  0  0  0  0  0  0
  179.8730  180.8290  142.1470 O   0  0  0  0  0  0  0  0  0  0  0  0
  184.1790  177.4810  138.3140 C   0  0  0  0  0  0  0  0  0  0  0  0
  184.5720  177.1400  136.9120 C   0  0  0  0  0  2  0  0  0  0  0  0
  183.2350  178.6150  142.3600 O   0  0  0  0  0  0  0  0  0  0  0  0
  181.1480  179.0610  141.1980 C   0  0  0  0  0  0  0  0  0  0  0  0
  180.2210  180.2070  141.1090 C   0  0  0  0  0  0  0  0  0  0  0  0
  185.8520  179.2770  141.0970 C   0  0  0  0  0  2  0  0  0  0  0  0
  186.4400  177.8550  142.9440 O   0  0  0  0  0  1  0  0  0  0  0  0
  186.6540  178.0640  141.5770 C   0  0  2  0  0  3  0  0  0  0  0  0
  188.1580  178.1730  141.2620 C   0  0  2  0  0  0  0  0  0  0  0  0
  188.6400  179.4020  141.7290 O   0  0  0  0  0  1  0  0  0  0  0  0
  188.3250  178.1180  139.7650 C   0  0  0  0  0  0  0  0  0  0  0  0
  187.9180  177.1180  139.1150 O   0  0  0  0  0  1  0  0  0  0  0  0
  188.9920  179.1380  139.0950 O   0  0  0  0  0  0  0  0  0  0  0  0
  189.2730  177.3440  143.2390 F   0  0  0  0  0  0  0  0  0  0  0  0
  190.1450  176.7930  141.2230 O   0  0  0  0  0  1  0  0  0  0  0  0
  188.9620  177.0380  141.9250 C   0  0  2  0  0  3  0  0  0  0  0  0
  1 14  1  0  0  0  0
  2  3  1  6  0  0  0
  2 13  1  0  0  0  0
  3 19  2  0  0  0  0
  4  7  1  0  0  0  0
  4 11  1  0  0  0  0
  5 14  1  6  0  0  0
  5  2  1  0  0  0  0
  6 17  1  0  0  0  0
  7  3  1  0  0  0  0
  8 21  1  1  0  0  0
  8 13  1  0  0  0  0
  9  6  1  0  0  0  0
  9  1  1  0  0  0  0
 11 20  1  0  0  0  0
 12  8  1  0  0  0  0
 13 18  1  1  0  0  0
 16 12  2  0  0  0  0
 16  5  1  0  0  0  0
 17 16  1  0  0  0  0
 18 10  1  0  0  0  0
 19 10  1  0  0  0  0
 20 19  1  0  0  0  0
 20 15  2  0  0  0  0
 21 23  1  0  0  0  0
 23 22  1  1  0  0  0
 24 23  1  0  0  0  0
 24 25  1  1  0  0  0
 24 31  1  0  0  0  0
 26 24  1  0  0  0  0
 27 26  1  0  0  0  0
 28 26  2  0  0  0  0
 31 30  1  6  0  0  0
 31 29  1  0  0  0  0
M  END
>  <MODEL>
6

>  <REMARK>
 VINA RESULT:      -6.0      3.561      8.520
  Name = 
  5 active torsions:
  status: ('A' for Active; 'I' for Inactive)
    1  A    between atoms: C_1  and  C_19
    2  A    between atoms: C_9  and  C_19
    3  A    between atoms: C_9  and  C_23
    4  A    between atoms: C_15  and  C_23
    5  A    between atoms: C_19  and  C_22
                            x       y       z     vdW  Elec       q    Type
                         _______ _______ _______ _____ _____    ______ ____

>  <TORSDO>
F 5

$$$$
=
 OpenBabel11052413173D

 31 34  0  0  1  0  0  0  0  0999 V2000
  187.3060  177.4870  146.8100 C   0  0  0  0  0  2  0  0  0  0  0  0
  188.0530  176.7100  143.4680 C   0  0  1  0  0  3  0  0  0  0  0  0
  189.3710  177.3680  143.7900 C   0  0  0  0  0  0  0  0  0  0  0  0
  190.5620  179.3930  144.6570 C   0  0  0  0  0  2  0  0  0  0  0  0
  186.8410  177.0830  144.3280 C   0  0  1  0  0  3  0  0  0  0  0  0
  186.0340  179.5780  146.2210 C   0  0  0  0  0  2  0  0  0  0  0  0
  189.5820  178.2660  144.9810 C   0  0  0  0  0  2  0  0  0  0  0  0
  187.2600  178.4140  141.7450 C   0  0  1  0  0  3  0  0  0  0  0  0
  186.2240  178.4650  147.2400 C   0  0  0  0  0  2  0  0  0  0  0  0
  190.0330  176.3080  141.7040 C   0  0  0  0  0  2  0  0  0  0  0  0
  191.8860  178.8050  144.1690 C   0  0  0  0  0  2  0  0  0  0  0  0
  186.3550  178.9750  142.8190 C   0  0  0  0  0  3  0  0  0  0  0  0
  187.7400  176.9640  141.9720 C   0  0  1  0  0  3  0  0  0  0  0  0
  186.7880  176.5210  145.7520 C   0  0  0  0  0  2  0  0  0  0  0  0
  192.5720  177.6450  142.1980 O   0  0  0  0  0  0  0  0  0  0  0  0
  186.2090  178.4200  144.0300 C   0  0  0  0  0  0  0  0  0  0  0  0
  185.2790  179.0760  145.0000 C   0  0  0  0  0  2  0  0  0  0  0  0
  188.8190  176.6950  141.0710 O   0  0  0  0  0  0  0  0  0  0  0  0
  190.3510  177.1680  142.8990 C   0  0  0  0  0  0  0  0  0  0  0  0
  191.6490  177.8600  143.0270 C   0  0  0  0  0  0  0  0  0  0  0  0
  186.6640  178.6240  140.3530 C   0  0  0  0  0  2  0  0  0  0  0  0
  188.6620  179.1230  139.1120 O   0  0  0  0  0  1  0  0  0  0  0  0
  187.6160  178.2010  139.2300 C   0  0  2  0  0  3  0  0  0  0  0  0
  186.9020  177.9990  137.8800 C   0  0  2  0  0  0  0  0  0  0  0  0
  187.3960  178.9250  136.9530 O   0  0  0  0  0  1  0  0  0  0  0  0
  185.4310  178.2520  138.0900 C   0  0  0  0  0  0  0  0  0  0  0  0
  184.5910  177.3350  137.8870 O   0  0  0  0  0  0  0  0  0  0  0  0
  184.9800  179.5200  138.4410 O   0  0  0  0  0  1  0  0  0  0  0  0
  188.1970  175.9600  137.9430 F   0  0  0  0  0  0  0  0  0  0  0  0
  187.3410  176.6080  135.9490 O   0  0  0  0  0  1  0  0  0  0  0  0
  187.1200  176.5760  137.3290 C   0  0  2  0  0  3  0  0  0  0  0  0
  1  9  1  0  0  0  0
  2  3  1  1  0  0  0
  2  5  1  0  0  0  0
  3  7  1  0  0  0  0
  4  7  1  0  0  0  0
  5 14  1  1  0  0  0
  6  9  1  0  0  0  0
  8 21  1  6  0  0  0
  8 13  1  0  0  0  0
  8 12  1  0  0  0  0
 10 19  1  0  0  0  0
 11  4  1  0  0  0  0
 12 16  2  0  0  0  0
 13 18  1  6  0  0  0
 13  2  1  0  0  0  0
 14  1  1  0  0  0  0
 15 20  2  0  0  0  0
 16  5  1  0  0  0  0
 16 17  1  0  0  0  0
 17  6  1  0  0  0  0
 18 10  1  0  0  0  0
 19 20  1  0  0  0  0
 19  3  2  0  0  0  0
 20 11  1  0  0  0  0
 23 22  1  6  0  0  0
 23 21  1  0  0  0  0
 24 25  1  6  0  0  0
 24 26  1  0  0  0  0
 24 23  1  0  0  0  0
 26 28  1  0  0  0  0
 27 26  2  0  0  0  0
 31 30  1  6  0  0  0
 31 24  1  0  0  0  0
 31 29  1  0  0  0  0
M  END
>  <MODEL>
7

>  <REMARK>
 VINA RESULT:      -5.8      1.688      2.319
  Name = 
  5 active torsions:
  status: ('A' for Active; 'I' for Inactive)
    1  A    between atoms: C_1  and  C_19
    2  A    between atoms: C_9  and  C_19
    3  A    between atoms: C_9  and  C_23
    4  A    between atoms: C_15  and  C_23
    5  A    between atoms: C_19  and  C_22
                            x       y       z     vdW  Elec       q    Type
                         _______ _______ _______ _____ _____    ______ ____

>  <TORSDO>
F 5

$$$$
=
 OpenBabel11052413173D

 31 34  0  0  1  0  0  0  0  0999 V2000
  180.6930  175.1650  138.3180 C   0  0  0  0  0  2  0  0  0  0  0  0
  182.6110  177.9990  139.1100 C   0  0  1  0  0  3  0  0  0  0  0  0
  181.7340  178.6670  138.0810 C   0  0  0  0  0  0  0  0  0  0  0  0
  180.8460  178.6590  135.7400 C   0  0  0  0  0  2  0  0  0  0  0  0
  182.7690  176.4760  139.0310 C   0  0  1  0  0  3  0  0  0  0  0  0
  182.4080  174.2350  136.7280 C   0  0  0  0  0  2  0  0  0  0  0  0
  180.9140  177.9090  137.0690 C   0  0  0  0  0  2  0  0  0  0  0  0
  184.8120  178.2200  137.8420 C   0  0  1  0  0  3  0  0  0  0  0  0
  181.2480  173.9130  137.6570 C   0  0  0  0  0  2  0  0  0  0  0  0
  182.6740  180.6790  139.0700 C   0  0  0  0  0  2  0  0  0  0  0  0
  180.2840  180.0620  135.9630 C   0  0  0  0  0  2  0  0  0  0  0  0
  184.6680  176.7580  137.4790 C   0  0  0  0  0  3  0  0  0  0  0  0
  184.0010  178.6800  139.0730 C   0  0  1  0  0  3  0  0  0  0  0  0
  181.5780  175.6200  139.4710 C   0  0  0  0  0  2  0  0  0  0  0  0
  181.0990  182.0360  137.0310 O   0  0  0  0  0  0  0  0  0  0  0  0
  183.6970  175.9670  137.9550 C   0  0  0  0  0  0  0  0  0  0  0  0
  183.6720  174.5370  137.5180 C   0  0  0  0  0  2  0  0  0  0  0  0
  183.9780  180.1110  139.0940 O   0  0  0  0  0  0  0  0  0  0  0  0
  181.7790  180.0050  138.0640 C   0  0  0  0  0  0  0  0  0  0  0  0
  181.0710  180.7780  137.0230 C   0  0  0  0  0  0  0  0  0  0  0  0
  186.2820  178.6290  137.9190 C   0  0  0  0  0  2  0  0  0  0  0  0
  186.8240  178.6270  140.2620 O   0  0  0  0  0  1  0  0  0  0  0  0
  187.0310  177.9370  139.0630 C   0  0  2  0  0  3  0  0  0  0  0  0
  188.5350  177.7610  138.7780 C   0  0  2  0  0  0  0  0  0  0  0  0
  189.1030  179.0120  138.5060 O   0  0  0  0  0  1  0  0  0  0  0  0
  188.6770  176.8830  137.5610 C   0  0  0  0  0  0  0  0  0  0  0  0
  189.3360  177.2800  136.5620 O   0  0  0  0  0  0  0  0  0  0  0  0
  188.0240  175.6570  137.4990 O   0  0  0  0  0  1  0  0  0  0  0  0
  189.7180  178.0970  140.8580 F   0  0  0  0  0  0  0  0  0  0  0  0
  190.3620  176.3700  139.5410 O   0  0  0  0  0  1  0  0  0  0  0  0
  189.2700  177.1290  139.9740 C   0  0  2  0  0  3  0  0  0  0  0  0
  1 14  1  0  0  0  0
  2  3  1  6  0  0  0
  4 11  1  0  0  0  0
  4  7  1  0  0  0  0
  5  2  1  0  0  0  0
  5 14  1  6  0  0  0
  6 17  1  0  0  0  0
  6  9  1  0  0  0  0
  7  3  1  0  0  0  0
  8 21  1  1  0  0  0
  8 13  1  0  0  0  0
  9  1  1  0  0  0  0
 10 18  1  0  0  0  0
 11 20  1  0  0  0  0
 12  8  1  0  0  0  0
 12 16  2  0  0  0  0
 13 18  1  6  0  0  0
 13  2  1  0  0  0  0
 16  5  1  0  0  0  0
 17 16  1  0  0  0  0
 19  3  2  0  0  0  0
 19 10  1  0  0  0  0
 20 15  2  0  0  0  0
 20 19  1  0  0  0  0
 21 23  1  0  0  0  0
 23 22  1  1  0  0  0
 24 25  1  6  0  0  0
 24 23  1  0  0  0  0
 24 31  1  0  0  0  0
 26 24  1  0  0  0  0
 27 26  2  0  0  0  0
 28 26  1  0  0  0  0
 31 30  1  6  0  0  0
 31 29  1  0  0  0  0
M  END
>  <MODEL>
8

>  <REMARK>
 VINA RESULT:      -5.7      4.878      9.071
  Name = 
  5 active torsions:
  status: ('A' for Active; 'I' for Inactive)
    1  A    between atoms: C_1  and  C_19
    2  A    between atoms: C_9  and  C_19
    3  A    between atoms: C_9  and  C_23
    4  A    between atoms: C_15  and  C_23
    5  A    between atoms: C_19  and  C_22
                            x       y       z     vdW  Elec       q    Type
                         _______ _______ _______ _____ _____    ______ ____

>  <TORSDO>
F 5

$$$$
=
 OpenBabel11052413173D

 31 34  0  0  1  0  0  0  0  0999 V2000
  191.8180  177.8170  141.5730 C   0  0  0  0  0  2  0  0  0  0  0  0
  190.3730  178.1880  144.7520 C   0  0  1  0  0  3  0  0  0  0  0  0
  191.1780  176.9550  145.0720 C   0  0  0  0  0  0  0  0  0  0  0  0
  191.7400  174.5880  144.4780 C   0  0  0  0  0  2  0  0  0  0  0  0
  190.0260  178.4510  143.2820 C   0  0  1  0  0  3  0  0  0  0  0  0
  189.8090  176.6510  140.6050 C   0  0  0  0  0  2  0  0  0  0  0  0
  191.7610  176.0460  144.0210 C   0  0  0  0  0  2  0  0  0  0  0  0
  188.0650  177.1420  145.0330 C   0  0  1  0  0  3  0  0  0  0  0  0
  191.0360  177.4990  140.3080 C   0  0  0  0  0  2  0  0  0  0  0  0
  190.6230  177.5880  147.3530 C   0  0  0  0  0  2  0  0  0  0  0  0
  192.4890  174.4490  145.8030 C   0  0  0  0  0  2  0  0  0  0  0  0
  187.9840  177.0840  143.5240 C   0  0  0  0  0  3  0  0  0  0  0  0
  189.0800  178.1550  145.6050 C   0  0  1  0  0  3  0  0  0  0  0  0
  191.1540  178.9340  142.3670 C   0  0  0  0  0  2  0  0  0  0  0  0
  192.0630  175.1540  148.0440 O   0  0  0  0  0  0  0  0  0  0  0  0
  188.9090  177.6120  142.7110 C   0  0  0  0  0  0  0  0  0  0  0  0
  188.7060  177.4870  141.2340 C   0  0  0  0  0  2  0  0  0  0  0  0
  189.2760  177.8700  146.9940 O   0  0  0  0  0  0  0  0  0  0  0  0
  191.2900  176.6590  146.3740 C   0  0  0  0  0  0  0  0  0  0  0  0
  191.9410  175.4090  146.8170 C   0  0  0  0  0  0  0  0  0  0  0  0
  186.6770  177.2860  145.6570 C   0  0  0  0  0  2  0  0  0  0  0  0
  185.6600  179.1960  146.7040 O   0  0  0  0  0  1  0  0  0  0  0  0
  186.0860  178.6870  145.4730 C   0  0  2  0  0  3  0  0  0  0  0  0
  184.9500  178.7300  144.4330 C   0  0  2  0  0  0  0  0  0  0  0  0
  184.8950  177.5030  143.7590 O   0  0  0  0  0  1  0  0  0  0  0  0
  185.2680  179.8200  143.4410 C   0  0  0  0  0  0  0  0  0  0  0  0
  185.2510  181.0290  143.7960 O   0  0  0  0  0  1  0  0  0  0  0  0
  185.5140  179.5070  142.1080 O   0  0  0  0  0  0  0  0  0  0  0  0
  183.4310  178.2530  146.2500 F   0  0  0  0  0  0  0  0  0  0  0  0
  182.5400  178.6930  144.2150 O   0  0  0  0  0  1  0  0  0  0  0  0
  183.5840  178.9980  145.0930 C   0  0  2  0  0  3  0  0  0  0  0  0
  1 14  1  0  0  0  0
  2  3  1  6  0  0  0
  2 13  1  0  0  0  0
  3 19  2  0  0  0  0
  4 11  1  0  0  0  0
  5 14  1  6  0  0  0
  5  2  1  0  0  0  0
  6 17  1  0  0  0  0
  7  4  1  0  0  0  0
  7  3  1  0  0  0  0
  8 13  1  0  0  0  0
  8 21  1  1  0  0  0
  9  6  1  0  0  0  0
  9  1  1  0  0  0  0
 11 20  1  0  0  0  0
 12  8  1  0  0  0  0
 13 18  1  1  0  0  0
 16  5  1  0  0  0  0
 16 12  2  0  0  0  0
 17 16  1  0  0  0  0
 18 10  1  0  0  0  0
 19 20  1  0  0  0  0
 19 10  1  0  0  0  0
 20 15  2  0  0  0  0
 23 21  1  0  0  0  0
 23 22  1  1  0  0  0
 24 25  1  6  0  0  0
 24 31  1  0  0  0  0
 24 23  1  0  0  0  0
 26 27  1  0  0  0  0
 26 24  1  0  0  0  0
 28 26  2  0  0  0  0
 31 30  1  6  0  0  0
 31 29  1  0  0  0  0
M  END
>  <MODEL>
9

>  <REMARK>
 VINA RESULT:      -5.7      2.971      5.198
  Name = 
  5 active torsions:
  status: ('A' for Active; 'I' for Inactive)
    1  A    between atoms: C_1  and  C_19
    2  A    between atoms: C_9  and  C_19
    3  A    between atoms: C_9  and  C_23
    4  A    between atoms: C_15  and  C_23
    5  A    between atoms: C_19  and  C_22
                            x       y       z     vdW  Elec       q    Type
                         _______ _______ _______ _____ _____    ______ ____

>  <TORSDO>
F 5

$$$$
