=
 OpenBabel11052415113D

 55 60  0  0  1  0  0  0  0  0999 V2000
  188.7430  177.1320  139.3040 C   0  0  0  0  0  2  0  0  0  0  0  0
  191.3540  176.8620  138.3090 C   0  0  2  0  0  3  0  0  0  0  0  0
  191.2020  177.5100  139.6960 C   0  0  0  0  0  2  0  0  0  0  0  0
  189.0770  176.1780  138.1430 C   0  0  0  0  0  2  0  0  0  0  0  0
  189.8570  177.1680  140.3460 C   0  0  1  0  0  3  0  0  0  0  0  0
  190.4680  175.7100  138.1750 N   0  0  0  0  0  2  0  0  0  0  0  0
  193.0550  175.1940  137.7060 C   0  0  0  0  0  3  0  0  0  0  0  0
  192.7620  176.4350  138.0800 C   0  0  0  0  0  3  0  0  0  0  0  0
  196.9450  174.4350  135.4800 O   0  0  0  0  0  1  0  0  0  0  0  0
  195.5030  175.2680  138.3030 C   0  0  1  0  0  3  0  0  0  0  0  0
  196.3630  173.7600  136.5630 C   0  0  1  0  0  0  0  0  0  0  0  0
  196.7230  174.4740  137.8760 C   0  0  1  0  0  3  0  0  0  0  0  0
  194.4070  174.7640  137.4950 N   0  0  0  0  0  0  0  0  0  0  0  0
  197.8290  175.3170  137.7420 O   0  0  0  0  0  1  0  0  0  0  0  0
  195.2450  175.0090  139.7770 C   0  0  0  0  0  1  0  0  0  0  0  0
  194.8270  173.8230  136.4650 C   0  0  1  0  0  3  0  0  0  0  0  0
  196.6950  170.2610  135.6370 C   0  0  0  0  0  0  0  0  0  0  0  0
  196.8850  172.3080  136.5760 C   0  0  1  0  0  3  0  0  0  0  0  0
  195.0340  171.4630  138.1150 C   0  0  0  0  0  1  0  0  0  0  0  0
  196.5080  171.3960  137.7380 C   0  0  1  0  0  3  0  0  0  0  0  0
  197.8510  169.6280  134.8710 C   0  0  0  0  0  1  0  0  0  0  0  0
  196.7850  170.0430  137.1560 C   0  0  2  0  0  3  0  0  0  0  0  0
  195.4070  169.6330  135.1380 C   0  0  0  0  0  1  0  0  0  0  0  0
  198.0600  169.6280  137.5580 O   0  0  0  0  0  1  0  0  0  0  0  0
  196.6570  171.6440  135.3580 O   0  0  0  0  0  0  0  0  0  0  0  0
  194.4020  174.2690  135.2040 O   0  0  0  0  0  0  0  0  0  0  0  0
  193.8060  173.1600  134.5940 C   0  0  0  0  0  2  0  0  0  0  0  0
  192.9160  172.4320  135.5850 C   0  0  0  0  0  2  0  0  0  0  0  0
  191.6330  172.9460  135.5380 F   0  0  0  0  0  0  0  0  0  0  0  0
  189.5490  178.1010  141.3370 O   0  0  0  0  0  0  0  0  0  0  0  0
  188.2370  178.5020  141.0650 C   0  0  0  0  0  2  0  0  0  0  0  0
  187.5710  177.5160  145.9280 C   0  0  0  0  0  2  0  0  0  0  0  0
  185.7720  177.9090  139.5560 C   0  0  0  0  0  2  0  0  0  0  0  0
  185.7700  178.6580  146.8550 C   0  0  0  0  0  2  0  0  0  0  0  0
  185.6820  178.2080  144.4170 N   0  0  0  0  0  0  0  0  0  0  0  0
  185.0040  178.8410  145.5500 C   0  0  0  0  0  2  0  0  0  0  0  0
  187.1970  178.7510  146.6010 N   0  0  0  0  0  2  0  0  0  0  0  0
  186.9210  177.4200  144.5370 C   0  0  1  0  0  3  0  0  0  0  0  0
  185.8690  178.3140  142.0690 C   0  0  0  0  0  0  0  0  0  0  0  0
  184.0700  179.1250  140.6470 O   0  0  0  0  0  0  0  0  0  0  0  0
  185.1360  178.4010  143.1390 N   0  0  0  0  0  0  0  0  0  0  0  0
  184.1160  179.5750  139.3170 C   0  0  1  0  0  3  0  0  0  0  0  0
  187.8670  177.7350  143.3980 C   0  0  0  0  0  0  0  0  0  0  0  0
  184.9220  178.5650  138.5110 C   0  0  0  0  0  2  0  0  0  0  0  0
  187.3450  178.1180  142.2060 C   0  0  0  0  0  0  0  0  0  0  0  0
  185.2290  178.4370  140.7880 N   0  0  0  0  0  0  0  0  0  0  0  0
  189.3370  177.4330  143.6040 C   0  0  2  0  0  3  0  0  0  0  0  0
  189.7300  175.9570  143.7240 C   0  0  0  0  0  2  0  0  0  0  0  0
  191.1950  175.6880  143.4240 C   0  0  0  0  0  1  0  0  0  0  0  0
  191.1310  178.9440  143.9990 O   0  0  0  0  0  0  0  0  0  0  0  0
  190.1080  178.4260  144.4260 C   0  0  0  0  0  3  0  0  0  0  0  0
  182.7070  179.7000  138.7620 C   0  0  0  0  0  2  0  0  0  0  0  0
  181.7300  179.5150  139.8250 N   0  0  0  0  0  2  0  0  0  0  0  0
  180.7980  178.4860  139.3900 C   0  0  0  0  0  2  0  0  0  0  0  0
  180.9620  178.2460  138.0240 O   0  0  0  0  0  1  0  0  0  0  0  0
  1  5  1  0  0  0  0
  2  8  1  1  0  0  0
  2  3  1  0  0  0  0
  3  5  1  0  0  0  0
  4  6  1  0  0  0  0
  4  1  1  0  0  0  0
  5 30  1  1  0  0  0
  6  2  1  0  0  0  0
  7  8  2  0  0  0  0
 10 15  1  1  0  0  0
 11  9  1  6  0  0  0
 11 18  1  0  0  0  0
 11 12  1  0  0  0  0
 12 14  1  6  0  0  0
 12 10  1  0  0  0  0
 13  7  1  0  0  0  0
 13 10  1  0  0  0  0
 16 26  1  6  0  0  0
 16 11  1  0  0  0  0
 16 13  1  0  0  0  0
 17 22  1  0  0  0  0
 18 25  1  6  0  0  0
 18 20  1  0  0  0  0
 20 19  1  6  0  0  0
 21 17  1  0  0  0  0
 22 24  1  6  0  0  0
 22 20  1  0  0  0  0
 23 17  1  0  0  0  0
 25 17  1  0  0  0  0
 27 26  1  0  0  0  0
 27 28  1  0  0  0  0
 29 28  1  0  0  0  0
 31 30  1  0  0  0  0
 31 45  1  0  0  0  0
 32 37  1  0  0  0  0
 33 46  1  0  0  0  0
 35 38  1  0  0  0  0
 35 36  1  0  0  0  0
 36 34  1  0  0  0  0
 37 34  1  0  0  0  0
 38 32  1  1  0  0  0
 39 45  1  0  0  0  0
 39 41  2  0  0  0  0
 40 46  1  0  0  0  0
 41 35  1  0  0  0  0
 42 52  1  6  0  0  0
 42 40  1  0  0  0  0
 43 47  1  0  0  0  0
 43 38  1  0  0  0  0
 44 42  1  0  0  0  0
 44 33  1  0  0  0  0
 45 43  2  0  0  0  0
 46 39  1  0  0  0  0
 47 48  1  1  0  0  0
 47 51  1  0  0  0  0
 49 48  1  0  0  0  0
 50 51  2  0  0  0  0
 52 53  1  0  0  0  0
 54 53  1  0  0  0  0
 55 54  1  0  0  0  0
M  END
>  <MODEL>
1

>  <REMARK>
 VINA RESULT:      -6.5      0.000      0.000
  Name = 
  15 active torsions:
  status: ('A' for Active; 'I' for Inactive)
    1  A    between atoms: O_2  and  C_28
    2  A    between atoms: O_2  and  C_44
    3  A    between atoms: O_3  and  C_38
    4  A    between atoms: O_3  and  C_46
    5  A    between atoms: C_4  and  C_19
    6  A    between atoms: C_6  and  C_20
    7  A    between atoms: C_10  and  N_18
    8  A    between atoms: C_11  and  C_38
    9  A    between atoms: N_18  and  C_32
   10  A    between atoms: C_19  and  C_40
   11  A    between atoms: C_19  and  C_45
   12  A    between atoms: C_27  and  C_54
   13  A    between atoms: C_28  and  C_49
   14  A    between atoms: C_32  and  C_39
   15  A    between atoms: N_35  and  C_51
                            x       y       z     vdW  Elec       q    Type
                         _______ _______ _______ _____ _____    ______ ____

>  <TORSDO>
F 15

$$$$
=
 OpenBabel11052415113D

 55 60  0  0  1  0  0  0  0  0999 V2000
  186.3090  178.3610  142.2700 C   0  0  0  0  0  2  0  0  0  0  0  0
  188.3880  177.4000  140.6490 C   0  0  2  0  0  3  0  0  0  0  0  0
  187.2200  178.1030  139.9370 C   0  0  0  0  0  2  0  0  0  0  0  0
  187.6890  177.9970  142.8470 C   0  0  0  0  0  2  0  0  0  0  0  0
  186.4240  179.0010  140.8900 C   0  0  1  0  0  3  0  0  0  0  0  0
  188.7680  178.1210  141.8600 N   0  0  0  0  0  2  0  0  0  0  0  0
  190.1020  176.1140  139.4430 C   0  0  0  0  0  3  0  0  0  0  0  0
  189.5670  177.2930  139.7440 C   0  0  0  0  0  3  0  0  0  0  0  0
  192.4700  175.9190  135.5680 O   0  0  0  0  0  1  0  0  0  0  0  0
  192.3770  176.9000  138.6930 C   0  0  1  0  0  3  0  0  0  0  0  0
  192.7170  175.3440  136.8220 C   0  0  1  0  0  0  0  0  0  0  0  0
  193.4210  176.3630  137.7330 C   0  0  1  0  0  3  0  0  0  0  0  0
  191.2450  175.9960  138.5850 N   0  0  0  0  0  0  0  0  0  0  0  0
  194.0050  177.4100  137.0150 O   0  0  0  0  0  1  0  0  0  0  0  0
  192.9500  176.8740  140.1000 C   0  0  0  0  0  1  0  0  0  0  0  0
  191.3880  175.0070  137.5250 C   0  0  1  0  0  3  0  0  0  0  0  0
  195.4630  173.0120  137.3100 C   0  0  0  0  0  0  0  0  0  0  0  0
  193.6010  174.0940  136.6240 C   0  0  1  0  0  3  0  0  0  0  0  0
  195.2120  175.2640  135.0270 C   0  0  0  0  0  1  0  0  0  0  0  0
  194.4570  173.9850  135.3660 C   0  0  1  0  0  3  0  0  0  0  0  0
  195.3860  171.6410  137.9720 C   0  0  0  0  0  1  0  0  0  0  0  0
  195.4530  172.9430  135.7740 C   0  0  2  0  0  3  0  0  0  0  0  0
  196.7570  173.6700  137.7520 C   0  0  0  0  0  1  0  0  0  0  0  0
  195.0260  171.6960  135.3010 O   0  0  0  0  0  1  0  0  0  0  0  0
  194.3820  173.8020  137.7550 O   0  0  0  0  0  0  0  0  0  0  0  0
  190.2980  175.0840  136.6450 O   0  0  0  0  0  0  0  0  0  0  0  0
  189.7260  173.8080  136.6440 C   0  0  0  0  0  2  0  0  0  0  0  0
  188.2190  173.9070  136.7910 C   0  0  0  0  0  2  0  0  0  0  0  0
  187.6240  173.9930  135.5460 F   0  0  0  0  0  0  0  0  0  0  0  0
  185.1500  179.2410  140.3730 O   0  0  0  0  0  0  0  0  0  0  0  0
  184.3240  178.2910  140.9800 C   0  0  0  0  0  2  0  0  0  0  0  0
  179.7520  180.2020  141.6970 C   0  0  0  0  0  2  0  0  0  0  0  0
  184.3290  176.5160  138.6240 C   0  0  0  0  0  2  0  0  0  0  0  0
  178.9310  181.3350  139.8390 C   0  0  0  0  0  2  0  0  0  0  0  0
  180.6040  179.5510  139.4210 N   0  0  0  0  0  0  0  0  0  0  0  0
  179.7760  180.5930  138.8100 C   0  0  0  0  0  2  0  0  0  0  0  0
  179.6950  181.5110  141.0630 N   0  0  0  0  0  2  0  0  0  0  0  0
  180.5690  179.2080  140.8540 C   0  0  1  0  0  3  0  0  0  0  0  0
  182.5790  178.3100  139.0810 C   0  0  0  0  0  0  0  0  0  0  0  0
  183.4520  177.8200  136.8640 O   0  0  0  0  0  0  0  0  0  0  0  0
  181.5120  178.8700  138.5960 N   0  0  0  0  0  0  0  0  0  0  0  0
  184.7420  177.4170  136.4810 C   0  0  1  0  0  3  0  0  0  0  0  0
  181.9660  178.9640  141.3800 C   0  0  0  0  0  0  0  0  0  0  0  0
  185.1720  176.2860  137.4070 C   0  0  0  0  0  2  0  0  0  0  0  0
  182.9080  178.4900  140.5280 C   0  0  0  0  0  0  0  0  0  0  0  0
  183.4200  177.5550  138.1930 N   0  0  0  0  0  0  0  0  0  0  0  0
  182.1870  179.0990  142.8730 C   0  0  2  0  0  3  0  0  0  0  0  0
  183.5620  179.5990  143.3260 C   0  0  0  0  0  2  0  0  0  0  0  0
  183.8740  179.2950  144.7810 C   0  0  0  0  0  1  0  0  0  0  0  0
  180.4090  178.3200  144.2470 O   0  0  0  0  0  0  0  0  0  0  0  0
  181.4970  178.0840  143.7390 C   0  0  0  0  0  3  0  0  0  0  0  0
  184.7330  176.9500  135.0350 C   0  0  0  0  0  2  0  0  0  0  0  0
  184.5500  175.5070  134.9730 N   0  0  0  0  0  2  0  0  0  0  0  0
  183.1680  175.2550  134.5950 C   0  0  0  0  0  2  0  0  0  0  0  0
  182.8940  173.8880  134.6870 O   0  0  0  0  0  1  0  0  0  0  0  0
  1  4  1  0  0  0  0
  2  8  1  6  0  0  0
  2  6  1  0  0  0  0
  3  2  1  0  0  0  0
  3  5  1  0  0  0  0
  5 30  1  6  0  0  0
  5  1  1  0  0  0  0
  6  4  1  0  0  0  0
  7  8  2  0  0  0  0
 10 15  1  1  0  0  0
 11  9  1  6  0  0  0
 11 16  1  0  0  0  0
 11 12  1  0  0  0  0
 12 14  1  6  0  0  0
 12 10  1  0  0  0  0
 13 10  1  0  0  0  0
 13  7  1  0  0  0  0
 16 26  1  6  0  0  0
 16 13  1  0  0  0  0
 17 23  1  0  0  0  0
 17 25  1  0  0  0  0
 17 21  1  0  0  0  0
 18 11  1  0  0  0  0
 18 25  1  1  0  0  0
 20 19  1  1  0  0  0
 20 22  1  0  0  0  0
 20 18  1  0  0  0  0
 22 24  1  1  0  0  0
 22 17  1  0  0  0  0
 27 26  1  0  0  0  0
 27 28  1  0  0  0  0
 29 28  1  0  0  0  0
 30 31  1  0  0  0  0
 34 37  1  0  0  0  0
 35 38  1  0  0  0  0
 36 35  1  0  0  0  0
 36 34  1  0  0  0  0
 37 32  1  0  0  0  0
 38 43  1  0  0  0  0
 38 32  1  1  0  0  0
 39 45  1  0  0  0  0
 40 46  1  0  0  0  0
 41 39  2  0  0  0  0
 41 35  1  0  0  0  0
 42 52  1  6  0  0  0
 42 40  1  0  0  0  0
 42 44  1  0  0  0  0
 43 47  1  0  0  0  0
 44 33  1  0  0  0  0
 45 31  1  0  0  0  0
 45 43  2  0  0  0  0
 46 33  1  0  0  0  0
 46 39  1  0  0  0  0
 47 48  1  6  0  0  0
 47 51  1  0  0  0  0
 48 49  1  0  0  0  0
 51 50  2  0  0  0  0
 53 52  1  0  0  0  0
 54 55  1  0  0  0  0
 54 53  1  0  0  0  0
M  END
>  <MODEL>
2

>  <REMARK>
 VINA RESULT:      -5.9      2.720      5.536
  Name = 
  15 active torsions:
  status: ('A' for Active; 'I' for Inactive)
    1  A    between atoms: O_2  and  C_28
    2  A    between atoms: O_2  and  C_44
    3  A    between atoms: O_3  and  C_38
    4  A    between atoms: O_3  and  C_46
    5  A    between atoms: C_4  and  C_19
    6  A    between atoms: C_6  and  C_20
    7  A    between atoms: C_10  and  N_18
    8  A    between atoms: C_11  and  C_38
    9  A    between atoms: N_18  and  C_32
   10  A    between atoms: C_19  and  C_40
   11  A    between atoms: C_19  and  C_45
   12  A    between atoms: C_27  and  C_54
   13  A    between atoms: C_28  and  C_49
   14  A    between atoms: C_32  and  C_39
   15  A    between atoms: N_35  and  C_51
                            x       y       z     vdW  Elec       q    Type
                         _______ _______ _______ _____ _____    ______ ____

>  <TORSDO>
F 15

$$$$
=
 OpenBabel11052415113D

 55 60  0  0  1  0  0  0  0  0999 V2000
  190.4680  172.5240  135.8770 C   0  0  0  0  0  2  0  0  0  0  0  0
  187.6620  172.5430  135.8680 C   0  0  2  0  0  3  0  0  0  0  0  0
  188.3620  173.6720  136.6430 C   0  0  0  0  0  2  0  0  0  0  0  0
  189.6520  171.7150  134.8520 C   0  0  0  0  0  2  0  0  0  0  0  0
  189.8130  173.8660  136.1900 C   0  0  1  0  0  3  0  0  0  0  0  0
  188.3300  172.2960  134.5940 N   0  0  0  0  0  2  0  0  0  0  0  0
  185.4190  173.2100  136.6210 C   0  0  0  0  0  3  0  0  0  0  0  0
  186.2330  172.8820  135.6220 C   0  0  0  0  0  3  0  0  0  0  0  0
  181.7900  175.2000  134.7400 O   0  0  0  0  0  1  0  0  0  0  0  0
  183.0590  172.4970  136.0920 C   0  0  1  0  0  3  0  0  0  0  0  0
  181.9980  174.7130  136.0380 C   0  0  1  0  0  0  0  0  0  0  0  0
  181.7150  173.2020  136.0800 C   0  0  1  0  0  3  0  0  0  0  0  0
  184.0370  173.5250  136.4010 N   0  0  0  0  0  0  0  0  0  0  0  0
  180.9490  172.7700  134.9940 O   0  0  0  0  0  1  0  0  0  0  0  0
  183.0400  171.4330  137.1760 C   0  0  0  0  0  1  0  0  0  0  0  0
  183.4780  174.8700  136.4350 C   0  0  1  0  0  3  0  0  0  0  0  0
  180.5600  177.4700  137.9210 C   0  0  0  0  0  0  0  0  0  0  0  0
  181.0550  175.4660  137.0020 C   0  0  1  0  0  3  0  0  0  0  0  0
  182.6310  175.2570  138.9970 C   0  0  0  0  0  1  0  0  0  0  0  0
  181.1910  175.2340  138.5030 C   0  0  1  0  0  3  0  0  0  0  0  0
  179.2280  178.1610  137.6500 C   0  0  0  0  0  1  0  0  0  0  0  0
  180.4830  176.4330  139.0540 C   0  0  2  0  0  3  0  0  0  0  0  0
  181.5650  178.5360  138.3150 C   0  0  0  0  0  1  0  0  0  0  0  0
  179.1630  176.0800  139.3620 O   0  0  0  0  0  1  0  0  0  0  0  0
  181.0070  176.8450  136.7380 O   0  0  0  0  0  0  0  0  0  0  0  0
  184.1720  175.7030  135.5440 O   0  0  0  0  0  0  0  0  0  0  0  0
  184.0950  176.9870  136.0920 C   0  0  0  0  0  2  0  0  0  0  0  0
  184.7150  177.0050  137.4770 C   0  0  0  0  0  2  0  0  0  0  0  0
  184.9420  178.3080  137.8800 F   0  0  0  0  0  0  0  0  0  0  0  0
  190.5420  174.5290  137.1780 O   0  0  0  0  0  0  0  0  0  0  0  0
  190.4820  175.8820  136.8280 C   0  0  0  0  0  2  0  0  0  0  0  0
  188.4940  178.5890  140.5410 C   0  0  0  0  0  2  0  0  0  0  0  0
  193.4230  176.1260  136.8490 C   0  0  0  0  0  2  0  0  0  0  0  0
  189.3310  178.0220  142.6370 C   0  0  0  0  0  2  0  0  0  0  0  0
  190.7960  177.5820  140.6830 N   0  0  0  0  0  0  0  0  0  0  0  0
  190.6550  177.4590  142.1360 C   0  0  0  0  0  2  0  0  0  0  0  0
  188.2770  177.7140  141.6840 N   0  0  0  0  0  2  0  0  0  0  0  0
  189.8060  178.2430  139.8150 C   0  0  1  0  0  3  0  0  0  0  0  0
  191.9140  176.6320  138.8380 C   0  0  0  0  0  0  0  0  0  0  0  0
  194.0770  175.5390  139.0390 O   0  0  0  0  0  0  0  0  0  0  0  0
  191.9230  176.9990  140.0850 N   0  0  0  0  0  0  0  0  0  0  0  0
  194.7110  174.6440  138.1600 C   0  0  1  0  0  3  0  0  0  0  0  0
  189.6080  177.4590  138.5360 C   0  0  0  0  0  0  0  0  0  0  0  0
  194.6140  175.2220  136.7550 C   0  0  0  0  0  2  0  0  0  0  0  0
  190.6430  176.7280  138.0550 C   0  0  0  0  0  0  0  0  0  0  0  0
  193.1290  176.1220  138.2650 N   0  0  0  0  0  0  0  0  0  0  0  0
  188.3180  177.6770  137.7730 C   0  0  2  0  0  3  0  0  0  0  0  0
  187.7800  176.4880  136.9710 C   0  0  0  0  0  2  0  0  0  0  0  0
  187.6180  176.7740  135.4870 C   0  0  0  0  0  1  0  0  0  0  0  0
  189.0270  179.8590  137.1450 O   0  0  0  0  0  0  0  0  0  0  0  0
  188.1100  179.0510  137.2010 C   0  0  0  0  0  3  0  0  0  0  0  0
  196.1640  174.4600  138.5650 C   0  0  0  0  0  2  0  0  0  0  0  0
  196.9060  173.8120  137.4930 N   0  0  0  0  0  2  0  0  0  0  0  0
  198.2060  174.4580  137.4050 C   0  0  0  0  0  2  0  0  0  0  0  0
  198.0980  175.6400  136.6680 O   0  0  0  0  0  1  0  0  0  0  0  0
  1  5  1  0  0  0  0
  2  8  1  6  0  0  0
  2  3  1  0  0  0  0
  4  1  1  0  0  0  0
  5  3  1  0  0  0  0
  5 30  1  1  0  0  0
  6  4  1  0  0  0  0
  6  2  1  0  0  0  0
  8  7  2  0  0  0  0
 10 13  1  0  0  0  0
 10 15  1  1  0  0  0
 11  9  1  6  0  0  0
 11 12  1  0  0  0  0
 11 16  1  0  0  0  0
 11 18  1  0  0  0  0
 12 14  1  6  0  0  0
 12 10  1  0  0  0  0
 13 16  1  0  0  0  0
 13  7  1  0  0  0  0
 16 26  1  6  0  0  0
 17 23  1  0  0  0  0
 17 22  1  0  0  0  0
 18 25  1  1  0  0  0
 18 20  1  0  0  0  0
 20 19  1  1  0  0  0
 20 22  1  0  0  0  0
 21 17  1  0  0  0  0
 22 24  1  6  0  0  0
 25 17  1  0  0  0  0
 26 27  1  0  0  0  0
 27 28  1  0  0  0  0
 28 29  1  0  0  0  0
 31 30  1  0  0  0  0
 31 45  1  0  0  0  0
 32 37  1  0  0  0  0
 33 46  1  0  0  0  0
 35 36  1  0  0  0  0
 36 34  1  0  0  0  0
 37 34  1  0  0  0  0
 38 32  1  1  0  0  0
 38 35  1  0  0  0  0
 39 41  2  0  0  0  0
 41 35  1  0  0  0  0
 42 52  1  1  0  0  0
 42 40  1  0  0  0  0
 43 38  1  0  0  0  0
 44 33  1  0  0  0  0
 44 42  1  0  0  0  0
 45 43  2  0  0  0  0
 45 39  1  0  0  0  0
 46 39  1  0  0  0  0
 46 40  1  0  0  0  0
 47 48  1  6  0  0  0
 47 43  1  0  0  0  0
 49 48  1  0  0  0  0
 50 51  2  0  0  0  0
 51 47  1  0  0  0  0
 53 52  1  0  0  0  0
 54 53  1  0  0  0  0
 55 54  1  0  0  0  0
M  END
>  <MODEL>
3

>  <REMARK>
 VINA RESULT:      -5.9      3.701     11.482
  Name = 
  15 active torsions:
  status: ('A' for Active; 'I' for Inactive)
    1  A    between atoms: O_2  and  C_28
    2  A    between atoms: O_2  and  C_44
    3  A    between atoms: O_3  and  C_38
    4  A    between atoms: O_3  and  C_46
    5  A    between atoms: C_4  and  C_19
    6  A    between atoms: C_6  and  C_20
    7  A    between atoms: C_10  and  N_18
    8  A    between atoms: C_11  and  C_38
    9  A    between atoms: N_18  and  C_32
   10  A    between atoms: C_19  and  C_40
   11  A    between atoms: C_19  and  C_45
   12  A    between atoms: C_27  and  C_54
   13  A    between atoms: C_28  and  C_49
   14  A    between atoms: C_32  and  C_39
   15  A    between atoms: N_35  and  C_51
                            x       y       z     vdW  Elec       q    Type
                         _______ _______ _______ _____ _____    ______ ____

>  <TORSDO>
F 15

$$$$
=
 OpenBabel11052415113D

 55 60  0  0  1  0  0  0  0  0999 V2000
  188.3400  177.6800  140.9260 C   0  0  0  0  0  2  0  0  0  0  0  0
  190.3750  176.5220  139.3800 C   0  0  2  0  0  3  0  0  0  0  0  0
  189.2820  177.2950  138.6230 C   0  0  0  0  0  2  0  0  0  0  0  0
  189.6740  177.2250  141.5460 C   0  0  0  0  0  2  0  0  0  0  0  0
  188.5350  178.2740  139.5350 C   0  0  1  0  0  3  0  0  0  0  0  0
  190.7810  177.2410  140.5830 N   0  0  0  0  0  2  0  0  0  0  0  0
  192.1110  175.0980  138.3770 C   0  0  0  0  0  3  0  0  0  0  0  0
  191.5630  176.3020  138.5080 C   0  0  0  0  0  3  0  0  0  0  0  0
  194.6280  174.9330  134.5960 O   0  0  0  0  0  1  0  0  0  0  0  0
  194.5300  175.5330  137.8160 C   0  0  1  0  0  3  0  0  0  0  0  0
  194.6950  174.1760  135.7740 C   0  0  1  0  0  0  0  0  0  0  0  0
  195.5160  174.9300  136.8330 C   0  0  1  0  0  3  0  0  0  0  0  0
  193.2630  174.8740  137.5530 N   0  0  0  0  0  0  0  0  0  0  0  0
  196.3190  175.9290  136.2760 O   0  0  0  0  0  1  0  0  0  0  0  0
  195.0060  175.2330  139.2280 C   0  0  0  0  0  1  0  0  0  0  0  0
  193.2880  174.0110  136.3800 C   0  0  1  0  0  3  0  0  0  0  0  0
  195.2370  170.5820  135.7600 C   0  0  0  0  0  0  0  0  0  0  0  0
  195.3500  172.8170  135.4480 C   0  0  1  0  0  3  0  0  0  0  0  0
  196.7290  172.7620  137.5940 C   0  0  0  0  0  1  0  0  0  0  0  0
  196.6810  172.4620  136.1020 C   0  0  1  0  0  3  0  0  0  0  0  0
  194.9920  169.6290  134.5950 C   0  0  0  0  0  1  0  0  0  0  0  0
  196.7150  170.9760  135.9180 C   0  0  2  0  0  3  0  0  0  0  0  0
  194.7870  169.8870  137.0320 C   0  0  0  0  0  1  0  0  0  0  0  0
  197.4700  170.6760  134.7770 O   0  0  0  0  0  1  0  0  0  0  0  0
  194.4550  171.7430  135.5810 O   0  0  0  0  0  0  0  0  0  0  0  0
  192.2820  174.3930  135.4790 O   0  0  0  0  0  0  0  0  0  0  0  0
  191.4910  173.2550  135.2930 C   0  0  0  0  0  2  0  0  0  0  0  0
  190.0420  173.5630  135.6230 C   0  0  0  0  0  2  0  0  0  0  0  0
  189.7400  173.1190  136.8970 F   0  0  0  0  0  0  0  0  0  0  0  0
  187.2960  178.5990  138.9810 O   0  0  0  0  0  0  0  0  0  0  0  0
  186.5400  177.4260  139.0640 C   0  0  0  0  0  2  0  0  0  0  0  0
  183.4960  176.6440  135.1670 C   0  0  0  0  0  2  0  0  0  0  0  0
  185.3260  179.3570  140.9360 C   0  0  0  0  0  2  0  0  0  0  0  0
  181.3730  175.9280  135.7920 C   0  0  0  0  0  2  0  0  0  0  0  0
  182.6400  177.2750  137.4470 N   0  0  0  0  0  0  0  0  0  0  0  0
  181.4040  176.5310  137.1920 C   0  0  0  0  0  2  0  0  0  0  0  0
  182.7000  175.4550  135.4350 N   0  0  0  0  0  2  0  0  0  0  0  0
  183.6970  177.4800  136.4430 C   0  0  1  0  0  3  0  0  0  0  0  0
  184.0330  178.0160  139.1980 C   0  0  0  0  0  0  0  0  0  0  0  0
  183.1930  178.4790  141.4340 O   0  0  0  0  0  0  0  0  0  0  0  0
  182.8390  177.7840  138.7390 N   0  0  0  0  0  0  0  0  0  0  0  0
  183.8930  178.5850  142.6470 C   0  0  1  0  0  3  0  0  0  0  0  0
  185.0660  177.3210  137.0670 C   0  0  0  0  0  0  0  0  0  0  0  0
  185.1010  179.4840  142.4120 C   0  0  0  0  0  2  0  0  0  0  0  0
  185.2220  177.6260  138.3800 C   0  0  0  0  0  0  0  0  0  0  0  0
  184.1620  178.6190  140.4970 N   0  0  0  0  0  0  0  0  0  0  0  0
  186.2240  176.9970  136.1460 C   0  0  2  0  0  3  0  0  0  0  0  0
  187.1220  175.8240  136.5500 C   0  0  0  0  0  2  0  0  0  0  0  0
  186.6810  174.4890  135.9740 C   0  0  0  0  0  1  0  0  0  0  0  0
  188.0640  178.4090  135.6190 O   0  0  0  0  0  0  0  0  0  0  0  0
  186.8750  178.1670  135.4640 C   0  0  0  0  0  3  0  0  0  0  0  0
  182.9900  179.1730  143.7190 C   0  0  0  0  0  2  0  0  0  0  0  0
  181.7490  179.6490  143.1240 N   0  0  0  0  0  2  0  0  0  0  0  0
  180.7060  178.6910  143.4560 C   0  0  0  0  0  2  0  0  0  0  0  0
  180.1890  178.1310  142.2850 O   0  0  0  0  0  1  0  0  0  0  0  0
  1  4  1  0  0  0  0
  2  8  1  6  0  0  0
  2  6  1  0  0  0  0
  3  2  1  0  0  0  0
  3  5  1  0  0  0  0
  5 30  1  6  0  0  0
  5  1  1  0  0  0  0
  6  4  1  0  0  0  0
  7  8  2  0  0  0  0
 10 15  1  1  0  0  0
 11  9  1  6  0  0  0
 11 16  1  0  0  0  0
 11 12  1  0  0  0  0
 12 14  1  6  0  0  0
 12 10  1  0  0  0  0
 13 10  1  0  0  0  0
 13  7  1  0  0  0  0
 16 26  1  6  0  0  0
 16 13  1  0  0  0  0
 17 22  1  0  0  0  0
 17 23  1  0  0  0  0
 18 25  1  1  0  0  0
 18 11  1  0  0  0  0
 18 20  1  0  0  0  0
 20 19  1  1  0  0  0
 21 17  1  0  0  0  0
 22 24  1  6  0  0  0
 22 20  1  0  0  0  0
 25 17  1  0  0  0  0
 27 26  1  0  0  0  0
 27 28  1  0  0  0  0
 28 29  1  0  0  0  0
 30 31  1  0  0  0  0
 32 37  1  0  0  0  0
 33 44  1  0  0  0  0
 34 36  1  0  0  0  0
 35 41  1  0  0  0  0
 36 35  1  0  0  0  0
 37 34  1  0  0  0  0
 38 32  1  6  0  0  0
 38 43  1  0  0  0  0
 38 35  1  0  0  0  0
 39 46  1  0  0  0  0
 40 42  1  0  0  0  0
 41 39  2  0  0  0  0
 42 52  1  1  0  0  0
 43 45  2  0  0  0  0
 44 42  1  0  0  0  0
 45 31  1  0  0  0  0
 45 39  1  0  0  0  0
 46 33  1  0  0  0  0
 46 40  1  0  0  0  0
 47 51  1  1  0  0  0
 47 48  1  0  0  0  0
 47 43  1  0  0  0  0
 49 48  1  0  0  0  0
 51 50  2  0  0  0  0
 53 54  1  0  0  0  0
 53 52  1  0  0  0  0
 55 54  1  0  0  0  0
M  END
>  <MODEL>
4

>  <REMARK>
 VINA RESULT:      -5.8      2.469      5.032
  Name = 
  15 active torsions:
  status: ('A' for Active; 'I' for Inactive)
    1  A    between atoms: O_2  and  C_28
    2  A    between atoms: O_2  and  C_44
    3  A    between atoms: O_3  and  C_38
    4  A    between atoms: O_3  and  C_46
    5  A    between atoms: C_4  and  C_19
    6  A    between atoms: C_6  and  C_20
    7  A    between atoms: C_10  and  N_18
    8  A    between atoms: C_11  and  C_38
    9  A    between atoms: N_18  and  C_32
   10  A    between atoms: C_19  and  C_40
   11  A    between atoms: C_19  and  C_45
   12  A    between atoms: C_27  and  C_54
   13  A    between atoms: C_28  and  C_49
   14  A    between atoms: C_32  and  C_39
   15  A    between atoms: N_35  and  C_51
                            x       y       z     vdW  Elec       q    Type
                         _______ _______ _______ _____ _____    ______ ____

>  <TORSDO>
F 15

$$$$
=
 OpenBabel11052415113D

 55 60  0  0  1  0  0  0  0  0999 V2000
  187.3620  177.4240  142.4410 C   0  0  0  0  0  2  0  0  0  0  0  0
  189.1370  176.7600  140.3710 C   0  0  2  0  0  3  0  0  0  0  0  0
  187.9980  177.7350  140.0250 C   0  0  0  0  0  2  0  0  0  0  0  0
  188.7380  176.7910  142.7200 C   0  0  0  0  0  2  0  0  0  0  0  0
  187.4160  178.4040  141.2730 C   0  0  1  0  0  3  0  0  0  0  0  0
  189.7200  177.0830  141.6690 N   0  0  0  0  0  2  0  0  0  0  0  0
  190.8440  175.6980  138.9560 C   0  0  0  0  0  3  0  0  0  0  0  0
  190.1980  176.7990  139.3260 C   0  0  0  0  0  3  0  0  0  0  0  0
  192.7180  175.8220  134.8160 O   0  0  0  0  0  1  0  0  0  0  0  0
  192.9060  176.7470  137.9550 C   0  0  1  0  0  3  0  0  0  0  0  0
  193.1820  175.2630  136.0160 C   0  0  1  0  0  0  0  0  0  0  0  0
  193.8760  176.3450  136.8600 C   0  0  1  0  0  3  0  0  0  0  0  0
  191.8780  175.7220  137.9620 N   0  0  0  0  0  0  0  0  0  0  0  0
  194.2460  177.4600  136.1040 O   0  0  0  0  0  1  0  0  0  0  0  0
  193.6490  176.7700  139.2800 C   0  0  0  0  0  1  0  0  0  0  0  0
  191.9970  174.7690  136.8660 C   0  0  1  0  0  3  0  0  0  0  0  0
  194.5720  171.9090  135.8510 C   0  0  0  0  0  0  0  0  0  0  0  0
  194.1690  174.1250  135.6780 C   0  0  1  0  0  3  0  0  0  0  0  0
  195.3460  174.2290  137.9390 C   0  0  0  0  0  1  0  0  0  0  0  0
  195.4900  174.0420  136.4350 C   0  0  1  0  0  3  0  0  0  0  0  0
  194.6570  171.0180  134.6160 C   0  0  0  0  0  1  0  0  0  0  0  0
  195.8950  172.6240  136.1710 C   0  0  2  0  0  3  0  0  0  0  0  0
  194.2030  171.0320  137.0330 C   0  0  0  0  0  1  0  0  0  0  0  0
  196.7870  172.5990  135.0930 O   0  0  0  0  0  1  0  0  0  0  0  0
  193.5500  172.8640  135.6640 O   0  0  0  0  0  0  0  0  0  0  0  0
  190.8040  174.7320  136.1290 O   0  0  0  0  0  0  0  0  0  0  0  0
  190.2690  173.4570  136.3440 C   0  0  0  0  0  2  0  0  0  0  0  0
  188.7550  173.5010  136.2550 C   0  0  0  0  0  2  0  0  0  0  0  0
  188.2690  172.2890  135.8030 F   0  0  0  0  0  0  0  0  0  0  0  0
  186.1360  178.8920  141.0060 O   0  0  0  0  0  0  0  0  0  0  0  0
  185.2630  177.9310  141.5250 C   0  0  0  0  0  2  0  0  0  0  0  0
  180.5540  179.0620  140.2560 C   0  0  0  0  0  2  0  0  0  0  0  0
  185.9820  179.2560  144.0610 C   0  0  0  0  0  2  0  0  0  0  0  0
  179.0060  178.5250  141.9080 C   0  0  0  0  0  2  0  0  0  0  0  0
  181.3290  178.9860  142.6480 N   0  0  0  0  0  0  0  0  0  0  0  0
  179.9850  178.5880  143.0740 C   0  0  0  0  0  2  0  0  0  0  0  0
  179.6800  177.9990  140.7320 N   0  0  0  0  0  2  0  0  0  0  0  0
  181.6770  179.3550  141.2650 C   0  0  1  0  0  3  0  0  0  0  0  0
  183.5960  178.8330  143.2740 C   0  0  0  0  0  0  0  0  0  0  0  0
  184.3040  178.6170  145.5910 O   0  0  0  0  0  0  0  0  0  0  0  0
  182.3490  178.9730  143.6110 N   0  0  0  0  0  0  0  0  0  0  0  0
  185.5330  178.1780  146.1130 C   0  0  1  0  0  3  0  0  0  0  0  0
  183.0170  178.7690  140.8760 C   0  0  0  0  0  0  0  0  0  0  0  0
  186.6430  178.8940  145.3560 C   0  0  0  0  0  2  0  0  0  0  0  0
  183.9440  178.5670  141.8440 C   0  0  0  0  0  0  0  0  0  0  0  0
  184.5980  178.9160  144.3020 N   0  0  0  0  0  0  0  0  0  0  0  0
  183.3070  178.6050  139.3980 C   0  0  2  0  0  3  0  0  0  0  0  0
  183.5880  177.1830  138.9030 C   0  0  0  0  0  2  0  0  0  0  0  0
  183.4400  177.0190  137.4000 C   0  0  0  0  0  1  0  0  0  0  0  0
  183.8240  180.8960  139.0250 O   0  0  0  0  0  0  0  0  0  0  0  0
  184.0570  179.7290  138.7420 C   0  0  0  0  0  3  0  0  0  0  0  0
  185.6080  178.4920  147.5980 C   0  0  0  0  0  2  0  0  0  0  0  0
  186.9280  179.0050  147.9370 N   0  0  0  0  0  2  0  0  0  0  0  0
  187.7460  177.8740  148.3460 C   0  0  0  0  0  2  0  0  0  0  0  0
  188.6610  178.2810  149.3210 O   0  0  0  0  0  1  0  0  0  0  0  0
  1  4  1  0  0  0  0
  2  8  1  6  0  0  0
  2  6  1  0  0  0  0
  3  2  1  0  0  0  0
  3  5  1  0  0  0  0
  5 30  1  6  0  0  0
  5  1  1  0  0  0  0
  6  4  1  0  0  0  0
  7  8  2  0  0  0  0
 10 13  1  0  0  0  0
 10 15  1  1  0  0  0
 11  9  1  6  0  0  0
 11 12  1  0  0  0  0
 11 16  1  0  0  0  0
 12 14  1  6  0  0  0
 12 10  1  0  0  0  0
 13  7  1  0  0  0  0
 16 26  1  6  0  0  0
 16 13  1  0  0  0  0
 17 22  1  0  0  0  0
 17 23  1  0  0  0  0
 18 25  1  1  0  0  0
 18 11  1  0  0  0  0
 18 20  1  0  0  0  0
 20 19  1  1  0  0  0
 21 17  1  0  0  0  0
 22 24  1  6  0  0  0
 22 20  1  0  0  0  0
 25 17  1  0  0  0  0
 26 27  1  0  0  0  0
 28 27  1  0  0  0  0
 29 28  1  0  0  0  0
 30 31  1  0  0  0  0
 31 45  1  0  0  0  0
 32 37  1  0  0  0  0
 33 46  1  0  0  0  0
 33 44  1  0  0  0  0
 34 36  1  0  0  0  0
 35 36  1  0  0  0  0
 35 41  1  0  0  0  0
 37 34  1  0  0  0  0
 38 32  1  6  0  0  0
 38 35  1  0  0  0  0
 39 41  2  0  0  0  0
 39 46  1  0  0  0  0
 40 42  1  0  0  0  0
 42 52  1  1  0  0  0
 43 38  1  0  0  0  0
 43 45  2  0  0  0  0
 44 42  1  0  0  0  0
 45 39  1  0  0  0  0
 46 40  1  0  0  0  0
 47 51  1  1  0  0  0
 47 43  1  0  0  0  0
 48 47  1  0  0  0  0
 49 48  1  0  0  0  0
 51 50  2  0  0  0  0
 52 53  1  0  0  0  0
 53 54  1  0  0  0  0
 54 55  1  0  0  0  0
M  END
>  <MODEL>
5

>  <REMARK>
 VINA RESULT:      -5.5      2.261      5.700
  Name = 
  15 active torsions:
  status: ('A' for Active; 'I' for Inactive)
    1  A    between atoms: O_2  and  C_28
    2  A    between atoms: O_2  and  C_44
    3  A    between atoms: O_3  and  C_38
    4  A    between atoms: O_3  and  C_46
    5  A    between atoms: C_4  and  C_19
    6  A    between atoms: C_6  and  C_20
    7  A    between atoms: C_10  and  N_18
    8  A    between atoms: C_11  and  C_38
    9  A    between atoms: N_18  and  C_32
   10  A    between atoms: C_19  and  C_40
   11  A    between atoms: C_19  and  C_45
   12  A    between atoms: C_27  and  C_54
   13  A    between atoms: C_28  and  C_49
   14  A    between atoms: C_32  and  C_39
   15  A    between atoms: N_35  and  C_51
                            x       y       z     vdW  Elec       q    Type
                         _______ _______ _______ _____ _____    ______ ____

>  <TORSDO>
F 15

$$$$
=
 OpenBabel11052415113D

 55 60  0  0  1  0  0  0  0  0999 V2000
  182.1000  178.6810  139.6730 C   0  0  0  0  0  2  0  0  0  0  0  0
  183.8570  178.3030  141.8290 C   0  0  2  0  0  3  0  0  0  0  0  0
  184.4650  178.2370  140.4180 C   0  0  0  0  0  2  0  0  0  0  0  0
  181.7290  179.0960  141.1090 C   0  0  0  0  0  2  0  0  0  0  0  0
  183.5770  178.9270  139.3770 C   0  0  1  0  0  3  0  0  0  0  0  0
  182.9030  179.4030  141.9330 N   0  0  0  0  0  2  0  0  0  0  0  0
  185.7790  177.4940  143.1300 C   0  0  0  0  0  3  0  0  0  0  0  0
  184.9250  178.4740  142.8540 C   0  0  0  0  0  3  0  0  0  0  0  0
  189.6090  179.0070  145.0560 O   0  0  0  0  0  1  0  0  0  0  0  0
  186.4990  178.0630  145.4790 C   0  0  1  0  0  3  0  0  0  0  0  0
  188.9260  177.7910  145.2070 C   0  0  1  0  0  0  0  0  0  0  0  0
  187.8030  177.9490  146.2450 C   0  0  1  0  0  3  0  0  0  0  0  0
  186.8040  177.6380  144.1240 N   0  0  0  0  0  0  0  0  0  0  0  0
  187.9840  179.0670  147.0650 O   0  0  0  0  0  1  0  0  0  0  0  0
  185.4790  177.1340  146.1140 C   0  0  0  0  0  1  0  0  0  0  0  0
  188.2240  177.4100  143.8900 C   0  0  1  0  0  3  0  0  0  0  0  0
  191.3780  176.0930  147.2850 C   0  0  0  0  0  0  0  0  0  0  0  0
  189.9350  176.7140  145.6610 C   0  0  1  0  0  3  0  0  0  0  0  0
  191.9590  177.9590  144.7310 C   0  0  0  0  0  1  0  0  0  0  0  0
  191.2800  176.6140  144.9490 C   0  0  1  0  0  3  0  0  0  0  0  0
  191.1570  174.8230  148.1000 C   0  0  0  0  0  1  0  0  0  0  0  0
  192.0850  175.8350  145.9440 C   0  0  2  0  0  3  0  0  0  0  0  0
  192.2410  177.0310  148.1090 C   0  0  0  0  0  1  0  0  0  0  0  0
  192.0650  174.4820  145.5850 O   0  0  0  0  0  1  0  0  0  0  0  0
  190.1330  176.7160  147.0520 O   0  0  0  0  0  0  0  0  0  0  0  0
  188.6670  178.1940  142.8150 O   0  0  0  0  0  0  0  0  0  0  0  0
  189.1310  177.2880  141.8550 C   0  0  0  0  0  2  0  0  0  0  0  0
  190.3230  177.8680  141.1170 C   0  0  0  0  0  2  0  0  0  0  0  0
  191.4910  177.2800  141.5640 F   0  0  0  0  0  0  0  0  0  0  0  0
  183.8860  178.4650  138.0970 O   0  0  0  0  0  0  0  0  0  0  0  0
  184.0730  177.0870  138.2420 C   0  0  0  0  0  2  0  0  0  0  0  0
  188.0470  175.9540  135.4150 C   0  0  0  0  0  2  0  0  0  0  0  0
  181.5810  176.6180  136.7340 C   0  0  0  0  0  2  0  0  0  0  0  0
  188.0010  173.7750  134.6010 C   0  0  0  0  0  2  0  0  0  0  0  0
  185.8160  174.8280  135.1260 N   0  0  0  0  0  0  0  0  0  0  0  0
  186.4870  173.6090  134.6690 C   0  0  0  0  0  2  0  0  0  0  0  0
  188.4530  174.5890  135.7160 N   0  0  0  0  0  2  0  0  0  0  0  0
  186.5150  176.0920  135.4120 C   0  0  1  0  0  3  0  0  0  0  0  0
  183.8370  175.5820  136.1610 C   0  0  0  0  0  0  0  0  0  0  0  0
  181.7260  174.3880  135.9770 O   0  0  0  0  0  0  0  0  0  0  0  0
  184.4300  174.7690  135.3390 N   0  0  0  0  0  0  0  0  0  0  0  0
  180.5730  174.4840  136.7750 C   0  0  1  0  0  3  0  0  0  0  0  0
  185.9580  176.7400  136.6620 C   0  0  0  0  0  0  0  0  0  0  0  0
  180.2530  175.9610  136.9570 C   0  0  0  0  0  2  0  0  0  0  0  0
  184.6590  176.5230  136.9830 C   0  0  0  0  0  0  0  0  0  0  0  0
  182.4040  175.5250  136.2660 N   0  0  0  0  0  0  0  0  0  0  0  0
  186.8390  177.7360  137.3870 C   0  0  2  0  0  3  0  0  0  0  0  0
  187.5150  178.8130  136.5310 C   0  0  0  0  0  2  0  0  0  0  0  0
  188.8840  179.2290  137.0420 C   0  0  0  0  0  1  0  0  0  0  0  0
  188.6920  176.6740  138.4320 O   0  0  0  0  0  0  0  0  0  0  0  0
  187.6010  177.2090  138.5690 C   0  0  0  0  0  3  0  0  0  0  0  0
  179.4150  173.7650  136.1020 C   0  0  0  0  0  2  0  0  0  0  0  0
  179.7800  172.3860  135.8120 N   0  0  0  0  0  2  0  0  0  0  0  0
  179.5000  171.5970  137.0020 C   0  0  0  0  0  2  0  0  0  0  0  0
  180.6510  171.5040  137.7880 O   0  0  0  0  0  1  0  0  0  0  0  0
  1  4  1  0  0  0  0
  2  6  1  0  0  0  0
  2  8  1  1  0  0  0
  3  2  1  0  0  0  0
  4  6  1  0  0  0  0
  5 30  1  6  0  0  0
  5  1  1  0  0  0  0
  5  3  1  0  0  0  0
  7 13  1  0  0  0  0
  8  7  2  0  0  0  0
 10 15  1  1  0  0  0
 10 12  1  0  0  0  0
 11  9  1  6  0  0  0
 11 18  1  0  0  0  0
 11 12  1  0  0  0  0
 12 14  1  6  0  0  0
 13 10  1  0  0  0  0
 16 26  1  6  0  0  0
 16 13  1  0  0  0  0
 16 11  1  0  0  0  0
 17 21  1  0  0  0  0
 17 23  1  0  0  0  0
 18 25  1  1  0  0  0
 20 19  1  1  0  0  0
 20 18  1  0  0  0  0
 20 22  1  0  0  0  0
 22 24  1  6  0  0  0
 22 17  1  0  0  0  0
 25 17  1  0  0  0  0
 27 26  1  0  0  0  0
 28 29  1  0  0  0  0
 28 27  1  0  0  0  0
 30 31  1  0  0  0  0
 32 37  1  0  0  0  0
 33 44  1  0  0  0  0
 34 36  1  0  0  0  0
 34 37  1  0  0  0  0
 35 41  1  0  0  0  0
 35 38  1  0  0  0  0
 36 35  1  0  0  0  0
 38 32  1  1  0  0  0
 38 43  1  0  0  0  0
 39 46  1  0  0  0  0
 39 45  1  0  0  0  0
 40 46  1  0  0  0  0
 40 42  1  0  0  0  0
 41 39  2  0  0  0  0
 42 52  1  6  0  0  0
 42 44  1  0  0  0  0
 43 45  2  0  0  0  0
 43 47  1  0  0  0  0
 45 31  1  0  0  0  0
 46 33  1  0  0  0  0
 47 48  1  6  0  0  0
 47 51  1  0  0  0  0
 48 49  1  0  0  0  0
 50 51  2  0  0  0  0
 53 52  1  0  0  0  0
 53 54  1  0  0  0  0
 54 55  1  0  0  0  0
M  END
>  <MODEL>
6

>  <REMARK>
 VINA RESULT:      -5.4      5.443      9.752
  Name = 
  15 active torsions:
  status: ('A' for Active; 'I' for Inactive)
    1  A    between atoms: O_2  and  C_28
    2  A    between atoms: O_2  and  C_44
    3  A    between atoms: O_3  and  C_38
    4  A    between atoms: O_3  and  C_46
    5  A    between atoms: C_4  and  C_19
    6  A    between atoms: C_6  and  C_20
    7  A    between atoms: C_10  and  N_18
    8  A    between atoms: C_11  and  C_38
    9  A    between atoms: N_18  and  C_32
   10  A    between atoms: C_19  and  C_40
   11  A    between atoms: C_19  and  C_45
   12  A    between atoms: C_27  and  C_54
   13  A    between atoms: C_28  and  C_49
   14  A    between atoms: C_32  and  C_39
   15  A    between atoms: N_35  and  C_51
                            x       y       z     vdW  Elec       q    Type
                         _______ _______ _______ _____ _____    ______ ____

>  <TORSDO>
F 15

$$$$
=
 OpenBabel11052415113D

 55 60  0  0  1  0  0  0  0  0999 V2000
  187.9670  177.7950  143.7590 C   0  0  0  0  0  2  0  0  0  0  0  0
  185.3610  178.5770  143.0670 C   0  0  2  0  0  3  0  0  0  0  0  0
  186.4060  178.5610  141.9380 C   0  0  0  0  0  2  0  0  0  0  0  0
  186.7580  177.4920  144.6640 C   0  0  0  0  0  2  0  0  0  0  0  0
  187.6090  177.6780  142.2800 C   0  0  1  0  0  3  0  0  0  0  0  0
  185.4990  177.3980  143.9170 N   0  0  0  0  0  2  0  0  0  0  0  0
  183.6950  178.0800  141.3300 C   0  0  0  0  0  3  0  0  0  0  0  0
  183.9820  178.6270  142.5070 C   0  0  0  0  0  3  0  0  0  0  0  0
  180.0280  176.6980  139.0250 O   0  0  0  0  0  1  0  0  0  0  0  0
  181.2030  178.3530  141.5990 C   0  0  1  0  0  3  0  0  0  0  0  0
  180.5280  177.9860  139.2650 C   0  0  1  0  0  0  0  0  0  0  0  0
  180.0410  178.4880  140.6330 C   0  0  1  0  0  3  0  0  0  0  0  0
  182.3750  178.1330  140.7700 N   0  0  0  0  0  0  0  0  0  0  0  0
  178.9340  177.7760  141.1030 O   0  0  0  0  0  1  0  0  0  0  0  0
  181.3380  179.6470  142.3830 C   0  0  0  0  0  1  0  0  0  0  0  0
  182.0650  177.9510  139.3580 C   0  0  1  0  0  3  0  0  0  0  0  0
  180.2460  179.4630  135.9550 C   0  0  0  0  0  0  0  0  0  0  0  0
  180.0360  178.9200  138.1390 C   0  0  1  0  0  3  0  0  0  0  0  0
  181.9390  180.5920  138.4460 C   0  0  0  0  0  1  0  0  0  0  0  0
  180.4580  180.3860  138.1560 C   0  0  1  0  0  3  0  0  0  0  0  0
  179.0860  179.2980  134.9810 C   0  0  0  0  0  1  0  0  0  0  0  0
  180.1950  180.7870  136.7360 C   0  0  2  0  0  3  0  0  0  0  0  0
  181.5350  179.4280  135.1550 C   0  0  0  0  0  1  0  0  0  0  0  0
  178.9380  181.3990  136.6620 O   0  0  0  0  0  1  0  0  0  0  0  0
  180.2490  178.3800  136.8600 O   0  0  0  0  0  0  0  0  0  0  0  0
  182.5890  176.7310  138.9030 O   0  0  0  0  0  0  0  0  0  0  0  0
  182.8490  176.9190  137.5420 C   0  0  0  0  0  2  0  0  0  0  0  0
  183.1230  175.5860  136.8710 C   0  0  0  0  0  2  0  0  0  0  0  0
  182.5890  174.5560  137.6230 F   0  0  0  0  0  0  0  0  0  0  0  0
  188.7080  178.0360  141.4990 O   0  0  0  0  0  0  0  0  0  0  0  0
  189.3310  176.8280  141.1690 C   0  0  0  0  0  2  0  0  0  0  0  0
  194.3010  177.0990  140.6280 C   0  0  0  0  0  2  0  0  0  0  0  0
  187.9850  177.8300  138.7420 C   0  0  0  0  0  2  0  0  0  0  0  0
  195.0810  175.9660  138.7520 C   0  0  0  0  0  2  0  0  0  0  0  0
  192.7430  176.7920  138.6770 N   0  0  0  0  0  0  0  0  0  0  0  0
  193.7800  176.0440  137.9630 C   0  0  0  0  0  2  0  0  0  0  0  0
  194.7860  175.8070  140.1660 N   0  0  0  0  0  2  0  0  0  0  0  0
  192.9550  177.4570  139.9740 C   0  0  1  0  0  3  0  0  0  0  0  0
  190.4030  177.0360  138.8320 C   0  0  0  0  0  0  0  0  0  0  0  0
  188.9130  176.5910  136.9620 O   0  0  0  0  0  0  0  0  0  0  0  0
  191.4620  176.8400  138.1050 N   0  0  0  0  0  0  0  0  0  0  0  0
  187.5290  176.3500  136.9610 C   0  0  1  0  0  3  0  0  0  0  0  0
  191.7620  177.2520  140.8820 C   0  0  0  0  0  0  0  0  0  0  0  0
  186.8700  177.4090  137.8350 C   0  0  0  0  0  2  0  0  0  0  0  0
  190.5370  177.0970  140.3200 C   0  0  0  0  0  0  0  0  0  0  0  0
  189.1330  177.1610  138.1720 N   0  0  0  0  0  0  0  0  0  0  0  0
  191.9800  177.4070  142.3730 C   0  0  2  0  0  3  0  0  0  0  0  0
  191.4740  176.2710  143.2670 C   0  0  0  0  0  2  0  0  0  0  0  0
  191.7770  176.4730  144.7420 C   0  0  0  0  0  1  0  0  0  0  0  0
  190.8900  179.2040  143.4870 O   0  0  0  0  0  0  0  0  0  0  0  0
  191.8940  178.8060  142.9130 C   0  0  0  0  0  3  0  0  0  0  0  0
  186.9910  176.4180  135.5400 C   0  0  0  0  0  2  0  0  0  0  0  0
  187.7800  175.5650  134.6630 N   0  0  0  0  0  2  0  0  0  0  0  0
  187.1680  174.2460  134.6660 C   0  0  0  0  0  2  0  0  0  0  0  0
  188.1530  173.2680  134.8310 O   0  0  0  0  0  1  0  0  0  0  0  0
  1  4  1  0  0  0  0
  2  8  1  6  0  0  0
  2  6  1  0  0  0  0
  3  5  1  0  0  0  0
  3  2  1  0  0  0  0
  5 30  1  6  0  0  0
  5  1  1  0  0  0  0
  6  4  1  0  0  0  0
  7  8  2  0  0  0  0
 10 15  1  6  0  0  0
 11  9  1  6  0  0  0
 11 16  1  0  0  0  0
 11 12  1  0  0  0  0
 12 14  1  1  0  0  0
 12 10  1  0  0  0  0
 13  7  1  0  0  0  0
 13 10  1  0  0  0  0
 16 26  1  1  0  0  0
 16 13  1  0  0  0  0
 17 22  1  0  0  0  0
 17 25  1  0  0  0  0
 18 25  1  6  0  0  0
 18 20  1  0  0  0  0
 18 11  1  0  0  0  0
 20 19  1  6  0  0  0
 21 17  1  0  0  0  0
 22 24  1  1  0  0  0
 22 20  1  0  0  0  0
 23 17  1  0  0  0  0
 27 26  1  0  0  0  0
 28 27  1  0  0  0  0
 28 29  1  0  0  0  0
 31 30  1  0  0  0  0
 34 37  1  0  0  0  0
 35 38  1  0  0  0  0
 36 35  1  0  0  0  0
 36 34  1  0  0  0  0
 37 32  1  0  0  0  0
 38 32  1  1  0  0  0
 38 43  1  0  0  0  0
 39 45  1  0  0  0  0
 40 46  1  0  0  0  0
 41 35  1  0  0  0  0
 41 39  2  0  0  0  0
 42 52  1  6  0  0  0
 42 40  1  0  0  0  0
 42 44  1  0  0  0  0
 43 47  1  0  0  0  0
 44 33  1  0  0  0  0
 45 43  2  0  0  0  0
 45 31  1  0  0  0  0
 46 33  1  0  0  0  0
 46 39  1  0  0  0  0
 47 51  1  1  0  0  0
 47 48  1  0  0  0  0
 48 49  1  0  0  0  0
 51 50  2  0  0  0  0
 53 54  1  0  0  0  0
 53 52  1  0  0  0  0
 54 55  1  0  0  0  0
M  END
>  <MODEL>
7

>  <REMARK>
 VINA RESULT:      -5.0      4.081     11.601
  Name = 
  15 active torsions:
  status: ('A' for Active; 'I' for Inactive)
    1  A    between atoms: O_2  and  C_28
    2  A    between atoms: O_2  and  C_44
    3  A    between atoms: O_3  and  C_38
    4  A    between atoms: O_3  and  C_46
    5  A    between atoms: C_4  and  C_19
    6  A    between atoms: C_6  and  C_20
    7  A    between atoms: C_10  and  N_18
    8  A    between atoms: C_11  and  C_38
    9  A    between atoms: N_18  and  C_32
   10  A    between atoms: C_19  and  C_40
   11  A    between atoms: C_19  and  C_45
   12  A    between atoms: C_27  and  C_54
   13  A    between atoms: C_28  and  C_49
   14  A    between atoms: C_32  and  C_39
   15  A    between atoms: N_35  and  C_51
                            x       y       z     vdW  Elec       q    Type
                         _______ _______ _______ _____ _____    ______ ____

>  <TORSDO>
F 15

$$$$
=
 OpenBabel11052415113D

 55 60  0  0  1  0  0  0  0  0999 V2000
  188.4550  173.6920  136.1100 C   0  0  0  0  0  2  0  0  0  0  0  0
  186.2740  175.3170  136.8030 C   0  0  2  0  0  3  0  0  0  0  0  0
  187.6320  175.6680  137.4350 C   0  0  0  0  0  2  0  0  0  0  0  0
  187.1570  173.7100  135.2810 C   0  0  0  0  0  2  0  0  0  0  0  0
  188.8040  175.0770  136.6450 C   0  0  1  0  0  3  0  0  0  0  0  0
  186.4320  174.9810  135.3910 N   0  0  0  0  0  2  0  0  0  0  0  0
  184.4840  176.5330  137.9680 C   0  0  0  0  0  3  0  0  0  0  0  0
  185.3220  176.4540  136.9390 C   0  0  0  0  0  3  0  0  0  0  0  0
  183.0030  180.7550  138.7750 O   0  0  0  0  0  1  0  0  0  0  0  0
  182.6730  178.0080  137.0180 C   0  0  1  0  0  3  0  0  0  0  0  0
  182.3670  179.5150  138.9350 C   0  0  1  0  0  0  0  0  0  0  0  0
  181.7540  179.0670  137.5980 C   0  0  1  0  0  3  0  0  0  0  0  0
  183.5510  177.6140  138.1050 N   0  0  0  0  0  0  0  0  0  0  0  0
  181.6030  180.1250  136.6970 O   0  0  0  0  0  1  0  0  0  0  0  0
  181.8300  176.8310  136.5580 C   0  0  0  0  0  1  0  0  0  0  0  0
  183.3990  178.4320  139.3020 C   0  0  1  0  0  3  0  0  0  0  0  0
  179.7850  178.5540  141.3050 C   0  0  0  0  0  0  0  0  0  0  0  0
  181.2700  179.6600  140.0110 C   0  0  1  0  0  3  0  0  0  0  0  0
  179.3590  179.6740  138.3200 C   0  0  0  0  0  1  0  0  0  0  0  0
  179.9190  180.2460  139.6150 C   0  0  1  0  0  3  0  0  0  0  0  0
  179.8960  178.5600  142.8250 C   0  0  0  0  0  1  0  0  0  0  0  0
  179.0530  179.7860  140.7480 C   0  0  2  0  0  3  0  0  0  0  0  0
  179.0100  177.3130  140.9000 C   0  0  0  0  0  1  0  0  0  0  0  0
  178.9540  180.8160  141.6920 O   0  0  0  0  0  1  0  0  0  0  0  0
  181.0780  178.4780  140.7460 O   0  0  0  0  0  0  0  0  0  0  0  0
  184.6360  178.9890  139.6640 O   0  0  0  0  0  0  0  0  0  0  0  0
  184.5220  179.3040  141.0220 C   0  0  0  0  0  2  0  0  0  0  0  0
  184.5470  178.0390  141.8590 C   0  0  0  0  0  2  0  0  0  0  0  0
  185.3630  178.2140  142.9610 F   0  0  0  0  0  0  0  0  0  0  0  0
  189.9390  175.0000  137.4530 O   0  0  0  0  0  0  0  0  0  0  0  0
  190.6960  176.1300  137.1280 C   0  0  0  0  0  2  0  0  0  0  0  0
  190.0520  178.5450  141.4660 C   0  0  0  0  0  2  0  0  0  0  0  0
  193.5730  175.8500  136.5340 C   0  0  0  0  0  2  0  0  0  0  0  0
  191.1430  177.5290  143.2510 C   0  0  0  0  0  2  0  0  0  0  0  0
  192.0840  177.1420  140.9870 N   0  0  0  0  0  0  0  0  0  0  0  0
  192.2040  176.8250  142.4130 C   0  0  0  0  0  2  0  0  0  0  0  0
  189.8860  177.5580  142.5220 N   0  0  0  0  0  2  0  0  0  0  0  0
  191.1010  178.0900  140.4370 C   0  0  1  0  0  3  0  0  0  0  0  0
  192.6100  176.3030  138.8480 C   0  0  0  0  0  0  0  0  0  0  0  0
  194.5040  174.8310  138.4480 O   0  0  0  0  0  0  0  0  0  0  0  0
  192.9330  176.4690  140.0960 N   0  0  0  0  0  0  0  0  0  0  0  0
  194.7610  173.9830  137.3570 C   0  0  1  0  0  3  0  0  0  0  0  0
  190.5050  177.5570  139.1520 C   0  0  0  0  0  0  0  0  0  0  0  0
  194.5150  174.7770  136.0810 C   0  0  0  0  0  2  0  0  0  0  0  0
  191.2590  176.7370  138.3770 C   0  0  0  0  0  0  0  0  0  0  0  0
  193.5630  175.6820  137.9700 N   0  0  0  0  0  0  0  0  0  0  0  0
  189.1640  178.1110  138.7180 C   0  0  2  0  0  3  0  0  0  0  0  0
  189.1840  179.2350  137.6760 C   0  0  0  0  0  2  0  0  0  0  0  0
  188.3730  178.9270  136.4290 C   0  0  0  0  0  1  0  0  0  0  0  0
  186.9360  178.4260  139.4870 O   0  0  0  0  0  0  0  0  0  0  0  0
  188.0950  178.1610  139.7720 C   0  0  0  0  0  3  0  0  0  0  0  0
  196.1970  173.4880  137.4110 C   0  0  0  0  0  2  0  0  0  0  0  0
  197.1190  174.6010  137.2390 N   0  0  0  0  0  2  0  0  0  0  0  0
  198.1690  174.4610  138.2370 C   0  0  0  0  0  2  0  0  0  0  0  0
  198.3650  175.6800  138.8910 O   0  0  0  0  0  1  0  0  0  0  0  0
  1  5  1  0  0  0  0
  2  8  1  6  0  0  0
  2  3  1  0  0  0  0
  4  6  1  0  0  0  0
  4  1  1  0  0  0  0
  5  3  1  0  0  0  0
  5 30  1  1  0  0  0
  6  2  1  0  0  0  0
  7 13  1  0  0  0  0
  8  7  2  0  0  0  0
 10 15  1  1  0  0  0
 10 12  1  0  0  0  0
 10 13  1  0  0  0  0
 11  9  1  6  0  0  0
 11 16  1  0  0  0  0
 11 18  1  0  0  0  0
 12 14  1  6  0  0  0
 12 11  1  0  0  0  0
 13 16  1  0  0  0  0
 16 26  1  6  0  0  0
 17 21  1  0  0  0  0
 18 25  1  6  0  0  0
 20 19  1  6  0  0  0
 20 18  1  0  0  0  0
 20 22  1  0  0  0  0
 22 17  1  0  0  0  0
 22 24  1  1  0  0  0
 23 17  1  0  0  0  0
 25 17  1  0  0  0  0
 26 27  1  0  0  0  0
 27 28  1  0  0  0  0
 28 29  1  0  0  0  0
 31 30  1  0  0  0  0
 31 45  1  0  0  0  0
 32 37  1  0  0  0  0
 33 46  1  0  0  0  0
 35 36  1  0  0  0  0
 36 34  1  0  0  0  0
 37 34  1  0  0  0  0
 38 35  1  0  0  0  0
 38 32  1  1  0  0  0
 39 41  2  0  0  0  0
 41 35  1  0  0  0  0
 42 52  1  6  0  0  0
 42 40  1  0  0  0  0
 43 38  1  0  0  0  0
 44 33  1  0  0  0  0
 44 42  1  0  0  0  0
 45 39  1  0  0  0  0
 45 43  2  0  0  0  0
 46 40  1  0  0  0  0
 46 39  1  0  0  0  0
 47 48  1  1  0  0  0
 47 43  1  0  0  0  0
 47 51  1  0  0  0  0
 49 48  1  0  0  0  0
 50 51  2  0  0  0  0
 53 52  1  0  0  0  0
 53 54  1  0  0  0  0
 54 55  1  0  0  0  0
M  END
>  <MODEL>
8

>  <REMARK>
 VINA RESULT:      -4.7      3.337     12.291
  Name = 
  15 active torsions:
  status: ('A' for Active; 'I' for Inactive)
    1  A    between atoms: O_2  and  C_28
    2  A    between atoms: O_2  and  C_44
    3  A    between atoms: O_3  and  C_38
    4  A    between atoms: O_3  and  C_46
    5  A    between atoms: C_4  and  C_19
    6  A    between atoms: C_6  and  C_20
    7  A    between atoms: C_10  and  N_18
    8  A    between atoms: C_11  and  C_38
    9  A    between atoms: N_18  and  C_32
   10  A    between atoms: C_19  and  C_40
   11  A    between atoms: C_19  and  C_45
   12  A    between atoms: C_27  and  C_54
   13  A    between atoms: C_28  and  C_49
   14  A    between atoms: C_32  and  C_39
   15  A    between atoms: N_35  and  C_51
                            x       y       z     vdW  Elec       q    Type
                         _______ _______ _______ _____ _____    ______ ____

>  <TORSDO>
F 15

$$$$
=
 OpenBabel11052415113D

 55 60  0  0  1  0  0  0  0  0999 V2000
  189.3390  178.4310  136.1800 C   0  0  0  0  0  2  0  0  0  0  0  0
  188.4010  177.7170  138.7280 C   0  0  2  0  0  3  0  0  0  0  0  0
  189.1630  176.6380  137.9400 C   0  0  0  0  0  2  0  0  0  0  0  0
  188.9170  179.4870  137.2180 C   0  0  0  0  0  2  0  0  0  0  0  0
  190.0360  177.2410  136.8350 C   0  0  1  0  0  3  0  0  0  0  0  0
  189.0590  179.0140  138.5990 N   0  0  0  0  0  2  0  0  0  0  0  0
  188.9690  178.0280  141.0990 C   0  0  0  0  0  3  0  0  0  0  0  0
  188.3080  177.3480  140.1680 C   0  0  0  0  0  3  0  0  0  0  0  0
  187.4120  176.0340  144.8760 O   0  0  0  0  0  1  0  0  0  0  0  0
  190.0200  177.0590  143.1760 C   0  0  1  0  0  3  0  0  0  0  0  0
  188.0970  177.2440  144.6950 C   0  0  1  0  0  0  0  0  0  0  0  0
  189.6110  176.9830  144.6350 C   0  0  1  0  0  3  0  0  0  0  0  0
  188.9000  177.6760  142.4880 N   0  0  0  0  0  0  0  0  0  0  0  0
  189.9620  175.7430  145.1740 O   0  0  0  0  0  1  0  0  0  0  0  0
  191.2610  177.9280  143.0630 C   0  0  0  0  0  1  0  0  0  0  0  0
  187.7280  177.8650  143.3340 C   0  0  1  0  0  3  0  0  0  0  0  0
  187.6260  178.3630  148.1210 C   0  0  0  0  0  0  0  0  0  0  0  0
  187.7560  178.1830  145.8720 C   0  0  1  0  0  3  0  0  0  0  0  0
  185.3560  177.3430  146.0840 C   0  0  0  0  0  1  0  0  0  0  0  0
  186.2970  178.5390  146.1360 C   0  0  1  0  0  3  0  0  0  0  0  0
  188.5150  179.3320  148.8930 C   0  0  0  0  0  1  0  0  0  0  0  0
  186.3610  179.0270  147.5510 C   0  0  2  0  0  3  0  0  0  0  0  0
  187.2000  177.2620  149.0740 C   0  0  0  0  0  1  0  0  0  0  0  0
  186.4520  180.4250  147.5460 O   0  0  0  0  0  1  0  0  0  0  0  0
  188.3720  177.7860  147.0720 O   0  0  0  0  0  0  0  0  0  0  0  0
  186.6130  177.2380  142.7590 O   0  0  0  0  0  0  0  0  0  0  0  0
  185.7170  178.2690  142.4560 C   0  0  0  0  0  2  0  0  0  0  0  0
  184.2900  177.8130  142.7000 C   0  0  0  0  0  2  0  0  0  0  0  0
  183.4190  178.5310  141.9020 F   0  0  0  0  0  0  0  0  0  0  0  0
  190.3290  176.2760  135.8700 O   0  0  0  0  0  0  0  0  0  0  0  0
  190.5710  175.1020  136.5910 C   0  0  0  0  0  2  0  0  0  0  0  0
  194.7890  172.9530  134.9590 C   0  0  0  0  0  2  0  0  0  0  0  0
  188.2670  174.1580  135.0090 C   0  0  0  0  0  2  0  0  0  0  0  0
  194.7000  170.6290  134.9820 C   0  0  0  0  0  2  0  0  0  0  0  0
  192.5420  171.8360  134.7750 N   0  0  0  0  0  0  0  0  0  0  0  0
  193.1820  170.5230  134.8870 C   0  0  0  0  0  2  0  0  0  0  0  0
  195.0600  171.7850  135.7850 N   0  0  0  0  0  2  0  0  0  0  0  0
  193.2820  173.1060  134.6870 C   0  0  1  0  0  3  0  0  0  0  0  0
  190.5020  172.9470  135.1760 C   0  0  0  0  0  0  0  0  0  0  0  0
  188.3560  171.8030  135.1300 O   0  0  0  0  0  0  0  0  0  0  0  0
  191.1390  171.8810  134.7930 N   0  0  0  0  0  0  0  0  0  0  0  0
  187.1200  172.2020  135.6650 C   0  0  1  0  0  3  0  0  0  0  0  0
  192.6150  174.1730  135.5280 C   0  0  0  0  0  0  0  0  0  0  0  0
  186.8800  173.6500  135.2590 C   0  0  0  0  0  2  0  0  0  0  0  0
  191.2740  174.1090  135.7150 C   0  0  0  0  0  0  0  0  0  0  0  0
  189.0670  172.9560  135.0870 N   0  0  0  0  0  0  0  0  0  0  0  0
  193.4610  175.3510  135.9670 C   0  0  2  0  0  3  0  0  0  0  0  0
  193.3360  175.7840  137.4310 C   0  0  0  0  0  2  0  0  0  0  0  0
  194.4100  175.2040  138.3350 C   0  0  0  0  0  1  0  0  0  0  0  0
  194.7450  177.0290  134.8770 O   0  0  0  0  0  0  0  0  0  0  0  0
  193.6840  176.4250  134.9410 C   0  0  0  0  0  3  0  0  0  0  0  0
  186.0110  171.3060  135.1360 C   0  0  0  0  0  2  0  0  0  0  0  0
  184.8400  172.1020  134.8000 N   0  0  0  0  0  2  0  0  0  0  0  0
  183.7270  171.6020  135.5920 C   0  0  0  0  0  2  0  0  0  0  0  0
  183.8870  171.9850  136.9260 O   0  0  0  0  0  1  0  0  0  0  0  0
  1  5  1  0  0  0  0
  1  4  1  0  0  0  0
  2  8  1  1  0  0  0
  3  2  1  0  0  0  0
  4  6  1  0  0  0  0
  5 30  1  6  0  0  0
  5  3  1  0  0  0  0
  6  2  1  0  0  0  0
  7 13  1  0  0  0  0
  8  7  2  0  0  0  0
 10 15  1  1  0  0  0
 10 12  1  0  0  0  0
 11  9  1  1  0  0  0
 11 18  1  0  0  0  0
 12 11  1  0  0  0  0
 12 14  1  6  0  0  0
 13 10  1  0  0  0  0
 13 16  1  0  0  0  0
 16 26  1  6  0  0  0
 16 11  1  0  0  0  0
 17 21  1  0  0  0  0
 17 23  1  0  0  0  0
 18 20  1  0  0  0  0
 18 25  1  1  0  0  0
 20 19  1  1  0  0  0
 20 22  1  0  0  0  0
 22 24  1  6  0  0  0
 22 17  1  0  0  0  0
 25 17  1  0  0  0  0
 27 28  1  0  0  0  0
 27 26  1  0  0  0  0
 29 28  1  0  0  0  0
 30 31  1  0  0  0  0
 32 37  1  0  0  0  0
 33 46  1  0  0  0  0
 33 44  1  0  0  0  0
 34 37  1  0  0  0  0
 35 41  1  0  0  0  0
 35 36  1  0  0  0  0
 36 34  1  0  0  0  0
 38 35  1  0  0  0  0
 38 32  1  1  0  0  0
 38 43  1  0  0  0  0
 39 45  1  0  0  0  0
 40 42  1  0  0  0  0
 41 39  2  0  0  0  0
 42 52  1  6  0  0  0
 43 45  2  0  0  0  0
 43 47  1  0  0  0  0
 44 42  1  0  0  0  0
 45 31  1  0  0  0  0
 46 40  1  0  0  0  0
 46 39  1  0  0  0  0
 47 51  1  6  0  0  0
 47 48  1  0  0  0  0
 48 49  1  0  0  0  0
 50 51  2  0  0  0  0
 53 52  1  0  0  0  0
 53 54  1  0  0  0  0
 54 55  1  0  0  0  0
M  END
>  <MODEL>
9

>  <REMARK>
 VINA RESULT:      -4.2      3.786     11.143
  Name = 
  15 active torsions:
  status: ('A' for Active; 'I' for Inactive)
    1  A    between atoms: O_2  and  C_28
    2  A    between atoms: O_2  and  C_44
    3  A    between atoms: O_3  and  C_38
    4  A    between atoms: O_3  and  C_46
    5  A    between atoms: C_4  and  C_19
    6  A    between atoms: C_6  and  C_20
    7  A    between atoms: C_10  and  N_18
    8  A    between atoms: C_11  and  C_38
    9  A    between atoms: N_18  and  C_32
   10  A    between atoms: C_19  and  C_40
   11  A    between atoms: C_19  and  C_45
   12  A    between atoms: C_27  and  C_54
   13  A    between atoms: C_28  and  C_49
   14  A    between atoms: C_32  and  C_39
   15  A    between atoms: N_35  and  C_51
                            x       y       z     vdW  Elec       q    Type
                         _______ _______ _______ _____ _____    ______ ____

>  <TORSDO>
F 15

$$$$
