=
 OpenBabel11052412533D

 25 29  0  0  1  0  0  0  0  0999 V2000
  187.7860  177.4780  145.5270 C   0  0  0  0  0  0  0  0  0  0  0  0
  186.8950  177.6490  144.4580 C   0  0  0  0  0  0  0  0  0  0  0  0
  186.3930  178.7470  147.0300 C   0  0  0  0  0  3  0  0  0  0  0  0
  189.0350  176.6740  145.6200 C   0  0  2  0  0  3  0  0  0  0  0  0
  187.3170  177.9980  142.0130 C   0  0  1  0  0  0  0  0  0  0  0  0
  191.7580  176.8410  146.5490 C   0  0  0  0  0  3  0  0  0  0  0  0
  185.4930  178.9580  145.9780 C   0  0  0  0  0  3  0  0  0  0  0  0
  189.4140  176.9650  147.0480 C   0  0  0  0  0  0  0  0  0  0  0  0
  190.8010  176.7840  147.4860 C   0  0  0  0  0  3  0  0  0  0  0  0
  184.7370  178.6980  143.6450 N   0  0  0  0  0  0  0  0  0  0  0  0
  183.5510  179.4880  143.9440 C   0  0  0  0  0  1  0  0  0  0  0  0
  188.5710  178.8580  142.0440 C   0  0  0  0  0  2  0  0  0  0  0  0
  187.2210  176.9850  143.1540 C   0  0  0  0  0  2  0  0  0  0  0  0
  191.4180  177.1290  145.1300 C   0  0  0  0  0  3  0  0  0  0  0  0
  187.5260  177.9880  146.7740 C   0  0  0  0  0  0  0  0  0  0  0  0
  188.5640  177.6970  147.6970 N   0  0  0  0  0  0  0  0  0  0  0  0
  184.8340  178.2060  142.2750 C   0  0  0  0  0  2  0  0  0  0  0  0
  189.3970  176.6410  141.1580 C   0  0  0  0  0  1  0  0  0  0  0  0
  190.1460  177.1170  144.7010 C   0  0  0  0  0  3  0  0  0  0  0  0
  186.0700  178.7690  141.5900 C   0  0  0  0  0  2  0  0  0  0  0  0
  185.7130  178.4210  144.6840 C   0  0  0  0  0  0  0  0  0  0  0  0
  188.4180  177.7900  140.9740 C   0  0  1  0  0  0  0  0  0  0  0  0
  188.2400  178.3480  139.5980 C   0  0  0  0  0  0  0  0  0  0  0  0
  189.0060  179.2570  139.1830 O   0  0  0  0  0  1  0  0  0  0  0  0
  187.2020  177.9010  138.7890 O   0  0  0  0  0  0  0  0  0  0  0  0
  1  4  1  0  0  0  0
  1 15  1  0  0  0  0
  2 21  1  0  0  0  0
  2  1  2  0  0  0  0
  4 19  1  6  0  0  0
  4  8  1  0  0  0  0
  5 20  1  6  0  0  0
  5 12  1  0  0  0  0
  5 13  1  0  0  0  0
  6  9  2  0  0  0  0
  7  3  1  0  0  0  0
  8  9  1  0  0  0  0
  8 16  2  0  0  0  0
 10 11  1  0  0  0  0
 10 21  1  0  0  0  0
 13  2  1  0  0  0  0
 14  6  1  0  0  0  0
 15  3  2  0  0  0  0
 15 16  1  0  0  0  0
 17 10  1  0  0  0  0
 19 14  2  0  0  0  0
 20 17  1  0  0  0  0
 21  7  2  0  0  0  0
 22 18  1  1  0  0  0
 22  5  1  0  0  0  0
 22 12  1  0  0  0  0
 23 22  1  0  0  0  0
 24 23  1  0  0  0  0
 25 23  2  0  0  0  0
M  END
>  <MODEL>
1

>  <REMARK>
 VINA RESULT:     -10.3      0.000      0.000
  Name = 
  1 active torsions:
  status: ('A' for Active; 'I' for Inactive)
    1  A    between atoms: C_2  and  C_25
                            x       y       z     vdW  Elec       q    Type
                         _______ _______ _______ _____ _____    ______ ____

>  <TORSDO>
F 1

$$$$
=
 OpenBabel11052412533D

 25 29  0  0  1  0  0  0  0  0999 V2000
  187.3880  178.1690  145.6340 C   0  0  0  0  0  0  0  0  0  0  0  0
  188.7400  177.9900  145.3130 C   0  0  0  0  0  0  0  0  0  0  0  0
  187.6380  177.0720  147.7660 C   0  0  0  0  0  3  0  0  0  0  0  0
  186.3150  178.9040  144.9090 C   0  0  2  0  0  3  0  0  0  0  0  0
  189.8490  177.4770  143.1250 C   0  0  1  0  0  0  0  0  0  0  0  0
  183.5720  178.6340  144.0680 C   0  0  0  0  0  3  0  0  0  0  0  0
  188.9890  176.8530  147.4660 C   0  0  0  0  0  3  0  0  0  0  0  0
  185.1690  178.6740  145.8590 C   0  0  0  0  0  0  0  0  0  0  0  0
  183.7890  178.7990  145.3810 C   0  0  0  0  0  3  0  0  0  0  0  0
  190.9750  177.0220  146.0130 N   0  0  0  0  0  0  0  0  0  0  0  0
  191.7650  176.3200  147.0150 C   0  0  0  0  0  1  0  0  0  0  0  0
  188.8310  176.5490  142.4820 C   0  0  0  0  0  2  0  0  0  0  0  0
  189.2400  178.5580  144.0180 C   0  0  0  0  0  2  0  0  0  0  0  0
  184.6890  178.2850  143.1490 C   0  0  0  0  0  3  0  0  0  0  0  0
  186.8670  177.7480  146.8320 C   0  0  0  0  0  0  0  0  0  0  0  0
  185.4810  178.0310  146.9400 N   0  0  0  0  0  0  0  0  0  0  0  0
  191.7000  177.4280  144.8140 C   0  0  0  0  0  2  0  0  0  0  0  0
  188.6610  178.6600  141.1040 C   0  0  0  0  0  1  0  0  0  0  0  0
  185.9680  178.3460  143.5520 C   0  0  0  0  0  3  0  0  0  0  0  0
  191.1150  176.7570  143.5810 C   0  0  0  0  0  2  0  0  0  0  0  0
  189.5700  177.3010  146.2520 C   0  0  0  0  0  0  0  0  0  0  0  0
  189.5730  177.5620  141.6250 C   0  0  1  0  0  0  0  0  0  0  0  0
  190.5380  176.9370  140.6670 C   0  0  0  0  0  0  0  0  0  0  0  0
  190.2030  175.9130  140.0150 O   0  0  0  0  0  0  0  0  0  0  0  0
  191.8200  177.4540  140.5260 O   0  0  0  0  0  1  0  0  0  0  0  0
  1 15  1  0  0  0  0
  2  1  2  0  0  0  0
  2 21  1  0  0  0  0
  4 19  1  6  0  0  0
  4  1  1  0  0  0  0
  4  8  1  0  0  0  0
  5 12  1  1  0  0  0
  5 20  1  0  0  0  0
  5 13  1  0  0  0  0
  6  9  2  0  0  0  0
  7  3  1  0  0  0  0
  8 16  2  0  0  0  0
  9  8  1  0  0  0  0
 10 21  1  0  0  0  0
 10 11  1  0  0  0  0
 13  2  1  0  0  0  0
 14 19  2  0  0  0  0
 14  6  1  0  0  0  0
 15 16  1  0  0  0  0
 15  3  2  0  0  0  0
 17 10  1  0  0  0  0
 20 17  1  0  0  0  0
 21  7  2  0  0  0  0
 22 18  1  6  0  0  0
 22 12  1  0  0  0  0
 22  5  1  0  0  0  0
 23 22  1  0  0  0  0
 24 23  2  0  0  0  0
 25 23  1  0  0  0  0
M  END
>  <MODEL>
2

>  <REMARK>
 VINA RESULT:     -10.2      1.752      4.872
  Name = 
  1 active torsions:
  status: ('A' for Active; 'I' for Inactive)
    1  A    between atoms: C_2  and  C_25
                            x       y       z     vdW  Elec       q    Type
                         _______ _______ _______ _____ _____    ______ ____

>  <TORSDO>
F 1

$$$$
=
 OpenBabel11052412533D

 25 29  0  0  1  0  0  0  0  0999 V2000
  187.0930  177.7450  143.1330 C   0  0  0  0  0  0  0  0  0  0  0  0
  188.3930  177.2280  143.2080 C   0  0  0  0  0  0  0  0  0  0  0  0
  187.5000  178.7460  140.9780 C   0  0  0  0  0  3  0  0  0  0  0  0
  185.9300  177.5630  144.0440 C   0  0  2  0  0  3  0  0  0  0  0  0
  189.9450  176.9780  145.1590 C   0  0  1  0  0  0  0  0  0  0  0  0
  183.8390  179.0510  145.3540 C   0  0  0  0  0  3  0  0  0  0  0  0
  188.8150  178.2660  141.0320 C   0  0  0  0  0  3  0  0  0  0  0  0
  184.9050  178.3860  143.3100 C   0  0  0  0  0  0  0  0  0  0  0  0
  183.7350  178.9020  144.0260 C   0  0  0  0  0  3  0  0  0  0  0  0
  190.6710  177.0550  142.1120 N   0  0  0  0  0  0  0  0  0  0  0  0
  191.5310  177.3650  140.9790 C   0  0  0  0  0  1  0  0  0  0  0  0
  189.6240  178.2280  145.9620 C   0  0  0  0  0  2  0  0  0  0  0  0
  188.7540  176.3930  144.4000 C   0  0  0  0  0  2  0  0  0  0  0  0
  185.1150  178.7500  146.0570 C   0  0  0  0  0  3  0  0  0  0  0  0
  186.6580  178.4540  142.0420 C   0  0  0  0  0  0  0  0  0  0  0  0
  185.3120  178.8800  142.1830 N   0  0  0  0  0  0  0  0  0  0  0  0
  191.2890  176.2600  143.1690 C   0  0  0  0  0  2  0  0  0  0  0  0
  188.6730  176.3600  147.3710 C   0  0  0  0  0  1  0  0  0  0  0  0
  186.1200  178.1130  145.4350 C   0  0  0  0  0  3  0  0  0  0  0  0
  191.3100  177.0330  144.4780 C   0  0  0  0  0  2  0  0  0  0  0  0
  189.2910  177.5030  142.1290 C   0  0  0  0  0  0  0  0  0  0  0  0
  189.9070  176.9210  146.6850 C   0  0  1  0  0  0  0  0  0  0  0  0
  191.1930  176.9310  147.4500 C   0  0  0  0  0  0  0  0  0  0  0  0
  191.4550  177.8870  148.2260 O   0  0  0  0  0  1  0  0  0  0  0  0
  192.1210  175.9130  147.2730 O   0  0  0  0  0  0  0  0  0  0  0  0
  1  2  1  0  0  0  0
  1  4  1  0  0  0  0
  2 13  1  0  0  0  0
  3  7  2  0  0  0  0
  3 15  1  0  0  0  0
  4 19  1  1  0  0  0
  5 13  1  6  0  0  0
  5 12  1  0  0  0  0
  5 22  1  0  0  0  0
  6 14  1  0  0  0  0
  7 21  1  0  0  0  0
  8  9  1  0  0  0  0
  8  4  1  0  0  0  0
  9  6  2  0  0  0  0
 10 21  1  0  0  0  0
 10 17  1  0  0  0  0
 11 10  1  0  0  0  0
 12 22  1  0  0  0  0
 15 16  1  0  0  0  0
 15  1  2  0  0  0  0
 16  8  2  0  0  0  0
 17 20  1  0  0  0  0
 19 14  2  0  0  0  0
 20  5  1  0  0  0  0
 21  2  2  0  0  0  0
 22 18  1  1  0  0  0
 22 23  1  0  0  0  0
 23 24  1  0  0  0  0
 25 23  2  0  0  0  0
M  END
>  <MODEL>
3

>  <REMARK>
 VINA RESULT:     -10.0      3.159      6.305
  Name = 
  1 active torsions:
  status: ('A' for Active; 'I' for Inactive)
    1  A    between atoms: C_2  and  C_25
                            x       y       z     vdW  Elec       q    Type
                         _______ _______ _______ _____ _____    ______ ____

>  <TORSDO>
F 1

$$$$
=
 OpenBabel11052412533D

 25 29  0  0  1  0  0  0  0  0999 V2000
  189.0470  177.3500  143.3600 C   0  0  0  0  0  0  0  0  0  0  0  0
  188.0830  177.3790  144.3760 C   0  0  0  0  0  0  0  0  0  0  0  0
  190.8430  177.7990  144.9030 C   0  0  0  0  0  3  0  0  0  0  0  0
  188.9130  177.0180  141.9140 C   0  0  2  0  0  3  0  0  0  0  0  0
  185.7330  178.2490  144.3800 C   0  0  1  0  0  0  0  0  0  0  0  0
  189.7070  177.9500  139.3060 C   0  0  0  0  0  3  0  0  0  0  0  0
  189.9020  177.8600  145.9400 C   0  0  0  0  0  3  0  0  0  0  0  0
  190.3480  177.1810  141.4870 C   0  0  0  0  0  0  0  0  0  0  0  0
  190.6660  177.4170  140.0750 C   0  0  0  0  0  3  0  0  0  0  0  0
  187.6090  177.7450  146.8380 N   0  0  0  0  0  0  0  0  0  0  0  0
  188.1200  178.0210  148.1730 C   0  0  0  0  0  1  0  0  0  0  0  0
  185.8620  179.4680  143.4810 C   0  0  0  0  0  2  0  0  0  0  0  0
  186.6580  177.0910  144.0070 C   0  0  0  0  0  2  0  0  0  0  0  0
  188.3920  178.3340  139.8840 C   0  0  0  0  0  3  0  0  0  0  0  0
  190.3820  177.5270  143.6230 C   0  0  0  0  0  0  0  0  0  0  0  0
  191.1720  177.4600  142.4470 N   0  0  0  0  0  0  0  0  0  0  0  0
  186.1660  177.5480  146.7470 C   0  0  0  0  0  2  0  0  0  0  0  0
  184.5170  177.8460  142.0870 C   0  0  0  0  0  1  0  0  0  0  0  0
  188.0390  177.9590  141.1240 C   0  0  0  0  0  3  0  0  0  0  0  0
  185.5360  178.6040  145.8510 C   0  0  0  0  0  2  0  0  0  0  0  0
  188.5180  177.6520  145.7100 C   0  0  0  0  0  0  0  0  0  0  0  0
  184.6150  178.6040  143.4010 C   0  0  1  0  0  0  0  0  0  0  0  0
  183.3850  179.2860  143.9120 C   0  0  0  0  0  0  0  0  0  0  0  0
  183.3650  180.5390  144.0330 O   0  0  0  0  0  0  0  0  0  0  0  0
  182.2780  178.5390  144.2970 O   0  0  0  0  0  1  0  0  0  0  0  0
  1 15  2  0  0  0  0
  1  2  1  0  0  0  0
  2 21  2  0  0  0  0
  3  7  2  0  0  0  0
  4 19  1  6  0  0  0
  4  1  1  0  0  0  0
  5 12  1  6  0  0  0
  5 20  1  0  0  0  0
  6 14  1  0  0  0  0
  6  9  2  0  0  0  0
  8  4  1  0  0  0  0
  8 16  2  0  0  0  0
  9  8  1  0  0  0  0
 10 11  1  0  0  0  0
 13  2  1  0  0  0  0
 13  5  1  0  0  0  0
 14 19  2  0  0  0  0
 15  3  1  0  0  0  0
 16 15  1  0  0  0  0
 17 10  1  0  0  0  0
 20 17  1  0  0  0  0
 21  7  1  0  0  0  0
 21 10  1  0  0  0  0
 22 18  1  6  0  0  0
 22 12  1  0  0  0  0
 22 23  1  0  0  0  0
 22  5  1  0  0  0  0
 23 24  2  0  0  0  0
 23 25  1  0  0  0  0
M  END
>  <MODEL>
4

>  <REMARK>
 VINA RESULT:      -9.6      2.586      5.111
  Name = 
  1 active torsions:
  status: ('A' for Active; 'I' for Inactive)
    1  A    between atoms: C_2  and  C_25
                            x       y       z     vdW  Elec       q    Type
                         _______ _______ _______ _____ _____    ______ ____

>  <TORSDO>
F 1

$$$$
=
 OpenBabel11052412533D

 25 29  0  0  1  0  0  0  0  0999 V2000
  186.6020  178.0630  144.9270 C   0  0  0  0  0  0  0  0  0  0  0  0
  186.6860  177.8760  143.5400 C   0  0  0  0  0  0  0  0  0  0  0  0
  184.8360  179.6890  144.7080 C   0  0  0  0  0  3  0  0  0  0  0  0
  187.3010  177.3610  146.0380 C   0  0  2  0  0  3  0  0  0  0  0  0
  188.6670  177.4780  142.0590 C   0  0  1  0  0  0  0  0  0  0  0  0
  188.7080  177.8780  148.4980 C   0  0  0  0  0  3  0  0  0  0  0  0
  184.9110  179.5450  143.3160 C   0  0  0  0  0  3  0  0  0  0  0  0
  186.6940  178.0820  147.2110 C   0  0  0  0  0  0  0  0  0  0  0  0
  187.3830  178.0820  148.5040 C   0  0  0  0  0  3  0  0  0  0  0  0
  185.8430  178.5680  141.2530 N   0  0  0  0  0  0  0  0  0  0  0  0
  184.9300  179.3780  140.4590 C   0  0  0  0  0  1  0  0  0  0  0  0
  189.7240  178.3410  142.7300 C   0  0  0  0  0  2  0  0  0  0  0  0
  187.6570  176.8560  143.0230 C   0  0  0  0  0  2  0  0  0  0  0  0
  189.4480  177.7110  147.2190 C   0  0  0  0  0  3  0  0  0  0  0  0
  185.6880  178.9200  145.4870 C   0  0  0  0  0  0  0  0  0  0  0  0
  185.7840  178.9520  146.9020 N   0  0  0  0  0  0  0  0  0  0  0  0
  186.7220  177.6850  140.4930 C   0  0  0  0  0  2  0  0  0  0  0  0
  190.4920  175.9830  143.2160 C   0  0  0  0  0  1  0  0  0  0  0  0
  188.7990  177.5340  146.0570 C   0  0  0  0  0  3  0  0  0  0  0  0
  188.1800  178.0470  140.7300 C   0  0  0  0  0  2  0  0  0  0  0  0
  185.8210  178.6470  142.7030 C   0  0  0  0  0  0  0  0  0  0  0  0
  190.1140  176.9940  142.1450 C   0  0  1  0  0  0  0  0  0  0  0  0
  190.9940  177.1020  140.9390 C   0  0  0  0  0  0  0  0  0  0  0  0
  191.9860  177.8780  140.9520 O   0  0  0  0  0  1  0  0  0  0  0  0
  190.6970  176.3840  139.7880 O   0  0  0  0  0  0  0  0  0  0  0  0
  1 15  1  0  0  0  0
  1  4  1  0  0  0  0
  2  1  2  0  0  0  0
  3 15  2  0  0  0  0
  4 19  1  6  0  0  0
  4  8  1  0  0  0  0
  5 20  1  6  0  0  0
  5 22  1  0  0  0  0
  5 12  1  0  0  0  0
  5 13  1  0  0  0  0
  6  9  2  0  0  0  0
  7  3  1  0  0  0  0
  8  9  1  0  0  0  0
 10 21  1  0  0  0  0
 11 10  1  0  0  0  0
 13  2  1  0  0  0  0
 14  6  1  0  0  0  0
 15 16  1  0  0  0  0
 16  8  2  0  0  0  0
 17 20  1  0  0  0  0
 17 10  1  0  0  0  0
 19 14  2  0  0  0  0
 21  7  2  0  0  0  0
 21  2  1  0  0  0  0
 22 12  1  0  0  0  0
 22 18  1  1  0  0  0
 23 24  1  0  0  0  0
 23 22  1  0  0  0  0
 25 23  2  0  0  0  0
M  END
>  <MODEL>
5

>  <REMARK>
 VINA RESULT:      -9.5      1.790      2.697
  Name = 
  1 active torsions:
  status: ('A' for Active; 'I' for Inactive)
    1  A    between atoms: C_2  and  C_25
                            x       y       z     vdW  Elec       q    Type
                         _______ _______ _______ _____ _____    ______ ____

>  <TORSDO>
F 1

$$$$
=
 OpenBabel11052412533D

 25 29  0  0  1  0  0  0  0  0999 V2000
  185.3330  178.6680  144.6800 C   0  0  0  0  0  0  0  0  0  0  0  0
  186.6490  178.4750  145.1220 C   0  0  0  0  0  0  0  0  0  0  0  0
  184.4230  178.2560  146.8740 C   0  0  0  0  0  3  0  0  0  0  0  0
  184.8170  179.1000  143.3530 C   0  0  2  0  0  3  0  0  0  0  0  0
  188.6150  177.4060  143.9950 C   0  0  1  0  0  0  0  0  0  0  0  0
  182.8010  178.4500  141.3980 C   0  0  0  0  0  3  0  0  0  0  0  0
  185.7230  178.0310  147.3440 C   0  0  0  0  0  3  0  0  0  0  0  0
  183.3400  179.0970  143.6450 C   0  0  0  0  0  0  0  0  0  0  0  0
  182.3780  179.0030  142.5440 C   0  0  0  0  0  3  0  0  0  0  0  0
  188.1680  177.8750  147.0600 N   0  0  0  0  0  0  0  0  0  0  0  0
  188.3080  177.5390  148.4700 C   0  0  0  0  0  1  0  0  0  0  0  0
  187.9450  176.2770  143.2270 C   0  0  0  0  0  2  0  0  0  0  0  0
  187.7610  178.6660  144.1340 C   0  0  0  0  0  2  0  0  0  0  0  0
  184.1820  177.9090  141.2780 C   0  0  0  0  0  3  0  0  0  0  0  0
  184.2640  178.5880  145.5360 C   0  0  0  0  0  0  0  0  0  0  0  0
  183.0300  178.8150  144.8720 N   0  0  0  0  0  0  0  0  0  0  0  0
  189.4150  177.9520  146.3060 C   0  0  0  0  0  2  0  0  0  0  0  0
  188.6630  177.8820  141.4130 C   0  0  0  0  0  1  0  0  0  0  0  0
  185.1100  178.1530  142.2170 C   0  0  0  0  0  3  0  0  0  0  0  0
  189.4310  176.9190  145.1890 C   0  0  0  0  0  2  0  0  0  0  0  0
  186.8560  178.1360  146.4960 C   0  0  0  0  0  0  0  0  0  0  0  0
  189.1020  177.0340  142.5950 C   0  0  1  0  0  0  0  0  0  0  0  0
  190.3410  176.2090  142.4470 C   0  0  0  0  0  0  0  0  0  0  0  0
  191.3710  176.7100  141.9220 O   0  0  0  0  0  0  0  0  0  0  0  0
  190.3490  174.8780  142.8440 O   0  0  0  0  0  1  0  0  0  0  0  0
  1  2  2  0  0  0  0
  1 15  1  0  0  0  0
  2 21  1  0  0  0  0
  3  7  1  0  0  0  0
  4 19  1  6  0  0  0
  4  8  1  0  0  0  0
  4  1  1  0  0  0  0
  5 12  1  1  0  0  0
  5 13  1  0  0  0  0
  5 20  1  0  0  0  0
  6  9  2  0  0  0  0
  8 16  2  0  0  0  0
  9  8  1  0  0  0  0
 10 11  1  0  0  0  0
 13  2  1  0  0  0  0
 14  6  1  0  0  0  0
 14 19  2  0  0  0  0
 15  3  2  0  0  0  0
 16 15  1  0  0  0  0
 17 10  1  0  0  0  0
 20 17  1  0  0  0  0
 21 10  1  0  0  0  0
 21  7  2  0  0  0  0
 22 18  1  6  0  0  0
 22 12  1  0  0  0  0
 22  5  1  0  0  0  0
 23 22  1  0  0  0  0
 23 25  1  0  0  0  0
 24 23  2  0  0  0  0
M  END
>  <MODEL>
6

>  <REMARK>
 VINA RESULT:      -9.0      1.950      5.283
  Name = 
  1 active torsions:
  status: ('A' for Active; 'I' for Inactive)
    1  A    between atoms: C_2  and  C_25
                            x       y       z     vdW  Elec       q    Type
                         _______ _______ _______ _____ _____    ______ ____

>  <TORSDO>
F 1

$$$$
=
 OpenBabel11052412533D

 25 29  0  0  1  0  0  0  0  0999 V2000
  186.2560  177.9720  142.5200 C   0  0  0  0  0  0  0  0  0  0  0  0
  187.5460  177.5390  142.1840 C   0  0  0  0  0  0  0  0  0  0  0  0
  185.9090  178.9640  140.3500 C   0  0  0  0  0  3  0  0  0  0  0  0
  185.4480  177.7320  143.7470 C   0  0  2  0  0  3  0  0  0  0  0  0
  189.6400  177.4150  143.5540 C   0  0  1  0  0  0  0  0  0  0  0  0
  183.7770  179.1070  145.6490 C   0  0  0  0  0  3  0  0  0  0  0  0
  187.2030  178.5670  139.9900 C   0  0  0  0  0  3  0  0  0  0  0  0
  184.1950  178.4780  143.3720 C   0  0  0  0  0  0  0  0  0  0  0  0
  183.2750  178.9320  144.4190 C   0  0  0  0  0  3  0  0  0  0  0  0
  189.3770  177.4900  140.4330 N   0  0  0  0  0  0  0  0  0  0  0  0
  189.8200  177.8370  139.0900 C   0  0  0  0  0  1  0  0  0  0  0  0
  189.5050  178.6550  144.4230 C   0  0  0  0  0  2  0  0  0  0  0  0
  188.3120  176.7460  143.2010 C   0  0  0  0  0  2  0  0  0  0  0  0
  185.2250  178.8960  145.9190 C   0  0  0  0  0  3  0  0  0  0  0  0
  185.4590  178.6360  141.6210 C   0  0  0  0  0  0  0  0  0  0  0  0
  184.1990  178.9800  142.1770 N   0  0  0  0  0  0  0  0  0  0  0  0
  190.3420  176.7520  141.2410 C   0  0  0  0  0  2  0  0  0  0  0  0
  189.1600  176.7530  146.0500 C   0  0  0  0  0  1  0  0  0  0  0  0
  186.0250  178.3140  145.0120 C   0  0  0  0  0  3  0  0  0  0  0  0
  190.7190  177.5450  142.4830 C   0  0  0  0  0  2  0  0  0  0  0  0
  188.0440  177.8520  140.8810 C   0  0  0  0  0  0  0  0  0  0  0  0
  190.0810  177.3800  145.0160 C   0  0  1  0  0  0  0  0  0  0  0  0
  191.5380  177.4810  145.3430 C   0  0  0  0  0  0  0  0  0  0  0  0
  192.0560  176.6790  146.1640 O   0  0  0  0  0  1  0  0  0  0  0  0
  192.3140  178.4860  144.7800 O   0  0  0  0  0  0  0  0  0  0  0  0
  1  4  1  0  0  0  0
  2  1  1  0  0  0  0
  2 13  1  0  0  0  0
  3 15  1  0  0  0  0
  4 19  1  1  0  0  0
  5 20  1  6  0  0  0
  5 12  1  0  0  0  0
  5 22  1  0  0  0  0
  6 14  1  0  0  0  0
  7  3  2  0  0  0  0
  7 21  1  0  0  0  0
  8  4  1  0  0  0  0
  8  9  1  0  0  0  0
  9  6  2  0  0  0  0
 10 21  1  0  0  0  0
 10 17  1  0  0  0  0
 11 10  1  0  0  0  0
 12 22  1  0  0  0  0
 13  5  1  0  0  0  0
 15 16  1  0  0  0  0
 15  1  2  0  0  0  0
 16  8  2  0  0  0  0
 17 20  1  0  0  0  0
 19 14  2  0  0  0  0
 21  2  2  0  0  0  0
 22 23  1  0  0  0  0
 22 18  1  1  0  0  0
 23 24  1  0  0  0  0
 25 23  2  0  0  0  0
M  END
>  <MODEL>
7

>  <REMARK>
 VINA RESULT:      -8.8      2.739      5.839
  Name = 
  1 active torsions:
  status: ('A' for Active; 'I' for Inactive)
    1  A    between atoms: C_2  and  C_25
                            x       y       z     vdW  Elec       q    Type
                         _______ _______ _______ _____ _____    ______ ____

>  <TORSDO>
F 1

$$$$
=
 OpenBabel11052412533D

 25 29  0  0  1  0  0  0  0  0999 V2000
  189.5520  177.6720  144.2320 C   0  0  0  0  0  0  0  0  0  0  0  0
  189.2830  177.9680  142.8890 C   0  0  0  0  0  0  0  0  0  0  0  0
  191.3050  176.1240  143.6500 C   0  0  0  0  0  3  0  0  0  0  0  0
  188.9910  178.2600  145.4800 C   0  0  2  0  0  3  0  0  0  0  0  0
  187.1160  178.4250  141.7160 C   0  0  1  0  0  0  0  0  0  0  0  0
  187.9300  177.5030  148.0490 C   0  0  0  0  0  3  0  0  0  0  0  0
  191.0460  176.3780  142.2970 C   0  0  0  0  0  3  0  0  0  0  0  0
  189.7620  177.4650  146.5000 C   0  0  0  0  0  0  0  0  0  0  0  0
  189.2480  177.3390  147.8670 C   0  0  0  0  0  3  0  0  0  0  0  0
  189.8310  177.4900  140.4620 N   0  0  0  0  0  0  0  0  0  0  0  0
  190.6470  176.7750  139.4910 C   0  0  0  0  0  1  0  0  0  0  0  0
  186.1750  177.4780  142.4430 C   0  0  0  0  0  2  0  0  0  0  0  0
  188.2330  178.9970  142.5890 C   0  0  0  0  0  2  0  0  0  0  0  0
  187.0260  177.7500  146.8950 C   0  0  0  0  0  3  0  0  0  0  0  0
  190.5480  176.8010  144.5950 C   0  0  0  0  0  0  0  0  0  0  0  0
  190.6400  176.6510  146.0040 N   0  0  0  0  0  0  0  0  0  0  0  0
  188.8430  178.4040  139.8990 C   0  0  0  0  0  2  0  0  0  0  0  0
  185.4310  179.7640  143.2200 C   0  0  0  0  0  1  0  0  0  0  0  0
  187.5130  178.0410  145.6780 C   0  0  0  0  0  3  0  0  0  0  0  0
  187.4360  177.9800  140.2910 C   0  0  0  0  0  2  0  0  0  0  0  0
  190.0450  177.2950  141.8850 C   0  0  0  0  0  0  0  0  0  0  0  0
  185.6840  178.8560  142.0280 C   0  0  1  0  0  0  0  0  0  0  0  0
  184.6560  178.8190  140.9420 C   0  0  0  0  0  0  0  0  0  0  0  0
  183.7810  177.9130  140.9350 O   0  0  0  0  0  1  0  0  0  0  0  0
  184.6880  179.7530  139.9140 O   0  0  0  0  0  0  0  0  0  0  0  0
  1 15  1  0  0  0  0
  1  4  1  0  0  0  0
  2  1  2  0  0  0  0
  3 15  2  0  0  0  0
  4 19  1  1  0  0  0
  4  8  1  0  0  0  0
  5 20  1  6  0  0  0
  5 22  1  0  0  0  0
  5 12  1  0  0  0  0
  5 13  1  0  0  0  0
  7  3  1  0  0  0  0
  8  9  1  0  0  0  0
  9  6  2  0  0  0  0
 10 21  1  0  0  0  0
 11 10  1  0  0  0  0
 13  2  1  0  0  0  0
 14  6  1  0  0  0  0
 15 16  1  0  0  0  0
 16  8  2  0  0  0  0
 17 20  1  0  0  0  0
 17 10  1  0  0  0  0
 19 14  2  0  0  0  0
 21  7  2  0  0  0  0
 21  2  1  0  0  0  0
 22 12  1  0  0  0  0
 22 18  1  1  0  0  0
 23 22  1  0  0  0  0
 24 23  1  0  0  0  0
 25 23  2  0  0  0  0
M  END
>  <MODEL>
8

>  <REMARK>
 VINA RESULT:      -8.6      2.113      4.313
  Name = 
  1 active torsions:
  status: ('A' for Active; 'I' for Inactive)
    1  A    between atoms: C_2  and  C_25
                            x       y       z     vdW  Elec       q    Type
                         _______ _______ _______ _____ _____    ______ ____

>  <TORSDO>
F 1

$$$$
=
 OpenBabel11052412533D

 25 29  0  0  1  0  0  0  0  0999 V2000
  187.6910  178.3780  141.1430 C   0  0  0  0  0  0  0  0  0  0  0  0
  187.9510  178.2630  142.5150 C   0  0  0  0  0  0  0  0  0  0  0  0
  185.3050  178.3090  141.4800 C   0  0  0  0  0  3  0  0  0  0  0  0
  188.6210  178.5930  140.0010 C   0  0  2  0  0  3  0  0  0  0  0  0
  189.7610  177.0420  143.7420 C   0  0  1  0  0  0  0  0  0  0  0  0
  189.1880  177.6340  137.3430 C   0  0  0  0  0  3  0  0  0  0  0  0
  185.5290  178.1680  142.8560 C   0  0  0  0  0  3  0  0  0  0  0  0
  187.6270  178.6280  138.8710 C   0  0  0  0  0  0  0  0  0  0  0  0
  188.0700  178.3570  137.5000 C   0  0  0  0  0  3  0  0  0  0  0  0
  186.9820  177.9830  144.8390 N   0  0  0  0  0  0  0  0  0  0  0  0
  185.8050  177.8730  145.6890 C   0  0  0  0  0  1  0  0  0  0  0  0
  189.9300  175.8030  142.8770 C   0  0  0  0  0  2  0  0  0  0  0  0
  189.3800  178.3040  142.9690 C   0  0  0  0  0  2  0  0  0  0  0  0
  189.9140  177.0880  138.5210 C   0  0  0  0  0  3  0  0  0  0  0  0
  186.4110  178.4260  140.6500 C   0  0  0  0  0  0  0  0  0  0  0  0
  186.3870  178.5400  139.2360 N   0  0  0  0  0  0  0  0  0  0  0  0
  188.2640  177.9470  145.5360 C   0  0  0  0  0  2  0  0  0  0  0  0
  192.0530  177.1070  142.4610 C   0  0  0  0  0  1  0  0  0  0  0  0
  189.6130  177.4810  139.7690 C   0  0  0  0  0  3  0  0  0  0  0  0
  189.0880  176.7530  145.0810 C   0  0  0  0  0  2  0  0  0  0  0  0
  186.8370  178.1450  143.4040 C   0  0  0  0  0  0  0  0  0  0  0  0
  191.1520  176.4580  143.4990 C   0  0  1  0  0  0  0  0  0  0  0  0
  191.7940  175.6270  144.5650 C   0  0  0  0  0  0  0  0  0  0  0  0
  192.0600  174.4160  144.3440 O   0  0  0  0  0  0  0  0  0  0  0  0
  192.0550  176.1720  145.8160 O   0  0  0  0  0  1  0  0  0  0  0  0
  1  2  1  0  0  0  0
  2 13  1  0  0  0  0
  2 21  2  0  0  0  0
  3  7  2  0  0  0  0
  4 19  1  6  0  0  0
  4  1  1  0  0  0  0
  5 12  1  6  0  0  0
  5 20  1  0  0  0  0
  6  9  2  0  0  0  0
  6 14  1  0  0  0  0
  7 21  1  0  0  0  0
  8 16  2  0  0  0  0
  8  4  1  0  0  0  0
  9  8  1  0  0  0  0
 10 17  1  0  0  0  0
 10 11  1  0  0  0  0
 12 22  1  0  0  0  0
 13  5  1  0  0  0  0
 14 19  2  0  0  0  0
 15  1  2  0  0  0  0
 15  3  1  0  0  0  0
 16 15  1  0  0  0  0
 20 17  1  0  0  0  0
 21 10  1  0  0  0  0
 22 18  1  6  0  0  0
 22  5  1  0  0  0  0
 22 23  1  0  0  0  0
 23 25  1  0  0  0  0
 24 23  2  0  0  0  0
M  END
>  <MODEL>
9

>  <REMARK>
 VINA RESULT:      -8.1      2.826      5.885
  Name = 
  1 active torsions:
  status: ('A' for Active; 'I' for Inactive)
    1  A    between atoms: C_2  and  C_25
                            x       y       z     vdW  Elec       q    Type
                         _______ _______ _______ _____ _____    ______ ____

>  <TORSDO>
F 1

$$$$
