=
 OpenBabel11052416203D

 43 48  0  0  1  0  0  0  0  0999 V2000
  183.7190  178.7610  144.4800 C   0  0  1  0  0  3  0  0  0  0  0  0
  183.9100  178.2150  139.3850 C   0  0  0  0  0  0  0  0  0  0  0  0
  186.6210  178.2460  138.7710 C   0  0  0  0  0  0  0  0  0  0  0  0
  183.1130  178.6590  142.0430 C   0  0  0  0  0  0  0  0  0  0  0  0
  184.9800  179.4960  144.0550 C   0  0  0  0  0  2  0  0  0  0  0  0
  183.2810  179.2540  145.7090 O   0  0  0  0  0  1  0  0  0  0  0  0
  184.4880  178.6890  141.7120 C   0  0  0  0  0  0  0  0  0  0  0  0
  182.6310  178.9720  143.4310 C   0  0  0  0  0  2  0  0  0  0  0  0
  185.5370  178.8570  142.7860 C   0  0  0  0  0  2  0  0  0  0  0  0
  186.2050  178.4580  140.0460 N   0  0  0  0  0  0  0  0  0  0  0  0
  184.8850  178.4560  140.3830 C   0  0  0  0  0  0  0  0  0  0  0  0
  182.5540  178.2070  139.7280 C   0  0  0  0  0  3  0  0  0  0  0  0
  184.3200  177.9790  138.0630 C   0  0  0  0  0  0  0  0  0  0  0  0
  185.6880  177.9990  137.7620 C   0  0  0  0  0  3  0  0  0  0  0  0
  182.1610  178.4330  141.0460 C   0  0  0  0  0  3  0  0  0  0  0  0
  183.3570  177.7190  137.0700 O   0  0  0  0  0  0  0  0  0  0  0  0
  180.8890  174.9640  136.2810 C   0  0  0  0  0  2  0  0  0  0  0  0
  181.4780  173.9080  137.2120 C   0  0  2  0  0  3  0  0  0  0  0  0
  183.5090  175.3290  137.5720 C   0  0  0  0  0  2  0  0  0  0  0  0
  181.3630  176.3540  136.6930 C   0  0  0  0  0  2  0  0  0  0  0  0
  182.8940  176.4200  136.6910 C   0  0  1  0  0  3  0  0  0  0  0  0
  183.0040  173.9540  137.1440 C   0  0  0  0  0  2  0  0  0  0  0  0
  180.6540  171.7880  137.9330 O   0  0  0  0  0  1  0  0  0  0  0  0
  180.9760  172.5360  136.8000 C   0  0  0  0  0  2  0  0  0  0  0  0
  188.0770  178.2320  138.4600 C   0  0  0  0  0  2  0  0  0  0  0  0
  188.8680  178.6770  139.6770 C   0  0  0  0  0  2  0  0  0  0  0  0
  189.7400  177.5380  140.1930 C   0  0  2  0  0  3  0  0  0  0  0  0
  191.0320  175.8260  139.1460 O   0  0  0  0  0  1  0  0  0  0  0  0
  189.7570  176.3890  139.1970 C   0  0  0  0  0  2  0  0  0  0  0  0
  189.2870  177.0540  141.5700 C   0  0  0  0  0  2  0  0  0  0  0  0
  190.4190  176.9270  142.4920 N   0  0  0  0  0  0  0  0  0  0  0  0
  191.3790  176.7440  144.9330 S   0  0  0  0  0  0  0  0  0  0  0  0
  190.7050  175.5600  142.6380 N   0  0  0  0  0  2  0  0  0  0  0  0
  190.1190  177.4480  143.8340 C   0  0  1  0  0  0  0  0  0  0  0  0
  190.2640  178.9630  143.8250 C   0  0  0  0  0  1  0  0  0  0  0  0
  191.7050  175.4600  143.6910 C   0  0  0  0  0  2  0  0  0  0  0  0
  188.7120  177.0240  144.3240 C   0  0  0  0  0  2  0  0  0  0  0  0
  188.3850  177.4390  145.7260 C   0  0  0  0  0  0  0  0  0  0  0  0
  189.0580  177.7490  148.0340 C   0  0  0  0  0  3  0  0  0  0  0  0
  186.8140  178.3400  147.3400 C   0  0  0  0  0  3  0  0  0  0  0  0
  187.7870  178.2440  148.3410 C   0  0  0  0  0  3  0  0  0  0  0  0
  187.1130  177.9370  146.0340 C   0  0  0  0  0  3  0  0  0  0  0  0
  189.3580  177.3510  146.7280 C   0  0  0  0  0  3  0  0  0  0  0  0
  1  6  1  1  0  0  0
  2 12  1  0  0  0  0
  2 11  1  0  0  0  0
  3 10  1  0  0  0  0
  4  8  1  0  0  0  0
  5  1  1  0  0  0  0
  7  4  2  0  0  0  0
  7  9  1  0  0  0  0
  8  1  1  0  0  0  0
  9  5  1  0  0  0  0
 10 11  2  0  0  0  0
 11  7  1  0  0  0  0
 12 15  2  0  0  0  0
 13  2  2  0  0  0  0
 14 13  1  0  0  0  0
 14  3  2  0  0  0  0
 15  4  1  0  0  0  0
 16 13  1  0  0  0  0
 17 20  1  0  0  0  0
 17 18  1  0  0  0  0
 18 24  1  6  0  0  0
 21 20  1  0  0  0  0
 21 16  1  1  0  0  0
 21 19  1  0  0  0  0
 22 18  1  0  0  0  0
 22 19  1  0  0  0  0
 24 23  1  0  0  0  0
 25  3  1  0  0  0  0
 25 26  1  0  0  0  0
 26 27  1  0  0  0  0
 27 29  1  6  0  0  0
 27 30  1  0  0  0  0
 28 29  1  0  0  0  0
 30 31  1  0  0  0  0
 31 33  1  0  0  0  0
 31 34  1  0  0  0  0
 33 36  1  0  0  0  0
 34 35  1  6  0  0  0
 34 37  1  0  0  0  0
 34 32  1  0  0  0  0
 36 32  1  0  0  0  0
 37 38  1  0  0  0  0
 38 42  2  0  0  0  0
 38 43  1  0  0  0  0
 39 41  1  0  0  0  0
 40 41  2  0  0  0  0
 42 40  1  0  0  0  0
 43 39  2  0  0  0  0
M  END
>  <MODEL>
1

>  <REMARK>
 VINA RESULT:      -9.5      0.000      0.000
  Name = 
  11 active torsions:
  status: ('A' for Active; 'I' for Inactive)
    1  A    between atoms: O_1  and  C_34
    2  A    between atoms: O_1  and  C_35
    3  A    between atoms: C_2  and  C_6
    4  A    between atoms: C_2  and  C_13
    5  A    between atoms: C_3  and  N_4
    6  A    between atoms: C_3  and  C_12
    7  A    between atoms: C_6  and  C_12
    8  A    between atoms: C_11  and  C_14
    9  A    between atoms: C_12  and  C_17
   10  A    between atoms: C_14  and  C_22
   11  A    between atoms: C_19  and  C_37
                            x       y       z     vdW  Elec       q    Type
                         _______ _______ _______ _____ _____    ______ ____

>  <TORSDO>
F 11

$$$$
=
 OpenBabel11052416203D

 43 48  0  0  1  0  0  0  0  0999 V2000
  190.8570  176.5940  146.4200 C   0  0  1  0  0  3  0  0  0  0  0  0
  186.3150  178.0950  144.5720 C   0  0  0  0  0  0  0  0  0  0  0  0
  186.6880  178.2600  141.8230 C   0  0  0  0  0  0  0  0  0  0  0  0
  188.5160  177.4850  146.2090 C   0  0  0  0  0  0  0  0  0  0  0  0
  191.1880  177.3870  145.1660 C   0  0  0  0  0  2  0  0  0  0  0  0
  191.9630  176.5790  147.2690 O   0  0  0  0  0  1  0  0  0  0  0  0
  188.6940  177.5890  144.8100 C   0  0  0  0  0  0  0  0  0  0  0  0
  189.6760  177.2440  147.1340 C   0  0  0  0  0  2  0  0  0  0  0  0
  190.0300  177.2790  144.1760 C   0  0  0  0  0  2  0  0  0  0  0  0
  187.7330  177.9670  142.6400 N   0  0  0  0  0  0  0  0  0  0  0  0
  187.5890  177.8840  143.9920 C   0  0  0  0  0  0  0  0  0  0  0  0
  186.1620  178.0050  145.9600 C   0  0  0  0  0  3  0  0  0  0  0  0
  185.2190  178.3830  143.7450 C   0  0  0  0  0  0  0  0  0  0  0  0
  185.4170  178.4670  142.3600 C   0  0  0  0  0  3  0  0  0  0  0  0
  187.2570  177.7080  146.7710 C   0  0  0  0  0  3  0  0  0  0  0  0
  183.9460  178.5750  144.3140 O   0  0  0  0  0  0  0  0  0  0  0  0
  180.2650  178.9640  143.5380 C   0  0  0  0  0  2  0  0  0  0  0  0
  180.3120  178.4190  142.1130 C   0  0  2  0  0  3  0  0  0  0  0  0
  182.8150  178.4930  142.1460 C   0  0  0  0  0  2  0  0  0  0  0  0
  181.5010  178.5200  144.3130 C   0  0  0  0  0  2  0  0  0  0  0  0
  182.7760  178.9780  143.5970 C   0  0  1  0  0  3  0  0  0  0  0  0
  181.5600  178.9410  141.4020 C   0  0  0  0  0  2  0  0  0  0  0  0
  179.2150  180.1590  140.9050 O   0  0  0  0  0  1  0  0  0  0  0  0
  179.0630  178.8510  141.3660 C   0  0  0  0  0  2  0  0  0  0  0  0
  186.8940  178.3120  140.3500 C   0  0  0  0  0  2  0  0  0  0  0  0
  185.6320  178.8140  139.6710 C   0  0  0  0  0  2  0  0  0  0  0  0
  185.5640  178.3130  138.2330 C   0  0  2  0  0  3  0  0  0  0  0  0
  184.1140  176.4680  137.8000 O   0  0  0  0  0  1  0  0  0  0  0  0
  184.1530  177.8590  137.8950 C   0  0  0  0  0  2  0  0  0  0  0  0
  186.5710  177.1930  137.9730 C   0  0  0  0  0  2  0  0  0  0  0  0
  187.2920  177.4020  136.7140 N   0  0  0  0  0  0  0  0  0  0  0  0
  189.4630  177.1680  135.2490 S   0  0  0  0  0  0  0  0  0  0  0  0
  187.0110  176.3160  135.8710 N   0  0  0  0  0  2  0  0  0  0  0  0
  188.7500  177.4380  136.8960 C   0  0  1  0  0  0  0  0  0  0  0  0
  189.1590  178.8190  137.3880 C   0  0  0  0  0  1  0  0  0  0  0  0
  187.8790  176.4620  134.7110 C   0  0  0  0  0  2  0  0  0  0  0  0
  189.2460  176.3320  137.8600 C   0  0  0  0  0  2  0  0  0  0  0  0
  190.5000  176.6690  138.6090 C   0  0  0  0  0  0  0  0  0  0  0  0
  191.5930  177.4750  140.6170 C   0  0  0  0  0  3  0  0  0  0  0  0
  192.9220  176.7590  138.7220 C   0  0  0  0  0  3  0  0  0  0  0  0
  192.8410  177.2700  140.0220 C   0  0  0  0  0  3  0  0  0  0  0  0
  191.7520  176.4600  138.0160 C   0  0  0  0  0  3  0  0  0  0  0  0
  190.4240  177.1720  139.9130 C   0  0  0  0  0  3  0  0  0  0  0  0
  1  8  1  0  0  0  0
  1  6  1  1  0  0  0
  2 12  1  0  0  0  0
  3 14  2  0  0  0  0
  3 10  1  0  0  0  0
  4 15  1  0  0  0  0
  4  8  1  0  0  0  0
  5  1  1  0  0  0  0
  7  4  2  0  0  0  0
  9  7  1  0  0  0  0
  9  5  1  0  0  0  0
 10 11  2  0  0  0  0
 11  2  1  0  0  0  0
 11  7  1  0  0  0  0
 12 15  2  0  0  0  0
 13 16  1  0  0  0  0
 13  2  2  0  0  0  0
 14 13  1  0  0  0  0
 17 20  1  0  0  0  0
 18 24  1  6  0  0  0
 18 17  1  0  0  0  0
 19 21  1  0  0  0  0
 21 20  1  0  0  0  0
 21 16  1  1  0  0  0
 22 18  1  0  0  0  0
 22 19  1  0  0  0  0
 23 24  1  0  0  0  0
 25  3  1  0  0  0  0
 26 25  1  0  0  0  0
 27 29  1  1  0  0  0
 27 26  1  0  0  0  0
 28 29  1  0  0  0  0
 30 27  1  0  0  0  0
 31 34  1  0  0  0  0
 31 30  1  0  0  0  0
 32 34  1  0  0  0  0
 33 31  1  0  0  0  0
 34 35  1  1  0  0  0
 34 37  1  0  0  0  0
 36 32  1  0  0  0  0
 36 33  1  0  0  0  0
 37 38  1  0  0  0  0
 38 43  1  0  0  0  0
 40 41  2  0  0  0  0
 41 39  1  0  0  0  0
 42 38  2  0  0  0  0
 42 40  1  0  0  0  0
 43 39  2  0  0  0  0
M  END
>  <MODEL>
2

>  <REMARK>
 VINA RESULT:      -9.3      3.009      7.053
  Name = 
  11 active torsions:
  status: ('A' for Active; 'I' for Inactive)
    1  A    between atoms: O_1  and  C_34
    2  A    between atoms: O_1  and  C_35
    3  A    between atoms: C_2  and  C_6
    4  A    between atoms: C_2  and  C_13
    5  A    between atoms: C_3  and  N_4
    6  A    between atoms: C_3  and  C_12
    7  A    between atoms: C_6  and  C_12
    8  A    between atoms: C_11  and  C_14
    9  A    between atoms: C_12  and  C_17
   10  A    between atoms: C_14  and  C_22
   11  A    between atoms: C_19  and  C_37
                            x       y       z     vdW  Elec       q    Type
                         _______ _______ _______ _____ _____    ______ ____

>  <TORSDO>
F 11

$$$$
=
 OpenBabel11052416203D

 43 48  0  0  1  0  0  0  0  0999 V2000
  191.1780  176.2220  146.9360 C   0  0  1  0  0  3  0  0  0  0  0  0
  186.9770  177.8810  144.5080 C   0  0  0  0  0  0  0  0  0  0  0  0
  187.8040  178.3400  141.8950 C   0  0  0  0  0  0  0  0  0  0  0  0
  188.8850  177.1150  146.4240 C   0  0  0  0  0  0  0  0  0  0  0  0
  191.6960  177.1460  145.8450 C   0  0  0  0  0  2  0  0  0  0  0  0
  192.1250  176.1240  147.9550 O   0  0  0  0  0  1  0  0  0  0  0  0
  189.2940  177.3690  145.0930 C   0  0  0  0  0  0  0  0  0  0  0  0
  189.8780  176.7840  147.5020 C   0  0  0  0  0  2  0  0  0  0  0  0
  190.7250  177.1360  144.6680 C   0  0  0  0  0  2  0  0  0  0  0  0
  188.7030  177.9690  142.8430 N   0  0  0  0  0  0  0  0  0  0  0  0
  188.3350  177.7410  144.1340 C   0  0  0  0  0  0  0  0  0  0  0  0
  186.5940  177.6430  145.8330 C   0  0  0  0  0  3  0  0  0  0  0  0
  186.0290  178.2480  143.5410 C   0  0  0  0  0  0  0  0  0  0  0  0
  186.4560  178.4810  142.2260 C   0  0  0  0  0  3  0  0  0  0  0  0
  187.5440  177.2690  146.7830 C   0  0  0  0  0  3  0  0  0  0  0  0
  184.6750  178.3700  143.9020 O   0  0  0  0  0  0  0  0  0  0  0  0
  181.1860  179.3730  142.8390 C   0  0  0  0  0  2  0  0  0  0  0  0
  181.1370  178.5560  141.5500 C   0  0  2  0  0  3  0  0  0  0  0  0
  183.5940  178.0980  141.7230 C   0  0  0  0  0  2  0  0  0  0  0  0
  182.2780  178.8400  143.7600 C   0  0  0  0  0  2  0  0  0  0  0  0
  183.6360  178.8620  143.0500 C   0  0  1  0  0  3  0  0  0  0  0  0
  182.4830  178.6460  140.8310 C   0  0  0  0  0  2  0  0  0  0  0  0
  179.6340  180.3520  141.0940 O   0  0  0  0  0  1  0  0  0  0  0  0
  180.0300  179.0870  140.6580 C   0  0  0  0  0  2  0  0  0  0  0  0
  188.2530  178.5500  140.4920 C   0  0  0  0  0  2  0  0  0  0  0  0
  189.1860  177.4270  140.0750 C   0  0  0  0  0  2  0  0  0  0  0  0
  188.7780  176.8710  138.7160 C   0  0  2  0  0  3  0  0  0  0  0  0
  190.7850  175.6000  138.4830 O   0  0  0  0  0  1  0  0  0  0  0  0
  190.0080  176.5820  137.8700 C   0  0  0  0  0  2  0  0  0  0  0  0
  187.8240  177.8110  137.9800 C   0  0  0  0  0  2  0  0  0  0  0  0
  187.3790  177.2340  136.7080 N   0  0  0  0  0  0  0  0  0  0  0  0
  185.4580  176.4220  135.1060 S   0  0  0  0  0  0  0  0  0  0  0  0
  187.2510  178.2810  135.7810 N   0  0  0  0  0  2  0  0  0  0  0  0
  186.0620  176.5880  136.8090 C   0  0  1  0  0  0  0  0  0  0  0  0
  186.2320  175.1990  137.4070 C   0  0  0  0  0  1  0  0  0  0  0  0
  186.6380  177.7040  134.5940 C   0  0  0  0  0  2  0  0  0  0  0  0
  185.0580  177.4330  137.6320 C   0  0  0  0  0  2  0  0  0  0  0  0
  183.6440  176.9360  137.5980 C   0  0  0  0  0  0  0  0  0  0  0  0
  181.3890  177.0840  136.7220 C   0  0  0  0  0  3  0  0  0  0  0  0
  181.9490  175.3670  138.3370 C   0  0  0  0  0  3  0  0  0  0  0  0
  181.0100  175.9910  137.5080 C   0  0  0  0  0  3  0  0  0  0  0  0
  183.2640  175.8400  138.3820 C   0  0  0  0  0  3  0  0  0  0  0  0
  182.7050  177.5530  136.7640 C   0  0  0  0  0  3  0  0  0  0  0  0
  1  8  1  0  0  0  0
  1  6  1  1  0  0  0
  2 12  1  0  0  0  0
  3 14  2  0  0  0  0
  3 10  1  0  0  0  0
  4 15  1  0  0  0  0
  4  8  1  0  0  0  0
  5  1  1  0  0  0  0
  7  4  2  0  0  0  0
  9  7  1  0  0  0  0
  9  5  1  0  0  0  0
 10 11  2  0  0  0  0
 11  2  1  0  0  0  0
 11  7  1  0  0  0  0
 12 15  2  0  0  0  0
 13 16  1  0  0  0  0
 13  2  2  0  0  0  0
 14 13  1  0  0  0  0
 17 20  1  0  0  0  0
 18 24  1  6  0  0  0
 18 17  1  0  0  0  0
 19 21  1  0  0  0  0
 21 20  1  0  0  0  0
 21 16  1  1  0  0  0
 22 18  1  0  0  0  0
 22 19  1  0  0  0  0
 24 23  1  0  0  0  0
 25  3  1  0  0  0  0
 26 25  1  0  0  0  0
 27 29  1  6  0  0  0
 27 26  1  0  0  0  0
 29 28  1  0  0  0  0
 30 27  1  0  0  0  0
 31 34  1  0  0  0  0
 31 30  1  0  0  0  0
 32 34  1  0  0  0  0
 33 31  1  0  0  0  0
 34 35  1  1  0  0  0
 34 37  1  0  0  0  0
 36 32  1  0  0  0  0
 36 33  1  0  0  0  0
 38 37  1  0  0  0  0
 38 42  1  0  0  0  0
 39 43  1  0  0  0  0
 39 41  2  0  0  0  0
 40 42  2  0  0  0  0
 41 40  1  0  0  0  0
 43 38  2  0  0  0  0
M  END
>  <MODEL>
3

>  <REMARK>
 VINA RESULT:      -9.1      2.907      7.609
  Name = 
  11 active torsions:
  status: ('A' for Active; 'I' for Inactive)
    1  A    between atoms: O_1  and  C_34
    2  A    between atoms: O_1  and  C_35
    3  A    between atoms: C_2  and  C_6
    4  A    between atoms: C_2  and  C_13
    5  A    between atoms: C_3  and  N_4
    6  A    between atoms: C_3  and  C_12
    7  A    between atoms: C_6  and  C_12
    8  A    between atoms: C_11  and  C_14
    9  A    between atoms: C_12  and  C_17
   10  A    between atoms: C_14  and  C_22
   11  A    between atoms: C_19  and  C_37
                            x       y       z     vdW  Elec       q    Type
                         _______ _______ _______ _____ _____    ______ ____

>  <TORSDO>
F 11

$$$$
=
 OpenBabel11052416203D

 43 48  0  0  1  0  0  0  0  0999 V2000
  180.4240  178.2940  143.5780 C   0  0  1  0  0  3  0  0  0  0  0  0
  183.5270  178.3170  139.4950 C   0  0  0  0  0  0  0  0  0  0  0  0
  186.0890  178.5150  140.5540 C   0  0  0  0  0  0  0  0  0  0  0  0
  181.3240  178.4370  141.2350 C   0  0  0  0  0  0  0  0  0  0  0  0
  181.6280  179.1160  144.0060 C   0  0  0  0  0  2  0  0  0  0  0  0
  179.3220  178.6320  144.3620 O   0  0  0  0  0  1  0  0  0  0  0  0
  182.6330  178.5530  141.7570 C   0  0  0  0  0  0  0  0  0  0  0  0
  180.1110  178.5780  142.1120 C   0  0  0  0  0  2  0  0  0  0  0  0
  182.8640  178.6410  143.2480 C   0  0  0  0  0  2  0  0  0  0  0  0
  185.0040  178.5700  141.3700 N   0  0  0  0  0  0  0  0  0  0  0  0
  183.7340  178.4820  140.8850 C   0  0  0  0  0  0  0  0  0  0  0  0
  182.2240  178.2220  138.9950 C   0  0  0  0  0  3  0  0  0  0  0  0
  184.6340  178.2420  138.6360 C   0  0  0  0  0  0  0  0  0  0  0  0
  185.9230  178.3460  139.1790 C   0  0  0  0  0  3  0  0  0  0  0  0
  181.1320  178.2870  139.8590 C   0  0  0  0  0  3  0  0  0  0  0  0
  184.4360  178.0580  137.2550 O   0  0  0  0  0  0  0  0  0  0  0  0
  184.7980  174.3610  136.5440 C   0  0  0  0  0  2  0  0  0  0  0  0
  186.2700  174.3880  136.1430 C   0  0  2  0  0  3  0  0  0  0  0  0
  186.2240  176.8900  136.0610 C   0  0  0  0  0  2  0  0  0  0  0  0
  184.4460  175.6140  137.3390 C   0  0  0  0  0  2  0  0  0  0  0  0
  184.7650  176.8730  136.5260 C   0  0  1  0  0  3  0  0  0  0  0  0
  186.5480  175.6190  135.2810 C   0  0  0  0  0  2  0  0  0  0  0  0
  187.1930  172.1890  136.2270 O   0  0  0  0  0  1  0  0  0  0  0  0
  186.6060  173.1230  135.3730 C   0  0  0  0  0  2  0  0  0  0  0  0
  187.4570  178.5880  141.1360 C   0  0  0  0  0  2  0  0  0  0  0  0
  188.4930  178.5510  140.0270 C   0  0  0  0  0  2  0  0  0  0  0  0
  189.6900  177.7050  140.4420 C   0  0  2  0  0  3  0  0  0  0  0  0
  189.1750  176.5000  138.4470 O   0  0  0  0  0  1  0  0  0  0  0  0
  190.2300  176.9280  139.2530 C   0  0  0  0  0  2  0  0  0  0  0  0
  189.3470  176.7610  141.5950 C   0  0  0  0  0  2  0  0  0  0  0  0
  190.3530  176.8270  142.6580 N   0  0  0  0  0  0  0  0  0  0  0  0
  190.9990  176.8150  145.2080 S   0  0  0  0  0  0  0  0  0  0  0  0
  190.8370  175.5270  142.8750 N   0  0  0  0  0  2  0  0  0  0  0  0
  189.7970  177.2960  143.9360 C   0  0  1  0  0  0  0  0  0  0  0  0
  189.6920  178.8140  143.9090 C   0  0  0  0  0  1  0  0  0  0  0  0
  191.6930  175.5990  144.0510 C   0  0  0  0  0  2  0  0  0  0  0  0
  188.4270  176.6460  144.2510 C   0  0  0  0  0  2  0  0  0  0  0  0
  187.5710  177.4180  145.2080 C   0  0  0  0  0  0  0  0  0  0  0  0
  185.5850  178.7340  145.6560 C   0  0  0  0  0  3  0  0  0  0  0  0
  187.1290  178.2280  147.4520 C   0  0  0  0  0  3  0  0  0  0  0  0
  185.9530  178.8370  147.0000 C   0  0  0  0  0  3  0  0  0  0  0  0
  187.9370  177.5200  146.5560 C   0  0  0  0  0  3  0  0  0  0  0  0
  186.3900  178.0220  144.7620 C   0  0  0  0  0  3  0  0  0  0  0  0
  1  5  1  0  0  0  0
  1  6  1  1  0  0  0
  2 11  1  0  0  0  0
  3 25  1  0  0  0  0
  3 10  1  0  0  0  0
  4  7  2  0  0  0  0
  4  8  1  0  0  0  0
  7  9  1  0  0  0  0
  8  1  1  0  0  0  0
  9  5  1  0  0  0  0
 11 10  2  0  0  0  0
 11  7  1  0  0  0  0
 12  2  1  0  0  0  0
 12 15  2  0  0  0  0
 13 14  1  0  0  0  0
 13  2  2  0  0  0  0
 14  3  2  0  0  0  0
 15  4  1  0  0  0  0
 16 13  1  0  0  0  0
 17 20  1  0  0  0  0
 18 24  1  6  0  0  0
 18 17  1  0  0  0  0
 19 21  1  0  0  0  0
 21 16  1  1  0  0  0
 21 20  1  0  0  0  0
 22 19  1  0  0  0  0
 22 18  1  0  0  0  0
 24 23  1  0  0  0  0
 26 27  1  0  0  0  0
 26 25  1  0  0  0  0
 27 29  1  6  0  0  0
 27 30  1  0  0  0  0
 28 29  1  0  0  0  0
 30 31  1  0  0  0  0
 31 33  1  0  0  0  0
 31 34  1  0  0  0  0
 33 36  1  0  0  0  0
 34 35  1  6  0  0  0
 34 37  1  0  0  0  0
 34 32  1  0  0  0  0
 36 32  1  0  0  0  0
 37 38  1  0  0  0  0
 38 42  1  0  0  0  0
 39 41  2  0  0  0  0
 41 40  1  0  0  0  0
 42 40  2  0  0  0  0
 43 38  2  0  0  0  0
 43 39  1  0  0  0  0
M  END
>  <MODEL>
4

>  <REMARK>
 VINA RESULT:      -9.1      1.972      2.635
  Name = 
  11 active torsions:
  status: ('A' for Active; 'I' for Inactive)
    1  A    between atoms: O_1  and  C_34
    2  A    between atoms: O_1  and  C_35
    3  A    between atoms: C_2  and  C_6
    4  A    between atoms: C_2  and  C_13
    5  A    between atoms: C_3  and  N_4
    6  A    between atoms: C_3  and  C_12
    7  A    between atoms: C_6  and  C_12
    8  A    between atoms: C_11  and  C_14
    9  A    between atoms: C_12  and  C_17
   10  A    between atoms: C_14  and  C_22
   11  A    between atoms: C_19  and  C_37
                            x       y       z     vdW  Elec       q    Type
                         _______ _______ _______ _____ _____    ______ ____

>  <TORSDO>
F 11

$$$$
=
 OpenBabel11052416203D

 43 48  0  0  1  0  0  0  0  0999 V2000
  187.7310  177.2340  147.2550 C   0  0  1  0  0  3  0  0  0  0  0  0
  185.9480  178.6880  142.6720 C   0  0  0  0  0  0  0  0  0  0  0  0
  188.0430  178.2020  140.9110 C   0  0  0  0  0  0  0  0  0  0  0  0
  186.3560  178.2630  145.4190 C   0  0  0  0  0  0  0  0  0  0  0  0
  188.9590  177.6950  146.4850 C   0  0  0  0  0  2  0  0  0  0  0  0
  187.9810  177.3090  148.6240 O   0  0  0  0  0  1  0  0  0  0  0  0
  187.4180  178.0360  144.5120 C   0  0  0  0  0  0  0  0  0  0  0  0
  186.5470  178.1300  146.9040 C   0  0  0  0  0  2  0  0  0  0  0  0
  188.7350  177.4730  144.9920 C   0  0  0  0  0  2  0  0  0  0  0  0
  188.2090  178.0060  142.2440 N   0  0  0  0  0  0  0  0  0  0  0  0
  187.2080  178.2390  143.1370 C   0  0  0  0  0  0  0  0  0  0  0  0
  184.9150  178.9240  143.5850 C   0  0  0  0  0  3  0  0  0  0  0  0
  185.7500  178.8820  141.2960 C   0  0  0  0  0  0  0  0  0  0  0  0
  186.8130  178.6370  140.4150 C   0  0  0  0  0  3  0  0  0  0  0  0
  185.1220  178.7180  144.9490 C   0  0  0  0  0  3  0  0  0  0  0  0
  184.4950  179.3090  140.8250 O   0  0  0  0  0  0  0  0  0  0  0  0
  181.9170  178.9430  138.0810 C   0  0  0  0  0  2  0  0  0  0  0  0
  181.2670  177.6640  138.6000 C   0  0  2  0  0  3  0  0  0  0  0  0
  183.1270  177.3630  140.2500 C   0  0  0  0  0  2  0  0  0  0  0  0
  182.6960  179.6290  139.1990 C   0  0  0  0  0  2  0  0  0  0  0  0
  183.7500  178.6800  139.7780 C   0  0  1  0  0  3  0  0  0  0  0  0
  182.3450  176.7090  139.1140 C   0  0  0  0  0  2  0  0  0  0  0  0
  180.5410  175.6210  137.6030 O   0  0  0  0  0  1  0  0  0  0  0  0
  180.4780  177.0090  137.4800 C   0  0  0  0  0  2  0  0  0  0  0  0
  189.1610  177.9060  139.9740 C   0  0  0  0  0  2  0  0  0  0  0  0
  190.1190  176.9150  140.6110 C   0  0  0  0  0  2  0  0  0  0  0  0
  191.3050  176.6520  139.6910 C   0  0  2  0  0  3  0  0  0  0  0  0
  193.6570  176.9910  139.4680 O   0  0  0  0  0  1  0  0  0  0  0  0
  192.5280  177.4180  140.1680 C   0  0  0  0  0  2  0  0  0  0  0  0
  190.9840  176.9960  138.2370 C   0  0  0  0  0  2  0  0  0  0  0  0
  191.1670  175.8370  137.3590 N   0  0  0  0  0  0  0  0  0  0  0  0
  190.5770  174.5010  135.1720 S   0  0  0  0  0  0  0  0  0  0  0  0
  192.2410  176.1130  136.4980 N   0  0  0  0  0  2  0  0  0  0  0  0
  189.9940  175.5770  136.5110 C   0  0  1  0  0  0  0  0  0  0  0  0
  188.9470  174.8280  137.3230 C   0  0  0  0  0  1  0  0  0  0  0  0
  192.2780  175.0280  135.5280 C   0  0  0  0  0  2  0  0  0  0  0  0
  189.4090  176.8790  135.9090 C   0  0  0  0  0  2  0  0  0  0  0  0
  187.9120  176.9460  135.8940 C   0  0  0  0  0  0  0  0  0  0  0  0
  185.8300  177.6090  136.9450 C   0  0  0  0  0  3  0  0  0  0  0  0
  185.7980  176.5170  134.7830 C   0  0  0  0  0  3  0  0  0  0  0  0
  185.1160  177.1000  135.8570 C   0  0  0  0  0  3  0  0  0  0  0  0
  187.1940  176.4390  134.8030 C   0  0  0  0  0  3  0  0  0  0  0  0
  187.2260  177.5360  136.9630 C   0  0  0  0  0  3  0  0  0  0  0  0
  1  6  1  1  0  0  0
  2 11  1  0  0  0  0
  2 12  1  0  0  0  0
  3 10  1  0  0  0  0
  4  8  1  0  0  0  0
  5  1  1  0  0  0  0
  7  9  1  0  0  0  0
  7  4  2  0  0  0  0
  8  1  1  0  0  0  0
  9  5  1  0  0  0  0
 10 11  2  0  0  0  0
 11  7  1  0  0  0  0
 12 15  2  0  0  0  0
 13  2  2  0  0  0  0
 14  3  2  0  0  0  0
 14 13  1  0  0  0  0
 15  4  1  0  0  0  0
 16 13  1  0  0  0  0
 17 18  1  0  0  0  0
 17 20  1  0  0  0  0
 18 24  1  6  0  0  0
 18 22  1  0  0  0  0
 20 21  1  0  0  0  0
 21 19  1  0  0  0  0
 21 16  1  1  0  0  0
 22 19  1  0  0  0  0
 24 23  1  0  0  0  0
 25 26  1  0  0  0  0
 25  3  1  0  0  0  0
 27 30  1  6  0  0  0
 27 29  1  0  0  0  0
 27 26  1  0  0  0  0
 28 29  1  0  0  0  0
 31 30  1  0  0  0  0
 32 36  1  0  0  0  0
 32 34  1  0  0  0  0
 33 31  1  0  0  0  0
 34 35  1  1  0  0  0
 34 31  1  0  0  0  0
 36 33  1  0  0  0  0
 37 34  1  0  0  0  0
 38 37  1  0  0  0  0
 38 43  1  0  0  0  0
 39 43  2  0  0  0  0
 40 42  1  0  0  0  0
 40 41  2  0  0  0  0
 41 39  1  0  0  0  0
 42 38  2  0  0  0  0
M  END
>  <MODEL>
5

>  <REMARK>
 VINA RESULT:      -9.0      2.995      6.257
  Name = 
  11 active torsions:
  status: ('A' for Active; 'I' for Inactive)
    1  A    between atoms: O_1  and  C_34
    2  A    between atoms: O_1  and  C_35
    3  A    between atoms: C_2  and  C_6
    4  A    between atoms: C_2  and  C_13
    5  A    between atoms: C_3  and  N_4
    6  A    between atoms: C_3  and  C_12
    7  A    between atoms: C_6  and  C_12
    8  A    between atoms: C_11  and  C_14
    9  A    between atoms: C_12  and  C_17
   10  A    between atoms: C_14  and  C_22
   11  A    between atoms: C_19  and  C_37
                            x       y       z     vdW  Elec       q    Type
                         _______ _______ _______ _____ _____    ______ ____

>  <TORSDO>
F 11

$$$$
=
 OpenBabel11052416203D

 43 48  0  0  1  0  0  0  0  0999 V2000
  187.9280  177.3580  147.5190 C   0  0  1  0  0  3  0  0  0  0  0  0
  185.9380  178.5130  142.9360 C   0  0  0  0  0  0  0  0  0  0  0  0
  187.9770  177.9800  141.1240 C   0  0  0  0  0  0  0  0  0  0  0  0
  186.4590  178.2500  145.6850 C   0  0  0  0  0  0  0  0  0  0  0  0
  189.1140  177.8030  146.6790 C   0  0  0  0  0  2  0  0  0  0  0  0
  188.2270  177.5140  148.8720 O   0  0  0  0  0  1  0  0  0  0  0  0
  187.4920  177.9990  144.7510 C   0  0  0  0  0  0  0  0  0  0  0  0
  186.7090  178.2050  147.1660 C   0  0  0  0  0  2  0  0  0  0  0  0
  188.8400  177.4950  145.2090 C   0  0  0  0  0  2  0  0  0  0  0  0
  188.1990  177.8620  142.4590 N   0  0  0  0  0  0  0  0  0  0  0  0
  187.2250  178.1210  143.3760 C   0  0  0  0  0  0  0  0  0  0  0  0
  184.9350  178.7750  143.8750 C   0  0  0  0  0  3  0  0  0  0  0  0
  185.6840  178.6260  141.5600 C   0  0  0  0  0  0  0  0  0  0  0  0
  186.7190  178.3580  140.6540 C   0  0  0  0  0  3  0  0  0  0  0  0
  185.1970  178.6490  145.2390 C   0  0  0  0  0  3  0  0  0  0  0  0
  184.4010  178.9970  141.1160 O   0  0  0  0  0  0  0  0  0  0  0  0
  182.1460  176.4330  139.4900 C   0  0  0  0  0  2  0  0  0  0  0  0
  180.8370  177.2020  139.6490 C   0  0  2  0  0  3  0  0  0  0  0  0
  181.9600  178.8370  141.1790 C   0  0  0  0  0  2  0  0  0  0  0  0
  183.3330  177.3800  139.6230 C   0  0  0  0  0  2  0  0  0  0  0  0
  183.2910  178.1070  140.9710 C   0  0  1  0  0  3  0  0  0  0  0  0
  180.7930  177.8660  141.0260 C   0  0  0  0  0  2  0  0  0  0  0  0
  179.9750  175.0190  140.0770 O   0  0  0  0  0  1  0  0  0  0  0  0
  179.6680  176.2470  139.4900 C   0  0  0  0  0  2  0  0  0  0  0  0
  189.0670  177.6590  140.1630 C   0  0  0  0  0  2  0  0  0  0  0  0
  189.0560  178.6570  139.0180 C   0  0  0  0  0  2  0  0  0  0  0  0
  189.0500  177.9330  137.6780 C   0  0  2  0  0  3  0  0  0  0  0  0
  186.9410  179.0020  137.3570 O   0  0  0  0  0  1  0  0  0  0  0  0
  188.1140  178.6280  136.7020 C   0  0  0  0  0  2  0  0  0  0  0  0
  188.6760  176.4580  137.8300 C   0  0  0  0  0  2  0  0  0  0  0  0
  188.3240  175.8590  136.5390 N   0  0  0  0  0  0  0  0  0  0  0  0
  188.6450  173.9940  134.7140 S   0  0  0  0  0  0  0  0  0  0  0  0
  187.2360  174.9970  136.7470 N   0  0  0  0  0  2  0  0  0  0  0  0
  189.4130  175.0470  135.9760 C   0  0  1  0  0  0  0  0  0  0  0  0
  190.4230  175.9650  135.3020 C   0  0  0  0  0  1  0  0  0  0  0  0
  187.0310  174.2860  135.4930 C   0  0  0  0  0  2  0  0  0  0  0  0
  190.0930  174.1580  137.0460 C   0  0  0  0  0  2  0  0  0  0  0  0
  191.5840  174.2860  137.1140 C   0  0  0  0  0  0  0  0  0  0  0  0
  193.5580  175.4050  137.9680 C   0  0  0  0  0  3  0  0  0  0  0  0
  193.7930  173.5000  136.4910 C   0  0  0  0  0  3  0  0  0  0  0  0
  194.3710  174.5100  137.2670 C   0  0  0  0  0  3  0  0  0  0  0  0
  192.4010  173.3890  136.4140 C   0  0  0  0  0  3  0  0  0  0  0  0
  192.1670  175.2910  137.8950 C   0  0  0  0  0  3  0  0  0  0  0  0
  1  6  1  1  0  0  0
  2 11  1  0  0  0  0
  2 12  1  0  0  0  0
  3 10  1  0  0  0  0
  4  8  1  0  0  0  0
  5  1  1  0  0  0  0
  7  9  1  0  0  0  0
  7  4  2  0  0  0  0
  8  1  1  0  0  0  0
  9  5  1  0  0  0  0
 10 11  2  0  0  0  0
 11  7  1  0  0  0  0
 12 15  2  0  0  0  0
 13  2  2  0  0  0  0
 14  3  2  0  0  0  0
 14 13  1  0  0  0  0
 15  4  1  0  0  0  0
 16 13  1  0  0  0  0
 17 20  1  0  0  0  0
 17 18  1  0  0  0  0
 18 24  1  1  0  0  0
 18 22  1  0  0  0  0
 20 21  1  0  0  0  0
 21 16  1  6  0  0  0
 21 19  1  0  0  0  0
 22 19  1  0  0  0  0
 24 23  1  0  0  0  0
 25  3  1  0  0  0  0
 26 25  1  0  0  0  0
 27 29  1  6  0  0  0
 27 30  1  0  0  0  0
 27 26  1  0  0  0  0
 29 28  1  0  0  0  0
 31 33  1  0  0  0  0
 31 30  1  0  0  0  0
 32 36  1  0  0  0  0
 32 34  1  0  0  0  0
 34 35  1  6  0  0  0
 34 31  1  0  0  0  0
 34 37  1  0  0  0  0
 36 33  1  0  0  0  0
 37 38  1  0  0  0  0
 38 43  1  0  0  0  0
 40 41  2  0  0  0  0
 41 39  1  0  0  0  0
 42 40  1  0  0  0  0
 42 38  2  0  0  0  0
 43 39  2  0  0  0  0
M  END
>  <MODEL>
6

>  <REMARK>
 VINA RESULT:      -8.8      3.369      6.646
  Name = 
  11 active torsions:
  status: ('A' for Active; 'I' for Inactive)
    1  A    between atoms: O_1  and  C_34
    2  A    between atoms: O_1  and  C_35
    3  A    between atoms: C_2  and  C_6
    4  A    between atoms: C_2  and  C_13
    5  A    between atoms: C_3  and  N_4
    6  A    between atoms: C_3  and  C_12
    7  A    between atoms: C_6  and  C_12
    8  A    between atoms: C_11  and  C_14
    9  A    between atoms: C_12  and  C_17
   10  A    between atoms: C_14  and  C_22
   11  A    between atoms: C_19  and  C_37
                            x       y       z     vdW  Elec       q    Type
                         _______ _______ _______ _____ _____    ______ ____

>  <TORSDO>
F 11

$$$$
=
 OpenBabel11052416203D

 43 48  0  0  1  0  0  0  0  0999 V2000
  186.9510  171.6150  135.4780 C   0  0  1  0  0  3  0  0  0  0  0  0
  185.2280  176.1220  137.2160 C   0  0  0  0  0  0  0  0  0  0  0  0
  187.5220  177.5830  137.7910 C   0  0  0  0  0  0  0  0  0  0  0  0
  185.4910  173.4520  136.3790 C   0  0  0  0  0  0  0  0  0  0  0  0
  188.0180  172.0930  136.4510 C   0  0  0  0  0  2  0  0  0  0  0  0
  187.0290  170.2300  135.3420 O   0  0  0  0  0  1  0  0  0  0  0  0
  186.6480  174.2030  136.6920 C   0  0  0  0  0  0  0  0  0  0  0  0
  185.5730  171.9980  136.0080 C   0  0  0  0  0  2  0  0  0  0  0  0
  188.0260  173.6190  136.4860 C   0  0  0  0  0  2  0  0  0  0  0  0
  187.6170  176.2900  137.3840 N   0  0  0  0  0  0  0  0  0  0  0  0
  186.5150  175.5430  137.1000 C   0  0  0  0  0  0  0  0  0  0  0  0
  184.0940  175.3580  136.9200 C   0  0  0  0  0  3  0  0  0  0  0  0
  185.1090  177.4610  137.6190 C   0  0  0  0  0  0  0  0  0  0  0  0
  186.2700  178.1890  137.9100 C   0  0  0  0  0  3  0  0  0  0  0  0
  184.2270  174.0320  136.5100 C   0  0  0  0  0  3  0  0  0  0  0  0
  183.8340  178.0490  137.7170 O   0  0  0  0  0  0  0  0  0  0  0  0
  182.8090  178.3450  141.3460 C   0  0  0  0  0  2  0  0  0  0  0  0
  181.3610  178.7600  141.1010 C   0  0  2  0  0  3  0  0  0  0  0  0
  181.8530  179.1210  138.6730 C   0  0  0  0  0  2  0  0  0  0  0  0
  183.3880  177.6920  140.0950 C   0  0  0  0  0  2  0  0  0  0  0  0
  183.2900  178.6430  138.8990 C   0  0  1  0  0  3  0  0  0  0  0  0
  181.2980  179.7570  139.9440 C   0  0  0  0  0  2  0  0  0  0  0  0
  179.8470  180.3530  142.0310 O   0  0  0  0  0  1  0  0  0  0  0  0
  180.7960  179.3860  142.3640 C   0  0  0  0  0  2  0  0  0  0  0  0
  188.7580  178.3650  138.0630 C   0  0  0  0  0  2  0  0  0  0  0  0
  188.9380  178.5410  139.5610 C   0  0  0  0  0  2  0  0  0  0  0  0
  190.1220  177.7190  140.0560 C   0  0  2  0  0  3  0  0  0  0  0  0
  190.7750  175.6320  139.1000 O   0  0  0  0  0  1  0  0  0  0  0  0
  190.8010  177.0110  138.8950 C   0  0  0  0  0  2  0  0  0  0  0  0
  189.7070  176.7160  141.1330 C   0  0  0  0  0  2  0  0  0  0  0  0
  190.5060  176.8760  142.3510 N   0  0  0  0  0  0  0  0  0  0  0  0
  190.7020  176.9450  144.9720 S   0  0  0  0  0  0  0  0  0  0  0  0
  191.0470  175.6230  142.6790 N   0  0  0  0  0  2  0  0  0  0  0  0
  189.7030  177.3110  143.5030 C   0  0  1  0  0  0  0  0  0  0  0  0
  189.4840  178.8150  143.4200 C   0  0  0  0  0  1  0  0  0  0  0  0
  191.6790  175.7780  143.9810 C   0  0  0  0  0  2  0  0  0  0  0  0
  188.3550  176.5540  143.5940 C   0  0  0  0  0  2  0  0  0  0  0  0
  187.2460  177.3220  144.2480 C   0  0  0  0  0  0  0  0  0  0  0  0
  186.2190  178.2330  146.2460 C   0  0  0  0  0  3  0  0  0  0  0  0
  185.1970  178.6090  144.0820 C   0  0  0  0  0  3  0  0  0  0  0  0
  185.1950  178.7840  145.4700 C   0  0  0  0  0  3  0  0  0  0  0  0
  186.2210  177.8780  143.4720 C   0  0  0  0  0  3  0  0  0  0  0  0
  187.2450  177.5070  145.6360 C   0  0  0  0  0  3  0  0  0  0  0  0
  1  6  1  1  0  0  0
  1  8  1  0  0  0  0
  1  5  1  0  0  0  0
  2 13  1  0  0  0  0
  3 14  1  0  0  0  0
  3 25  1  0  0  0  0
  4 15  2  0  0  0  0
  4  7  1  0  0  0  0
  5  9  1  0  0  0  0
  7 11  2  0  0  0  0
  8  4  1  0  0  0  0
  9  7  1  0  0  0  0
 10  3  2  0  0  0  0
 11  2  1  0  0  0  0
 11 10  1  0  0  0  0
 12  2  2  0  0  0  0
 13 16  1  0  0  0  0
 13 14  2  0  0  0  0
 15 12  1  0  0  0  0
 18 17  1  0  0  0  0
 18 24  1  1  0  0  0
 19 21  1  0  0  0  0
 19 22  1  0  0  0  0
 20 17  1  0  0  0  0
 21 16  1  6  0  0  0
 21 20  1  0  0  0  0
 22 18  1  0  0  0  0
 23 24  1  0  0  0  0
 25 26  1  0  0  0  0
 26 27  1  0  0  0  0
 27 29  1  6  0  0  0
 27 30  1  0  0  0  0
 29 28  1  0  0  0  0
 30 31  1  0  0  0  0
 31 33  1  0  0  0  0
 31 34  1  0  0  0  0
 33 36  1  0  0  0  0
 34 35  1  6  0  0  0
 34 37  1  0  0  0  0
 34 32  1  0  0  0  0
 36 32  1  0  0  0  0
 37 38  1  0  0  0  0
 38 43  1  0  0  0  0
 40 41  2  0  0  0  0
 41 39  1  0  0  0  0
 42 40  1  0  0  0  0
 42 38  2  0  0  0  0
 43 39  2  0  0  0  0
M  END
>  <MODEL>
7

>  <REMARK>
 VINA RESULT:      -8.8      2.345      5.461
  Name = 
  11 active torsions:
  status: ('A' for Active; 'I' for Inactive)
    1  A    between atoms: O_1  and  C_34
    2  A    between atoms: O_1  and  C_35
    3  A    between atoms: C_2  and  C_6
    4  A    between atoms: C_2  and  C_13
    5  A    between atoms: C_3  and  N_4
    6  A    between atoms: C_3  and  C_12
    7  A    between atoms: C_6  and  C_12
    8  A    between atoms: C_11  and  C_14
    9  A    between atoms: C_12  and  C_17
   10  A    between atoms: C_14  and  C_22
   11  A    between atoms: C_19  and  C_37
                            x       y       z     vdW  Elec       q    Type
                         _______ _______ _______ _____ _____    ______ ____

>  <TORSDO>
F 11

$$$$
=
 OpenBabel11052416203D

 43 48  0  0  1  0  0  0  0  0999 V2000
  190.8210  177.1640  146.5750 C   0  0  1  0  0  3  0  0  0  0  0  0
  189.7500  177.4800  141.5700 C   0  0  0  0  0  0  0  0  0  0  0  0
  187.1520  178.4620  141.4620 C   0  0  0  0  0  0  0  0  0  0  0  0
  190.8820  176.9010  144.0760 C   0  0  0  0  0  0  0  0  0  0  0  0
  189.3190  176.9510  146.4820 C   0  0  0  0  0  2  0  0  0  0  0  0
  191.3010  176.6050  147.7590 O   0  0  0  0  0  1  0  0  0  0  0  0
  189.5540  177.3850  144.0040 C   0  0  0  0  0  0  0  0  0  0  0  0
  191.5020  176.4980  145.3840 C   0  0  0  0  0  2  0  0  0  0  0  0
  188.7750  177.6890  145.2620 C   0  0  0  0  0  2  0  0  0  0  0  0
  187.7260  178.1730  142.6590 N   0  0  0  0  0  0  0  0  0  0  0  0
  188.9940  177.6840  142.7490 C   0  0  0  0  0  0  0  0  0  0  0  0
  191.0540  176.9830  141.6600 C   0  0  0  0  0  3  0  0  0  0  0  0
  189.1810  177.7870  140.3240 C   0  0  0  0  0  0  0  0  0  0  0  0
  187.8690  178.2790  140.2800 C   0  0  0  0  0  3  0  0  0  0  0  0
  191.6120  176.6910  142.9040 C   0  0  0  0  0  3  0  0  0  0  0  0
  189.9330  177.6040  139.1500 O   0  0  0  0  0  0  0  0  0  0  0  0
  191.0950  174.5010  137.3260 C   0  0  0  0  0  2  0  0  0  0  0  0
  190.6560  174.9260  135.9280 C   0  0  2  0  0  3  0  0  0  0  0  0
  189.3680  176.8450  136.8930 C   0  0  0  0  0  2  0  0  0  0  0  0
  191.1960  175.7180  138.2390 C   0  0  0  0  0  2  0  0  0  0  0  0
  189.8580  176.4620  138.2920 C   0  0  1  0  0  3  0  0  0  0  0  0
  189.2900  175.6090  136.0010 C   0  0  0  0  0  2  0  0  0  0  0  0
  189.7130  172.7620  135.5770 O   0  0  0  0  0  1  0  0  0  0  0  0
  190.5830  173.7050  135.0290 C   0  0  0  0  0  2  0  0  0  0  0  0
  185.7720  179.0190  141.4190 C   0  0  0  0  0  2  0  0  0  0  0  0
  185.0410  178.6850  142.7070 C   0  0  0  0  0  2  0  0  0  0  0  0
  183.5540  178.9910  142.5720 C   0  0  2  0  0  3  0  0  0  0  0  0
  183.8320  178.9520  144.9420 O   0  0  0  0  0  1  0  0  0  0  0  0
  182.8730  178.9300  143.9300 C   0  0  0  0  0  2  0  0  0  0  0  0
  182.8680  178.0510  141.5800 C   0  0  0  0  0  2  0  0  0  0  0  0
  181.8360  178.7490  140.8070 N   0  0  0  0  0  0  0  0  0  0  0  0
  180.4730  179.0880  138.5840 S   0  0  0  0  0  0  0  0  0  0  0  0
  180.6060  178.1250  141.0700 N   0  0  0  0  0  2  0  0  0  0  0  0
  182.0590  178.6630  139.3570 C   0  0  1  0  0  0  0  0  0  0  0  0
  183.0980  179.6980  138.9490 C   0  0  0  0  0  1  0  0  0  0  0  0
  179.6420  178.7190  140.1560 C   0  0  0  0  0  2  0  0  0  0  0  0
  182.4830  177.2400  138.9140 C   0  0  0  0  0  2  0  0  0  0  0  0
  183.4340  177.2010  137.7560 C   0  0  0  0  0  0  0  0  0  0  0  0
  183.8280  177.1240  135.3660 C   0  0  0  0  0  3  0  0  0  0  0  0
  185.7020  177.2190  136.8970 C   0  0  0  0  0  3  0  0  0  0  0  0
  185.2080  177.1590  135.5900 C   0  0  0  0  0  3  0  0  0  0  0  0
  184.8160  177.2390  137.9790 C   0  0  0  0  0  3  0  0  0  0  0  0
  182.9420  177.1490  136.4470 C   0  0  0  0  0  3  0  0  0  0  0  0
  1  6  1  1  0  0  0
  2 12  1  0  0  0  0
  2 11  1  0  0  0  0
  3 10  1  0  0  0  0
  4  8  1  0  0  0  0
  5  1  1  0  0  0  0
  7  4  2  0  0  0  0
  7  9  1  0  0  0  0
  8  1  1  0  0  0  0
  9  5  1  0  0  0  0
 10 11  2  0  0  0  0
 11  7  1  0  0  0  0
 12 15  2  0  0  0  0
 13  2  2  0  0  0  0
 14 13  1  0  0  0  0
 14  3  2  0  0  0  0
 15  4  1  0  0  0  0
 16 13  1  0  0  0  0
 17 20  1  0  0  0  0
 18 24  1  6  0  0  0
 18 22  1  0  0  0  0
 18 17  1  0  0  0  0
 19 21  1  0  0  0  0
 20 21  1  0  0  0  0
 21 16  1  1  0  0  0
 22 19  1  0  0  0  0
 24 23  1  0  0  0  0
 25  3  1  0  0  0  0
 25 26  1  0  0  0  0
 27 30  1  6  0  0  0
 27 26  1  0  0  0  0
 27 29  1  0  0  0  0
 29 28  1  0  0  0  0
 31 33  1  0  0  0  0
 31 30  1  0  0  0  0
 32 34  1  0  0  0  0
 32 36  1  0  0  0  0
 34 35  1  6  0  0  0
 34 31  1  0  0  0  0
 36 33  1  0  0  0  0
 37 34  1  0  0  0  0
 38 42  1  0  0  0  0
 38 37  1  0  0  0  0
 39 41  2  0  0  0  0
 39 43  1  0  0  0  0
 40 42  2  0  0  0  0
 41 40  1  0  0  0  0
 43 38  2  0  0  0  0
M  END
>  <MODEL>
8

>  <REMARK>
 VINA RESULT:      -8.8      3.272      8.557
  Name = 
  11 active torsions:
  status: ('A' for Active; 'I' for Inactive)
    1  A    between atoms: O_1  and  C_34
    2  A    between atoms: O_1  and  C_35
    3  A    between atoms: C_2  and  C_6
    4  A    between atoms: C_2  and  C_13
    5  A    between atoms: C_3  and  N_4
    6  A    between atoms: C_3  and  C_12
    7  A    between atoms: C_6  and  C_12
    8  A    between atoms: C_11  and  C_14
    9  A    between atoms: C_12  and  C_17
   10  A    between atoms: C_14  and  C_22
   11  A    between atoms: C_19  and  C_37
                            x       y       z     vdW  Elec       q    Type
                         _______ _______ _______ _____ _____    ______ ____

>  <TORSDO>
F 11

$$$$
=
 OpenBabel11052416203D

 43 48  0  0  1  0  0  0  0  0999 V2000
  188.1410  177.8410  147.3680 C   0  0  1  0  0  3  0  0  0  0  0  0
  189.8170  177.3980  142.5420 C   0  0  0  0  0  0  0  0  0  0  0  0
  187.6640  178.1820  140.9700 C   0  0  0  0  0  0  0  0  0  0  0  0
  189.4820  177.2430  145.3280 C   0  0  0  0  0  0  0  0  0  0  0  0
  186.9000  177.5180  146.5510 C   0  0  0  0  0  2  0  0  0  0  0  0
  187.9320  177.4820  148.6990 O   0  0  0  0  0  1  0  0  0  0  0  0
  188.3900  177.6240  144.5130 C   0  0  0  0  0  0  0  0  0  0  0  0
  189.3310  177.0650  146.8120 C   0  0  0  0  0  2  0  0  0  0  0  0
  187.0760  178.0450  145.1300 C   0  0  0  0  0  2  0  0  0  0  0  0
  187.5320  178.0980  142.3190 N   0  0  0  0  0  0  0  0  0  0  0  0
  188.5640  177.7110  143.1200 C   0  0  0  0  0  0  0  0  0  0  0  0
  190.8800  177.0060  143.3620 C   0  0  0  0  0  3  0  0  0  0  0  0
  189.9790  177.4940  141.1510 C   0  0  0  0  0  0  0  0  0  0  0  0
  188.8870  177.8880  140.3660 C   0  0  0  0  0  3  0  0  0  0  0  0
  190.7100  176.9240  144.7440 C   0  0  0  0  0  3  0  0  0  0  0  0
  191.2280  177.2030  140.5720 O   0  0  0  0  0  0  0  0  0  0  0  0
  190.8100  175.8710  137.0570 C   0  0  0  0  0  2  0  0  0  0  0  0
  192.2710  175.5020  136.8180 C   0  0  2  0  0  3  0  0  0  0  0  0
  192.9430  176.7370  138.8910 C   0  0  0  0  0  2  0  0  0  0  0  0
  190.5390  176.0100  138.5510 C   0  0  0  0  0  2  0  0  0  0  0  0
  191.4720  177.0550  139.1710 C   0  0  1  0  0  3  0  0  0  0  0  0
  193.1790  176.5910  137.3900 C   0  0  0  0  0  2  0  0  0  0  0  0
  191.4860  175.9580  134.6120 O   0  0  0  0  0  1  0  0  0  0  0  0
  192.5150  175.3450  135.3280 C   0  0  0  0  0  2  0  0  0  0  0  0
  186.5130  178.6360  140.1410 C   0  0  0  0  0  2  0  0  0  0  0  0
  186.6730  178.1330  138.7180 C   0  0  0  0  0  2  0  0  0  0  0  0
  185.3700  177.5230  138.2170 C   0  0  2  0  0  3  0  0  0  0  0  0
  186.8200  176.5260  136.6050 O   0  0  0  0  0  1  0  0  0  0  0  0
  185.5300  177.0220  136.7910 C   0  0  0  0  0  2  0  0  0  0  0  0
  184.2050  178.5080  138.3180 C   0  0  0  0  0  2  0  0  0  0  0  0
  182.9160  177.8320  138.1480 N   0  0  0  0  0  0  0  0  0  0  0  0
  180.4370  177.3960  138.9110 S   0  0  0  0  0  0  0  0  0  0  0  0
  182.1500  178.5840  137.2440 N   0  0  0  0  0  2  0  0  0  0  0  0
  182.1470  177.7540  139.3990 C   0  0  1  0  0  0  0  0  0  0  0  0
  182.6720  176.5970  140.2360 C   0  0  0  0  0  1  0  0  0  0  0  0
  180.8210  177.9900  137.2380 C   0  0  0  0  0  2  0  0  0  0  0  0
  182.1890  179.0830  140.1940 C   0  0  0  0  0  2  0  0  0  0  0  0
  182.4280  178.9270  141.6650 C   0  0  0  0  0  0  0  0  0  0  0  0
  181.5630  178.7080  143.9190 C   0  0  0  0  0  3  0  0  0  0  0  0
  183.9540  178.6570  143.5310 C   0  0  0  0  0  3  0  0  0  0  0  0
  182.8680  178.6040  144.4120 C   0  0  0  0  0  3  0  0  0  0  0  0
  183.7330  178.8190  142.1600 C   0  0  0  0  0  3  0  0  0  0  0  0
  181.3430  178.8660  142.5480 C   0  0  0  0  0  3  0  0  0  0  0  0
  1  6  1  1  0  0  0
  2 11  1  0  0  0  0
  2 12  1  0  0  0  0
  3 10  1  0  0  0  0
  4  8  1  0  0  0  0
  5  1  1  0  0  0  0
  7  9  1  0  0  0  0
  7  4  2  0  0  0  0
  8  1  1  0  0  0  0
  9  5  1  0  0  0  0
 10 11  2  0  0  0  0
 11  7  1  0  0  0  0
 12 15  2  0  0  0  0
 13  2  2  0  0  0  0
 14  3  2  0  0  0  0
 14 13  1  0  0  0  0
 15  4  1  0  0  0  0
 16 13  1  0  0  0  0
 17 20  1  0  0  0  0
 18 24  1  6  0  0  0
 18 17  1  0  0  0  0
 18 22  1  0  0  0  0
 19 21  1  0  0  0  0
 20 21  1  0  0  0  0
 21 16  1  1  0  0  0
 22 19  1  0  0  0  0
 23 24  1  0  0  0  0
 25  3  1  0  0  0  0
 26 25  1  0  0  0  0
 27 29  1  6  0  0  0
 27 30  1  0  0  0  0
 27 26  1  0  0  0  0
 28 29  1  0  0  0  0
 31 30  1  0  0  0  0
 31 34  1  0  0  0  0
 32 34  1  0  0  0  0
 33 31  1  0  0  0  0
 34 37  1  0  0  0  0
 34 35  1  1  0  0  0
 36 33  1  0  0  0  0
 36 32  1  0  0  0  0
 37 38  1  0  0  0  0
 38 42  2  0  0  0  0
 38 43  1  0  0  0  0
 39 41  1  0  0  0  0
 40 41  2  0  0  0  0
 42 40  1  0  0  0  0
 43 39  2  0  0  0  0
M  END
>  <MODEL>
9

>  <REMARK>
 VINA RESULT:      -8.7      3.161      7.843
  Name = 
  11 active torsions:
  status: ('A' for Active; 'I' for Inactive)
    1  A    between atoms: O_1  and  C_34
    2  A    between atoms: O_1  and  C_35
    3  A    between atoms: C_2  and  C_6
    4  A    between atoms: C_2  and  C_13
    5  A    between atoms: C_3  and  N_4
    6  A    between atoms: C_3  and  C_12
    7  A    between atoms: C_6  and  C_12
    8  A    between atoms: C_11  and  C_14
    9  A    between atoms: C_12  and  C_17
   10  A    between atoms: C_14  and  C_22
   11  A    between atoms: C_19  and  C_37
                            x       y       z     vdW  Elec       q    Type
                         _______ _______ _______ _____ _____    ______ ____

>  <TORSDO>
F 11

$$$$
