=
 OpenBabel11052414243D

 34 38  0  0  1  0  0  0  0  0999 V2000
  180.9900  180.7600  139.2410 C   0  0  1  0  0  3  0  0  0  0  0  0
  179.6970  179.1500  140.4900 C   0  0  1  0  0  3  0  0  0  0  0  0
  181.8170  178.3530  139.3100 C   0  0  1  0  0  3  0  0  0  0  0  0
  179.7840  181.5020  139.8210 C   0  0  2  0  0  3  0  0  0  0  0  0
  178.9310  180.4590  140.5340 C   0  0  0  0  0  2  0  0  0  0  0  0
  181.7830  178.6310  141.7620 C   0  0  0  0  0  3  0  0  0  0  0  0
  180.6060  179.2970  139.2770 C   0  0  2  0  0  3  0  0  0  0  0  0
  179.0220  182.1030  138.8160 O   0  0  0  0  0  1  0  0  0  0  0  0
  180.4410  179.0250  141.7050 O   0  0  0  0  0  0  0  0  0  0  0  0
  182.4870  178.3320  140.6610 C   0  0  0  0  0  0  0  0  0  0  0  0
  182.5950  176.1590  138.2020 C   0  0  1  0  0  3  0  0  0  0  0  0
  183.2790  173.9920  137.4370 O   0  0  0  0  0  1  0  0  0  0  0  0
  181.1000  174.0780  138.4100 C   0  0  0  0  0  2  0  0  0  0  0  0
  179.4220  174.5080  136.7280 O   0  0  0  0  0  1  0  0  0  0  0  0
  181.4340  176.9280  138.8650 C   0  0  2  0  0  3  0  0  0  0  0  0
  182.1640  174.8150  137.5960 C   0  0  1  0  0  3  0  0  0  0  0  0
  179.4370  175.9970  138.6190 C   0  0  0  0  0  2  0  0  0  0  0  0
  179.6870  174.5810  138.0970 C   0  0  2  0  0  3  0  0  0  0  0  0
  180.3100  176.9210  138.0270 O   0  0  0  0  0  0  0  0  0  0  0  0
  183.2630  176.9880  137.1130 C   0  0  0  0  0  1  0  0  0  0  0  0
  183.9530  177.9730  140.7170 C   0  0  2  0  0  3  0  0  0  0  0  0
  184.7210  179.0580  141.4510 C   0  0  2  0  0  3  0  0  0  0  0  0
  184.8570  178.9250  139.9490 C   0  0  0  0  0  2  0  0  0  0  0  0
  185.9350  178.4440  142.1220 C   0  0  0  0  0  2  0  0  0  0  0  0
  185.8600  178.6290  143.6300 C   0  0  0  0  0  2  0  0  0  0  0  0
  186.1540  177.3130  144.3750 C   0  0  2  0  0  3  0  0  0  0  0  0
  186.2180  177.4720  145.8330 N   0  0  0  0  0  0  0  0  0  0  0  0
  187.7820  178.2060  146.2230 S   0  0  0  0  0  0  0  0  0  0  0  0
  188.5610  177.4970  144.7370 C   0  0  0  0  0  2  0  0  0  0  0  0
  187.4970  176.7630  143.9460 C   0  0  0  0  0  2  0  0  0  0  0  0
  185.6940  179.2530  147.2480 O   0  0  0  0  0  1  0  0  0  0  0  0
  185.1570  178.3310  146.3490 C   0  0  0  0  0  2  0  0  0  0  0  0
  181.2780  181.1580  137.9310 O   0  0  0  0  0  0  0  0  0  0  0  0
  181.9040  182.3970  138.0650 C   0  0  0  0  0  1  0  0  0  0  0  0
  1 33  1  6  0  0  0
  1  7  1  0  0  0  0
  1  4  1  0  0  0  0
  2  5  1  1  0  0  0
  2  9  1  0  0  0  0
  3 10  1  1  0  0  0
  4  8  1  6  0  0  0
  4  5  1  0  0  0  0
  7  3  1  0  0  0  0
  7  2  1  0  0  0  0
  9  6  1  0  0  0  0
 10 21  1  0  0  0  0
 10  6  2  0  0  0  0
 11 15  1  0  0  0  0
 12 16  1  0  0  0  0
 14 18  1  0  0  0  0
 15  3  1  0  0  0  0
 16 11  1  0  0  0  0
 16 13  1  0  0  0  0
 18 13  1  0  0  0  0
 18 17  1  0  0  0  0
 19 17  1  0  0  0  0
 19 15  1  0  0  0  0
 20 11  1  0  0  0  0
 21 22  1  0  0  0  0
 22 24  1  0  0  0  0
 23 21  1  0  0  0  0
 23 22  1  0  0  0  0
 24 25  1  0  0  0  0
 25 26  1  0  0  0  0
 26 27  1  0  0  0  0
 27 28  1  0  0  0  0
 27 32  1  0  0  0  0
 29 28  1  0  0  0  0
 30 26  1  0  0  0  0
 30 29  1  0  0  0  0
 32 31  1  0  0  0  0
 33 34  1  0  0  0  0
M  END
>  <MODEL>
1

>  <REMARK>
 VINA RESULT:      -5.8      0.000      0.000
  Name = 
  7 active torsions:
  status: ('A' for Active; 'I' for Inactive)
    1  A    between atoms: C_1  and  O_24
    2  A    between atoms: C_3  and  C_13
    3  A    between atoms: C_3  and  C_17
    4  A    between atoms: C_4  and  C_21
    5  A    between atoms: C_5  and  C_31
    6  A    between atoms: N_14  and  C_34
    7  A    between atoms: C_17  and  C_18
                            x       y       z     vdW  Elec       q    Type
                         _______ _______ _______ _____ _____    ______ ____

>  <TORSDO>
F 7

$$$$
=
 OpenBabel11052414243D

 34 38  0  0  1  0  0  0  0  0999 V2000
  181.6950  179.8550  138.9600 C   0  0  1  0  0  3  0  0  0  0  0  0
  181.5670  177.5320  139.6000 C   0  0  1  0  0  3  0  0  0  0  0  0
  183.8120  178.4500  138.7970 C   0  0  1  0  0  3  0  0  0  0  0  0
  180.2490  179.5820  139.3780 C   0  0  2  0  0  3  0  0  0  0  0  0
  180.1610  178.0930  139.6970 C   0  0  0  0  0  2  0  0  0  0  0  0
  183.4370  177.9850  141.1930 C   0  0  0  0  0  3  0  0  0  0  0  0
  182.2830  178.4940  138.6610 C   0  0  2  0  0  3  0  0  0  0  0  0
  179.3540  179.8800  138.3480 O   0  0  0  0  0  1  0  0  0  0  0  0
  182.1430  177.5350  140.9090 O   0  0  0  0  0  0  0  0  0  0  0  0
  184.2550  178.4540  140.2390 C   0  0  0  0  0  0  0  0  0  0  0  0
  185.9180  177.3960  137.7490 C   0  0  1  0  0  3  0  0  0  0  0  0
  187.8560  176.2090  136.9860 O   0  0  0  0  0  1  0  0  0  0  0  0
  185.8540  174.9120  137.0910 C   0  0  0  0  0  2  0  0  0  0  0  0
  184.6660  174.9900  134.9900 O   0  0  0  0  0  1  0  0  0  0  0  0
  184.4110  177.2480  138.0420 C   0  0  2  0  0  3  0  0  0  0  0  0
  186.4710  176.2880  136.8400 C   0  0  1  0  0  3  0  0  0  0  0  0
  183.4060  175.6020  136.9480 C   0  0  0  0  0  2  0  0  0  0  0  0
  184.5200  174.7380  136.3560 C   0  0  2  0  0  3  0  0  0  0  0  0
  183.7150  176.9670  136.8580 O   0  0  0  0  0  0  0  0  0  0  0  0
  186.2320  178.7440  137.1140 C   0  0  0  0  0  1  0  0  0  0  0  0
  185.6270  179.0020  140.5540 C   0  0  2  0  0  3  0  0  0  0  0  0
  186.3670  178.0420  141.4700 C   0  0  2  0  0  3  0  0  0  0  0  0
  185.8370  179.3490  142.0210 C   0  0  0  0  0  2  0  0  0  0  0  0
  187.8580  178.1670  141.2240 C   0  0  0  0  0  2  0  0  0  0  0  0
  188.6190  178.1460  142.5410 C   0  0  0  0  0  2  0  0  0  0  0  0
  188.5990  176.7460  143.1820 C   0  0  2  0  0  3  0  0  0  0  0  0
  188.5370  176.7780  144.6490 N   0  0  0  0  0  0  0  0  0  0  0  0
  190.1550  177.1820  145.2430 S   0  0  0  0  0  0  0  0  0  0  0  0
  190.9500  176.4580  143.7730 C   0  0  0  0  0  2  0  0  0  0  0  0
  189.8630  175.9940  142.8250 C   0  0  0  0  0  2  0  0  0  0  0  0
  187.6910  177.8610  146.5360 O   0  0  0  0  0  1  0  0  0  0  0  0
  187.5950  177.7750  145.1460 C   0  0  0  0  0  2  0  0  0  0  0  0
  181.7750  180.6810  137.8330 O   0  0  0  0  0  0  0  0  0  0  0  0
  181.9140  181.9710  138.3460 C   0  0  0  0  0  1  0  0  0  0  0  0
  1 33  1  6  0  0  0
  1  4  1  0  0  0  0
  2  5  1  1  0  0  0
  2  9  1  0  0  0  0
  3 10  1  1  0  0  0
  4  8  1  6  0  0  0
  4  5  1  0  0  0  0
  7  3  1  0  0  0  0
  7  1  1  0  0  0  0
  7  2  1  0  0  0  0
  9  6  1  0  0  0  0
 10 21  1  0  0  0  0
 10  6  2  0  0  0  0
 11 15  1  0  0  0  0
 14 18  1  0  0  0  0
 15  3  1  0  0  0  0
 16 12  1  0  0  0  0
 16 13  1  0  0  0  0
 16 11  1  0  0  0  0
 18 17  1  0  0  0  0
 18 13  1  0  0  0  0
 19 17  1  0  0  0  0
 19 15  1  0  0  0  0
 20 11  1  0  0  0  0
 21 22  1  0  0  0  0
 21 23  1  0  0  0  0
 22 23  1  0  0  0  0
 24 22  1  0  0  0  0
 24 25  1  0  0  0  0
 25 26  1  0  0  0  0
 26 27  1  0  0  0  0
 27 32  1  0  0  0  0
 27 28  1  0  0  0  0
 29 28  1  0  0  0  0
 30 26  1  0  0  0  0
 30 29  1  0  0  0  0
 32 31  1  0  0  0  0
 33 34  1  0  0  0  0
M  END
>  <MODEL>
2

>  <REMARK>
 VINA RESULT:      -5.6      2.218      3.072
  Name = 
  7 active torsions:
  status: ('A' for Active; 'I' for Inactive)
    1  A    between atoms: C_1  and  O_24
    2  A    between atoms: C_3  and  C_13
    3  A    between atoms: C_3  and  C_17
    4  A    between atoms: C_4  and  C_21
    5  A    between atoms: C_5  and  C_31
    6  A    between atoms: N_14  and  C_34
    7  A    between atoms: C_17  and  C_18
                            x       y       z     vdW  Elec       q    Type
                         _______ _______ _______ _____ _____    ______ ____

>  <TORSDO>
F 7

$$$$
=
 OpenBabel11052414243D

 34 38  0  0  1  0  0  0  0  0999 V2000
  182.6800  175.9380  139.0310 C   0  0  1  0  0  3  0  0  0  0  0  0
  183.6080  177.6530  137.6100 C   0  0  1  0  0  3  0  0  0  0  0  0
  182.1050  178.3640  139.5500 C   0  0  1  0  0  3  0  0  0  0  0  0
  183.5140  175.2330  137.9600 C   0  0  2  0  0  3  0  0  0  0  0  0
  184.0240  176.3200  137.0190 C   0  0  0  0  0  2  0  0  0  0  0  0
  184.5480  178.6970  139.6750 C   0  0  0  0  0  3  0  0  0  0  0  0
  182.3960  177.3130  138.4680 C   0  0  2  0  0  3  0  0  0  0  0  0
  182.7460  174.3230  137.2300 O   0  0  0  0  0  1  0  0  0  0  0  0
  184.6940  178.1560  138.3930 O   0  0  0  0  0  0  0  0  0  0  0  0
  183.3550  178.7910  140.2790 C   0  0  0  0  0  0  0  0  0  0  0  0
  180.3620  180.2200  139.9520 C   0  0  1  0  0  3  0  0  0  0  0  0
  178.9670  182.1370  140.3060 O   0  0  0  0  0  1  0  0  0  0  0  0
  180.2360  182.1720  138.2840 C   0  0  0  0  0  2  0  0  0  0  0  0
  178.9890  181.1860  136.4670 O   0  0  0  0  0  1  0  0  0  0  0  0
  181.3650  179.5830  138.9680 C   0  0  2  0  0  3  0  0  0  0  0  0
  179.4970  181.3150  139.3110 C   0  0  1  0  0  3  0  0  0  0  0  0
  181.1790  180.2740  136.8690 C   0  0  0  0  0  2  0  0  0  0  0  0
  180.2750  181.5070  136.9030 C   0  0  2  0  0  3  0  0  0  0  0  0
  180.7280  179.2850  137.7560 O   0  0  0  0  0  0  0  0  0  0  0  0
  179.4420  179.1730  140.5640 C   0  0  0  0  0  1  0  0  0  0  0  0
  183.2060  179.3130  141.6890 C   0  0  2  0  0  3  0  0  0  0  0  0
  184.2480  178.6690  142.5880 C   0  0  2  0  0  3  0  0  0  0  0  0
  182.7960  178.2560  142.7040 C   0  0  0  0  0  2  0  0  0  0  0  0
  184.5900  179.6240  143.7170 C   0  0  0  0  0  2  0  0  0  0  0  0
  185.9420  179.2730  144.3190 C   0  0  0  0  0  2  0  0  0  0  0  0
  186.0420  177.7730  144.6480 C   0  0  2  0  0  3  0  0  0  0  0  0
  186.0500  177.4910  146.0890 N   0  0  0  0  0  0  0  0  0  0  0  0
  187.6670  177.8760  146.6990 S   0  0  0  0  0  0  0  0  0  0  0  0
  188.4320  177.5350  145.0810 C   0  0  0  0  0  2  0  0  0  0  0  0
  187.3310  177.2040  144.0940 C   0  0  0  0  0  2  0  0  0  0  0  0
  185.6990  179.4100  147.3720 O   0  0  0  0  0  1  0  0  0  0  0  0
  185.0730  178.2920  146.8200 C   0  0  0  0  0  2  0  0  0  0  0  0
  181.4840  175.2630  139.3010 O   0  0  0  0  0  0  0  0  0  0  0  0
  180.5290  175.9020  138.5100 C   0  0  0  0  0  1  0  0  0  0  0  0
  1 33  1  6  0  0  0
  2  5  1  1  0  0  0
  2  9  1  0  0  0  0
  2  7  1  0  0  0  0
  3 10  1  6  0  0  0
  4  8  1  6  0  0  0
  4  1  1  0  0  0  0
  5  4  1  0  0  0  0
  6 10  2  0  0  0  0
  7  1  1  0  0  0  0
  7  3  1  0  0  0  0
  9  6  1  0  0  0  0
 10 21  1  0  0  0  0
 11 20  1  0  0  0  0
 13 16  1  0  0  0  0
 14 18  1  0  0  0  0
 15  3  1  0  0  0  0
 15 11  1  0  0  0  0
 16 11  1  0  0  0  0
 16 12  1  0  0  0  0
 17 18  1  0  0  0  0
 17 19  1  0  0  0  0
 18 13  1  0  0  0  0
 19 15  1  0  0  0  0
 21 22  1  0  0  0  0
 21 23  1  0  0  0  0
 22 23  1  0  0  0  0
 22 24  1  0  0  0  0
 24 25  1  0  0  0  0
 25 26  1  0  0  0  0
 26 27  1  0  0  0  0
 27 28  1  0  0  0  0
 27 32  1  0  0  0  0
 29 28  1  0  0  0  0
 30 26  1  0  0  0  0
 30 29  1  0  0  0  0
 32 31  1  0  0  0  0
 34 33  1  0  0  0  0
M  END
>  <MODEL>
3

>  <REMARK>
 VINA RESULT:      -5.6      1.477      4.843
  Name = 
  7 active torsions:
  status: ('A' for Active; 'I' for Inactive)
    1  A    between atoms: C_1  and  O_24
    2  A    between atoms: C_3  and  C_13
    3  A    between atoms: C_3  and  C_17
    4  A    between atoms: C_4  and  C_21
    5  A    between atoms: C_5  and  C_31
    6  A    between atoms: N_14  and  C_34
    7  A    between atoms: C_17  and  C_18
                            x       y       z     vdW  Elec       q    Type
                         _______ _______ _______ _____ _____    ______ ____

>  <TORSDO>
F 7

$$$$
=
 OpenBabel11052414243D

 34 38  0  0  1  0  0  0  0  0999 V2000
  180.9200  176.4630  136.1390 C   0  0  1  0  0  3  0  0  0  0  0  0
  181.5740  174.3850  137.1770 C   0  0  1  0  0  3  0  0  0  0  0  0
  183.2180  176.3400  137.2280 C   0  0  1  0  0  3  0  0  0  0  0  0
  179.7640  175.4790  135.9460 C   0  0  2  0  0  3  0  0  0  0  0  0
  180.2230  174.1460  136.5290 C   0  0  0  0  0  2  0  0  0  0  0  0
  181.9860  175.6900  139.2670 C   0  0  0  0  0  3  0  0  0  0  0  0
  182.1250  175.6000  136.4420 C   0  0  2  0  0  3  0  0  0  0  0  0
  179.4620  175.3030  134.5940 O   0  0  0  0  0  1  0  0  0  0  0  0
  181.3650  174.6490  138.5670 O   0  0  0  0  0  0  0  0  0  0  0  0
  182.8450  176.5340  138.6770 C   0  0  0  0  0  0  0  0  0  0  0  0
  185.6370  176.4640  136.3480 C   0  0  1  0  0  3  0  0  0  0  0  0
  187.9710  176.5820  135.8130 O   0  0  0  0  0  1  0  0  0  0  0  0
  187.3420  174.7300  137.1830 C   0  0  0  0  0  2  0  0  0  0  0  0
  186.7890  172.8070  135.8310 O   0  0  0  0  0  1  0  0  0  0  0  0
  184.5810  175.6320  137.1020 C   0  0  2  0  0  3  0  0  0  0  0  0
  186.9310  175.6870  136.0630 C   0  0  1  0  0  3  0  0  0  0  0  0
  185.1200  173.5050  137.4190 C   0  0  0  0  0  2  0  0  0  0  0  0
  186.6090  173.3870  137.0890 C   0  0  2  0  0  3  0  0  0  0  0  0
  184.4640  174.3610  136.5230 O   0  0  0  0  0  0  0  0  0  0  0  0
  185.0910  176.9930  135.0280 C   0  0  0  0  0  1  0  0  0  0  0  0
  183.4630  177.6970  139.4150 C   0  0  2  0  0  3  0  0  0  0  0  0
  182.5790  178.0930  140.5860 C   0  0  2  0  0  3  0  0  0  0  0  0
  182.6430  178.9780  139.3580 C   0  0  0  0  0  2  0  0  0  0  0  0
  183.4400  178.6910  141.6820 C   0  0  0  0  0  2  0  0  0  0  0  0
  184.8510  178.1280  141.6170 C   0  0  0  0  0  2  0  0  0  0  0  0
  185.8420  178.9950  142.4160 C   0  0  2  0  0  3  0  0  0  0  0  0
  187.2480  178.6970  142.1180 N   0  0  0  0  0  0  0  0  0  0  0  0
  187.6670  177.1960  142.9570 S   0  0  0  0  0  0  0  0  0  0  0  0
  186.4200  177.4920  144.2510 C   0  0  0  0  0  2  0  0  0  0  0  0
  185.6610  178.7560  143.9000 C   0  0  0  0  0  2  0  0  0  0  0  0
  188.4270  177.5010  140.4950 O   0  0  0  0  0  1  0  0  0  0  0  0
  187.4900  178.5170  140.6900 C   0  0  0  0  0  2  0  0  0  0  0  0
  181.1490  177.2410  134.9990 O   0  0  0  0  0  0  0  0  0  0  0  0
  180.8330  178.5430  135.3870 C   0  0  0  0  0  1  0  0  0  0  0  0
  1 33  1  6  0  0  0
  1  7  1  0  0  0  0
  2  5  1  6  0  0  0
  2  9  1  0  0  0  0
  3 10  1  1  0  0  0
  4  8  1  6  0  0  0
  4  1  1  0  0  0  0
  4  5  1  0  0  0  0
  7  2  1  0  0  0  0
  7  3  1  0  0  0  0
  9  6  1  0  0  0  0
 10  6  2  0  0  0  0
 10 21  1  0  0  0  0
 11 15  1  0  0  0  0
 12 16  1  0  0  0  0
 14 18  1  0  0  0  0
 15  3  1  0  0  0  0
 16 11  1  0  0  0  0
 16 13  1  0  0  0  0
 18 13  1  0  0  0  0
 18 17  1  0  0  0  0
 19 15  1  0  0  0  0
 19 17  1  0  0  0  0
 20 11  1  0  0  0  0
 21 22  1  0  0  0  0
 22 24  1  0  0  0  0
 23 21  1  0  0  0  0
 23 22  1  0  0  0  0
 25 24  1  0  0  0  0
 25 26  1  0  0  0  0
 26 30  1  0  0  0  0
 27 26  1  0  0  0  0
 27 28  1  0  0  0  0
 28 29  1  0  0  0  0
 30 29  1  0  0  0  0
 31 32  1  0  0  0  0
 32 27  1  0  0  0  0
 33 34  1  0  0  0  0
M  END
>  <MODEL>
4

>  <REMARK>
 VINA RESULT:      -5.1      2.965      4.987
  Name = 
  7 active torsions:
  status: ('A' for Active; 'I' for Inactive)
    1  A    between atoms: C_1  and  O_24
    2  A    between atoms: C_3  and  C_13
    3  A    between atoms: C_3  and  C_17
    4  A    between atoms: C_4  and  C_21
    5  A    between atoms: C_5  and  C_31
    6  A    between atoms: N_14  and  C_34
    7  A    between atoms: C_17  and  C_18
                            x       y       z     vdW  Elec       q    Type
                         _______ _______ _______ _____ _____    ______ ____

>  <TORSDO>
F 7

$$$$
=
 OpenBabel11052414243D

 34 38  0  0  1  0  0  0  0  0999 V2000
  190.1930  175.4360  135.2470 C   0  0  1  0  0  3  0  0  0  0  0  0
  190.1230  174.0210  137.2010 C   0  0  1  0  0  3  0  0  0  0  0  0
  188.8710  176.2470  137.2660 C   0  0  1  0  0  3  0  0  0  0  0  0
  191.0300  174.1930  134.9350 C   0  0  2  0  0  3  0  0  0  0  0  0
  191.0490  173.3490  136.2050 C   0  0  0  0  0  2  0  0  0  0  0  0
  187.6320  174.1230  137.0460 C   0  0  0  0  0  3  0  0  0  0  0  0
  190.0990  175.4780  136.7560 C   0  0  2  0  0  3  0  0  0  0  0  0
  192.3420  174.5330  134.5940 O   0  0  0  0  0  1  0  0  0  0  0  0
  188.8340  173.4090  137.0990 O   0  0  0  0  0  0  0  0  0  0  0  0
  187.5950  175.4630  137.0900 C   0  0  0  0  0  0  0  0  0  0  0  0
  188.0730  177.8000  139.1620 C   0  0  1  0  0  3  0  0  0  0  0  0
  187.2380  178.9980  141.0640 O   0  0  0  0  0  1  0  0  0  0  0  0
  188.8540  177.3130  141.5620 C   0  0  0  0  0  2  0  0  0  0  0  0
  191.0880  178.2300  141.5480 O   0  0  0  0  0  1  0  0  0  0  0  0
  189.0490  176.6860  138.7320 C   0  0  2  0  0  3  0  0  0  0  0  0
  188.3730  178.3620  140.5600 C   0  0  1  0  0  3  0  0  0  0  0  0
  190.7180  176.3120  140.1430 C   0  0  0  0  0  2  0  0  0  0  0  0
  190.3580  177.0450  141.4360 C   0  0  2  0  0  3  0  0  0  0  0  0
  190.3690  177.0660  139.0130 O   0  0  0  0  0  0  0  0  0  0  0  0
  188.0710  178.9540  138.1680 C   0  0  0  0  0  1  0  0  0  0  0  0
  186.3030  176.2360  136.9650 C   0  0  2  0  0  3  0  0  0  0  0  0
  185.2860  175.4170  136.1880 C   0  0  2  0  0  3  0  0  0  0  0  0
  185.9410  176.6170  135.5370 C   0  0  0  0  0  2  0  0  0  0  0  0
  183.8900  175.7920  136.6450 C   0  0  0  0  0  2  0  0  0  0  0  0
  183.9540  176.7660  137.8110 C   0  0  0  0  0  2  0  0  0  0  0  0
  183.0430  177.9860  137.5790 C   0  0  2  0  0  3  0  0  0  0  0  0
  182.7010  178.7010  138.8150 N   0  0  0  0  0  0  0  0  0  0  0  0
  181.4600  177.7560  139.6530 S   0  0  0  0  0  0  0  0  0  0  0  0
  180.8480  177.0470  138.0910 C   0  0  0  0  0  2  0  0  0  0  0  0
  181.7320  177.5450  136.9640 C   0  0  0  0  0  2  0  0  0  0  0  0
  184.5710  179.9950  139.3400 O   0  0  0  0  0  1  0  0  0  0  0  0
  183.8470  178.8590  139.7030 C   0  0  0  0  0  2  0  0  0  0  0  0
  190.7820  176.6080  134.7600 O   0  0  0  0  0  0  0  0  0  0  0  0
  189.7350  177.5260  134.6790 C   0  0  0  0  0  1  0  0  0  0  0  0
  1 33  1  1  0  0  0
  1  7  1  0  0  0  0
  2  5  1  6  0  0  0
  3 10  1  1  0  0  0
  3 15  1  0  0  0  0
  4  8  1  1  0  0  0
  4  1  1  0  0  0  0
  4  5  1  0  0  0  0
  6 10  2  0  0  0  0
  6  9  1  0  0  0  0
  7  2  1  0  0  0  0
  7  3  1  0  0  0  0
  9  2  1  0  0  0  0
 11 16  1  0  0  0  0
 15 19  1  0  0  0  0
 15 11  1  0  0  0  0
 16 12  1  0  0  0  0
 16 13  1  0  0  0  0
 17 18  1  0  0  0  0
 18 14  1  0  0  0  0
 18 13  1  0  0  0  0
 19 17  1  0  0  0  0
 20 11  1  0  0  0  0
 21 10  1  0  0  0  0
 22 24  1  0  0  0  0
 22 21  1  0  0  0  0
 23 22  1  0  0  0  0
 23 21  1  0  0  0  0
 24 25  1  0  0  0  0
 26 25  1  0  0  0  0
 26 27  1  0  0  0  0
 27 28  1  0  0  0  0
 27 32  1  0  0  0  0
 29 28  1  0  0  0  0
 30 26  1  0  0  0  0
 30 29  1  0  0  0  0
 31 32  1  0  0  0  0
 34 33  1  0  0  0  0
M  END
>  <MODEL>
5

>  <REMARK>
 VINA RESULT:      -4.9      5.670      9.554
  Name = 
  7 active torsions:
  status: ('A' for Active; 'I' for Inactive)
    1  A    between atoms: C_1  and  O_24
    2  A    between atoms: C_3  and  C_13
    3  A    between atoms: C_3  and  C_17
    4  A    between atoms: C_4  and  C_21
    5  A    between atoms: C_5  and  C_31
    6  A    between atoms: N_14  and  C_34
    7  A    between atoms: C_17  and  C_18
                            x       y       z     vdW  Elec       q    Type
                         _______ _______ _______ _____ _____    ______ ____

>  <TORSDO>
F 7

$$$$
=
 OpenBabel11052414243D

 34 38  0  0  1  0  0  0  0  0999 V2000
  190.3970  175.5750  136.6330 C   0  0  1  0  0  3  0  0  0  0  0  0
  188.9270  177.0640  135.4310 C   0  0  1  0  0  3  0  0  0  0  0  0
  188.0740  175.9950  137.5880 C   0  0  1  0  0  3  0  0  0  0  0  0
  191.1530  176.0500  135.3910 C   0  0  2  0  0  3  0  0  0  0  0  0
  190.1850  176.9200  134.5960 C   0  0  0  0  0  2  0  0  0  0  0  0
  188.7150  178.3790  137.5440 C   0  0  0  0  0  3  0  0  0  0  0  0
  188.9380  175.8340  136.3280 C   0  0  2  0  0  3  0  0  0  0  0  0
  191.5560  174.9740  134.5950 O   0  0  0  0  0  1  0  0  0  0  0  0
  189.0240  178.2770  136.1830 O   0  0  0  0  0  0  0  0  0  0  0  0
  188.2920  177.3270  138.2610 C   0  0  0  0  0  0  0  0  0  0  0  0
  186.1600  174.2890  137.3280 C   0  0  1  0  0  3  0  0  0  0  0  0
  184.2590  172.8270  137.3260 O   0  0  0  0  0  1  0  0  0  0  0  0
  183.7420  175.1570  137.2390 C   0  0  0  0  0  2  0  0  0  0  0  0
  183.5760  175.9180  134.9530 O   0  0  0  0  0  1  0  0  0  0  0  0
  186.5810  175.7710  137.2820 C   0  0  2  0  0  3  0  0  0  0  0  0
  184.7220  174.0520  136.8430 C   0  0  1  0  0  3  0  0  0  0  0  0
  185.0900  177.1370  136.3730 C   0  0  0  0  0  2  0  0  0  0  0  0
  183.7880  176.3410  136.2670 C   0  0  2  0  0  3  0  0  0  0  0  0
  186.2020  176.3430  136.0590 O   0  0  0  0  0  0  0  0  0  0  0  0
  187.0970  173.4170  136.5020 C   0  0  0  0  0  1  0  0  0  0  0  0
  188.0220  177.4220  139.7440 C   0  0  2  0  0  3  0  0  0  0  0  0
  187.1700  178.6450  140.0360 C   0  0  2  0  0  3  0  0  0  0  0  0
  188.6370  178.6420  140.4130 C   0  0  0  0  0  2  0  0  0  0  0  0
  186.3330  178.3860  141.2740 C   0  0  0  0  0  2  0  0  0  0  0  0
  187.2100  178.3720  142.5170 C   0  0  0  0  0  2  0  0  0  0  0  0
  187.0310  177.0690  143.3190 C   0  0  2  0  0  3  0  0  0  0  0  0
  186.7070  177.2960  144.7320 N   0  0  0  0  0  0  0  0  0  0  0  0
  188.2020  177.7630  145.5560 S   0  0  0  0  0  0  0  0  0  0  0  0
  189.2260  176.8450  144.3620 C   0  0  0  0  0  2  0  0  0  0  0  0
  188.3140  176.2670  143.2990 C   0  0  0  0  0  2  0  0  0  0  0  0
  185.9390  178.9950  146.1380 O   0  0  0  0  0  1  0  0  0  0  0  0
  185.7210  178.3560  144.9160 C   0  0  0  0  0  2  0  0  0  0  0  0
  190.6090  174.2180  136.8970 O   0  0  0  0  0  0  0  0  0  0  0  0
  191.8670  174.1640  137.4970 C   0  0  0  0  0  1  0  0  0  0  0  0
  1 33  1  6  0  0  0
  2  5  1  6  0  0  0
  2  9  1  0  0  0  0
  2  7  1  0  0  0  0
  3 10  1  6  0  0  0
  4  8  1  6  0  0  0
  4  1  1  0  0  0  0
  5  4  1  0  0  0  0
  6 10  2  0  0  0  0
  7  1  1  0  0  0  0
  7  3  1  0  0  0  0
  9  6  1  0  0  0  0
 10 21  1  0  0  0  0
 14 18  1  0  0  0  0
 15 11  1  0  0  0  0
 15  3  1  0  0  0  0
 16 13  1  0  0  0  0
 16 12  1  0  0  0  0
 16 11  1  0  0  0  0
 18 17  1  0  0  0  0
 18 13  1  0  0  0  0
 19 17  1  0  0  0  0
 19 15  1  0  0  0  0
 20 11  1  0  0  0  0
 21 22  1  0  0  0  0
 21 23  1  0  0  0  0
 22 23  1  0  0  0  0
 22 24  1  0  0  0  0
 24 25  1  0  0  0  0
 25 26  1  0  0  0  0
 26 27  1  0  0  0  0
 27 32  1  0  0  0  0
 27 28  1  0  0  0  0
 29 28  1  0  0  0  0
 30 26  1  0  0  0  0
 30 29  1  0  0  0  0
 32 31  1  0  0  0  0
 33 34  1  0  0  0  0
M  END
>  <MODEL>
6

>  <REMARK>
 VINA RESULT:      -4.9      4.519      7.156
  Name = 
  7 active torsions:
  status: ('A' for Active; 'I' for Inactive)
    1  A    between atoms: C_1  and  O_24
    2  A    between atoms: C_3  and  C_13
    3  A    between atoms: C_3  and  C_17
    4  A    between atoms: C_4  and  C_21
    5  A    between atoms: C_5  and  C_31
    6  A    between atoms: N_14  and  C_34
    7  A    between atoms: C_17  and  C_18
                            x       y       z     vdW  Elec       q    Type
                         _______ _______ _______ _____ _____    ______ ____

>  <TORSDO>
F 7

$$$$
=
 OpenBabel11052414243D

 34 38  0  0  1  0  0  0  0  0999 V2000
  182.4240  178.5100  142.1820 C   0  0  1  0  0  3  0  0  0  0  0  0
  180.0730  179.0420  142.0730 C   0  0  1  0  0  3  0  0  0  0  0  0
  181.2300  178.2090  139.9540 C   0  0  1  0  0  3  0  0  0  0  0  0
  182.0060  178.9920  143.5730 C   0  0  2  0  0  3  0  0  0  0  0  0
  180.5420  179.4070  143.4690 C   0  0  0  0  0  2  0  0  0  0  0  0
  179.7050  176.7280  141.2090 C   0  0  0  0  0  3  0  0  0  0  0  0
  181.3520  179.0270  141.2480 C   0  0  2  0  0  3  0  0  0  0  0  0
  182.7620  180.0930  143.9820 O   0  0  0  0  0  1  0  0  0  0  0  0
  179.4560  177.7530  142.1290 O   0  0  0  0  0  0  0  0  0  0  0  0
  180.5540  176.8800  140.1830 C   0  0  0  0  0  0  0  0  0  0  0  0
  180.9340  178.5950  137.4220 C   0  0  1  0  0  3  0  0  0  0  0  0
  180.3840  178.8510  135.1030 O   0  0  0  0  0  1  0  0  0  0  0  0
  178.9400  180.0030  136.6170 C   0  0  0  0  0  2  0  0  0  0  0  0
  179.7300  182.2490  137.0190 O   0  0  0  0  0  1  0  0  0  0  0  0
  180.5130  179.0060  138.8480 C   0  0  2  0  0  3  0  0  0  0  0  0
  180.3590  179.5110  136.3320 C   0  0  1  0  0  3  0  0  0  0  0  0
  179.3510  180.8910  138.9700 C   0  0  0  0  0  2  0  0  0  0  0  0
  178.9310  181.2280  137.5380 C   0  0  2  0  0  3  0  0  0  0  0  0
  180.6600  180.3900  139.0140 O   0  0  0  0  0  0  0  0  0  0  0  0
  182.4500  178.5640  137.2770 C   0  0  0  0  0  1  0  0  0  0  0  0
  180.8740  175.7520  139.2300 C   0  0  2  0  0  3  0  0  0  0  0  0
  179.6630  175.4520  138.3630 C   0  0  2  0  0  3  0  0  0  0  0  0
  180.0580  174.4890  139.4630 C   0  0  0  0  0  2  0  0  0  0  0  0
  180.1290  174.9060  137.0270 C   0  0  0  0  0  2  0  0  0  0  0  0
  181.1190  173.7700  137.2310 C   0  0  0  0  0  2  0  0  0  0  0  0
  182.1650  173.7230  136.1030 C   0  0  2  0  0  3  0  0  0  0  0  0
  183.2540  172.7720  136.3570 N   0  0  0  0  0  0  0  0  0  0  0  0
  184.3490  173.5140  137.5330 S   0  0  0  0  0  0  0  0  0  0  0  0
  183.8970  175.1950  136.9950 C   0  0  0  0  0  2  0  0  0  0  0  0
  182.8150  175.0810  135.9400 C   0  0  0  0  0  2  0  0  0  0  0  0
  183.5080  170.4510  136.3570 O   0  0  0  0  0  1  0  0  0  0  0  0
  182.7730  171.5060  136.9010 C   0  0  0  0  0  2  0  0  0  0  0  0
  183.6800  179.0010  141.8070 O   0  0  0  0  0  0  0  0  0  0  0  0
  184.5530  177.9310  142.0020 C   0  0  0  0  0  1  0  0  0  0  0  0
  1 33  1  6  0  0  0
  1  4  1  0  0  0  0
  2  9  1  0  0  0  0
  2  5  1  1  0  0  0
  3 10  1  1  0  0  0
  3  7  1  0  0  0  0
  4  8  1  6  0  0  0
  5  4  1  0  0  0  0
  6  9  1  0  0  0  0
  7  2  1  0  0  0  0
  7  1  1  0  0  0  0
 10  6  2  0  0  0  0
 11 15  1  0  0  0  0
 12 16  1  0  0  0  0
 13 18  1  0  0  0  0
 14 18  1  0  0  0  0
 15 19  1  0  0  0  0
 15  3  1  0  0  0  0
 16 13  1  0  0  0  0
 16 11  1  0  0  0  0
 17 19  1  0  0  0  0
 18 17  1  0  0  0  0
 20 11  1  0  0  0  0
 21 23  1  0  0  0  0
 21 10  1  0  0  0  0
 22 21  1  0  0  0  0
 22 23  1  0  0  0  0
 24 25  1  0  0  0  0
 24 22  1  0  0  0  0
 26 27  1  0  0  0  0
 26 25  1  0  0  0  0
 27 32  1  0  0  0  0
 27 28  1  0  0  0  0
 29 28  1  0  0  0  0
 30 26  1  0  0  0  0
 30 29  1  0  0  0  0
 31 32  1  0  0  0  0
 33 34  1  0  0  0  0
M  END
>  <MODEL>
7

>  <REMARK>
 VINA RESULT:      -4.6      3.532      6.797
  Name = 
  7 active torsions:
  status: ('A' for Active; 'I' for Inactive)
    1  A    between atoms: C_1  and  O_24
    2  A    between atoms: C_3  and  C_13
    3  A    between atoms: C_3  and  C_17
    4  A    between atoms: C_4  and  C_21
    5  A    between atoms: C_5  and  C_31
    6  A    between atoms: N_14  and  C_34
    7  A    between atoms: C_17  and  C_18
                            x       y       z     vdW  Elec       q    Type
                         _______ _______ _______ _____ _____    ______ ____

>  <TORSDO>
F 7

$$$$
=
 OpenBabel11052414243D

 34 38  0  0  1  0  0  0  0  0999 V2000
  190.8350  175.8880  135.3910 C   0  0  1  0  0  3  0  0  0  0  0  0
  191.3770  174.6930  137.4170 C   0  0  1  0  0  3  0  0  0  0  0  0
  189.2100  176.0440  137.3450 C   0  0  1  0  0  3  0  0  0  0  0  0
  192.1760  175.1890  135.1580 C   0  0  2  0  0  3  0  0  0  0  0  0
  192.5490  174.5100  136.4720 C   0  0  0  0  0  2  0  0  0  0  0  0
  189.1500  173.5790  137.2210 C   0  0  0  0  0  3  0  0  0  0  0  0
  190.6750  175.9400  136.8950 C   0  0  2  0  0  3  0  0  0  0  0  0
  193.1770  176.1040  134.8190 O   0  0  0  0  0  1  0  0  0  0  0  0
  190.5440  173.5340  137.3300 O   0  0  0  0  0  0  0  0  0  0  0  0
  188.4730  174.7360  137.1940 C   0  0  0  0  0  0  0  0  0  0  0  0
  188.0280  177.6690  138.9600 C   0  0  1  0  0  3  0  0  0  0  0  0
  186.8190  178.9380  140.5960 O   0  0  0  0  0  1  0  0  0  0  0  0
  188.3640  177.3510  141.4890 C   0  0  0  0  0  2  0  0  0  0  0  0
  190.5330  178.3560  141.8270 O   0  0  0  0  0  1  0  0  0  0  0  0
  189.0990  176.5730  138.7880 C   0  0  2  0  0  3  0  0  0  0  0  0
  188.0460  178.3210  140.3510 C   0  0  1  0  0  3  0  0  0  0  0  0
  190.4870  176.3470  140.5020 C   0  0  0  0  0  2  0  0  0  0  0  0
  189.8720  177.1380  141.6580 C   0  0  2  0  0  3  0  0  0  0  0  0
  190.3320  177.0210  139.2820 O   0  0  0  0  0  0  0  0  0  0  0  0
  188.1770  178.7630  137.9110 C   0  0  0  0  0  1  0  0  0  0  0  0
  186.9750  174.7870  137.0090 C   0  0  2  0  0  3  0  0  0  0  0  0
  186.3960  173.3860  137.1040 C   0  0  2  0  0  3  0  0  0  0  0  0
  186.4770  174.0770  135.7590 C   0  0  0  0  0  2  0  0  0  0  0  0
  184.9750  173.4680  137.6270 C   0  0  0  0  0  2  0  0  0  0  0  0
  184.3110  174.7560  137.1660 C   0  0  0  0  0  2  0  0  0  0  0  0
  183.0650  175.0820  138.0100 C   0  0  2  0  0  3  0  0  0  0  0  0
  181.8590  175.3090  137.2050 N   0  0  0  0  0  0  0  0  0  0  0  0
  181.9810  176.9300  136.5030 S   0  0  0  0  0  0  0  0  0  0  0  0
  183.0220  177.5190  137.8770 C   0  0  0  0  0  2  0  0  0  0  0  0
  183.2930  176.3510  138.8030 C   0  0  0  0  0  2  0  0  0  0  0  0
  180.4610  173.7430  136.1830 O   0  0  0  0  0  1  0  0  0  0  0  0
  181.7210  174.3410  136.1220 C   0  0  0  0  0  2  0  0  0  0  0  0
  190.8080  177.1780  134.8510 O   0  0  0  0  0  0  0  0  0  0  0  0
  189.4600  177.4280  134.5940 C   0  0  0  0  0  1  0  0  0  0  0  0
  1 33  1  1  0  0  0
  1  7  1  0  0  0  0
  2  5  1  6  0  0  0
  3 10  1  1  0  0  0
  3 15  1  0  0  0  0
  4  8  1  1  0  0  0
  4  1  1  0  0  0  0
  4  5  1  0  0  0  0
  6  9  1  0  0  0  0
  7  3  1  0  0  0  0
  7  2  1  0  0  0  0
  9  2  1  0  0  0  0
 10  6  2  0  0  0  0
 11 16  1  0  0  0  0
 13 18  1  0  0  0  0
 15 11  1  0  0  0  0
 15 19  1  0  0  0  0
 16 12  1  0  0  0  0
 16 13  1  0  0  0  0
 17 18  1  0  0  0  0
 18 14  1  0  0  0  0
 19 17  1  0  0  0  0
 20 11  1  0  0  0  0
 21 22  1  0  0  0  0
 21 10  1  0  0  0  0
 22 24  1  0  0  0  0
 23 21  1  0  0  0  0
 23 22  1  0  0  0  0
 25 24  1  0  0  0  0
 25 26  1  0  0  0  0
 26 30  1  0  0  0  0
 27 26  1  0  0  0  0
 28 27  1  0  0  0  0
 28 29  1  0  0  0  0
 29 30  1  0  0  0  0
 32 31  1  0  0  0  0
 32 27  1  0  0  0  0
 34 33  1  0  0  0  0
M  END
>  <MODEL>
8

>  <REMARK>
 VINA RESULT:      -4.6      6.203     10.106
  Name = 
  7 active torsions:
  status: ('A' for Active; 'I' for Inactive)
    1  A    between atoms: C_1  and  O_24
    2  A    between atoms: C_3  and  C_13
    3  A    between atoms: C_3  and  C_17
    4  A    between atoms: C_4  and  C_21
    5  A    between atoms: C_5  and  C_31
    6  A    between atoms: N_14  and  C_34
    7  A    between atoms: C_17  and  C_18
                            x       y       z     vdW  Elec       q    Type
                         _______ _______ _______ _____ _____    ______ ____

>  <TORSDO>
F 7

$$$$
=
 OpenBabel11052414243D

 34 38  0  0  1  0  0  0  0  0999 V2000
  192.2920  175.3390  136.6140 C   0  0  1  0  0  3  0  0  0  0  0  0
  190.4810  176.3760  135.4020 C   0  0  1  0  0  3  0  0  0  0  0  0
  189.9290  175.0640  137.5230 C   0  0  1  0  0  3  0  0  0  0  0  0
  192.9040  176.0340  135.3970 C   0  0  2  0  0  3  0  0  0  0  0  0
  191.7430  176.6110  134.5940 C   0  0  0  0  0  2  0  0  0  0  0  0
  189.8680  177.5310  137.5310 C   0  0  0  0  0  3  0  0  0  0  0  0
  190.8240  175.1800  136.2800 C   0  0  2  0  0  3  0  0  0  0  0  0
  193.6080  175.1340  134.5940 O   0  0  0  0  0  1  0  0  0  0  0  0
  190.2170  177.5500  136.1750 O   0  0  0  0  0  0  0  0  0  0  0  0
  189.7480  176.3890  138.2210 C   0  0  0  0  0  0  0  0  0  0  0  0
  188.6730  172.9870  136.6540 C   0  0  1  0  0  3  0  0  0  0  0  0
  187.3900  171.0340  136.1180 O   0  0  0  0  0  1  0  0  0  0  0  0
  186.1220  172.8790  136.9500 C   0  0  0  0  0  2  0  0  0  0  0  0
  185.3570  174.2840  135.1420 O   0  0  0  0  0  1  0  0  0  0  0  0
  188.5660  174.4330  137.1790 C   0  0  2  0  0  3  0  0  0  0  0  0
  187.3380  172.4280  136.1410 C   0  0  1  0  0  3  0  0  0  0  0  0
  186.5830  175.3840  136.8970 C   0  0  0  0  0  2  0  0  0  0  0  0
  185.6200  174.2600  136.5130 C   0  0  2  0  0  3  0  0  0  0  0  0
  187.8320  175.2200  136.2810 O   0  0  0  0  0  0  0  0  0  0  0  0
  189.7050  172.8740  135.5400 C   0  0  0  0  0  1  0  0  0  0  0  0
  189.4380  176.3710  139.6990 C   0  0  2  0  0  3  0  0  0  0  0  0
  189.3040  177.7940  140.2140 C   0  0  2  0  0  3  0  0  0  0  0  0
  190.5270  176.9770  140.5720 C   0  0  0  0  0  2  0  0  0  0  0  0
  188.3480  177.8110  141.3920 C   0  0  0  0  0  2  0  0  0  0  0  0
  189.1130  177.9840  142.6950 C   0  0  0  0  0  2  0  0  0  0  0  0
  189.1270  176.6830  143.5180 C   0  0  2  0  0  3  0  0  0  0  0  0
  188.3460  176.7690  144.7580 N   0  0  0  0  0  0  0  0  0  0  0  0
  189.3030  177.6870  145.9310 S   0  0  0  0  0  0  0  0  0  0  0  0
  190.8690  177.1720  145.1560 C   0  0  0  0  0  2  0  0  0  0  0  0
  190.5440  176.3440  143.9290 C   0  0  0  0  0  2  0  0  0  0  0  0
  186.8040  178.2720  145.6600 O   0  0  0  0  0  1  0  0  0  0  0  0
  187.0670  177.4470  144.5660 C   0  0  0  0  0  2  0  0  0  0  0  0
  192.8750  174.0910  136.8620 O   0  0  0  0  0  0  0  0  0  0  0  0
  193.8900  174.3500  137.7830 C   0  0  0  0  0  1  0  0  0  0  0  0
  1 33  1  6  0  0  0
  2  5  1  6  0  0  0
  2  9  1  0  0  0  0
  2  7  1  0  0  0  0
  3 10  1  6  0  0  0
  4  8  1  6  0  0  0
  4  1  1  0  0  0  0
  5  4  1  0  0  0  0
  6 10  2  0  0  0  0
  7  1  1  0  0  0  0
  7  3  1  0  0  0  0
  9  6  1  0  0  0  0
 10 21  1  0  0  0  0
 11 15  1  0  0  0  0
 12 16  1  0  0  0  0
 14 18  1  0  0  0  0
 15  3  1  0  0  0  0
 16 11  1  0  0  0  0
 16 13  1  0  0  0  0
 18 17  1  0  0  0  0
 18 13  1  0  0  0  0
 19 17  1  0  0  0  0
 19 15  1  0  0  0  0
 20 11  1  0  0  0  0
 21 22  1  0  0  0  0
 21 23  1  0  0  0  0
 22 23  1  0  0  0  0
 22 24  1  0  0  0  0
 24 25  1  0  0  0  0
 25 26  1  0  0  0  0
 26 30  1  0  0  0  0
 26 27  1  0  0  0  0
 27 28  1  0  0  0  0
 29 28  1  0  0  0  0
 30 29  1  0  0  0  0
 32 27  1  0  0  0  0
 32 31  1  0  0  0  0
 33 34  1  0  0  0  0
M  END
>  <MODEL>
9

>  <REMARK>
 VINA RESULT:      -4.5      5.982      8.611
  Name = 
  7 active torsions:
  status: ('A' for Active; 'I' for Inactive)
    1  A    between atoms: C_1  and  O_24
    2  A    between atoms: C_3  and  C_13
    3  A    between atoms: C_3  and  C_17
    4  A    between atoms: C_4  and  C_21
    5  A    between atoms: C_5  and  C_31
    6  A    between atoms: N_14  and  C_34
    7  A    between atoms: C_17  and  C_18
                            x       y       z     vdW  Elec       q    Type
                         _______ _______ _______ _____ _____    ______ ____

>  <TORSDO>
F 7

$$$$
