=
 OpenBabel11052416183D

 43 49  0  0  1  0  0  0  0  0999 V2000
  191.0640  176.6690  146.7120 C   0  0  0  0  0  0  0  0  0  0  0  0
  189.1410  178.0080  142.2320 C   0  0  0  0  0  0  0  0  0  0  0  0
  186.4080  178.1430  142.5880 C   0  0  0  0  0  0  0  0  0  0  0  0
  190.7890  177.3020  144.3900 C   0  0  0  0  0  0  0  0  0  0  0  0
  189.6790  176.7290  146.8970 C   0  0  0  0  0  3  0  0  0  0  0  0
  191.9480  176.2970  147.8460 C   0  0  0  0  0  1  0  0  0  0  0  0
  189.3850  177.3650  144.5700 C   0  0  0  0  0  0  0  0  0  0  0  0
  191.6170  176.9550  145.4610 C   0  0  0  0  0  3  0  0  0  0  0  0
  188.8430  177.0750  145.8320 C   0  0  0  0  0  3  0  0  0  0  0  0
  187.2100  177.7900  143.6300 N   0  0  0  0  0  0  0  0  0  0  0  0
  188.5610  177.7180  143.4860 C   0  0  0  0  0  0  0  0  0  0  0  0
  190.5300  177.9390  142.0690 C   0  0  0  0  0  3  0  0  0  0  0  0
  188.2980  178.3600  141.1710 C   0  0  0  0  0  0  0  0  0  0  0  0
  186.9540  178.4200  141.3750 N   0  0  0  0  0  0  0  0  0  0  0  0
  191.3500  177.5880  143.1440 C   0  0  0  0  0  3  0  0  0  0  0  0
  184.9270  178.2130  142.7590 C   0  0  1  0  0  3  0  0  0  0  0  0
  184.5880  178.7820  144.1260 C   0  0  0  0  0  1  0  0  0  0  0  0
  184.3000  179.0570  141.6570 C   0  0  0  0  0  2  0  0  0  0  0  0
  183.1420  178.3550  141.0250 C   0  0  0  0  0  0  0  0  0  0  0  0
  181.9990  178.6340  141.3550 O   0  0  0  0  0  0  0  0  0  0  0  0
  183.3900  177.3100  139.9880 C   0  0  0  0  0  2  0  0  0  0  0  0
  183.7860  177.9470  138.6530 C   0  0  2  0  0  3  0  0  0  0  0  0
  182.2130  177.4880  136.3730 C   0  0  0  0  0  2  0  0  0  0  0  0
  182.8520  178.9220  138.2280 O   0  0  0  0  0  0  0  0  0  0  0  0
  184.1430  176.9410  137.5290 C   0  0  2  0  0  3  0  0  0  0  0  0
  183.6220  177.3690  136.2860 O   0  0  0  0  0  0  0  0  0  0  0  0
  181.7620  178.2680  137.6190 C   0  0  0  0  0  2  0  0  0  0  0  0
  183.7220  175.5710  137.8310 N   0  0  0  0  0  2  0  0  0  0  0  0
  184.7830  174.7160  137.5030 N   0  0  0  0  0  0  0  0  0  0  0  0
  185.0160  172.5150  136.4640 C   0  0  0  0  0  2  0  0  0  0  0  0
  186.8640  174.1330  136.9420 C   0  0  0  0  0  3  0  0  0  0  0  0
  186.1960  172.8500  137.3620 C   0  0  1  0  0  3  0  0  0  0  0  0
  186.0470  175.1630  137.0540 C   0  0  0  0  0  3  0  0  0  0  0  0
  184.7830  173.2850  137.7530 C   0  0  1  0  0  3  0  0  0  0  0  0
  188.8370  178.6470  139.9120 O   0  0  0  0  0  0  0  0  0  0  0  0
  190.1010  176.2030  137.3730 C   0  0  0  0  0  3  0  0  0  0  0  0
  189.5070  176.7030  136.2840 C   0  0  0  0  0  0  0  0  0  0  0  0
  188.4300  178.4860  137.5590 C   0  0  0  0  0  3  0  0  0  0  0  0
  190.0780  176.9670  138.6690 C   0  0  0  0  0  2  0  0  0  0  0  0
  188.7580  177.7380  138.8220 C   0  0  1  0  0  3  0  0  0  0  0  0
  188.7520  177.9700  136.3680 C   0  0  0  0  0  3  0  0  0  0  0  0
  189.8120  174.6250  135.2100 O   0  0  0  0  0  1  0  0  0  0  0  0
  189.6190  175.9870  134.9830 C   0  0  0  0  0  2  0  0  0  0  0  0
  1  5  1  0  0  0  0
  1  6  1  0  0  0  0
  2 11  1  0  0  0  0
  3 16  1  0  0  0  0
  3 10  2  0  0  0  0
  4  7  1  0  0  0  0
  4  8  1  0  0  0  0
  7  9  1  0  0  0  0
  8  1  2  0  0  0  0
  9  5  2  0  0  0  0
 11 10  1  0  0  0  0
 11  7  2  0  0  0  0
 12  2  2  0  0  0  0
 12 15  1  0  0  0  0
 13 14  2  0  0  0  0
 13  2  1  0  0  0  0
 14  3  1  0  0  0  0
 15  4  2  0  0  0  0
 16 17  1  1  0  0  0
 18 16  1  0  0  0  0
 19 20  2  0  0  0  0
 19 18  1  0  0  0  0
 21 19  1  0  0  0  0
 22 21  1  1  0  0  0
 23 27  1  0  0  0  0
 24 22  1  0  0  0  0
 25 28  1  1  0  0  0
 25 22  1  0  0  0  0
 26 23  1  0  0  0  0
 26 25  1  0  0  0  0
 27 24  1  0  0  0  0
 29 34  1  0  0  0  0
 29 28  1  0  0  0  0
 31 33  2  0  0  0  0
 31 32  1  0  0  0  0
 32 30  1  6  0  0  0
 32 34  1  0  0  0  0
 33 29  1  0  0  0  0
 34 30  1  6  0  0  0
 35 13  1  0  0  0  0
 36 39  1  0  0  0  0
 37 41  1  0  0  0  0
 37 36  2  0  0  0  0
 38 40  1  0  0  0  0
 39 40  1  0  0  0  0
 40 35  1  1  0  0  0
 41 38  2  0  0  0  0
 43 42  1  0  0  0  0
 43 37  1  0  0  0  0
M  END
>  <MODEL>
1

>  <REMARK>
 VINA RESULT:      -9.1      0.000      0.000
  Name = 
  10 active torsions:
  status: ('A' for Active; 'I' for Inactive)
    1  A    between atoms: O_1  and  C_34
    2  A    between atoms: O_1  and  C_35
    3  A    between atoms: C_2  and  C_6
    4  A    between atoms: C_2  and  C_13
    5  A    between atoms: C_3  and  C_4
    6  A    between atoms: C_3  and  C_12
    7  A    between atoms: C_6  and  C_12
    8  A    between atoms: N_11  and  N_14
    9  A    between atoms: N_14  and  C_22
   10  A    between atoms: C_19  and  C_37
                            x       y       z     vdW  Elec       q    Type
                         _______ _______ _______ _____ _____    ______ ____

>  <TORSDO>
F 10

$$$$
=
 OpenBabel11052416183D

 43 49  0  0  1  0  0  0  0  0999 V2000
  187.8220  177.4680  147.0140 C   0  0  0  0  0  0  0  0  0  0  0  0
  186.0070  178.6740  142.4520 C   0  0  0  0  0  0  0  0  0  0  0  0
  188.0570  178.1960  140.6680 C   0  0  0  0  0  0  0  0  0  0  0  0
  186.4040  178.1890  145.1860 C   0  0  0  0  0  0  0  0  0  0  0  0
  188.8670  177.2310  146.1160 C   0  0  0  0  0  3  0  0  0  0  0  0
  188.0180  177.2160  148.4640 C   0  0  0  0  0  1  0  0  0  0  0  0
  187.4600  177.9500  144.2710 C   0  0  0  0  0  0  0  0  0  0  0  0
  186.5940  177.9460  146.5500 C   0  0  0  0  0  3  0  0  0  0  0  0
  188.6870  177.4700  144.7510 C   0  0  0  0  0  3  0  0  0  0  0  0
  188.2500  177.9720  141.9970 N   0  0  0  0  0  0  0  0  0  0  0  0
  187.2570  178.1950  142.9000 C   0  0  0  0  0  0  0  0  0  0  0  0
  184.9750  178.9070  143.3690 C   0  0  0  0  0  3  0  0  0  0  0  0
  185.8320  178.9050  141.0820 C   0  0  0  0  0  0  0  0  0  0  0  0
  186.8600  178.6600  140.2250 N   0  0  0  0  0  0  0  0  0  0  0  0
  185.1740  178.6650  144.7310 C   0  0  0  0  0  3  0  0  0  0  0  0
  189.1580  177.9500  139.6890 C   0  0  1  0  0  3  0  0  0  0  0  0
  190.2400  177.0960  140.3270 C   0  0  0  0  0  1  0  0  0  0  0  0
  188.6160  177.2810  138.4330 C   0  0  0  0  0  2  0  0  0  0  0  0
  189.2130  177.8760  137.1990 C   0  0  0  0  0  0  0  0  0  0  0  0
  189.1560  179.0810  137.0070 O   0  0  0  0  0  0  0  0  0  0  0  0
  189.8800  176.9870  136.2010 C   0  0  0  0  0  2  0  0  0  0  0  0
  190.6980  175.8970  136.8990 C   0  0  2  0  0  3  0  0  0  0  0  0
  191.9600  173.9100  135.3700 C   0  0  0  0  0  2  0  0  0  0  0  0
  192.0800  175.9970  136.6090 O   0  0  0  0  0  0  0  0  0  0  0  0
  190.1590  174.4560  136.7170 C   0  0  2  0  0  3  0  0  0  0  0  0
  191.2200  173.5420  136.5200 O   0  0  0  0  0  0  0  0  0  0  0  0
  192.3210  175.4040  135.3530 C   0  0  0  0  0  2  0  0  0  0  0  0
  189.1660  174.3470  135.6460 N   0  0  0  0  0  2  0  0  0  0  0  0
  187.9520  173.9540  136.2270 N   0  0  0  0  0  0  0  0  0  0  0  0
  185.5790  174.2930  135.7490 C   0  0  0  0  0  2  0  0  0  0  0  0
  186.5440  172.6770  137.3960 C   0  0  0  0  0  3  0  0  0  0  0  0
  185.8270  173.9890  137.2170 C   0  0  1  0  0  3  0  0  0  0  0  0
  187.7430  172.7010  136.8450 C   0  0  0  0  0  3  0  0  0  0  0  0
  186.8210  174.8430  136.4290 C   0  0  1  0  0  3  0  0  0  0  0  0
  184.6090  179.3860  140.6030 O   0  0  0  0  0  0  0  0  0  0  0  0
  182.5810  176.3920  139.6340 C   0  0  0  0  0  3  0  0  0  0  0  0
  182.9860  176.2630  138.3650 C   0  0  0  0  0  0  0  0  0  0  0  0
  184.4540  178.2080  138.5240 C   0  0  0  0  0  3  0  0  0  0  0  0
  183.2740  177.3560  140.5580 C   0  0  0  0  0  2  0  0  0  0  0  0
  183.7440  178.6010  139.7920 C   0  0  1  0  0  3  0  0  0  0  0  0
  184.0620  177.1280  137.8400 C   0  0  0  0  0  3  0  0  0  0  0  0
  181.5100  175.8570  136.5710 O   0  0  0  0  0  1  0  0  0  0  0  0
  182.3590  175.2370  137.4870 C   0  0  0  0  0  2  0  0  0  0  0  0
  1  6  1  0  0  0  0
  2 11  2  0  0  0  0
  2 12  1  0  0  0  0
  3 10  2  0  0  0  0
  4  8  2  0  0  0  0
  5  1  2  0  0  0  0
  7  9  2  0  0  0  0
  7  4  1  0  0  0  0
  8  1  1  0  0  0  0
  9  5  1  0  0  0  0
 10 11  1  0  0  0  0
 11  7  1  0  0  0  0
 12 15  2  0  0  0  0
 13  2  1  0  0  0  0
 14  3  1  0  0  0  0
 14 13  2  0  0  0  0
 15  4  1  0  0  0  0
 16 17  1  1  0  0  0
 16  3  1  0  0  0  0
 18 16  1  0  0  0  0
 19 18  1  0  0  0  0
 20 19  2  0  0  0  0
 21 19  1  0  0  0  0
 22 21  1  6  0  0  0
 23 26  1  0  0  0  0
 24 22  1  0  0  0  0
 25 28  1  6  0  0  0
 25 22  1  0  0  0  0
 26 25  1  0  0  0  0
 27 23  1  0  0  0  0
 27 24  1  0  0  0  0
 28 29  1  0  0  0  0
 29 34  1  0  0  0  0
 29 33  1  0  0  0  0
 32 30  1  6  0  0  0
 32 31  1  0  0  0  0
 33 31  2  0  0  0  0
 34 30  1  6  0  0  0
 34 32  1  0  0  0  0
 35 13  1  0  0  0  0
 36 39  1  0  0  0  0
 37 36  2  0  0  0  0
 38 40  1  0  0  0  0
 40 39  1  0  0  0  0
 40 35  1  1  0  0  0
 41 37  1  0  0  0  0
 41 38  2  0  0  0  0
 42 43  1  0  0  0  0
 43 37  1  0  0  0  0
M  END
>  <MODEL>
2

>  <REMARK>
 VINA RESULT:      -9.1      1.955      5.763
  Name = 
  10 active torsions:
  status: ('A' for Active; 'I' for Inactive)
    1  A    between atoms: O_1  and  C_34
    2  A    between atoms: O_1  and  C_35
    3  A    between atoms: C_2  and  C_6
    4  A    between atoms: C_2  and  C_13
    5  A    between atoms: C_3  and  C_4
    6  A    between atoms: C_3  and  C_12
    7  A    between atoms: C_6  and  C_12
    8  A    between atoms: N_11  and  N_14
    9  A    between atoms: N_14  and  C_22
   10  A    between atoms: C_19  and  C_37
                            x       y       z     vdW  Elec       q    Type
                         _______ _______ _______ _____ _____    ______ ____

>  <TORSDO>
F 10

$$$$
=
 OpenBabel11052416183D

 43 49  0  0  1  0  0  0  0  0999 V2000
  187.7340  177.7200  147.2300 C   0  0  0  0  0  0  0  0  0  0  0  0
  185.7050  178.5990  142.6840 C   0  0  0  0  0  0  0  0  0  0  0  0
  187.7600  178.3090  140.8660 C   0  0  0  0  0  0  0  0  0  0  0  0
  186.2080  178.2310  145.4190 C   0  0  0  0  0  0  0  0  0  0  0  0
  188.7810  177.5790  146.3150 C   0  0  0  0  0  3  0  0  0  0  0  0
  187.9860  177.5290  148.6810 C   0  0  0  0  0  1  0  0  0  0  0  0
  187.2650  178.0890  144.4860 C   0  0  0  0  0  0  0  0  0  0  0  0
  186.4510  178.0460  146.7830 C   0  0  0  0  0  3  0  0  0  0  0  0
  188.5480  177.7630  144.9490 C   0  0  0  0  0  3  0  0  0  0  0  0
  188.0030  178.1420  142.1950 N   0  0  0  0  0  0  0  0  0  0  0  0
  187.0100  178.2750  143.1150 C   0  0  0  0  0  0  0  0  0  0  0  0
  184.6720  178.7380  143.6190 C   0  0  0  0  0  3  0  0  0  0  0  0
  185.4780  178.7750  141.3140 C   0  0  0  0  0  0  0  0  0  0  0  0
  186.5090  178.6250  140.4390 N   0  0  0  0  0  0  0  0  0  0  0  0
  184.9230  178.5540  144.9810 C   0  0  0  0  0  3  0  0  0  0  0  0
  188.8610  178.1640  139.8680 C   0  0  1  0  0  3  0  0  0  0  0  0
  189.9860  177.3280  140.4530 C   0  0  0  0  0  1  0  0  0  0  0  0
  188.3390  177.5370  138.5830 C   0  0  0  0  0  2  0  0  0  0  0  0
  189.1230  177.9950  137.3960 C   0  0  0  0  0  0  0  0  0  0  0  0
  189.2510  179.1880  137.1650 O   0  0  0  0  0  0  0  0  0  0  0  0
  189.7490  176.9850  136.4920 C   0  0  0  0  0  2  0  0  0  0  0  0
  189.7720  175.6020  137.1490 C   0  0  2  0  0  3  0  0  0  0  0  0
  190.0860  173.3100  135.5580 C   0  0  0  0  0  2  0  0  0  0  0  0
  191.0390  174.9800  137.0440 O   0  0  0  0  0  0  0  0  0  0  0  0
  188.6150  174.6590  136.7300 C   0  0  2  0  0  3  0  0  0  0  0  0
  189.0820  173.3350  136.5570 O   0  0  0  0  0  0  0  0  0  0  0  0
  191.1520  174.3990  135.7650 C   0  0  0  0  0  2  0  0  0  0  0  0
  187.8990  175.1240  135.5410 N   0  0  0  0  0  2  0  0  0  0  0  0
  186.6490  175.6050  135.9560 N   0  0  0  0  0  0  0  0  0  0  0  0
  184.7780  176.7800  134.9090 C   0  0  0  0  0  2  0  0  0  0  0  0
  184.7790  175.7090  137.1700 C   0  0  0  0  0  3  0  0  0  0  0  0
  184.8270  177.0090  136.4110 C   0  0  1  0  0  3  0  0  0  0  0  0
  185.8290  174.9550  136.9050 C   0  0  0  0  0  3  0  0  0  0  0  0
  186.1230  176.9130  135.6050 C   0  0  1  0  0  3  0  0  0  0  0  0
  184.1980  179.1030  140.8510 O   0  0  0  0  0  0  0  0  0  0  0  0
  181.9080  178.8330  137.9020 C   0  0  0  0  0  3  0  0  0  0  0  0
  181.5030  177.5680  138.0630 C   0  0  0  0  0  0  0  0  0  0  0  0
  182.8860  177.2670  140.0540 C   0  0  0  0  0  3  0  0  0  0  0  0
  182.7080  179.5170  138.9770 C   0  0  0  0  0  2  0  0  0  0  0  0
  183.6350  178.5180  139.6840 C   0  0  1  0  0  3  0  0  0  0  0  0
  181.9110  176.8070  139.2620 C   0  0  0  0  0  3  0  0  0  0  0  0
  181.3440  176.7610  135.8520 O   0  0  0  0  0  1  0  0  0  0  0  0
  180.6300  176.9320  137.0380 C   0  0  0  0  0  2  0  0  0  0  0  0
  1  6  1  0  0  0  0
  2 11  2  0  0  0  0
  2 12  1  0  0  0  0
  3 10  2  0  0  0  0
  4  8  2  0  0  0  0
  5  1  2  0  0  0  0
  7  9  2  0  0  0  0
  7  4  1  0  0  0  0
  8  1  1  0  0  0  0
  9  5  1  0  0  0  0
 10 11  1  0  0  0  0
 11  7  1  0  0  0  0
 12 15  2  0  0  0  0
 13  2  1  0  0  0  0
 14  3  1  0  0  0  0
 14 13  2  0  0  0  0
 15  4  1  0  0  0  0
 16 17  1  1  0  0  0
 16  3  1  0  0  0  0
 18 16  1  0  0  0  0
 19 18  1  0  0  0  0
 20 19  2  0  0  0  0
 21 19  1  0  0  0  0
 22 21  1  6  0  0  0
 23 27  1  0  0  0  0
 23 26  1  0  0  0  0
 24 22  1  0  0  0  0
 25 28  1  6  0  0  0
 25 22  1  0  0  0  0
 26 25  1  0  0  0  0
 27 24  1  0  0  0  0
 28 29  1  0  0  0  0
 29 33  1  0  0  0  0
 32 30  1  6  0  0  0
 32 31  1  0  0  0  0
 33 31  2  0  0  0  0
 34 30  1  6  0  0  0
 34 29  1  0  0  0  0
 34 32  1  0  0  0  0
 35 13  1  0  0  0  0
 36 37  2  0  0  0  0
 36 39  1  0  0  0  0
 37 41  1  0  0  0  0
 39 40  1  0  0  0  0
 40 38  1  0  0  0  0
 40 35  1  1  0  0  0
 41 38  2  0  0  0  0
 42 43  1  0  0  0  0
 43 37  1  0  0  0  0
M  END
>  <MODEL>
3

>  <REMARK>
 VINA RESULT:      -9.0      1.877      5.845
  Name = 
  10 active torsions:
  status: ('A' for Active; 'I' for Inactive)
    1  A    between atoms: O_1  and  C_34
    2  A    between atoms: O_1  and  C_35
    3  A    between atoms: C_2  and  C_6
    4  A    between atoms: C_2  and  C_13
    5  A    between atoms: C_3  and  C_4
    6  A    between atoms: C_3  and  C_12
    7  A    between atoms: C_6  and  C_12
    8  A    between atoms: N_11  and  N_14
    9  A    between atoms: N_14  and  C_22
   10  A    between atoms: C_19  and  C_37
                            x       y       z     vdW  Elec       q    Type
                         _______ _______ _______ _____ _____    ______ ____

>  <TORSDO>
F 10

$$$$
=
 OpenBabel11052416183D

 43 49  0  0  1  0  0  0  0  0999 V2000
  191.2140  176.3430  146.6680 C   0  0  0  0  0  0  0  0  0  0  0  0
  187.3570  178.2150  143.9890 C   0  0  0  0  0  0  0  0  0  0  0  0
  188.1920  178.2240  141.3590 C   0  0  0  0  0  0  0  0  0  0  0  0
  189.0830  177.2740  145.9900 C   0  0  0  0  0  0  0  0  0  0  0  0
  191.6460  176.3520  145.3380 C   0  0  0  0  0  3  0  0  0  0  0  0
  192.1180  175.8480  147.7370 C   0  0  0  0  0  1  0  0  0  0  0  0
  189.5140  177.2850  144.6400 C   0  0  0  0  0  0  0  0  0  0  0  0
  189.9360  176.8030  146.9930 C   0  0  0  0  0  3  0  0  0  0  0  0
  190.8000  176.8210  144.3290 C   0  0  0  0  0  3  0  0  0  0  0  0
  189.0300  177.7790  142.3350 N   0  0  0  0  0  0  0  0  0  0  0  0
  188.6460  177.7580  143.6390 C   0  0  0  0  0  0  0  0  0  0  0  0
  186.9460  178.1990  145.3280 C   0  0  0  0  0  3  0  0  0  0  0  0
  186.5120  178.6760  142.9720 C   0  0  0  0  0  0  0  0  0  0  0  0
  186.9500  178.6690  141.6840 N   0  0  0  0  0  0  0  0  0  0  0  0
  187.8060  177.7300  146.3240 C   0  0  0  0  0  3  0  0  0  0  0  0
  188.6290  178.2450  139.9320 C   0  0  1  0  0  3  0  0  0  0  0  0
  189.7690  177.2630  139.7230 C   0  0  0  0  0  1  0  0  0  0  0  0
  187.4620  177.9160  139.0100 C   0  0  0  0  0  2  0  0  0  0  0  0
  187.7950  178.2120  137.5840 C   0  0  0  0  0  0  0  0  0  0  0  0
  188.1350  179.3370  137.2510 O   0  0  0  0  0  0  0  0  0  0  0  0
  187.7090  177.1220  136.5660 C   0  0  0  0  0  2  0  0  0  0  0  0
  187.4650  175.7660  137.2360 C   0  0  2  0  0  3  0  0  0  0  0  0
  187.3180  173.4450  135.6640 C   0  0  0  0  0  2  0  0  0  0  0  0
  188.5850  174.9080  137.1320 O   0  0  0  0  0  0  0  0  0  0  0  0
  186.1440  175.0650  136.8280 C   0  0  2  0  0  3  0  0  0  0  0  0
  186.3420  173.6740  136.6650 O   0  0  0  0  0  0  0  0  0  0  0  0
  188.5760  174.3060  135.8570 C   0  0  0  0  0  2  0  0  0  0  0  0
  185.5270  175.6520  135.6370 N   0  0  0  0  0  2  0  0  0  0  0  0
  184.4000  176.3750  136.0520 N   0  0  0  0  0  0  0  0  0  0  0  0
  183.8990  178.0030  137.8050 C   0  0  0  0  0  2  0  0  0  0  0  0
  182.4330  177.4140  135.8660 C   0  0  0  0  0  3  0  0  0  0  0  0
  182.6560  177.2580  137.3470 C   0  0  1  0  0  3  0  0  0  0  0  0
  183.4230  176.8880  135.1690 C   0  0  0  0  0  3  0  0  0  0  0  0
  183.9990  176.5320  137.4390 C   0  0  1  0  0  3  0  0  0  0  0  0
  185.2300  179.1420  143.2830 O   0  0  0  0  0  0  0  0  0  0  0  0
  182.3310  178.3820  141.0390 C   0  0  0  0  0  3  0  0  0  0  0  0
  181.3570  178.3450  141.9550 C   0  0  0  0  0  0  0  0  0  0  0  0
  182.9120  178.8070  143.7810 C   0  0  0  0  0  3  0  0  0  0  0  0
  183.7060  178.8680  141.4100 C   0  0  0  0  0  2  0  0  0  0  0  0
  184.0500  178.4740  142.8540 C   0  0  1  0  0  3  0  0  0  0  0  0
  181.6480  178.7040  143.3590 C   0  0  0  0  0  3  0  0  0  0  0  0
  179.1320  178.0130  142.6640 O   0  0  0  0  0  1  0  0  0  0  0  0
  179.9770  177.9560  141.5560 C   0  0  0  0  0  2  0  0  0  0  0  0
  1  8  1  0  0  0  0
  1  6  1  0  0  0  0
  2 12  1  0  0  0  0
  3 14  1  0  0  0  0
  3 10  2  0  0  0  0
  4 15  1  0  0  0  0
  4  8  2  0  0  0  0
  5  1  2  0  0  0  0
  7  4  1  0  0  0  0
  9  7  2  0  0  0  0
  9  5  1  0  0  0  0
 10 11  1  0  0  0  0
 11  2  2  0  0  0  0
 11  7  1  0  0  0  0
 12 15  2  0  0  0  0
 13 35  1  0  0  0  0
 13  2  1  0  0  0  0
 14 13  2  0  0  0  0
 16 17  1  1  0  0  0
 16  3  1  0  0  0  0
 18 16  1  0  0  0  0
 19 18  1  0  0  0  0
 20 19  2  0  0  0  0
 21 19  1  0  0  0  0
 22 21  1  6  0  0  0
 23 27  1  0  0  0  0
 23 26  1  0  0  0  0
 24 22  1  0  0  0  0
 25 28  1  6  0  0  0
 25 22  1  0  0  0  0
 26 25  1  0  0  0  0
 27 24  1  0  0  0  0
 28 29  1  0  0  0  0
 29 34  1  0  0  0  0
 32 31  1  6  0  0  0
 32 34  1  0  0  0  0
 32 30  1  0  0  0  0
 33 31  2  0  0  0  0
 33 29  1  0  0  0  0
 34 30  1  1  0  0  0
 36 39  1  0  0  0  0
 36 37  2  0  0  0  0
 37 41  1  0  0  0  0
 39 40  1  0  0  0  0
 40 35  1  1  0  0  0
 40 38  1  0  0  0  0
 41 38  2  0  0  0  0
 43 37  1  0  0  0  0
 43 42  1  0  0  0  0
M  END
>  <MODEL>
4

>  <REMARK>
 VINA RESULT:      -9.0      1.860      5.762
  Name = 
  10 active torsions:
  status: ('A' for Active; 'I' for Inactive)
    1  A    between atoms: O_1  and  C_34
    2  A    between atoms: O_1  and  C_35
    3  A    between atoms: C_2  and  C_6
    4  A    between atoms: C_2  and  C_13
    5  A    between atoms: C_3  and  C_4
    6  A    between atoms: C_3  and  C_12
    7  A    between atoms: C_6  and  C_12
    8  A    between atoms: N_11  and  N_14
    9  A    between atoms: N_14  and  C_22
   10  A    between atoms: C_19  and  C_37
                            x       y       z     vdW  Elec       q    Type
                         _______ _______ _______ _____ _____    ______ ____

>  <TORSDO>
F 10

$$$$
=
 OpenBabel11052416183D

 43 49  0  0  1  0  0  0  0  0999 V2000
  181.1340  179.0770  141.9390 C   0  0  0  0  0  0  0  0  0  0  0  0
  185.7570  178.4430  143.8850 C   0  0  0  0  0  0  0  0  0  0  0  0
  187.4750  178.3010  141.7310 C   0  0  0  0  0  0  0  0  0  0  0  0
  183.0080  178.7960  143.4480 C   0  0  0  0  0  0  0  0  0  0  0  0
  181.9990  178.9990  140.8430 C   0  0  0  0  0  3  0  0  0  0  0  0
  179.6770  179.2630  141.7220 C   0  0  0  0  0  1  0  0  0  0  0  0
  183.8900  178.7160  142.3410 C   0  0  0  0  0  0  0  0  0  0  0  0
  181.6380  178.9760  143.2380 C   0  0  0  0  0  3  0  0  0  0  0  0
  183.3700  178.8190  141.0430 C   0  0  0  0  0  3  0  0  0  0  0  0
  186.1390  178.4620  141.5220 N   0  0  0  0  0  0  0  0  0  0  0  0
  185.2680  178.5380  142.5640 C   0  0  0  0  0  0  0  0  0  0  0  0
  184.8720  178.5210  144.9680 C   0  0  0  0  0  3  0  0  0  0  0  0
  187.1320  178.2700  144.0780 C   0  0  0  0  0  0  0  0  0  0  0  0
  187.9570  178.2040  142.9970 N   0  0  0  0  0  0  0  0  0  0  0  0
  183.5040  178.6980  144.7490 C   0  0  0  0  0  3  0  0  0  0  0  0
  188.4190  178.2140  140.5770 C   0  0  1  0  0  3  0  0  0  0  0  0
  189.4650  177.1450  140.8420 C   0  0  0  0  0  1  0  0  0  0  0  0
  187.6640  177.9200  139.2890 C   0  0  0  0  0  2  0  0  0  0  0  0
  188.4620  178.3120  138.0880 C   0  0  0  0  0  0  0  0  0  0  0  0
  189.0550  179.3790  138.0650 O   0  0  0  0  0  0  0  0  0  0  0  0
  188.5290  177.3900  136.9150 C   0  0  0  0  0  2  0  0  0  0  0  0
  188.6140  175.9300  137.3700 C   0  0  2  0  0  3  0  0  0  0  0  0
  188.3800  173.8670  135.4800 C   0  0  0  0  0  2  0  0  0  0  0  0
  189.7730  175.2830  136.8800 O   0  0  0  0  0  0  0  0  0  0  0  0
  187.3280  175.0960  137.1360 C   0  0  2  0  0  3  0  0  0  0  0  0
  187.6480  173.7920  136.6910 O   0  0  0  0  0  0  0  0  0  0  0  0
  189.5360  174.8780  135.5510 C   0  0  0  0  0  2  0  0  0  0  0  0
  186.3820  175.7450  136.2270 N   0  0  0  0  0  2  0  0  0  0  0  0
  185.1410  175.8090  136.8760 N   0  0  0  0  0  0  0  0  0  0  0  0
  183.3200  177.4320  137.0410 C   0  0  0  0  0  2  0  0  0  0  0  0
  183.2580  175.0500  137.8050 C   0  0  0  0  0  3  0  0  0  0  0  0
  183.3550  176.4900  138.2340 C   0  0  1  0  0  3  0  0  0  0  0  0
  184.2890  174.6970  137.0610 C   0  0  0  0  0  3  0  0  0  0  0  0
  184.6580  176.9740  137.5970 C   0  0  1  0  0  3  0  0  0  0  0  0
  187.6520  178.1640  145.3730 O   0  0  0  0  0  0  0  0  0  0  0  0
  190.0490  176.3560  147.6070 C   0  0  0  0  0  3  0  0  0  0  0  0
  191.1420  176.4130  146.8380 C   0  0  0  0  0  0  0  0  0  0  0  0
  189.9590  177.6050  145.0640 C   0  0  0  0  0  3  0  0  0  0  0  0
  188.8200  177.1430  147.2430 C   0  0  0  0  0  2  0  0  0  0  0  0
  188.6580  177.2210  145.7180 C   0  0  1  0  0  3  0  0  0  0  0  0
  191.1200  177.1850  145.5780 C   0  0  0  0  0  3  0  0  0  0  0  0
  192.8370  176.2350  148.4680 O   0  0  0  0  0  1  0  0  0  0  0  0
  192.3850  175.7100  147.2580 C   0  0  0  0  0  2  0  0  0  0  0  0
  1  8  1  0  0  0  0
  2 13  1  0  0  0  0
  2 12  1  0  0  0  0
  3 14  1  0  0  0  0
  4 15  1  0  0  0  0
  5  9  1  0  0  0  0
  5  1  2  0  0  0  0
  6  1  1  0  0  0  0
  7 11  1  0  0  0  0
  7  4  1  0  0  0  0
  8  4  2  0  0  0  0
  9  7  2  0  0  0  0
 10  3  2  0  0  0  0
 10 11  1  0  0  0  0
 11  2  2  0  0  0  0
 13 35  1  0  0  0  0
 14 13  2  0  0  0  0
 15 12  2  0  0  0  0
 16 17  1  1  0  0  0
 16  3  1  0  0  0  0
 18 16  1  0  0  0  0
 19 18  1  0  0  0  0
 20 19  2  0  0  0  0
 21 19  1  0  0  0  0
 22 21  1  6  0  0  0
 23 27  1  0  0  0  0
 23 26  1  0  0  0  0
 24 22  1  0  0  0  0
 25 28  1  6  0  0  0
 25 22  1  0  0  0  0
 26 25  1  0  0  0  0
 27 24  1  0  0  0  0
 28 29  1  0  0  0  0
 29 33  1  0  0  0  0
 29 34  1  0  0  0  0
 31 32  1  0  0  0  0
 32 30  1  6  0  0  0
 33 31  2  0  0  0  0
 34 30  1  6  0  0  0
 34 32  1  0  0  0  0
 37 43  1  0  0  0  0
 37 36  2  0  0  0  0
 38 41  2  0  0  0  0
 38 40  1  0  0  0  0
 39 36  1  0  0  0  0
 40 35  1  1  0  0  0
 40 39  1  0  0  0  0
 41 37  1  0  0  0  0
 43 42  1  0  0  0  0
M  END
>  <MODEL>
5

>  <REMARK>
 VINA RESULT:      -9.0      2.256      7.275
  Name = 
  10 active torsions:
  status: ('A' for Active; 'I' for Inactive)
    1  A    between atoms: O_1  and  C_34
    2  A    between atoms: O_1  and  C_35
    3  A    between atoms: C_2  and  C_6
    4  A    between atoms: C_2  and  C_13
    5  A    between atoms: C_3  and  C_4
    6  A    between atoms: C_3  and  C_12
    7  A    between atoms: C_6  and  C_12
    8  A    between atoms: N_11  and  N_14
    9  A    between atoms: N_14  and  C_22
   10  A    between atoms: C_19  and  C_37
                            x       y       z     vdW  Elec       q    Type
                         _______ _______ _______ _____ _____    ______ ____

>  <TORSDO>
F 10

$$$$
=
 OpenBabel11052416183D

 43 49  0  0  1  0  0  0  0  0999 V2000
  185.1210  178.6120  145.3500 C   0  0  0  0  0  0  0  0  0  0  0  0
  182.2420  178.7070  141.1950 C   0  0  0  0  0  0  0  0  0  0  0  0
  183.8750  177.9030  139.1210 C   0  0  0  0  0  0  0  0  0  0  0  0
  183.2780  178.8610  143.7980 C   0  0  0  0  0  0  0  0  0  0  0  0
  185.9550  178.2110  144.3020 C   0  0  0  0  0  3  0  0  0  0  0  0
  185.6560  178.6980  146.7330 C   0  0  0  0  0  1  0  0  0  0  0  0
  184.1180  178.4550  142.7310 C   0  0  0  0  0  0  0  0  0  0  0  0
  183.7860  178.9360  145.0980 C   0  0  0  0  0  3  0  0  0  0  0  0
  185.4570  178.1320  142.9990 C   0  0  0  0  0  3  0  0  0  0  0  0
  184.3760  177.9900  140.3840 N   0  0  0  0  0  0  0  0  0  0  0  0
  183.5960  178.3790  141.4270 C   0  0  0  0  0  0  0  0  0  0  0  0
  181.4260  179.1090  142.2590 C   0  0  0  0  0  3  0  0  0  0  0  0
  181.7480  178.6200  139.8880 C   0  0  0  0  0  0  0  0  0  0  0  0
  182.5750  178.2200  138.8850 N   0  0  0  0  0  0  0  0  0  0  0  0
  181.9420  179.1850  143.5550 C   0  0  0  0  0  3  0  0  0  0  0  0
  184.7450  177.4780  137.9850 C   0  0  1  0  0  3  0  0  0  0  0  0
  183.9060  177.2820  136.7330 C   0  0  0  0  0  1  0  0  0  0  0  0
  185.8430  178.5030  137.7400 C   0  0  0  0  0  2  0  0  0  0  0  0
  187.0940  177.8540  137.2420 C   0  0  0  0  0  0  0  0  0  0  0  0
  187.3900  177.9160  136.0580 O   0  0  0  0  0  0  0  0  0  0  0  0
  187.9780  177.1270  138.2000 C   0  0  0  0  0  2  0  0  0  0  0  0
  189.3080  177.8640  138.3840 C   0  0  2  0  0  3  0  0  0  0  0  0
  191.6330  176.4090  138.9880 C   0  0  0  0  0  2  0  0  0  0  0  0
  190.2370  177.5550  137.3620 O   0  0  0  0  0  0  0  0  0  0  0  0
  189.9290  177.7490  139.8000 C   0  0  2  0  0  3  0  0  0  0  0  0
  191.3310  177.5820  139.7230 O   0  0  0  0  0  0  0  0  0  0  0  0
  190.8510  176.3240  137.6660 C   0  0  0  0  0  2  0  0  0  0  0  0
  189.3170  176.6940  140.6100 N   0  0  0  0  0  2  0  0  0  0  0  0
  189.6380  176.9450  141.9520 N   0  0  0  0  0  0  0  0  0  0  0  0
  191.5060  176.4300  143.4420 C   0  0  0  0  0  2  0  0  0  0  0  0
  189.6340  178.0240  143.9060 C   0  0  0  0  0  3  0  0  0  0  0  0
  190.2140  176.6670  144.2080 C   0  0  1  0  0  3  0  0  0  0  0  0
  189.3030  178.1370  142.6330 C   0  0  0  0  0  3  0  0  0  0  0  0
  190.1880  175.9510  142.8570 C   0  0  1  0  0  3  0  0  0  0  0  0
  180.4130  178.9440  139.6200 O   0  0  0  0  0  0  0  0  0  0  0  0
  180.1040  180.6860  136.3210 C   0  0  0  0  0  3  0  0  0  0  0  0
  180.5280  181.9020  136.6830 C   0  0  0  0  0  0  0  0  0  0  0  0
  180.8640  181.2120  139.0010 C   0  0  0  0  0  3  0  0  0  0  0  0
  180.2340  179.5230  137.2670 C   0  0  0  0  0  2  0  0  0  0  0  0
  180.0450  179.9810  138.7200 C   0  0  1  0  0  3  0  0  0  0  0  0
  181.0520  182.1290  138.0460 C   0  0  0  0  0  3  0  0  0  0  0  0
  181.2570  184.0870  136.1740 O   0  0  0  0  0  1  0  0  0  0  0  0
  180.4850  183.0240  135.7050 C   0  0  0  0  0  2  0  0  0  0  0  0
  1  6  1  0  0  0  0
  2 11  2  0  0  0  0
  2 12  1  0  0  0  0
  3 10  2  0  0  0  0
  4  8  2  0  0  0  0
  5  1  2  0  0  0  0
  7  9  2  0  0  0  0
  7  4  1  0  0  0  0
  8  1  1  0  0  0  0
  9  5  1  0  0  0  0
 10 11  1  0  0  0  0
 11  7  1  0  0  0  0
 12 15  2  0  0  0  0
 13  2  1  0  0  0  0
 14  3  1  0  0  0  0
 14 13  2  0  0  0  0
 15  4  1  0  0  0  0
 16 17  1  6  0  0  0
 16  3  1  0  0  0  0
 18 16  1  0  0  0  0
 19 18  1  0  0  0  0
 19 21  1  0  0  0  0
 20 19  2  0  0  0  0
 22 21  1  1  0  0  0
 22 25  1  0  0  0  0
 23 26  1  0  0  0  0
 24 27  1  0  0  0  0
 24 22  1  0  0  0  0
 25 28  1  6  0  0  0
 26 25  1  0  0  0  0
 27 23  1  0  0  0  0
 28 29  1  0  0  0  0
 29 33  1  0  0  0  0
 29 34  1  0  0  0  0
 31 32  1  0  0  0  0
 32 30  1  6  0  0  0
 33 31  2  0  0  0  0
 34 30  1  6  0  0  0
 34 32  1  0  0  0  0
 35 13  1  0  0  0  0
 36 37  2  0  0  0  0
 36 39  1  0  0  0  0
 37 41  1  0  0  0  0
 39 40  1  0  0  0  0
 40 38  1  0  0  0  0
 40 35  1  1  0  0  0
 41 38  2  0  0  0  0
 43 42  1  0  0  0  0
 43 37  1  0  0  0  0
M  END
>  <MODEL>
6

>  <REMARK>
 VINA RESULT:      -8.9      2.467      7.817
  Name = 
  10 active torsions:
  status: ('A' for Active; 'I' for Inactive)
    1  A    between atoms: O_1  and  C_34
    2  A    between atoms: O_1  and  C_35
    3  A    between atoms: C_2  and  C_6
    4  A    between atoms: C_2  and  C_13
    5  A    between atoms: C_3  and  C_4
    6  A    between atoms: C_3  and  C_12
    7  A    between atoms: C_6  and  C_12
    8  A    between atoms: N_11  and  N_14
    9  A    between atoms: N_14  and  C_22
   10  A    between atoms: C_19  and  C_37
                            x       y       z     vdW  Elec       q    Type
                         _______ _______ _______ _____ _____    ______ ____

>  <TORSDO>
F 10

$$$$
=
 OpenBabel11052416183D

 43 49  0  0  1  0  0  0  0  0999 V2000
  191.2400  176.5370  146.9100 C   0  0  0  0  0  0  0  0  0  0  0  0
  188.9640  177.8800  142.6010 C   0  0  0  0  0  0  0  0  0  0  0  0
  186.2940  178.1980  143.2190 C   0  0  0  0  0  0  0  0  0  0  0  0
  190.7730  177.1260  144.6070 C   0  0  0  0  0  0  0  0  0  0  0  0
  189.8870  176.6890  147.2280 C   0  0  0  0  0  3  0  0  0  0  0  0
  192.2090  176.1380  147.9630 C   0  0  0  0  0  1  0  0  0  0  0  0
  189.4010  177.2830  144.9230 C   0  0  0  0  0  0  0  0  0  0  0  0
  191.6820  176.7540  145.6030 C   0  0  0  0  0  3  0  0  0  0  0  0
  188.9720  177.0600  146.2400 C   0  0  0  0  0  3  0  0  0  0  0  0
  187.1730  177.8210  144.1880 N   0  0  0  0  0  0  0  0  0  0  0  0
  188.4960  177.6600  143.9150 C   0  0  0  0  0  0  0  0  0  0  0  0
  190.3230  177.7190  142.3040 C   0  0  0  0  0  3  0  0  0  0  0  0
  188.0420  178.2580  141.6180 C   0  0  0  0  0  0  0  0  0  0  0  0
  186.7310  178.4080  141.9500 N   0  0  0  0  0  0  0  0  0  0  0  0
  191.2240  177.3440  143.3040 C   0  0  0  0  0  3  0  0  0  0  0  0
  184.8440  178.3670  143.5330 C   0  0  1  0  0  3  0  0  0  0  0  0
  184.6760  178.8900  144.9490 C   0  0  0  0  0  1  0  0  0  0  0  0
  184.1860  179.3080  142.5330 C   0  0  0  0  0  2  0  0  0  0  0  0
  183.0690  178.6340  141.8040 C   0  0  0  0  0  0  0  0  0  0  0  0
  181.9230  178.7250  142.2150 O   0  0  0  0  0  0  0  0  0  0  0  0
  183.3640  177.8470  140.5690 C   0  0  0  0  0  2  0  0  0  0  0  0
  182.0960  177.1810  140.0290 C   0  0  2  0  0  3  0  0  0  0  0  0
  182.0730  176.1430  137.4200 C   0  0  0  0  0  2  0  0  0  0  0  0
  182.2690  175.7930  139.8160 O   0  0  0  0  0  0  0  0  0  0  0  0
  181.4540  177.8900  138.8080 C   0  0  2  0  0  3  0  0  0  0  0  0
  180.9920  176.9450  137.8630 O   0  0  0  0  0  0  0  0  0  0  0  0
  182.9220  175.6020  138.5820 C   0  0  0  0  0  2  0  0  0  0  0  0
  182.3450  178.8680  138.1800 N   0  0  0  0  0  2  0  0  0  0  0  0
  181.5560  179.9350  137.7280 N   0  0  0  0  0  0  0  0  0  0  0  0
  181.3020  182.3000  138.2920 C   0  0  0  0  0  2  0  0  0  0  0  0
  180.3460  181.1410  136.2920 C   0  0  0  0  0  3  0  0  0  0  0  0
  180.0500  181.7300  137.6460 C   0  0  1  0  0  3  0  0  0  0  0  0
  181.1800  180.1220  136.3790 C   0  0  0  0  0  3  0  0  0  0  0  0
  180.8790  180.8750  138.6050 C   0  0  1  0  0  3  0  0  0  0  0  0
  188.4690  178.4780  140.3030 O   0  0  0  0  0  0  0  0  0  0  0  0
  189.4430  176.3410  137.3870 C   0  0  0  0  0  3  0  0  0  0  0  0
  188.3950  176.5780  136.5910 C   0  0  0  0  0  0  0  0  0  0  0  0
  187.3480  178.0550  138.2300 C   0  0  0  0  0  3  0  0  0  0  0  0
  189.6430  177.1480  138.6420 C   0  0  0  0  0  2  0  0  0  0  0  0
  188.2910  177.5150  139.2710 C   0  0  1  0  0  3  0  0  0  0  0  0
  187.3800  177.5780  136.9810 C   0  0  0  0  0  3  0  0  0  0  0  0
  188.0140  174.4940  135.5560 O   0  0  0  0  0  1  0  0  0  0  0  0
  188.2600  175.8430  135.3040 C   0  0  0  0  0  2  0  0  0  0  0  0
  1  5  1  0  0  0  0
  1  6  1  0  0  0  0
  2 11  1  0  0  0  0
  3 16  1  0  0  0  0
  3 10  2  0  0  0  0
  4  7  1  0  0  0  0
  4  8  1  0  0  0  0
  7  9  1  0  0  0  0
  8  1  2  0  0  0  0
  9  5  2  0  0  0  0
 11 10  1  0  0  0  0
 11  7  2  0  0  0  0
 12  2  2  0  0  0  0
 12 15  1  0  0  0  0
 13 14  2  0  0  0  0
 13  2  1  0  0  0  0
 14  3  1  0  0  0  0
 15  4  2  0  0  0  0
 16 17  1  1  0  0  0
 18 16  1  0  0  0  0
 19 20  2  0  0  0  0
 19 18  1  0  0  0  0
 21 19  1  0  0  0  0
 22 21  1  6  0  0  0
 23 26  1  0  0  0  0
 23 27  1  0  0  0  0
 24 22  1  0  0  0  0
 25 28  1  6  0  0  0
 25 22  1  0  0  0  0
 26 25  1  0  0  0  0
 27 24  1  0  0  0  0
 29 28  1  0  0  0  0
 29 34  1  0  0  0  0
 31 33  2  0  0  0  0
 32 31  1  6  0  0  0
 32 30  1  0  0  0  0
 32 34  1  0  0  0  0
 33 29  1  0  0  0  0
 34 30  1  6  0  0  0
 35 13  1  0  0  0  0
 36 39  1  0  0  0  0
 37 41  1  0  0  0  0
 37 36  2  0  0  0  0
 38 40  1  0  0  0  0
 39 40  1  0  0  0  0
 40 35  1  1  0  0  0
 41 38  2  0  0  0  0
 43 42  1  0  0  0  0
 43 37  1  0  0  0  0
M  END
>  <MODEL>
7

>  <REMARK>
 VINA RESULT:      -8.8      1.842      3.620
  Name = 
  10 active torsions:
  status: ('A' for Active; 'I' for Inactive)
    1  A    between atoms: O_1  and  C_34
    2  A    between atoms: O_1  and  C_35
    3  A    between atoms: C_2  and  C_6
    4  A    between atoms: C_2  and  C_13
    5  A    between atoms: C_3  and  C_4
    6  A    between atoms: C_3  and  C_12
    7  A    between atoms: C_6  and  C_12
    8  A    between atoms: N_11  and  N_14
    9  A    between atoms: N_14  and  C_22
   10  A    between atoms: C_19  and  C_37
                            x       y       z     vdW  Elec       q    Type
                         _______ _______ _______ _____ _____    ______ ____

>  <TORSDO>
F 10

$$$$
=
 OpenBabel11052416183D

 43 49  0  0  1  0  0  0  0  0999 V2000
  188.0010  177.5150  146.9860 C   0  0  0  0  0  0  0  0  0  0  0  0
  188.4340  178.0800  141.9810 C   0  0  0  0  0  0  0  0  0  0  0  0
  185.8940  178.6280  141.0550 C   0  0  0  0  0  0  0  0  0  0  0  0
  188.8530  177.6590  144.7220 C   0  0  0  0  0  0  0  0  0  0  0  0
  186.7100  177.7850  146.5220 C   0  0  0  0  0  3  0  0  0  0  0  0
  188.2370  177.2900  148.4350 C   0  0  0  0  0  1  0  0  0  0  0  0
  187.5470  177.9340  144.2460 C   0  0  0  0  0  0  0  0  0  0  0  0
  189.0700  177.4520  146.0880 C   0  0  0  0  0  3  0  0  0  0  0  0
  186.4840  177.9940  145.1590 C   0  0  0  0  0  3  0  0  0  0  0  0
  186.0990  178.4130  142.3840 N   0  0  0  0  0  0  0  0  0  0  0  0
  187.3400  178.1440  142.8700 C   0  0  0  0  0  0  0  0  0  0  0  0
  189.7190  177.8060  142.4670 C   0  0  0  0  0  3  0  0  0  0  0  0
  188.2010  178.2970  140.6170 C   0  0  0  0  0  0  0  0  0  0  0  0
  186.9380  178.5660  140.1890 N   0  0  0  0  0  0  0  0  0  0  0  0
  189.9260  177.5970  143.8320 C   0  0  0  0  0  3  0  0  0  0  0  0
  184.5240  178.9180  140.5350 C   0  0  1  0  0  3  0  0  0  0  0  0
  184.5410  178.9490  139.0160 C   0  0  0  0  0  1  0  0  0  0  0  0
  183.5300  177.8810  141.0390 C   0  0  0  0  0  2  0  0  0  0  0  0
  182.2430  177.9470  140.2830 C   0  0  0  0  0  0  0  0  0  0  0  0
  181.6200  178.9960  140.2190 O   0  0  0  0  0  0  0  0  0  0  0  0
  181.7230  176.7230  139.6040 C   0  0  0  0  0  2  0  0  0  0  0  0
  181.7010  176.9070  138.0840 C   0  0  2  0  0  3  0  0  0  0  0  0
  181.0090  174.7450  136.4320 C   0  0  0  0  0  2  0  0  0  0  0  0
  180.3930  176.8110  137.5530 O   0  0  0  0  0  0  0  0  0  0  0  0
  182.7200  176.0360  137.3060 C   0  0  2  0  0  3  0  0  0  0  0  0
  182.1450  175.5300  136.1160 O   0  0  0  0  0  0  0  0  0  0  0  0
  180.0600  175.4480  137.4150 C   0  0  0  0  0  2  0  0  0  0  0  0
  183.2890  174.9570  138.1150 N   0  0  0  0  0  2  0  0  0  0  0  0
  184.5530  174.6510  137.5920 N   0  0  0  0  0  0  0  0  0  0  0  0
  185.4960  172.8910  136.1820 C   0  0  0  0  0  2  0  0  0  0  0  0
  186.6190  175.0290  136.8360 C   0  0  0  0  0  3  0  0  0  0  0  0
  186.5500  173.5420  137.0630 C   0  0  1  0  0  3  0  0  0  0  0  0
  185.4850  175.6220  137.1630 C   0  0  0  0  0  3  0  0  0  0  0  0
  185.1330  173.3190  137.5940 C   0  0  1  0  0  3  0  0  0  0  0  0
  189.2610  178.2350  139.7060 O   0  0  0  0  0  0  0  0  0  0  0  0
  190.9960  175.5370  137.7770 C   0  0  0  0  0  3  0  0  0  0  0  0
  190.5850  175.8580  136.5450 C   0  0  0  0  0  0  0  0  0  0  0  0
  189.2640  177.7430  137.3630 C   0  0  0  0  0  3  0  0  0  0  0  0
  190.7340  176.4650  138.9320 C   0  0  0  0  0  2  0  0  0  0  0  0
  189.3900  177.1860  138.7550 C   0  0  1  0  0  3  0  0  0  0  0  0
  189.7970  177.0880  136.3250 C   0  0  0  0  0  3  0  0  0  0  0  0
  192.2330  174.4970  135.5470 O   0  0  0  0  0  1  0  0  0  0  0  0
  190.9340  174.9810  135.3940 C   0  0  0  0  0  2  0  0  0  0  0  0
  1  6  1  0  0  0  0
  2 12  2  0  0  0  0
  2 11  1  0  0  0  0
  3 10  2  0  0  0  0
  4  8  1  0  0  0  0
  5  1  1  0  0  0  0
  7  4  1  0  0  0  0
  7  9  1  0  0  0  0
  8  1  2  0  0  0  0
  9  5  2  0  0  0  0
 10 11  1  0  0  0  0
 11  7  2  0  0  0  0
 12 15  1  0  0  0  0
 13  2  1  0  0  0  0
 14 13  2  0  0  0  0
 14  3  1  0  0  0  0
 15  4  2  0  0  0  0
 16 17  1  6  0  0  0
 16 18  1  0  0  0  0
 16  3  1  0  0  0  0
 19 18  1  0  0  0  0
 20 19  2  0  0  0  0
 21 19  1  0  0  0  0
 22 21  1  1  0  0  0
 23 27  1  0  0  0  0
 24 22  1  0  0  0  0
 25 22  1  0  0  0  0
 25 28  1  1  0  0  0
 26 23  1  0  0  0  0
 26 25  1  0  0  0  0
 27 24  1  0  0  0  0
 29 34  1  0  0  0  0
 29 28  1  0  0  0  0
 31 32  1  0  0  0  0
 31 33  2  0  0  0  0
 32 30  1  6  0  0  0
 32 34  1  0  0  0  0
 33 29  1  0  0  0  0
 34 30  1  6  0  0  0
 35 13  1  0  0  0  0
 36 39  1  0  0  0  0
 37 36  2  0  0  0  0
 38 40  1  0  0  0  0
 40 39  1  0  0  0  0
 40 35  1  1  0  0  0
 41 37  1  0  0  0  0
 41 38  2  0  0  0  0
 43 42  1  0  0  0  0
 43 37  1  0  0  0  0
M  END
>  <MODEL>
8

>  <REMARK>
 VINA RESULT:      -8.5      1.499      2.029
  Name = 
  10 active torsions:
  status: ('A' for Active; 'I' for Inactive)
    1  A    between atoms: O_1  and  C_34
    2  A    between atoms: O_1  and  C_35
    3  A    between atoms: C_2  and  C_6
    4  A    between atoms: C_2  and  C_13
    5  A    between atoms: C_3  and  C_4
    6  A    between atoms: C_3  and  C_12
    7  A    between atoms: C_6  and  C_12
    8  A    between atoms: N_11  and  N_14
    9  A    between atoms: N_14  and  C_22
   10  A    between atoms: C_19  and  C_37
                            x       y       z     vdW  Elec       q    Type
                         _______ _______ _______ _____ _____    ______ ____

>  <TORSDO>
F 10

$$$$
=
 OpenBabel11052416183D

 43 49  0  0  1  0  0  0  0  0999 V2000
  190.0920  177.2150  138.5200 C   0  0  0  0  0  0  0  0  0  0  0  0
  185.3020  178.6160  139.3260 C   0  0  0  0  0  0  0  0  0  0  0  0
  185.0990  179.1060  142.0340 C   0  0  0  0  0  0  0  0  0  0  0  0
  187.7550  177.7910  138.2440 C   0  0  0  0  0  0  0  0  0  0  0  0
  189.9940  177.4550  139.8940 C   0  0  0  0  0  3  0  0  0  0  0  0
  191.3850  176.7770  137.9340 C   0  0  0  0  0  1  0  0  0  0  0  0
  187.6490  178.0360  139.6360 C   0  0  0  0  0  0  0  0  0  0  0  0
  188.9760  177.3830  137.6970 C   0  0  0  0  0  3  0  0  0  0  0  0
  188.7790  177.8630  140.4500 C   0  0  0  0  0  3  0  0  0  0  0  0
  186.2850  178.6950  141.5070 N   0  0  0  0  0  0  0  0  0  0  0  0
  186.4170  178.4490  140.1750 C   0  0  0  0  0  0  0  0  0  0  0  0
  185.4230  178.3680  137.9530 C   0  0  0  0  0  3  0  0  0  0  0  0
  184.0900  179.0320  139.8880 C   0  0  0  0  0  0  0  0  0  0  0  0
  184.0180  179.2670  141.2270 N   0  0  0  0  0  0  0  0  0  0  0  0
  186.6450  177.9580  137.4150 C   0  0  0  0  0  3  0  0  0  0  0  0
  184.9680  179.3680  143.4980 C   0  0  1  0  0  3  0  0  0  0  0  0
  183.5680  179.8650  143.8130 C   0  0  0  0  0  1  0  0  0  0  0  0
  185.2840  178.1110  144.2960 C   0  0  0  0  0  2  0  0  0  0  0  0
  185.4650  178.4180  145.7470 C   0  0  0  0  0  0  0  0  0  0  0  0
  184.5050  178.4090  146.5030 O   0  0  0  0  0  0  0  0  0  0  0  0
  186.8280  178.7360  146.2690 C   0  0  0  0  0  2  0  0  0  0  0  0
  187.4950  177.4880  146.8530 C   0  0  2  0  0  3  0  0  0  0  0  0
  189.8530  177.7470  148.3560 C   0  0  0  0  0  2  0  0  0  0  0  0
  187.4410  177.4650  148.2670 O   0  0  0  0  0  0  0  0  0  0  0  0
  188.9170  177.1930  146.3120 C   0  0  2  0  0  3  0  0  0  0  0  0
  189.7700  176.7520  147.3500 O   0  0  0  0  0  0  0  0  0  0  0  0
  188.4730  178.2820  148.7720 C   0  0  0  0  0  2  0  0  0  0  0  0
  189.5050  178.3270  145.5950 N   0  0  0  0  0  2  0  0  0  0  0  0
  190.3050  177.8130  144.5650 N   0  0  0  0  0  0  0  0  0  0  0  0
  190.2330  175.8730  143.0800 C   0  0  0  0  0  2  0  0  0  0  0  0
  191.7570  177.8460  142.8710 C   0  0  0  0  0  3  0  0  0  0  0  0
  191.6480  176.3970  143.2660 C   0  0  1  0  0  3  0  0  0  0  0  0
  191.0050  178.6140  143.6360 C   0  0  0  0  0  3  0  0  0  0  0  0
  190.6620  176.4110  144.4350 C   0  0  1  0  0  3  0  0  0  0  0  0
  182.9620  179.2020  139.0780 O   0  0  0  0  0  0  0  0  0  0  0  0
  180.0130  177.5680  140.7050 C   0  0  0  0  0  3  0  0  0  0  0  0
  180.2350  176.3040  140.3270 C   0  0  0  0  0  0  0  0  0  0  0  0
  182.2500  176.9160  139.0900 C   0  0  0  0  0  3  0  0  0  0  0  0
  181.0570  178.6250  140.4730 C   0  0  0  0  0  2  0  0  0  0  0  0
  181.8220  178.3570  139.1680 C   0  0  1  0  0  3  0  0  0  0  0  0
  181.4750  175.9550  139.6040 C   0  0  0  0  0  3  0  0  0  0  0  0
  179.5450  174.0800  139.9490 O   0  0  0  0  0  1  0  0  0  0  0  0
  179.2380  175.2460  140.6490 C   0  0  0  0  0  2  0  0  0  0  0  0
  1  5  1  0  0  0  0
  2 13  1  0  0  0  0
  2 11  1  0  0  0  0
  3 16  1  0  0  0  0
  4  7  1  0  0  0  0
  5  9  2  0  0  0  0
  6  1  1  0  0  0  0
  7 11  2  0  0  0  0
  7  9  1  0  0  0  0
  8  4  1  0  0  0  0
  8  1  2  0  0  0  0
 10  3  2  0  0  0  0
 11 10  1  0  0  0  0
 12  2  2  0  0  0  0
 13 14  2  0  0  0  0
 14  3  1  0  0  0  0
 15 12  1  0  0  0  0
 15  4  2  0  0  0  0
 16 17  1  6  0  0  0
 16 18  1  0  0  0  0
 18 19  1  0  0  0  0
 19 21  1  0  0  0  0
 19 20  2  0  0  0  0
 22 21  1  1  0  0  0
 22 24  1  0  0  0  0
 23 27  1  0  0  0  0
 24 27  1  0  0  0  0
 25 28  1  1  0  0  0
 25 22  1  0  0  0  0
 25 26  1  0  0  0  0
 26 23  1  0  0  0  0
 29 28  1  0  0  0  0
 30 32  1  0  0  0  0
 31 33  2  0  0  0  0
 32 31  1  6  0  0  0
 32 34  1  0  0  0  0
 33 29  1  0  0  0  0
 34 30  1  6  0  0  0
 34 29  1  0  0  0  0
 35 13  1  0  0  0  0
 37 43  1  0  0  0  0
 37 36  2  0  0  0  0
 38 40  1  0  0  0  0
 38 41  2  0  0  0  0
 39 36  1  0  0  0  0
 40 35  1  1  0  0  0
 40 39  1  0  0  0  0
 41 37  1  0  0  0  0
 42 43  1  0  0  0  0
M  END
>  <MODEL>
9

>  <REMARK>
 VINA RESULT:      -8.4      2.999      8.197
  Name = 
  10 active torsions:
  status: ('A' for Active; 'I' for Inactive)
    1  A    between atoms: O_1  and  C_34
    2  A    between atoms: O_1  and  C_35
    3  A    between atoms: C_2  and  C_6
    4  A    between atoms: C_2  and  C_13
    5  A    between atoms: C_3  and  C_4
    6  A    between atoms: C_3  and  C_12
    7  A    between atoms: C_6  and  C_12
    8  A    between atoms: N_11  and  N_14
    9  A    between atoms: N_14  and  C_22
   10  A    between atoms: C_19  and  C_37
                            x       y       z     vdW  Elec       q    Type
                         _______ _______ _______ _____ _____    ______ ____

>  <TORSDO>
F 10

$$$$
