=
 OpenBabel11052414343D

 32 38  0  0  1  0  0  0  0  0999 V2000
  187.3760  177.8900  144.6740 C   0  0  1  0  0  3  0  0  0  0  0  0
  189.7150  177.4940  143.9370 C   0  0  1  0  0  3  0  0  0  0  0  0
  186.3360  177.4200  145.6890 C   0  0  0  0  0  2  0  0  0  0  0  0
  188.7080  177.2260  145.0200 C   0  0  1  0  0  3  0  0  0  0  0  0
  191.0190  176.7850  144.2710 C   0  0  1  0  0  3  0  0  0  0  0  0
  190.7060  177.1890  139.1660 C   0  0  0  0  0  3  0  0  0  0  0  0
  189.1840  176.8620  142.6530 C   0  0  1  0  0  3  0  0  0  0  0  0
  192.4910  177.1940  140.8050 C   0  0  0  0  0  3  0  0  0  0  0  0
  191.5520  177.0740  141.8320 C   0  0  0  0  0  0  0  0  0  0  0  0
  191.0820  176.1110  146.6250 C   0  0  2  0  0  3  0  0  0  0  0  0
  189.1680  177.8050  146.3530 C   0  0  2  0  0  3  0  0  0  0  0  0
  191.9850  177.0240  143.2010 N   0  0  0  0  0  2  0  0  0  0  0  0
  190.6340  177.5480  146.7640 C   0  0  2  0  0  3  0  0  0  0  0  0
  188.1800  177.3880  147.4440 C   0  0  0  0  0  2  0  0  0  0  0  0
  187.8400  177.3510  142.3260 N   0  0  0  0  0  0  0  0  0  0  0  0
  192.1520  175.8240  147.6570 C   0  0  0  0  0  1  0  0  0  0  0  0
  186.9590  177.7110  143.2210 C   0  0  0  0  0  0  0  0  0  0  0  0
  190.1720  177.0420  141.5270 C   0  0  0  0  0  0  0  0  0  0  0  0
  191.6060  177.1480  145.6380 C   0  0  2  0  0  3  0  0  0  0  0  0
  186.7620  177.8660  147.0950 C   0  0  0  0  0  2  0  0  0  0  0  0
  192.0680  177.2520  139.4740 C   0  0  0  0  0  3  0  0  0  0  0  0
  189.7600  177.0780  140.1880 C   0  0  0  0  0  3  0  0  0  0  0  0
  184.1400  179.1400  141.0710 C   0  0  0  0  0  0  0  0  0  0  0  0
  183.8950  179.5820  139.7770 O   0  0  0  0  0  1  0  0  0  0  0  0
  185.6380  178.2100  142.7620 C   0  0  0  0  0  0  0  0  0  0  0  0
  183.1060  179.1730  142.0080 C   0  0  0  0  0  3  0  0  0  0  0  0
  184.5790  178.2520  143.6830 C   0  0  0  0  0  3  0  0  0  0  0  0
  185.4100  178.6590  141.4370 C   0  0  0  0  0  0  0  0  0  0  0  0
  186.4800  178.5930  140.3940 C   0  0  0  0  0  1  0  0  0  0  0  0
  183.3190  178.7280  143.3160 C   0  0  0  0  0  0  0  0  0  0  0  0
  181.0050  178.6370  143.9770 N   0  0  0  0  0  2  0  0  0  0  0  0
  182.2470  178.7510  144.3160 C   0  0  0  0  0  3  0  0  0  0  0  0
  1  4  1  0  0  0  0
  1  3  1  1  0  0  0
  2  5  1  0  0  0  0
  2  4  1  0  0  0  0
  3 20  1  0  0  0  0
  4 11  1  0  0  0  0
  5 19  1  0  0  0  0
  6 21  2  0  0  0  0
  6 22  1  0  0  0  0
  7  2  1  0  0  0  0
  8  9  2  0  0  0  0
  9 12  1  0  0  0  0
 10 13  1  0  0  0  0
 10 16  1  0  0  0  0
 11 13  1  0  0  0  0
 11 14  1  0  0  0  0
 12  5  1  0  0  0  0
 15  7  1  0  0  0  0
 15 17  2  0  0  0  0
 17  1  1  0  0  0  0
 18  9  1  0  0  0  0
 18  7  1  0  0  0  0
 19 10  1  0  0  0  0
 19 13  1  0  0  0  0
 20 14  1  0  0  0  0
 21  8  1  0  0  0  0
 22 18  2  0  0  0  0
 23 28  2  0  0  0  0
 23 26  1  0  0  0  0
 24 23  1  0  0  0  0
 25 17  1  0  0  0  0
 25 27  2  0  0  0  0
 26 30  2  0  0  0  0
 28 25  1  0  0  0  0
 29 28  1  0  0  0  0
 30 27  1  0  0  0  0
 30 32  1  0  0  0  0
 31 32  2  0  0  0  0
M  END
>  <MODEL>
1

>  <REMARK>
 VINA RESULT:     -11.5      0.000      0.000
  Name = 
  2 active torsions:
  status: ('A' for Active; 'I' for Inactive)
    1  A    between atoms: C_15  and  C_26
    2  A    between atoms: C_16  and  C_27
                            x       y       z     vdW  Elec       q    Type
                         _______ _______ _______ _____ _____    ______ ____

>  <TORSDO>
F 2

$$$$
=
 OpenBabel11052414343D

 32 38  0  0  1  0  0  0  0  0999 V2000
  189.4930  177.2160  142.5560 C   0  0  1  0  0  3  0  0  0  0  0  0
  187.4390  177.6410  143.8860 C   0  0  1  0  0  3  0  0  0  0  0  0
  190.9950  177.4960  142.5350 C   0  0  0  0  0  2  0  0  0  0  0  0
  188.9400  177.7070  143.8930 C   0  0  1  0  0  3  0  0  0  0  0  0
  186.9020  178.1800  145.2030 C   0  0  1  0  0  3  0  0  0  0  0  0
  183.3390  178.9860  141.5990 C   0  0  0  0  0  3  0  0  0  0  0  0
  186.9450  178.5810  142.7880 C   0  0  1  0  0  3  0  0  0  0  0  0
  183.3330  178.5030  143.9740 C   0  0  0  0  0  3  0  0  0  0  0  0
  184.7280  178.4330  143.9670 C   0  0  0  0  0  0  0  0  0  0  0  0
  188.6650  178.2870  146.9000 C   0  0  2  0  0  3  0  0  0  0  0  0
  189.5230  176.8110  144.9790 C   0  0  2  0  0  3  0  0  0  0  0  0
  185.4410  178.1410  145.1800 N   0  0  0  0  0  2  0  0  0  0  0  0
  188.8730  176.8840  146.3770 C   0  0  2  0  0  3  0  0  0  0  0  0
  191.0380  177.0190  145.0340 C   0  0  0  0  0  2  0  0  0  0  0  0
  187.5440  178.2570  141.4900 N   0  0  0  0  0  0  0  0  0  0  0  0
  188.7360  178.2680  148.4120 C   0  0  0  0  0  1  0  0  0  0  0  0
  188.7390  177.7500  141.3460 C   0  0  0  0  0  0  0  0  0  0  0  0
  185.4370  178.6130  142.7570 C   0  0  0  0  0  0  0  0  0  0  0  0
  187.4530  177.4790  146.4470 C   0  0  2  0  0  3  0  0  0  0  0  0
  191.6720  176.7140  143.6680 C   0  0  0  0  0  2  0  0  0  0  0  0
  182.6400  178.7780  142.7920 C   0  0  0  0  0  3  0  0  0  0  0  0
  184.7340  178.9100  141.5820 C   0  0  0  0  0  3  0  0  0  0  0  0
  188.9270  177.2760  137.5580 C   0  0  0  0  0  0  0  0  0  0  0  0
  188.1480  177.4260  136.4160 O   0  0  0  0  0  1  0  0  0  0  0  0
  189.2250  177.4440  139.9760 C   0  0  0  0  0  0  0  0  0  0  0  0
  190.2340  176.7990  137.4310 C   0  0  0  0  0  3  0  0  0  0  0  0
  190.5360  176.9650  139.8190 C   0  0  0  0  0  3  0  0  0  0  0  0
  188.4140  177.6030  138.8250 C   0  0  0  0  0  0  0  0  0  0  0  0
  187.0260  178.1560  138.9160 C   0  0  0  0  0  1  0  0  0  0  0  0
  191.0430  176.6440  138.5600 C   0  0  0  0  0  0  0  0  0  0  0  0
  193.4270  176.8620  138.8330 N   0  0  0  0  0  2  0  0  0  0  0  0
  192.4190  176.1480  138.4510 C   0  0  0  0  0  3  0  0  0  0  0  0
  1  3  1  6  0  0  0
  1  4  1  0  0  0  0
  2  4  1  0  0  0  0
  2  5  1  0  0  0  0
  3 20  1  0  0  0  0
  4 11  1  0  0  0  0
  5 19  1  0  0  0  0
  6 21  1  0  0  0  0
  7  2  1  0  0  0  0
  9  8  1  0  0  0  0
  9 12  1  0  0  0  0
 10 16  1  0  0  0  0
 11 14  1  0  0  0  0
 11 13  1  0  0  0  0
 12  5  1  0  0  0  0
 13 19  1  0  0  0  0
 13 10  1  0  0  0  0
 15  7  1  0  0  0  0
 17 15  2  0  0  0  0
 17  1  1  0  0  0  0
 18  7  1  0  0  0  0
 18  9  2  0  0  0  0
 19 10  1  0  0  0  0
 20 14  1  0  0  0  0
 21  8  2  0  0  0  0
 22  6  2  0  0  0  0
 22 18  1  0  0  0  0
 23 28  1  0  0  0  0
 24 23  1  0  0  0  0
 25 17  1  0  0  0  0
 26 23  2  0  0  0  0
 26 30  1  0  0  0  0
 27 25  1  0  0  0  0
 28 29  1  0  0  0  0
 28 25  2  0  0  0  0
 30 27  2  0  0  0  0
 32 30  1  0  0  0  0
 32 31  2  0  0  0  0
M  END
>  <MODEL>
2

>  <REMARK>
 VINA RESULT:     -11.2      1.937      6.291
  Name = 
  2 active torsions:
  status: ('A' for Active; 'I' for Inactive)
    1  A    between atoms: C_15  and  C_26
    2  A    between atoms: C_16  and  C_27
                            x       y       z     vdW  Elec       q    Type
                         _______ _______ _______ _____ _____    ______ ____

>  <TORSDO>
F 2

$$$$
=
 OpenBabel11052414343D

 32 38  0  0  1  0  0  0  0  0999 V2000
  189.2750  177.1790  142.1560 C   0  0  1  0  0  3  0  0  0  0  0  0
  186.9880  177.6620  142.9960 C   0  0  1  0  0  3  0  0  0  0  0  0
  190.7510  177.4180  142.4720 C   0  0  0  0  0  2  0  0  0  0  0  0
  188.4510  177.6860  143.3380 C   0  0  1  0  0  3  0  0  0  0  0  0
  186.1850  178.2170  144.1620 C   0  0  1  0  0  3  0  0  0  0  0  0
  183.5400  179.1160  139.8580 C   0  0  0  0  0  3  0  0  0  0  0  0
  186.7780  178.6140  141.8200 C   0  0  1  0  0  3  0  0  0  0  0  0
  182.9910  178.6360  142.1690 C   0  0  0  0  0  3  0  0  0  0  0  0
  184.3500  178.5280  142.4730 C   0  0  0  0  0  0  0  0  0  0  0  0
  187.5260  178.2770  146.2110 C   0  0  2  0  0  3  0  0  0  0  0  0
  188.7520  176.7760  144.5220 C   0  0  2  0  0  3  0  0  0  0  0  0
  184.7660  178.2180  143.8130 N   0  0  0  0  0  2  0  0  0  0  0  0
  187.8080  176.8680  145.7400 C   0  0  2  0  0  3  0  0  0  0  0  0
  190.2220  176.9420  144.9160 C   0  0  0  0  0  2  0  0  0  0  0  0
  187.6430  178.2720  140.6870 N   0  0  0  0  0  0  0  0  0  0  0  0
  187.2580  178.2570  147.7000 C   0  0  0  0  0  1  0  0  0  0  0  0
  188.8250  177.7320  140.8110 C   0  0  0  0  0  0  0  0  0  0  0  0
  185.3160  178.6860  141.4530 C   0  0  0  0  0  0  0  0  0  0  0  0
  186.4260  177.5020  145.4950 C   0  0  2  0  0  3  0  0  0  0  0  0
  191.1370  176.6180  143.7240 C   0  0  0  0  0  2  0  0  0  0  0  0
  182.5870  178.9290  140.8630 C   0  0  0  0  0  3  0  0  0  0  0  0
  184.9020  179.0020  140.1520 C   0  0  0  0  0  3  0  0  0  0  0  0
  189.7810  177.0300  137.1770 C   0  0  0  0  0  0  0  0  0  0  0  0
  189.2160  176.9750  135.9090 O   0  0  0  0  0  1  0  0  0  0  0  0
  189.5970  177.4110  139.5830 C   0  0  0  0  0  0  0  0  0  0  0  0
  191.1430  176.7560  137.3270 C   0  0  0  0  0  3  0  0  0  0  0  0
  190.9680  177.1350  139.7030 C   0  0  0  0  0  3  0  0  0  0  0  0
  189.0000  177.3590  138.2980 C   0  0  0  0  0  0  0  0  0  0  0  0
  187.5550  177.6930  138.0930 C   0  0  0  0  0  1  0  0  0  0  0  0
  191.7420  176.8100  138.5880 C   0  0  0  0  0  0  0  0  0  0  0  0
  193.8650  177.1270  139.6810 N   0  0  0  0  0  2  0  0  0  0  0  0
  193.1700  176.5300  138.7690 C   0  0  0  0  0  3  0  0  0  0  0  0
  1  3  1  1  0  0  0
  1  4  1  0  0  0  0
  2  4  1  0  0  0  0
  2  5  1  0  0  0  0
  3 20  1  0  0  0  0
  4 11  1  0  0  0  0
  5 19  1  0  0  0  0
  6 22  2  0  0  0  0
  6 21  1  0  0  0  0
  7  2  1  0  0  0  0
  8  9  1  0  0  0  0
  9 12  1  0  0  0  0
 10 16  1  0  0  0  0
 11 14  1  0  0  0  0
 11 13  1  0  0  0  0
 12  5  1  0  0  0  0
 13 10  1  0  0  0  0
 15 17  2  0  0  0  0
 15  7  1  0  0  0  0
 17  1  1  0  0  0  0
 18  7  1  0  0  0  0
 18  9  2  0  0  0  0
 19 13  1  0  0  0  0
 19 10  1  0  0  0  0
 20 14  1  0  0  0  0
 21  8  2  0  0  0  0
 22 18  1  0  0  0  0
 23 26  2  0  0  0  0
 23 28  1  0  0  0  0
 24 23  1  0  0  0  0
 25 27  1  0  0  0  0
 25 17  1  0  0  0  0
 26 30  1  0  0  0  0
 28 25  2  0  0  0  0
 29 28  1  0  0  0  0
 30 32  1  0  0  0  0
 30 27  2  0  0  0  0
 32 31  2  0  0  0  0
M  END
>  <MODEL>
3

>  <REMARK>
 VINA RESULT:     -11.1      2.084      6.579
  Name = 
  2 active torsions:
  status: ('A' for Active; 'I' for Inactive)
    1  A    between atoms: C_15  and  C_26
    2  A    between atoms: C_16  and  C_27
                            x       y       z     vdW  Elec       q    Type
                         _______ _______ _______ _____ _____    ______ ____

>  <TORSDO>
F 2

$$$$
=
 OpenBabel11052414343D

 32 38  0  0  1  0  0  0  0  0999 V2000
  187.5760  178.2140  141.3010 C   0  0  1  0  0  3  0  0  0  0  0  0
  187.3060  178.2740  143.7700 C   0  0  1  0  0  3  0  0  0  0  0  0
  186.8290  177.8620  140.0150 C   0  0  0  0  0  2  0  0  0  0  0  0
  186.5830  178.1360  142.4590 C   0  0  1  0  0  3  0  0  0  0  0  0
  186.3120  178.1450  144.9130 C   0  0  1  0  0  3  0  0  0  0  0  0
  190.8880  176.5660  146.6140 C   0  0  0  0  0  3  0  0  0  0  0  0
  188.2700  177.0960  143.8850 C   0  0  1  0  0  3  0  0  0  0  0  0
  188.9640  177.6810  147.5780 C   0  0  0  0  0  3  0  0  0  0  0  0
  188.3320  177.6740  146.3320 C   0  0  0  0  0  0  0  0  0  0  0  0
  184.0100  178.4170  144.1210 C   0  0  2  0  0  3  0  0  0  0  0  0
  185.5760  179.2650  142.2670 C   0  0  2  0  0  3  0  0  0  0  0  0
  187.0240  178.2500  146.1850 N   0  0  0  0  0  2  0  0  0  0  0  0
  184.6680  179.6110  143.4670 C   0  0  2  0  0  3  0  0  0  0  0  0
  184.7740  179.0030  140.9910 C   0  0  0  0  0  2  0  0  0  0  0  0
  189.1720  177.0210  142.7310 N   0  0  0  0  0  0  0  0  0  0  0  0
  182.6860  178.8460  144.7170 C   0  0  0  0  0  1  0  0  0  0  0  0
  188.8470  177.4090  141.5270 C   0  0  0  0  0  0  0  0  0  0  0  0
  188.9970  177.1350  145.2070 C   0  0  0  0  0  0  0  0  0  0  0  0
  185.1420  179.1310  144.8520 C   0  0  2  0  0  3  0  0  0  0  0  0
  185.7130  178.8900  139.7800 C   0  0  0  0  0  2  0  0  0  0  0  0
  190.2400  177.1280  147.7190 C   0  0  0  0  0  3  0  0  0  0  0  0
  190.2660  176.5630  145.3630 C   0  0  0  0  0  3  0  0  0  0  0  0
  192.1590  177.2900  139.6220 C   0  0  0  0  0  0  0  0  0  0  0  0
  193.5290  177.3590  139.8440 O   0  0  0  0  0  1  0  0  0  0  0  0
  189.8590  177.3030  140.4450 C   0  0  0  0  0  0  0  0  0  0  0  0
  191.6890  177.1280  138.3170 C   0  0  0  0  0  3  0  0  0  0  0  0
  189.4150  177.1360  139.1230 C   0  0  0  0  0  3  0  0  0  0  0  0
  191.2530  177.3770  140.6930 C   0  0  0  0  0  0  0  0  0  0  0  0
  191.7940  177.5030  142.0820 C   0  0  0  0  0  1  0  0  0  0  0  0
  190.3180  177.0480  138.0620 C   0  0  0  0  0  0  0  0  0  0  0  0
  188.9700  177.7170  136.1810 N   0  0  0  0  0  2  0  0  0  0  0  0
  189.8010  176.8740  136.7000 C   0  0  0  0  0  3  0  0  0  0  0  0
  1  3  1  6  0  0  0
  1 17  1  0  0  0  0
  1  4  1  0  0  0  0
  2  7  1  0  0  0  0
  2  5  1  0  0  0  0
  4  2  1  0  0  0  0
  5 12  1  0  0  0  0
  6 21  1  0  0  0  0
  7 18  1  0  0  0  0
  8 21  2  0  0  0  0
  9  8  1  0  0  0  0
 10 16  1  0  0  0  0
 10 19  1  0  0  0  0
 11  4  1  0  0  0  0
 11 13  1  0  0  0  0
 12  9  1  0  0  0  0
 13 10  1  0  0  0  0
 13 19  1  0  0  0  0
 14 11  1  0  0  0  0
 15  7  1  0  0  0  0
 17 15  2  0  0  0  0
 18 22  1  0  0  0  0
 18  9  2  0  0  0  0
 19  5  1  0  0  0  0
 20  3  1  0  0  0  0
 20 14  1  0  0  0  0
 22  6  2  0  0  0  0
 23 24  1  0  0  0  0
 23 28  1  0  0  0  0
 25 28  2  0  0  0  0
 25 17  1  0  0  0  0
 26 23  2  0  0  0  0
 27 25  1  0  0  0  0
 28 29  1  0  0  0  0
 30 26  1  0  0  0  0
 30 27  2  0  0  0  0
 31 32  2  0  0  0  0
 32 30  1  0  0  0  0
M  END
>  <MODEL>
4

>  <REMARK>
 VINA RESULT:     -10.6      2.437      6.895
  Name = 
  2 active torsions:
  status: ('A' for Active; 'I' for Inactive)
    1  A    between atoms: C_15  and  C_26
    2  A    between atoms: C_16  and  C_27
                            x       y       z     vdW  Elec       q    Type
                         _______ _______ _______ _____ _____    ______ ____

>  <TORSDO>
F 2

$$$$
=
 OpenBabel11052414343D

 32 38  0  0  1  0  0  0  0  0999 V2000
  185.9410  178.1790  142.9340 C   0  0  1  0  0  3  0  0  0  0  0  0
  185.9490  178.0980  140.4510 C   0  0  1  0  0  3  0  0  0  0  0  0
  185.3540  178.9540  144.1130 C   0  0  0  0  0  2  0  0  0  0  0  0
  185.2680  178.6800  141.6580 C   0  0  1  0  0  3  0  0  0  0  0  0
  185.3010  178.6450  139.1890 C   0  0  1  0  0  3  0  0  0  0  0  0
  190.1800  177.5010  138.0880 C   0  0  0  0  0  3  0  0  0  0  0  0
  187.3930  178.5940  140.4590 C   0  0  1  0  0  3  0  0  0  0  0  0
  188.0750  177.4830  136.8860 C   0  0  0  0  0  3  0  0  0  0  0  0
  187.4090  177.9010  138.0410 C   0  0  0  0  0  0  0  0  0  0  0  0
  183.1260  179.6600  139.6790 C   0  0  2  0  0  3  0  0  0  0  0  0
  183.8060  178.2540  141.7210 C   0  0  2  0  0  3  0  0  0  0  0  0
  185.9860  178.0980  138.0200 N   0  0  0  0  0  2  0  0  0  0  0  0
  182.9870  178.3470  140.4150 C   0  0  2  0  0  3  0  0  0  0  0  0
  183.1260  178.9800  142.8830 C   0  0  0  0  0  2  0  0  0  0  0  0
  188.0700  178.2700  141.7190 N   0  0  0  0  0  0  0  0  0  0  0  0
  181.8480  179.9400  138.9190 C   0  0  0  0  0  1  0  0  0  0  0  0
  187.4620  178.1910  142.8720 C   0  0  0  0  0  0  0  0  0  0  0  0
  188.1310  178.0940  139.2410 C   0  0  0  0  0  0  0  0  0  0  0  0
  183.7900  178.4150  139.1010 C   0  0  2  0  0  3  0  0  0  0  0  0
  183.8470  178.6730  144.2040 C   0  0  0  0  0  2  0  0  0  0  0  0
  189.4590  177.2820  136.9100 C   0  0  0  0  0  3  0  0  0  0  0  0
  189.5200  177.9120  139.2490 C   0  0  0  0  0  3  0  0  0  0  0  0
  190.3110  177.1090  145.1790 C   0  0  0  0  0  0  0  0  0  0  0  0
  191.6510  176.7420  145.1330 O   0  0  0  0  0  1  0  0  0  0  0  0
  188.2550  177.8310  144.0750 C   0  0  0  0  0  0  0  0  0  0  0  0
  189.6540  177.1310  146.4120 C   0  0  0  0  0  3  0  0  0  0  0  0
  187.6210  177.8480  145.3280 C   0  0  0  0  0  3  0  0  0  0  0  0
  189.6210  177.4580  144.0050 C   0  0  0  0  0  0  0  0  0  0  0  0
  190.3690  177.4690  142.7090 C   0  0  0  0  0  1  0  0  0  0  0  0
  188.3100  177.5030  146.4920 C   0  0  0  0  0  0  0  0  0  0  0  0
  188.1970  177.8870  148.8670 N   0  0  0  0  0  2  0  0  0  0  0  0
  187.6010  177.5360  147.7750 C   0  0  0  0  0  3  0  0  0  0  0  0
  1  3  1  1  0  0  0
  2  7  1  0  0  0  0
  2  4  1  0  0  0  0
  3 20  1  0  0  0  0
  4 11  1  0  0  0  0
  4  1  1  0  0  0  0
  5  2  1  0  0  0  0
  6 22  1  0  0  0  0
  7 15  1  0  0  0  0
  8 21  1  0  0  0  0
  8  9  2  0  0  0  0
  9 18  1  0  0  0  0
 10 13  1  0  0  0  0
 11 14  1  0  0  0  0
 12  9  1  0  0  0  0
 12  5  1  0  0  0  0
 13 11  1  0  0  0  0
 14 20  1  0  0  0  0
 15 17  2  0  0  0  0
 16 10  1  0  0  0  0
 17  1  1  0  0  0  0
 17 25  1  0  0  0  0
 18 22  2  0  0  0  0
 18  7  1  0  0  0  0
 19  5  1  0  0  0  0
 19 10  1  0  0  0  0
 19 13  1  0  0  0  0
 21  6  2  0  0  0  0
 23 26  1  0  0  0  0
 24 23  1  0  0  0  0
 25 27  2  0  0  0  0
 26 30  2  0  0  0  0
 27 30  1  0  0  0  0
 28 25  1  0  0  0  0
 28 23  2  0  0  0  0
 29 28  1  0  0  0  0
 30 32  1  0  0  0  0
 32 31  2  0  0  0  0
M  END
>  <MODEL>
5

>  <REMARK>
 VINA RESULT:     -10.5      2.701      6.583
  Name = 
  2 active torsions:
  status: ('A' for Active; 'I' for Inactive)
    1  A    between atoms: C_15  and  C_26
    2  A    between atoms: C_16  and  C_27
                            x       y       z     vdW  Elec       q    Type
                         _______ _______ _______ _____ _____    ______ ____

>  <TORSDO>
F 2

$$$$
=
 OpenBabel11052414343D

 32 38  0  0  1  0  0  0  0  0999 V2000
  187.6400  177.8460  141.6020 C   0  0  1  0  0  3  0  0  0  0  0  0
  189.7470  177.1320  142.7070 C   0  0  1  0  0  3  0  0  0  0  0  0
  187.1110  178.7120  140.4600 C   0  0  0  0  0  2  0  0  0  0  0  0
  189.1630  177.8030  141.4950 C   0  0  1  0  0  3  0  0  0  0  0  0
  191.2650  177.1420  142.6100 C   0  0  1  0  0  3  0  0  0  0  0  0
  190.0020  177.0970  147.5830 C   0  0  0  0  0  3  0  0  0  0  0  0
  189.3740  177.9800  143.9210 C   0  0  1  0  0  3  0  0  0  0  0  0
  191.8130  176.2090  146.2400 C   0  0  0  0  0  3  0  0  0  0  0  0
  191.2120  176.7180  145.0870 C   0  0  0  0  0  0  0  0  0  0  0  0
  192.0030  177.6330  140.3270 C   0  0  2  0  0  3  0  0  0  0  0  0
  189.5050  177.0330  140.2250 C   0  0  2  0  0  3  0  0  0  0  0  0
  191.8270  176.5160  143.8050 N   0  0  0  0  0  2  0  0  0  0  0  0
  190.9670  176.5650  140.0570 C   0  0  2  0  0  3  0  0  0  0  0  0
  189.0090  177.8260  139.0140 C   0  0  0  0  0  2  0  0  0  0  0  0
  187.9250  178.1840  144.0140 N   0  0  0  0  0  0  0  0  0  0  0  0
  193.2310  177.3560  139.4860 C   0  0  0  0  0  1  0  0  0  0  0  0
  187.1310  178.2460  142.9790 C   0  0  0  0  0  0  0  0  0  0  0  0
  189.9760  177.3980  145.1770 C   0  0  0  0  0  0  0  0  0  0  0  0
  191.8230  176.5040  141.3360 C   0  0  2  0  0  3  0  0  0  0  0  0
  187.4960  178.0740  139.1180 C   0  0  0  0  0  2  0  0  0  0  0  0
  191.2080  176.3980  147.4870 C   0  0  0  0  0  3  0  0  0  0  0  0
  189.3890  177.6020  146.4330 C   0  0  0  0  0  3  0  0  0  0  0  0
  183.7370  178.8160  144.6420 C   0  0  0  0  0  0  0  0  0  0  0  0
  183.1790  179.0480  145.8940 O   0  0  0  0  0  1  0  0  0  0  0  0
  185.6750  178.4330  143.2060 C   0  0  0  0  0  0  0  0  0  0  0  0
  182.8980  178.7360  143.5290 C   0  0  0  0  0  3  0  0  0  0  0  0
  184.8080  178.3610  142.1030 C   0  0  0  0  0  3  0  0  0  0  0  0
  185.1270  178.6670  144.4920 C   0  0  0  0  0  0  0  0  0  0  0  0
  185.9980  178.8070  145.7000 C   0  0  0  0  0  1  0  0  0  0  0  0
  183.4300  178.5110  142.2560 C   0  0  0  0  0  0  0  0  0  0  0  0
  181.3730  178.9180  141.0700 N   0  0  0  0  0  2  0  0  0  0  0  0
  182.5680  178.4260  141.0720 C   0  0  0  0  0  3  0  0  0  0  0  0
  1  3  1  6  0  0  0
  1 17  1  0  0  0  0
  2  7  1  0  0  0  0
  4  1  1  0  0  0  0
  4  2  1  0  0  0  0
  5  2  1  0  0  0  0
  5 12  1  0  0  0  0
  7 15  1  0  0  0  0
  7 18  1  0  0  0  0
  8 21  2  0  0  0  0
  9 18  2  0  0  0  0
  9  8  1  0  0  0  0
 10 19  1  0  0  0  0
 11  4  1  0  0  0  0
 12  9  1  0  0  0  0
 13 11  1  0  0  0  0
 13 10  1  0  0  0  0
 13 19  1  0  0  0  0
 14 20  1  0  0  0  0
 14 11  1  0  0  0  0
 16 10  1  0  0  0  0
 17 25  1  0  0  0  0
 17 15  2  0  0  0  0
 18 22  1  0  0  0  0
 19  5  1  0  0  0  0
 20  3  1  0  0  0  0
 21  6  1  0  0  0  0
 22  6  2  0  0  0  0
 23 24  1  0  0  0  0
 25 28  2  0  0  0  0
 26 23  2  0  0  0  0
 27 30  2  0  0  0  0
 27 25  1  0  0  0  0
 28 23  1  0  0  0  0
 28 29  1  0  0  0  0
 30 26  1  0  0  0  0
 31 32  2  0  0  0  0
 32 30  1  0  0  0  0
M  END
>  <MODEL>
6

>  <REMARK>
 VINA RESULT:     -10.5      1.595      4.885
  Name = 
  2 active torsions:
  status: ('A' for Active; 'I' for Inactive)
    1  A    between atoms: C_15  and  C_26
    2  A    between atoms: C_16  and  C_27
                            x       y       z     vdW  Elec       q    Type
                         _______ _______ _______ _____ _____    ______ ____

>  <TORSDO>
F 2

$$$$
=
 OpenBabel11052414343D

 32 38  0  0  1  0  0  0  0  0999 V2000
  186.0100  178.5000  141.5010 C   0  0  1  0  0  3  0  0  0  0  0  0
  185.4630  178.6550  143.9200 C   0  0  1  0  0  3  0  0  0  0  0  0
  185.4670  177.9730  140.1740 C   0  0  0  0  0  2  0  0  0  0  0  0
  184.9160  178.3410  142.5550 C   0  0  1  0  0  3  0  0  0  0  0  0
  184.3770  178.4430  144.9630 C   0  0  1  0  0  3  0  0  0  0  0  0
  188.9130  177.6480  147.2260 C   0  0  0  0  0  3  0  0  0  0  0  0
  186.5650  177.6390  144.2140 C   0  0  1  0  0  3  0  0  0  0  0  0
  186.7570  178.5190  147.9090 C   0  0  0  0  0  3  0  0  0  0  0  0
  186.2740  178.3520  146.6090 C   0  0  0  0  0  0  0  0  0  0  0  0
  182.1620  178.3310  143.9240 C   0  0  2  0  0  3  0  0  0  0  0  0
  183.7890  179.2970  142.1840 C   0  0  2  0  0  3  0  0  0  0  0  0
  184.9230  178.7210  146.2890 N   0  0  0  0  0  2  0  0  0  0  0  0
  182.7140  179.5710  143.2580 C   0  0  2  0  0  3  0  0  0  0  0  0
  183.1770  178.8510  140.8540 C   0  0  0  0  0  2  0  0  0  0  0  0
  187.5900  177.6350  143.1660 N   0  0  0  0  0  0  0  0  0  0  0  0
  180.7330  178.5920  144.3510 C   0  0  0  0  0  1  0  0  0  0  0  0
  187.3500  177.9040  141.9110 C   0  0  0  0  0  0  0  0  0  0  0  0
  187.1280  177.8560  145.5970 C   0  0  0  0  0  0  0  0  0  0  0  0
  183.0950  179.2420  144.7140 C   0  0  2  0  0  3  0  0  0  0  0  0
  184.2510  178.8110  139.7560 C   0  0  0  0  0  2  0  0  0  0  0  0
  188.0750  178.1680  148.2160 C   0  0  0  0  0  3  0  0  0  0  0  0
  188.4400  177.4860  145.9200 C   0  0  0  0  0  3  0  0  0  0  0  0
  190.8100  177.4700  140.3460 C   0  0  0  0  0  0  0  0  0  0  0  0
  192.0890  177.0330  140.6700 O   0  0  0  0  0  1  0  0  0  0  0  0
  188.4800  177.8890  140.9470 C   0  0  0  0  0  0  0  0  0  0  0  0
  190.5590  177.9380  139.0540 C   0  0  0  0  0  3  0  0  0  0  0  0
  188.2550  178.3510  139.6400 C   0  0  0  0  0  3  0  0  0  0  0  0
  189.7770  177.4400  141.3000 C   0  0  0  0  0  0  0  0  0  0  0  0
  190.0720  176.8880  142.6590 C   0  0  0  0  0  1  0  0  0  0  0  0
  189.2810  178.3770  138.6960 C   0  0  0  0  0  0  0  0  0  0  0  0
  187.8030  179.2330  136.9980 N   0  0  0  0  0  2  0  0  0  0  0  0
  188.9940  178.8690  137.3440 C   0  0  0  0  0  3  0  0  0  0  0  0
  1  3  1  6  0  0  0
  1 17  1  0  0  0  0
  1  4  1  0  0  0  0
  2  7  1  0  0  0  0
  2  5  1  0  0  0  0
  4  2  1  0  0  0  0
  5 12  1  0  0  0  0
  6 21  1  0  0  0  0
  7 18  1  0  0  0  0
  8 21  2  0  0  0  0
  9  8  1  0  0  0  0
 10 16  1  0  0  0  0
 10 19  1  0  0  0  0
 11  4  1  0  0  0  0
 11 13  1  0  0  0  0
 12  9  1  0  0  0  0
 13 10  1  0  0  0  0
 13 19  1  0  0  0  0
 14 11  1  0  0  0  0
 15  7  1  0  0  0  0
 17 15  2  0  0  0  0
 18 22  1  0  0  0  0
 18  9  2  0  0  0  0
 19  5  1  0  0  0  0
 20  3  1  0  0  0  0
 20 14  1  0  0  0  0
 22  6  2  0  0  0  0
 23 24  1  0  0  0  0
 23 28  1  0  0  0  0
 25 28  2  0  0  0  0
 25 17  1  0  0  0  0
 26 23  2  0  0  0  0
 27 25  1  0  0  0  0
 28 29  1  0  0  0  0
 30 26  1  0  0  0  0
 30 27  2  0  0  0  0
 31 32  2  0  0  0  0
 32 30  1  0  0  0  0
M  END
>  <MODEL>
7

>  <REMARK>
 VINA RESULT:     -10.4      2.371      7.208
  Name = 
  2 active torsions:
  status: ('A' for Active; 'I' for Inactive)
    1  A    between atoms: C_15  and  C_26
    2  A    between atoms: C_16  and  C_27
                            x       y       z     vdW  Elec       q    Type
                         _______ _______ _______ _____ _____    ______ ____

>  <TORSDO>
F 2

$$$$
=
 OpenBabel11052414343D

 32 38  0  0  1  0  0  0  0  0999 V2000
  189.3130  177.6440  142.7070 C   0  0  1  0  0  3  0  0  0  0  0  0
  187.3390  178.2940  141.3470 C   0  0  1  0  0  3  0  0  0  0  0  0
  190.5250  176.7140  142.7050 C   0  0  0  0  0  2  0  0  0  0  0  0
  188.6480  177.5560  141.3350 C   0  0  1  0  0  3  0  0  0  0  0  0
  186.6660  178.1550  139.9900 C   0  0  1  0  0  3  0  0  0  0  0  0
  182.9920  178.7890  143.5160 C   0  0  0  0  0  3  0  0  0  0  0  0
  186.4340  177.6020  142.3640 C   0  0  1  0  0  3  0  0  0  0  0  0
  183.2930  179.3950  141.1890 C   0  0  0  0  0  3  0  0  0  0  0  0
  184.5680  178.8240  141.2020 C   0  0  0  0  0  0  0  0  0  0  0  0
  188.2520  177.3860  138.2890 C   0  0  2  0  0  3  0  0  0  0  0  0
  189.6130  178.1680  140.3250 C   0  0  2  0  0  3  0  0  0  0  0  0
  185.3800  178.8490  140.0170 N   0  0  0  0  0  2  0  0  0  0  0  0
  189.0510  178.5000  138.9260 C   0  0  2  0  0  3  0  0  0  0  0  0
  190.8720  177.3010  140.2530 C   0  0  0  0  0  2  0  0  0  0  0  0
  187.0660  177.5240  143.6840 N   0  0  0  0  0  0  0  0  0  0  0  0
  188.3810  177.4810  136.7840 C   0  0  0  0  0  1  0  0  0  0  0  0
  188.3560  177.4230  143.8690 C   0  0  0  0  0  0  0  0  0  0  0  0
  185.0740  178.2550  142.3930 C   0  0  0  0  0  0  0  0  0  0  0  0
  187.5200  178.6190  138.8070 C   0  0  2  0  0  3  0  0  0  0  0  0
  191.5240  177.1850  141.6390 C   0  0  0  0  0  2  0  0  0  0  0  0
  182.5070  179.3780  142.3450 C   0  0  0  0  0  3  0  0  0  0  0  0
  184.2700  178.2230  143.5390 C   0  0  0  0  0  3  0  0  0  0  0  0
  188.6930  177.7940  147.6590 C   0  0  0  0  0  0  0  0  0  0  0  0
  187.9810  178.2530  148.7610 O   0  0  0  0  0  1  0  0  0  0  0  0
  188.8760  177.3740  145.2590 C   0  0  0  0  0  0  0  0  0  0  0  0
  189.9730  177.2690  147.8470 C   0  0  0  0  0  3  0  0  0  0  0  0
  190.1600  176.8490  145.4780 C   0  0  0  0  0  3  0  0  0  0  0  0
  188.1340  177.8500  146.3700 C   0  0  0  0  0  0  0  0  0  0  0  0
  186.7410  178.3740  146.2130 C   0  0  0  0  0  1  0  0  0  0  0  0
  190.7100  176.7930  146.7590 C   0  0  0  0  0  0  0  0  0  0  0  0
  192.5430  176.0020  148.1080 N   0  0  0  0  0  2  0  0  0  0  0  0
  192.0560  176.2350  146.9330 C   0  0  0  0  0  3  0  0  0  0  0  0
  1  3  1  6  0  0  0
  1 17  1  0  0  0  0
  2  7  1  0  0  0  0
  4  2  1  0  0  0  0
  4  1  1  0  0  0  0
  5 12  1  0  0  0  0
  5  2  1  0  0  0  0
  6 22  1  0  0  0  0
  7 18  1  0  0  0  0
  7 15  1  0  0  0  0
  8  9  2  0  0  0  0
  8 21  1  0  0  0  0
  9 18  1  0  0  0  0
 10 19  1  0  0  0  0
 10 13  1  0  0  0  0
 11  4  1  0  0  0  0
 12  9  1  0  0  0  0
 13 11  1  0  0  0  0
 14 11  1  0  0  0  0
 14 20  1  0  0  0  0
 15 17  2  0  0  0  0
 16 10  1  0  0  0  0
 17 25  1  0  0  0  0
 18 22  2  0  0  0  0
 19 13  1  0  0  0  0
 19  5  1  0  0  0  0
 20  3  1  0  0  0  0
 21  6  2  0  0  0  0
 23 26  1  0  0  0  0
 23 24  1  0  0  0  0
 25 27  2  0  0  0  0
 25 28  1  0  0  0  0
 27 30  1  0  0  0  0
 28 23  2  0  0  0  0
 29 28  1  0  0  0  0
 30 32  1  0  0  0  0
 30 26  2  0  0  0  0
 32 31  2  0  0  0  0
M  END
>  <MODEL>
8

>  <REMARK>
 VINA RESULT:     -10.3      2.426      7.435
  Name = 
  2 active torsions:
  status: ('A' for Active; 'I' for Inactive)
    1  A    between atoms: C_15  and  C_26
    2  A    between atoms: C_16  and  C_27
                            x       y       z     vdW  Elec       q    Type
                         _______ _______ _______ _____ _____    ______ ____

>  <TORSDO>
F 2

$$$$
=
 OpenBabel11052414343D

 32 38  0  0  1  0  0  0  0  0999 V2000
  188.4850  177.8730  142.3410 C   0  0  1  0  0  3  0  0  0  0  0  0
  187.0730  178.3940  140.3650 C   0  0  1  0  0  3  0  0  0  0  0  0
  189.6000  176.9420  142.8150 C   0  0  0  0  0  2  0  0  0  0  0  0
  188.2900  177.6530  140.8420 C   0  0  1  0  0  3  0  0  0  0  0  0
  186.8640  178.1240  138.8830 C   0  0  1  0  0  3  0  0  0  0  0  0
  182.2820  179.1200  140.9670 C   0  0  0  0  0  3  0  0  0  0  0  0
  185.8670  177.8100  141.0970 C   0  0  1  0  0  3  0  0  0  0  0  0
  183.3310  179.4910  138.8140 C   0  0  0  0  0  3  0  0  0  0  0  0
  184.5140  178.9190  139.2890 C   0  0  0  0  0  0  0  0  0  0  0  0
  188.8810  177.1840  137.8610 C   0  0  2  0  0  3  0  0  0  0  0  0
  189.5480  178.1570  140.1440 C   0  0  2  0  0  3  0  0  0  0  0  0
  185.6630  178.8230  138.4310 N   0  0  0  0  0  2  0  0  0  0  0  0
  189.4750  178.3520  138.6150 C   0  0  2  0  0  3  0  0  0  0  0  0
  190.7320  177.2820  140.5610 C   0  0  0  0  0  2  0  0  0  0  0  0
  186.0410  177.8600  142.5520 N   0  0  0  0  0  0  0  0  0  0  0  0
  189.4870  177.1290  136.4750 C   0  0  0  0  0  1  0  0  0  0  0  0
  187.1990  177.7720  143.1500 C   0  0  0  0  0  0  0  0  0  0  0  0
  184.5930  178.4690  140.6260 C   0  0  0  0  0  0  0  0  0  0  0  0
  188.0670  178.4650  138.0000 C   0  0  2  0  0  3  0  0  0  0  0  0
  190.9030  177.3010  142.0880 C   0  0  0  0  0  2  0  0  0  0  0  0
  182.2170  179.5920  139.6530 C   0  0  0  0  0  3  0  0  0  0  0  0
  183.4640  178.5540  141.4520 C   0  0  0  0  0  3  0  0  0  0  0  0
  186.2930  178.4580  146.7990 C   0  0  0  0  0  0  0  0  0  0  0  0
  185.2560  178.9680  147.5710 O   0  0  0  0  0  1  0  0  0  0  0  0
  187.2470  177.8590  144.6310 C   0  0  0  0  0  0  0  0  0  0  0  0
  187.4560  178.0130  147.4310 C   0  0  0  0  0  3  0  0  0  0  0  0
  188.4030  177.4160  145.2940 C   0  0  0  0  0  3  0  0  0  0  0  0
  186.1770  178.3840  145.4000 C   0  0  0  0  0  0  0  0  0  0  0  0
  184.8980  178.8260  144.7610 C   0  0  0  0  0  1  0  0  0  0  0  0
  188.5130  177.4890  146.6830 C   0  0  0  0  0  0  0  0  0  0  0  0
  190.7860  176.6920  146.6330 N   0  0  0  0  0  2  0  0  0  0  0  0
  189.7430  177.0130  147.3260 C   0  0  0  0  0  3  0  0  0  0  0  0
  1  3  1  1  0  0  0
  1 17  1  0  0  0  0
  2  4  1  0  0  0  0
  2  7  1  0  0  0  0
  4  1  1  0  0  0  0
  5  2  1  0  0  0  0
  6 22  1  0  0  0  0
  7 15  1  0  0  0  0
  8  9  2  0  0  0  0
  8 21  1  0  0  0  0
  9 18  1  0  0  0  0
 10 19  1  0  0  0  0
 10 13  1  0  0  0  0
 11 14  1  0  0  0  0
 11  4  1  0  0  0  0
 12  5  1  0  0  0  0
 12  9  1  0  0  0  0
 13 11  1  0  0  0  0
 14 20  1  0  0  0  0
 15 17  2  0  0  0  0
 16 10  1  0  0  0  0
 17 25  1  0  0  0  0
 18  7  1  0  0  0  0
 18 22  2  0  0  0  0
 19 13  1  0  0  0  0
 19  5  1  0  0  0  0
 20  3  1  0  0  0  0
 21  6  2  0  0  0  0
 23 26  1  0  0  0  0
 23 24  1  0  0  0  0
 25 27  2  0  0  0  0
 25 28  1  0  0  0  0
 27 30  1  0  0  0  0
 28 23  2  0  0  0  0
 29 28  1  0  0  0  0
 30 32  1  0  0  0  0
 30 26  2  0  0  0  0
 31 32  2  0  0  0  0
M  END
>  <MODEL>
9

>  <REMARK>
 VINA RESULT:     -10.1      2.265      6.908
  Name = 
  2 active torsions:
  status: ('A' for Active; 'I' for Inactive)
    1  A    between atoms: C_15  and  C_26
    2  A    between atoms: C_16  and  C_27
                            x       y       z     vdW  Elec       q    Type
                         _______ _______ _______ _____ _____    ______ ____

>  <TORSDO>
F 2

$$$$
