=
 OpenBabel11052413093D

 31 34  0  0  1  0  0  0  0  0999 V2000
  188.3680  177.7780  143.7680 C   0  0  1  0  0  3  0  0  0  0  0  0
  189.0220  176.8330  144.8010 C   0  0  2  0  0  3  0  0  0  0  0  0
  189.8270  176.6540  147.1790 C   0  0  0  0  0  2  0  0  0  0  0  0
  188.8860  177.3860  146.2310 C   0  0  0  0  0  2  0  0  0  0  0  0
  190.8140  176.7230  142.9710 C   0  0  0  0  0  2  0  0  0  0  0  0
  191.2910  176.9130  146.8090 C   0  0  1  0  0  3  0  0  0  0  0  0
  188.4700  177.2970  142.3740 N   0  0  0  0  0  0  0  0  0  0  0  0
  192.1430  175.7460  147.2620 C   0  0  0  0  0  1  0  0  0  0  0  0
  189.6010  176.3930  142.1150 C   0  0  0  0  0  2  0  0  0  0  0  0
  190.4890  176.4710  144.4360 C   0  0  1  0  0  3  0  0  0  0  0  0
  191.5160  177.1850  145.3160 C   0  0  0  0  0  2  0  0  0  0  0  0
  184.9920  178.4980  145.6810 C   0  0  0  0  0  0  0  0  0  0  0  0
  186.9280  178.0300  144.1030 C   0  0  0  0  0  0  0  0  0  0  0  0
  184.0110  178.5600  144.6260 C   0  0  0  0  0  3  0  0  0  0  0  0
  184.5860  178.6830  146.9590 F   0  0  0  0  0  0  0  0  0  0  0  0
  185.0500  178.1820  142.1230 O   0  0  0  0  0  0  0  0  0  0  0  0
  186.4100  178.2420  145.4270 C   0  0  0  0  0  3  0  0  0  0  0  0
  185.9330  178.1210  143.1790 C   0  0  0  0  0  0  0  0  0  0  0  0
  184.6160  178.3600  143.4190 C   0  0  0  0  0  0  0  0  0  0  0  0
  188.6450  178.4610  141.5140 C   0  0  0  0  0  2  0  0  0  0  0  0
  188.0990  178.1780  140.1240 C   0  0  0  0  0  2  0  0  0  0  0  0
  189.1140  178.5870  139.0740 C   0  0  0  0  0  2  0  0  0  0  0  0
  187.5090  177.3370  137.3130 S   0  0  0  0  0  0  0  0  0  0  0  0
  189.0020  177.7000  137.8870 C   0  0  0  0  0  0  0  0  0  0  0  0
  190.2070  177.2150  137.2760 N   0  0  0  0  0  2  0  0  0  0  0  0
  190.7620  175.4720  138.7470 O   0  0  0  0  0  0  0  0  0  0  0  0
  191.0090  176.0910  137.6800 C   0  0  0  0  0  0  0  0  0  0  0  0
  192.0880  175.6790  136.8970 O   0  0  0  0  0  0  0  0  0  0  0  0
  193.4310  176.0310  137.2000 C   0  0  0  0  0  3  0  0  0  0  0  0
  194.1660  176.4310  135.9350 C   0  0  0  0  0  1  0  0  0  0  0  0
  194.1310  174.8430  137.8240 C   0  0  0  0  0  1  0  0  0  0  0  0
  1 13  1  1  0  0  0
  1  2  1  0  0  0  0
  2  4  1  1  0  0  0
  4  3  1  0  0  0  0
  6  3  1  0  0  0  0
  6  8  1  6  0  0  0
  7  1  1  0  0  0  0
  9  7  1  0  0  0  0
  9  5  1  0  0  0  0
 10  5  1  6  0  0  0
 10  2  1  0  0  0  0
 10 11  1  0  0  0  0
 11  6  1  0  0  0  0
 12 15  1  0  0  0  0
 13 17  2  0  0  0  0
 14 12  2  0  0  0  0
 16 18  1  0  0  0  0
 16 19  1  0  0  0  0
 17 12  1  0  0  0  0
 18 19  2  0  0  0  0
 18 13  1  0  0  0  0
 19 14  1  0  0  0  0
 20  7  1  0  0  0  0
 21 20  1  0  0  0  0
 22 21  1  0  0  0  0
 23 24  2  0  0  0  0
 24 22  1  0  0  0  0
 25 27  1  0  0  0  0
 25 24  1  0  0  0  0
 27 26  2  0  0  0  0
 28 29  1  0  0  0  0
 28 27  1  0  0  0  0
 29 31  1  0  0  0  0
 30 29  1  0  0  0  0
M  END
>  <MODEL>
1

>  <REMARK>
 VINA RESULT:      -9.2      0.000      0.000
  Name = 
  8 active torsions:
  status: ('A' for Active; 'I' for Inactive)
    1  A    between atoms: C_1  and  O_24
    2  A    between atoms: N_3  and  C_22
    3  A    between atoms: C_4  and  C_12
    4  A    between atoms: C_9  and  C_22
    5  A    between atoms: C_9  and  C_23
    6  A    between atoms: C_15  and  N_21
    7  A    between atoms: C_15  and  C_23
    8  A    between atoms: C_19  and  O_24
                            x       y       z     vdW  Elec       q    Type
                         _______ _______ _______ _____ _____    ______ ____

>  <TORSDO>
F 8

$$$$
=
 OpenBabel11052413093D

 31 34  0  0  1  0  0  0  0  0999 V2000
  188.4110  177.7600  143.9750 C   0  0  1  0  0  3  0  0  0  0  0  0
  189.0780  176.7990  144.9840 C   0  0  2  0  0  3  0  0  0  0  0  0
  189.9320  176.5910  147.3430 C   0  0  0  0  0  2  0  0  0  0  0  0
  188.9770  177.3390  146.4220 C   0  0  0  0  0  2  0  0  0  0  0  0
  190.8310  176.6940  143.1150 C   0  0  0  0  0  2  0  0  0  0  0  0
  191.3900  176.8430  146.9440 C   0  0  1  0  0  3  0  0  0  0  0  0
  188.4790  177.2910  142.5740 N   0  0  0  0  0  0  0  0  0  0  0  0
  192.2430  175.6650  147.3680 C   0  0  0  0  0  1  0  0  0  0  0  0
  189.5980  176.3810  142.2820 C   0  0  0  0  0  2  0  0  0  0  0  0
  190.5340  176.4300  144.5850 C   0  0  1  0  0  3  0  0  0  0  0  0
  191.5850  177.1270  145.4500 C   0  0  0  0  0  2  0  0  0  0  0  0
  185.0780  178.4700  145.9670 C   0  0  0  0  0  0  0  0  0  0  0  0
  186.9790  178.0190  144.3420 C   0  0  0  0  0  0  0  0  0  0  0  0
  184.0790  178.5680  144.9320 C   0  0  0  0  0  3  0  0  0  0  0  0
  184.6980  178.6270  147.2560 F   0  0  0  0  0  0  0  0  0  0  0  0
  185.0670  178.2400  142.4010 O   0  0  0  0  0  0  0  0  0  0  0  0
  186.4880  178.2050  145.6810 C   0  0  0  0  0  3  0  0  0  0  0  0
  185.9690  178.1430  143.4390 C   0  0  0  0  0  0  0  0  0  0  0  0
  184.6590  178.3910  143.7090 C   0  0  0  0  0  0  0  0  0  0  0  0
  188.6440  178.4630  141.7220 C   0  0  0  0  0  2  0  0  0  0  0  0
  187.9230  178.2610  140.3990 C   0  0  0  0  0  2  0  0  0  0  0  0
  188.9230  178.2420  139.2590 C   0  0  0  0  0  2  0  0  0  0  0  0
  189.0670  178.0980  136.5760 S   0  0  0  0  0  0  0  0  0  0  0  0
  188.2100  178.3180  137.9580 C   0  0  0  0  0  0  0  0  0  0  0  0
  186.7940  178.5590  137.9620 N   0  0  0  0  0  2  0  0  0  0  0  0
  186.0020  176.4720  137.2380 O   0  0  0  0  0  0  0  0  0  0  0  0
  185.7410  177.6250  137.6670 C   0  0  0  0  0  0  0  0  0  0  0  0
  184.4060  177.9930  137.8400 O   0  0  0  0  0  0  0  0  0  0  0  0
  183.8800  178.3920  139.0990 C   0  0  0  0  0  3  0  0  0  0  0  0
  183.0690  177.2640  139.7080 C   0  0  0  0  0  1  0  0  0  0  0  0
  182.9850  179.5970  138.9080 C   0  0  0  0  0  1  0  0  0  0  0  0
  1 13  1  1  0  0  0
  1  2  1  0  0  0  0
  2  4  1  1  0  0  0
  4  3  1  0  0  0  0
  6  3  1  0  0  0  0
  6  8  1  6  0  0  0
  7  1  1  0  0  0  0
  9  7  1  0  0  0  0
  9  5  1  0  0  0  0
 10  5  1  6  0  0  0
 10  2  1  0  0  0  0
 10 11  1  0  0  0  0
 11  6  1  0  0  0  0
 12 15  1  0  0  0  0
 13 17  2  0  0  0  0
 14 12  2  0  0  0  0
 16 18  1  0  0  0  0
 16 19  1  0  0  0  0
 17 12  1  0  0  0  0
 18 19  2  0  0  0  0
 18 13  1  0  0  0  0
 19 14  1  0  0  0  0
 20  7  1  0  0  0  0
 21 20  1  0  0  0  0
 22 21  1  0  0  0  0
 23 24  2  0  0  0  0
 24 25  1  0  0  0  0
 24 22  1  0  0  0  0
 26 27  2  0  0  0  0
 27 28  1  0  0  0  0
 27 25  1  0  0  0  0
 28 29  1  0  0  0  0
 29 30  1  0  0  0  0
 31 29  1  0  0  0  0
M  END
>  <MODEL>
2

>  <REMARK>
 VINA RESULT:      -9.2      2.585      4.126
  Name = 
  8 active torsions:
  status: ('A' for Active; 'I' for Inactive)
    1  A    between atoms: C_1  and  O_24
    2  A    between atoms: N_3  and  C_22
    3  A    between atoms: C_4  and  C_12
    4  A    between atoms: C_9  and  C_22
    5  A    between atoms: C_9  and  C_23
    6  A    between atoms: C_15  and  N_21
    7  A    between atoms: C_15  and  C_23
    8  A    between atoms: C_19  and  O_24
                            x       y       z     vdW  Elec       q    Type
                         _______ _______ _______ _____ _____    ______ ____

>  <TORSDO>
F 8

$$$$
=
 OpenBabel11052413093D

 31 34  0  0  1  0  0  0  0  0999 V2000
  188.3660  177.8270  143.9440 C   0  0  1  0  0  3  0  0  0  0  0  0
  188.9690  176.8620  144.9900 C   0  0  2  0  0  3  0  0  0  0  0  0
  189.7280  176.6610  147.3800 C   0  0  0  0  0  2  0  0  0  0  0  0
  188.8300  177.4230  146.4160 C   0  0  0  0  0  2  0  0  0  0  0  0
  190.7860  176.6830  143.1890 C   0  0  0  0  0  2  0  0  0  0  0  0
  191.2070  176.8670  147.0340 C   0  0  1  0  0  3  0  0  0  0  0  0
  188.4730  177.3380  142.5530 N   0  0  0  0  0  0  0  0  0  0  0  0
  192.0090  175.6720  147.5040 C   0  0  0  0  0  1  0  0  0  0  0  0
  189.5760  176.3940  142.3140 C   0  0  0  0  0  2  0  0  0  0  0  0
  190.4280  176.4470  144.6490 C   0  0  1  0  0  3  0  0  0  0  0  0
  191.4650  177.1260  145.5440 C   0  0  0  0  0  2  0  0  0  0  0  0
  184.4640  178.3600  143.6860 C   0  0  0  0  0  0  0  0  0  0  0  0
  186.9300  178.1300  144.2550 C   0  0  0  0  0  0  0  0  0  0  0  0
  184.0840  178.7340  145.0260 C   0  0  0  0  0  3  0  0  0  0  0  0
  183.5040  178.2790  142.7360 F   0  0  0  0  0  0  0  0  0  0  0  0
  186.1740  178.8140  146.7910 O   0  0  0  0  0  0  0  0  0  0  0  0
  185.8470  178.0650  143.3110 C   0  0  0  0  0  3  0  0  0  0  0  0
  186.4720  178.4770  145.4880 C   0  0  0  0  0  0  0  0  0  0  0  0
  185.1850  178.7500  145.8330 C   0  0  0  0  0  0  0  0  0  0  0  0
  188.7030  178.4930  141.6930 C   0  0  0  0  0  2  0  0  0  0  0  0
  187.9460  178.3370  140.3840 C   0  0  0  0  0  2  0  0  0  0  0  0
  188.9160  178.3370  139.2190 C   0  0  0  0  0  2  0  0  0  0  0  0
  189.0000  178.1680  136.5350 S   0  0  0  0  0  0  0  0  0  0  0  0
  188.1680  178.3630  137.9350 C   0  0  0  0  0  0  0  0  0  0  0  0
  186.7430  178.5350  137.9740 N   0  0  0  0  0  2  0  0  0  0  0  0
  186.0360  176.4220  137.2360 O   0  0  0  0  0  0  0  0  0  0  0  0
  185.7300  177.5550  137.6870 C   0  0  0  0  0  0  0  0  0  0  0  0
  184.3820  177.8560  137.8940 O   0  0  0  0  0  0  0  0  0  0  0  0
  183.8730  178.2540  139.1610 C   0  0  0  0  0  3  0  0  0  0  0  0
  182.7310  177.3460  139.5740 C   0  0  0  0  0  1  0  0  0  0  0  0
  183.3660  179.6770  139.0720 C   0  0  0  0  0  1  0  0  0  0  0  0
  1 13  1  1  0  0  0
  1  2  1  0  0  0  0
  2  4  1  1  0  0  0
  4  3  1  0  0  0  0
  6  3  1  0  0  0  0
  6  8  1  6  0  0  0
  7  1  1  0  0  0  0
  9  7  1  0  0  0  0
  9  5  1  0  0  0  0
 10  5  1  6  0  0  0
 10  2  1  0  0  0  0
 10 11  1  0  0  0  0
 11  6  1  0  0  0  0
 12 14  1  0  0  0  0
 13 18  2  0  0  0  0
 14 19  2  0  0  0  0
 15 12  1  0  0  0  0
 17 12  2  0  0  0  0
 17 13  1  0  0  0  0
 18 19  1  0  0  0  0
 18 16  1  0  0  0  0
 19 16  1  0  0  0  0
 20  7  1  0  0  0  0
 21 20  1  0  0  0  0
 22 21  1  0  0  0  0
 23 24  2  0  0  0  0
 24 25  1  0  0  0  0
 24 22  1  0  0  0  0
 26 27  2  0  0  0  0
 27 28  1  0  0  0  0
 27 25  1  0  0  0  0
 28 29  1  0  0  0  0
 29 30  1  0  0  0  0
 31 29  1  0  0  0  0
M  END
>  <MODEL>
3

>  <REMARK>
 VINA RESULT:      -9.1      2.815      4.363
  Name = 
  8 active torsions:
  status: ('A' for Active; 'I' for Inactive)
    1  A    between atoms: C_1  and  O_24
    2  A    between atoms: N_3  and  C_22
    3  A    between atoms: C_4  and  C_12
    4  A    between atoms: C_9  and  C_22
    5  A    between atoms: C_9  and  C_23
    6  A    between atoms: C_15  and  N_21
    7  A    between atoms: C_15  and  C_23
    8  A    between atoms: C_19  and  O_24
                            x       y       z     vdW  Elec       q    Type
                         _______ _______ _______ _____ _____    ______ ____

>  <TORSDO>
F 8

$$$$
=
 OpenBabel11052413093D

 31 34  0  0  1  0  0  0  0  0999 V2000
  188.3800  177.7800  143.8780 C   0  0  1  0  0  3  0  0  0  0  0  0
  189.0280  176.8180  144.8990 C   0  0  2  0  0  3  0  0  0  0  0  0
  189.8210  176.6010  147.2770 C   0  0  0  0  0  2  0  0  0  0  0  0
  188.8860  177.3480  146.3360 C   0  0  0  0  0  2  0  0  0  0  0  0
  190.8290  176.7360  143.0760 C   0  0  0  0  0  2  0  0  0  0  0  0
  191.2880  176.8650  146.9180 C   0  0  1  0  0  3  0  0  0  0  0  0
  188.4880  177.3200  142.4770 N   0  0  0  0  0  0  0  0  0  0  0  0
  192.1370  175.6900  147.3580 C   0  0  0  0  0  1  0  0  0  0  0  0
  189.6200  176.4200  142.2080 C   0  0  0  0  0  2  0  0  0  0  0  0
  190.4970  176.4610  144.5350 C   0  0  1  0  0  3  0  0  0  0  0  0
  191.5200  177.1600  145.4310 C   0  0  0  0  0  2  0  0  0  0  0  0
  184.9930  178.4560  145.7870 C   0  0  0  0  0  0  0  0  0  0  0  0
  186.9380  178.0270  144.2100 C   0  0  0  0  0  0  0  0  0  0  0  0
  184.0200  178.5520  144.7270 C   0  0  0  0  0  3  0  0  0  0  0  0
  184.5780  178.6050  147.0670 F   0  0  0  0  0  0  0  0  0  0  0  0
  185.0750  178.2430  142.2210 O   0  0  0  0  0  0  0  0  0  0  0  0
  186.4110  178.2020  145.5360 C   0  0  0  0  0  3  0  0  0  0  0  0
  185.9500  178.1480  143.2810 C   0  0  0  0  0  0  0  0  0  0  0  0
  184.6320  178.3850  143.5190 C   0  0  0  0  0  0  0  0  0  0  0  0
  188.6670  178.4980  141.6360 C   0  0  0  0  0  2  0  0  0  0  0  0
  188.8710  178.0870  140.1870 C   0  0  0  0  0  2  0  0  0  0  0  0
  187.5600  178.1810  139.4310 C   0  0  0  0  0  2  0  0  0  0  0  0
  188.8980  178.6810  137.1510 S   0  0  0  0  0  0  0  0  0  0  0  0
  187.7730  177.8410  138.0000 C   0  0  0  0  0  0  0  0  0  0  0  0
  187.0020  176.7760  137.4240 N   0  0  0  0  0  2  0  0  0  0  0  0
  188.6430  175.1070  137.2470 O   0  0  0  0  0  0  0  0  0  0  0  0
  187.4360  175.4370  137.1250 C   0  0  0  0  0  0  0  0  0  0  0  0
  186.5180  174.4850  136.6790 O   0  0  0  0  0  0  0  0  0  0  0  0
  186.4410  173.1780  137.2340 C   0  0  0  0  0  3  0  0  0  0  0  0
  186.7620  172.1400  136.1760 C   0  0  0  0  0  1  0  0  0  0  0  0
  185.0410  172.9380  137.7560 C   0  0  0  0  0  1  0  0  0  0  0  0
  1 13  1  1  0  0  0
  1  2  1  0  0  0  0
  2  4  1  1  0  0  0
  4  3  1  0  0  0  0
  6  3  1  0  0  0  0
  6  8  1  6  0  0  0
  7  1  1  0  0  0  0
  9  7  1  0  0  0  0
  9  5  1  0  0  0  0
 10  5  1  6  0  0  0
 10  2  1  0  0  0  0
 10 11  1  0  0  0  0
 11  6  1  0  0  0  0
 12 15  1  0  0  0  0
 13 17  2  0  0  0  0
 14 12  2  0  0  0  0
 16 18  1  0  0  0  0
 16 19  1  0  0  0  0
 17 12  1  0  0  0  0
 18 19  2  0  0  0  0
 18 13  1  0  0  0  0
 19 14  1  0  0  0  0
 20  7  1  0  0  0  0
 21 20  1  0  0  0  0
 22 21  1  0  0  0  0
 23 24  2  0  0  0  0
 24 22  1  0  0  0  0
 25 24  1  0  0  0  0
 27 26  2  0  0  0  0
 27 25  1  0  0  0  0
 28 27  1  0  0  0  0
 28 29  1  0  0  0  0
 29 31  1  0  0  0  0
 30 29  1  0  0  0  0
M  END
>  <MODEL>
4

>  <REMARK>
 VINA RESULT:      -9.0      2.369      3.052
  Name = 
  8 active torsions:
  status: ('A' for Active; 'I' for Inactive)
    1  A    between atoms: C_1  and  O_24
    2  A    between atoms: N_3  and  C_22
    3  A    between atoms: C_4  and  C_12
    4  A    between atoms: C_9  and  C_22
    5  A    between atoms: C_9  and  C_23
    6  A    between atoms: C_15  and  N_21
    7  A    between atoms: C_15  and  C_23
    8  A    between atoms: C_19  and  O_24
                            x       y       z     vdW  Elec       q    Type
                         _______ _______ _______ _____ _____    ______ ____

>  <TORSDO>
F 8

$$$$
=
 OpenBabel11052413093D

 31 34  0  0  1  0  0  0  0  0999 V2000
  186.9790  177.7570  143.3920 C   0  0  1  0  0  3  0  0  0  0  0  0
  187.6390  178.2410  144.7020 C   0  0  2  0  0  3  0  0  0  0  0  0
  189.1830  177.5760  146.5740 C   0  0  0  0  0  2  0  0  0  0  0  0
  188.7870  177.3090  145.1290 C   0  0  0  0  0  2  0  0  0  0  0  0
  185.1830  178.6350  145.3250 C   0  0  0  0  0  2  0  0  0  0  0  0
  188.0370  177.2300  147.5310 C   0  0  1  0  0  3  0  0  0  0  0  0
  185.8660  178.6160  142.9340 N   0  0  0  0  0  0  0  0  0  0  0  0
  188.1540  178.0690  148.7870 C   0  0  0  0  0  1  0  0  0  0  0  0
  185.1990  179.3810  143.9990 C   0  0  0  0  0  2  0  0  0  0  0  0
  186.6070  178.4790  145.8400 C   0  0  1  0  0  3  0  0  0  0  0  0
  186.6430  177.3920  146.9140 C   0  0  0  0  0  2  0  0  0  0  0  0
  189.0860  178.2960  140.0990 C   0  0  0  0  0  0  0  0  0  0  0  0
  187.9910  177.6280  142.2930 C   0  0  0  0  0  0  0  0  0  0  0  0
  190.1050  177.2770  140.1770 C   0  0  0  0  0  3  0  0  0  0  0  0
  189.0780  179.1260  139.0300 F   0  0  0  0  0  0  0  0  0  0  0  0
  189.9510  175.7270  142.4270 O   0  0  0  0  0  0  0  0  0  0  0  0
  188.0600  178.4670  141.1270 C   0  0  0  0  0  3  0  0  0  0  0  0
  188.9970  176.7110  142.2830 C   0  0  0  0  0  0  0  0  0  0  0  0
  189.9500  176.5550  141.3250 C   0  0  0  0  0  0  0  0  0  0  0  0
  184.8580  177.7520  142.3300 C   0  0  0  0  0  2  0  0  0  0  0  0
  183.9780  178.5500  141.3820 C   0  0  0  0  0  2  0  0  0  0  0  0
  183.1880  177.6110  140.4910 C   0  0  0  0  0  2  0  0  0  0  0  0
  182.2540  179.3700  138.6810 S   0  0  0  0  0  0  0  0  0  0  0  0
  183.2120  178.1020  139.0880 C   0  0  0  0  0  0  0  0  0  0  0  0
  184.0910  177.4610  138.1500 N   0  0  0  0  0  2  0  0  0  0  0  0
  185.9860  178.8340  138.3310 O   0  0  0  0  0  0  0  0  0  0  0  0
  185.4550  177.8010  137.8470 C   0  0  0  0  0  0  0  0  0  0  0  0
  186.2080  176.9930  136.9950 O   0  0  0  0  0  0  0  0  0  0  0  0
  187.6170  176.8510  137.1220 C   0  0  0  0  0  3  0  0  0  0  0  0
  188.3210  177.6160  136.0180 C   0  0  0  0  0  1  0  0  0  0  0  0
  187.9840  175.3860  137.0220 C   0  0  0  0  0  1  0  0  0  0  0  0
  1 13  1  6  0  0  0
  1  2  1  0  0  0  0
  2  4  1  1  0  0  0
  2 10  1  0  0  0  0
  3  6  1  0  0  0  0
  4  3  1  0  0  0  0
  6  8  1  1  0  0  0
  7  1  1  0  0  0  0
  7  9  1  0  0  0  0
  9  5  1  0  0  0  0
 10  5  1  6  0  0  0
 10 11  1  0  0  0  0
 11  6  1  0  0  0  0
 12 14  2  0  0  0  0
 12 17  1  0  0  0  0
 14 19  1  0  0  0  0
 15 12  1  0  0  0  0
 17 13  2  0  0  0  0
 18 13  1  0  0  0  0
 18 16  1  0  0  0  0
 19 18  2  0  0  0  0
 19 16  1  0  0  0  0
 20  7  1  0  0  0  0
 21 20  1  0  0  0  0
 22 21  1  0  0  0  0
 23 24  2  0  0  0  0
 24 22  1  0  0  0  0
 25 24  1  0  0  0  0
 27 25  1  0  0  0  0
 27 26  2  0  0  0  0
 28 29  1  0  0  0  0
 28 27  1  0  0  0  0
 30 29  1  0  0  0  0
 31 29  1  0  0  0  0
M  END
>  <MODEL>
5

>  <REMARK>
 VINA RESULT:      -8.7      3.455      5.265
  Name = 
  8 active torsions:
  status: ('A' for Active; 'I' for Inactive)
    1  A    between atoms: C_1  and  O_24
    2  A    between atoms: N_3  and  C_22
    3  A    between atoms: C_4  and  C_12
    4  A    between atoms: C_9  and  C_22
    5  A    between atoms: C_9  and  C_23
    6  A    between atoms: C_15  and  N_21
    7  A    between atoms: C_15  and  C_23
    8  A    between atoms: C_19  and  O_24
                            x       y       z     vdW  Elec       q    Type
                         _______ _______ _______ _____ _____    ______ ____

>  <TORSDO>
F 8

$$$$
=
 OpenBabel11052413093D

 31 34  0  0  1  0  0  0  0  0999 V2000
  187.2810  178.0540  143.2890 C   0  0  1  0  0  3  0  0  0  0  0  0
  187.0700  177.5240  144.7250 C   0  0  2  0  0  3  0  0  0  0  0  0
  186.3330  178.1590  147.0460 C   0  0  0  0  0  2  0  0  0  0  0  0
  186.2310  178.5020  145.5660 C   0  0  0  0  0  2  0  0  0  0  0  0
  189.5420  176.9080  144.4330 C   0  0  0  0  0  2  0  0  0  0  0  0
  187.7650  178.3490  147.5570 C   0  0  1  0  0  3  0  0  0  0  0  0
  188.0830  177.1530  142.4340 N   0  0  0  0  0  0  0  0  0  0  0  0
  188.0090  177.4300  148.7360 C   0  0  0  0  0  1  0  0  0  0  0  0
  189.0010  176.2650  143.1650 C   0  0  0  0  0  2  0  0  0  0  0  0
  188.4030  177.1290  145.4190 C   0  0  1  0  0  3  0  0  0  0  0  0
  188.8410  178.1330  146.4850 C   0  0  0  0  0  2  0  0  0  0  0  0
  183.4470  178.6460  142.5620 C   0  0  0  0  0  0  0  0  0  0  0  0
  185.9690  178.3370  142.6190 C   0  0  0  0  0  0  0  0  0  0  0  0
  183.4130  178.9550  141.1540 C   0  0  0  0  0  3  0  0  0  0  0  0
  182.2840  178.6300  143.2530 F   0  0  0  0  0  0  0  0  0  0  0  0
  185.8750  178.9540  139.9580 O   0  0  0  0  0  0  0  0  0  0  0  0
  184.6890  178.3470  143.2750 C   0  0  0  0  0  3  0  0  0  0  0  0
  185.8350  178.6520  141.3020 C   0  0  0  0  0  0  0  0  0  0  0  0
  184.6790  178.9300  140.6430 C   0  0  0  0  0  0  0  0  0  0  0  0
  188.8980  177.9840  141.5550 C   0  0  0  0  0  2  0  0  0  0  0  0
  189.2770  177.2130  140.3010 C   0  0  0  0  0  2  0  0  0  0  0  0
  189.1440  178.1040  139.0820 C   0  0  0  0  0  2  0  0  0  0  0  0
  187.6420  176.7410  137.3150 S   0  0  0  0  0  0  0  0  0  0  0  0
  189.0970  177.2750  137.8500 C   0  0  0  0  0  0  0  0  0  0  0  0
  190.3270  176.9940  137.1630 N   0  0  0  0  0  2  0  0  0  0  0  0
  190.9530  174.9880  138.2080 O   0  0  0  0  0  0  0  0  0  0  0  0
  191.1770  175.8440  137.3150 C   0  0  0  0  0  0  0  0  0  0  0  0
  192.2780  175.6680  136.4750 O   0  0  0  0  0  0  0  0  0  0  0  0
  193.6080  175.9550  136.8880 C   0  0  0  0  0  3  0  0  0  0  0  0
  194.4370  176.4100  135.7030 C   0  0  0  0  0  1  0  0  0  0  0  0
  194.2290  174.7060  137.4770 C   0  0  0  0  0  1  0  0  0  0  0  0
  1 13  1  6  0  0  0
  1  2  1  0  0  0  0
  2 10  1  0  0  0  0
  2  4  1  1  0  0  0
  3  6  1  0  0  0  0
  4  3  1  0  0  0  0
  6  8  1  1  0  0  0
  7  9  1  0  0  0  0
  7  1  1  0  0  0  0
  9  5  1  0  0  0  0
 10  5  1  6  0  0  0
 10 11  1  0  0  0  0
 11  6  1  0  0  0  0
 12 15  1  0  0  0  0
 12 17  1  0  0  0  0
 13 17  2  0  0  0  0
 14 12  2  0  0  0  0
 16 19  1  0  0  0  0
 16 18  1  0  0  0  0
 18 13  1  0  0  0  0
 19 14  1  0  0  0  0
 19 18  2  0  0  0  0
 20  7  1  0  0  0  0
 21 20  1  0  0  0  0
 22 21  1  0  0  0  0
 23 24  2  0  0  0  0
 24 22  1  0  0  0  0
 25 27  1  0  0  0  0
 25 24  1  0  0  0  0
 27 26  2  0  0  0  0
 28 29  1  0  0  0  0
 28 27  1  0  0  0  0
 29 31  1  0  0  0  0
 30 29  1  0  0  0  0
M  END
>  <MODEL>
6

>  <REMARK>
 VINA RESULT:      -8.6      1.563      2.301
  Name = 
  8 active torsions:
  status: ('A' for Active; 'I' for Inactive)
    1  A    between atoms: C_1  and  O_24
    2  A    between atoms: N_3  and  C_22
    3  A    between atoms: C_4  and  C_12
    4  A    between atoms: C_9  and  C_22
    5  A    between atoms: C_9  and  C_23
    6  A    between atoms: C_15  and  N_21
    7  A    between atoms: C_15  and  C_23
    8  A    between atoms: C_19  and  O_24
                            x       y       z     vdW  Elec       q    Type
                         _______ _______ _______ _____ _____    ______ ____

>  <TORSDO>
F 8

$$$$
=
 OpenBabel11052413093D

 31 34  0  0  1  0  0  0  0  0999 V2000
  188.1540  177.9070  143.9550 C   0  0  1  0  0  3  0  0  0  0  0  0
  188.7900  176.9420  144.9800 C   0  0  2  0  0  3  0  0  0  0  0  0
  189.6330  176.7440  147.3430 C   0  0  0  0  0  2  0  0  0  0  0  0
  188.7030  177.5070  146.4090 C   0  0  0  0  0  2  0  0  0  0  0  0
  190.5410  176.7540  143.1170 C   0  0  0  0  0  2  0  0  0  0  0  0
  191.0990  176.9440  146.9430 C   0  0  1  0  0  3  0  0  0  0  0  0
  188.2090  177.4160  142.5620 N   0  0  0  0  0  0  0  0  0  0  0  0
  191.9140  175.7470  147.3870 C   0  0  0  0  0  1  0  0  0  0  0  0
  189.3000  176.4670  142.2850 C   0  0  0  0  0  2  0  0  0  0  0  0
  190.2340  176.5220  144.5890 C   0  0  1  0  0  3  0  0  0  0  0  0
  191.3050  177.1990  145.4450 C   0  0  0  0  0  2  0  0  0  0  0  0
  184.2610  178.5470  143.8140 C   0  0  0  0  0  0  0  0  0  0  0  0
  186.7310  178.2170  144.3160 C   0  0  0  0  0  0  0  0  0  0  0  0
  183.9130  178.8190  145.1870 C   0  0  0  0  0  3  0  0  0  0  0  0
  183.2840  178.5650  142.8780 F   0  0  0  0  0  0  0  0  0  0  0  0
  186.0330  178.7080  146.9130 O   0  0  0  0  0  0  0  0  0  0  0  0
  185.6300  178.2520  143.3910 C   0  0  0  0  0  3  0  0  0  0  0  0
  186.3010  178.4720  145.5820 C   0  0  0  0  0  0  0  0  0  0  0  0
  185.0270  178.7440  145.9720 C   0  0  0  0  0  0  0  0  0  0  0  0
  188.4120  178.5690  141.6920 C   0  0  0  0  0  2  0  0  0  0  0  0
  187.9500  178.2530  140.2790 C   0  0  0  0  0  2  0  0  0  0  0  0
  189.0560  178.5610  139.2880 C   0  0  0  0  0  2  0  0  0  0  0  0
  191.0130  176.7530  138.9140 S   0  0  0  0  0  0  0  0  0  0  0  0
  189.4990  177.3110  138.6180 C   0  0  0  0  0  0  0  0  0  0  0  0
  188.5770  176.6300  137.7530 N   0  0  0  0  0  2  0  0  0  0  0  0
  189.3910  177.2880  135.6530 O   0  0  0  0  0  0  0  0  0  0  0  0
  188.5850  176.5870  136.3160 C   0  0  0  0  0  0  0  0  0  0  0  0
  187.6820  175.7710  135.6320 O   0  0  0  0  0  0  0  0  0  0  0  0
  186.2820  175.8020  135.8820 C   0  0  0  0  0  3  0  0  0  0  0  0
  185.5920  174.6780  135.1340 C   0  0  0  0  0  1  0  0  0  0  0  0
  185.7200  177.1270  135.4140 C   0  0  0  0  0  1  0  0  0  0  0  0
  1 13  1  1  0  0  0
  1  2  1  0  0  0  0
  2  4  1  1  0  0  0
  4  3  1  0  0  0  0
  6  3  1  0  0  0  0
  6  8  1  6  0  0  0
  7  1  1  0  0  0  0
  9  7  1  0  0  0  0
  9  5  1  0  0  0  0
 10  5  1  6  0  0  0
 10  2  1  0  0  0  0
 10 11  1  0  0  0  0
 11  6  1  0  0  0  0
 12 14  1  0  0  0  0
 13 18  2  0  0  0  0
 14 19  2  0  0  0  0
 15 12  1  0  0  0  0
 17 12  2  0  0  0  0
 17 13  1  0  0  0  0
 18 19  1  0  0  0  0
 18 16  1  0  0  0  0
 19 16  1  0  0  0  0
 20  7  1  0  0  0  0
 21 20  1  0  0  0  0
 22 21  1  0  0  0  0
 24 23  2  0  0  0  0
 24 22  1  0  0  0  0
 25 24  1  0  0  0  0
 26 27  2  0  0  0  0
 27 25  1  0  0  0  0
 28 29  1  0  0  0  0
 28 27  1  0  0  0  0
 30 29  1  0  0  0  0
 31 29  1  0  0  0  0
M  END
>  <MODEL>
7

>  <REMARK>
 VINA RESULT:      -8.5      2.356      3.316
  Name = 
  8 active torsions:
  status: ('A' for Active; 'I' for Inactive)
    1  A    between atoms: C_1  and  O_24
    2  A    between atoms: N_3  and  C_22
    3  A    between atoms: C_4  and  C_12
    4  A    between atoms: C_9  and  C_22
    5  A    between atoms: C_9  and  C_23
    6  A    between atoms: C_15  and  N_21
    7  A    between atoms: C_15  and  C_23
    8  A    between atoms: C_19  and  O_24
                            x       y       z     vdW  Elec       q    Type
                         _______ _______ _______ _____ _____    ______ ____

>  <TORSDO>
F 8

$$$$
=
 OpenBabel11052413093D

 31 34  0  0  1  0  0  0  0  0999 V2000
  187.8150  177.6540  143.4940 C   0  0  1  0  0  3  0  0  0  0  0  0
  186.5840  178.5260  143.8280 C   0  0  2  0  0  3  0  0  0  0  0  0
  184.3950  178.5740  145.0680 C   0  0  0  0  0  2  0  0  0  0  0  0
  185.7700  177.9260  144.9870 C   0  0  0  0  0  2  0  0  0  0  0  0
  186.4570  178.6210  141.2690 C   0  0  0  0  0  2  0  0  0  0  0  0
  183.5660  178.2600  143.8180 C   0  0  1  0  0  3  0  0  0  0  0  0
  188.6360  178.1830  142.3840 N   0  0  0  0  0  0  0  0  0  0  0  0
  182.5580  179.3680  143.5870 C   0  0  0  0  0  1  0  0  0  0  0  0
  187.9100  179.0420  141.4350 C   0  0  0  0  0  2  0  0  0  0  0  0
  185.7120  178.8320  142.5790 C   0  0  1  0  0  3  0  0  0  0  0  0
  184.4060  178.0370  142.5550 C   0  0  0  0  0  2  0  0  0  0  0  0
  189.1500  177.4010  147.2000 C   0  0  0  0  0  0  0  0  0  0  0  0
  188.6820  177.4580  144.7020 C   0  0  0  0  0  0  0  0  0  0  0  0
  190.5250  176.9970  147.0380 C   0  0  0  0  0  3  0  0  0  0  0  0
  188.6680  177.5840  148.4510 F   0  0  0  0  0  0  0  0  0  0  0  0
  191.2840  176.6640  144.4300 O   0  0  0  0  0  0  0  0  0  0  0  0
  188.2540  177.6240  146.0650 C   0  0  0  0  0  3  0  0  0  0  0  0
  189.9840  177.0640  144.6540 C   0  0  0  0  0  0  0  0  0  0  0  0
  190.8140  176.8570  145.7110 C   0  0  0  0  0  0  0  0  0  0  0  0
  189.1480  177.0460  141.6280 C   0  0  0  0  0  2  0  0  0  0  0  0
  190.1470  177.5130  140.5830 C   0  0  0  0  0  2  0  0  0  0  0  0
  190.5270  176.3600  139.6740 C   0  0  0  0  0  2  0  0  0  0  0  0
  191.1010  176.3820  137.0450 S   0  0  0  0  0  0  0  0  0  0  0  0
  190.0600  176.6300  138.2890 C   0  0  0  0  0  0  0  0  0  0  0  0
  188.7100  177.0770  138.0930 N   0  0  0  0  0  2  0  0  0  0  0  0
  189.0630  179.3710  137.7470 O   0  0  0  0  0  0  0  0  0  0  0  0
  188.2590  178.4040  137.7700 C   0  0  0  0  0  0  0  0  0  0  0  0
  186.9120  178.6400  137.4910 O   0  0  0  0  0  0  0  0  0  0  0  0
  185.9110  177.6440  137.6540 C   0  0  0  0  0  3  0  0  0  0  0  0
  185.5080  177.0820  136.3050 C   0  0  0  0  0  1  0  0  0  0  0  0
  184.6970  178.2580  138.3180 C   0  0  0  0  0  1  0  0  0  0  0  0
  1  2  1  0  0  0  0
  1 13  1  1  0  0  0
  2  4  1  1  0  0  0
  4  3  1  0  0  0  0
  5  9  1  0  0  0  0
  6  8  1  6  0  0  0
  6  3  1  0  0  0  0
  7  1  1  0  0  0  0
  9  7  1  0  0  0  0
 10  5  1  6  0  0  0
 10  2  1  0  0  0  0
 11 10  1  0  0  0  0
 11  6  1  0  0  0  0
 12 15  1  0  0  0  0
 13 17  1  0  0  0  0
 14 12  1  0  0  0  0
 16 18  1  0  0  0  0
 16 19  1  0  0  0  0
 17 12  2  0  0  0  0
 18 13  2  0  0  0  0
 18 19  1  0  0  0  0
 19 14  2  0  0  0  0
 20  7  1  0  0  0  0
 21 20  1  0  0  0  0
 22 21  1  0  0  0  0
 23 24  2  0  0  0  0
 24 22  1  0  0  0  0
 25 24  1  0  0  0  0
 26 27  2  0  0  0  0
 27 25  1  0  0  0  0
 28 29  1  0  0  0  0
 28 27  1  0  0  0  0
 29 31  1  0  0  0  0
 30 29  1  0  0  0  0
M  END
>  <MODEL>
8

>  <REMARK>
 VINA RESULT:      -8.4      2.442      5.462
  Name = 
  8 active torsions:
  status: ('A' for Active; 'I' for Inactive)
    1  A    between atoms: C_1  and  O_24
    2  A    between atoms: N_3  and  C_22
    3  A    between atoms: C_4  and  C_12
    4  A    between atoms: C_9  and  C_22
    5  A    between atoms: C_9  and  C_23
    6  A    between atoms: C_15  and  N_21
    7  A    between atoms: C_15  and  C_23
    8  A    between atoms: C_19  and  O_24
                            x       y       z     vdW  Elec       q    Type
                         _______ _______ _______ _____ _____    ______ ____

>  <TORSDO>
F 8

$$$$
=
 OpenBabel11052413093D

 31 34  0  0  1  0  0  0  0  0999 V2000
  187.1190  178.0400  143.3290 C   0  0  1  0  0  3  0  0  0  0  0  0
  186.9470  177.5480  144.7830 C   0  0  2  0  0  3  0  0  0  0  0  0
  186.3130  178.2540  147.1140 C   0  0  0  0  0  2  0  0  0  0  0  0
  186.1650  178.5660  145.6310 C   0  0  0  0  0  2  0  0  0  0  0  0
  189.3910  176.8630  144.4170 C   0  0  0  0  0  2  0  0  0  0  0  0
  187.7670  178.4200  147.5680 C   0  0  1  0  0  3  0  0  0  0  0  0
  187.8660  177.1000  142.4670 N   0  0  0  0  0  0  0  0  0  0  0  0
  188.0320  177.5220  148.7590 C   0  0  0  0  0  1  0  0  0  0  0  0
  188.7880  176.2060  143.1840 C   0  0  0  0  0  2  0  0  0  0  0  0
  188.2950  177.1350  145.4370 C   0  0  1  0  0  3  0  0  0  0  0  0
  188.7970  178.1520  146.4640 C   0  0  0  0  0  2  0  0  0  0  0  0
  183.2650  178.6210  142.7090 C   0  0  0  0  0  0  0  0  0  0  0  0
  185.7900  178.3410  142.7000 C   0  0  0  0  0  0  0  0  0  0  0  0
  183.1980  179.0030  141.3200 C   0  0  0  0  0  3  0  0  0  0  0  0
  182.1150  178.5550  143.4210 F   0  0  0  0  0  0  0  0  0  0  0  0
  185.6350  179.0940  140.0770 O   0  0  0  0  0  0  0  0  0  0  0  0
  184.5240  178.3010  143.3800 C   0  0  0  0  0  3  0  0  0  0  0  0
  185.6260  178.7220  141.4040 C   0  0  0  0  0  0  0  0  0  0  0  0
  184.4540  179.0200  140.7830 C   0  0  0  0  0  0  0  0  0  0  0  0
  188.6690  177.8900  141.5400 C   0  0  0  0  0  2  0  0  0  0  0  0
  189.2960  176.9910  140.4860 C   0  0  0  0  0  2  0  0  0  0  0  0
  190.1940  177.8050  139.5760 C   0  0  0  0  0  2  0  0  0  0  0  0
  191.7930  176.2080  138.1160 S   0  0  0  0  0  0  0  0  0  0  0  0
  190.4150  177.0790  138.2980 C   0  0  0  0  0  0  0  0  0  0  0  0
  189.4020  177.1500  137.2830 N   0  0  0  0  0  2  0  0  0  0  0  0
  188.8900  179.4400  137.3480 O   0  0  0  0  0  0  0  0  0  0  0  0
  188.7220  178.3210  136.7990 C   0  0  0  0  0  0  0  0  0  0  0  0
  187.8480  178.2280  135.7140 O   0  0  0  0  0  0  0  0  0  0  0  0
  186.5940  177.5630  135.7980 C   0  0  0  0  0  3  0  0  0  0  0  0
  186.1440  177.4750  137.2430 C   0  0  0  0  0  1  0  0  0  0  0  0
  186.7310  176.1640  135.2360 C   0  0  0  0  0  1  0  0  0  0  0  0
  1 13  1  6  0  0  0
  1  2  1  0  0  0  0
  2 10  1  0  0  0  0
  2  4  1  1  0  0  0
  3  6  1  0  0  0  0
  4  3  1  0  0  0  0
  6  8  1  1  0  0  0
  7  9  1  0  0  0  0
  7  1  1  0  0  0  0
  9  5  1  0  0  0  0
 10  5  1  6  0  0  0
 10 11  1  0  0  0  0
 11  6  1  0  0  0  0
 12 17  1  0  0  0  0
 12 15  1  0  0  0  0
 13 17  2  0  0  0  0
 14 12  2  0  0  0  0
 16 19  1  0  0  0  0
 16 18  1  0  0  0  0
 18 13  1  0  0  0  0
 19 14  1  0  0  0  0
 19 18  2  0  0  0  0
 20  7  1  0  0  0  0
 21 20  1  0  0  0  0
 22 21  1  0  0  0  0
 23 24  2  0  0  0  0
 24 22  1  0  0  0  0
 25 24  1  0  0  0  0
 27 25  1  0  0  0  0
 27 26  2  0  0  0  0
 28 29  1  0  0  0  0
 28 27  1  0  0  0  0
 29 30  1  0  0  0  0
 31 29  1  0  0  0  0
M  END
>  <MODEL>
9

>  <REMARK>
 VINA RESULT:      -8.3      2.529      3.718
  Name = 
  8 active torsions:
  status: ('A' for Active; 'I' for Inactive)
    1  A    between atoms: C_1  and  O_24
    2  A    between atoms: N_3  and  C_22
    3  A    between atoms: C_4  and  C_12
    4  A    between atoms: C_9  and  C_22
    5  A    between atoms: C_9  and  C_23
    6  A    between atoms: C_15  and  N_21
    7  A    between atoms: C_15  and  C_23
    8  A    between atoms: C_19  and  O_24
                            x       y       z     vdW  Elec       q    Type
                         _______ _______ _______ _____ _____    ______ ____

>  <TORSDO>
F 8

$$$$
