=
 OpenBabel11052413073D

 31 35  0  0  1  0  0  0  0  0999 V2000
  190.9550  176.7780  139.9920 C   0  0  1  0  0  3  0  0  0  0  0  0
  189.4170  177.3320  143.9710 C   0  0  1  0  0  3  0  0  0  0  0  0
  185.4570  179.1650  141.0170 O   0  0  0  0  0  0  0  0  0  0  0  0
  184.9290  178.6060  142.0170 C   0  0  0  0  0  0  0  0  0  0  0  0
  190.0510  177.1780  142.5890 C   0  0  2  0  0  3  0  0  0  0  0  0
  191.3190  176.6300  138.5300 C   0  0  0  0  0  1  0  0  0  0  0  0
  187.1110  177.4720  142.7240 C   0  0  0  0  0  0  0  0  0  0  0  0
  192.1680  177.8650  140.8260 S   0  0  0  0  0  0  0  0  0  0  0  0
  187.7890  177.9840  141.7380 N   0  0  0  0  0  0  0  0  0  0  0  0
  187.8690  176.3920  143.9400 S   0  0  0  0  0  0  0  0  0  0  0  0
  185.7160  177.7660  142.8740 N   0  0  0  0  0  2  0  0  0  0  0  0
  191.4980  177.6850  142.5340 C   0  0  0  0  0  2  0  0  0  0  0  0
  189.2340  177.8870  141.5030 C   0  0  2  0  0  3  0  0  0  0  0  0
  189.5270  177.3180  140.1150 C   0  0  0  0  0  2  0  0  0  0  0  0
  180.7500  179.1890  142.8000 C   0  0  0  0  0  0  0  0  0  0  0  0
  182.5680  178.7840  141.2600 C   0  0  0  0  0  3  0  0  0  0  0  0
  183.8720  179.0680  144.6850 F   0  0  0  0  0  0  0  0  0  0  0  0
  179.4280  179.3730  143.0340 F   0  0  0  0  0  0  0  0  0  0  0  0
  181.2050  178.9720  141.4990 C   0  0  0  0  0  3  0  0  0  0  0  0
  183.0240  179.0320  143.6270 C   0  0  0  0  0  0  0  0  0  0  0  0
  183.4930  178.8110  142.3150 C   0  0  0  0  0  0  0  0  0  0  0  0
  181.6580  179.2200  143.8600 C   0  0  0  0  0  3  0  0  0  0  0  0
  190.2960  176.8310  145.0880 C   0  0  0  0  0  0  0  0  0  0  0  0
  192.2080  175.5170  145.8190 C   0  0  0  0  0  3  0  0  0  0  0  0
  191.3680  175.9690  144.8010 C   0  0  0  0  0  3  0  0  0  0  0  0
  191.9900  175.9260  147.1350 C   0  0  0  0  0  3  0  0  0  0  0  0
  190.9270  176.7790  147.4340 C   0  0  0  0  0  3  0  0  0  0  0  0
  190.0590  177.2250  146.4250 C   0  0  0  0  0  0  0  0  0  0  0  0
  188.7420  178.2640  148.2780 C   0  0  0  0  0  2  0  0  0  0  0  0
  187.8020  177.4380  147.4350 C   0  0  0  0  0  2  0  0  0  0  0  0
  188.9510  178.1830  146.7730 C   0  0  0  0  0  3  0  0  0  0  0  0
  1  6  1  6  0  0  0
  1 14  1  0  0  0  0
  1  8  1  0  0  0  0
  2 23  1  1  0  0  0
  3  4  2  0  0  0  0
  4 21  1  0  0  0  0
  4 11  1  0  0  0  0
  5 12  1  1  0  0  0
  5  2  1  0  0  0  0
  7 11  1  0  0  0  0
  7 10  1  0  0  0  0
  8 12  1  0  0  0  0
  9  7  2  0  0  0  0
 10  2  1  0  0  0  0
 13 14  1  6  0  0  0
 13  9  1  0  0  0  0
 13  5  1  0  0  0  0
 15 18  1  0  0  0  0
 15 22  1  0  0  0  0
 16 19  1  0  0  0  0
 16 21  2  0  0  0  0
 19 15  2  0  0  0  0
 20 22  2  0  0  0  0
 20 17  1  0  0  0  0
 21 20  1  0  0  0  0
 23 28  1  0  0  0  0
 24 26  2  0  0  0  0
 25 23  2  0  0  0  0
 25 24  1  0  0  0  0
 26 27  1  0  0  0  0
 28 31  1  0  0  0  0
 28 27  2  0  0  0  0
 30 29  1  0  0  0  0
 31 30  1  0  0  0  0
 31 29  1  0  0  0  0
M  END
>  <MODEL>
1

>  <REMARK>
 VINA RESULT:      -9.9      0.000      0.000
  Name = 
  3 active torsions:
  status: ('A' for Active; 'I' for Inactive)
    1  A    between atoms: C_4  and  C_5
    2  A    between atoms: C_9  and  C_22
    3  A    between atoms: C_30  and  C_31
                            x       y       z     vdW  Elec       q    Type
                         _______ _______ _______ _____ _____    ______ ____

>  <TORSDO>
F 3

$$$$
=
 OpenBabel11052413073D

 31 35  0  0  1  0  0  0  0  0999 V2000
  192.5080  176.3760  136.9950 C   0  0  1  0  0  3  0  0  0  0  0  0
  188.3230  176.6000  137.9630 C   0  0  1  0  0  3  0  0  0  0  0  0
  190.5030  176.0130  142.7240 O   0  0  0  0  0  0  0  0  0  0  0  0
  189.5090  176.7740  142.8760 C   0  0  0  0  0  0  0  0  0  0  0  0
  189.7850  176.4520  137.5450 C   0  0  2  0  0  3  0  0  0  0  0  0
  194.0130  176.3080  136.8450 C   0  0  0  0  0  1  0  0  0  0  0  0
  189.2270  177.1590  140.3630 C   0  0  0  0  0  0  0  0  0  0  0  0
  191.7300  174.9990  136.0730 S   0  0  0  0  0  0  0  0  0  0  0  0
  190.2330  176.3930  140.0520 N   0  0  0  0  0  0  0  0  0  0  0  0
  188.2480  177.9970  139.1140 S   0  0  0  0  0  0  0  0  0  0  0  0
  188.8610  177.3540  141.7350 N   0  0  0  0  0  2  0  0  0  0  0  0
  189.9770  175.4920  136.3650 C   0  0  0  0  0  2  0  0  0  0  0  0
  190.6690  175.9920  138.7110 C   0  0  2  0  0  3  0  0  0  0  0  0
  192.1370  176.3480  138.4800 C   0  0  0  0  0  2  0  0  0  0  0  0
  187.9590  177.6440  146.7830 C   0  0  0  0  0  0  0  0  0  0  0  0
  187.6190  177.2210  144.4280 C   0  0  0  0  0  3  0  0  0  0  0  0
  191.2070  177.0880  145.2150 F   0  0  0  0  0  0  0  0  0  0  0  0
  187.4580  177.9200  148.0110 F   0  0  0  0  0  0  0  0  0  0  0  0
  187.1000  177.5040  145.6930 C   0  0  0  0  0  3  0  0  0  0  0  0
  189.8630  177.2190  145.3430 C   0  0  0  0  0  0  0  0  0  0  0  0
  189.0010  177.0750  144.2340 C   0  0  0  0  0  0  0  0  0  0  0  0
  189.3370  177.5030  146.6070 C   0  0  0  0  0  3  0  0  0  0  0  0
  187.3940  176.8460  136.8010 C   0  0  0  0  0  0  0  0  0  0  0  0
  186.6890  178.2520  134.9460 C   0  0  0  0  0  3  0  0  0  0  0  0
  187.5230  178.0210  136.0410 C   0  0  0  0  0  3  0  0  0  0  0  0
  185.7230  177.3100  134.5940 C   0  0  0  0  0  3  0  0  0  0  0  0
  185.5840  176.1400  135.3420 C   0  0  0  0  0  3  0  0  0  0  0  0
  186.3990  175.9020  136.4600 C   0  0  0  0  0  0  0  0  0  0  0  0
  186.8140  173.4380  136.4220 C   0  0  0  0  0  2  0  0  0  0  0  0
  185.3240  173.6660  136.4720 C   0  0  0  0  0  2  0  0  0  0  0  0
  186.2560  174.6080  137.2180 C   0  0  0  0  0  3  0  0  0  0  0  0
  1  6  1  1  0  0  0
  1 14  1  0  0  0  0
  2 23  1  6  0  0  0
  2 10  1  0  0  0  0
  3  4  2  0  0  0  0
  4 21  1  0  0  0  0
  5 12  1  6  0  0  0
  5  2  1  0  0  0  0
  5 13  1  0  0  0  0
  7 11  1  0  0  0  0
  8 12  1  0  0  0  0
  8  1  1  0  0  0  0
  9  7  2  0  0  0  0
 10  7  1  0  0  0  0
 11  4  1  0  0  0  0
 13 14  1  6  0  0  0
 13  9  1  0  0  0  0
 15 18  1  0  0  0  0
 16 19  1  0  0  0  0
 17 20  1  0  0  0  0
 19 15  2  0  0  0  0
 20 22  2  0  0  0  0
 21 16  2  0  0  0  0
 21 20  1  0  0  0  0
 22 15  1  0  0  0  0
 24 25  1  0  0  0  0
 25 23  2  0  0  0  0
 26 24  2  0  0  0  0
 26 27  1  0  0  0  0
 27 28  2  0  0  0  0
 28 23  1  0  0  0  0
 28 31  1  0  0  0  0
 29 30  1  0  0  0  0
 29 31  1  0  0  0  0
 30 31  1  0  0  0  0
M  END
>  <MODEL>
2

>  <REMARK>
 VINA RESULT:      -9.8      4.074      8.064
  Name = 
  3 active torsions:
  status: ('A' for Active; 'I' for Inactive)
    1  A    between atoms: C_4  and  C_5
    2  A    between atoms: C_9  and  C_22
    3  A    between atoms: C_30  and  C_31
                            x       y       z     vdW  Elec       q    Type
                         _______ _______ _______ _____ _____    ______ ____

>  <TORSDO>
F 3

$$$$
=
 OpenBabel11052413073D

 31 35  0  0  1  0  0  0  0  0999 V2000
  191.3180  176.1950  147.0020 C   0  0  1  0  0  3  0  0  0  0  0  0
  188.2000  177.7440  144.4750 C   0  0  1  0  0  3  0  0  0  0  0  0
  192.1520  177.1110  141.0490 O   0  0  0  0  0  0  0  0  0  0  0  0
  191.0900  176.8450  140.4240 C   0  0  0  0  0  0  0  0  0  0  0  0
  189.2850  177.2690  145.4400 C   0  0  2  0  0  3  0  0  0  0  0  0
  192.5140  175.6180  147.7280 C   0  0  0  0  0  1  0  0  0  0  0  0
  189.6820  176.7370  142.5570 C   0  0  0  0  0  0  0  0  0  0  0  0
  190.8730  177.8150  147.7300 S   0  0  0  0  0  0  0  0  0  0  0  0
  190.6920  177.0110  143.3320 N   0  0  0  0  0  0  0  0  0  0  0  0
  188.0330  176.4610  143.2070 S   0  0  0  0  0  0  0  0  0  0  0  0
  189.8600  176.6530  141.1370 N   0  0  0  0  0  2  0  0  0  0  0  0
  189.3580  178.1090  146.7210 C   0  0  0  0  0  2  0  0  0  0  0  0
  190.6690  177.2490  144.7790 C   0  0  2  0  0  3  0  0  0  0  0  0
  191.6290  176.3090  145.5070 C   0  0  0  0  0  2  0  0  0  0  0  0
  191.1960  176.4580  136.1510 C   0  0  0  0  0  0  0  0  0  0  0  0
  192.1540  176.0340  138.3280 C   0  0  0  0  0  3  0  0  0  0  0  0
  189.0490  177.9680  138.6860 F   0  0  0  0  0  0  0  0  0  0  0  0
  191.2410  176.3290  134.8020 F   0  0  0  0  0  0  0  0  0  0  0  0
  192.2020  175.8990  136.9390 C   0  0  0  0  0  3  0  0  0  0  0  0
  190.0890  177.2880  138.1420 C   0  0  0  0  0  0  0  0  0  0  0  0
  191.1030  176.7270  138.9480 C   0  0  0  0  0  0  0  0  0  0  0  0
  190.1430  177.1510  136.7510 C   0  0  0  0  0  3  0  0  0  0  0  0
  186.8690  177.9750  145.1450 C   0  0  0  0  0  0  0  0  0  0  0  0
  185.5760  178.2940  147.1810 C   0  0  0  0  0  3  0  0  0  0  0  0
  186.7960  178.0540  146.5460 C   0  0  0  0  0  3  0  0  0  0  0  0
  184.4180  178.4660  146.4230 C   0  0  0  0  0  3  0  0  0  0  0  0
  184.4770  178.3870  145.0300 C   0  0  0  0  0  3  0  0  0  0  0  0
  185.6910  178.1230  144.3780 C   0  0  0  0  0  0  0  0  0  0  0  0
  185.3530  179.4450  142.2830 C   0  0  0  0  0  2  0  0  0  0  0  0
  184.3380  178.3280  142.3080 C   0  0  0  0  0  2  0  0  0  0  0  0
  185.7300  178.0930  142.8720 C   0  0  0  0  0  3  0  0  0  0  0  0
  1  6  1  1  0  0  0
  1  8  1  0  0  0  0
  2 23  1  1  0  0  0
  2  5  1  0  0  0  0
  4  3  2  0  0  0  0
  4 11  1  0  0  0  0
  5 12  1  1  0  0  0
  7 10  1  0  0  0  0
  7  9  2  0  0  0  0
  9 13  1  0  0  0  0
 10  2  1  0  0  0  0
 11  7  1  0  0  0  0
 12  8  1  0  0  0  0
 13  5  1  0  0  0  0
 13 14  1  1  0  0  0
 14  1  1  0  0  0  0
 15 22  2  0  0  0  0
 15 19  1  0  0  0  0
 16 21  1  0  0  0  0
 18 15  1  0  0  0  0
 19 16  2  0  0  0  0
 20 17  1  0  0  0  0
 20 21  2  0  0  0  0
 21  4  1  0  0  0  0
 22 20  1  0  0  0  0
 23 25  1  0  0  0  0
 25 24  2  0  0  0  0
 26 24  1  0  0  0  0
 27 26  2  0  0  0  0
 28 27  1  0  0  0  0
 28 23  2  0  0  0  0
 29 30  1  0  0  0  0
 29 31  1  0  0  0  0
 30 31  1  0  0  0  0
 31 28  1  0  0  0  0
M  END
>  <MODEL>
3

>  <REMARK>
 VINA RESULT:      -9.3      3.491      7.473
  Name = 
  3 active torsions:
  status: ('A' for Active; 'I' for Inactive)
    1  A    between atoms: C_4  and  C_5
    2  A    between atoms: C_9  and  C_22
    3  A    between atoms: C_30  and  C_31
                            x       y       z     vdW  Elec       q    Type
                         _______ _______ _______ _____ _____    ______ ____

>  <TORSDO>
F 3

$$$$
=
 OpenBabel11052413073D

 31 35  0  0  1  0  0  0  0  0999 V2000
  188.0160  178.5480  137.0820 C   0  0  1  0  0  3  0  0  0  0  0  0
  184.6960  178.2480  139.8010 C   0  0  1  0  0  3  0  0  0  0  0  0
  188.7560  176.9760  142.9090 O   0  0  0  0  0  0  0  0  0  0  0  0
  187.9400  177.6120  143.6290 C   0  0  0  0  0  0  0  0  0  0  0  0
  185.8200  178.3000  138.7670 C   0  0  2  0  0  3  0  0  0  0  0  0
  189.2980  178.6310  136.2810 C   0  0  0  0  0  1  0  0  0  0  0  0
  186.5760  178.4290  141.6250 C   0  0  0  0  0  0  0  0  0  0  0  0
  186.8980  177.3050  136.3360 S   0  0  0  0  0  0  0  0  0  0  0  0
  187.3330  177.8180  140.7600 N   0  0  0  0  0  0  0  0  0  0  0  0
  185.1520  179.3990  141.1240 S   0  0  0  0  0  0  0  0  0  0  0  0
  186.8580  178.3380  143.0270 N   0  0  0  0  0  2  0  0  0  0  0  0
  185.4610  177.5920  137.4550 C   0  0  0  0  0  2  0  0  0  0  0  0
  187.1250  177.7070  139.3120 C   0  0  2  0  0  3  0  0  0  0  0  0
  188.3420  178.2170  138.5410 C   0  0  0  0  0  2  0  0  0  0  0  0
  188.2940  177.6460  147.9060 C   0  0  0  0  0  0  0  0  0  0  0  0
  186.9970  177.9970  145.8970 C   0  0  0  0  0  3  0  0  0  0  0  0
  190.3830  176.8690  145.0170 F   0  0  0  0  0  0  0  0  0  0  0  0
  188.3940  177.6620  149.2570 F   0  0  0  0  0  0  0  0  0  0  0  0
  187.0980  178.0120  147.2900 C   0  0  0  0  0  3  0  0  0  0  0  0
  189.2960  177.2460  145.7350 C   0  0  0  0  0  0  0  0  0  0  0  0
  188.0890  177.6160  145.1020 C   0  0  0  0  0  0  0  0  0  0  0  0
  189.3910  177.2650  147.1300 C   0  0  0  0  0  3  0  0  0  0  0  0
  183.3510  178.6280  139.2360 C   0  0  0  0  0  0  0  0  0  0  0  0
  181.8920  180.3050  138.2490 C   0  0  0  0  0  3  0  0  0  0  0  0
  183.1220  179.9440  138.8000 C   0  0  0  0  0  3  0  0  0  0  0  0
  180.8790  179.3550  138.1220 C   0  0  0  0  0  3  0  0  0  0  0  0
  181.0930  178.0450  138.5550 C   0  0  0  0  0  3  0  0  0  0  0  0
  182.3160  177.6710  139.1310 C   0  0  0  0  0  0  0  0  0  0  0  0
  182.7600  175.3440  138.3320 C   0  0  0  0  0  2  0  0  0  0  0  0
  181.4090  175.3640  139.0050 C   0  0  0  0  0  2  0  0  0  0  0  0
  182.5320  176.2380  139.5420 C   0  0  0  0  0  3  0  0  0  0  0  0
  1  6  1  6  0  0  0
  1 14  1  0  0  0  0
  2 23  1  6  0  0  0
  2 10  1  0  0  0  0
  3  4  2  0  0  0  0
  4 21  1  0  0  0  0
  5 12  1  6  0  0  0
  5 13  1  0  0  0  0
  5  2  1  0  0  0  0
  7 11  1  0  0  0  0
  8  1  1  0  0  0  0
  8 12  1  0  0  0  0
  9  7  2  0  0  0  0
 10  7  1  0  0  0  0
 11  4  1  0  0  0  0
 13 14  1  6  0  0  0
 13  9  1  0  0  0  0
 15 18  1  0  0  0  0
 16 19  2  0  0  0  0
 17 20  1  0  0  0  0
 19 15  1  0  0  0  0
 20 22  1  0  0  0  0
 21 20  2  0  0  0  0
 21 16  1  0  0  0  0
 22 15  2  0  0  0  0
 24 25  1  0  0  0  0
 25 23  2  0  0  0  0
 26 24  2  0  0  0  0
 26 27  1  0  0  0  0
 27 28  2  0  0  0  0
 28 23  1  0  0  0  0
 28 31  1  0  0  0  0
 29 30  1  0  0  0  0
 29 31  1  0  0  0  0
 30 31  1  0  0  0  0
M  END
>  <MODEL>
4

>  <REMARK>
 VINA RESULT:      -8.7      3.748      8.165
  Name = 
  3 active torsions:
  status: ('A' for Active; 'I' for Inactive)
    1  A    between atoms: C_4  and  C_5
    2  A    between atoms: C_9  and  C_22
    3  A    between atoms: C_30  and  C_31
                            x       y       z     vdW  Elec       q    Type
                         _______ _______ _______ _____ _____    ______ ____

>  <TORSDO>
F 3

$$$$
=
 OpenBabel11052413073D

 31 35  0  0  1  0  0  0  0  0999 V2000
  181.0070  179.2950  136.0800 C   0  0  1  0  0  3  0  0  0  0  0  0
  182.1690  175.6930  138.1250 C   0  0  1  0  0  3  0  0  0  0  0  0
  184.7300  179.3770  140.8880 O   0  0  0  0  0  0  0  0  0  0  0  0
  184.3810  178.4900  141.7120 C   0  0  0  0  0  0  0  0  0  0  0  0
  181.7780  176.9240  137.3100 C   0  0  2  0  0  3  0  0  0  0  0  0
  180.6830  180.6570  135.5060 C   0  0  0  0  0  1  0  0  0  0  0  0
  182.7930  177.3600  140.0550 C   0  0  0  0  0  0  0  0  0  0  0  0
  181.8130  178.2590  134.8040 S   0  0  0  0  0  0  0  0  0  0  0  0
  183.0600  178.2050  139.1010 N   0  0  0  0  0  0  0  0  0  0  0  0
  181.6380  176.0060  139.8290 S   0  0  0  0  0  0  0  0  0  0  0  0
  183.4290  177.4850  141.3330 N   0  0  0  0  0  2  0  0  0  0  0  0
  181.9100  176.7090  135.7980 C   0  0  0  0  0  2  0  0  0  0  0  0
  182.5960  178.1580  137.7100 C   0  0  2  0  0  3  0  0  0  0  0  0
  181.8870  179.4550  137.3230 C   0  0  0  0  0  2  0  0  0  0  0  0
  186.0990  178.4120  145.6440 C   0  0  0  0  0  0  0  0  0  0  0  0
  186.2060  177.8850  143.2880 C   0  0  0  0  0  3  0  0  0  0  0  0
  183.0550  179.6240  144.0370 F   0  0  0  0  0  0  0  0  0  0  0  0
  186.6520  178.3800  146.8810 F   0  0  0  0  0  0  0  0  0  0  0  0
  186.7780  177.8520  144.5610 C   0  0  0  0  0  3  0  0  0  0  0  0
  184.2710  179.0390  144.1800 C   0  0  0  0  0  0  0  0  0  0  0  0
  184.9500  178.4760  143.0790 C   0  0  0  0  0  0  0  0  0  0  0  0
  184.8480  179.0030  145.4540 C   0  0  0  0  0  3  0  0  0  0  0  0
  181.5380  174.4200  137.6200 C   0  0  0  0  0  0  0  0  0  0  0  0
  179.5380  173.1540  137.0600 C   0  0  0  0  0  3  0  0  0  0  0  0
  180.1380  174.3140  137.5510 C   0  0  0  0  0  3  0  0  0  0  0  0
  180.3290  172.0890  136.6270 C   0  0  0  0  0  3  0  0  0  0  0  0
  181.7210  172.1810  136.6940 C   0  0  0  0  0  3  0  0  0  0  0  0
  182.3400  173.3330  137.2060 C   0  0  0  0  0  0  0  0  0  0  0  0
  184.3950  173.6570  135.8200 C   0  0  0  0  0  2  0  0  0  0  0  0
  184.4410  172.2730  136.4190 C   0  0  0  0  0  2  0  0  0  0  0  0
  183.8430  173.4200  137.2190 C   0  0  0  0  0  3  0  0  0  0  0  0
  1  6  1  6  0  0  0
  1 14  1  0  0  0  0
  2 23  1  6  0  0  0
  2 10  1  0  0  0  0
  3  4  2  0  0  0  0
  4 21  1  0  0  0  0
  5 12  1  6  0  0  0
  5 13  1  0  0  0  0
  5  2  1  0  0  0  0
  7 11  1  0  0  0  0
  8 12  1  0  0  0  0
  8  1  1  0  0  0  0
  9  7  2  0  0  0  0
 10  7  1  0  0  0  0
 11  4  1  0  0  0  0
 13 14  1  1  0  0  0
 13  9  1  0  0  0  0
 15 18  1  0  0  0  0
 16 19  1  0  0  0  0
 17 20  1  0  0  0  0
 19 15  2  0  0  0  0
 20 22  2  0  0  0  0
 21 16  2  0  0  0  0
 21 20  1  0  0  0  0
 22 15  1  0  0  0  0
 24 25  2  0  0  0  0
 25 23  1  0  0  0  0
 26 27  2  0  0  0  0
 26 24  1  0  0  0  0
 27 28  1  0  0  0  0
 28 31  1  0  0  0  0
 28 23  2  0  0  0  0
 29 30  1  0  0  0  0
 29 31  1  0  0  0  0
 30 31  1  0  0  0  0
M  END
>  <MODEL>
5

>  <REMARK>
 VINA RESULT:      -8.2      5.393      9.603
  Name = 
  3 active torsions:
  status: ('A' for Active; 'I' for Inactive)
    1  A    between atoms: C_4  and  C_5
    2  A    between atoms: C_9  and  C_22
    3  A    between atoms: C_30  and  C_31
                            x       y       z     vdW  Elec       q    Type
                         _______ _______ _______ _____ _____    ______ ____

>  <TORSDO>
F 3

$$$$
=
 OpenBabel11052413073D

 31 35  0  0  1  0  0  0  0  0999 V2000
  180.4420  181.0190  137.6430 C   0  0  1  0  0  3  0  0  0  0  0  0
  181.8830  176.9990  138.1580 C   0  0  1  0  0  3  0  0  0  0  0  0
  185.3110  179.7540  141.0600 O   0  0  0  0  0  0  0  0  0  0  0  0
  185.1400  178.6560  141.6540 C   0  0  0  0  0  0  0  0  0  0  0  0
  181.3660  178.4080  137.8740 C   0  0  2  0  0  3  0  0  0  0  0  0
  180.0620  182.4830  137.5990 C   0  0  0  0  0  1  0  0  0  0  0  0
  183.1010  178.0340  140.2400 C   0  0  0  0  0  0  0  0  0  0  0  0
  180.8130  180.4240  135.9520 S   0  0  0  0  0  0  0  0  0  0  0  0
  183.1560  179.1280  139.5370 N   0  0  0  0  0  0  0  0  0  0  0  0
  181.8460  176.7830  139.9560 S   0  0  0  0  0  0  0  0  0  0  0  0
  184.0620  177.7890  141.2750 N   0  0  0  0  0  2  0  0  0  0  0  0
  181.0760  178.6510  136.3880 C   0  0  0  0  0  2  0  0  0  0  0  0
  182.3350  179.4850  138.3750 C   0  0  2  0  0  3  0  0  0  0  0  0
  181.6310  180.8240  138.5890 C   0  0  0  0  0  2  0  0  0  0  0  0
  187.7200  177.4900  144.8800 C   0  0  0  0  0  0  0  0  0  0  0  0
  185.5720  178.2410  144.0670 C   0  0  0  0  0  3  0  0  0  0  0  0
  187.9070  177.8590  141.2540 F   0  0  0  0  0  0  0  0  0  0  0  0
  188.5250  177.1250  145.9070 F   0  0  0  0  0  0  0  0  0  0  0  0
  186.3990  177.8640  145.1270 C   0  0  0  0  0  3  0  0  0  0  0  0
  187.3900  177.8700  142.5080 C   0  0  0  0  0  0  0  0  0  0  0  0
  186.0520  178.2500  142.7480 C   0  0  0  0  0  0  0  0  0  0  0  0
  188.2140  177.4940  143.5740 C   0  0  0  0  0  3  0  0  0  0  0  0
  181.0620  175.9190  137.4980 C   0  0  0  0  0  0  0  0  0  0  0  0
  178.9310  174.7780  137.2300 C   0  0  0  0  0  3  0  0  0  0  0  0
  179.7130  175.7540  137.8510 C   0  0  0  0  0  3  0  0  0  0  0  0
  179.4880  173.9610  136.2460 C   0  0  0  0  0  3  0  0  0  0  0  0
  180.8290  174.1130  135.8890 C   0  0  0  0  0  3  0  0  0  0  0  0
  181.6350  175.0750  136.5200 C   0  0  0  0  0  0  0  0  0  0  0  0
  183.1480  176.0230  134.7710 C   0  0  0  0  0  2  0  0  0  0  0  0
  183.2950  174.5210  134.7610 C   0  0  0  0  0  2  0  0  0  0  0  0
  183.0640  175.2470  136.0770 C   0  0  0  0  0  3  0  0  0  0  0  0
  1  6  1  6  0  0  0
  1 14  1  0  0  0  0
  2 23  1  6  0  0  0
  2 10  1  0  0  0  0
  3  4  2  0  0  0  0
  4 21  1  0  0  0  0
  5 12  1  6  0  0  0
  5  2  1  0  0  0  0
  5 13  1  0  0  0  0
  7 11  1  0  0  0  0
  8 12  1  0  0  0  0
  8  1  1  0  0  0  0
  9  7  2  0  0  0  0
 10  7  1  0  0  0  0
 11  4  1  0  0  0  0
 13 14  1  1  0  0  0
 13  9  1  0  0  0  0
 15 19  1  0  0  0  0
 15 18  1  0  0  0  0
 16 19  2  0  0  0  0
 17 20  1  0  0  0  0
 20 21  2  0  0  0  0
 20 22  1  0  0  0  0
 21 16  1  0  0  0  0
 22 15  2  0  0  0  0
 23 25  1  0  0  0  0
 24 25  2  0  0  0  0
 26 24  1  0  0  0  0
 27 26  2  0  0  0  0
 27 28  1  0  0  0  0
 28 23  2  0  0  0  0
 29 31  1  0  0  0  0
 30 29  1  0  0  0  0
 30 31  1  0  0  0  0
 31 28  1  0  0  0  0
M  END
>  <MODEL>
6

>  <REMARK>
 VINA RESULT:      -8.1      5.063     10.146
  Name = 
  3 active torsions:
  status: ('A' for Active; 'I' for Inactive)
    1  A    between atoms: C_4  and  C_5
    2  A    between atoms: C_9  and  C_22
    3  A    between atoms: C_30  and  C_31
                            x       y       z     vdW  Elec       q    Type
                         _______ _______ _______ _____ _____    ______ ____

>  <TORSDO>
F 3

$$$$
=
 OpenBabel11052413073D

 31 35  0  0  1  0  0  0  0  0999 V2000
  183.3040  179.8260  139.4840 C   0  0  1  0  0  3  0  0  0  0  0  0
  186.1940  178.0830  142.1510 C   0  0  1  0  0  3  0  0  0  0  0  0
  188.2590  176.9560  137.4360 O   0  0  0  0  0  0  0  0  0  0  0  0
  189.2300  177.1790  138.2090 C   0  0  0  0  0  0  0  0  0  0  0  0
  185.0940  178.6560  141.2600 C   0  0  2  0  0  3  0  0  0  0  0  0
  182.4140  180.4020  138.4040 C   0  0  0  0  0  1  0  0  0  0  0  0
  187.7440  178.1800  140.0350 C   0  0  0  0  0  0  0  0  0  0  0  0
  182.3630  178.6120  140.4810 S   0  0  0  0  0  0  0  0  0  0  0  0
  186.6500  178.0060  139.3510 N   0  0  0  0  0  0  0  0  0  0  0  0
  187.7340  178.9090  141.6750 S   0  0  0  0  0  0  0  0  0  0  0  0
  189.0100  177.7820  139.4920 N   0  0  0  0  0  2  0  0  0  0  0  0
  183.6840  178.2640  141.7190 C   0  0  0  0  0  2  0  0  0  0  0  0
  185.2730  178.2430  139.7940 C   0  0  2  0  0  3  0  0  0  0  0  0
  184.5470  179.1970  138.8460 C   0  0  0  0  0  2  0  0  0  0  0  0
  193.1950  176.1320  136.9410 C   0  0  0  0  0  0  0  0  0  0  0  0
  190.8450  176.4430  136.4680 C   0  0  0  0  0  3  0  0  0  0  0  0
  191.5200  177.2110  139.9990 F   0  0  0  0  0  0  0  0  0  0  0  0
  194.4420  175.7980  136.5290 F   0  0  0  0  0  0  0  0  0  0  0  0
  192.1300  176.1000  136.0410 C   0  0  0  0  0  3  0  0  0  0  0  0
  191.6910  176.8520  138.7020 C   0  0  0  0  0  0  0  0  0  0  0  0
  190.6070  176.8220  137.7980 C   0  0  0  0  0  0  0  0  0  0  0  0
  192.9750  176.5060  138.2690 C   0  0  0  0  0  3  0  0  0  0  0  0
  185.9370  178.2920  143.6220 C   0  0  0  0  0  0  0  0  0  0  0  0
  184.4950  179.1150  145.3990 C   0  0  0  0  0  3  0  0  0  0  0  0
  184.7610  178.9370  144.0410 C   0  0  0  0  0  3  0  0  0  0  0  0
  185.3970  178.6450  146.3540 C   0  0  0  0  0  3  0  0  0  0  0  0
  186.5710  178.0060  145.9500 C   0  0  0  0  0  3  0  0  0  0  0  0
  186.8640  177.8390  144.5880 C   0  0  0  0  0  0  0  0  0  0  0  0
  189.0060  176.8300  145.3890 C   0  0  0  0  0  2  0  0  0  0  0  0
  189.3390  177.9640  144.4510 C   0  0  0  0  0  2  0  0  0  0  0  0
  188.1150  177.1020  144.1860 C   0  0  0  0  0  3  0  0  0  0  0  0
  1  6  1  6  0  0  0
  1  8  1  0  0  0  0
  2 23  1  1  0  0  0
  3  4  2  0  0  0  0
  4 11  1  0  0  0  0
  5 12  1  1  0  0  0
  5  2  1  0  0  0  0
  7 10  1  0  0  0  0
  8 12  1  0  0  0  0
  9 13  1  0  0  0  0
  9  7  2  0  0  0  0
 10  2  1  0  0  0  0
 11  7  1  0  0  0  0
 13 14  1  6  0  0  0
 13  5  1  0  0  0  0
 14  1  1  0  0  0  0
 15 22  1  0  0  0  0
 16 21  2  0  0  0  0
 18 15  1  0  0  0  0
 19 16  1  0  0  0  0
 19 15  2  0  0  0  0
 20 17  1  0  0  0  0
 21  4  1  0  0  0  0
 21 20  1  0  0  0  0
 22 20  2  0  0  0  0
 23 25  2  0  0  0  0
 23 28  1  0  0  0  0
 24 26  2  0  0  0  0
 25 24  1  0  0  0  0
 27 26  1  0  0  0  0
 28 27  2  0  0  0  0
 30 29  1  0  0  0  0
 31 30  1  0  0  0  0
 31 28  1  0  0  0  0
 31 29  1  0  0  0  0
M  END
>  <MODEL>
7

>  <REMARK>
 VINA RESULT:      -7.9      3.875      7.936
  Name = 
  3 active torsions:
  status: ('A' for Active; 'I' for Inactive)
    1  A    between atoms: C_4  and  C_5
    2  A    between atoms: C_9  and  C_22
    3  A    between atoms: C_30  and  C_31
                            x       y       z     vdW  Elec       q    Type
                         _______ _______ _______ _____ _____    ______ ____

>  <TORSDO>
F 3

$$$$
=
 OpenBabel11052413073D

 31 35  0  0  1  0  0  0  0  0999 V2000
  181.1830  179.9380  140.5130 C   0  0  1  0  0  3  0  0  0  0  0  0
  184.7700  178.2560  142.1880 C   0  0  1  0  0  3  0  0  0  0  0  0
  185.4760  177.3910  137.0390 O   0  0  0  0  0  0  0  0  0  0  0  0
  186.6150  177.6370  137.5200 C   0  0  0  0  0  0  0  0  0  0  0  0
  183.4430  178.8020  141.6650 C   0  0  2  0  0  3  0  0  0  0  0  0
  180.0050  180.5040  139.7500 C   0  0  0  0  0  1  0  0  0  0  0  0
  185.6610  178.5010  139.7310 C   0  0  0  0  0  0  0  0  0  0  0  0
  180.6070  178.6460  141.6750 S   0  0  0  0  0  0  0  0  0  0  0  0
  184.4270  178.2950  139.3710 N   0  0  0  0  0  0  0  0  0  0  0  0
  186.0820  179.1740  141.3410 S   0  0  0  0  0  0  0  0  0  0  0  0
  186.7390  178.1850  138.8410 N   0  0  0  0  0  2  0  0  0  0  0  0
  182.2350  178.3240  142.4800 C   0  0  0  0  0  2  0  0  0  0  0  0
  183.2200  178.4480  140.1900 C   0  0  2  0  0  3  0  0  0  0  0  0
  182.2210  179.3950  139.5270 C   0  0  0  0  0  2  0  0  0  0  0  0
  190.1850  176.8080  135.2880 C   0  0  0  0  0  0  0  0  0  0  0  0
  188.9240  176.7320  137.3480 C   0  0  0  0  0  3  0  0  0  0  0  0
  186.9180  178.3280  134.7130 F   0  0  0  0  0  0  0  0  0  0  0  0
  191.3180  176.5410  134.5940 F   0  0  0  0  0  0  0  0  0  0  0  0
  190.0910  176.4550  136.6340 C   0  0  0  0  0  3  0  0  0  0  0  0
  187.9380  177.7170  135.3640 C   0  0  0  0  0  0  0  0  0  0  0  0
  187.8350  177.3640  136.7270 C   0  0  0  0  0  0  0  0  0  0  0  0
  189.1110  177.4380  134.6550 C   0  0  0  0  0  3  0  0  0  0  0  0
  184.9270  178.4030  143.6810 C   0  0  0  0  0  0  0  0  0  0  0  0
  183.9330  178.8330  145.8590 C   0  0  0  0  0  3  0  0  0  0  0  0
  183.8110  178.7190  144.4730 C   0  0  0  0  0  3  0  0  0  0  0  0
  185.1700  178.6260  146.4690 C   0  0  0  0  0  3  0  0  0  0  0  0
  186.2880  178.3140  145.6920 C   0  0  0  0  0  3  0  0  0  0  0  0
  186.1860  178.2180  144.2950 C   0  0  0  0  0  0  0  0  0  0  0  0
  187.6750  176.3390  143.5880 C   0  0  0  0  0  2  0  0  0  0  0  0
  188.4910  177.3050  144.4100 C   0  0  0  0  0  2  0  0  0  0  0  0
  187.4000  177.8320  143.4910 C   0  0  0  0  0  3  0  0  0  0  0  0
  1  6  1  6  0  0  0
  1  8  1  0  0  0  0
  2 23  1  1  0  0  0
  3  4  2  0  0  0  0
  4 11  1  0  0  0  0
  5  2  1  0  0  0  0
  5 12  1  1  0  0  0
  7 10  1  0  0  0  0
  8 12  1  0  0  0  0
  9  7  2  0  0  0  0
  9 13  1  0  0  0  0
 10  2  1  0  0  0  0
 11  7  1  0  0  0  0
 13 14  1  6  0  0  0
 13  5  1  0  0  0  0
 14  1  1  0  0  0  0
 15 19  1  0  0  0  0
 17 20  1  0  0  0  0
 18 15  1  0  0  0  0
 19 16  2  0  0  0  0
 20 21  2  0  0  0  0
 21 16  1  0  0  0  0
 21  4  1  0  0  0  0
 22 15  2  0  0  0  0
 22 20  1  0  0  0  0
 23 28  2  0  0  0  0
 23 25  1  0  0  0  0
 24 26  1  0  0  0  0
 25 24  2  0  0  0  0
 27 26  2  0  0  0  0
 28 27  1  0  0  0  0
 29 30  1  0  0  0  0
 31 29  1  0  0  0  0
 31 28  1  0  0  0  0
 31 30  1  0  0  0  0
M  END
>  <MODEL>
8

>  <REMARK>
 VINA RESULT:      -7.9      4.208      8.065
  Name = 
  3 active torsions:
  status: ('A' for Active; 'I' for Inactive)
    1  A    between atoms: C_4  and  C_5
    2  A    between atoms: C_9  and  C_22
    3  A    between atoms: C_30  and  C_31
                            x       y       z     vdW  Elec       q    Type
                         _______ _______ _______ _____ _____    ______ ____

>  <TORSDO>
F 3

$$$$
=
 OpenBabel11052413073D

 31 35  0  0  1  0  0  0  0  0999 V2000
  191.0500  177.1280  145.5960 C   0  0  1  0  0  3  0  0  0  0  0  0
  189.6800  177.0950  141.5190 C   0  0  1  0  0  3  0  0  0  0  0  0
  185.1450  177.4440  144.1800 O   0  0  0  0  0  0  0  0  0  0  0  0
  184.9950  178.1200  143.1260 C   0  0  0  0  0  0  0  0  0  0  0  0
  190.2270  177.0260  142.9440 C   0  0  2  0  0  3  0  0  0  0  0  0
  191.3500  177.1820  147.0790 C   0  0  0  0  0  1  0  0  0  0  0  0
  187.4930  178.0940  142.5730 C   0  0  0  0  0  0  0  0  0  0  0  0
  191.6800  175.5600  144.8930 S   0  0  0  0  0  0  0  0  0  0  0  0
  187.7990  177.3890  143.6250 N   0  0  0  0  0  0  0  0  0  0  0  0
  188.7350  178.6360  141.3980 S   0  0  0  0  0  0  0  0  0  0  0  0
  186.1310  178.4580  142.3160 N   0  0  0  0  0  2  0  0  0  0  0  0
  191.2740  175.9220  143.1310 C   0  0  0  0  0  2  0  0  0  0  0  0
  189.1100  176.8340  143.9760 C   0  0  2  0  0  3  0  0  0  0  0  0
  189.5440  177.2890  145.3690 C   0  0  0  0  0  2  0  0  0  0  0  0
  181.1060  179.4170  141.8580 C   0  0  0  0  0  0  0  0  0  0  0  0
  183.3170  178.5840  141.3520 C   0  0  0  0  0  3  0  0  0  0  0  0
  182.9410  179.0030  144.9840 F   0  0  0  0  0  0  0  0  0  0  0  0
  179.8810  179.8240  141.4440 F   0  0  0  0  0  0  0  0  0  0  0  0
  182.0560  179.0030  140.9240 C   0  0  0  0  0  3  0  0  0  0  0  0
  182.6790  178.9930  143.6530 C   0  0  0  0  0  0  0  0  0  0  0  0
  183.6470  178.5730  142.7160 C   0  0  0  0  0  0  0  0  0  0  0  0
  181.4170  179.4130  143.2190 C   0  0  0  0  0  3  0  0  0  0  0  0
  190.7590  177.0740  140.4660 C   0  0  0  0  0  0  0  0  0  0  0  0
  193.0740  177.4640  139.8320 C   0  0  0  0  0  3  0  0  0  0  0  0
  192.0570  177.5030  140.7870 C   0  0  0  0  0  3  0  0  0  0  0  0
  192.8060  176.9910  138.5480 C   0  0  0  0  0  3  0  0  0  0  0  0
  191.5190  176.5650  138.2150 C   0  0  0  0  0  3  0  0  0  0  0  0
  190.4800  176.6190  139.1570 C   0  0  0  0  0  0  0  0  0  0  0  0
  188.9750  175.9610  137.2730 C   0  0  0  0  0  2  0  0  0  0  0  0
  188.3670  177.1530  137.9700 C   0  0  0  0  0  2  0  0  0  0  0  0
  189.1140  176.1060  138.7810 C   0  0  0  0  0  3  0  0  0  0  0  0
  1  6  1  1  0  0  0
  2 23  1  6  0  0  0
  2  5  1  0  0  0  0
  4  3  2  0  0  0  0
  5 12  1  6  0  0  0
  5 13  1  0  0  0  0
  7  9  2  0  0  0  0
  8  1  1  0  0  0  0
  9 13  1  0  0  0  0
 10  2  1  0  0  0  0
 10  7  1  0  0  0  0
 11  7  1  0  0  0  0
 11  4  1  0  0  0  0
 12  8  1  0  0  0  0
 13 14  1  1  0  0  0
 14  1  1  0  0  0  0
 15 22  1  0  0  0  0
 16 21  2  0  0  0  0
 18 15  1  0  0  0  0
 19 16  1  0  0  0  0
 19 15  2  0  0  0  0
 20 17  1  0  0  0  0
 21  4  1  0  0  0  0
 21 20  1  0  0  0  0
 22 20  2  0  0  0  0
 23 25  1  0  0  0  0
 24 25  2  0  0  0  0
 26 24  1  0  0  0  0
 27 26  2  0  0  0  0
 27 28  1  0  0  0  0
 28 23  2  0  0  0  0
 29 30  1  0  0  0  0
 29 31  1  0  0  0  0
 30 31  1  0  0  0  0
 31 28  1  0  0  0  0
M  END
>  <MODEL>
9

>  <REMARK>
 VINA RESULT:      -7.8      1.694      5.052
  Name = 
  3 active torsions:
  status: ('A' for Active; 'I' for Inactive)
    1  A    between atoms: C_4  and  C_5
    2  A    between atoms: C_9  and  C_22
    3  A    between atoms: C_30  and  C_31
                            x       y       z     vdW  Elec       q    Type
                         _______ _______ _______ _____ _____    ______ ____

>  <TORSDO>
F 3

$$$$
