=
 OpenBabel11052415493D

 34 39  0  0  0  0  0  0  0  0999 V2000
  184.0930  178.6670  141.8140 C   0  0  0  0  0  0  0  0  0  0  0  0
  185.3290  178.3480  138.2770 C   0  0  0  0  0  3  0  0  0  0  0  0
  182.8960  178.5240  139.0640 S   0  0  0  0  0  0  0  0  0  0  0  0
  183.5660  178.8680  144.2210 C   0  0  0  0  0  0  0  0  0  0  0  0
  184.5060  178.7440  143.1680 C   0  0  0  0  0  3  0  0  0  0  0  0
  181.7920  178.8340  142.6160 C   0  0  0  0  0  0  0  0  0  0  0  0
  180.5410  178.8500  142.0230 C   0  0  0  0  0  3  0  0  0  0  0  0
  182.1830  178.9090  143.9480 C   0  0  0  0  0  3  0  0  0  0  0  0
  182.0460  178.6700  140.4970 C   0  0  0  0  0  0  0  0  0  0  0  0
  182.7040  178.7210  141.6150 C   0  0  0  0  0  0  0  0  0  0  0  0
  180.7090  178.7450  140.6760 N   0  0  0  0  0  0  0  0  0  0  0  0
  186.7790  178.2630  138.0870 C   0  0  0  0  0  3  0  0  0  0  0  0
  187.7620  178.2790  138.9820 C   0  0  0  0  0  0  0  0  0  0  0  0
  187.5670  178.3920  140.4300 C   0  0  0  0  0  3  0  0  0  0  0  0
  184.5760  178.4650  139.3710 C   0  0  0  0  0  0  0  0  0  0  0  0
  186.4480  178.5000  141.1360 C   0  0  0  0  0  3  0  0  0  0  0  0
  185.0260  178.5410  140.7290 C   0  0  0  0  0  0  0  0  0  0  0  0
  189.1520  178.1750  138.4910 C   0  0  0  0  0  0  0  0  0  0  0  0
  190.0980  177.9230  139.2850 O   0  0  0  0  0  0  0  0  0  0  0  0
  189.4430  178.3610  137.1080 N   0  0  0  0  0  1  0  0  0  0  0  0
  184.0410  178.9150  145.6340 C   0  0  0  0  0  2  0  0  0  0  0  0
  187.3520  177.2980  144.7410 C   0  0  0  0  0  3  0  0  0  0  0  0
  186.1640  178.6000  146.9240 C   0  0  0  0  0  3  0  0  0  0  0  0
  190.1050  177.1620  147.2190 C   0  0  0  0  0  0  0  0  0  0  0  0
  189.3820  176.9930  146.0290 C   0  0  0  0  0  3  0  0  0  0  0  0
  188.0730  177.4690  145.9260 C   0  0  0  0  0  0  0  0  0  0  0  0
  188.1940  178.2920  148.2110 C   0  0  0  0  0  3  0  0  0  0  0  0
  187.4750  178.1250  147.0260 C   0  0  0  0  0  0  0  0  0  0  0  0
  189.5040  177.8130  148.3060 C   0  0  0  0  0  3  0  0  0  0  0  0
  185.4490  178.4310  145.7330 C   0  0  0  0  0  0  0  0  0  0  0  0
  186.0410  177.7770  144.6460 C   0  0  0  0  0  3  0  0  0  0  0  0
  191.4840  176.6570  147.3190 C   0  0  0  0  0  0  0  0  0  0  0  0
  192.2120  176.9800  148.2960 O   0  0  0  0  0  1  0  0  0  0  0  0
  191.9970  175.8190  146.3370 O   0  0  0  0  0  0  0  0  0  0  0  0
  1  5  1  0  0  0  0
  2 15  2  0  0  0  0
  3 15  1  0  0  0  0
  3  9  1  0  0  0  0
  4 21  1  0  0  0  0
  5  4  2  0  0  0  0
  6  8  2  0  0  0  0
  7  6  1  0  0  0  0
  8  4  1  0  0  0  0
  9 11  1  0  0  0  0
  9 10  2  0  0  0  0
 10  1  1  0  0  0  0
 10  6  1  0  0  0  0
 11  7  2  0  0  0  0
 12  2  1  0  0  0  0
 12 13  2  0  0  0  0
 13 14  1  0  0  0  0
 14 16  2  0  0  0  0
 15 17  1  0  0  0  0
 17 16  1  0  0  0  0
 17  1  2  0  0  0  0
 18 13  1  0  0  0  0
 18 19  2  0  0  0  0
 20 18  1  0  0  0  0
 21 30  1  0  0  0  0
 22 26  1  0  0  0  0
 23 28  1  0  0  0  0
 24 32  1  0  0  0  0
 24 29  1  0  0  0  0
 25 24  2  0  0  0  0
 26 25  1  0  0  0  0
 26 28  2  0  0  0  0
 27 29  2  0  0  0  0
 28 27  1  0  0  0  0
 30 23  2  0  0  0  0
 31 22  2  0  0  0  0
 31 30  1  0  0  0  0
 32 33  1  0  0  0  0
 34 32  2  0  0  0  0
M  END
>  <MODEL>
1

>  <REMARK>
 VINA RESULT:     -12.8      0.000      0.000
  Name = 
  4 active torsions:
  status: ('A' for Active; 'I' for Inactive)
    1  A    between atoms: C_3  and  C_25
    2  A    between atoms: C_7  and  C_11
    3  A    between atoms: C_8  and  C_18
    4  A    between atoms: C_18  and  C_30
                            x       y       z     vdW  Elec       q    Type
                         _______ _______ _______ _____ _____    ______ ____

>  <TORSDO>
F 4

$$$$
=
 OpenBabel11052415493D

 34 39  0  0  0  0  0  0  0  0999 V2000
  183.9870  178.6500  141.8380 C   0  0  0  0  0  0  0  0  0  0  0  0
  185.3680  178.3060  138.3580 C   0  0  0  0  0  3  0  0  0  0  0  0
  182.9030  178.4540  139.0450 S   0  0  0  0  0  0  0  0  0  0  0  0
  183.3620  178.8730  144.2190 C   0  0  0  0  0  0  0  0  0  0  0  0
  184.3440  178.7500  143.2060 C   0  0  0  0  0  3  0  0  0  0  0  0
  181.6540  178.7910  142.5450 C   0  0  0  0  0  0  0  0  0  0  0  0
  180.4270  178.7800  141.9030 C   0  0  0  0  0  3  0  0  0  0  0  0
  181.9900  178.8890  143.8910 C   0  0  0  0  0  3  0  0  0  0  0  0
  181.9950  178.6050  140.4410 C   0  0  0  0  0  0  0  0  0  0  0  0
  182.6060  178.6790  141.5830 C   0  0  0  0  0  0  0  0  0  0  0  0
  180.6500  178.6610  140.5650 N   0  0  0  0  0  0  0  0  0  0  0  0
  186.8250  178.2410  138.2260 C   0  0  0  0  0  3  0  0  0  0  0  0
  187.7720  178.2830  139.1600 C   0  0  0  0  0  0  0  0  0  0  0  0
  187.5170  178.4120  140.5970 C   0  0  0  0  0  3  0  0  0  0  0  0
  184.5700  178.4250  139.4190 C   0  0  0  0  0  0  0  0  0  0  0  0
  186.3690  178.5110  141.2560 C   0  0  0  0  0  3  0  0  0  0  0  0
  184.9640  178.5250  140.7930 C   0  0  0  0  0  0  0  0  0  0  0  0
  189.1810  178.1950  138.7250 C   0  0  0  0  0  0  0  0  0  0  0  0
  189.5180  178.5420  137.5610 O   0  0  0  0  0  0  0  0  0  0  0  0
  190.1820  177.7130  139.6190 N   0  0  0  0  0  1  0  0  0  0  0  0
  183.7790  178.9450  145.6490 C   0  0  0  0  0  2  0  0  0  0  0  0
  187.2360  178.4710  147.1310 C   0  0  0  0  0  3  0  0  0  0  0  0
  185.8700  177.9040  144.7470 C   0  0  0  0  0  3  0  0  0  0  0  0
  189.9160  176.8360  145.1610 C   0  0  0  0  0  0  0  0  0  0  0  0
  189.2460  177.4750  146.2150 C   0  0  0  0  0  3  0  0  0  0  0  0
  187.9020  177.8320  146.0820 C   0  0  0  0  0  0  0  0  0  0  0  0
  187.8810  176.9110  143.8310 C   0  0  0  0  0  3  0  0  0  0  0  0
  187.2140  177.5460  144.8810 C   0  0  0  0  0  0  0  0  0  0  0  0
  189.2260  176.5570  143.9720 C   0  0  0  0  0  3  0  0  0  0  0  0
  185.2070  178.5400  145.8030 C   0  0  0  0  0  0  0  0  0  0  0  0
  185.8910  178.8260  146.9900 C   0  0  0  0  0  3  0  0  0  0  0  0
  191.3320  176.4630  145.3090 C   0  0  0  0  0  0  0  0  0  0  0  0
  191.9800  176.8080  146.3330 O   0  0  0  0  0  1  0  0  0  0  0  0
  191.9690  175.7230  144.3190 O   0  0  0  0  0  0  0  0  0  0  0  0
  1  5  1  0  0  0  0
  2 15  2  0  0  0  0
  3 15  1  0  0  0  0
  3  9  1  0  0  0  0
  4 21  1  0  0  0  0
  5  4  2  0  0  0  0
  6  8  2  0  0  0  0
  7  6  1  0  0  0  0
  8  4  1  0  0  0  0
  9 11  1  0  0  0  0
  9 10  2  0  0  0  0
 10  1  1  0  0  0  0
 10  6  1  0  0  0  0
 11  7  2  0  0  0  0
 12  2  1  0  0  0  0
 12 13  2  0  0  0  0
 13 14  1  0  0  0  0
 14 16  2  0  0  0  0
 15 17  1  0  0  0  0
 17 16  1  0  0  0  0
 17  1  2  0  0  0  0
 18 13  1  0  0  0  0
 18 20  1  0  0  0  0
 19 18  2  0  0  0  0
 21 30  1  0  0  0  0
 23 28  2  0  0  0  0
 23 30  1  0  0  0  0
 24 32  1  0  0  0  0
 24 25  2  0  0  0  0
 26 25  1  0  0  0  0
 26 22  2  0  0  0  0
 27 29  2  0  0  0  0
 27 28  1  0  0  0  0
 28 26  1  0  0  0  0
 29 24  1  0  0  0  0
 30 31  2  0  0  0  0
 31 22  1  0  0  0  0
 32 33  1  0  0  0  0
 34 32  2  0  0  0  0
M  END
>  <MODEL>
2

>  <REMARK>
 VINA RESULT:     -12.5      0.939      1.664
  Name = 
  4 active torsions:
  status: ('A' for Active; 'I' for Inactive)
    1  A    between atoms: C_3  and  C_25
    2  A    between atoms: C_7  and  C_11
    3  A    between atoms: C_8  and  C_18
    4  A    between atoms: C_18  and  C_30
                            x       y       z     vdW  Elec       q    Type
                         _______ _______ _______ _____ _____    ______ ____

>  <TORSDO>
F 4

$$$$
=
 OpenBabel11052415493D

 34 39  0  0  0  0  0  0  0  0999 V2000
  188.7010  177.7450  144.2290 C   0  0  0  0  0  0  0  0  0  0  0  0
  191.0560  177.0240  141.3880 C   0  0  0  0  0  3  0  0  0  0  0  0
  191.4360  176.5570  143.8780 S   0  0  0  0  0  0  0  0  0  0  0  0
  186.9670  178.3280  145.8910 C   0  0  0  0  0  0  0  0  0  0  0  0
  187.4290  178.2820  144.5530 C   0  0  0  0  0  3  0  0  0  0  0  0
  189.0150  177.3240  146.6130 C   0  0  0  0  0  0  0  0  0  0  0  0
  190.0210  176.7800  147.3940 C   0  0  0  0  0  3  0  0  0  0  0  0
  187.7700  177.8470  146.9460 C   0  0  0  0  0  3  0  0  0  0  0  0
  190.6280  176.7470  145.3300 C   0  0  0  0  0  0  0  0  0  0  0  0
  189.4440  177.2790  145.3250 C   0  0  0  0  0  0  0  0  0  0  0  0
  191.0440  176.4150  146.5720 N   0  0  0  0  0  0  0  0  0  0  0  0
  190.6050  177.3890  140.0430 C   0  0  0  0  0  3  0  0  0  0  0  0
  189.4660  177.9510  139.6450 C   0  0  0  0  0  0  0  0  0  0  0  0
  188.3720  178.3380  140.5400 C   0  0  0  0  0  3  0  0  0  0  0  0
  190.4830  177.1390  142.5850 C   0  0  0  0  0  0  0  0  0  0  0  0
  188.2670  178.2270  141.8590 C   0  0  0  0  0  3  0  0  0  0  0  0
  189.1920  177.6860  142.8800 C   0  0  0  0  0  0  0  0  0  0  0  0
  189.2830  178.2050  138.2010 C   0  0  0  0  0  0  0  0  0  0  0  0
  189.5460  177.3110  137.3520 O   0  0  0  0  0  0  0  0  0  0  0  0
  188.8070  179.4700  137.7460 N   0  0  0  0  0  1  0  0  0  0  0  0
  185.6350  178.9280  146.1920 C   0  0  0  0  0  2  0  0  0  0  0  0
  182.5480  178.6320  144.0120 C   0  0  0  0  0  3  0  0  0  0  0  0
  185.3120  179.0080  143.7110 C   0  0  0  0  0  3  0  0  0  0  0  0
  182.8300  178.8150  140.3210 C   0  0  0  0  0  0  0  0  0  0  0  0
  182.2780  178.6930  141.6040 C   0  0  0  0  0  3  0  0  0  0  0  0
  183.0980  178.7570  142.7330 C   0  0  0  0  0  0  0  0  0  0  0  0
  185.0410  179.0670  141.3030 C   0  0  0  0  0  3  0  0  0  0  0  0
  184.4910  178.9460  142.5810 C   0  0  0  0  0  0  0  0  0  0  0  0
  184.2130  179.0020  140.1790 C   0  0  0  0  0  3  0  0  0  0  0  0
  184.7540  178.8880  144.9880 C   0  0  0  0  0  0  0  0  0  0  0  0
  183.3760  178.6950  145.1370 C   0  0  0  0  0  3  0  0  0  0  0  0
  181.9600  178.7480  139.1360 C   0  0  0  0  0  0  0  0  0  0  0  0
  180.7410  179.0530  139.2220 O   0  0  0  0  0  1  0  0  0  0  0  0
  182.4760  178.3460  137.9100 O   0  0  0  0  0  0  0  0  0  0  0  0
  1  5  1  0  0  0  0
  1 10  1  0  0  0  0
  2 15  2  0  0  0  0
  3  9  1  0  0  0  0
  4 21  1  0  0  0  0
  4  8  1  0  0  0  0
  5  4  2  0  0  0  0
  6  8  2  0  0  0  0
  6  7  1  0  0  0  0
  9 11  1  0  0  0  0
 10  9  2  0  0  0  0
 10  6  1  0  0  0  0
 11  7  2  0  0  0  0
 12  2  1  0  0  0  0
 13 12  2  0  0  0  0
 13 14  1  0  0  0  0
 14 16  2  0  0  0  0
 15 17  1  0  0  0  0
 15  3  1  0  0  0  0
 16 17  1  0  0  0  0
 17  1  2  0  0  0  0
 18 13  1  0  0  0  0
 19 18  2  0  0  0  0
 20 18  1  0  0  0  0
 22 31  1  0  0  0  0
 23 30  1  0  0  0  0
 24 25  2  0  0  0  0
 25 26  1  0  0  0  0
 26 22  2  0  0  0  0
 27 28  1  0  0  0  0
 28 26  1  0  0  0  0
 28 23  2  0  0  0  0
 29 24  1  0  0  0  0
 29 27  2  0  0  0  0
 30 31  2  0  0  0  0
 30 21  1  0  0  0  0
 32 33  1  0  0  0  0
 32 24  1  0  0  0  0
 34 32  2  0  0  0  0
M  END
>  <MODEL>
3

>  <REMARK>
 VINA RESULT:     -12.3      3.588      7.352
  Name = 
  4 active torsions:
  status: ('A' for Active; 'I' for Inactive)
    1  A    between atoms: C_3  and  C_25
    2  A    between atoms: C_7  and  C_11
    3  A    between atoms: C_8  and  C_18
    4  A    between atoms: C_18  and  C_30
                            x       y       z     vdW  Elec       q    Type
                         _______ _______ _______ _____ _____    ______ ____

>  <TORSDO>
F 4

$$$$
=
 OpenBabel11052415493D

 34 39  0  0  0  0  0  0  0  0999 V2000
  185.5220  178.5110  141.6910 C   0  0  0  0  0  0  0  0  0  0  0  0
  187.8550  178.0380  138.7810 C   0  0  0  0  0  3  0  0  0  0  0  0
  185.3280  178.4550  138.6950 S   0  0  0  0  0  0  0  0  0  0  0  0
  184.2260  178.7850  143.7790 C   0  0  0  0  0  0  0  0  0  0  0  0
  185.4530  178.5610  143.1060 C   0  0  0  0  0  3  0  0  0  0  0  0
  183.1120  178.9060  141.6640 C   0  0  0  0  0  0  0  0  0  0  0  0
  182.1460  179.0350  140.6810 C   0  0  0  0  0  3  0  0  0  0  0  0
  183.0300  178.9570  143.0520 C   0  0  0  0  0  3  0  0  0  0  0  0
  184.0580  178.6960  139.7560 C   0  0  0  0  0  0  0  0  0  0  0  0
  184.2950  178.6950  141.0320 C   0  0  0  0  0  0  0  0  0  0  0  0
  182.7530  178.9010  139.4700 N   0  0  0  0  0  0  0  0  0  0  0  0
  189.2690  177.8120  139.0940 C   0  0  0  0  0  3  0  0  0  0  0  0
  189.8840  177.7430  140.2720 C   0  0  0  0  0  0  0  0  0  0  0  0
  189.2180  177.8890  141.5680 C   0  0  0  0  0  3  0  0  0  0  0  0
  186.7890  178.2380  139.5550 C   0  0  0  0  0  0  0  0  0  0  0  0
  187.9400  178.1110  141.8530 C   0  0  0  0  0  3  0  0  0  0  0  0
  186.7530  178.2850  140.9870 C   0  0  0  0  0  0  0  0  0  0  0  0
  191.3420  177.5010  140.2810 C   0  0  0  0  0  0  0  0  0  0  0  0
  192.0420  177.8310  141.2760 O   0  0  0  0  0  0  0  0  0  0  0  0
  191.9790  176.8920  139.1600 N   0  0  0  0  0  1  0  0  0  0  0  0
  184.1920  178.8010  145.2690 C   0  0  0  0  0  2  0  0  0  0  0  0
  187.0570  178.3230  147.7060 C   0  0  0  0  0  3  0  0  0  0  0  0
  186.4890  177.8410  145.0010 C   0  0  0  0  0  3  0  0  0  0  0  0
  190.2550  176.8280  146.5760 C   0  0  0  0  0  0  0  0  0  0  0  0
  189.2800  177.4070  147.4010 C   0  0  0  0  0  3  0  0  0  0  0  0
  188.0270  177.7450  146.8830 C   0  0  0  0  0  0  0  0  0  0  0  0
  188.7130  176.9270  144.6980 C   0  0  0  0  0  3  0  0  0  0  0  0
  187.7420  177.5020  145.5200 C   0  0  0  0  0  0  0  0  0  0  0  0
  189.9630  176.5920  145.2240 C   0  0  0  0  0  3  0  0  0  0  0  0
  185.5200  178.4150  145.8310 C   0  0  0  0  0  0  0  0  0  0  0  0
  185.8060  178.6600  147.1790 C   0  0  0  0  0  3  0  0  0  0  0  0
  191.5720  176.4750  147.1290 C   0  0  0  0  0  0  0  0  0  0  0  0
  192.0500  177.1190  148.1010 O   0  0  0  0  0  1  0  0  0  0  0  0
  192.3020  175.4250  146.5850 O   0  0  0  0  0  0  0  0  0  0  0  0
  1  5  1  0  0  0  0
  2 12  1  0  0  0  0
  2 15  2  0  0  0  0
  3 15  1  0  0  0  0
  3  9  1  0  0  0  0
  4 21  1  0  0  0  0
  5  4  2  0  0  0  0
  6  8  2  0  0  0  0
  7  6  1  0  0  0  0
  8  4  1  0  0  0  0
  9 10  2  0  0  0  0
 10  6  1  0  0  0  0
 10  1  1  0  0  0  0
 11  9  1  0  0  0  0
 11  7  2  0  0  0  0
 12 13  2  0  0  0  0
 13 18  1  0  0  0  0
 13 14  1  0  0  0  0
 14 16  2  0  0  0  0
 15 17  1  0  0  0  0
 17  1  2  0  0  0  0
 17 16  1  0  0  0  0
 18 19  2  0  0  0  0
 20 18  1  0  0  0  0
 21 30  1  0  0  0  0
 23 28  2  0  0  0  0
 23 30  1  0  0  0  0
 24 32  1  0  0  0  0
 24 25  2  0  0  0  0
 26 25  1  0  0  0  0
 26 22  2  0  0  0  0
 27 29  2  0  0  0  0
 27 28  1  0  0  0  0
 28 26  1  0  0  0  0
 29 24  1  0  0  0  0
 30 31  2  0  0  0  0
 31 22  1  0  0  0  0
 32 33  1  0  0  0  0
 34 32  2  0  0  0  0
M  END
>  <MODEL>
4

>  <REMARK>
 VINA RESULT:     -11.9      1.391      2.104
  Name = 
  4 active torsions:
  status: ('A' for Active; 'I' for Inactive)
    1  A    between atoms: C_3  and  C_25
    2  A    between atoms: C_7  and  C_11
    3  A    between atoms: C_8  and  C_18
    4  A    between atoms: C_18  and  C_30
                            x       y       z     vdW  Elec       q    Type
                         _______ _______ _______ _____ _____    ______ ____

>  <TORSDO>
F 4

$$$$
=
 OpenBabel11052415493D

 34 39  0  0  0  0  0  0  0  0999 V2000
  186.3710  178.2140  143.9220 C   0  0  0  0  0  0  0  0  0  0  0  0
  187.8600  177.5180  147.3050 C   0  0  0  0  0  3  0  0  0  0  0  0
  185.4700  178.2850  146.7860 S   0  0  0  0  0  0  0  0  0  0  0  0
  185.6590  178.6000  141.5870 C   0  0  0  0  0  0  0  0  0  0  0  0
  186.6480  178.2310  142.5320 C   0  0  0  0  0  3  0  0  0  0  0  0
  184.1080  178.9490  143.3750 C   0  0  0  0  0  0  0  0  0  0  0  0
  182.9670  179.2480  144.1000 C   0  0  0  0  0  3  0  0  0  0  0  0
  184.3650  178.9710  142.0090 C   0  0  0  0  0  3  0  0  0  0  0  0
  184.5340  178.6660  145.4530 C   0  0  0  0  0  0  0  0  0  0  0  0
  185.0630  178.5880  144.2710 C   0  0  0  0  0  0  0  0  0  0  0  0
  183.2440  179.0670  145.4210 N   0  0  0  0  0  0  0  0  0  0  0  0
  189.2600  177.0880  147.3370 C   0  0  0  0  0  3  0  0  0  0  0  0
  190.1200  176.8980  146.3400 C   0  0  0  0  0  0  0  0  0  0  0  0
  189.8080  177.0970  144.9230 C   0  0  0  0  0  3  0  0  0  0  0  0
  187.0460  177.8380  146.2990 C   0  0  0  0  0  0  0  0  0  0  0  0
  188.6780  177.4820  144.3420 C   0  0  0  0  0  3  0  0  0  0  0  0
  187.3560  177.8440  144.9000 C   0  0  0  0  0  0  0  0  0  0  0  0
  191.4890  176.4560  146.6790 C   0  0  0  0  0  0  0  0  0  0  0  0
  192.1610  175.7650  145.8660 O   0  0  0  0  0  0  0  0  0  0  0  0
  192.0700  176.8040  147.9330 N   0  0  0  0  0  1  0  0  0  0  0  0
  186.0000  178.6340  140.1350 C   0  0  0  0  0  2  0  0  0  0  0  0
  189.6800  177.9150  140.6940 C   0  0  0  0  0  3  0  0  0  0  0  0
  187.7450  177.5680  138.6920 C   0  0  0  0  0  3  0  0  0  0  0  0
  191.7030  176.3030  138.0400 C   0  0  0  0  0  0  0  0  0  0  0  0
  191.3470  176.8990  139.2590 C   0  0  0  0  0  3  0  0  0  0  0  0
  190.0340  177.3200  139.4800 C   0  0  0  0  0  0  0  0  0  0  0  0
  189.4140  176.5540  137.2570 C   0  0  0  0  0  3  0  0  0  0  0  0
  189.0590  177.1450  138.4710 C   0  0  0  0  0  0  0  0  0  0  0  0
  190.7310  176.1340  137.0430 C   0  0  0  0  0  3  0  0  0  0  0  0
  187.3960  178.1590  139.9110 C   0  0  0  0  0  0  0  0  0  0  0  0
  188.3630  178.3360  140.9080 C   0  0  0  0  0  3  0  0  0  0  0  0
  193.0890  175.8620  137.8140 C   0  0  0  0  0  0  0  0  0  0  0  0
  193.9870  176.6990  137.5310 O   0  0  0  0  0  0  0  0  0  0  0  0
  193.4200  174.5160  137.9130 O   0  0  0  0  0  1  0  0  0  0  0  0
  1 10  1  0  0  0  0
  1 17  2  0  0  0  0
  2 12  1  0  0  0  0
  4  8  1  0  0  0  0
  4  5  2  0  0  0  0
  5  1  1  0  0  0  0
  6  7  1  0  0  0  0
  6 10  1  0  0  0  0
  7 11  2  0  0  0  0
  8  6  2  0  0  0  0
  9  3  1  0  0  0  0
 10  9  2  0  0  0  0
 11  9  1  0  0  0  0
 13 18  1  0  0  0  0
 13 12  2  0  0  0  0
 14 13  1  0  0  0  0
 15  3  1  0  0  0  0
 15  2  2  0  0  0  0
 16 17  1  0  0  0  0
 16 14  2  0  0  0  0
 17 15  1  0  0  0  0
 18 20  1  0  0  0  0
 19 18  2  0  0  0  0
 21  4  1  0  0  0  0
 22 31  1  0  0  0  0
 23 30  1  0  0  0  0
 24 25  2  0  0  0  0
 25 26  1  0  0  0  0
 26 22  2  0  0  0  0
 27 28  1  0  0  0  0
 28 23  2  0  0  0  0
 28 26  1  0  0  0  0
 29 27  2  0  0  0  0
 29 24  1  0  0  0  0
 30 21  1  0  0  0  0
 30 31  2  0  0  0  0
 32 34  1  0  0  0  0
 32 24  1  0  0  0  0
 33 32  2  0  0  0  0
M  END
>  <MODEL>
5

>  <REMARK>
 VINA RESULT:     -11.9      3.175      7.268
  Name = 
  4 active torsions:
  status: ('A' for Active; 'I' for Inactive)
    1  A    between atoms: C_3  and  C_25
    2  A    between atoms: C_7  and  C_11
    3  A    between atoms: C_8  and  C_18
    4  A    between atoms: C_18  and  C_30
                            x       y       z     vdW  Elec       q    Type
                         _______ _______ _______ _____ _____    ______ ____

>  <TORSDO>
F 4

$$$$
=
 OpenBabel11052415493D

 34 39  0  0  0  0  0  0  0  0999 V2000
  187.3870  177.8370  144.9590 C   0  0  0  0  0  0  0  0  0  0  0  0
  183.8210  178.9150  145.4690 C   0  0  0  0  0  3  0  0  0  0  0  0
  185.6310  178.6330  147.2610 S   0  0  0  0  0  0  0  0  0  0  0  0
  189.6650  177.1080  144.3340 C   0  0  0  0  0  0  0  0  0  0  0  0
  188.3330  177.4390  143.9810 C   0  0  0  0  0  3  0  0  0  0  0  0
  189.1460  177.5490  146.6280 C   0  0  0  0  0  0  0  0  0  0  0  0
  189.2350  177.7000  148.0010 C   0  0  0  0  0  3  0  0  0  0  0  0
  190.0840  177.1570  145.6800 C   0  0  0  0  0  3  0  0  0  0  0  0
  187.2400  178.1890  147.3620 C   0  0  0  0  0  0  0  0  0  0  0  0
  187.8740  177.8690  146.2760 C   0  0  0  0  0  0  0  0  0  0  0  0
  188.0200  178.1070  148.4630 N   0  0  0  0  0  0  0  0  0  0  0  0
  182.9760  178.9990  144.2750 C   0  0  0  0  0  3  0  0  0  0  0  0
  183.2680  178.7500  143.0010 C   0  0  0  0  0  0  0  0  0  0  0  0
  184.5800  178.3130  142.5180 C   0  0  0  0  0  3  0  0  0  0  0  0
  185.0980  178.5750  145.6380 C   0  0  0  0  0  0  0  0  0  0  0  0
  185.7030  178.0820  143.1860 C   0  0  0  0  0  3  0  0  0  0  0  0
  186.0310  178.1770  144.6260 C   0  0  0  0  0  0  0  0  0  0  0  0
  182.1980  178.9240  141.9960 C   0  0  0  0  0  0  0  0  0  0  0  0
  182.4380  178.7680  140.7680 O   0  0  0  0  0  0  0  0  0  0  0  0
  180.8770  179.2720  142.4030 N   0  0  0  0  0  1  0  0  0  0  0  0
  190.6210  176.6650  143.2790 C   0  0  0  0  0  2  0  0  0  0  0  0
  188.6890  178.4280  140.5340 C   0  0  0  0  0  3  0  0  0  0  0  0
  190.6120  176.4010  140.7890 C   0  0  0  0  0  3  0  0  0  0  0  0
  189.1710  177.4710  136.9860 C   0  0  0  0  0  0  0  0  0  0  0  0
  188.6920  178.1270  138.1290 C   0  0  0  0  0  3  0  0  0  0  0  0
  189.1680  177.7760  139.3950 C   0  0  0  0  0  0  0  0  0  0  0  0
  190.6120  176.0990  138.3840 C   0  0  0  0  0  3  0  0  0  0  0  0
  190.1360  176.7540  139.5230 C   0  0  0  0  0  0  0  0  0  0  0  0
  190.1310  176.4580  137.1220 C   0  0  0  0  0  3  0  0  0  0  0  0
  190.1320  177.0610  141.9250 C   0  0  0  0  0  0  0  0  0  0  0  0
  189.1700  178.0690  141.7980 C   0  0  0  0  0  3  0  0  0  0  0  0
  188.6650  177.8480  135.6560 C   0  0  0  0  0  0  0  0  0  0  0  0
  189.4200  177.7980  134.6480 O   0  0  0  0  0  0  0  0  0  0  0  0
  187.3470  178.2610  135.4990 O   0  0  0  0  0  1  0  0  0  0  0  0
  1 10  1  0  0  0  0
  2 15  2  0  0  0  0
  3  9  1  0  0  0  0
  4  8  1  0  0  0  0
  5  4  2  0  0  0  0
  5  1  1  0  0  0  0
  6  7  1  0  0  0  0
  7 11  2  0  0  0  0
  8  6  2  0  0  0  0
  9 11  1  0  0  0  0
 10  6  1  0  0  0  0
 10  9  2  0  0  0  0
 12  2  1  0  0  0  0
 13 12  2  0  0  0  0
 14 13  1  0  0  0  0
 14 16  2  0  0  0  0
 15  3  1  0  0  0  0
 16 17  1  0  0  0  0
 17  1  2  0  0  0  0
 17 15  1  0  0  0  0
 18 20  1  0  0  0  0
 18 13  1  0  0  0  0
 19 18  2  0  0  0  0
 21  4  1  0  0  0  0
 22 31  1  0  0  0  0
 23 30  1  0  0  0  0
 24 29  1  0  0  0  0
 24 25  2  0  0  0  0
 25 26  1  0  0  0  0
 26 28  1  0  0  0  0
 26 22  2  0  0  0  0
 27 28  1  0  0  0  0
 28 23  2  0  0  0  0
 29 27  2  0  0  0  0
 30 21  1  0  0  0  0
 31 30  2  0  0  0  0
 32 24  1  0  0  0  0
 33 32  2  0  0  0  0
 34 32  1  0  0  0  0
M  END
>  <MODEL>
6

>  <REMARK>
 VINA RESULT:     -11.9      4.005      8.188
  Name = 
  4 active torsions:
  status: ('A' for Active; 'I' for Inactive)
    1  A    between atoms: C_3  and  C_25
    2  A    between atoms: C_7  and  C_11
    3  A    between atoms: C_8  and  C_18
    4  A    between atoms: C_18  and  C_30
                            x       y       z     vdW  Elec       q    Type
                         _______ _______ _______ _____ _____    ______ ____

>  <TORSDO>
F 4

$$$$
=
 OpenBabel11052415493D

 34 39  0  0  0  0  0  0  0  0999 V2000
  187.7070  177.8670  144.2960 C   0  0  0  0  0  0  0  0  0  0  0  0
  190.6410  177.1180  142.0670 C   0  0  0  0  0  3  0  0  0  0  0  0
  190.4940  176.7950  144.6050 S   0  0  0  0  0  0  0  0  0  0  0  0
  185.6360  178.4500  145.5150 C   0  0  0  0  0  0  0  0  0  0  0  0
  186.3760  178.3570  144.3110 C   0  0  0  0  0  3  0  0  0  0  0  0
  187.5170  177.5820  146.7140 C   0  0  0  0  0  0  0  0  0  0  0  0
  188.3510  177.1280  147.7210 C   0  0  0  0  0  3  0  0  0  0  0  0
  186.2120  178.0620  146.7430 C   0  0  0  0  0  3  0  0  0  0  0  0
  189.3870  177.0200  145.8390 C   0  0  0  0  0  0  0  0  0  0  0  0
  188.2140  177.4940  145.5510 C   0  0  0  0  0  0  0  0  0  0  0  0
  189.5390  176.7720  147.1580 N   0  0  0  0  0  0  0  0  0  0  0  0
  190.4750  177.3920  140.6380 C   0  0  0  0  0  3  0  0  0  0  0  0
  189.4280  177.8770  139.9750 C   0  0  0  0  0  0  0  0  0  0  0  0
  188.1550  178.2560  140.5930 C   0  0  0  0  0  3  0  0  0  0  0  0
  189.8200  177.2650  143.1070 C   0  0  0  0  0  0  0  0  0  0  0  0
  187.7740  178.2070  141.8640 C   0  0  0  0  0  3  0  0  0  0  0  0
  188.4770  177.7640  143.0880 C   0  0  0  0  0  0  0  0  0  0  0  0
  189.5500  178.0490  138.5130 C   0  0  0  0  0  0  0  0  0  0  0  0
  189.0000  179.0230  137.9320 O   0  0  0  0  0  0  0  0  0  0  0  0
  190.2930  177.1120  137.7360 N   0  0  0  0  0  1  0  0  0  0  0  0
  184.2500  178.9990  145.4910 C   0  0  0  0  0  2  0  0  0  0  0  0
  181.7440  178.5000  142.6900 C   0  0  0  0  0  3  0  0  0  0  0  0
  184.4860  179.0090  142.9980 C   0  0  0  0  0  3  0  0  0  0  0  0
  182.8350  178.6180  139.1500 C   0  0  0  0  0  0  0  0  0  0  0  0
  182.0170  178.4950  140.2820 C   0  0  0  0  0  3  0  0  0  0  0  0
  182.5600  178.6250  141.5620 C   0  0  0  0  0  0  0  0  0  0  0  0
  184.7570  179.0010  140.5900 C   0  0  0  0  0  3  0  0  0  0  0  0
  183.9410  178.8810  141.7170 C   0  0  0  0  0  0  0  0  0  0  0  0
  184.2050  178.8710  139.3120 C   0  0  0  0  0  3  0  0  0  0  0  0
  183.6630  178.8880  144.1230 C   0  0  0  0  0  0  0  0  0  0  0  0
  182.2960  178.6290  143.9690 C   0  0  0  0  0  3  0  0  0  0  0  0
  182.2550  178.4800  137.8040 C   0  0  0  0  0  0  0  0  0  0  0  0
  182.4940  177.4580  137.1080 O   0  0  0  0  0  0  0  0  0  0  0  0
  181.4370  179.4780  137.2890 O   0  0  0  0  0  1  0  0  0  0  0  0
  1  5  1  0  0  0  0
  1 10  1  0  0  0  0
  2 15  2  0  0  0  0
  3  9  1  0  0  0  0
  4  8  1  0  0  0  0
  5  4  2  0  0  0  0
  6  8  2  0  0  0  0
  6  7  1  0  0  0  0
  9 11  1  0  0  0  0
 10  9  2  0  0  0  0
 10  6  1  0  0  0  0
 11  7  2  0  0  0  0
 12  2  1  0  0  0  0
 13 14  1  0  0  0  0
 13 12  2  0  0  0  0
 14 16  2  0  0  0  0
 15  3  1  0  0  0  0
 16 17  1  0  0  0  0
 17 15  1  0  0  0  0
 17  1  2  0  0  0  0
 18 13  1  0  0  0  0
 19 18  2  0  0  0  0
 20 18  1  0  0  0  0
 21  4  1  0  0  0  0
 22 31  1  0  0  0  0
 23 30  1  0  0  0  0
 24 29  1  0  0  0  0
 24 25  2  0  0  0  0
 25 26  1  0  0  0  0
 26 28  1  0  0  0  0
 26 22  2  0  0  0  0
 27 28  1  0  0  0  0
 28 23  2  0  0  0  0
 29 27  2  0  0  0  0
 30 21  1  0  0  0  0
 31 30  2  0  0  0  0
 32 24  1  0  0  0  0
 33 32  2  0  0  0  0
 34 32  1  0  0  0  0
M  END
>  <MODEL>
7

>  <REMARK>
 VINA RESULT:     -11.7      3.629      7.387
  Name = 
  4 active torsions:
  status: ('A' for Active; 'I' for Inactive)
    1  A    between atoms: C_3  and  C_25
    2  A    between atoms: C_7  and  C_11
    3  A    between atoms: C_8  and  C_18
    4  A    between atoms: C_18  and  C_30
                            x       y       z     vdW  Elec       q    Type
                         _______ _______ _______ _____ _____    ______ ____

>  <TORSDO>
F 4

$$$$
=
 OpenBabel11052415493D

 34 39  0  0  0  0  0  0  0  0999 V2000
  187.9730  177.7880  144.9890 C   0  0  0  0  0  0  0  0  0  0  0  0
  191.1160  176.9390  143.1090 C   0  0  0  0  0  3  0  0  0  0  0  0
  190.8320  177.1520  145.6470 S   0  0  0  0  0  0  0  0  0  0  0  0
  185.7730  178.3640  145.9590 C   0  0  0  0  0  0  0  0  0  0  0  0
  186.5990  178.1060  144.8380 C   0  0  0  0  0  3  0  0  0  0  0  0
  187.6500  178.0060  147.4000 C   0  0  0  0  0  0  0  0  0  0  0  0
  188.4580  177.8820  148.5170 C   0  0  0  0  0  3  0  0  0  0  0  0
  186.3020  178.3200  147.2660 C   0  0  0  0  0  3  0  0  0  0  0  0
  189.6260  177.4990  146.7510 C   0  0  0  0  0  0  0  0  0  0  0  0
  188.4300  177.7560  146.3160 C   0  0  0  0  0  0  0  0  0  0  0  0
  189.7130  177.5600  148.0990 N   0  0  0  0  0  0  0  0  0  0  0  0
  191.0200  176.8790  141.6480 C   0  0  0  0  0  3  0  0  0  0  0  0
  189.9750  177.0810  140.8500 C   0  0  0  0  0  0  0  0  0  0  0  0
  188.6290  177.4270  141.3140 C   0  0  0  0  0  3  0  0  0  0  0  0
  190.2160  177.2050  144.0540 C   0  0  0  0  0  0  0  0  0  0  0  0
  188.1690  177.6050  142.5470 C   0  0  0  0  0  3  0  0  0  0  0  0
  188.8310  177.5220  143.8680 C   0  0  0  0  0  0  0  0  0  0  0  0
  190.1770  176.9500  139.3930 C   0  0  0  0  0  0  0  0  0  0  0  0
  189.8940  177.9010  138.6160 O   0  0  0  0  0  0  0  0  0  0  0  0
  190.6960  175.7410  138.8430 N   0  0  0  0  0  1  0  0  0  0  0  0
  184.3400  178.7240  145.7550 C   0  0  0  0  0  2  0  0  0  0  0  0
  184.6150  178.2170  142.0080 C   0  0  0  0  0  3  0  0  0  0  0  0
  182.6670  178.9170  143.9020 C   0  0  0  0  0  3  0  0  0  0  0  0
  181.6640  178.7200  139.8220 C   0  0  0  0  0  0  0  0  0  0  0  0
  182.9730  178.4350  140.2390 C   0  0  0  0  0  3  0  0  0  0  0  0
  183.3110  178.4990  141.5930 C   0  0  0  0  0  0  0  0  0  0  0  0
  181.0270  179.1370  142.1320 C   0  0  0  0  0  3  0  0  0  0  0  0
  182.3290  178.8520  142.5470 C   0  0  0  0  0  0  0  0  0  0  0  0
  180.6970  179.0710  140.7750 C   0  0  0  0  0  3  0  0  0  0  0  0
  183.9740  178.6280  144.3110 C   0  0  0  0  0  0  0  0  0  0  0  0
  184.9460  178.2840  143.3650 C   0  0  0  0  0  3  0  0  0  0  0  0
  181.3160  178.6510  138.3940 C   0  0  0  0  0  0  0  0  0  0  0  0
  180.1120  178.7070  138.0280 O   0  0  0  0  0  1  0  0  0  0  0  0
  182.3130  178.5240  137.4350 O   0  0  0  0  0  0  0  0  0  0  0  0
  1 10  1  0  0  0  0
  2 15  2  0  0  0  0
  3  9  1  0  0  0  0
  4  8  1  0  0  0  0
  5  1  1  0  0  0  0
  5  4  2  0  0  0  0
  6  7  1  0  0  0  0
  8  6  2  0  0  0  0
  9 11  1  0  0  0  0
 10  9  2  0  0  0  0
 10  6  1  0  0  0  0
 11  7  2  0  0  0  0
 12  2  1  0  0  0  0
 13 14  1  0  0  0  0
 13 12  2  0  0  0  0
 14 16  2  0  0  0  0
 15  3  1  0  0  0  0
 16 17  1  0  0  0  0
 17 15  1  0  0  0  0
 17  1  2  0  0  0  0
 18 13  1  0  0  0  0
 19 18  2  0  0  0  0
 20 18  1  0  0  0  0
 21  4  1  0  0  0  0
 22 31  1  0  0  0  0
 23 30  1  0  0  0  0
 24 25  2  0  0  0  0
 24 29  1  0  0  0  0
 25 26  1  0  0  0  0
 26 22  2  0  0  0  0
 26 28  1  0  0  0  0
 27 28  1  0  0  0  0
 28 23  2  0  0  0  0
 29 27  2  0  0  0  0
 30 21  1  0  0  0  0
 31 30  2  0  0  0  0
 32 24  1  0  0  0  0
 33 32  1  0  0  0  0
 34 32  2  0  0  0  0
M  END
>  <MODEL>
8

>  <REMARK>
 VINA RESULT:     -11.6      3.738      7.718
  Name = 
  4 active torsions:
  status: ('A' for Active; 'I' for Inactive)
    1  A    between atoms: C_3  and  C_25
    2  A    between atoms: C_7  and  C_11
    3  A    between atoms: C_8  and  C_18
    4  A    between atoms: C_18  and  C_30
                            x       y       z     vdW  Elec       q    Type
                         _______ _______ _______ _____ _____    ______ ____

>  <TORSDO>
F 4

$$$$
=
 OpenBabel11052415493D

 34 39  0  0  0  0  0  0  0  0999 V2000
  188.8640  177.6400  143.8400 C   0  0  0  0  0  0  0  0  0  0  0  0
  185.5560  178.0110  145.5890 C   0  0  0  0  0  3  0  0  0  0  0  0
  187.8160  177.4290  146.6460 S   0  0  0  0  0  0  0  0  0  0  0  0
  190.8920  177.4580  142.4390 C   0  0  0  0  0  0  0  0  0  0  0  0
  189.5030  177.7000  142.5760 C   0  0  0  0  0  3  0  0  0  0  0  0
  191.0400  177.0840  144.7980 C   0  0  0  0  0  0  0  0  0  0  0  0
  191.5160  176.8070  146.0680 C   0  0  0  0  0  3  0  0  0  0  0  0
  191.6800  177.1390  143.5640 C   0  0  0  0  0  3  0  0  0  0  0  0
  189.4030  177.1970  146.1720 C   0  0  0  0  0  0  0  0  0  0  0  0
  189.7080  177.3230  144.9170 C   0  0  0  0  0  0  0  0  0  0  0  0
  190.4700  176.8800  146.9370 N   0  0  0  0  0  0  0  0  0  0  0  0
  184.3990  178.3500  144.7560 C   0  0  0  0  0  3  0  0  0  0  0  0
  184.3200  178.5550  143.4440 C   0  0  0  0  0  0  0  0  0  0  0  0
  185.4540  178.4730  142.5200 C   0  0  0  0  0  3  0  0  0  0  0  0
  186.8400  177.8110  145.2970 C   0  0  0  0  0  0  0  0  0  0  0  0
  186.7310  178.1980  142.7550 C   0  0  0  0  0  3  0  0  0  0  0  0
  187.4570  177.8810  144.0060 C   0  0  0  0  0  0  0  0  0  0  0  0
  183.0000  178.8890  142.8710 C   0  0  0  0  0  0  0  0  0  0  0  0
  182.0910  179.3780  143.5940 O   0  0  0  0  0  0  0  0  0  0  0  0
  182.7350  178.6590  141.4890 N   0  0  0  0  0  1  0  0  0  0  0  0
  191.5200  177.5030  141.0870 C   0  0  0  0  0  2  0  0  0  0  0  0
  189.8880  175.9740  138.0250 C   0  0  0  0  0  3  0  0  0  0  0  0
  189.2870  177.8610  140.0120 C   0  0  0  0  0  3  0  0  0  0  0  0
  186.4930  177.0310  136.9800 C   0  0  0  0  0  0  0  0  0  0  0  0
  187.7270  176.3650  137.0010 C   0  0  0  0  0  3  0  0  0  0  0  0
  188.6580  176.6370  138.0060 C   0  0  0  0  0  0  0  0  0  0  0  0
  187.1270  178.2530  138.9860 C   0  0  0  0  0  3  0  0  0  0  0  0
  188.3550  177.5880  139.0070 C   0  0  0  0  0  0  0  0  0  0  0  0
  186.2010  177.9740  137.9770 C   0  0  0  0  0  3  0  0  0  0  0  0
  190.5150  177.1910  140.0290 C   0  0  0  0  0  0  0  0  0  0  0  0
  190.8160  176.2530  139.0340 C   0  0  0  0  0  3  0  0  0  0  0  0
  185.5170  176.7390  135.9180 C   0  0  0  0  0  0  0  0  0  0  0  0
  184.3220  177.1240  136.0270 O   0  0  0  0  0  1  0  0  0  0  0  0
  185.9050  176.0370  134.7840 O   0  0  0  0  0  0  0  0  0  0  0  0
  1 17  2  0  0  0  0
  1 10  1  0  0  0  0
  4  5  2  0  0  0  0
  4  8  1  0  0  0  0
  5  1  1  0  0  0  0
  6 10  1  0  0  0  0
  6  7  1  0  0  0  0
  7 11  2  0  0  0  0
  8  6  2  0  0  0  0
  9  3  1  0  0  0  0
  9 11  1  0  0  0  0
 10  9  2  0  0  0  0
 12  2  1  0  0  0  0
 13 12  2  0  0  0  0
 14 16  2  0  0  0  0
 14 13  1  0  0  0  0
 15  2  2  0  0  0  0
 15  3  1  0  0  0  0
 16 17  1  0  0  0  0
 17 15  1  0  0  0  0
 18 13  1  0  0  0  0
 18 19  2  0  0  0  0
 20 18  1  0  0  0  0
 21  4  1  0  0  0  0
 22 31  1  0  0  0  0
 23 30  1  0  0  0  0
 24 25  2  0  0  0  0
 24 29  1  0  0  0  0
 25 26  1  0  0  0  0
 26 22  2  0  0  0  0
 26 28  1  0  0  0  0
 27 28  1  0  0  0  0
 28 23  2  0  0  0  0
 29 27  2  0  0  0  0
 30 21  1  0  0  0  0
 31 30  2  0  0  0  0
 32 33  1  0  0  0  0
 32 24  1  0  0  0  0
 34 32  2  0  0  0  0
M  END
>  <MODEL>
9

>  <REMARK>
 VINA RESULT:     -11.4      3.861      8.769
  Name = 
  4 active torsions:
  status: ('A' for Active; 'I' for Inactive)
    1  A    between atoms: C_3  and  C_25
    2  A    between atoms: C_7  and  C_11
    3  A    between atoms: C_8  and  C_18
    4  A    between atoms: C_18  and  C_30
                            x       y       z     vdW  Elec       q    Type
                         _______ _______ _______ _____ _____    ______ ____

>  <TORSDO>
F 4

$$$$
