=
 OpenBabel11052413283D

 28 30  0  0  1  0  0  0  0  0999 V2000
  190.2150  177.2340  144.9560 C   0  0  0  0  0  0  0  0  0  0  0  0
  187.6980  177.8030  149.0210 O   0  0  0  0  0  0  0  0  0  0  0  0
  186.5290  177.7610  145.5490 C   0  0  1  0  0  3  0  0  0  0  0  0
  185.3480  177.7660  147.6380 O   0  0  0  0  0  1  0  0  0  0  0  0
  188.9660  177.4680  147.0380 C   0  0  0  0  0  0  0  0  0  0  0  0
  187.8500  178.1160  144.8670 C   0  0  0  0  0  2  0  0  0  0  0  0
  191.2550  176.6680  147.0740 C   0  0  0  0  0  3  0  0  0  0  0  0
  187.7220  177.8180  147.7600 C   0  0  0  0  0  0  0  0  0  0  0  0
  190.0840  177.0150  147.7480 C   0  0  0  0  0  3  0  0  0  0  0  0
  186.4940  178.2540  147.0040 C   0  0  1  0  0  3  0  0  0  0  0  0
  191.3210  176.7760  145.6860 C   0  0  0  0  0  3  0  0  0  0  0  0
  189.0240  177.5660  145.6300 C   0  0  0  0  0  0  0  0  0  0  0  0
  184.2340  178.7020  145.4480 C   0  0  0  0  0  3  0  0  0  0  0  0
  185.3440  178.2790  143.3320 C   0  0  0  0  0  0  0  0  0  0  0  0
  183.0930  179.1860  143.3710 C   0  0  0  0  0  0  0  0  0  0  0  0
  185.3600  178.2570  144.7450 C   0  0  0  0  0  0  0  0  0  0  0  0
  184.2090  178.7430  142.6570 C   0  0  0  0  0  3  0  0  0  0  0  0
  186.5050  177.8110  142.5170 C   0  0  0  0  0  1  0  0  0  0  0  0
  181.9730  179.6440  142.6930 O   0  0  0  0  0  1  0  0  0  0  0  0
  183.1070  179.1650  144.7670 C   0  0  0  0  0  3  0  0  0  0  0  0
  190.3040  177.3540  143.4590 C   0  0  1  0  0  3  0  0  0  0  0  0
  191.4310  179.3930  143.6780 C   0  0  0  0  0  1  0  0  0  0  0  0
  191.5020  178.0780  143.0620 N   0  0  0  0  0  2  0  0  0  0  0  0
  190.2250  175.9970  142.7660 C   0  0  0  0  0  2  0  0  0  0  0  0
  190.5790  176.1050  141.4190 O   0  0  0  0  0  0  0  0  0  0  0  0
  189.5320  176.8180  140.8340 C   0  0  0  0  0  2  0  0  0  0  0  0
  190.0470  177.6070  139.6450 C   0  0  0  0  0  2  0  0  0  0  0  0
  188.9390  178.4650  139.0620 C   0  0  0  0  0  1  0  0  0  0  0  0
  1 12  2  0  0  0  0
  1 11  1  0  0  0  0
  3 16  1  6  0  0  0
  3 10  1  0  0  0  0
  5  9  2  0  0  0  0
  5  8  1  0  0  0  0
  6  3  1  0  0  0  0
  6 12  1  0  0  0  0
  7  9  1  0  0  0  0
  8  2  2  0  0  0  0
 10  4  1  1  0  0  0
 10  8  1  0  0  0  0
 11  7  2  0  0  0  0
 12  5  1  0  0  0  0
 14 16  1  0  0  0  0
 15 20  2  0  0  0  0
 16 13  2  0  0  0  0
 17 14  2  0  0  0  0
 17 15  1  0  0  0  0
 18 14  1  0  0  0  0
 19 15  1  0  0  0  0
 20 13  1  0  0  0  0
 21 24  1  6  0  0  0
 21  1  1  0  0  0  0
 23 21  1  0  0  0  0
 23 22  1  0  0  0  0
 25 24  1  0  0  0  0
 26 25  1  0  0  0  0
 27 26  1  0  0  0  0
 28 27  1  0  0  0  0
M  END
>  <MODEL>
1

>  <REMARK>
 VINA RESULT:      -9.0      0.000      0.000
  Name = 
  7 active torsions:
  status: ('A' for Active; 'I' for Inactive)
    1  A    between atoms: C_1  and  C_2
    2  A    between atoms: C_2  and  C_3
    3  A    between atoms: C_2  and  N_11
    4  A    between atoms: C_3  and  O_7
    5  A    between atoms: C_6  and  C_22
    6  A    between atoms: O_7  and  C_22
    7  A    between atoms: C_10  and  C_13
                            x       y       z     vdW  Elec       q    Type
                         _______ _______ _______ _____ _____    ______ ____

>  <TORSDO>
F 7

$$$$
=
 OpenBabel11052413283D

 28 30  0  0  1  0  0  0  0  0999 V2000
  187.3030  177.5320  143.6020 C   0  0  0  0  0  0  0  0  0  0  0  0
  183.1840  179.2580  145.4010 O   0  0  0  0  0  0  0  0  0  0  0  0
  183.9360  178.1040  142.0060 C   0  0  1  0  0  3  0  0  0  0  0  0
  181.8750  178.7200  143.0690 O   0  0  0  0  0  1  0  0  0  0  0  0
  185.2200  178.3620  144.5600 C   0  0  0  0  0  0  0  0  0  0  0  0
  185.4550  178.2700  142.0470 C   0  0  0  0  0  2  0  0  0  0  0  0
  187.0420  177.6840  146.0100 C   0  0  0  0  0  3  0  0  0  0  0  0
  183.8430  178.8810  144.3930 C   0  0  0  0  0  0  0  0  0  0  0  0
  185.7520  178.1870  145.8440 C   0  0  0  0  0  3  0  0  0  0  0  0
  183.2390  179.0220  143.0210 C   0  0  1  0  0  3  0  0  0  0  0  0
  187.8140  177.3570  144.8960 C   0  0  0  0  0  3  0  0  0  0  0  0
  185.9940  178.0200  143.4300 C   0  0  0  0  0  0  0  0  0  0  0  0
  183.7150  179.4930  139.9610 C   0  0  0  0  0  3  0  0  0  0  0  0
  182.6320  177.3210  139.9380 C   0  0  0  0  0  0  0  0  0  0  0  0
  182.4820  178.7810  138.0060 C   0  0  0  0  0  0  0  0  0  0  0  0
  183.4140  178.2890  140.6080 C   0  0  0  0  0  0  0  0  0  0  0  0
  182.1730  177.5760  138.6410 C   0  0  0  0  0  3  0  0  0  0  0  0
  182.2660  176.0190  140.5710 C   0  0  0  0  0  1  0  0  0  0  0  0
  182.0210  179.0250  136.7190 O   0  0  0  0  0  1  0  0  0  0  0  0
  183.2530  179.7390  138.6660 C   0  0  0  0  0  3  0  0  0  0  0  0
  188.1520  177.1850  142.4100 C   0  0  1  0  0  3  0  0  0  0  0  0
  188.5580  178.4140  140.4620 C   0  0  0  0  0  1  0  0  0  0  0  0
  188.8310  178.3610  141.8880 N   0  0  0  0  0  2  0  0  0  0  0  0
  189.1440  176.0660  142.7150 C   0  0  0  0  0  2  0  0  0  0  0  0
  190.4490  176.4590  142.4030 O   0  0  0  0  0  0  0  0  0  0  0  0
  191.2130  176.0420  143.4930 C   0  0  0  0  0  2  0  0  0  0  0  0
  191.4620  177.2140  144.4250 C   0  0  0  0  0  2  0  0  0  0  0  0
  191.4400  176.7510  145.8710 C   0  0  0  0  0  1  0  0  0  0  0  0
  1 11  1  0  0  0  0
  3 16  1  6  0  0  0
  3  6  1  0  0  0  0
  3 10  1  0  0  0  0
  5  9  2  0  0  0  0
  6 12  1  0  0  0  0
  8  5  1  0  0  0  0
  8  2  2  0  0  0  0
  9  7  1  0  0  0  0
 10  4  1  1  0  0  0
 10  8  1  0  0  0  0
 11  7  2  0  0  0  0
 12  1  2  0  0  0  0
 12  5  1  0  0  0  0
 13 16  1  0  0  0  0
 14 18  1  0  0  0  0
 14 16  2  0  0  0  0
 15 17  2  0  0  0  0
 15 20  1  0  0  0  0
 17 14  1  0  0  0  0
 19 15  1  0  0  0  0
 20 13  2  0  0  0  0
 21 24  1  1  0  0  0
 21  1  1  0  0  0  0
 22 23  1  0  0  0  0
 23 21  1  0  0  0  0
 25 24  1  0  0  0  0
 25 26  1  0  0  0  0
 26 27  1  0  0  0  0
 27 28  1  0  0  0  0
M  END
>  <MODEL>
2

>  <REMARK>
 VINA RESULT:      -8.9      2.521      4.661
  Name = 
  7 active torsions:
  status: ('A' for Active; 'I' for Inactive)
    1  A    between atoms: C_1  and  C_2
    2  A    between atoms: C_2  and  C_3
    3  A    between atoms: C_2  and  N_11
    4  A    between atoms: C_3  and  O_7
    5  A    between atoms: C_6  and  C_22
    6  A    between atoms: O_7  and  C_22
    7  A    between atoms: C_10  and  C_13
                            x       y       z     vdW  Elec       q    Type
                         _______ _______ _______ _____ _____    ______ ____

>  <TORSDO>
F 7

$$$$
=
 OpenBabel11052413283D

 28 30  0  0  1  0  0  0  0  0999 V2000
  188.9440  177.4500  145.0920 C   0  0  0  0  0  0  0  0  0  0  0  0
  184.8220  178.6830  147.2540 O   0  0  0  0  0  0  0  0  0  0  0  0
  185.4930  178.0690  143.7050 C   0  0  1  0  0  3  0  0  0  0  0  0
  183.4490  178.4190  144.9120 O   0  0  0  0  0  1  0  0  0  0  0  0
  186.8630  178.0250  146.2270 C   0  0  0  0  0  0  0  0  0  0  0  0
  187.0030  178.3060  143.7210 C   0  0  0  0  0  2  0  0  0  0  0  0
  188.7700  177.2410  147.5040 C   0  0  0  0  0  3  0  0  0  0  0  0
  185.4580  178.4900  146.1820 C   0  0  0  0  0  0  0  0  0  0  0  0
  187.4530  177.6950  147.4530 C   0  0  0  0  0  3  0  0  0  0  0  0
  184.7940  178.7950  144.8650 C   0  0  1  0  0  3  0  0  0  0  0  0
  189.5120  177.1180  146.3300 C   0  0  0  0  0  3  0  0  0  0  0  0
  187.6070  177.8890  145.0350 C   0  0  0  0  0  0  0  0  0  0  0  0
  183.5140  178.4150  142.2480 C   0  0  0  0  0  3  0  0  0  0  0  0
  185.6950  178.7510  141.2380 C   0  0  0  0  0  0  0  0  0  0  0  0
  183.6810  179.0460  139.9180 C   0  0  0  0  0  0  0  0  0  0  0  0
  184.9080  178.4260  142.3670 C   0  0  0  0  0  0  0  0  0  0  0  0
  185.0730  179.0590  140.0230 C   0  0  0  0  0  3  0  0  0  0  0  0
  187.1880  178.7730  141.2910 C   0  0  0  0  0  1  0  0  0  0  0  0
  183.0730  179.3520  138.7090 O   0  0  0  0  0  1  0  0  0  0  0  0
  182.9010  178.7250  141.0310 C   0  0  0  0  0  3  0  0  0  0  0  0
  189.7600  177.3220  143.8350 C   0  0  1  0  0  3  0  0  0  0  0  0
  191.3450  179.0420  143.8700 C   0  0  0  0  0  1  0  0  0  0  0  0
  191.1620  177.6170  144.0880 N   0  0  0  0  0  2  0  0  0  0  0  0
  189.5940  175.9550  143.1770 C   0  0  0  0  0  2  0  0  0  0  0  0
  190.4180  175.8400  142.0540 O   0  0  0  0  0  0  0  0  0  0  0  0
  189.7910  176.6120  141.0760 C   0  0  0  0  0  2  0  0  0  0  0  0
  190.7790  176.9470  139.9730 C   0  0  0  0  0  2  0  0  0  0  0  0
  192.0750  177.4680  140.5680 C   0  0  0  0  0  1  0  0  0  0  0  0
  1 11  1  0  0  0  0
  3 16  1  6  0  0  0
  3  6  1  0  0  0  0
  3 10  1  0  0  0  0
  5  9  2  0  0  0  0
  6 12  1  0  0  0  0
  8  5  1  0  0  0  0
  8  2  2  0  0  0  0
  9  7  1  0  0  0  0
 10  4  1  1  0  0  0
 10  8  1  0  0  0  0
 11  7  2  0  0  0  0
 12  1  2  0  0  0  0
 12  5  1  0  0  0  0
 13 16  1  0  0  0  0
 14 18  1  0  0  0  0
 14 16  2  0  0  0  0
 15 17  2  0  0  0  0
 15 20  1  0  0  0  0
 17 14  1  0  0  0  0
 19 15  1  0  0  0  0
 20 13  2  0  0  0  0
 21 24  1  1  0  0  0
 21 23  1  0  0  0  0
 21  1  1  0  0  0  0
 22 23  1  0  0  0  0
 25 24  1  0  0  0  0
 26 25  1  0  0  0  0
 27 28  1  0  0  0  0
 27 26  1  0  0  0  0
M  END
>  <MODEL>
3

>  <REMARK>
 VINA RESULT:      -8.9      1.591      2.441
  Name = 
  7 active torsions:
  status: ('A' for Active; 'I' for Inactive)
    1  A    between atoms: C_1  and  C_2
    2  A    between atoms: C_2  and  C_3
    3  A    between atoms: C_2  and  N_11
    4  A    between atoms: C_3  and  O_7
    5  A    between atoms: C_6  and  C_22
    6  A    between atoms: O_7  and  C_22
    7  A    between atoms: C_10  and  C_13
                            x       y       z     vdW  Elec       q    Type
                         _______ _______ _______ _____ _____    ______ ____

>  <TORSDO>
F 7

$$$$
=
 OpenBabel11052413283D

 28 30  0  0  1  0  0  0  0  0999 V2000
  185.8240  178.4700  142.2230 C   0  0  0  0  0  0  0  0  0  0  0  0
  184.3840  178.4170  146.8170 O   0  0  0  0  0  0  0  0  0  0  0  0
  187.7660  178.1330  145.4370 C   0  0  1  0  0  3  0  0  0  0  0  0
  186.9690  178.3880  147.6860 O   0  0  0  0  0  1  0  0  0  0  0  0
  185.0640  178.4990  144.5410 C   0  0  0  0  0  0  0  0  0  0  0  0
  187.3920  177.6640  144.0310 C   0  0  0  0  0  2  0  0  0  0  0  0
  183.5790  179.2200  142.7630 C   0  0  0  0  0  3  0  0  0  0  0  0
  185.3170  178.2690  145.9810 C   0  0  0  0  0  0  0  0  0  0  0  0
  183.8210  178.9860  144.1160 C   0  0  0  0  0  3  0  0  0  0  0  0
  186.6660  177.7980  146.4550 C   0  0  1  0  0  3  0  0  0  0  0  0
  184.5750  178.9650  141.8210 C   0  0  0  0  0  3  0  0  0  0  0  0
  186.0780  178.2510  143.5900 C   0  0  0  0  0  0  0  0  0  0  0  0
  189.1390  176.6190  146.8440 C   0  0  0  0  0  3  0  0  0  0  0  0
  190.3260  178.0390  145.2730 C   0  0  0  0  0  0  0  0  0  0  0  0
  191.5530  176.5210  146.7160 C   0  0  0  0  0  0  0  0  0  0  0  0
  189.1100  177.5960  145.8420 C   0  0  0  0  0  0  0  0  0  0  0  0
  191.5380  177.4970  145.7160 C   0  0  0  0  0  3  0  0  0  0  0  0
  190.3700  179.0840  144.2070 C   0  0  0  0  0  1  0  0  0  0  0  0
  192.7600  175.9900  147.1480 O   0  0  0  0  0  1  0  0  0  0  0  0
  190.3530  176.0820  147.2790 C   0  0  0  0  0  3  0  0  0  0  0  0
  186.8840  178.1900  141.1940 C   0  0  1  0  0  3  0  0  0  0  0  0
  186.9870  177.7570  138.8970 C   0  0  0  0  0  1  0  0  0  0  0  0
  186.4950  178.7000  139.8880 N   0  0  0  0  0  2  0  0  0  0  0  0
  188.2490  178.7300  141.6120 C   0  0  0  0  0  2  0  0  0  0  0  0
  189.2690  178.1350  140.8640 O   0  0  0  0  0  0  0  0  0  0  0  0
  189.2640  176.7970  141.2610 C   0  0  0  0  0  2  0  0  0  0  0  0
  190.5720  176.4620  141.9550 C   0  0  0  0  0  2  0  0  0  0  0  0
  190.3440  175.4140  143.0290 C   0  0  0  0  0  1  0  0  0  0  0  0
  1 12  1  0  0  0  0
  3 16  1  1  0  0  0
  3 10  1  0  0  0  0
  5  8  1  0  0  0  0
  6  3  1  0  0  0  0
  7  9  2  0  0  0  0
  8 10  1  0  0  0  0
  8  2  2  0  0  0  0
  9  5  1  0  0  0  0
 10  4  1  1  0  0  0
 11  1  2  0  0  0  0
 11  7  1  0  0  0  0
 12  6  1  0  0  0  0
 12  5  2  0  0  0  0
 13 20  1  0  0  0  0
 14 17  2  0  0  0  0
 14 16  1  0  0  0  0
 15 19  1  0  0  0  0
 15 20  2  0  0  0  0
 16 13  2  0  0  0  0
 17 15  1  0  0  0  0
 18 14  1  0  0  0  0
 21 24  1  1  0  0  0
 21  1  1  0  0  0  0
 22 23  1  0  0  0  0
 23 21  1  0  0  0  0
 25 26  1  0  0  0  0
 25 24  1  0  0  0  0
 26 27  1  0  0  0  0
 27 28  1  0  0  0  0
M  END
>  <MODEL>
4

>  <REMARK>
 VINA RESULT:      -8.8      1.930      5.730
  Name = 
  7 active torsions:
  status: ('A' for Active; 'I' for Inactive)
    1  A    between atoms: C_1  and  C_2
    2  A    between atoms: C_2  and  C_3
    3  A    between atoms: C_2  and  N_11
    4  A    between atoms: C_3  and  O_7
    5  A    between atoms: C_6  and  C_22
    6  A    between atoms: O_7  and  C_22
    7  A    between atoms: C_10  and  C_13
                            x       y       z     vdW  Elec       q    Type
                         _______ _______ _______ _____ _____    ______ ____

>  <TORSDO>
F 7

$$$$
=
 OpenBabel11052413283D

 28 30  0  0  1  0  0  0  0  0999 V2000
  187.0450  178.3820  141.3180 C   0  0  0  0  0  0  0  0  0  0  0  0
  184.5120  178.3100  145.4120 O   0  0  0  0  0  0  0  0  0  0  0  0
  188.1320  178.0610  144.9140 C   0  0  1  0  0  3  0  0  0  0  0  0
  186.8000  178.3050  146.8950 O   0  0  0  0  0  1  0  0  0  0  0  0
  185.7340  178.4010  143.3750 C   0  0  0  0  0  0  0  0  0  0  0  0
  188.1240  177.5890  143.4600 C   0  0  0  0  0  2  0  0  0  0  0  0
  184.7300  179.1100  141.2830 C   0  0  0  0  0  3  0  0  0  0  0  0
  185.6240  178.1710  144.8330 C   0  0  0  0  0  0  0  0  0  0  0  0
  184.6300  178.8760  142.6550 C   0  0  0  0  0  3  0  0  0  0  0  0
  186.8180  177.7130  145.6280 C   0  0  1  0  0  3  0  0  0  0  0  0
  185.9300  178.8650  140.6180 C   0  0  0  0  0  3  0  0  0  0  0  0
  186.9550  178.1640  142.7060 C   0  0  0  0  0  0  0  0  0  0  0  0
  189.1270  176.8970  146.8680 C   0  0  0  0  0  3  0  0  0  0  0  0
  190.6580  177.6710  145.1520 C   0  0  0  0  0  0  0  0  0  0  0  0
  191.5040  176.5290  147.1190 C   0  0  0  0  0  0  0  0  0  0  0  0
  189.3390  177.5360  145.6410 C   0  0  0  0  0  0  0  0  0  0  0  0
  191.7300  177.1660  145.8960 C   0  0  0  0  0  3  0  0  0  0  0  0
  190.9590  178.3480  143.8550 C   0  0  0  0  0  1  0  0  0  0  0  0
  192.5740  176.0320  147.8500 O   0  0  0  0  0  1  0  0  0  0  0  0
  190.2020  176.3950  147.6040 C   0  0  0  0  0  3  0  0  0  0  0  0
  188.3300  178.1140  140.5850 C   0  0  1  0  0  3  0  0  0  0  0  0
  190.2750  176.8200  140.4600 C   0  0  0  0  0  1  0  0  0  0  0  0
  188.9400  176.8710  141.0330 N   0  0  0  0  0  2  0  0  0  0  0  0
  188.1410  178.1200  139.0700 C   0  0  0  0  0  2  0  0  0  0  0  0
  188.8350  179.1840  138.4870 O   0  0  0  0  0  0  0  0  0  0  0  0
  188.8480  178.8920  137.1220 C   0  0  0  0  0  2  0  0  0  0  0  0
  187.4280  178.6870  136.6270 C   0  0  0  0  0  2  0  0  0  0  0  0
  187.4330  177.9430  135.3040 C   0  0  0  0  0  1  0  0  0  0  0  0
  1 12  1  0  0  0  0
  3 10  1  0  0  0  0
  3 16  1  1  0  0  0
  5  8  1  0  0  0  0
  6  3  1  0  0  0  0
  7  9  2  0  0  0  0
  8  2  2  0  0  0  0
  8 10  1  0  0  0  0
  9  5  1  0  0  0  0
 10  4  1  1  0  0  0
 11  7  1  0  0  0  0
 11  1  2  0  0  0  0
 12  5  2  0  0  0  0
 12  6  1  0  0  0  0
 13 20  1  0  0  0  0
 14 16  1  0  0  0  0
 14 17  2  0  0  0  0
 15 20  2  0  0  0  0
 15 19  1  0  0  0  0
 16 13  2  0  0  0  0
 17 15  1  0  0  0  0
 18 14  1  0  0  0  0
 21 24  1  6  0  0  0
 21 23  1  0  0  0  0
 21  1  1  0  0  0  0
 22 23  1  0  0  0  0
 25 24  1  0  0  0  0
 26 25  1  0  0  0  0
 27 26  1  0  0  0  0
 28 27  1  0  0  0  0
M  END
>  <MODEL>
5

>  <REMARK>
 VINA RESULT:      -8.7      2.065      5.760
  Name = 
  7 active torsions:
  status: ('A' for Active; 'I' for Inactive)
    1  A    between atoms: C_1  and  C_2
    2  A    between atoms: C_2  and  C_3
    3  A    between atoms: C_2  and  N_11
    4  A    between atoms: C_3  and  O_7
    5  A    between atoms: C_6  and  C_22
    6  A    between atoms: O_7  and  C_22
    7  A    between atoms: C_10  and  C_13
                            x       y       z     vdW  Elec       q    Type
                         _______ _______ _______ _____ _____    ______ ____

>  <TORSDO>
F 7

$$$$
=
 OpenBabel11052413283D

 28 30  0  0  1  0  0  0  0  0999 V2000
  186.3260  178.4500  139.5150 C   0  0  0  0  0  0  0  0  0  0  0  0
  190.6820  176.4190  139.7990 O   0  0  0  0  0  0  0  0  0  0  0  0
  188.2900  177.1730  142.4690 C   0  0  1  0  0  3  0  0  0  0  0  0
  190.3450  175.9330  142.4610 O   0  0  0  0  0  1  0  0  0  0  0  0
  188.5150  177.3780  139.6150 C   0  0  0  0  0  0  0  0  0  0  0  0
  187.4890  178.2570  141.7490 C   0  0  0  0  0  2  0  0  0  0  0  0
  187.3770  177.6280  137.4870 C   0  0  0  0  0  3  0  0  0  0  0  0
  189.6800  176.9010  140.3940 C   0  0  0  0  0  0  0  0  0  0  0  0
  188.4770  177.1960  138.2270 C   0  0  0  0  0  3  0  0  0  0  0  0
  189.7070  177.0400  141.8930 C   0  0  1  0  0  3  0  0  0  0  0  0
  186.3060  178.2520  138.1270 C   0  0  0  0  0  3  0  0  0  0  0  0
  187.4260  177.9970  140.2670 C   0  0  0  0  0  0  0  0  0  0  0  0
  187.1840  176.9480  144.6800 C   0  0  0  0  0  3  0  0  0  0  0  0
  189.3380  178.0650  144.6350 C   0  0  0  0  0  0  0  0  0  0  0  0
  188.1470  177.7920  146.7320 C   0  0  0  0  0  0  0  0  0  0  0  0
  188.2910  177.4040  143.9540 C   0  0  0  0  0  0  0  0  0  0  0  0
  189.2570  178.2530  146.0200 C   0  0  0  0  0  3  0  0  0  0  0  0
  190.5440  178.5850  143.9240 C   0  0  0  0  0  1  0  0  0  0  0  0
  188.0750  177.9830  148.1050 O   0  0  0  0  0  1  0  0  0  0  0  0
  187.1110  177.1390  146.0610 C   0  0  0  0  0  3  0  0  0  0  0  0
  185.1690  179.1330  140.1890 C   0  0  1  0  0  3  0  0  0  0  0  0
  183.1810  179.7080  139.0970 C   0  0  0  0  0  1  0  0  0  0  0  0
  184.5580  180.1210  139.3120 N   0  0  0  0  0  2  0  0  0  0  0  0
  184.1320  178.1380  140.7030 C   0  0  0  0  0  2  0  0  0  0  0  0
  184.3240  177.8770  142.0630 O   0  0  0  0  0  0  0  0  0  0  0  0
  183.6570  178.9130  142.7180 C   0  0  0  0  0  2  0  0  0  0  0  0
  184.5100  179.4340  143.8600 C   0  0  0  0  0  2  0  0  0  0  0  0
  183.9570  178.9580  145.1910 C   0  0  0  0  0  1  0  0  0  0  0  0
  1 21  1  0  0  0  0
  1 12  1  0  0  0  0
  2  8  2  0  0  0  0
  3 16  1  1  0  0  0
  5 12  2  0  0  0  0
  5  8  1  0  0  0  0
  6  3  1  0  0  0  0
  7 11  1  0  0  0  0
  7  9  2  0  0  0  0
  8 10  1  0  0  0  0
  9  5  1  0  0  0  0
 10  4  1  1  0  0  0
 10  3  1  0  0  0  0
 11  1  2  0  0  0  0
 12  6  1  0  0  0  0
 13 20  1  0  0  0  0
 14 17  2  0  0  0  0
 15 19  1  0  0  0  0
 16 14  1  0  0  0  0
 16 13  2  0  0  0  0
 17 15  1  0  0  0  0
 18 14  1  0  0  0  0
 20 15  2  0  0  0  0
 21 24  1  6  0  0  0
 22 23  1  0  0  0  0
 23 21  1  0  0  0  0
 24 25  1  0  0  0  0
 25 26  1  0  0  0  0
 26 27  1  0  0  0  0
 27 28  1  0  0  0  0
M  END
>  <MODEL>
6

>  <REMARK>
 VINA RESULT:      -8.6      2.339      6.960
  Name = 
  7 active torsions:
  status: ('A' for Active; 'I' for Inactive)
    1  A    between atoms: C_1  and  C_2
    2  A    between atoms: C_2  and  C_3
    3  A    between atoms: C_2  and  N_11
    4  A    between atoms: C_3  and  O_7
    5  A    between atoms: C_6  and  C_22
    6  A    between atoms: O_7  and  C_22
    7  A    between atoms: C_10  and  C_13
                            x       y       z     vdW  Elec       q    Type
                         _______ _______ _______ _____ _____    ______ ____

>  <TORSDO>
F 7

$$$$
=
 OpenBabel11052413283D

 28 30  0  0  1  0  0  0  0  0999 V2000
  185.8140  178.0320  143.5120 C   0  0  0  0  0  0  0  0  0  0  0  0
  181.2340  179.5180  143.5710 O   0  0  0  0  0  0  0  0  0  0  0  0
  183.0490  177.6800  140.9730 C   0  0  1  0  0  3  0  0  0  0  0  0
  180.7260  178.2280  141.2230 O   0  0  0  0  0  1  0  0  0  0  0  0
  183.4860  178.7550  143.5980 C   0  0  0  0  0  0  0  0  0  0  0  0
  184.4700  178.0750  141.3740 C   0  0  0  0  0  2  0  0  0  0  0  0
  184.8320  178.7380  145.6160 C   0  0  0  0  0  3  0  0  0  0  0  0
  182.1900  179.0050  142.9280 C   0  0  0  0  0  0  0  0  0  0  0  0
  183.6190  178.9860  144.9730 C   0  0  0  0  0  3  0  0  0  0  0  0
  182.0170  178.7080  141.4610 C   0  0  1  0  0  3  0  0  0  0  0  0
  185.9240  178.2630  144.8900 C   0  0  0  0  0  3  0  0  0  0  0  0
  184.5860  178.2610  142.8630 C   0  0  0  0  0  0  0  0  0  0  0  0
  183.6110  178.3340  138.6460 C   0  0  0  0  0  3  0  0  0  0  0  0
  182.2410  176.3510  138.9310 C   0  0  0  0  0  0  0  0  0  0  0  0
  182.8520  177.1040  136.7060 C   0  0  0  0  0  0  0  0  0  0  0  0
  182.9580  177.4310  139.4930 C   0  0  0  0  0  0  0  0  0  0  0  0
  182.1950  176.1970  137.5410 C   0  0  0  0  0  3  0  0  0  0  0  0
  181.5140  175.3550  139.7740 C   0  0  0  0  0  1  0  0  0  0  0  0
  182.7990  176.9430  135.3290 O   0  0  0  0  0  1  0  0  0  0  0  0
  183.5600  178.1720  137.2600 C   0  0  0  0  0  3  0  0  0  0  0  0
  187.0030  177.5290  142.7410 C   0  0  1  0  0  3  0  0  0  0  0  0
  187.9220  178.2670  140.7200 C   0  0  0  0  0  1  0  0  0  0  0  0
  187.7250  178.6260  142.1150 N   0  0  0  0  0  2  0  0  0  0  0  0
  187.9320  176.6790  143.6040 C   0  0  0  0  0  2  0  0  0  0  0  0
  189.1820  177.2900  143.7400 O   0  0  0  0  0  0  0  0  0  0  0  0
  189.6680  176.8300  144.9640 C   0  0  0  0  0  2  0  0  0  0  0  0
  189.3750  177.8490  146.0500 C   0  0  0  0  0  2  0  0  0  0  0  0
  188.7630  177.1670  147.2600 C   0  0  0  0  0  1  0  0  0  0  0  0
  1 11  1  0  0  0  0
  3 16  1  6  0  0  0
  3  6  1  0  0  0  0
  3 10  1  0  0  0  0
  5  9  2  0  0  0  0
  6 12  1  0  0  0  0
  8  2  2  0  0  0  0
  8  5  1  0  0  0  0
  9  7  1  0  0  0  0
 10  4  1  1  0  0  0
 10  8  1  0  0  0  0
 11  7  2  0  0  0  0
 12  1  2  0  0  0  0
 12  5  1  0  0  0  0
 13 16  1  0  0  0  0
 14 16  2  0  0  0  0
 14 18  1  0  0  0  0
 15 20  1  0  0  0  0
 15 17  2  0  0  0  0
 17 14  1  0  0  0  0
 19 15  1  0  0  0  0
 20 13  2  0  0  0  0
 21  1  1  0  0  0  0
 21 24  1  1  0  0  0
 22 23  1  0  0  0  0
 23 21  1  0  0  0  0
 24 25  1  0  0  0  0
 25 26  1  0  0  0  0
 26 27  1  0  0  0  0
 27 28  1  0  0  0  0
M  END
>  <MODEL>
7

>  <REMARK>
 VINA RESULT:      -8.4      3.301      6.199
  Name = 
  7 active torsions:
  status: ('A' for Active; 'I' for Inactive)
    1  A    between atoms: C_1  and  C_2
    2  A    between atoms: C_2  and  C_3
    3  A    between atoms: C_2  and  N_11
    4  A    between atoms: C_3  and  O_7
    5  A    between atoms: C_6  and  C_22
    6  A    between atoms: O_7  and  C_22
    7  A    between atoms: C_10  and  C_13
                            x       y       z     vdW  Elec       q    Type
                         _______ _______ _______ _____ _____    ______ ____

>  <TORSDO>
F 7

$$$$
=
 OpenBabel11052413283D

 28 30  0  0  1  0  0  0  0  0999 V2000
  184.7840  178.3580  143.7840 C   0  0  0  0  0  0  0  0  0  0  0  0
  187.4180  177.5260  147.7270 O   0  0  0  0  0  0  0  0  0  0  0  0
  188.5120  178.0860  144.2760 C   0  0  1  0  0  3  0  0  0  0  0  0
  189.7300  177.9340  146.3380 O   0  0  0  0  0  1  0  0  0  0  0  0
  186.0880  177.9860  145.8110 C   0  0  0  0  0  0  0  0  0  0  0  0
  187.2130  177.7020  143.5680 C   0  0  0  0  0  2  0  0  0  0  0  0
  183.7400  178.5730  145.9650 C   0  0  0  0  0  3  0  0  0  0  0  0
  187.3720  177.6610  146.4740 C   0  0  0  0  0  0  0  0  0  0  0  0
  184.9490  178.2510  146.5810 C   0  0  0  0  0  3  0  0  0  0  0  0
  188.6170  177.4280  145.6600 C   0  0  1  0  0  3  0  0  0  0  0  0
  183.6570  178.6280  144.5740 C   0  0  0  0  0  3  0  0  0  0  0  0
  186.0110  178.0530  144.4030 C   0  0  0  0  0  0  0  0  0  0  0  0
  189.6220  176.6910  142.5490 C   0  0  0  0  0  3  0  0  0  0  0  0
  190.8880  178.5650  143.4310 C   0  0  0  0  0  0  0  0  0  0  0  0
  191.8640  177.1160  141.7470 C   0  0  0  0  0  0  0  0  0  0  0  0
  189.7030  177.7940  143.4070 C   0  0  0  0  0  0  0  0  0  0  0  0
  191.9590  178.2190  142.5990 C   0  0  0  0  0  3  0  0  0  0  0  0
  191.0470  179.7490  144.3280 C   0  0  0  0  0  1  0  0  0  0  0  0
  192.9320  176.7800  140.9260 O   0  0  0  0  0  1  0  0  0  0  0  0
  190.6950  176.3530  141.7220 C   0  0  0  0  0  3  0  0  0  0  0  0
  184.6760  178.4110  142.2850 C   0  0  1  0  0  3  0  0  0  0  0  0
  183.0000  177.8620  140.7490 C   0  0  0  0  0  1  0  0  0  0  0  0
  183.3200  178.7330  141.8680 N   0  0  0  0  0  2  0  0  0  0  0  0
  185.6860  179.3750  141.6680 C   0  0  0  0  0  2  0  0  0  0  0  0
  186.0770  178.9410  140.3990 O   0  0  0  0  0  0  0  0  0  0  0  0
  187.4320  178.6350  140.5320 C   0  0  0  0  0  2  0  0  0  0  0  0
  187.9180  177.9030  139.2940 C   0  0  0  0  0  2  0  0  0  0  0  0
  189.1090  178.6250  138.6900 C   0  0  0  0  0  1  0  0  0  0  0  0
  1 12  2  0  0  0  0
  1 11  1  0  0  0  0
  3 16  1  6  0  0  0
  3 10  1  0  0  0  0
  5  8  1  0  0  0  0
  5  9  2  0  0  0  0
  6  3  1  0  0  0  0
  6 12  1  0  0  0  0
  7  9  1  0  0  0  0
  8  2  2  0  0  0  0
 10  4  1  1  0  0  0
 10  8  1  0  0  0  0
 11  7  2  0  0  0  0
 12  5  1  0  0  0  0
 13 16  1  0  0  0  0
 14 18  1  0  0  0  0
 15 17  2  0  0  0  0
 16 14  2  0  0  0  0
 17 14  1  0  0  0  0
 19 15  1  0  0  0  0
 20 15  1  0  0  0  0
 20 13  2  0  0  0  0
 21 24  1  1  0  0  0
 21  1  1  0  0  0  0
 22 23  1  0  0  0  0
 23 21  1  0  0  0  0
 25 26  1  0  0  0  0
 25 24  1  0  0  0  0
 27 26  1  0  0  0  0
 28 27  1  0  0  0  0
M  END
>  <MODEL>
8

>  <REMARK>
 VINA RESULT:      -8.3      2.324      5.910
  Name = 
  7 active torsions:
  status: ('A' for Active; 'I' for Inactive)
    1  A    between atoms: C_1  and  C_2
    2  A    between atoms: C_2  and  C_3
    3  A    between atoms: C_2  and  N_11
    4  A    between atoms: C_3  and  O_7
    5  A    between atoms: C_6  and  C_22
    6  A    between atoms: O_7  and  C_22
    7  A    between atoms: C_10  and  C_13
                            x       y       z     vdW  Elec       q    Type
                         _______ _______ _______ _____ _____    ______ ____

>  <TORSDO>
F 7

$$$$
=
 OpenBabel11052413283D

 28 30  0  0  1  0  0  0  0  0999 V2000
  188.3510  177.6860  142.0010 C   0  0  0  0  0  0  0  0  0  0  0  0
  187.1090  178.6350  137.4470 O   0  0  0  0  0  0  0  0  0  0  0  0
  189.8250  176.5360  138.7280 C   0  0  1  0  0  3  0  0  0  0  0  0
  188.9580  176.8600  136.5130 O   0  0  0  0  0  1  0  0  0  0  0  0
  187.6620  178.1470  139.7070 C   0  0  0  0  0  0  0  0  0  0  0  0
  189.9490  177.1580  140.1180 C   0  0  0  0  0  2  0  0  0  0  0  0
  186.1810  178.6780  141.5540 C   0  0  0  0  0  3  0  0  0  0  0  0
  187.9300  178.1150  138.2520 C   0  0  0  0  0  0  0  0  0  0  0  0
  186.4480  178.6580  140.1850 C   0  0  0  0  0  3  0  0  0  0  0  0
  189.2070  177.5180  137.7220 C   0  0  1  0  0  3  0  0  0  0  0  0
  187.1260  178.1940  142.4580 C   0  0  0  0  0  3  0  0  0  0  0  0
  188.6160  177.6450  140.6190 C   0  0  0  0  0  0  0  0  0  0  0  0
  192.2910  176.7520  138.5410 C   0  0  0  0  0  3  0  0  0  0  0  0
  191.2820  174.7760  137.5570 C   0  0  0  0  0  0  0  0  0  0  0  0
  193.6820  175.1130  137.4330 C   0  0  0  0  0  0  0  0  0  0  0  0
  191.1480  175.9930  138.2640 C   0  0  0  0  0  0  0  0  0  0  0  0
  192.5500  174.3470  137.1480 C   0  0  0  0  0  3  0  0  0  0  0  0
  190.1060  173.9210  137.2190 C   0  0  0  0  0  1  0  0  0  0  0  0
  194.9350  174.6780  137.0230 O   0  0  0  0  0  1  0  0  0  0  0  0
  193.5520  176.3150  138.1300 C   0  0  0  0  0  3  0  0  0  0  0  0
  189.3640  177.1770  142.9890 C   0  0  1  0  0  3  0  0  0  0  0  0
  191.6770  177.3510  143.2930 C   0  0  0  0  0  1  0  0  0  0  0  0
  190.4540  178.1260  143.1580 N   0  0  0  0  0  2  0  0  0  0  0  0
  188.7310  176.8190  144.3310 C   0  0  0  0  0  2  0  0  0  0  0  0
  188.9680  177.8210  145.2760 O   0  0  0  0  0  0  0  0  0  0  0  0
  188.1320  177.5020  146.3460 C   0  0  0  0  0  2  0  0  0  0  0  0
  186.6900  177.4470  145.8750 C   0  0  0  0  0  2  0  0  0  0  0  0
  186.0020  178.7760  146.1310 C   0  0  0  0  0  1  0  0  0  0  0  0
  1 11  1  0  0  0  0
  1 21  1  0  0  0  0
  2  8  2  0  0  0  0
  3 16  1  6  0  0  0
  3  6  1  0  0  0  0
  5  9  2  0  0  0  0
  5 12  1  0  0  0  0
  6 12  1  0  0  0  0
  7 11  2  0  0  0  0
  8  5  1  0  0  0  0
  9  7  1  0  0  0  0
 10  4  1  6  0  0  0
 10  8  1  0  0  0  0
 10  3  1  0  0  0  0
 12  1  2  0  0  0  0
 14 16  2  0  0  0  0
 15 20  1  0  0  0  0
 16 13  1  0  0  0  0
 17 15  2  0  0  0  0
 17 14  1  0  0  0  0
 18 14  1  0  0  0  0
 19 15  1  0  0  0  0
 20 13  2  0  0  0  0
 21 23  1  0  0  0  0
 21 24  1  1  0  0  0
 23 22  1  0  0  0  0
 24 25  1  0  0  0  0
 25 26  1  0  0  0  0
 27 28  1  0  0  0  0
 27 26  1  0  0  0  0
M  END
>  <MODEL>
9

>  <REMARK>
 VINA RESULT:      -8.1      3.042      8.406
  Name = 
  7 active torsions:
  status: ('A' for Active; 'I' for Inactive)
    1  A    between atoms: C_1  and  C_2
    2  A    between atoms: C_2  and  C_3
    3  A    between atoms: C_2  and  N_11
    4  A    between atoms: C_3  and  O_7
    5  A    between atoms: C_6  and  C_22
    6  A    between atoms: O_7  and  C_22
    7  A    between atoms: C_10  and  C_13
                            x       y       z     vdW  Elec       q    Type
                         _______ _______ _______ _____ _____    ______ ____

>  <TORSDO>
F 7

$$$$
