=
 OpenBabel11052417013D

 32 37  0  0  1  0  0  0  0  0999 V2000
  189.1490  176.9780  146.8180 C   0  0  2  0  0  3  0  0  0  0  0  0
  185.9070  178.2060  143.0320 C   0  0  0  0  0  0  0  0  0  0  0  0
  188.5320  177.4530  139.0280 C   0  0  0  0  0  3  0  0  0  0  0  0
  187.4550  177.7040  138.2770 C   0  0  0  0  0  3  0  0  0  0  0  0
  183.4560  178.5740  142.7710 C   0  0  0  0  0  0  0  0  0  0  0  0
  182.4000  178.8160  141.8990 C   0  0  0  0  0  0  0  0  0  0  0  0
  186.9360  177.8510  145.2210 C   0  0  0  0  0  0  0  0  0  0  0  0
  188.3110  177.8500  143.2280 C   0  0  0  0  0  3  0  0  0  0  0  0
  181.3490  179.1640  140.0100 C   0  0  0  0  0  0  0  0  0  0  0  0
  189.4470  177.5310  145.4250 C   0  0  0  0  0  2  0  0  0  0  0  0
  188.6650  178.0940  140.3800 C   0  0  0  0  0  2  0  0  0  0  0  0
  187.1810  178.0890  142.4300 C   0  0  0  0  0  0  0  0  0  0  0  0
  187.3080  178.2100  141.0370 C   0  0  0  0  0  0  0  0  0  0  0  0
  184.9540  178.5690  140.8060 C   0  0  0  0  0  0  0  0  0  0  0  0
  180.4090  179.1950  140.9820 N   0  0  0  0  0  0  0  0  0  0  0  0
  188.0560  177.8120  147.4740 C   0  0  0  0  0  2  0  0  0  0  0  0
  188.1970  177.7140  144.6110 C   0  0  0  0  0  0  0  0  0  0  0  0
  181.0520  178.9800  142.1570 C   0  0  0  0  0  3  0  0  0  0  0  0
  186.7500  177.6480  146.6990 C   0  0  0  0  0  2  0  0  0  0  0  0
  186.3890  178.6260  138.8030 C   0  0  0  0  0  2  0  0  0  0  0  0
  186.2050  178.4470  140.2540 N   0  0  0  0  0  0  0  0  0  0  0  0
  183.8370  178.8150  139.9730 C   0  0  0  0  0  3  0  0  0  0  0  0
  185.8100  178.0780  144.4290 C   0  0  0  0  0  3  0  0  0  0  0  0
  183.2010  178.4740  144.1010 F   0  0  0  0  0  0  0  0  0  0  0  0
  181.0510  179.3590  138.5640 C   0  0  0  0  0  1  0  0  0  0  0  0
  184.7700  178.4460  142.2260 C   0  0  0  0  0  0  0  0  0  0  0  0
  182.5850  178.9310  140.5570 C   0  0  0  0  0  0  0  0  0  0  0  0
  190.3050  177.0210  147.5980 O   0  0  0  0  0  0  0  0  0  0  0  0
  191.3570  176.9230  146.6850 C   0  0  0  0  0  2  0  0  0  0  0  0
  192.2250  175.7710  147.0470 C   0  0  0  0  0  0  0  0  0  0  0  0
  192.8010  175.7060  148.3090 O   0  0  0  0  0  1  0  0  0  0  0  0
  192.4610  174.8700  146.2010 O   0  0  0  0  0  0  0  0  0  0  0  0
  1 16  1  0  0  0  0
  1 28  1  1  0  0  0
  2 23  1  0  0  0  0
  3 11  1  0  0  0  0
  4 20  1  0  0  0  0
  4  3  2  0  0  0  0
  5 24  1  0  0  0  0
  6 18  1  0  0  0  0
  6  5  2  0  0  0  0
  7 19  1  0  0  0  0
  8 17  2  0  0  0  0
  9 27  2  0  0  0  0
  9 15  1  0  0  0  0
 10  1  1  0  0  0  0
 11 13  1  0  0  0  0
 12  2  1  0  0  0  0
 12  8  1  0  0  0  0
 13 12  2  0  0  0  0
 14 26  1  0  0  0  0
 15 18  2  0  0  0  0
 17  7  1  0  0  0  0
 17 10  1  0  0  0  0
 19 16  1  0  0  0  0
 20 21  1  0  0  0  0
 21 14  1  0  0  0  0
 21 13  1  0  0  0  0
 22 27  1  0  0  0  0
 22 14  2  0  0  0  0
 23  7  2  0  0  0  0
 25  9  1  0  0  0  0
 26  5  1  0  0  0  0
 26  2  2  0  0  0  0
 27  6  1  0  0  0  0
 29 30  1  0  0  0  0
 29 28  1  0  0  0  0
 30 31  1  0  0  0  0
 32 30  2  0  0  0  0
M  END
>  <MODEL>
1

>  <REMARK>
 VINA RESULT:     -10.9      0.000      0.000
  Name = 
  3 active torsions:
  status: ('A' for Active; 'I' for Inactive)
    1  A    between atoms: C_1  and  C_10
    2  A    between atoms: C_2  and  O_24
    3  A    between atoms: C_10  and  O_24
                            x       y       z     vdW  Elec       q    Type
                         _______ _______ _______ _____ _____    ______ ____

>  <TORSDO>
F 3

$$$$
=
 OpenBabel11052417013D

 32 37  0  0  1  0  0  0  0  0999 V2000
  180.9040  179.4810  141.7400 C   0  0  2  0  0  3  0  0  0  0  0  0
  185.3810  178.2480  143.9260 C   0  0  0  0  0  0  0  0  0  0  0  0
  188.5100  178.4130  140.2290 C   0  0  0  0  0  3  0  0  0  0  0  0
  189.5220  178.2020  141.0770 C   0  0  0  0  0  3  0  0  0  0  0  0
  186.3070  178.0910  146.2340 C   0  0  0  0  0  0  0  0  0  0  0  0
  187.4280  177.8780  147.0290 C   0  0  0  0  0  0  0  0  0  0  0  0
  183.0130  178.6880  143.5090 C   0  0  0  0  0  0  0  0  0  0  0  0
  184.5300  178.3930  141.6460 C   0  0  0  0  0  3  0  0  0  0  0  0
  189.5160  177.4720  147.5490 C   0  0  0  0  0  0  0  0  0  0  0  0
  182.1220  178.7870  141.1330 C   0  0  0  0  0  2  0  0  0  0  0  0
  187.1440  177.8780  140.5480 C   0  0  0  0  0  2  0  0  0  0  0  0
  185.6030  178.1950  142.5300 C   0  0  0  0  0  0  0  0  0  0  0  0
  186.8930  177.9450  142.0390 C   0  0  0  0  0  0  0  0  0  0  0  0
  187.7630  177.7910  144.2620 C   0  0  0  0  0  0  0  0  0  0  0  0
  188.8510  177.6110  148.7180 N   0  0  0  0  0  0  0  0  0  0  0  0
  180.5410  178.8110  143.0590 C   0  0  0  0  0  2  0  0  0  0  0  0
  183.2460  178.6540  142.1210 C   0  0  0  0  0  0  0  0  0  0  0  0
  187.5560  177.8630  148.4050 C   0  0  0  0  0  3  0  0  0  0  0  0
  181.6620  179.0310  144.0720 C   0  0  0  0  0  2  0  0  0  0  0  0
  189.2710  177.4310  142.3440 C   0  0  0  0  0  2  0  0  0  0  0  0
  187.9430  177.7480  142.9020 N   0  0  0  0  0  0  0  0  0  0  0  0
  188.8640  177.5820  145.1250 C   0  0  0  0  0  3  0  0  0  0  0  0
  184.0790  178.5020  144.3910 C   0  0  0  0  0  3  0  0  0  0  0  0
  185.1120  178.3270  146.8340 F   0  0  0  0  0  0  0  0  0  0  0  0
  190.9750  177.1860  147.4560 C   0  0  0  0  0  1  0  0  0  0  0  0
  186.4630  178.0490  144.8150 C   0  0  0  0  0  0  0  0  0  0  0  0
  188.6540  177.6340  146.4940 C   0  0  0  0  0  0  0  0  0  0  0  0
  179.8260  179.3950  140.8570 O   0  0  0  0  0  0  0  0  0  0  0  0
  180.3430  179.7910  139.6220 C   0  0  0  0  0  2  0  0  0  0  0  0
  180.1420  181.2540  139.4440 C   0  0  0  0  0  0  0  0  0  0  0  0
  181.0640  181.9980  138.7180 O   0  0  0  0  0  0  0  0  0  0  0  0
  179.1530  181.8220  139.9730 O   0  0  0  0  0  1  0  0  0  0  0  0
  1 28  1  6  0  0  0
  1 16  1  0  0  0  0
  2 23  1  0  0  0  0
  2 26  2  0  0  0  0
  3 11  1  0  0  0  0
  3  4  2  0  0  0  0
  4 20  1  0  0  0  0
  5 24  1  0  0  0  0
  5  6  2  0  0  0  0
  6 18  1  0  0  0  0
  7 19  1  0  0  0  0
  7 23  2  0  0  0  0
  8 17  2  0  0  0  0
  8 12  1  0  0  0  0
  9 15  1  0  0  0  0
 10  1  1  0  0  0  0
 10 17  1  0  0  0  0
 11 13  1  0  0  0  0
 12  2  1  0  0  0  0
 13 12  2  0  0  0  0
 13 21  1  0  0  0  0
 14 26  1  0  0  0  0
 14 22  2  0  0  0  0
 16 19  1  0  0  0  0
 17  7  1  0  0  0  0
 18 15  2  0  0  0  0
 20 21  1  0  0  0  0
 21 14  1  0  0  0  0
 22 27  1  0  0  0  0
 25  9  1  0  0  0  0
 26  5  1  0  0  0  0
 27  6  1  0  0  0  0
 27  9  2  0  0  0  0
 29 28  1  0  0  0  0
 30 29  1  0  0  0  0
 30 32  1  0  0  0  0
 31 30  2  0  0  0  0
M  END
>  <MODEL>
2

>  <REMARK>
 VINA RESULT:     -10.2      4.756      8.450
  Name = 
  3 active torsions:
  status: ('A' for Active; 'I' for Inactive)
    1  A    between atoms: C_1  and  C_10
    2  A    between atoms: C_2  and  O_24
    3  A    between atoms: C_10  and  O_24
                            x       y       z     vdW  Elec       q    Type
                         _______ _______ _______ _____ _____    ______ ____

>  <TORSDO>
F 3

$$$$
=
 OpenBabel11052417013D

 32 37  0  0  1  0  0  0  0  0999 V2000
  182.9170  178.3350  143.9910 C   0  0  2  0  0  3  0  0  0  0  0  0
  187.8540  177.8830  142.6600 C   0  0  0  0  0  0  0  0  0  0  0  0
  190.0620  176.9440  146.8710 C   0  0  0  0  0  3  0  0  0  0  0  0
  191.2160  176.7540  146.2220 C   0  0  0  0  0  3  0  0  0  0  0  0
  189.1610  177.5750  140.5610 C   0  0  0  0  0  0  0  0  0  0  0  0
  190.4080  177.3560  139.9850 C   0  0  0  0  0  0  0  0  0  0  0  0
  185.4410  178.2740  142.6370 C   0  0  0  0  0  0  0  0  0  0  0  0
  186.6250  178.1760  144.7460 C   0  0  0  0  0  3  0  0  0  0  0  0
  192.5680  177.0180  139.8560 C   0  0  0  0  0  0  0  0  0  0  0  0
  184.1740  178.6290  144.8090 C   0  0  0  0  0  2  0  0  0  0  0  0
  189.0300  177.8760  146.3040 C   0  0  0  0  0  2  0  0  0  0  0  0
  187.8370  177.9530  144.0730 C   0  0  0  0  0  0  0  0  0  0  0  0
  189.0320  177.7960  144.7920 C   0  0  0  0  0  0  0  0  0  0  0  0
  190.2720  177.5100  142.7670 C   0  0  0  0  0  0  0  0  0  0  0  0
  192.1050  177.0280  138.5860 N   0  0  0  0  0  0  0  0  0  0  0  0
  183.0320  178.9990  142.6250 C   0  0  0  0  0  2  0  0  0  0  0  0
  185.4300  178.3200  144.0430 C   0  0  0  0  0  0  0  0  0  0  0  0
  190.7670  177.2380  138.6560 C   0  0  0  0  0  3  0  0  0  0  0  0
  184.1710  178.3570  141.8360 C   0  0  0  0  0  2  0  0  0  0  0  0
  191.4590  177.4800  144.9270 C   0  0  0  0  0  2  0  0  0  0  0  0
  190.2190  177.5800  144.1360 N   0  0  0  0  0  0  0  0  0  0  0  0
  191.5100  177.2890  142.1200 C   0  0  0  0  0  3  0  0  0  0  0  0
  186.6420  178.0410  141.9650 C   0  0  0  0  0  3  0  0  0  0  0  0
  188.0780  177.7060  139.7520 F   0  0  0  0  0  0  0  0  0  0  0  0
  193.9990  176.8160  140.2150 C   0  0  0  0  0  1  0  0  0  0  0  0
  189.0760  177.6570  141.9850 C   0  0  0  0  0  0  0  0  0  0  0  0
  191.5330  177.2190  140.7360 C   0  0  0  0  0  0  0  0  0  0  0  0
  181.7960  178.8280  144.6600 O   0  0  0  0  0  0  0  0  0  0  0  0
  180.9450  179.2790  143.6490 C   0  0  0  0  0  2  0  0  0  0  0  0
  179.6830  178.4920  143.6710 C   0  0  0  0  0  0  0  0  0  0  0  0
  179.3140  177.7420  142.5620 O   0  0  0  0  0  0  0  0  0  0  0  0
  178.9370  178.5290  144.6830 O   0  0  0  0  0  1  0  0  0  0  0  0
  1 28  1  1  0  0  0
  1 10  1  0  0  0  0
  2 12  1  0  0  0  0
  4  3  2  0  0  0  0
  5 26  1  0  0  0  0
  6  5  2  0  0  0  0
  6 27  1  0  0  0  0
  7 17  1  0  0  0  0
  9 25  1  0  0  0  0
  9 27  2  0  0  0  0
 11  3  1  0  0  0  0
 12  8  1  0  0  0  0
 12 13  2  0  0  0  0
 13 11  1  0  0  0  0
 14 21  1  0  0  0  0
 15 18  2  0  0  0  0
 15  9  1  0  0  0  0
 16  1  1  0  0  0  0
 17  8  2  0  0  0  0
 17 10  1  0  0  0  0
 18  6  1  0  0  0  0
 19 16  1  0  0  0  0
 19  7  1  0  0  0  0
 20  4  1  0  0  0  0
 21 13  1  0  0  0  0
 21 20  1  0  0  0  0
 22 14  2  0  0  0  0
 23  7  2  0  0  0  0
 23  2  1  0  0  0  0
 24  5  1  0  0  0  0
 26  2  2  0  0  0  0
 26 14  1  0  0  0  0
 27 22  1  0  0  0  0
 29 30  1  0  0  0  0
 29 28  1  0  0  0  0
 30 32  1  0  0  0  0
 31 30  2  0  0  0  0
M  END
>  <MODEL>
3

>  <REMARK>
 VINA RESULT:      -9.9      4.421      8.302
  Name = 
  3 active torsions:
  status: ('A' for Active; 'I' for Inactive)
    1  A    between atoms: C_1  and  C_10
    2  A    between atoms: C_2  and  O_24
    3  A    between atoms: C_10  and  O_24
                            x       y       z     vdW  Elec       q    Type
                         _______ _______ _______ _____ _____    ______ ____

>  <TORSDO>
F 3

$$$$
=
 OpenBabel11052417013D

 32 37  0  0  1  0  0  0  0  0999 V2000
  191.1870  176.9580  137.3730 C   0  0  2  0  0  3  0  0  0  0  0  0
  188.4920  177.3800  141.7210 C   0  0  0  0  0  0  0  0  0  0  0  0
  191.8400  176.7750  145.1720 C   0  0  0  0  0  3  0  0  0  0  0  0
  190.9260  177.0580  146.1060 C   0  0  0  0  0  3  0  0  0  0  0  0
  186.2450  178.2120  142.4060 C   0  0  0  0  0  0  0  0  0  0  0  0
  185.3740  178.4920  143.4540 C   0  0  0  0  0  0  0  0  0  0  0  0
  189.1520  177.2220  139.3720 C   0  0  0  0  0  0  0  0  0  0  0  0
  190.7040  176.5600  141.1090 C   0  0  0  0  0  3  0  0  0  0  0  0
  184.6430  178.6680  145.5110 C   0  0  0  0  0  0  0  0  0  0  0  0
  191.4400  176.3190  138.7380 C   0  0  0  0  0  2  0  0  0  0  0  0
  191.4130  176.1570  143.8720 C   0  0  0  0  0  2  0  0  0  0  0  0
  189.7590  176.8770  142.0970 C   0  0  0  0  0  0  0  0  0  0  0  0
  190.0640  176.7010  143.4560 C   0  0  0  0  0  0  0  0  0  0  0  0
  187.8990  177.4950  144.0940 C   0  0  0  0  0  0  0  0  0  0  0  0
  183.6390  179.0920  144.7100 N   0  0  0  0  0  0  0  0  0  0  0  0
  189.7330  176.7430  136.9720 C   0  0  0  0  0  2  0  0  0  0  0  0
  190.4190  176.7430  139.7560 C   0  0  0  0  0  0  0  0  0  0  0  0
  184.0840  178.9860  143.4330 C   0  0  0  0  0  3  0  0  0  0  0  0
  188.8180  177.5000  137.9330 C   0  0  0  0  0  2  0  0  0  0  0  0
  189.4790  176.7520  145.8350 C   0  0  0  0  0  2  0  0  0  0  0  0
  189.1390  177.0080  144.4240 N   0  0  0  0  0  0  0  0  0  0  0  0
  186.9680  177.8000  145.1140 C   0  0  0  0  0  3  0  0  0  0  0  0
  188.2140  177.5490  140.3530 C   0  0  0  0  0  3  0  0  0  0  0  0
  185.8290  178.4310  141.1310 F   0  0  0  0  0  0  0  0  0  0  0  0
  184.5560  178.6280  146.9970 C   0  0  0  0  0  1  0  0  0  0  0  0
  187.5410  177.7000  142.7180 C   0  0  0  0  0  0  0  0  0  0  0  0
  185.7240  178.2940  144.7530 C   0  0  0  0  0  0  0  0  0  0  0  0
  192.0270  176.3790  136.4210 O   0  0  0  0  0  0  0  0  0  0  0  0
  193.2340  176.1660  137.0910 C   0  0  0  0  0  2  0  0  0  0  0  0
  194.3360  176.0310  136.1020 C   0  0  0  0  0  0  0  0  0  0  0  0
  195.0680  177.1480  135.7220 O   0  0  0  0  0  1  0  0  0  0  0  0
  194.5860  174.9100  135.5880 O   0  0  0  0  0  0  0  0  0  0  0  0
  1 28  1  6  0  0  0
  1 10  1  0  0  0  0
  2 12  1  0  0  0  0
  2 26  2  0  0  0  0
  3  4  2  0  0  0  0
  5 26  1  0  0  0  0
  5  6  2  0  0  0  0
  6 27  1  0  0  0  0
  7 17  1  0  0  0  0
  7 23  2  0  0  0  0
  8 12  1  0  0  0  0
  9 25  1  0  0  0  0
 10 17  1  0  0  0  0
 11  3  1  0  0  0  0
 12 13  2  0  0  0  0
 13 11  1  0  0  0  0
 13 21  1  0  0  0  0
 14 21  1  0  0  0  0
 14 22  2  0  0  0  0
 15  9  1  0  0  0  0
 16  1  1  0  0  0  0
 16 19  1  0  0  0  0
 17  8  2  0  0  0  0
 18  6  1  0  0  0  0
 18 15  2  0  0  0  0
 19  7  1  0  0  0  0
 20  4  1  0  0  0  0
 21 20  1  0  0  0  0
 23  2  1  0  0  0  0
 24  5  1  0  0  0  0
 26 14  1  0  0  0  0
 27 22  1  0  0  0  0
 27  9  2  0  0  0  0
 28 29  1  0  0  0  0
 30 29  1  0  0  0  0
 31 30  1  0  0  0  0
 32 30  2  0  0  0  0
M  END
>  <MODEL>
4

>  <REMARK>
 VINA RESULT:      -9.7      4.194      7.145
  Name = 
  3 active torsions:
  status: ('A' for Active; 'I' for Inactive)
    1  A    between atoms: C_1  and  C_10
    2  A    between atoms: C_2  and  O_24
    3  A    between atoms: C_10  and  O_24
                            x       y       z     vdW  Elec       q    Type
                         _______ _______ _______ _____ _____    ______ ____

>  <TORSDO>
F 3

$$$$
=
 OpenBabel11052417013D

 32 37  0  0  1  0  0  0  0  0999 V2000
  192.1410  177.5250  139.9790 C   0  0  2  0  0  3  0  0  0  0  0  0
  187.5040  177.8790  142.1510 C   0  0  0  0  0  0  0  0  0  0  0  0
  188.4960  177.9320  146.8940 C   0  0  0  0  0  3  0  0  0  0  0  0
  187.2040  178.1560  147.1600 C   0  0  0  0  0  3  0  0  0  0  0  0
  185.1880  178.4590  141.4350 C   0  0  0  0  0  0  0  0  0  0  0  0
  183.8730  178.6930  141.8190 C   0  0  0  0  0  0  0  0  0  0  0  0
  189.3360  177.6560  140.5480 C   0  0  0  0  0  0  0  0  0  0  0  0
  189.7510  177.3110  142.9090 C   0  0  0  0  0  3  0  0  0  0  0  0
  182.1370  178.9070  143.1380 C   0  0  0  0  0  0  0  0  0  0  0  0
  191.6640  177.0140  141.3370 C   0  0  0  0  0  2  0  0  0  0  0  0
  188.8840  177.1810  145.6530 C   0  0  0  0  0  2  0  0  0  0  0  0
  188.4010  177.5680  143.1990 C   0  0  0  0  0  0  0  0  0  0  0  0
  187.9370  177.5200  144.5220 C   0  0  0  0  0  0  0  0  0  0  0  0
  185.7190  178.0710  143.8160 C   0  0  0  0  0  0  0  0  0  0  0  0
  181.6960  179.1470  141.8820 N   0  0  0  0  0  0  0  0  0  0  0  0
  191.1540  177.1010  138.8990 C   0  0  0  0  0  2  0  0  0  0  0  0
  190.2270  177.3690  141.6000 C   0  0  0  0  0  0  0  0  0  0  0  0
  182.7650  179.0150  141.0580 C   0  0  0  0  0  3  0  0  0  0  0  0
  189.8120  177.7950  139.1290 C   0  0  0  0  0  2  0  0  0  0  0  0
  186.1580  177.6500  146.2050 C   0  0  0  0  0  2  0  0  0  0  0  0
  186.6170  177.7690  144.8080 N   0  0  0  0  0  0  0  0  0  0  0  0
  184.3650  178.3190  144.1420 C   0  0  0  0  0  3  0  0  0  0  0  0
  187.9970  177.9230  140.8350 C   0  0  0  0  0  3  0  0  0  0  0  0
  185.5120  178.5410  140.1180 F   0  0  0  0  0  0  0  0  0  0  0  0
  181.2650  178.9520  144.3440 C   0  0  0  0  0  1  0  0  0  0  0  0
  186.1450  178.1390  142.4460 C   0  0  0  0  0  0  0  0  0  0  0  0
  183.4800  178.6260  143.1190 C   0  0  0  0  0  0  0  0  0  0  0  0
  193.4020  176.9980  139.6950 O   0  0  0  0  0  0  0  0  0  0  0  0
  193.2600  176.3800  138.4510 C   0  0  0  0  0  2  0  0  0  0  0  0
  194.2230  175.2520  138.3430 C   0  0  0  0  0  0  0  0  0  0  0  0
  193.9460  174.1820  137.5020 O   0  0  0  0  0  0  0  0  0  0  0  0
  195.2750  175.2530  139.0330 O   0  0  0  0  0  1  0  0  0  0  0  0
  1 28  1  6  0  0  0
  1 10  1  0  0  0  0
  2 26  2  0  0  0  0
  2 12  1  0  0  0  0
  3  4  2  0  0  0  0
  5  6  2  0  0  0  0
  5 26  1  0  0  0  0
  6 27  1  0  0  0  0
  7 23  2  0  0  0  0
  7 17  1  0  0  0  0
  8 12  1  0  0  0  0
  9 25  1  0  0  0  0
 10 17  1  0  0  0  0
 11  3  1  0  0  0  0
 12 13  2  0  0  0  0
 13 21  1  0  0  0  0
 13 11  1  0  0  0  0
 14 22  2  0  0  0  0
 14 21  1  0  0  0  0
 15  9  1  0  0  0  0
 16 19  1  0  0  0  0
 16  1  1  0  0  0  0
 17  8  2  0  0  0  0
 18  6  1  0  0  0  0
 18 15  2  0  0  0  0
 19  7  1  0  0  0  0
 20  4  1  0  0  0  0
 21 20  1  0  0  0  0
 23  2  1  0  0  0  0
 24  5  1  0  0  0  0
 26 14  1  0  0  0  0
 27  9  2  0  0  0  0
 27 22  1  0  0  0  0
 29 28  1  0  0  0  0
 30 29  1  0  0  0  0
 30 32  1  0  0  0  0
 31 30  2  0  0  0  0
M  END
>  <MODEL>
5

>  <REMARK>
 VINA RESULT:      -9.7      3.292      5.796
  Name = 
  3 active torsions:
  status: ('A' for Active; 'I' for Inactive)
    1  A    between atoms: C_1  and  C_10
    2  A    between atoms: C_2  and  O_24
    3  A    between atoms: C_10  and  O_24
                            x       y       z     vdW  Elec       q    Type
                         _______ _______ _______ _____ _____    ______ ____

>  <TORSDO>
F 3

$$$$
=
 OpenBabel11052417013D

 32 37  0  0  1  0  0  0  0  0999 V2000
  190.4360  177.0210  145.1490 C   0  0  2  0  0  3  0  0  0  0  0  0
  186.6790  178.2060  141.8590 C   0  0  0  0  0  0  0  0  0  0  0  0
  188.7390  177.5300  137.5240 C   0  0  0  0  0  3  0  0  0  0  0  0
  187.5640  177.7630  136.9310 C   0  0  0  0  0  3  0  0  0  0  0  0
  184.2090  178.5260  141.9410 C   0  0  0  0  0  0  0  0  0  0  0  0
  183.0380  178.7510  141.2260 C   0  0  0  0  0  0  0  0  0  0  0  0
  188.0080  177.8590  143.8810 C   0  0  0  0  0  0  0  0  0  0  0  0
  189.0940  177.8970  141.7180 C   0  0  0  0  0  3  0  0  0  0  0  0
  181.7290  179.0900  139.5030 C   0  0  0  0  0  0  0  0  0  0  0  0
  190.5290  177.5880  143.7340 C   0  0  0  0  0  2  0  0  0  0  0  0
  189.0460  178.1650  138.8500 C   0  0  0  0  0  2  0  0  0  0  0  0
  187.8600  178.1180  141.0850 C   0  0  0  0  0  0  0  0  0  0  0  0
  187.7900  178.2500  139.6890 C   0  0  0  0  0  0  0  0  0  0  0  0
  185.4210  178.5630  139.7890 C   0  0  0  0  0  0  0  0  0  0  0  0
  180.9330  179.0950  140.5960 N   0  0  0  0  0  0  0  0  0  0  0  0
  189.4290  177.8290  145.9570 C   0  0  0  0  0  2  0  0  0  0  0  0
  189.1750  177.7510  143.1020 C   0  0  0  0  0  0  0  0  0  0  0  0
  181.7360  178.8870  141.6690 C   0  0  0  0  0  3  0  0  0  0  0  0
  188.0320  177.6430  145.3690 C   0  0  0  0  0  2  0  0  0  0  0  0
  186.5640  178.6610  137.6070 C   0  0  0  0  0  2  0  0  0  0  0  0
  186.5850  178.4690  139.0680 N   0  0  0  0  0  0  0  0  0  0  0  0
  184.1950  178.7910  139.1200 C   0  0  0  0  0  3  0  0  0  0  0  0
  186.7790  178.0670  143.2540 C   0  0  0  0  0  3  0  0  0  0  0  0
  184.1420  178.4120  143.2930 F   0  0  0  0  0  0  0  0  0  0  0  0
  181.2300  179.2870  138.1140 C   0  0  0  0  0  1  0  0  0  0  0  0
  185.4380  178.4280  141.2190 C   0  0  0  0  0  0  0  0  0  0  0  0
  183.0340  178.8780  139.8730 C   0  0  0  0  0  0  0  0  0  0  0  0
  191.6880  177.0830  145.7620 O   0  0  0  0  0  0  0  0  0  0  0  0
  191.4340  176.8630  147.1180 C   0  0  0  0  0  2  0  0  0  0  0  0
  192.4480  175.9250  147.6690 C   0  0  0  0  0  0  0  0  0  0  0  0
  193.0160  176.1700  148.9130 O   0  0  0  0  0  1  0  0  0  0  0  0
  192.8120  174.9260  146.9980 O   0  0  0  0  0  0  0  0  0  0  0  0
  1 28  1  1  0  0  0
  1 16  1  0  0  0  0
  2 23  1  0  0  0  0
  3 11  1  0  0  0  0
  4  3  2  0  0  0  0
  4 20  1  0  0  0  0
  5 24  1  0  0  0  0
  6 18  1  0  0  0  0
  6  5  2  0  0  0  0
  7 19  1  0  0  0  0
  8 17  2  0  0  0  0
  9 27  2  0  0  0  0
  9 15  1  0  0  0  0
 10  1  1  0  0  0  0
 11 13  1  0  0  0  0
 12  8  1  0  0  0  0
 12  2  1  0  0  0  0
 13 12  2  0  0  0  0
 14 26  1  0  0  0  0
 15 18  2  0  0  0  0
 17 10  1  0  0  0  0
 17  7  1  0  0  0  0
 19 16  1  0  0  0  0
 20 21  1  0  0  0  0
 21 13  1  0  0  0  0
 21 14  1  0  0  0  0
 22 14  2  0  0  0  0
 22 27  1  0  0  0  0
 23  7  2  0  0  0  0
 25  9  1  0  0  0  0
 26  2  2  0  0  0  0
 26  5  1  0  0  0  0
 27  6  1  0  0  0  0
 28 29  1  0  0  0  0
 29 30  1  0  0  0  0
 30 31  1  0  0  0  0
 32 30  2  0  0  0  0
M  END
>  <MODEL>
6

>  <REMARK>
 VINA RESULT:      -9.3      1.080      1.374
  Name = 
  3 active torsions:
  status: ('A' for Active; 'I' for Inactive)
    1  A    between atoms: C_1  and  C_10
    2  A    between atoms: C_2  and  O_24
    3  A    between atoms: C_10  and  O_24
                            x       y       z     vdW  Elec       q    Type
                         _______ _______ _______ _____ _____    ______ ____

>  <TORSDO>
F 3

$$$$
=
 OpenBabel11052417013D

 32 37  0  0  1  0  0  0  0  0999 V2000
  188.7770  177.1870  137.0700 C   0  0  2  0  0  3  0  0  0  0  0  0
  188.2930  177.7510  142.1490 C   0  0  0  0  0  0  0  0  0  0  0  0
  183.5590  178.6100  142.7300 C   0  0  0  0  0  3  0  0  0  0  0  0
  183.7170  178.5730  144.0570 C   0  0  0  0  0  3  0  0  0  0  0  0
  189.6490  177.2580  144.1810 C   0  0  0  0  0  0  0  0  0  0  0  0
  189.7040  177.2390  145.5700 C   0  0  0  0  0  0  0  0  0  0  0  0
  189.1870  177.4520  139.8930 C   0  0  0  0  0  0  0  0  0  0  0  0
  186.9200  178.2480  140.1960 C   0  0  0  0  0  3  0  0  0  0  0  0
  189.0420  177.4780  147.6440 C   0  0  0  0  0  0  0  0  0  0  0  0
  187.7700  178.0190  137.8630 C   0  0  0  0  0  2  0  0  0  0  0  0
  184.7000  179.0390  141.8530 C   0  0  0  0  0  2  0  0  0  0  0  0
  187.0700  178.1890  141.5910 C   0  0  0  0  0  0  0  0  0  0  0  0
  186.0120  178.5610  142.4360 C   0  0  0  0  0  0  0  0  0  0  0  0
  187.3310  178.0900  144.3750 C   0  0  0  0  0  0  0  0  0  0  0  0
  190.3130  177.0210  147.6980 N   0  0  0  0  0  0  0  0  0  0  0  0
  190.1840  177.4660  137.5830 C   0  0  0  0  0  2  0  0  0  0  0  0
  187.9580  177.8680  139.3460 C   0  0  0  0  0  0  0  0  0  0  0  0
  190.7320  176.8710  146.4170 C   0  0  0  0  0  3  0  0  0  0  0  0
  190.3130  176.9700  139.0220 C   0  0  0  0  0  2  0  0  0  0  0  0
  185.0430  178.9630  144.6510 C   0  0  0  0  0  2  0  0  0  0  0  0
  186.1570  178.5080  143.8000 N   0  0  0  0  0  0  0  0  0  0  0  0
  187.4500  178.0480  145.7840 C   0  0  0  0  0  3  0  0  0  0  0  0
  189.3340  177.3820  141.2790 C   0  0  0  0  0  3  0  0  0  0  0  0
  190.7430  176.8690  143.4750 F   0  0  0  0  0  0  0  0  0  0  0  0
  188.2160  177.7740  148.8470 C   0  0  0  0  0  1  0  0  0  0  0  0
  188.4410  177.6920  143.5540 C   0  0  0  0  0  0  0  0  0  0  0  0
  188.6470  177.6180  146.3370 C   0  0  0  0  0  0  0  0  0  0  0  0
  188.6970  177.5180  135.7170 O   0  0  0  0  0  0  0  0  0  0  0  0
  188.8860  176.3110  135.0410 C   0  0  0  0  0  2  0  0  0  0  0  0
  187.6130  175.5430  135.0260 C   0  0  0  0  0  0  0  0  0  0  0  0
  187.5940  174.2240  135.4610 O   0  0  0  0  0  1  0  0  0  0  0  0
  186.5600  176.0770  134.5930 O   0  0  0  0  0  0  0  0  0  0  0  0
  1 28  1  6  0  0  0
  1 16  1  0  0  0  0
  1 10  1  0  0  0  0
  2 26  2  0  0  0  0
  3  4  2  0  0  0  0
  4 20  1  0  0  0  0
  5  6  2  0  0  0  0
  6 27  1  0  0  0  0
  6 18  1  0  0  0  0
  7 23  2  0  0  0  0
  8 12  1  0  0  0  0
  9 15  1  0  0  0  0
  9 25  1  0  0  0  0
 10 17  1  0  0  0  0
 11 13  1  0  0  0  0
 11  3  1  0  0  0  0
 12  2  1  0  0  0  0
 12 13  2  0  0  0  0
 13 21  1  0  0  0  0
 14 22  2  0  0  0  0
 16 19  1  0  0  0  0
 17  7  1  0  0  0  0
 17  8  2  0  0  0  0
 18 15  2  0  0  0  0
 19  7  1  0  0  0  0
 21 14  1  0  0  0  0
 21 20  1  0  0  0  0
 22 27  1  0  0  0  0
 23  2  1  0  0  0  0
 24  5  1  0  0  0  0
 26  5  1  0  0  0  0
 26 14  1  0  0  0  0
 27  9  2  0  0  0  0
 29 28  1  0  0  0  0
 30 29  1  0  0  0  0
 30 31  1  0  0  0  0
 32 30  2  0  0  0  0
M  END
>  <MODEL>
7

>  <REMARK>
 VINA RESULT:      -9.2      4.499      8.438
  Name = 
  3 active torsions:
  status: ('A' for Active; 'I' for Inactive)
    1  A    between atoms: C_1  and  C_10
    2  A    between atoms: C_2  and  O_24
    3  A    between atoms: C_10  and  O_24
                            x       y       z     vdW  Elec       q    Type
                         _______ _______ _______ _____ _____    ______ ____

>  <TORSDO>
F 3

$$$$
=
 OpenBabel11052417013D

 32 37  0  0  1  0  0  0  0  0999 V2000
  188.9040  177.9880  136.1070 C   0  0  2  0  0  3  0  0  0  0  0  0
  187.5910  177.9250  141.0690 C   0  0  0  0  0  0  0  0  0  0  0  0
  191.8470  177.4770  143.3430 C   0  0  0  0  0  3  0  0  0  0  0  0
  191.2310  177.6220  144.5210 C   0  0  0  0  0  3  0  0  0  0  0  0
  185.5890  178.4980  142.4380 C   0  0  0  0  0  0  0  0  0  0  0  0
  185.0490  178.6390  143.7120 C   0  0  0  0  0  0  0  0  0  0  0  0
  187.5380  177.9510  138.6250 C   0  0  0  0  0  0  0  0  0  0  0  0
  189.5810  177.3570  139.7800 C   0  0  0  0  0  3  0  0  0  0  0  0
  184.9470  178.6390  145.8990 C   0  0  0  0  0  0  0  0  0  0  0  0
  189.5990  177.3090  137.2860 C   0  0  0  0  0  2  0  0  0  0  0  0
  191.1040  176.8860  142.1790 C   0  0  0  0  0  2  0  0  0  0  0  0
  188.9480  177.5300  141.0210 C   0  0  0  0  0  0  0  0  0  0  0  0
  189.6540  177.3160  142.2150 C   0  0  0  0  0  0  0  0  0  0  0  0
  187.7200  177.8620  143.5130 C   0  0  0  0  0  0  0  0  0  0  0  0
  183.7210  179.0030  145.4590 N   0  0  0  0  0  0  0  0  0  0  0  0
  187.4190  177.6530  136.1300 C   0  0  0  0  0  2  0  0  0  0  0  0
  188.8950  177.5790  138.5870 C   0  0  0  0  0  0  0  0  0  0  0  0
  183.7750  179.0050  144.1040 C   0  0  0  0  0  3  0  0  0  0  0  0
  186.7730  178.2670  137.3700 C   0  0  0  0  0  2  0  0  0  0  0  0
  189.7970  177.1900  144.6590 C   0  0  0  0  0  2  0  0  0  0  0  0
  189.0360  177.4820  143.4300 N   0  0  0  0  0  0  0  0  0  0  0  0
  187.1120  178.0230  144.7800 C   0  0  0  0  0  3  0  0  0  0  0  0
  186.9090  178.1350  139.8570 C   0  0  0  0  0  3  0  0  0  0  0  0
  184.8000  178.7390  141.3590 F   0  0  0  0  0  0  0  0  0  0  0  0
  185.3070  178.5150  147.3390 C   0  0  0  0  0  1  0  0  0  0  0  0
  186.9560  178.1000  142.3200 C   0  0  0  0  0  0  0  0  0  0  0  0
  185.7810  178.4100  144.8340 C   0  0  0  0  0  0  0  0  0  0  0  0
  189.4680  177.5430  134.9110 O   0  0  0  0  0  0  0  0  0  0  0  0
  190.4380  176.6150  135.2960 C   0  0  0  0  0  2  0  0  0  0  0  0
  190.0440  175.2590  134.8300 C   0  0  0  0  0  0  0  0  0  0  0  0
  191.0140  174.2860  134.6250 O   0  0  0  0  0  1  0  0  0  0  0  0
  188.8360  175.0010  134.5940 O   0  0  0  0  0  0  0  0  0  0  0  0
  1 28  1  6  0  0  0
  1 16  1  0  0  0  0
  1 10  1  0  0  0  0
  2 26  2  0  0  0  0
  3  4  2  0  0  0  0
  4 20  1  0  0  0  0
  5  6  2  0  0  0  0
  6 18  1  0  0  0  0
  6 27  1  0  0  0  0
  7 23  2  0  0  0  0
  8 12  1  0  0  0  0
  9 25  1  0  0  0  0
 10 17  1  0  0  0  0
 11 13  1  0  0  0  0
 11  3  1  0  0  0  0
 12  2  1  0  0  0  0
 12 13  2  0  0  0  0
 13 21  1  0  0  0  0
 14 22  2  0  0  0  0
 15  9  1  0  0  0  0
 16 19  1  0  0  0  0
 17  7  1  0  0  0  0
 17  8  2  0  0  0  0
 18 15  2  0  0  0  0
 19  7  1  0  0  0  0
 21 14  1  0  0  0  0
 21 20  1  0  0  0  0
 22 27  1  0  0  0  0
 23  2  1  0  0  0  0
 24  5  1  0  0  0  0
 26  5  1  0  0  0  0
 26 14  1  0  0  0  0
 27  9  2  0  0  0  0
 28 29  1  0  0  0  0
 30 29  1  0  0  0  0
 31 30  1  0  0  0  0
 32 30  2  0  0  0  0
M  END
>  <MODEL>
8

>  <REMARK>
 VINA RESULT:      -9.0      4.658      7.453
  Name = 
  3 active torsions:
  status: ('A' for Active; 'I' for Inactive)
    1  A    between atoms: C_1  and  C_10
    2  A    between atoms: C_2  and  O_24
    3  A    between atoms: C_10  and  O_24
                            x       y       z     vdW  Elec       q    Type
                         _______ _______ _______ _____ _____    ______ ____

>  <TORSDO>
F 3

$$$$
=
 OpenBabel11052417013D

 32 37  0  0  1  0  0  0  0  0999 V2000
  192.5680  176.7990  137.5970 C   0  0  2  0  0  3  0  0  0  0  0  0
  188.9280  177.3950  141.1670 C   0  0  0  0  0  0  0  0  0  0  0  0
  191.3970  177.1390  145.3300 C   0  0  0  0  0  3  0  0  0  0  0  0
  190.2850  177.4460  146.0060 C   0  0  0  0  0  3  0  0  0  0  0  0
  186.5660  178.1830  141.2560 C   0  0  0  0  0  0  0  0  0  0  0  0
  185.4700  178.4970  142.0530 C   0  0  0  0  0  0  0  0  0  0  0  0
  190.1190  177.1130  139.0510 C   0  0  0  0  0  0  0  0  0  0  0  0
  191.2400  176.6220  141.1400 C   0  0  0  0  0  3  0  0  0  0  0  0
  184.2780  178.7760  143.8690 C   0  0  0  0  0  0  0  0  0  0  0  0
  192.5110  176.2590  139.0250 C   0  0  0  0  0  2  0  0  0  0  0  0
  191.2960  176.4230  144.0130 C   0  0  0  0  0  2  0  0  0  0  0  0
  190.0840  176.9660  141.8590 C   0  0  0  0  0  0  0  0  0  0  0  0
  190.0690  176.8880  143.2600 C   0  0  0  0  0  0  0  0  0  0  0  0
  187.7990  177.6390  143.3260 C   0  0  0  0  0  0  0  0  0  0  0  0
  183.4780  179.1100  142.8310 N   0  0  0  0  0  0  0  0  0  0  0  0
  191.2520  176.5050  136.8880 C   0  0  0  0  0  2  0  0  0  0  0  0
  191.2720  176.7080  139.7490 C   0  0  0  0  0  0  0  0  0  0  0  0
  184.2090  178.9390  141.7010 C   0  0  0  0  0  3  0  0  0  0  0  0
  190.1220  177.2850  137.5570 C   0  0  0  0  0  2  0  0  0  0  0  0
  188.9470  177.0690  145.4320 C   0  0  0  0  0  2  0  0  0  0  0  0
  188.9390  177.2210  143.9650 N   0  0  0  0  0  0  0  0  0  0  0  0
  186.6500  177.9730  144.0800 C   0  0  0  0  0  3  0  0  0  0  0  0
  188.9720  177.4660  139.7630 C   0  0  0  0  0  3  0  0  0  0  0  0
  186.4530  178.3050  139.9080 F   0  0  0  0  0  0  0  0  0  0  0  0
  183.8490  178.8270  145.2940 C   0  0  0  0  0  1  0  0  0  0  0  0
  187.7650  177.7420  141.8930 C   0  0  0  0  0  0  0  0  0  0  0  0
  185.5130  178.3950  143.4080 C   0  0  0  0  0  0  0  0  0  0  0  0
  193.6180  176.1930  136.9070 O   0  0  0  0  0  0  0  0  0  0  0  0
  193.9750  175.0950  137.6930 C   0  0  0  0  0  2  0  0  0  0  0  0
  195.2590  174.5270  137.2020 C   0  0  0  0  0  0  0  0  0  0  0  0
  195.2680  173.3170  136.5200 O   0  0  0  0  0  0  0  0  0  0  0  0
  196.3410  175.1280  137.4290 O   0  0  0  0  0  1  0  0  0  0  0  0
  1 28  1  6  0  0  0
  1 10  1  0  0  0  0
  2 12  1  0  0  0  0
  2 26  2  0  0  0  0
  3  4  2  0  0  0  0
  5 26  1  0  0  0  0
  5  6  2  0  0  0  0
  6 27  1  0  0  0  0
  7 17  1  0  0  0  0
  7 23  2  0  0  0  0
  8 12  1  0  0  0  0
  9 25  1  0  0  0  0
 10 17  1  0  0  0  0
 11  3  1  0  0  0  0
 12 13  2  0  0  0  0
 13 21  1  0  0  0  0
 13 11  1  0  0  0  0
 14 21  1  0  0  0  0
 14 22  2  0  0  0  0
 15  9  1  0  0  0  0
 16 19  1  0  0  0  0
 16  1  1  0  0  0  0
 17  8  2  0  0  0  0
 18  6  1  0  0  0  0
 18 15  2  0  0  0  0
 19  7  1  0  0  0  0
 20  4  1  0  0  0  0
 21 20  1  0  0  0  0
 23  2  1  0  0  0  0
 24  5  1  0  0  0  0
 26 14  1  0  0  0  0
 27  9  2  0  0  0  0
 27 22  1  0  0  0  0
 28 29  1  0  0  0  0
 30 32  1  0  0  0  0
 30 29  1  0  0  0  0
 31 30  2  0  0  0  0
M  END
>  <MODEL>
9

>  <REMARK>
 VINA RESULT:      -8.9      4.147      6.924
  Name = 
  3 active torsions:
  status: ('A' for Active; 'I' for Inactive)
    1  A    between atoms: C_1  and  C_10
    2  A    between atoms: C_2  and  O_24
    3  A    between atoms: C_10  and  O_24
                            x       y       z     vdW  Elec       q    Type
                         _______ _______ _______ _____ _____    ______ ____

>  <TORSDO>
F 3

$$$$
