=
 OpenBabel11052414373D

 32 36  0  0  1  0  0  0  0  0999 V2000
  184.5810  178.4910  143.2230 C   0  0  0  0  0  0  0  0  0  0  0  0
  186.9830  177.7620  143.3780 C   0  0  0  0  0  0  0  0  0  0  0  0
  183.2210  178.2970  143.8600 C   0  0  0  0  0  2  0  0  0  0  0  0
  185.7260  178.0440  144.0290 N   0  0  0  0  0  0  0  0  0  0  0  0
  188.0260  177.1700  144.1040 C   0  0  0  0  0  3  0  0  0  0  0  0
  189.8440  177.7040  139.4300 C   0  0  0  0  0  3  0  0  0  0  0  0
  187.1640  178.0400  142.0010 C   0  0  0  0  0  0  0  0  0  0  0  0
  190.6580  176.8390  141.5390 C   0  0  0  0  0  3  0  0  0  0  0  0
  189.4330  177.1440  142.1410 C   0  0  0  0  0  0  0  0  0  0  0  0
  189.2420  176.8650  143.4930 C   0  0  0  0  0  3  0  0  0  0  0  0
  186.0690  178.7190  141.2180 C   0  0  0  0  0  2  0  0  0  0  0  0
  184.6860  178.2890  141.7030 C   0  0  2  0  0  3  0  0  0  0  0  0
  188.3960  177.7380  141.3840 C   0  0  0  0  0  0  0  0  0  0  0  0
  183.8410  179.6930  143.7730 C   0  0  0  0  0  2  0  0  0  0  0  0
  190.8620  177.1180  140.1860 C   0  0  0  0  0  3  0  0  0  0  0  0
  188.6180  178.0130  140.0240 C   0  0  0  0  0  3  0  0  0  0  0  0
  181.1960  178.3650  139.9870 C   0  0  1  0  0  3  0  0  0  0  0  0
  181.2390  180.9320  137.6200 C   0  0  0  0  0  1  0  0  0  0  0  0
  180.3300  178.1510  141.0460 F   0  0  0  0  0  0  0  0  0  0  0  0
  183.3340  180.2730  138.7430 C   0  0  0  0  0  3  0  0  0  0  0  0
  183.5410  178.8910  140.8650 C   0  0  1  0  0  3  0  0  0  0  0  0
  181.2100  179.7400  139.6850 O   0  0  0  0  0  0  0  0  0  0  0  0
  184.0610  179.8050  139.7700 C   0  0  0  0  0  3  0  0  0  0  0  0
  182.5980  177.8060  140.3180 C   0  0  1  0  0  3  0  0  0  0  0  0
  182.4870  176.7340  141.1900 F   0  0  0  0  0  0  0  0  0  0  0  0
  181.9080  179.8780  138.4790 C   0  0  1  0  0  3  0  0  0  0  0  0
  185.5530  177.7020  145.3370 O   0  0  0  0  0  0  0  0  0  0  0  0
  186.3400  178.5970  146.0770 C   0  0  1  0  0  3  0  0  0  0  0  0
  185.5920  179.7320  146.3950 O   0  0  0  0  0  1  0  0  0  0  0  0
  186.8600  177.9350  147.3490 C   0  0  0  0  0  2  0  0  0  0  0  0
  188.9890  178.2980  148.4960 C   0  0  0  0  0  2  0  0  0  0  0  0
  188.3530  177.9150  147.3940 C   0  0  0  0  0  3  0  0  0  0  0  0
  1 14  1  0  0  0  0
  1  3  1  0  0  0  0
  1  4  1  0  0  0  0
  2  4  1  0  0  0  0
  2  5  1  0  0  0  0
  4 27  1  0  0  0  0
  6 16  2  0  0  0  0
  6 15  1  0  0  0  0
  7  2  2  0  0  0  0
  8  9  1  0  0  0  0
  9 10  1  0  0  0  0
 10  5  2  0  0  0  0
 11  7  1  0  0  0  0
 12 11  1  6  0  0  0
 12  1  1  0  0  0  0
 13  7  1  0  0  0  0
 13  9  2  0  0  0  0
 14  3  1  0  0  0  0
 15  8  2  0  0  0  0
 16 13  1  0  0  0  0
 17 24  1  0  0  0  0
 17 19  1  1  0  0  0
 20 23  2  0  0  0  0
 21 23  1  6  0  0  0
 21 12  1  0  0  0  0
 22 17  1  0  0  0  0
 24 21  1  0  0  0  0
 24 25  1  1  0  0  0
 26 18  1  6  0  0  0
 26 20  1  0  0  0  0
 26 22  1  0  0  0  0
 27 28  1  0  0  0  0
 28 29  1  1  0  0  0
 28 30  1  0  0  0  0
 30 32  1  0  0  0  0
 32 31  2  0  0  0  0
M  END
>  <MODEL>
1

>  <REMARK>
 VINA RESULT:      -8.5      0.000      0.000
  Name = 
  5 active torsions:
  status: ('A' for Active; 'I' for Inactive)
    1  A    between atoms: N_5  and  O_14
    2  A    between atoms: C_13  and  C_18
    3  A    between atoms: C_13  and  C_29
    4  A    between atoms: O_14  and  C_18
    5  A    between atoms: C_16  and  C_27
                            x       y       z     vdW  Elec       q    Type
                         _______ _______ _______ _____ _____    ______ ____

>  <TORSDO>
F 5

$$$$
=
 OpenBabel11052414373D

 32 36  0  0  1  0  0  0  0  0999 V2000
  189.6520  177.7840  143.0300 C   0  0  0  0  0  0  0  0  0  0  0  0
  187.5970  178.1380  144.4350 C   0  0  0  0  0  0  0  0  0  0  0  0
  191.1430  178.0490  142.9910 C   0  0  0  0  0  2  0  0  0  0  0  0
  189.0210  177.9230  144.3510 N   0  0  0  0  0  0  0  0  0  0  0  0
  187.0110  178.4460  145.6710 C   0  0  0  0  0  3  0  0  0  0  0  0
  183.1880  178.4890  142.3800 C   0  0  0  0  0  3  0  0  0  0  0  0
  186.7860  178.0820  143.2740 C   0  0  0  0  0  0  0  0  0  0  0  0
  183.4590  178.8540  144.7580 C   0  0  0  0  0  3  0  0  0  0  0  0
  184.8320  178.6200  144.6420 C   0  0  0  0  0  0  0  0  0  0  0  0
  185.6410  178.6830  145.7750 C   0  0  0  0  0  3  0  0  0  0  0  0
  187.3920  177.7070  141.9470 C   0  0  0  0  0  2  0  0  0  0  0  0
  188.8210  178.2310  141.8170 C   0  0  2  0  0  3  0  0  0  0  0  0
  185.3980  178.3150  143.3810 C   0  0  0  0  0  0  0  0  0  0  0  0
  190.6100  176.6180  142.8970 C   0  0  0  0  0  2  0  0  0  0  0  0
  182.6390  178.7890  143.6290 C   0  0  0  0  0  3  0  0  0  0  0  0
  184.5590  178.2530  142.2560 C   0  0  0  0  0  3  0  0  0  0  0  0
  189.0550  178.3320  137.9360 C   0  0  1  0  0  3  0  0  0  0  0  0
  191.3630  175.9020  136.9540 C   0  0  0  0  0  1  0  0  0  0  0  0
  189.0290  179.6890  137.6630 F   0  0  0  0  0  0  0  0  0  0  0  0
  190.6240  176.0030  139.3040 C   0  0  0  0  0  3  0  0  0  0  0  0
  189.4430  177.9480  140.4350 C   0  0  1  0  0  3  0  0  0  0  0  0
  190.3880  177.8810  137.8570 O   0  0  0  0  0  0  0  0  0  0  0  0
  190.1920  176.6280  140.4120 C   0  0  0  0  0  3  0  0  0  0  0  0
  188.4030  178.0470  139.3070 C   0  0  1  0  0  3  0  0  0  0  0  0
  187.4370  179.0030  139.5810 F   0  0  0  0  0  0  0  0  0  0  0  0
  190.3410  176.4830  137.9090 C   0  0  1  0  0  3  0  0  0  0  0  0
  189.7900  178.0520  145.4690 O   0  0  0  0  0  0  0  0  0  0  0  0
  189.9640  176.7530  145.9690 C   0  0  1  0  0  3  0  0  0  0  0  0
  191.3260  176.4620  146.0640 O   0  0  0  0  0  1  0  0  0  0  0  0
  189.2980  176.6060  147.3330 C   0  0  0  0  0  2  0  0  0  0  0  0
  188.3060  178.2530  148.8460 C   0  0  0  0  0  2  0  0  0  0  0  0
  189.3510  177.8780  148.1160 C   0  0  0  0  0  3  0  0  0  0  0  0
  1  4  1  0  0  0  0
  2  5  1  0  0  0  0
  3  1  1  0  0  0  0
  4  2  1  0  0  0  0
  4 27  1  0  0  0  0
  5 10  2  0  0  0  0
  6 15  1  0  0  0  0
  7 13  1  0  0  0  0
  7  2  2  0  0  0  0
  9  8  1  0  0  0  0
  9 10  1  0  0  0  0
 11  7  1  0  0  0  0
 12 11  1  6  0  0  0
 12  1  1  0  0  0  0
 13  9  2  0  0  0  0
 14  3  1  0  0  0  0
 14  1  1  0  0  0  0
 15  8  2  0  0  0  0
 16  6  2  0  0  0  0
 16 13  1  0  0  0  0
 17 19  1  1  0  0  0
 17 24  1  0  0  0  0
 20 23  2  0  0  0  0
 21 23  1  1  0  0  0
 21 12  1  0  0  0  0
 22 26  1  0  0  0  0
 22 17  1  0  0  0  0
 24 25  1  1  0  0  0
 24 21  1  0  0  0  0
 26 18  1  6  0  0  0
 26 20  1  0  0  0  0
 27 28  1  0  0  0  0
 28 29  1  1  0  0  0
 28 30  1  0  0  0  0
 30 32  1  0  0  0  0
 32 31  2  0  0  0  0
M  END
>  <MODEL>
2

>  <REMARK>
 VINA RESULT:      -8.2      3.269      6.231
  Name = 
  5 active torsions:
  status: ('A' for Active; 'I' for Inactive)
    1  A    between atoms: N_5  and  O_14
    2  A    between atoms: C_13  and  C_18
    3  A    between atoms: C_13  and  C_29
    4  A    between atoms: O_14  and  C_18
    5  A    between atoms: C_16  and  C_27
                            x       y       z     vdW  Elec       q    Type
                         _______ _______ _______ _____ _____    ______ ____

>  <TORSDO>
F 5

$$$$
=
 OpenBabel11052414373D

 32 36  0  0  1  0  0  0  0  0999 V2000
  189.7590  176.4680  143.7960 C   0  0  0  0  0  0  0  0  0  0  0  0
  187.6780  177.2040  145.0010 C   0  0  0  0  0  0  0  0  0  0  0  0
  191.2550  176.3080  143.9680 C   0  0  0  0  0  2  0  0  0  0  0  0
  188.9930  176.6100  145.0430 N   0  0  0  0  0  0  0  0  0  0  0  0
  187.0110  177.5050  146.1970 C   0  0  0  0  0  3  0  0  0  0  0  0
  183.8790  179.0310  142.5500 C   0  0  0  0  0  3  0  0  0  0  0  0
  187.0670  177.5240  143.7630 C   0  0  0  0  0  0  0  0  0  0  0  0
  183.8690  179.0020  144.9700 C   0  0  0  0  0  3  0  0  0  0  0  0
  185.1360  178.4100  144.9720 C   0  0  0  0  0  0  0  0  0  0  0  0
  185.7510  178.1000  146.1840 C   0  0  0  0  0  3  0  0  0  0  0  0
  187.7490  177.1640  142.4690 C   0  0  0  0  0  2  0  0  0  0  0  0
  189.2680  177.2790  142.5870 C   0  0  2  0  0  3  0  0  0  0  0  0
  185.7880  178.1200  143.7500 C   0  0  0  0  0  0  0  0  0  0  0  0
  190.3890  175.1070  143.5840 C   0  0  0  0  0  2  0  0  0  0  0  0
  183.2430  179.3130  143.7610 C   0  0  0  0  0  3  0  0  0  0  0  0
  185.1440  178.4380  142.5430 C   0  0  0  0  0  3  0  0  0  0  0  0
  192.1830  177.5030  140.0210 C   0  0  1  0  0  3  0  0  0  0  0  0
  190.9180  176.5710  136.9030 C   0  0  0  0  0  1  0  0  0  0  0  0
  193.2550  176.9890  140.7310 F   0  0  0  0  0  0  0  0  0  0  0  0
  189.3730  176.9050  138.7950 C   0  0  0  0  0  3  0  0  0  0  0  0
  189.9970  177.0090  141.2560 C   0  0  1  0  0  3  0  0  0  0  0  0
  191.6940  176.5050  139.1560 O   0  0  0  0  0  0  0  0  0  0  0  0
  189.0280  176.8930  140.0940 C   0  0  0  0  0  3  0  0  0  0  0  0
  191.1060  178.0410  140.9890 C   0  0  1  0  0  3  0  0  0  0  0  0
  191.6990  178.4740  142.1660 F   0  0  0  0  0  0  0  0  0  0  0  0
  190.7750  177.1280  138.3040 C   0  0  1  0  0  3  0  0  0  0  0  0
  189.5890  176.3780  146.2460 O   0  0  0  0  0  0  0  0  0  0  0  0
  190.1920  177.5890  146.6180 C   0  0  1  0  0  3  0  0  0  0  0  0
  189.4830  178.1640  147.6750 O   0  0  0  0  0  1  0  0  0  0  0  0
  191.6470  177.3680  147.0180 C   0  0  0  0  0  2  0  0  0  0  0  0
  192.8050  175.6280  148.2870 C   0  0  0  0  0  2  0  0  0  0  0  0
  191.9210  175.9360  147.3450 C   0  0  0  0  0  3  0  0  0  0  0  0
  1  3  1  0  0  0  0
  1  4  1  0  0  0  0
  2  4  1  0  0  0  0
  2  5  1  0  0  0  0
  4 27  1  0  0  0  0
  6 15  1  0  0  0  0
  7  2  2  0  0  0  0
  8  9  1  0  0  0  0
  9 10  1  0  0  0  0
 10  5  2  0  0  0  0
 11  7  1  0  0  0  0
 12 11  1  6  0  0  0
 12  1  1  0  0  0  0
 13  7  1  0  0  0  0
 13  9  2  0  0  0  0
 14  1  1  0  0  0  0
 14  3  1  0  0  0  0
 15  8  2  0  0  0  0
 16  6  2  0  0  0  0
 16 13  1  0  0  0  0
 17 19  1  1  0  0  0
 17 24  1  0  0  0  0
 20 23  2  0  0  0  0
 21 23  1  6  0  0  0
 21 12  1  0  0  0  0
 22 17  1  0  0  0  0
 24 21  1  0  0  0  0
 24 25  1  1  0  0  0
 26 18  1  6  0  0  0
 26 20  1  0  0  0  0
 26 22  1  0  0  0  0
 27 28  1  0  0  0  0
 28 30  1  0  0  0  0
 28 29  1  1  0  0  0
 30 32  1  0  0  0  0
 32 31  2  0  0  0  0
M  END
>  <MODEL>
3

>  <REMARK>
 VINA RESULT:      -8.1      4.050      6.844
  Name = 
  5 active torsions:
  status: ('A' for Active; 'I' for Inactive)
    1  A    between atoms: N_5  and  O_14
    2  A    between atoms: C_13  and  C_18
    3  A    between atoms: C_13  and  C_29
    4  A    between atoms: O_14  and  C_18
    5  A    between atoms: C_16  and  C_27
                            x       y       z     vdW  Elec       q    Type
                         _______ _______ _______ _____ _____    ______ ____

>  <TORSDO>
F 5

$$$$
=
 OpenBabel11052414373D

 32 36  0  0  1  0  0  0  0  0999 V2000
  182.3420  178.7590  139.8050 C   0  0  0  0  0  0  0  0  0  0  0  0
  182.7470  178.8800  142.2850 C   0  0  0  0  0  0  0  0  0  0  0  0
  181.2630  178.5020  138.7740 C   0  0  0  0  0  2  0  0  0  0  0  0
  181.8600  179.0620  141.1610 N   0  0  0  0  0  0  0  0  0  0  0  0
  182.2500  178.9970  143.5900 C   0  0  0  0  0  3  0  0  0  0  0  0
  187.1280  177.8490  144.1610 C   0  0  0  0  0  3  0  0  0  0  0  0
  184.1090  178.5450  142.0850 C   0  0  0  0  0  0  0  0  0  0  0  0
  185.2490  178.2940  145.6210 C   0  0  0  0  0  3  0  0  0  0  0  0
  184.4240  178.4820  144.5080 C   0  0  0  0  0  0  0  0  0  0  0  0
  183.0800  178.8020  144.6930 C   0  0  0  0  0  3  0  0  0  0  0  0
  184.6700  178.4620  140.6890 C   0  0  0  0  0  2  0  0  0  0  0  0
  183.6330  177.9310  139.7010 C   0  0  2  0  0  3  0  0  0  0  0  0
  184.9510  178.3550  143.2010 C   0  0  0  0  0  0  0  0  0  0  0  0
  182.0420  179.8190  138.7670 C   0  0  0  0  0  2  0  0  0  0  0  0
  186.5980  177.9770  145.4470 C   0  0  0  0  0  3  0  0  0  0  0  0
  186.3100  178.0370  143.0440 C   0  0  0  0  0  3  0  0  0  0  0  0
  184.0930  176.1740  136.2610 C   0  0  1  0  0  3  0  0  0  0  0  0
  186.9800  177.4760  134.7890 C   0  0  0  0  0  1  0  0  0  0  0  0
  182.7990  176.1150  135.7730 F   0  0  0  0  0  0  0  0  0  0  0  0
  186.4440  178.0390  137.1300 C   0  0  0  0  0  3  0  0  0  0  0  0
  184.1980  177.7440  138.2790 C   0  0  1  0  0  3  0  0  0  0  0  0
  184.7640  177.2440  135.6380 O   0  0  0  0  0  0  0  0  0  0  0  0
  185.6130  178.2770  138.1580 C   0  0  0  0  0  3  0  0  0  0  0  0
  184.0810  176.2870  137.8020 C   0  0  1  0  0  3  0  0  0  0  0  0
  182.9510  175.6670  138.3140 F   0  0  0  0  0  0  0  0  0  0  0  0
  186.1150  177.1260  135.9830 C   0  0  1  0  0  3  0  0  0  0  0  0
  180.5380  179.3140  141.3790 O   0  0  0  0  0  0  0  0  0  0  0  0
  179.9980  178.1220  141.8860 C   0  0  1  0  0  3  0  0  0  0  0  0
  179.1990  178.4010  142.9960 O   0  0  0  0  0  1  0  0  0  0  0  0
  179.1820  177.4020  140.8170 C   0  0  0  0  0  2  0  0  0  0  0  0
  180.2110  175.3050  140.0920 C   0  0  0  0  0  2  0  0  0  0  0  0
  179.3500  175.9200  140.8960 C   0  0  0  0  0  3  0  0  0  0  0  0
  1  4  1  0  0  0  0
  2  5  1  0  0  0  0
  3  1  1  0  0  0  0
  4 27  1  0  0  0  0
  4  2  1  0  0  0  0
  5 10  2  0  0  0  0
  6 15  1  0  0  0  0
  7  2  2  0  0  0  0
  7 13  1  0  0  0  0
  9 10  1  0  0  0  0
  9  8  1  0  0  0  0
 11  7  1  0  0  0  0
 12  1  1  0  0  0  0
 12 11  1  1  0  0  0
 13  9  2  0  0  0  0
 14  3  1  0  0  0  0
 14  1  1  0  0  0  0
 15  8  2  0  0  0  0
 16 13  1  0  0  0  0
 16  6  2  0  0  0  0
 17 19  1  6  0  0  0
 17 24  1  0  0  0  0
 20 23  2  0  0  0  0
 21 23  1  1  0  0  0
 21 12  1  0  0  0  0
 22 26  1  0  0  0  0
 22 17  1  0  0  0  0
 24 21  1  0  0  0  0
 24 25  1  6  0  0  0
 26 18  1  6  0  0  0
 26 20  1  0  0  0  0
 27 28  1  0  0  0  0
 28 29  1  1  0  0  0
 30 32  1  0  0  0  0
 30 28  1  0  0  0  0
 31 32  2  0  0  0  0
M  END
>  <MODEL>
4

>  <REMARK>
 VINA RESULT:      -8.0      3.080      6.081
  Name = 
  5 active torsions:
  status: ('A' for Active; 'I' for Inactive)
    1  A    between atoms: N_5  and  O_14
    2  A    between atoms: C_13  and  C_18
    3  A    between atoms: C_13  and  C_29
    4  A    between atoms: O_14  and  C_18
    5  A    between atoms: C_16  and  C_27
                            x       y       z     vdW  Elec       q    Type
                         _______ _______ _______ _____ _____    ______ ____

>  <TORSDO>
F 5

$$$$
=
 OpenBabel11052414373D

 32 36  0  0  1  0  0  0  0  0999 V2000
  186.5870  178.7440  141.6580 C   0  0  0  0  0  0  0  0  0  0  0  0
  184.2100  178.9030  140.8500 C   0  0  0  0  0  0  0  0  0  0  0  0
  187.9780  178.3300  141.2280 C   0  0  0  0  0  2  0  0  0  0  0  0
  185.6250  178.9540  140.5660 N   0  0  0  0  0  0  0  0  0  0  0  0
  183.2870  178.9270  139.7950 C   0  0  0  0  0  3  0  0  0  0  0  0
  180.4760  178.5590  143.9670 C   0  0  0  0  0  3  0  0  0  0  0  0
  183.7420  178.7900  142.1830 C   0  0  0  0  0  0  0  0  0  0  0  0
  180.0690  178.6870  141.5840 C   0  0  0  0  0  3  0  0  0  0  0  0
  181.4450  178.7530  141.3490 C   0  0  0  0  0  0  0  0  0  0  0  0
  181.9170  178.8550  140.0410 C   0  0  0  0  0  3  0  0  0  0  0  0
  184.7190  178.8100  143.3300 C   0  0  0  0  0  2  0  0  0  0  0  0
  186.0360  178.1320  142.9560 C   0  0  2  0  0  3  0  0  0  0  0  0
  182.3550  178.7240  142.4320 C   0  0  0  0  0  0  0  0  0  0  0  0
  187.7130  179.7530  141.7220 C   0  0  0  0  0  2  0  0  0  0  0  0
  179.5860  178.5890  142.8910 C   0  0  0  0  0  3  0  0  0  0  0  0
  181.8530  178.6260  143.7400 C   0  0  0  0  0  3  0  0  0  0  0  0
  189.0720  176.7530  144.9590 C   0  0  1  0  0  3  0  0  0  0  0  0
  188.7630  177.8780  148.2500 C   0  0  0  0  0  1  0  0  0  0  0  0
  190.1200  176.9020  144.0670 F   0  0  0  0  0  0  0  0  0  0  0  0
  186.9040  178.2180  146.6660 C   0  0  0  0  0  3  0  0  0  0  0  0
  187.0270  178.0500  144.1340 C   0  0  1  0  0  3  0  0  0  0  0  0
  189.1210  177.8050  145.8940 O   0  0  0  0  0  0  0  0  0  0  0  0
  186.3720  178.4270  145.4500 C   0  0  0  0  0  3  0  0  0  0  0  0
  187.7270  176.6830  144.2010 C   0  0  1  0  0  3  0  0  0  0  0  0
  187.9210  176.1410  142.9390 F   0  0  0  0  0  0  0  0  0  0  0  0
  188.1990  177.4910  146.8990 C   0  0  1  0  0  3  0  0  0  0  0  0
  186.0520  178.9910  139.2730 O   0  0  0  0  0  0  0  0  0  0  0  0
  186.1150  177.6550  138.8500 C   0  0  1  0  0  3  0  0  0  0  0  0
  185.0880  177.3990  137.9390 O   0  0  0  0  0  1  0  0  0  0  0  0
  187.4680  177.3540  138.2140 C   0  0  0  0  0  2  0  0  0  0  0  0
  189.0510  178.9930  137.3260 C   0  0  0  0  0  2  0  0  0  0  0  0
  187.8640  178.4030  137.2280 C   0  0  0  0  0  3  0  0  0  0  0  0
  1 14  1  0  0  0  0
  1 12  1  0  0  0  0
  2  7  1  0  0  0  0
  3  1  1  0  0  0  0
  3 14  1  0  0  0  0
  4  2  1  0  0  0  0
  4  1  1  0  0  0  0
  5 10  1  0  0  0  0
  5  2  2  0  0  0  0
  7 13  2  0  0  0  0
  7 11  1  0  0  0  0
  8 15  2  0  0  0  0
  9  8  1  0  0  0  0
  9 13  1  0  0  0  0
 10  9  2  0  0  0  0
 12 11  1  1  0  0  0
 12 21  1  0  0  0  0
 13 16  1  0  0  0  0
 15  6  1  0  0  0  0
 16  6  2  0  0  0  0
 17 19  1  6  0  0  0
 17 22  1  0  0  0  0
 20 26  1  0  0  0  0
 21 24  1  0  0  0  0
 21 23  1  1  0  0  0
 22 26  1  0  0  0  0
 23 20  2  0  0  0  0
 24 25  1  6  0  0  0
 24 17  1  0  0  0  0
 26 18  1  1  0  0  0
 27  4  1  0  0  0  0
 28 29  1  6  0  0  0
 28 27  1  0  0  0  0
 30 28  1  0  0  0  0
 32 31  2  0  0  0  0
 32 30  1  0  0  0  0
M  END
>  <MODEL>
5

>  <REMARK>
 VINA RESULT:      -7.8      2.761      7.989
  Name = 
  5 active torsions:
  status: ('A' for Active; 'I' for Inactive)
    1  A    between atoms: N_5  and  O_14
    2  A    between atoms: C_13  and  C_18
    3  A    between atoms: C_13  and  C_29
    4  A    between atoms: O_14  and  C_18
    5  A    between atoms: C_16  and  C_27
                            x       y       z     vdW  Elec       q    Type
                         _______ _______ _______ _____ _____    ______ ____

>  <TORSDO>
F 5

$$$$
=
 OpenBabel11052414373D

 32 36  0  0  1  0  0  0  0  0999 V2000
  188.4380  177.8880  137.9700 C   0  0  0  0  0  0  0  0  0  0  0  0
  187.2910  178.2600  140.1780 C   0  0  0  0  0  0  0  0  0  0  0  0
  188.1690  177.6870  136.4940 C   0  0  0  0  0  2  0  0  0  0  0  0
  187.3190  178.4430  138.7460 N   0  0  0  0  0  0  0  0  0  0  0  0
  186.1500  178.6280  140.9040 C   0  0  0  0  0  3  0  0  0  0  0  0
  189.3280  176.7530  144.3440 C   0  0  0  0  0  3  0  0  0  0  0  0
  188.3900  177.6760  140.8550 C   0  0  0  0  0  0  0  0  0  0  0  0
  187.0980  177.6960  144.3470 C   0  0  0  0  0  3  0  0  0  0  0  0
  187.1680  177.8750  142.9620 C   0  0  0  0  0  0  0  0  0  0  0  0
  186.0890  178.4400  142.2850 C   0  0  0  0  0  3  0  0  0  0  0  0
  189.6420  177.3180  140.0950 C   0  0  0  0  0  2  0  0  0  0  0  0
  189.3200  176.8470  138.6780 C   0  0  2  0  0  3  0  0  0  0  0  0
  188.3310  177.4920  142.2520 C   0  0  0  0  0  0  0  0  0  0  0  0
  189.0550  178.8400  136.9670 C   0  0  0  0  0  2  0  0  0  0  0  0
  188.1760  177.1350  145.0360 C   0  0  0  0  0  3  0  0  0  0  0  0
  189.4060  176.9300  142.9610 C   0  0  0  0  0  3  0  0  0  0  0  0
  191.3790  174.5640  136.2940 C   0  0  1  0  0  3  0  0  0  0  0  0
  194.7600  175.2530  136.8340 C   0  0  0  0  0  1  0  0  0  0  0  0
  190.6430  174.6040  135.1230 F   0  0  0  0  0  0  0  0  0  0  0  0
  193.0640  176.2150  138.3430 C   0  0  0  0  0  3  0  0  0  0  0  0
  190.5680  176.3840  137.9000 C   0  0  1  0  0  3  0  0  0  0  0  0
  192.4780  175.4370  136.1680 O   0  0  0  0  0  0  0  0  0  0  0  0
  191.8500  176.7050  138.6450 C   0  0  0  0  0  3  0  0  0  0  0  0
  190.4800  174.9010  137.5050 C   0  0  1  0  0  3  0  0  0  0  0  0
  189.1730  174.5130  137.2470 F   0  0  0  0  0  0  0  0  0  0  0  0
  193.3090  175.1950  137.2680 C   0  0  1  0  0  3  0  0  0  0  0  0
  186.2220  178.9410  138.1090 O   0  0  0  0  0  0  0  0  0  0  0  0
  185.2200  177.9690  138.2510 C   0  0  1  0  0  3  0  0  0  0  0  0
  184.0160  178.5810  138.6030 O   0  0  0  0  0  1  0  0  0  0  0  0
  185.0490  177.1780  136.9580 C   0  0  0  0  0  2  0  0  0  0  0  0
  185.8630  174.8740  136.8440 C   0  0  0  0  0  2  0  0  0  0  0  0
  184.9040  175.7140  137.2190 C   0  0  0  0  0  3  0  0  0  0  0  0
  1 12  1  0  0  0  0
  1  4  1  0  0  0  0
  2  7  2  0  0  0  0
  2  5  1  0  0  0  0
  3 14  1  0  0  0  0
  3  1  1  0  0  0  0
  4  2  1  0  0  0  0
  5 10  2  0  0  0  0
  6 15  1  0  0  0  0
  7 13  1  0  0  0  0
  8 15  2  0  0  0  0
  9  8  1  0  0  0  0
 10  9  1  0  0  0  0
 11  7  1  0  0  0  0
 12 11  1  1  0  0  0
 13 16  1  0  0  0  0
 13  9  2  0  0  0  0
 14  1  1  0  0  0  0
 16  6  2  0  0  0  0
 17 19  1  6  0  0  0
 17 24  1  0  0  0  0
 20 23  2  0  0  0  0
 21 23  1  1  0  0  0
 21 12  1  0  0  0  0
 22 17  1  0  0  0  0
 22 26  1  0  0  0  0
 24 25  1  6  0  0  0
 24 21  1  0  0  0  0
 26 18  1  6  0  0  0
 26 20  1  0  0  0  0
 27 28  1  0  0  0  0
 27  4  1  0  0  0  0
 28 29  1  6  0  0  0
 30 32  1  0  0  0  0
 30 28  1  0  0  0  0
 31 32  2  0  0  0  0
M  END
>  <MODEL>
6

>  <REMARK>
 VINA RESULT:      -7.6      4.262      8.270
  Name = 
  5 active torsions:
  status: ('A' for Active; 'I' for Inactive)
    1  A    between atoms: N_5  and  O_14
    2  A    between atoms: C_13  and  C_18
    3  A    between atoms: C_13  and  C_29
    4  A    between atoms: O_14  and  C_18
    5  A    between atoms: C_16  and  C_27
                            x       y       z     vdW  Elec       q    Type
                         _______ _______ _______ _____ _____    ______ ____

>  <TORSDO>
F 5

$$$$
=
 OpenBabel11052414373D

 32 36  0  0  1  0  0  0  0  0999 V2000
  185.4270  178.6280  140.3790 C   0  0  0  0  0  0  0  0  0  0  0  0
  187.4440  178.3020  141.8450 C   0  0  0  0  0  0  0  0  0  0  0  0
  184.9470  179.3460  139.1350 C   0  0  0  0  0  2  0  0  0  0  0  0
  186.8860  178.5440  140.5360 N   0  0  0  0  0  0  0  0  0  0  0  0
  188.8300  178.3940  142.0390 C   0  0  0  0  0  3  0  0  0  0  0  0
  186.9560  177.2870  146.5890 C   0  0  0  0  0  3  0  0  0  0  0  0
  186.6040  178.0120  142.9480 C   0  0  0  0  0  0  0  0  0  0  0  0
  189.1500  177.6840  145.6460 C   0  0  0  0  0  3  0  0  0  0  0  0
  188.5760  177.8930  144.3880 C   0  0  0  0  0  0  0  0  0  0  0  0
  189.3920  178.1890  143.2980 C   0  0  0  0  0  3  0  0  0  0  0  0
  185.1180  177.8640  142.7470 C   0  0  0  0  0  2  0  0  0  0  0  0
  184.6040  178.8110  141.6640 C   0  0  2  0  0  3  0  0  0  0  0  0
  187.1730  177.7980  144.2210 C   0  0  0  0  0  0  0  0  0  0  0  0
  184.8590  177.8220  139.2300 C   0  0  0  0  0  2  0  0  0  0  0  0
  188.3410  177.3830  146.7440 C   0  0  0  0  0  3  0  0  0  0  0  0
  186.3750  177.4930  145.3360 C   0  0  0  0  0  3  0  0  0  0  0  0
  180.8900  179.2210  142.7460 C   0  0  1  0  0  3  0  0  0  0  0  0
  178.9310  177.3880  140.5090 C   0  0  0  0  0  1  0  0  0  0  0  0
  180.8190  180.5580  143.0940 F   0  0  0  0  0  0  0  0  0  0  0  0
  181.3870  177.1760  140.4370 C   0  0  0  0  0  3  0  0  0  0  0  0
  183.0720  178.7550  141.4940 C   0  0  1  0  0  3  0  0  0  0  0  0
  180.3430  179.0590  141.4570 O   0  0  0  0  0  0  0  0  0  0  0  0
  182.6450  177.6230  140.5790 C   0  0  0  0  0  3  0  0  0  0  0  0
  182.3460  178.7150  142.8490 C   0  0  1  0  0  3  0  0  0  0  0  0
  183.0290  179.4310  143.8210 F   0  0  0  0  0  0  0  0  0  0  0  0
  180.2240  177.6810  141.2430 C   0  0  1  0  0  3  0  0  0  0  0  0
  187.7080  178.8910  139.5060 O   0  0  0  0  0  0  0  0  0  0  0  0
  188.2870  177.6950  139.0550 C   0  0  1  0  0  3  0  0  0  0  0  0
  187.6080  177.2410  137.9220 O   0  0  0  0  0  1  0  0  0  0  0  0
  189.7650  177.8960  138.7380 C   0  0  0  0  0  2  0  0  0  0  0  0
  191.6660  177.1430  140.0800 C   0  0  0  0  0  2  0  0  0  0  0  0
  190.6130  176.8220  139.3360 C   0  0  0  0  0  3  0  0  0  0  0  0
  1  4  1  0  0  0  0
  1 12  1  0  0  0  0
  2  5  2  0  0  0  0
  2  7  1  0  0  0  0
  3 14  1  0  0  0  0
  3  1  1  0  0  0  0
  4  2  1  0  0  0  0
  5 10  1  0  0  0  0
  6 15  1  0  0  0  0
  7 13  2  0  0  0  0
  8 15  2  0  0  0  0
  9  8  1  0  0  0  0
 10  9  2  0  0  0  0
 11  7  1  0  0  0  0
 12 11  1  1  0  0  0
 13  9  1  0  0  0  0
 13 16  1  0  0  0  0
 14  1  1  0  0  0  0
 16  6  2  0  0  0  0
 17 24  1  0  0  0  0
 17 19  1  6  0  0  0
 20 23  2  0  0  0  0
 20 26  1  0  0  0  0
 21 23  1  6  0  0  0
 21 12  1  0  0  0  0
 21 24  1  0  0  0  0
 22 17  1  0  0  0  0
 24 25  1  1  0  0  0
 26 18  1  6  0  0  0
 26 22  1  0  0  0  0
 27  4  1  0  0  0  0
 28 29  1  6  0  0  0
 28 27  1  0  0  0  0
 30 28  1  0  0  0  0
 30 32  1  0  0  0  0
 32 31  2  0  0  0  0
M  END
>  <MODEL>
7

>  <REMARK>
 VINA RESULT:      -7.2      2.495      4.966
  Name = 
  5 active torsions:
  status: ('A' for Active; 'I' for Inactive)
    1  A    between atoms: N_5  and  O_14
    2  A    between atoms: C_13  and  C_18
    3  A    between atoms: C_13  and  C_29
    4  A    between atoms: O_14  and  C_18
    5  A    between atoms: C_16  and  C_27
                            x       y       z     vdW  Elec       q    Type
                         _______ _______ _______ _____ _____    ______ ____

>  <TORSDO>
F 5

$$$$
=
 OpenBabel11052414373D

 32 36  0  0  1  0  0  0  0  0999 V2000
  189.3270  177.4460  141.1590 C   0  0  0  0  0  0  0  0  0  0  0  0
  188.3270  177.8180  143.4370 C   0  0  0  0  0  0  0  0  0  0  0  0
  190.6040  177.6140  140.3640 C   0  0  0  0  0  2  0  0  0  0  0  0
  189.4790  177.5160  142.6200 N   0  0  0  0  0  0  0  0  0  0  0  0
  188.4910  178.0610  144.8080 C   0  0  0  0  0  3  0  0  0  0  0  0
  183.5490  178.6270  143.9740 C   0  0  0  0  0  3  0  0  0  0  0  0
  187.0360  177.9110  142.8630 C   0  0  0  0  0  0  0  0  0  0  0  0
  185.0330  178.7760  145.8810 C   0  0  0  0  0  3  0  0  0  0  0  0
  186.1230  178.4620  145.0620 C   0  0  0  0  0  0  0  0  0  0  0  0
  187.3990  178.3780  145.6150 C   0  0  0  0  0  3  0  0  0  0  0  0
  186.8360  177.6070  141.4000 C   0  0  0  0  0  2  0  0  0  0  0  0
  188.0410  178.0450  140.5690 C   0  0  2  0  0  3  0  0  0  0  0  0
  185.9290  178.2250  143.6800 C   0  0  0  0  0  0  0  0  0  0  0  0
  189.9600  176.2340  140.5080 C   0  0  0  0  0  2  0  0  0  0  0  0
  183.7490  178.8590  145.3370 C   0  0  0  0  0  3  0  0  0  0  0  0
  184.6320  178.3120  143.1500 C   0  0  0  0  0  3  0  0  0  0  0  0
  188.6890  178.6310  136.7780 C   0  0  1  0  0  3  0  0  0  0  0  0
  185.9570  177.3390  135.0280 C   0  0  0  0  0  1  0  0  0  0  0  0
  190.0380  178.3450  136.6510 F   0  0  0  0  0  0  0  0  0  0  0  0
  185.8650  177.5000  137.4870 C   0  0  0  0  0  3  0  0  0  0  0  0
  187.8350  177.8360  139.0550 C   0  0  1  0  0  3  0  0  0  0  0  0
  187.9470  177.5210  136.3290 O   0  0  0  0  0  0  0  0  0  0  0  0
  186.3940  177.4970  138.7220 C   0  0  0  0  0  3  0  0  0  0  0  0
  188.3590  179.0260  138.2350 C   0  0  1  0  0  3  0  0  0  0  0  0
  189.4650  179.6140  138.8300 F   0  0  0  0  0  0  0  0  0  0  0  0
  186.6120  177.9340  136.2580 C   0  0  1  0  0  3  0  0  0  0  0  0
  190.7190  177.5030  143.1830 O   0  0  0  0  0  0  0  0  0  0  0  0
  190.7070  176.4560  144.1170 C   0  0  1  0  0  3  0  0  0  0  0  0
  191.3140  175.3250  143.5670 O   0  0  0  0  0  1  0  0  0  0  0  0
  191.4230  176.8680  145.3990 C   0  0  0  0  0  2  0  0  0  0  0  0
  192.0600  175.6280  147.4090 C   0  0  0  0  0  2  0  0  0  0  0  0
  192.0550  175.6990  146.0820 C   0  0  0  0  0  3  0  0  0  0  0  0
  1  4  1  0  0  0  0
  2  5  1  0  0  0  0
  3 14  1  0  0  0  0
  3  1  1  0  0  0  0
  4 27  1  0  0  0  0
  4  2  1  0  0  0  0
  5 10  2  0  0  0  0
  6 15  1  0  0  0  0
  7  2  2  0  0  0  0
  7 13  1  0  0  0  0
  9 10  1  0  0  0  0
  9  8  1  0  0  0  0
 11  7  1  0  0  0  0
 12  1  1  0  0  0  0
 12 11  1  1  0  0  0
 13  9  2  0  0  0  0
 14  1  1  0  0  0  0
 15  8  2  0  0  0  0
 16 13  1  0  0  0  0
 16  6  2  0  0  0  0
 17 19  1  1  0  0  0
 17 24  1  0  0  0  0
 20 23  2  0  0  0  0
 21 23  1  1  0  0  0
 21 12  1  0  0  0  0
 22 17  1  0  0  0  0
 24 25  1  1  0  0  0
 24 21  1  0  0  0  0
 26 18  1  6  0  0  0
 26 22  1  0  0  0  0
 26 20  1  0  0  0  0
 27 28  1  0  0  0  0
 28 29  1  6  0  0  0
 28 30  1  0  0  0  0
 30 32  1  0  0  0  0
 32 31  2  0  0  0  0
M  END
>  <MODEL>
8

>  <REMARK>
 VINA RESULT:      -7.0      3.803      5.872
  Name = 
  5 active torsions:
  status: ('A' for Active; 'I' for Inactive)
    1  A    between atoms: N_5  and  O_14
    2  A    between atoms: C_13  and  C_18
    3  A    between atoms: C_13  and  C_29
    4  A    between atoms: O_14  and  C_18
    5  A    between atoms: C_16  and  C_27
                            x       y       z     vdW  Elec       q    Type
                         _______ _______ _______ _____ _____    ______ ____

>  <TORSDO>
F 5

$$$$
=
 OpenBabel11052414373D

 32 36  0  0  1  0  0  0  0  0999 V2000
  185.7990  178.6580  141.6080 C   0  0  0  0  0  0  0  0  0  0  0  0
  187.9680  178.0080  140.5140 C   0  0  0  0  0  0  0  0  0  0  0  0
  184.9940  178.4860  142.8790 C   0  0  0  0  0  2  0  0  0  0  0  0
  187.2240  178.3140  141.7130 N   0  0  0  0  0  0  0  0  0  0  0  0
  189.2750  177.5110  140.6140 C   0  0  0  0  0  3  0  0  0  0  0  0
  188.3260  177.6720  135.6630 C   0  0  0  0  0  3  0  0  0  0  0  0
  187.3790  178.1660  139.2360 C   0  0  0  0  0  0  0  0  0  0  0  0
  190.1840  177.0210  137.0720 C   0  0  0  0  0  3  0  0  0  0  0  0
  189.4400  177.3460  138.2100 C   0  0  0  0  0  0  0  0  0  0  0  0
  190.0070  177.1850  139.4730 C   0  0  0  0  0  3  0  0  0  0  0  0
  185.9920  178.7430  139.1100 C   0  0  0  0  0  2  0  0  0  0  0  0
  185.1040  178.3230  140.2790 C   0  0  2  0  0  3  0  0  0  0  0  0
  188.1210  177.8430  138.0800 C   0  0  0  0  0  0  0  0  0  0  0  0
  185.3760  179.8840  142.3900 C   0  0  0  0  0  2  0  0  0  0  0  0
  189.6270  177.1830  135.8010 C   0  0  0  0  0  3  0  0  0  0  0  0
  187.5770  178.0000  136.7950 C   0  0  0  0  0  3  0  0  0  0  0  0
  181.2260  178.0080  140.2730 C   0  0  1  0  0  3  0  0  0  0  0  0
  179.9430  180.8060  138.6240 C   0  0  0  0  0  1  0  0  0  0  0  0
  180.9570  177.5290  141.5440 F   0  0  0  0  0  0  0  0  0  0  0  0
  182.3730  180.3840  138.5990 C   0  0  0  0  0  3  0  0  0  0  0  0
  183.6500  178.8170  140.1380 C   0  0  1  0  0  3  0  0  0  0  0  0
  180.9670  179.3930  140.2480 O   0  0  0  0  0  0  0  0  0  0  0  0
  183.5280  179.9280  139.1110 C   0  0  0  0  0  3  0  0  0  0  0  0
  182.6750  177.6600  139.8640 C   0  0  1  0  0  3  0  0  0  0  0  0
  183.0760  176.4890  140.4890 F   0  0  0  0  0  0  0  0  0  0  0  0
  181.0280  179.7870  138.9070 C   0  0  1  0  0  3  0  0  0  0  0  0
  187.7880  178.0870  142.9330 O   0  0  0  0  0  0  0  0  0  0  0  0
  187.2620  176.8640  143.3770 C   0  0  1  0  0  3  0  0  0  0  0  0
  188.1540  175.8310  143.0810 O   0  0  0  0  0  1  0  0  0  0  0  0
  186.9880  176.9080  144.8770 C   0  0  0  0  0  2  0  0  0  0  0  0
  188.8550  177.4870  146.3480 C   0  0  0  0  0  2  0  0  0  0  0  0
  187.8600  177.9030  145.5720 C   0  0  0  0  0  3  0  0  0  0  0  0
  1  4  1  0  0  0  0
  1 14  1  0  0  0  0
  1  3  1  0  0  0  0
  2  5  1  0  0  0  0
  2  4  1  0  0  0  0
  4 27  1  0  0  0  0
  6 15  2  0  0  0  0
  6 16  1  0  0  0  0
  7  2  2  0  0  0  0
  8  9  2  0  0  0  0
  9 10  1  0  0  0  0
 10  5  2  0  0  0  0
 11  7  1  0  0  0  0
 12 11  1  6  0  0  0
 12  1  1  0  0  0  0
 13  9  1  0  0  0  0
 13  7  1  0  0  0  0
 14  3  1  0  0  0  0
 15  8  1  0  0  0  0
 16 13  2  0  0  0  0
 17 19  1  1  0  0  0
 20 26  1  0  0  0  0
 20 23  2  0  0  0  0
 21 23  1  6  0  0  0
 21 12  1  0  0  0  0
 22 17  1  0  0  0  0
 24 21  1  0  0  0  0
 24 17  1  0  0  0  0
 24 25  1  1  0  0  0
 26 18  1  1  0  0  0
 26 22  1  0  0  0  0
 27 28  1  0  0  0  0
 28 29  1  1  0  0  0
 28 30  1  0  0  0  0
 30 32  1  0  0  0  0
 32 31  2  0  0  0  0
M  END
>  <MODEL>
9

>  <REMARK>
 VINA RESULT:      -7.0      1.908      2.793
  Name = 
  5 active torsions:
  status: ('A' for Active; 'I' for Inactive)
    1  A    between atoms: N_5  and  O_14
    2  A    between atoms: C_13  and  C_18
    3  A    between atoms: C_13  and  C_29
    4  A    between atoms: O_14  and  C_18
    5  A    between atoms: C_16  and  C_27
                            x       y       z     vdW  Elec       q    Type
                         _______ _______ _______ _____ _____    ______ ____

>  <TORSDO>
F 5

$$$$
