=
 OpenBabel11052416423D

 43 46  0  0  1  0  0  0  0  0999 V2000
  188.4470  177.2240  141.5870 C   0  0  1  0  0  3  0  0  0  0  0  0
  189.6020  177.1230  140.6340 C   0  0  0  0  0  0  0  0  0  0  0  0
  190.3670  176.1240  140.6890 O   0  0  0  0  0  0  0  0  0  0  0  0
  189.8200  178.0860  139.6400 O   0  0  0  0  0  0  0  0  0  0  0  0
  188.9090  178.4110  138.6240 C   0  0  0  0  0  0  0  0  0  0  0  0
  188.9280  179.5400  138.0650 O   0  0  0  0  0  0  0  0  0  0  0  0
  187.9330  177.3910  138.1600 C   0  0  0  0  0  2  0  0  0  0  0  0
  186.6020  178.0530  137.8500 C   0  0  0  0  0  2  0  0  0  0  0  0
  186.0270  177.4980  136.5590 C   0  0  1  0  0  3  0  0  0  0  0  0
  187.0730  177.6100  135.4690 C   0  0  0  0  0  1  0  0  0  0  0  0
  185.6590  176.0310  136.7300 C   0  0  0  0  0  2  0  0  0  0  0  0
  184.2150  175.7860  136.3350 C   0  0  0  0  0  2  0  0  0  0  0  0
  183.5470  175.1550  137.3820 O   0  0  0  0  0  0  0  0  0  0  0  0
  183.3350  176.1630  138.3260 C   0  0  0  0  0  2  0  0  0  0  0  0
  182.1760  177.0580  137.9090 C   0  0  1  0  0  3  0  0  0  0  0  0
  181.6450  179.4510  137.7810 C   0  0  0  0  0  3  0  0  0  0  0  0
  179.9450  177.9980  138.8430 C   0  0  0  0  0  2  0  0  0  0  0  0
  180.2000  179.0450  137.7550 C   0  0  0  0  0  2  0  0  0  0  0  0
  180.9420  176.8210  138.8010 C   0  0  0  0  0  2  0  0  0  0  0  0
  182.5870  178.5060  137.8620 C   0  0  0  0  0  3  0  0  0  0  0  0
  188.7380  176.4130  142.8440 C   0  0  0  0  0  2  0  0  0  0  0  0
  188.0990  177.0930  148.0300 C   0  0  0  0  0  2  0  0  0  0  0  0
  190.9310  176.5510  143.9760 C   0  0  0  0  0  2  0  0  0  0  0  0
  189.8520  177.7830  146.2820 C   0  0  1  0  0  3  0  0  0  0  0  0
  186.5350  177.4930  146.0810 C   0  0  0  0  0  2  0  0  0  0  0  0
  186.8030  177.7450  147.5610 C   0  0  0  0  0  2  0  0  0  0  0  0
  188.8580  177.2540  145.2270 C   0  0  1  0  0  3  0  0  0  0  0  0
  189.2790  177.9960  147.6900 C   0  0  0  0  0  2  0  0  0  0  0  0
  187.6000  178.1120  145.1860 C   0  0  0  0  0  2  0  0  0  0  0  0
  189.5550  177.2090  143.8550 C   0  0  2  0  0  3  0  0  0  0  0  0
  191.6920  177.1540  145.1560 C   0  0  0  0  0  2  0  0  0  0  0  0
  190.9740  176.9400  146.3450 O   0  0  0  0  0  0  0  0  0  0  0  0
  188.1680  178.6820  141.9170 C   0  0  0  0  0  2  0  0  0  0  0  0
  186.7060  179.0120  141.6690 C   0  0  0  0  0  2  0  0  0  0  0  0
  185.8200  177.8400  142.0650 C   0  0  0  0  0  2  0  0  0  0  0  0
  182.1600  178.7700  141.7390 C   0  0  0  0  0  3  0  0  0  0  0  0
  181.8320  179.1030  143.0570 C   0  0  0  0  0  0  0  0  0  0  0  0
  184.1200  178.6360  143.7270 C   0  0  0  0  0  3  0  0  0  0  0  0
  183.4590  178.3690  141.4130 C   0  0  0  0  0  3  0  0  0  0  0  0
  184.4420  178.3040  142.4070 C   0  0  0  0  0  0  0  0  0  0  0  0
  182.8210  179.0350  144.0520 C   0  0  0  0  0  3  0  0  0  0  0  0
  179.7290  180.2520  142.4450 C   0  0  0  0  0  1  0  0  0  0  0  0
  180.5230  179.4960  143.3500 O   0  0  0  0  0  0  0  0  0  0  0  0
  1 33  1  1  0  0  0
  1 21  1  0  0  0  0
  2  3  2  0  0  0  0
  2  1  1  0  0  0  0
  4  2  1  0  0  0  0
  5  4  1  0  0  0  0
  6  5  2  0  0  0  0
  7  5  1  0  0  0  0
  8  7  1  0  0  0  0
  9 10  1  6  0  0  0
  9 11  1  0  0  0  0
  9  8  1  0  0  0  0
 12 11  1  0  0  0  0
 12 13  1  0  0  0  0
 13 14  1  0  0  0  0
 15 14  1  1  0  0  0
 15 19  1  0  0  0  0
 16 20  2  0  0  0  0
 18 16  1  0  0  0  0
 18 17  1  0  0  0  0
 19 17  1  0  0  0  0
 20 15  1  0  0  0  0
 23 31  1  0  0  0  0
 24 32  1  0  0  0  0
 24 28  1  1  0  0  0
 25 26  1  0  0  0  0
 26 22  1  0  0  0  0
 27 29  1  6  0  0  0
 27 24  1  0  0  0  0
 28 22  1  0  0  0  0
 29 25  1  0  0  0  0
 30 21  1  6  0  0  0
 30 23  1  0  0  0  0
 30 27  1  0  0  0  0
 31 32  1  0  0  0  0
 34 33  1  0  0  0  0
 34 35  1  0  0  0  0
 35 40  1  0  0  0  0
 36 37  1  0  0  0  0
 37 43  1  0  0  0  0
 37 41  2  0  0  0  0
 38 41  1  0  0  0  0
 39 36  2  0  0  0  0
 39 40  1  0  0  0  0
 40 38  2  0  0  0  0
 42 43  1  0  0  0  0
M  END
>  <MODEL>
1

>  <REMARK>
 VINA RESULT:      -7.5      0.000      0.000
  Name = 
  18 active torsions:
  status: ('A' for Active; 'I' for Inactive)
    1  A    between atoms: C_1  and  C_34
    2  A    between atoms: C_1  and  C_35
    3  A    between atoms: C_2  and  O_6
    4  A    between atoms: C_2  and  C_27
    5  A    between atoms: C_3  and  C_4
    6  A    between atoms: C_3  and  C_12
    7  A    between atoms: C_4  and  C_15
    8  A    between atoms: O_6  and  C_12
    9  A    between atoms: C_10  and  C_15
   10  A    between atoms: C_10  and  C_41
   11  A    between atoms: C_11  and  C_14
   12  A    between atoms: C_13  and  C_27
   13  A    between atoms: C_13  and  C_30
   14  A    between atoms: C_14  and  O_22
   15  A    between atoms: C_19  and  O_37
   16  A    between atoms: O_22  and  C_41
   17  A    between atoms: C_27  and  C_38
   18  A    between atoms: C_34  and  C_38
                            x       y       z     vdW  Elec       q    Type
                         _______ _______ _______ _____ _____    ______ ____

>  <TORSDO>
F 18

$$$$
=
 OpenBabel11052416423D

 43 46  0  0  1  0  0  0  0  0999 V2000
  188.3850  177.2290  141.5810 C   0  0  1  0  0  3  0  0  0  0  0  0
  189.5270  177.2120  140.6070 C   0  0  0  0  0  0  0  0  0  0  0  0
  190.3180  176.2320  140.5950 O   0  0  0  0  0  0  0  0  0  0  0  0
  189.7040  178.2350  139.6670 O   0  0  0  0  0  0  0  0  0  0  0  0
  188.8520  178.4830  138.5810 C   0  0  0  0  0  0  0  0  0  0  0  0
  189.0620  179.4390  137.7890 O   0  0  0  0  0  0  0  0  0  0  0  0
  187.7040  177.5740  138.3270 C   0  0  0  0  0  2  0  0  0  0  0  0
  186.8080  178.1610  137.2510 C   0  0  0  0  0  2  0  0  0  0  0  0
  186.2490  177.0570  136.3710 C   0  0  1  0  0  3  0  0  0  0  0  0
  186.2680  177.5240  134.9300 C   0  0  0  0  0  1  0  0  0  0  0  0
  187.1040  175.8040  136.4870 C   0  0  0  0  0  2  0  0  0  0  0  0
  188.0460  175.6810  135.3050 C   0  0  0  0  0  2  0  0  0  0  0  0
  189.3620  175.8230  135.7410 O   0  0  0  0  0  0  0  0  0  0  0  0
  189.5340  174.8070  136.6850 C   0  0  0  0  0  2  0  0  0  0  0  0
  190.8910  174.9260  137.3650 C   0  0  1  0  0  3  0  0  0  0  0  0
  192.7780  176.4940  137.4560 C   0  0  0  0  0  3  0  0  0  0  0  0
  193.3390  174.1110  137.0860 C   0  0  0  0  0  2  0  0  0  0  0  0
  193.6030  175.3430  137.9560 C   0  0  0  0  0  2  0  0  0  0  0  0
  191.8380  173.7960  136.9150 C   0  0  0  0  0  2  0  0  0  0  0  0
  191.4880  176.2940  137.1670 C   0  0  0  0  0  3  0  0  0  0  0  0
  188.7490  176.4230  142.8230 C   0  0  0  0  0  2  0  0  0  0  0  0
  188.1430  177.1270  148.0090 C   0  0  0  0  0  2  0  0  0  0  0  0
  190.9480  176.6300  143.9320 C   0  0  0  0  0  2  0  0  0  0  0  0
  189.8590  177.8500  146.2380 C   0  0  1  0  0  3  0  0  0  0  0  0
  186.5490  177.4680  146.0740 C   0  0  0  0  0  2  0  0  0  0  0  0
  186.8250  177.7390  147.5480 C   0  0  0  0  0  2  0  0  0  0  0  0
  188.8700  177.2860  145.1970 C   0  0  1  0  0  3  0  0  0  0  0  0
  189.2950  178.0590  147.6500 C   0  0  0  0  0  2  0  0  0  0  0  0
  187.5870  178.1090  145.1620 C   0  0  0  0  0  2  0  0  0  0  0  0
  189.5540  177.2480  143.8190 C   0  0  2  0  0  3  0  0  0  0  0  0
  191.7040  177.2620  145.0990 C   0  0  0  0  0  2  0  0  0  0  0  0
  191.0040  177.0390  146.2970 O   0  0  0  0  0  0  0  0  0  0  0  0
  188.0210  178.6630  141.9350 C   0  0  0  0  0  2  0  0  0  0  0  0
  186.5390  178.9060  141.7070 C   0  0  0  0  0  2  0  0  0  0  0  0
  185.7080  177.8670  142.4460 C   0  0  0  0  0  2  0  0  0  0  0  0
  182.1180  178.8280  141.6990 C   0  0  0  0  0  3  0  0  0  0  0  0
  181.6400  179.1520  142.9740 C   0  0  0  0  0  0  0  0  0  0  0  0
  183.8290  178.6610  143.9040 C   0  0  0  0  0  3  0  0  0  0  0  0
  183.4440  178.4200  141.5260 C   0  0  0  0  0  3  0  0  0  0  0  0
  184.3020  178.3390  142.6280 C   0  0  0  0  0  0  0  0  0  0  0  0
  182.5030  179.0670  144.0770 C   0  0  0  0  0  3  0  0  0  0  0  0
  179.6690  180.4290  142.1930 C   0  0  0  0  0  1  0  0  0  0  0  0
  180.3080  179.5530  143.1130 O   0  0  0  0  0  0  0  0  0  0  0  0
  1 33  1  1  0  0  0
  1 21  1  0  0  0  0
  2  1  1  0  0  0  0
  3  2  2  0  0  0  0
  4  2  1  0  0  0  0
  5  4  1  0  0  0  0
  6  5  2  0  0  0  0
  7  5  1  0  0  0  0
  8  7  1  0  0  0  0
  9 10  1  6  0  0  0
  9 11  1  0  0  0  0
  9  8  1  0  0  0  0
 12 13  1  0  0  0  0
 12 11  1  0  0  0  0
 13 14  1  0  0  0  0
 15 14  1  6  0  0  0
 16 18  1  0  0  0  0
 17 18  1  0  0  0  0
 19 17  1  0  0  0  0
 19 15  1  0  0  0  0
 20 15  1  0  0  0  0
 20 16  2  0  0  0  0
 23 31  1  0  0  0  0
 24 32  1  0  0  0  0
 24 28  1  1  0  0  0
 25 26  1  0  0  0  0
 26 22  1  0  0  0  0
 27 29  1  6  0  0  0
 27 24  1  0  0  0  0
 28 22  1  0  0  0  0
 29 25  1  0  0  0  0
 30 21  1  6  0  0  0
 30 23  1  0  0  0  0
 30 27  1  0  0  0  0
 31 32  1  0  0  0  0
 34 33  1  0  0  0  0
 34 35  1  0  0  0  0
 35 40  1  0  0  0  0
 36 37  1  0  0  0  0
 37 43  1  0  0  0  0
 37 41  2  0  0  0  0
 38 41  1  0  0  0  0
 39 36  2  0  0  0  0
 39 40  1  0  0  0  0
 40 38  2  0  0  0  0
 42 43  1  0  0  0  0
M  END
>  <MODEL>
2

>  <REMARK>
 VINA RESULT:      -7.5      2.051      4.628
  Name = 
  18 active torsions:
  status: ('A' for Active; 'I' for Inactive)
    1  A    between atoms: C_1  and  C_34
    2  A    between atoms: C_1  and  C_35
    3  A    between atoms: C_2  and  O_6
    4  A    between atoms: C_2  and  C_27
    5  A    between atoms: C_3  and  C_4
    6  A    between atoms: C_3  and  C_12
    7  A    between atoms: C_4  and  C_15
    8  A    between atoms: O_6  and  C_12
    9  A    between atoms: C_10  and  C_15
   10  A    between atoms: C_10  and  C_41
   11  A    between atoms: C_11  and  C_14
   12  A    between atoms: C_13  and  C_27
   13  A    between atoms: C_13  and  C_30
   14  A    between atoms: C_14  and  O_22
   15  A    between atoms: C_19  and  O_37
   16  A    between atoms: O_22  and  C_41
   17  A    between atoms: C_27  and  C_38
   18  A    between atoms: C_34  and  C_38
                            x       y       z     vdW  Elec       q    Type
                         _______ _______ _______ _____ _____    ______ ____

>  <TORSDO>
F 18

$$$$
=
 OpenBabel11052416423D

 43 46  0  0  1  0  0  0  0  0999 V2000
  188.5590  177.5650  137.7340 C   0  0  1  0  0  3  0  0  0  0  0  0
  187.3770  178.3950  137.3280 C   0  0  0  0  0  0  0  0  0  0  0  0
  187.5600  179.4650  136.6880 O   0  0  0  0  0  0  0  0  0  0  0  0
  186.0640  177.9810  137.5910 O   0  0  0  0  0  0  0  0  0  0  0  0
  185.2860  178.4210  138.6710 C   0  0  0  0  0  0  0  0  0  0  0  0
  185.8140  178.9430  139.6890 O   0  0  0  0  0  0  0  0  0  0  0  0
  183.8050  178.3190  138.5990 C   0  0  0  0  0  2  0  0  0  0  0  0
  183.2750  177.6180  139.8370 C   0  0  0  0  0  2  0  0  0  0  0  0
  182.1320  178.4130  140.4420 C   0  0  1  0  0  3  0  0  0  0  0  0
  180.8730  177.5720  140.3980 C   0  0  0  0  0  1  0  0  0  0  0  0
  182.4360  178.7560  141.8930 C   0  0  0  0  0  2  0  0  0  0  0  0
  183.8020  178.2350  142.2970 C   0  0  0  0  0  2  0  0  0  0  0  0
  184.5150  179.2450  142.9390 O   0  0  0  0  0  0  0  0  0  0  0  0
  184.3410  178.9910  144.3020 C   0  0  0  0  0  2  0  0  0  0  0  0
  185.6860  178.8320  144.9970 C   0  0  1  0  0  3  0  0  0  0  0  0
  187.4610  177.1510  145.2190 C   0  0  0  0  0  3  0  0  0  0  0  0
  186.6730  178.2070  147.3140 C   0  0  0  0  0  2  0  0  0  0  0  0
  187.8960  177.8920  146.4490 C   0  0  0  0  0  2  0  0  0  0  0  0
  185.5300  178.8830  146.5290 C   0  0  0  0  0  2  0  0  0  0  0  0
  186.4050  177.5930  144.5300 C   0  0  0  0  0  3  0  0  0  0  0  0
  189.5070  177.3960  136.5520 C   0  0  0  0  0  2  0  0  0  0  0  0
  193.4840  174.0910  137.5590 C   0  0  0  0  0  2  0  0  0  0  0  0
  188.6550  175.1090  136.9410 C   0  0  0  0  0  2  0  0  0  0  0  0
  191.1700  173.9090  136.4580 C   0  0  1  0  0  3  0  0  0  0  0  0
  193.4330  176.3600  136.4400 C   0  0  0  0  0  2  0  0  0  0  0  0
  194.2460  175.0980  136.7030 C   0  0  0  0  0  2  0  0  0  0  0  0
  191.1210  175.4490  136.5450 C   0  0  1  0  0  3  0  0  0  0  0  0
  192.5490  173.2720  136.6780 C   0  0  0  0  0  2  0  0  0  0  0  0
  192.1700  176.0790  135.6370 C   0  0  0  0  0  2  0  0  0  0  0  0
  189.7030  175.9290  136.1880 C   0  0  2  0  0  3  0  0  0  0  0  0
  188.9690  173.6200  136.8100 C   0  0  0  0  0  2  0  0  0  0  0  0
  190.2390  173.3510  137.3500 O   0  0  0  0  0  0  0  0  0  0  0  0
  189.2610  178.2030  138.9240 C   0  0  0  0  0  2  0  0  0  0  0  0
  188.9430  177.4410  140.1990 C   0  0  0  0  0  2  0  0  0  0  0  0
  189.0010  178.3690  141.4040 C   0  0  0  0  0  2  0  0  0  0  0  0
  190.7570  175.7850  143.5500 C   0  0  0  0  0  3  0  0  0  0  0  0
  191.2820  176.5770  144.5770 C   0  0  0  0  0  0  0  0  0  0  0  0
  190.2940  178.5420  143.5450 C   0  0  0  0  0  3  0  0  0  0  0  0
  190.0070  176.3660  142.5230 C   0  0  0  0  0  3  0  0  0  0  0  0
  189.7720  177.7450  142.5210 C   0  0  0  0  0  0  0  0  0  0  0  0
  191.0460  177.9610  144.5700 C   0  0  0  0  0  3  0  0  0  0  0  0
  191.8250  176.2370  146.9660 C   0  0  0  0  0  1  0  0  0  0  0  0
  192.0310  175.9660  145.5860 O   0  0  0  0  0  0  0  0  0  0  0  0
  1 21  1  6  0  0  0
  1 33  1  0  0  0  0
  2  4  1  0  0  0  0
  2  1  1  0  0  0  0
  3  2  2  0  0  0  0
  4  5  1  0  0  0  0
  5  6  2  0  0  0  0
  7  5  1  0  0  0  0
  7  8  1  0  0  0  0
  8  9  1  0  0  0  0
  9 10  1  1  0  0  0
  9 11  1  0  0  0  0
 11 12  1  0  0  0  0
 12 13  1  0  0  0  0
 13 14  1  0  0  0  0
 15 14  1  6  0  0  0
 15 19  1  0  0  0  0
 16 18  1  0  0  0  0
 18 17  1  0  0  0  0
 19 17  1  0  0  0  0
 20 15  1  0  0  0  0
 20 16  2  0  0  0  0
 24 27  1  0  0  0  0
 24 28  1  1  0  0  0
 24 32  1  0  0  0  0
 25 26  1  0  0  0  0
 26 22  1  0  0  0  0
 27 29  1  6  0  0  0
 28 22  1  0  0  0  0
 29 25  1  0  0  0  0
 30 27  1  0  0  0  0
 30 21  1  1  0  0  0
 30 23  1  0  0  0  0
 31 23  1  0  0  0  0
 31 32  1  0  0  0  0
 33 34  1  0  0  0  0
 34 35  1  0  0  0  0
 35 40  1  0  0  0  0
 36 37  1  0  0  0  0
 37 43  1  0  0  0  0
 38 41  1  0  0  0  0
 39 36  2  0  0  0  0
 40 39  1  0  0  0  0
 40 38  2  0  0  0  0
 41 37  2  0  0  0  0
 43 42  1  0  0  0  0
M  END
>  <MODEL>
3

>  <REMARK>
 VINA RESULT:      -7.4      2.877      8.336
  Name = 
  18 active torsions:
  status: ('A' for Active; 'I' for Inactive)
    1  A    between atoms: C_1  and  C_34
    2  A    between atoms: C_1  and  C_35
    3  A    between atoms: C_2  and  O_6
    4  A    between atoms: C_2  and  C_27
    5  A    between atoms: C_3  and  C_4
    6  A    between atoms: C_3  and  C_12
    7  A    between atoms: C_4  and  C_15
    8  A    between atoms: O_6  and  C_12
    9  A    between atoms: C_10  and  C_15
   10  A    between atoms: C_10  and  C_41
   11  A    between atoms: C_11  and  C_14
   12  A    between atoms: C_13  and  C_27
   13  A    between atoms: C_13  and  C_30
   14  A    between atoms: C_14  and  O_22
   15  A    between atoms: C_19  and  O_37
   16  A    between atoms: O_22  and  C_41
   17  A    between atoms: C_27  and  C_38
   18  A    between atoms: C_34  and  C_38
                            x       y       z     vdW  Elec       q    Type
                         _______ _______ _______ _____ _____    ______ ____

>  <TORSDO>
F 18

$$$$
=
 OpenBabel11052416423D

 43 46  0  0  1  0  0  0  0  0999 V2000
  183.9410  178.6750  140.2860 C   0  0  1  0  0  3  0  0  0  0  0  0
  185.2450  178.6520  139.5430 C   0  0  0  0  0  0  0  0  0  0  0  0
  186.3220  178.8200  140.1750 O   0  0  0  0  0  0  0  0  0  0  0  0
  185.3020  178.3910  138.1680 O   0  0  0  0  0  0  0  0  0  0  0  0
  186.4830  178.2210  137.4320 C   0  0  0  0  0  0  0  0  0  0  0  0
  187.1510  179.2100  137.0280 O   0  0  0  0  0  0  0  0  0  0  0  0
  186.9900  176.8490  137.1640 C   0  0  0  0  0  2  0  0  0  0  0  0
  188.1610  176.5430  138.0800 C   0  0  0  0  0  2  0  0  0  0  0  0
  189.2470  175.8050  137.3160 C   0  0  1  0  0  3  0  0  0  0  0  0
  189.5790  176.5860  136.0620 C   0  0  0  0  0  1  0  0  0  0  0  0
  190.5050  175.6890  138.1640 C   0  0  0  0  0  2  0  0  0  0  0  0
  190.6180  176.8550  139.1270 C   0  0  0  0  0  2  0  0  0  0  0  0
  190.7260  176.3730  140.4300 O   0  0  0  0  0  0  0  0  0  0  0  0
  190.9930  177.5050  141.2050 C   0  0  0  0  0  2  0  0  0  0  0  0
  190.6460  177.2520  142.6660 C   0  0  1  0  0  3  0  0  0  0  0  0
  190.6700  178.4580  144.8040 C   0  0  0  0  0  3  0  0  0  0  0  0
  191.6630  176.1910  144.8040 C   0  0  0  0  0  2  0  0  0  0  0  0
  190.6380  177.1130  145.4690 C   0  0  0  0  0  2  0  0  0  0  0  0
  191.5380  176.1490  143.2660 C   0  0  0  0  0  2  0  0  0  0  0  0
  190.6810  178.5260  143.4690 C   0  0  0  0  0  3  0  0  0  0  0  0
  182.8850  177.8990  139.5070 C   0  0  0  0  0  2  0  0  0  0  0  0
  179.7440  180.5870  142.7720 C   0  0  0  0  0  2  0  0  0  0  0  0
  182.0790  179.9690  138.4250 C   0  0  0  0  0  2  0  0  0  0  0  0
  179.9230  180.2730  140.2280 C   0  0  1  0  0  3  0  0  0  0  0  0
  180.4580  178.1600  142.7540 C   0  0  0  0  0  2  0  0  0  0  0  0
  179.4860  179.1880  143.3220 C   0  0  0  0  0  2  0  0  0  0  0  0
  180.9620  179.1760  140.5400 C   0  0  1  0  0  3  0  0  0  0  0  0
  179.0680  180.7380  141.4150 C   0  0  0  0  0  2  0  0  0  0  0  0
  180.3100  177.9940  141.2470 C   0  0  0  0  0  2  0  0  0  0  0  0
  181.6470  178.7440  139.2320 C   0  0  2  0  0  3  0  0  0  0  0  0
  180.9270  180.9690  138.3430 C   0  0  0  0  0  2  0  0  0  0  0  0
  180.5580  181.3770  139.6360 O   0  0  0  0  0  0  0  0  0  0  0  0
  184.1270  178.1100  141.6860 C   0  0  0  0  0  2  0  0  0  0  0  0
  184.4410  179.2240  142.6710 C   0  0  0  0  0  2  0  0  0  0  0  0
  183.8710  178.8970  144.0430 C   0  0  0  0  0  2  0  0  0  0  0  0
  187.1460  177.5180  145.3620 C   0  0  0  0  0  3  0  0  0  0  0  0
  187.0220  177.7540  146.7360 C   0  0  0  0  0  0  0  0  0  0  0  0
  184.8230  178.7160  146.3560 C   0  0  0  0  0  3  0  0  0  0  0  0
  186.1170  177.8800  144.4870 C   0  0  0  0  0  3  0  0  0  0  0  0
  184.9530  178.4770  144.9840 C   0  0  0  0  0  0  0  0  0  0  0  0
  185.8530  178.3550  147.2300 C   0  0  0  0  0  3  0  0  0  0  0  0
  188.7010  178.2980  148.4690 C   0  0  0  0  0  1  0  0  0  0  0  0
  188.0700  177.3830  147.5830 O   0  0  0  0  0  0  0  0  0  0  0  0
  1 21  1  6  0  0  0
  1 33  1  0  0  0  0
  2  3  2  0  0  0  0
  2  1  1  0  0  0  0
  4  2  1  0  0  0  0
  5  4  1  0  0  0  0
  6  5  2  0  0  0  0
  7  5  1  0  0  0  0
  7  8  1  0  0  0  0
  9 10  1  6  0  0  0
  9  8  1  0  0  0  0
  9 11  1  0  0  0  0
 11 12  1  0  0  0  0
 12 13  1  0  0  0  0
 13 14  1  0  0  0  0
 15 14  1  6  0  0  0
 15 19  1  0  0  0  0
 15 20  1  0  0  0  0
 16 18  1  0  0  0  0
 17 18  1  0  0  0  0
 19 17  1  0  0  0  0
 20 16  2  0  0  0  0
 22 26  1  0  0  0  0
 23 30  1  0  0  0  0
 24 27  1  0  0  0  0
 24 28  1  1  0  0  0
 25 26  1  0  0  0  0
 27 29  1  6  0  0  0
 28 22  1  0  0  0  0
 29 25  1  0  0  0  0
 30 21  1  1  0  0  0
 30 27  1  0  0  0  0
 31 23  1  0  0  0  0
 31 32  1  0  0  0  0
 32 24  1  0  0  0  0
 33 34  1  0  0  0  0
 34 35  1  0  0  0  0
 35 40  1  0  0  0  0
 36 37  1  0  0  0  0
 37 41  2  0  0  0  0
 37 43  1  0  0  0  0
 38 41  1  0  0  0  0
 39 40  1  0  0  0  0
 39 36  2  0  0  0  0
 40 38  2  0  0  0  0
 43 42  1  0  0  0  0
M  END
>  <MODEL>
4

>  <REMARK>
 VINA RESULT:      -7.4      1.877      8.061
  Name = 
  18 active torsions:
  status: ('A' for Active; 'I' for Inactive)
    1  A    between atoms: C_1  and  C_34
    2  A    between atoms: C_1  and  C_35
    3  A    between atoms: C_2  and  O_6
    4  A    between atoms: C_2  and  C_27
    5  A    between atoms: C_3  and  C_4
    6  A    between atoms: C_3  and  C_12
    7  A    between atoms: C_4  and  C_15
    8  A    between atoms: O_6  and  C_12
    9  A    between atoms: C_10  and  C_15
   10  A    between atoms: C_10  and  C_41
   11  A    between atoms: C_11  and  C_14
   12  A    between atoms: C_13  and  C_27
   13  A    between atoms: C_13  and  C_30
   14  A    between atoms: C_14  and  O_22
   15  A    between atoms: C_19  and  O_37
   16  A    between atoms: O_22  and  C_41
   17  A    between atoms: C_27  and  C_38
   18  A    between atoms: C_34  and  C_38
                            x       y       z     vdW  Elec       q    Type
                         _______ _______ _______ _____ _____    ______ ____

>  <TORSDO>
F 18

$$$$
=
 OpenBabel11052416423D

 43 46  0  0  1  0  0  0  0  0999 V2000
  185.8080  178.0310  141.8200 C   0  0  1  0  0  3  0  0  0  0  0  0
  184.7210  178.9440  141.3330 C   0  0  0  0  0  0  0  0  0  0  0  0
  183.7060  179.1400  142.0540 O   0  0  0  0  0  0  0  0  0  0  0  0
  184.8310  179.6340  140.1190 O   0  0  0  0  0  0  0  0  0  0  0  0
  183.8360  179.6860  139.1330 C   0  0  0  0  0  0  0  0  0  0  0  0
  183.1380  180.7210  138.9620 O   0  0  0  0  0  0  0  0  0  0  0  0
  183.6290  178.5190  138.2360 C   0  0  0  0  0  2  0  0  0  0  0  0
  183.2030  177.3110  139.0510 C   0  0  0  0  0  2  0  0  0  0  0  0
  181.6940  177.2950  139.2200 C   0  0  1  0  0  3  0  0  0  0  0  0
  181.0520  177.7170  137.9150 C   0  0  0  0  0  1  0  0  0  0  0  0
  181.2140  175.8940  139.5680 C   0  0  0  0  0  2  0  0  0  0  0  0
  180.6810  175.1840  138.3390 C   0  0  0  0  0  2  0  0  0  0  0  0
  181.5760  174.1890  137.9500 O   0  0  0  0  0  0  0  0  0  0  0  0
  181.6450  174.2980  136.5590 C   0  0  0  0  0  2  0  0  0  0  0  0
  183.0810  174.5260  136.1070 C   0  0  1  0  0  3  0  0  0  0  0  0
  185.3220  174.6960  137.0960 C   0  0  0  0  0  3  0  0  0  0  0  0
  184.6910  176.4620  135.4800 C   0  0  0  0  0  2  0  0  0  0  0  0
  185.7350  175.3990  135.8360 C   0  0  0  0  0  2  0  0  0  0  0  0
  183.2480  175.9180  135.4660 C   0  0  0  0  0  2  0  0  0  0  0  0
  184.0570  174.2860  137.2290 C   0  0  0  0  0  3  0  0  0  0  0  0
  187.1690  178.6830  141.6070 C   0  0  0  0  0  2  0  0  0  0  0  0
  189.5050  178.4280  136.8910 C   0  0  0  0  0  2  0  0  0  0  0  0
  189.4910  177.8670  141.8330 C   0  0  0  0  0  2  0  0  0  0  0  0
  189.6800  177.1390  139.1070 C   0  0  1  0  0  3  0  0  0  0  0  0
  187.0630  178.5020  137.5500 C   0  0  0  0  0  2  0  0  0  0  0  0
  188.0650  178.2250  136.4340 C   0  0  0  0  0  2  0  0  0  0  0  0
  188.4310  177.9300  139.5470 C   0  0  1  0  0  3  0  0  0  0  0  0
  189.9980  177.1750  137.6060 C   0  0  0  0  0  2  0  0  0  0  0  0
  187.2160  177.5350  138.7170 C   0  0  0  0  0  2  0  0  0  0  0  0
  188.1890  177.6970  141.0490 C   0  0  2  0  0  3  0  0  0  0  0  0
  190.6140  177.0870  141.1500 C   0  0  0  0  0  2  0  0  0  0  0  0
  190.7990  177.5660  139.8420 O   0  0  0  0  0  0  0  0  0  0  0  0
  185.5810  177.6830  143.2840 C   0  0  0  0  0  2  0  0  0  0  0  0
  186.4850  178.5180  144.1750 C   0  0  0  0  0  2  0  0  0  0  0  0
  186.3900  178.0500  145.6190 C   0  0  0  0  0  2  0  0  0  0  0  0
  190.0410  177.0480  145.8070 C   0  0  0  0  0  3  0  0  0  0  0  0
  190.3060  177.1920  147.1730 C   0  0  0  0  0  0  0  0  0  0  0  0
  188.0020  177.8730  147.5320 C   0  0  0  0  0  3  0  0  0  0  0  0
  188.7650  177.3170  145.3020 C   0  0  0  0  0  3  0  0  0  0  0  0
  187.7430  177.7270  146.1650 C   0  0  0  0  0  0  0  0  0  0  0  0
  189.2780  177.6060  148.0350 C   0  0  0  0  0  3  0  0  0  0  0  0
  192.2930  175.7260  147.3170 C   0  0  0  0  0  1  0  0  0  0  0  0
  191.5930  176.9190  147.6440 O   0  0  0  0  0  0  0  0  0  0  0  0
  1 21  1  1  0  0  0
  1 33  1  0  0  0  0
  2  1  1  0  0  0  0
  2  3  2  0  0  0  0
  4  2  1  0  0  0  0
  5  4  1  0  0  0  0
  6  5  2  0  0  0  0
  7  8  1  0  0  0  0
  7  5  1  0  0  0  0
  8  9  1  0  0  0  0
  9 10  1  6  0  0  0
  9 11  1  0  0  0  0
 12 11  1  0  0  0  0
 13 12  1  0  0  0  0
 14 13  1  0  0  0  0
 15 14  1  1  0  0  0
 15 20  1  0  0  0  0
 16 20  2  0  0  0  0
 17 18  1  0  0  0  0
 18 16  1  0  0  0  0
 19 17  1  0  0  0  0
 19 15  1  0  0  0  0
 22 28  1  0  0  0  0
 24 28  1  6  0  0  0
 24 27  1  0  0  0  0
 24 32  1  0  0  0  0
 25 29  1  0  0  0  0
 26 22  1  0  0  0  0
 26 25  1  0  0  0  0
 27 29  1  6  0  0  0
 27 30  1  0  0  0  0
 30 21  1  1  0  0  0
 30 23  1  0  0  0  0
 31 23  1  0  0  0  0
 32 31  1  0  0  0  0
 33 34  1  0  0  0  0
 34 35  1  0  0  0  0
 35 40  1  0  0  0  0
 36 37  1  0  0  0  0
 37 43  1  0  0  0  0
 37 41  2  0  0  0  0
 38 41  1  0  0  0  0
 39 36  2  0  0  0  0
 39 40  1  0  0  0  0
 40 38  2  0  0  0  0
 42 43  1  0  0  0  0
M  END
>  <MODEL>
5

>  <REMARK>
 VINA RESULT:      -7.4      1.810      6.591
  Name = 
  18 active torsions:
  status: ('A' for Active; 'I' for Inactive)
    1  A    between atoms: C_1  and  C_34
    2  A    between atoms: C_1  and  C_35
    3  A    between atoms: C_2  and  O_6
    4  A    between atoms: C_2  and  C_27
    5  A    between atoms: C_3  and  C_4
    6  A    between atoms: C_3  and  C_12
    7  A    between atoms: C_4  and  C_15
    8  A    between atoms: O_6  and  C_12
    9  A    between atoms: C_10  and  C_15
   10  A    between atoms: C_10  and  C_41
   11  A    between atoms: C_11  and  C_14
   12  A    between atoms: C_13  and  C_27
   13  A    between atoms: C_13  and  C_30
   14  A    between atoms: C_14  and  O_22
   15  A    between atoms: C_19  and  O_37
   16  A    between atoms: O_22  and  C_41
   17  A    between atoms: C_27  and  C_38
   18  A    between atoms: C_34  and  C_38
                            x       y       z     vdW  Elec       q    Type
                         _______ _______ _______ _____ _____    ______ ____

>  <TORSDO>
F 18

$$$$
=
 OpenBabel11052416423D

 43 46  0  0  1  0  0  0  0  0999 V2000
  188.3720  177.2180  141.6720 C   0  0  1  0  0  3  0  0  0  0  0  0
  189.5300  177.2180  140.7180 C   0  0  0  0  0  0  0  0  0  0  0  0
  190.3430  176.2550  140.7290 O   0  0  0  0  0  0  0  0  0  0  0  0
  189.7010  178.2350  139.7700 O   0  0  0  0  0  0  0  0  0  0  0  0
  188.9420  178.3760  138.5990 C   0  0  0  0  0  0  0  0  0  0  0  0
  188.9910  179.4300  137.9100 O   0  0  0  0  0  0  0  0  0  0  0  0
  188.1000  177.2440  138.1290 C   0  0  0  0  0  2  0  0  0  0  0  0
  186.8390  177.7770  137.4730 C   0  0  0  0  0  2  0  0  0  0  0  0
  186.5030  176.9580  136.2390 C   0  0  1  0  0  3  0  0  0  0  0  0
  186.7060  177.8200  135.0100 C   0  0  0  0  0  1  0  0  0  0  0  0
  187.4190  175.7480  136.1400 C   0  0  0  0  0  2  0  0  0  0  0  0
  186.7300  174.6050  135.4190 C   0  0  0  0  0  2  0  0  0  0  0  0
  186.9710  173.4130  136.0970 O   0  0  0  0  0  0  0  0  0  0  0  0
  186.1340  173.4650  137.2150 C   0  0  0  0  0  2  0  0  0  0  0  0
  184.6710  173.4210  136.7960 C   0  0  1  0  0  3  0  0  0  0  0  0
  182.5180  174.3590  137.5100 C   0  0  0  0  0  3  0  0  0  0  0  0
  182.5670  171.9260  137.0540 C   0  0  0  0  0  2  0  0  0  0  0  0
  181.8710  173.2510  136.7300 C   0  0  0  0  0  2  0  0  0  0  0  0
  184.1020  171.9940  136.9160 C   0  0  0  0  0  2  0  0  0  0  0  0
  183.8510  174.4360  137.5470 C   0  0  0  0  0  3  0  0  0  0  0  0
  188.7200  176.4050  142.9130 C   0  0  0  0  0  2  0  0  0  0  0  0
  188.0850  177.1460  148.0910 C   0  0  0  0  0  2  0  0  0  0  0  0
  190.9140  176.5680  144.0400 C   0  0  0  0  0  2  0  0  0  0  0  0
  189.8320  177.8230  146.3320 C   0  0  1  0  0  3  0  0  0  0  0  0
  186.5160  177.5140  146.1400 C   0  0  0  0  0  2  0  0  0  0  0  0
  186.7850  177.7860  147.6160 C   0  0  0  0  0  2  0  0  0  0  0  0
  188.8390  177.2760  145.2850 C   0  0  1  0  0  3  0  0  0  0  0  0
  189.2600  178.0500  147.7380 C   0  0  0  0  0  2  0  0  0  0  0  0
  187.5760  178.1270  145.2350 C   0  0  0  0  0  2  0  0  0  0  0  0
  189.5350  177.2170  143.9130 C   0  0  2  0  0  3  0  0  0  0  0  0
  191.6730  177.1880  145.2110 C   0  0  0  0  0  2  0  0  0  0  0  0
  190.9580  176.9860  146.4040 O   0  0  0  0  0  0  0  0  0  0  0  0
  187.9920  178.6470  142.0310 C   0  0  0  0  0  2  0  0  0  0  0  0
  186.5160  178.8880  141.7600 C   0  0  0  0  0  2  0  0  0  0  0  0
  185.6660  177.8410  142.4660 C   0  0  0  0  0  2  0  0  0  0  0  0
  182.0940  178.7960  141.6350 C   0  0  0  0  0  3  0  0  0  0  0  0
  181.5840  179.1190  142.8970 C   0  0  0  0  0  0  0  0  0  0  0  0
  183.7530  178.6330  143.8790 C   0  0  0  0  0  3  0  0  0  0  0  0
  183.4240  178.3900  141.4920 C   0  0  0  0  0  3  0  0  0  0  0  0
  184.2560  178.3110  142.6150 C   0  0  0  0  0  0  0  0  0  0  0  0
  182.4220  179.0360  144.0210 C   0  0  0  0  0  3  0  0  0  0  0  0
  179.3980  179.0750  144.0550 C   0  0  0  0  0  1  0  0  0  0  0  0
  180.2490  179.5180  143.0050 O   0  0  0  0  0  0  0  0  0  0  0  0
  1 33  1  1  0  0  0
  1 21  1  0  0  0  0
  2  3  2  0  0  0  0
  2  1  1  0  0  0  0
  4  2  1  0  0  0  0
  5  4  1  0  0  0  0
  6  5  2  0  0  0  0
  7  5  1  0  0  0  0
  8  7  1  0  0  0  0
  9 10  1  6  0  0  0
  9  8  1  0  0  0  0
 11  9  1  0  0  0  0
 12 13  1  0  0  0  0
 12 11  1  0  0  0  0
 13 14  1  0  0  0  0
 15 19  1  0  0  0  0
 15 14  1  1  0  0  0
 15 20  1  0  0  0  0
 16 20  2  0  0  0  0
 18 17  1  0  0  0  0
 18 16  1  0  0  0  0
 19 17  1  0  0  0  0
 23 31  1  0  0  0  0
 24 32  1  0  0  0  0
 24 28  1  1  0  0  0
 25 26  1  0  0  0  0
 26 22  1  0  0  0  0
 27 29  1  6  0  0  0
 27 24  1  0  0  0  0
 28 22  1  0  0  0  0
 29 25  1  0  0  0  0
 30 21  1  6  0  0  0
 30 23  1  0  0  0  0
 30 27  1  0  0  0  0
 31 32  1  0  0  0  0
 34 33  1  0  0  0  0
 34 35  1  0  0  0  0
 35 40  1  0  0  0  0
 36 37  1  0  0  0  0
 37 43  1  0  0  0  0
 37 41  2  0  0  0  0
 38 41  1  0  0  0  0
 39 36  2  0  0  0  0
 39 40  1  0  0  0  0
 40 38  2  0  0  0  0
 43 42  1  0  0  0  0
M  END
>  <MODEL>
6

>  <REMARK>
 VINA RESULT:      -7.3      1.607      2.354
  Name = 
  18 active torsions:
  status: ('A' for Active; 'I' for Inactive)
    1  A    between atoms: C_1  and  C_34
    2  A    between atoms: C_1  and  C_35
    3  A    between atoms: C_2  and  O_6
    4  A    between atoms: C_2  and  C_27
    5  A    between atoms: C_3  and  C_4
    6  A    between atoms: C_3  and  C_12
    7  A    between atoms: C_4  and  C_15
    8  A    between atoms: O_6  and  C_12
    9  A    between atoms: C_10  and  C_15
   10  A    between atoms: C_10  and  C_41
   11  A    between atoms: C_11  and  C_14
   12  A    between atoms: C_13  and  C_27
   13  A    between atoms: C_13  and  C_30
   14  A    between atoms: C_14  and  O_22
   15  A    between atoms: C_19  and  O_37
   16  A    between atoms: O_22  and  C_41
   17  A    between atoms: C_27  and  C_38
   18  A    between atoms: C_34  and  C_38
                            x       y       z     vdW  Elec       q    Type
                         _______ _______ _______ _____ _____    ______ ____

>  <TORSDO>
F 18

$$$$
=
 OpenBabel11052416423D

 43 46  0  0  1  0  0  0  0  0999 V2000
  188.6560  177.3210  140.2750 C   0  0  1  0  0  3  0  0  0  0  0  0
  188.0650  178.0820  141.4250 C   0  0  0  0  0  0  0  0  0  0  0  0
  188.3380  179.3050  141.5660 O   0  0  0  0  0  0  0  0  0  0  0  0
  187.1670  177.4830  142.3170 O   0  0  0  0  0  0  0  0  0  0  0  0
  187.5350  176.7170  143.4320 C   0  0  0  0  0  0  0  0  0  0  0  0
  188.1700  175.6370  143.3030 O   0  0  0  0  0  0  0  0  0  0  0  0
  187.2150  177.2080  144.7990 C   0  0  0  0  0  2  0  0  0  0  0  0
  186.2720  178.3950  144.7140 C   0  0  0  0  0  2  0  0  0  0  0  0
  185.1130  178.2160  145.6790 C   0  0  1  0  0  3  0  0  0  0  0  0
  185.4820  178.8420  147.0070 C   0  0  0  0  0  1  0  0  0  0  0  0
  183.8680  178.9060  145.1450 C   0  0  0  0  0  2  0  0  0  0  0  0
  184.0860  179.3950  143.7250 C   0  0  0  0  0  2  0  0  0  0  0  0
  183.2130  178.7320  142.8650 O   0  0  0  0  0  0  0  0  0  0  0  0
  183.8680  178.7260  141.6300 C   0  0  0  0  0  2  0  0  0  0  0  0
  182.8950  178.3950  140.5070 C   0  0  1  0  0  3  0  0  0  0  0  0
  182.4960  176.6000  138.8810 C   0  0  0  0  0  3  0  0  0  0  0  0
  182.5000  178.9110  137.9950 C   0  0  0  0  0  2  0  0  0  0  0  0
  181.7090  177.6040  138.0890 C   0  0  0  0  0  2  0  0  0  0  0  0
  182.9980  179.4220  139.3630 C   0  0  0  0  0  2  0  0  0  0  0  0
  183.0680  176.9780  140.0280 C   0  0  0  0  0  3  0  0  0  0  0  0
  188.8740  178.2550  139.0900 C   0  0  0  0  0  2  0  0  0  0  0  0
  188.3160  173.5240  136.8380 C   0  0  0  0  0  2  0  0  0  0  0  0
  186.5880  177.9880  138.1890 C   0  0  0  0  0  2  0  0  0  0  0  0
  187.3300  175.8690  136.4710 C   0  0  1  0  0  3  0  0  0  0  0  0
  190.3770  174.8790  137.4020 C   0  0  0  0  0  2  0  0  0  0  0  0
  189.8170  173.6940  136.6250 C   0  0  0  0  0  2  0  0  0  0  0  0
  188.3790  176.3570  137.4920 C   0  0  1  0  0  3  0  0  0  0  0  0
  187.5570  174.4600  135.9050 C   0  0  0  0  0  2  0  0  0  0  0  0
  189.7910  176.2060  136.9380 C   0  0  0  0  0  2  0  0  0  0  0  0
  188.0740  177.8180  137.8690 C   0  0  2  0  0  3  0  0  0  0  0  0
  185.7440  177.3300  137.1000 C   0  0  0  0  0  2  0  0  0  0  0  0
  186.0440  175.9590  137.0280 O   0  0  0  0  0  0  0  0  0  0  0  0
  189.9540  176.6530  140.7030 C   0  0  0  0  0  2  0  0  0  0  0  0
  191.1490  177.4860  140.2690 C   0  0  0  0  0  2  0  0  0  0  0  0
  192.2510  177.4250  141.3170 C   0  0  0  0  0  2  0  0  0  0  0  0
  191.2170  176.4460  144.8300 C   0  0  0  0  0  3  0  0  0  0  0  0
  190.6800  177.6440  145.3130 C   0  0  0  0  0  0  0  0  0  0  0  0
  191.1450  178.6970  143.1730 C   0  0  0  0  0  3  0  0  0  0  0  0
  191.7190  176.3710  143.5270 C   0  0  0  0  0  3  0  0  0  0  0  0
  191.6810  177.4960  142.6960 C   0  0  0  0  0  0  0  0  0  0  0  0
  190.6460  178.7720  144.4770 C   0  0  0  0  0  3  0  0  0  0  0  0
  189.9980  176.5170  147.4070 C   0  0  0  0  0  1  0  0  0  0  0  0
  190.1910  177.6860  146.6220 O   0  0  0  0  0  0  0  0  0  0  0  0
  1 21  1  6  0  0  0
  1 33  1  0  0  0  0
  1  2  1  0  0  0  0
  2  3  2  0  0  0  0
  2  4  1  0  0  0  0
  4  5  1  0  0  0  0
  5  7  1  0  0  0  0
  6  5  2  0  0  0  0
  8  7  1  0  0  0  0
  8  9  1  0  0  0  0
  9 10  1  1  0  0  0
 11  9  1  0  0  0  0
 12 11  1  0  0  0  0
 13 12  1  0  0  0  0
 14 13  1  0  0  0  0
 15 14  1  1  0  0  0
 16 20  2  0  0  0  0
 17 18  1  0  0  0  0
 17 19  1  0  0  0  0
 18 16  1  0  0  0  0
 19 15  1  0  0  0  0
 20 15  1  0  0  0  0
 24 28  1  1  0  0  0
 24 32  1  0  0  0  0
 24 27  1  0  0  0  0
 26 22  1  0  0  0  0
 26 25  1  0  0  0  0
 27 29  1  6  0  0  0
 27 30  1  0  0  0  0
 28 22  1  0  0  0  0
 29 25  1  0  0  0  0
 30 23  1  0  0  0  0
 30 21  1  1  0  0  0
 31 23  1  0  0  0  0
 32 31  1  0  0  0  0
 34 33  1  0  0  0  0
 34 35  1  0  0  0  0
 35 40  1  0  0  0  0
 36 37  1  0  0  0  0
 37 43  1  0  0  0  0
 38 41  1  0  0  0  0
 39 36  2  0  0  0  0
 40 38  2  0  0  0  0
 40 39  1  0  0  0  0
 41 37  2  0  0  0  0
 43 42  1  0  0  0  0
M  END
>  <MODEL>
7

>  <REMARK>
 VINA RESULT:      -7.2      1.983      7.673
  Name = 
  18 active torsions:
  status: ('A' for Active; 'I' for Inactive)
    1  A    between atoms: C_1  and  C_34
    2  A    between atoms: C_1  and  C_35
    3  A    between atoms: C_2  and  O_6
    4  A    between atoms: C_2  and  C_27
    5  A    between atoms: C_3  and  C_4
    6  A    between atoms: C_3  and  C_12
    7  A    between atoms: C_4  and  C_15
    8  A    between atoms: O_6  and  C_12
    9  A    between atoms: C_10  and  C_15
   10  A    between atoms: C_10  and  C_41
   11  A    between atoms: C_11  and  C_14
   12  A    between atoms: C_13  and  C_27
   13  A    between atoms: C_13  and  C_30
   14  A    between atoms: C_14  and  O_22
   15  A    between atoms: C_19  and  O_37
   16  A    between atoms: O_22  and  C_41
   17  A    between atoms: C_27  and  C_38
   18  A    between atoms: C_34  and  C_38
                            x       y       z     vdW  Elec       q    Type
                         _______ _______ _______ _____ _____    ______ ____

>  <TORSDO>
F 18

$$$$
=
 OpenBabel11052416423D

 43 46  0  0  1  0  0  0  0  0999 V2000
  185.2680  178.7220  142.6100 C   0  0  1  0  0  3  0  0  0  0  0  0
  183.8630  178.5530  142.1090 C   0  0  0  0  0  0  0  0  0  0  0  0
  182.9110  178.5120  142.9340 O   0  0  0  0  0  0  0  0  0  0  0  0
  183.5740  178.4990  140.7390 O   0  0  0  0  0  0  0  0  0  0  0  0
  182.3520  178.0800  140.1940 C   0  0  0  0  0  0  0  0  0  0  0  0
  181.3720  178.8670  140.1010 O   0  0  0  0  0  0  0  0  0  0  0  0
  182.2190  176.6960  139.6680 C   0  0  0  0  0  2  0  0  0  0  0  0
  181.7360  176.7350  138.2290 C   0  0  0  0  0  2  0  0  0  0  0  0
  182.8780  177.1110  137.3010 C   0  0  1  0  0  3  0  0  0  0  0  0
  183.4010  175.8550  136.6350 C   0  0  0  0  0  1  0  0  0  0  0  0
  182.3910  178.0660  136.2220 C   0  0  0  0  0  2  0  0  0  0  0  0
  181.0370  178.6470  136.5850 C   0  0  0  0  0  2  0  0  0  0  0  0
  180.9640  179.9670  136.1430 O   0  0  0  0  0  0  0  0  0  0  0  0
  180.3690  180.6620  137.2000 C   0  0  0  0  0  2  0  0  0  0  0  0
  180.2920  182.1510  136.8910 C   0  0  1  0  0  3  0  0  0  0  0  0
  180.8030  183.6800  135.0390 C   0  0  0  0  0  3  0  0  0  0  0  0
  181.6310  184.3390  137.2770 C   0  0  0  0  0  2  0  0  0  0  0  0
  180.8130  184.7800  136.0600 C   0  0  0  0  0  2  0  0  0  0  0  0
  181.2110  182.9600  137.8260 C   0  0  0  0  0  2  0  0  0  0  0  0
  180.5620  182.4260  135.4350 C   0  0  0  0  0  3  0  0  0  0  0  0
  186.1620  179.2330  141.4870 C   0  0  0  0  0  2  0  0  0  0  0  0
  188.6630  178.5270  136.9030 C   0  0  0  0  0  2  0  0  0  0  0  0
  188.4620  178.4140  141.8710 C   0  0  0  0  0  2  0  0  0  0  0  0
  188.7390  177.4420  139.2310 C   0  0  1  0  0  3  0  0  0  0  0  0
  186.2000  178.6880  137.4610 C   0  0  0  0  0  2  0  0  0  0  0  0
  187.2370  178.3010  136.4130 C   0  0  0  0  0  2  0  0  0  0  0  0
  187.4860  178.2840  139.5510 C   0  0  1  0  0  3  0  0  0  0  0  0
  189.1110  177.3390  137.7450 C   0  0  0  0  0  2  0  0  0  0  0  0
  186.2960  177.8290  138.7150 C   0  0  0  0  0  2  0  0  0  0  0  0
  187.1870  178.1890  141.0580 C   0  0  2  0  0  3  0  0  0  0  0  0
  189.5970  177.5640  141.3040 C   0  0  0  0  0  2  0  0  0  0  0  0
  189.8370  177.9210  139.9660 O   0  0  0  0  0  0  0  0  0  0  0  0
  185.2860  179.6600  143.8070 C   0  0  0  0  0  2  0  0  0  0  0  0
  185.5820  178.8880  145.0820 C   0  0  0  0  0  2  0  0  0  0  0  0
  186.2750  177.5720  144.7600 C   0  0  0  0  0  2  0  0  0  0  0  0
  189.9120  177.0290  145.6770 C   0  0  0  0  0  3  0  0  0  0  0  0
  189.8840  177.1960  147.0660 C   0  0  0  0  0  0  0  0  0  0  0  0
  187.4880  177.5840  146.9540 C   0  0  0  0  0  3  0  0  0  0  0  0
  188.7370  177.1410  144.9280 C   0  0  0  0  0  3  0  0  0  0  0  0
  187.5230  177.4160  145.5660 C   0  0  0  0  0  0  0  0  0  0  0  0
  188.6640  177.4740  147.7030 C   0  0  0  0  0  3  0  0  0  0  0  0
  191.9980  176.0180  147.5780 C   0  0  0  0  0  1  0  0  0  0  0  0
  191.0770  177.0810  147.7850 O   0  0  0  0  0  0  0  0  0  0  0  0
  1 21  1  6  0  0  0
  1 33  1  0  0  0  0
  2  1  1  0  0  0  0
  2  3  2  0  0  0  0
  4  2  1  0  0  0  0
  5  4  1  0  0  0  0
  6  5  2  0  0  0  0
  7  5  1  0  0  0  0
  8  7  1  0  0  0  0
  9 10  1  6  0  0  0
  9  8  1  0  0  0  0
 11 12  1  0  0  0  0
 11  9  1  0  0  0  0
 13 12  1  0  0  0  0
 13 14  1  0  0  0  0
 15 14  1  6  0  0  0
 15 19  1  0  0  0  0
 16 20  2  0  0  0  0
 16 18  1  0  0  0  0
 17 19  1  0  0  0  0
 18 17  1  0  0  0  0
 20 15  1  0  0  0  0
 22 28  1  0  0  0  0
 24 28  1  6  0  0  0
 24 27  1  0  0  0  0
 24 32  1  0  0  0  0
 25 29  1  0  0  0  0
 26 22  1  0  0  0  0
 26 25  1  0  0  0  0
 27 29  1  6  0  0  0
 27 30  1  0  0  0  0
 30 21  1  1  0  0  0
 30 23  1  0  0  0  0
 31 23  1  0  0  0  0
 32 31  1  0  0  0  0
 33 34  1  0  0  0  0
 35 34  1  0  0  0  0
 35 40  1  0  0  0  0
 36 37  1  0  0  0  0
 37 41  2  0  0  0  0
 37 43  1  0  0  0  0
 38 41  1  0  0  0  0
 39 40  1  0  0  0  0
 39 36  2  0  0  0  0
 40 38  2  0  0  0  0
 42 43  1  0  0  0  0
M  END
>  <MODEL>
8

>  <REMARK>
 VINA RESULT:      -7.1      2.362      6.782
  Name = 
  18 active torsions:
  status: ('A' for Active; 'I' for Inactive)
    1  A    between atoms: C_1  and  C_34
    2  A    between atoms: C_1  and  C_35
    3  A    between atoms: C_2  and  O_6
    4  A    between atoms: C_2  and  C_27
    5  A    between atoms: C_3  and  C_4
    6  A    between atoms: C_3  and  C_12
    7  A    between atoms: C_4  and  C_15
    8  A    between atoms: O_6  and  C_12
    9  A    between atoms: C_10  and  C_15
   10  A    between atoms: C_10  and  C_41
   11  A    between atoms: C_11  and  C_14
   12  A    between atoms: C_13  and  C_27
   13  A    between atoms: C_13  and  C_30
   14  A    between atoms: C_14  and  O_22
   15  A    between atoms: C_19  and  O_37
   16  A    between atoms: O_22  and  C_41
   17  A    between atoms: C_27  and  C_38
   18  A    between atoms: C_34  and  C_38
                            x       y       z     vdW  Elec       q    Type
                         _______ _______ _______ _____ _____    ______ ____

>  <TORSDO>
F 18

$$$$
=
 OpenBabel11052416423D

 43 46  0  0  1  0  0  0  0  0999 V2000
  188.2890  177.3010  138.0150 C   0  0  1  0  0  3  0  0  0  0  0  0
  188.7210  178.6640  138.4720 C   0  0  0  0  0  0  0  0  0  0  0  0
  189.0500  179.5290  137.6170 O   0  0  0  0  0  0  0  0  0  0  0  0
  188.7110  179.0210  139.8270 O   0  0  0  0  0  0  0  0  0  0  0  0
  187.7710  178.5770  140.7670 C   0  0  0  0  0  0  0  0  0  0  0  0
  186.5360  178.7590  140.5940 O   0  0  0  0  0  0  0  0  0  0  0  0
  188.2290  177.8320  141.9680 C   0  0  0  0  0  2  0  0  0  0  0  0
  189.6430  178.2510  142.3280 C   0  0  0  0  0  2  0  0  0  0  0  0
  190.6000  177.0870  142.1420 C   0  0  1  0  0  3  0  0  0  0  0  0
  191.6790  177.4930  141.1590 C   0  0  0  0  0  1  0  0  0  0  0  0
  191.2600  176.7270  143.4650 C   0  0  0  0  0  2  0  0  0  0  0  0
  191.4060  177.9520  144.3480 C   0  0  0  0  0  2  0  0  0  0  0  0
  191.6820  177.5540  145.6540 O   0  0  0  0  0  0  0  0  0  0  0  0
  190.6050  176.7370  146.0110 C   0  0  0  0  0  2  0  0  0  0  0  0
  189.3900  177.5780  146.3780 C   0  0  1  0  0  3  0  0  0  0  0  0
  187.9190  177.9530  148.3070 C   0  0  0  0  0  3  0  0  0  0  0  0
  186.8070  177.5630  146.1300 C   0  0  0  0  0  2  0  0  0  0  0  0
  186.9190  178.5040  147.3330 C   0  0  0  0  0  2  0  0  0  0  0  0
  188.1730  177.2020  145.5100 C   0  0  0  0  0  2  0  0  0  0  0  0
  189.0940  177.5050  147.8520 C   0  0  0  0  0  3  0  0  0  0  0  0
  188.0070  177.3200  136.5170 C   0  0  0  0  0  2  0  0  0  0  0  0
  185.5450  172.7900  137.6020 C   0  0  0  0  0  2  0  0  0  0  0  0
  185.6150  177.7250  136.9880 C   0  0  0  0  0  2  0  0  0  0  0  0
  184.8940  175.0310  136.5260 C   0  0  1  0  0  3  0  0  0  0  0  0
  187.7250  173.2690  136.4090 C   0  0  0  0  0  2  0  0  0  0  0  0
  186.6470  172.2330  136.7070 C   0  0  0  0  0  2  0  0  0  0  0  0
  186.3990  175.3680  136.5610 C   0  0  1  0  0  3  0  0  0  0  0  0
  184.5360  173.5560  136.7550 C   0  0  0  0  0  2  0  0  0  0  0  0
  187.1840  174.4580  135.6250 C   0  0  0  0  0  2  0  0  0  0  0  0
  186.5920  176.8520  136.2000 C   0  0  2  0  0  3  0  0  0  0  0  0
  184.2080  177.1370  136.9040 C   0  0  0  0  0  2  0  0  0  0  0  0
  184.2020  175.8390  137.4430 O   0  0  0  0  0  0  0  0  0  0  0  0
  189.3510  176.2710  138.3680 C   0  0  0  0  0  2  0  0  0  0  0  0
  190.2720  176.0300  137.1840 C   0  0  0  0  0  2  0  0  0  0  0  0
  191.0680  174.7480  137.3800 C   0  0  0  0  0  2  0  0  0  0  0  0
  194.7920  174.1430  137.0100 C   0  0  0  0  0  3  0  0  0  0  0  0
  195.2150  175.3350  136.4110 C   0  0  0  0  0  0  0  0  0  0  0  0
  192.9300  176.1580  136.4680 C   0  0  0  0  0  3  0  0  0  0  0  0
  193.4450  173.9560  137.3340 C   0  0  0  0  0  3  0  0  0  0  0  0
  192.5130  174.9650  137.0660 C   0  0  0  0  0  0  0  0  0  0  0  0
  194.2770  176.3430  136.1420 C   0  0  0  0  0  3  0  0  0  0  0  0
  197.6060  174.8610  136.8380 C   0  0  0  0  0  1  0  0  0  0  0  0
  196.5690  175.4880  136.0950 O   0  0  0  0  0  0  0  0  0  0  0  0
  1 21  1  6  0  0  0
  1 33  1  0  0  0  0
  1  2  1  0  0  0  0
  2  4  1  0  0  0  0
  3  2  2  0  0  0  0
  4  5  1  0  0  0  0
  5  7  1  0  0  0  0
  6  5  2  0  0  0  0
  7  8  1  0  0  0  0
  9 10  1  6  0  0  0
  9  8  1  0  0  0  0
  9 11  1  0  0  0  0
 11 12  1  0  0  0  0
 12 13  1  0  0  0  0
 13 14  1  0  0  0  0
 15 14  1  1  0  0  0
 15 20  1  0  0  0  0
 17 18  1  0  0  0  0
 18 16  1  0  0  0  0
 19 17  1  0  0  0  0
 19 15  1  0  0  0  0
 20 16  2  0  0  0  0
 24 27  1  0  0  0  0
 24 28  1  1  0  0  0
 24 32  1  0  0  0  0
 25 26  1  0  0  0  0
 26 22  1  0  0  0  0
 27 29  1  6  0  0  0
 28 22  1  0  0  0  0
 29 25  1  0  0  0  0
 30 21  1  1  0  0  0
 30 27  1  0  0  0  0
 30 23  1  0  0  0  0
 31 23  1  0  0  0  0
 31 32  1  0  0  0  0
 34 35  1  0  0  0  0
 34 33  1  0  0  0  0
 36 39  1  0  0  0  0
 37 36  2  0  0  0  0
 38 40  1  0  0  0  0
 40 39  2  0  0  0  0
 40 35  1  0  0  0  0
 41 37  1  0  0  0  0
 41 38  2  0  0  0  0
 43 37  1  0  0  0  0
 43 42  1  0  0  0  0
M  END
>  <MODEL>
9

>  <REMARK>
 VINA RESULT:      -7.0      3.390     10.316
  Name = 
  18 active torsions:
  status: ('A' for Active; 'I' for Inactive)
    1  A    between atoms: C_1  and  C_34
    2  A    between atoms: C_1  and  C_35
    3  A    between atoms: C_2  and  O_6
    4  A    between atoms: C_2  and  C_27
    5  A    between atoms: C_3  and  C_4
    6  A    between atoms: C_3  and  C_12
    7  A    between atoms: C_4  and  C_15
    8  A    between atoms: O_6  and  C_12
    9  A    between atoms: C_10  and  C_15
   10  A    between atoms: C_10  and  C_41
   11  A    between atoms: C_11  and  C_14
   12  A    between atoms: C_13  and  C_27
   13  A    between atoms: C_13  and  C_30
   14  A    between atoms: C_14  and  O_22
   15  A    between atoms: C_19  and  O_37
   16  A    between atoms: O_22  and  C_41
   17  A    between atoms: C_27  and  C_38
   18  A    between atoms: C_34  and  C_38
                            x       y       z     vdW  Elec       q    Type
                         _______ _______ _______ _____ _____    ______ ____

>  <TORSDO>
F 18

$$$$
