=
 OpenBabel11052413063D

 31 34  0  0  1  0  0  0  0  0999 V2000
  185.1680  178.4240  145.7160 C   0  0  0  0  0  0  0  0  0  0  0  0
  188.4290  177.6900  143.9710 C   0  0  0  0  0  0  0  0  0  0  0  0
  189.3740  177.3590  145.0000 C   0  0  0  0  0  0  0  0  0  0  0  0
  189.9750  177.0080  147.3470 C   0  0  0  0  0  3  0  0  0  0  0  0
  187.0650  178.0350  144.2200 C   0  0  0  0  0  0  0  0  0  0  0  0
  184.3550  178.7360  144.6270 C   0  0  0  0  0  3  0  0  0  0  0  0
  189.0350  177.3330  146.3670 C   0  0  0  0  0  3  0  0  0  0  0  0
  187.9760  178.0010  141.5620 C   0  0  0  0  0  0  0  0  0  0  0  0
  184.6360  178.4600  147.0340 N   0  0  0  0  0  1  0  0  0  0  0  0
  191.1180  177.0500  143.3280 C   0  0  0  0  0  3  0  0  0  0  0  0
  191.2850  176.7020  146.9820 C   0  0  0  0  0  0  0  0  0  0  0  0
  186.6970  178.3280  141.8640 N   0  0  0  0  0  0  0  0  0  0  0  0
  188.8780  177.6810  142.6120 C   0  0  0  0  0  0  0  0  0  0  0  0
  186.5050  178.0800  145.5110 C   0  0  0  0  0  3  0  0  0  0  0  0
  192.2200  176.3790  147.9550 O   0  0  0  0  0  1  0  0  0  0  0  0
  186.2210  178.3540  143.1290 C   0  0  0  0  0  0  0  0  0  0  0  0
  184.8820  178.7000  143.3380 C   0  0  0  0  0  3  0  0  0  0  0  0
  190.2130  177.3640  142.3280 C   0  0  0  0  0  3  0  0  0  0  0  0
  190.7130  177.0430  144.6530 C   0  0  0  0  0  0  0  0  0  0  0  0
  191.6520  176.7190  145.6380 C   0  0  0  0  0  3  0  0  0  0  0  0
  187.4550  178.1560  139.1230 C   0  0  0  0  0  3  0  0  0  0  0  0
  188.3210  178.0250  140.1200 C   0  0  0  0  0  3  0  0  0  0  0  0
  187.2380  179.1340  136.9720 O   0  0  0  0  0  1  0  0  0  0  0  0
  187.9080  178.1490  137.7010 C   0  0  1  0  0  3  0  0  0  0  0  0
  189.4200  178.3460  137.6000 C   0  0  0  0  0  2  0  0  0  0  0  0
  189.6680  176.6430  135.9510 O   0  0  0  0  0  0  0  0  0  0  0  0
  190.1160  177.1630  137.0060 C   0  0  0  0  0  0  0  0  0  0  0  0
  191.2830  176.6410  137.6550 N   0  0  0  0  0  2  0  0  0  0  0  0
  192.2030  175.6760  137.1260 C   0  0  0  0  0  0  0  0  0  0  0  0
  193.6610  176.1050  136.5130 S   0  0  0  0  0  0  0  0  0  0  0  0
  191.9100  174.2320  137.3170 C   0  0  0  0  0  1  0  0  0  0  0  0
  1  9  1  0  0  0  0
  2  5  1  0  0  0  0
  2  3  1  0  0  0  0
  3  7  1  0  0  0  0
  5 14  2  0  0  0  0
  6  1  2  0  0  0  0
  7  4  2  0  0  0  0
  8 12  2  0  0  0  0
  8 13  1  0  0  0  0
 10 19  1  0  0  0  0
 11  4  1  0  0  0  0
 11 15  1  0  0  0  0
 12 16  1  0  0  0  0
 13  2  2  0  0  0  0
 14  1  1  0  0  0  0
 16 17  2  0  0  0  0
 16  5  1  0  0  0  0
 17  6  1  0  0  0  0
 18 13  1  0  0  0  0
 18 10  2  0  0  0  0
 19  3  2  0  0  0  0
 19 20  1  0  0  0  0
 20 11  2  0  0  0  0
 21 22  2  0  0  0  0
 22  8  1  0  0  0  0
 24 23  1  6  0  0  0
 24 21  1  0  0  0  0
 25 24  1  0  0  0  0
 26 27  2  0  0  0  0
 27 25  1  0  0  0  0
 27 28  1  0  0  0  0
 29 31  1  0  0  0  0
 29 28  1  0  0  0  0
 30 29  2  0  0  0  0
M  END
>  <MODEL>
1

>  <REMARK>
 VINA RESULT:     -10.6      0.000      0.000
  Name = 
  5 active torsions:
  status: ('A' for Active; 'I' for Inactive)
    1  A    between atoms: C_1  and  N_24
    2  A    between atoms: C_3  and  C_19
    3  A    between atoms: C_3  and  C_22
    4  A    between atoms: C_9  and  C_22
    5  A    between atoms: C_15  and  C_23
                            x       y       z     vdW  Elec       q    Type
                         _______ _______ _______ _____ _____    ______ ____

>  <TORSDO>
F 5

$$$$
=
 OpenBabel11052413063D

 31 34  0  0  1  0  0  0  0  0999 V2000
  185.5290  178.3890  145.6890 C   0  0  0  0  0  0  0  0  0  0  0  0
  188.8110  177.4030  144.1190 C   0  0  0  0  0  0  0  0  0  0  0  0
  189.7090  177.1170  145.2030 C   0  0  0  0  0  0  0  0  0  0  0  0
  190.2220  176.9250  147.5880 C   0  0  0  0  0  3  0  0  0  0  0  0
  187.4550  177.8170  144.2940 C   0  0  0  0  0  0  0  0  0  0  0  0
  184.7640  178.6470  144.5530 C   0  0  0  0  0  3  0  0  0  0  0  0
  189.3270  177.2080  146.5550 C   0  0  0  0  0  3  0  0  0  0  0  0
  188.4480  177.5460  141.6790 C   0  0  0  0  0  0  0  0  0  0  0  0
  184.9580  178.5460  146.9820 N   0  0  0  0  0  1  0  0  0  0  0  0
  191.4920  176.6170  143.6200 C   0  0  0  0  0  3  0  0  0  0  0  0
  191.5290  176.5440  147.2930 C   0  0  0  0  0  0  0  0  0  0  0  0
  187.1740  177.9420  141.9110 N   0  0  0  0  0  0  0  0  0  0  0  0
  189.3030  177.2730  142.7810 C   0  0  0  0  0  0  0  0  0  0  0  0
  186.8560  177.9810  145.5580 C   0  0  0  0  0  3  0  0  0  0  0  0
  192.4200  176.2620  148.3190 O   0  0  0  0  0  1  0  0  0  0  0  0
  186.6600  178.0820  143.1530 C   0  0  0  0  0  0  0  0  0  0  0  0
  185.3300  178.4920  143.2890 C   0  0  0  0  0  3  0  0  0  0  0  0
  190.6320  176.8860  142.5680 C   0  0  0  0  0  3  0  0  0  0  0  0
  191.0450  176.7260  144.9260 C   0  0  0  0  0  0  0  0  0  0  0  0
  191.9390  176.4440  145.9650 C   0  0  0  0  0  3  0  0  0  0  0  0
  188.8370  178.4480  139.3810 C   0  0  0  0  0  3  0  0  0  0  0  0
  188.8400  177.4460  140.2520 C   0  0  0  0  0  3  0  0  0  0  0  0
  189.6510  176.9160  137.7620 O   0  0  0  0  0  1  0  0  0  0  0  0
  189.2340  178.2340  137.9580 C   0  0  1  0  0  3  0  0  0  0  0  0
  188.0890  178.5800  137.0060 C   0  0  0  0  0  2  0  0  0  0  0  0
  186.6150  176.7530  137.4170 O   0  0  0  0  0  0  0  0  0  0  0  0
  186.7820  178.0000  137.4450 C   0  0  0  0  0  0  0  0  0  0  0  0
  185.7410  178.8800  137.8870 N   0  0  0  0  0  2  0  0  0  0  0  0
  184.5240  178.5100  138.5490 C   0  0  0  0  0  0  0  0  0  0  0  0
  183.4430  177.4800  137.8730 S   0  0  0  0  0  0  0  0  0  0  0  0
  184.3280  178.9150  139.9650 C   0  0  0  0  0  1  0  0  0  0  0  0
  1  9  1  0  0  0  0
  2  5  1  0  0  0  0
  2  3  1  0  0  0  0
  3  7  1  0  0  0  0
  5 14  2  0  0  0  0
  6  1  2  0  0  0  0
  7  4  2  0  0  0  0
  8 12  2  0  0  0  0
  8 13  1  0  0  0  0
 10 19  1  0  0  0  0
 11  4  1  0  0  0  0
 11 15  1  0  0  0  0
 12 16  1  0  0  0  0
 13  2  2  0  0  0  0
 14  1  1  0  0  0  0
 16 17  2  0  0  0  0
 16  5  1  0  0  0  0
 17  6  1  0  0  0  0
 18 13  1  0  0  0  0
 18 10  2  0  0  0  0
 19  3  2  0  0  0  0
 19 20  1  0  0  0  0
 20 11  2  0  0  0  0
 21 22  2  0  0  0  0
 22  8  1  0  0  0  0
 24 23  1  1  0  0  0
 24 21  1  0  0  0  0
 25 27  1  0  0  0  0
 25 24  1  0  0  0  0
 26 27  2  0  0  0  0
 27 28  1  0  0  0  0
 28 29  1  0  0  0  0
 29 31  1  0  0  0  0
 30 29  2  0  0  0  0
M  END
>  <MODEL>
2

>  <REMARK>
 VINA RESULT:     -10.5      2.569      3.341
  Name = 
  5 active torsions:
  status: ('A' for Active; 'I' for Inactive)
    1  A    between atoms: C_1  and  N_24
    2  A    between atoms: C_3  and  C_19
    3  A    between atoms: C_3  and  C_22
    4  A    between atoms: C_9  and  C_22
    5  A    between atoms: C_15  and  C_23
                            x       y       z     vdW  Elec       q    Type
                         _______ _______ _______ _____ _____    ______ ____

>  <TORSDO>
F 5

$$$$
=
 OpenBabel11052413063D

 31 34  0  0  1  0  0  0  0  0999 V2000
  185.3400  178.3780  145.6680 C   0  0  0  0  0  0  0  0  0  0  0  0
  188.6340  177.5670  144.0210 C   0  0  0  0  0  0  0  0  0  0  0  0
  189.5480  177.2450  145.0810 C   0  0  0  0  0  0  0  0  0  0  0  0
  190.0850  176.9340  147.4490 C   0  0  0  0  0  3  0  0  0  0  0  0
  187.2680  177.9340  144.2290 C   0  0  0  0  0  0  0  0  0  0  0  0
  184.5590  178.6780  144.5540 C   0  0  0  0  0  3  0  0  0  0  0  0
  189.1750  177.2510  146.4390 C   0  0  0  0  0  3  0  0  0  0  0  0
  188.2460  177.8350  141.5960 C   0  0  0  0  0  0  0  0  0  0  0  0
  184.7760  178.4470  146.9710 N   0  0  0  0  0  1  0  0  0  0  0  0
  191.3290  176.8800  143.4600 C   0  0  0  0  0  3  0  0  0  0  0  0
  191.4000  176.6040  147.1230 C   0  0  0  0  0  0  0  0  0  0  0  0
  186.9640  178.1840  141.8590 N   0  0  0  0  0  0  0  0  0  0  0  0
  189.1170  177.5240  142.6750 C   0  0  0  0  0  0  0  0  0  0  0  0
  186.6770  178.0120  145.5050 C   0  0  0  0  0  3  0  0  0  0  0  0
  192.3060  176.2890  148.1260 O   0  0  0  0  0  1  0  0  0  0  0  0
  186.4570  178.2420  143.1100 C   0  0  0  0  0  0  0  0  0  0  0  0
  185.1180  178.6090  143.2790 C   0  0  0  0  0  3  0  0  0  0  0  0
  190.4540  177.1850  142.4310 C   0  0  0  0  0  3  0  0  0  0  0  0
  190.8910  176.9050  144.7740 C   0  0  0  0  0  0  0  0  0  0  0  0
  191.8010  176.5900  145.7890 C   0  0  0  0  0  3  0  0  0  0  0  0
  187.8700  178.2560  139.1620 C   0  0  0  0  0  3  0  0  0  0  0  0
  188.6270  177.8250  140.1630 C   0  0  0  0  0  3  0  0  0  0  0  0
  188.8660  179.4150  137.3470 O   0  0  0  0  0  1  0  0  0  0  0  0
  188.3450  178.1840  137.7480 C   0  0  1  0  0  3  0  0  0  0  0  0
  189.3860  177.0790  137.5700 C   0  0  0  0  0  2  0  0  0  0  0  0
  189.4490  175.7330  135.6030 O   0  0  0  0  0  0  0  0  0  0  0  0
  188.8930  175.9580  136.7100 C   0  0  0  0  0  0  0  0  0  0  0  0
  187.7920  175.1610  137.1650 N   0  0  0  0  0  2  0  0  0  0  0  0
  187.3340  173.9250  136.6010 C   0  0  0  0  0  0  0  0  0  0  0  0
  186.1790  173.8720  135.4390 S   0  0  0  0  0  0  0  0  0  0  0  0
  188.0600  172.6730  136.9370 C   0  0  0  0  0  1  0  0  0  0  0  0
  1  9  1  0  0  0  0
  2  5  1  0  0  0  0
  2  3  1  0  0  0  0
  3  7  1  0  0  0  0
  5 14  2  0  0  0  0
  6  1  2  0  0  0  0
  7  4  2  0  0  0  0
  8 12  2  0  0  0  0
  8 13  1  0  0  0  0
 10 19  1  0  0  0  0
 11  4  1  0  0  0  0
 11 15  1  0  0  0  0
 12 16  1  0  0  0  0
 13  2  2  0  0  0  0
 14  1  1  0  0  0  0
 16 17  2  0  0  0  0
 16  5  1  0  0  0  0
 17  6  1  0  0  0  0
 18 13  1  0  0  0  0
 18 10  2  0  0  0  0
 19  3  2  0  0  0  0
 19 20  1  0  0  0  0
 20 11  2  0  0  0  0
 21 22  2  0  0  0  0
 22  8  1  0  0  0  0
 24 23  1  1  0  0  0
 24 21  1  0  0  0  0
 25 24  1  0  0  0  0
 26 27  2  0  0  0  0
 27 28  1  0  0  0  0
 27 25  1  0  0  0  0
 29 31  1  0  0  0  0
 29 28  1  0  0  0  0
 30 29  2  0  0  0  0
M  END
>  <MODEL>
3

>  <REMARK>
 VINA RESULT:     -10.4      1.984      2.059
  Name = 
  5 active torsions:
  status: ('A' for Active; 'I' for Inactive)
    1  A    between atoms: C_1  and  N_24
    2  A    between atoms: C_3  and  C_19
    3  A    between atoms: C_3  and  C_22
    4  A    between atoms: C_9  and  C_22
    5  A    between atoms: C_15  and  C_23
                            x       y       z     vdW  Elec       q    Type
                         _______ _______ _______ _____ _____    ______ ____

>  <TORSDO>
F 5

$$$$
=
 OpenBabel11052413063D

 31 34  0  0  1  0  0  0  0  0999 V2000
  188.5000  177.4030  147.3730 C   0  0  0  0  0  0  0  0  0  0  0  0
  187.3920  177.9510  143.8110 C   0  0  0  0  0  0  0  0  0  0  0  0
  185.9950  178.2790  143.8680 C   0  0  0  0  0  0  0  0  0  0  0  0
  183.9210  178.6850  145.1030 C   0  0  0  0  0  3  0  0  0  0  0  0
  188.1920  177.6680  144.9610 C   0  0  0  0  0  0  0  0  0  0  0  0
  189.8440  177.0870  147.1820 C   0  0  0  0  0  3  0  0  0  0  0  0
  185.2790  178.3640  145.0780 C   0  0  0  0  0  3  0  0  0  0  0  0
  189.4030  177.5770  142.4260 C   0  0  0  0  0  0  0  0  0  0  0  0
  187.9570  177.4320  148.6870 N   0  0  0  0  0  1  0  0  0  0  0  0
  185.9200  178.4640  141.4400 C   0  0  0  0  0  3  0  0  0  0  0  0
  183.2400  178.9270  143.9110 C   0  0  0  0  0  0  0  0  0  0  0  0
  190.1060  177.3110  143.5530 N   0  0  0  0  0  0  0  0  0  0  0  0
  188.0230  177.8980  142.5280 C   0  0  0  0  0  0  0  0  0  0  0  0
  187.6880  177.6880  146.2750 C   0  0  0  0  0  3  0  0  0  0  0  0
  181.8900  179.2460  143.9340 O   0  0  0  0  0  1  0  0  0  0  0  0
  189.5600  177.3460  144.7890 C   0  0  0  0  0  0  0  0  0  0  0  0
  190.3710  177.0590  145.8920 C   0  0  0  0  0  3  0  0  0  0  0  0
  187.2680  178.1520  141.3760 C   0  0  0  0  0  3  0  0  0  0  0  0
  185.2810  178.5310  142.6670 C   0  0  0  0  0  0  0  0  0  0  0  0
  183.9200  178.8510  142.6970 C   0  0  0  0  0  3  0  0  0  0  0  0
  191.4890  177.4230  141.0580 C   0  0  0  0  0  3  0  0  0  0  0  0
  190.1670  177.4920  141.1580 C   0  0  0  0  0  3  0  0  0  0  0  0
  193.5410  177.5150  139.8700 O   0  0  0  0  0  1  0  0  0  0  0  0
  192.1600  177.3580  139.7270 C   0  0  1  0  0  3  0  0  0  0  0  0
  191.8430  176.0470  139.0100 C   0  0  0  0  0  2  0  0  0  0  0  0
  189.9550  175.1220  137.8850 O   0  0  0  0  0  0  0  0  0  0  0  0
  190.6400  176.1510  138.1260 C   0  0  0  0  0  0  0  0  0  0  0  0
  190.2910  177.4250  137.5700 N   0  0  0  0  0  2  0  0  0  0  0  0
  189.0700  177.7660  136.8990 C   0  0  0  0  0  0  0  0  0  0  0  0
  188.8120  177.4080  135.3210 S   0  0  0  0  0  0  0  0  0  0  0  0
  187.9330  178.2820  137.7050 C   0  0  0  0  0  1  0  0  0  0  0  0
  1  9  1  0  0  0  0
  2  3  1  0  0  0  0
  2  5  1  0  0  0  0
  3  7  2  0  0  0  0
  5 14  1  0  0  0  0
  6  1  1  0  0  0  0
  7  4  1  0  0  0  0
  8 13  1  0  0  0  0
  8 12  2  0  0  0  0
 10 19  1  0  0  0  0
 11 15  1  0  0  0  0
 11  4  2  0  0  0  0
 12 16  1  0  0  0  0
 13  2  2  0  0  0  0
 14  1  2  0  0  0  0
 16  5  2  0  0  0  0
 16 17  1  0  0  0  0
 17  6  2  0  0  0  0
 18 10  2  0  0  0  0
 18 13  1  0  0  0  0
 19 20  2  0  0  0  0
 19  3  1  0  0  0  0
 20 11  1  0  0  0  0
 21 22  2  0  0  0  0
 22  8  1  0  0  0  0
 24 23  1  1  0  0  0
 24 21  1  0  0  0  0
 25 24  1  0  0  0  0
 26 27  2  0  0  0  0
 27 25  1  0  0  0  0
 28 27  1  0  0  0  0
 29 28  1  0  0  0  0
 29 31  1  0  0  0  0
 30 29  2  0  0  0  0
M  END
>  <MODEL>
4

>  <REMARK>
 VINA RESULT:      -9.8      2.607      5.016
  Name = 
  5 active torsions:
  status: ('A' for Active; 'I' for Inactive)
    1  A    between atoms: C_1  and  N_24
    2  A    between atoms: C_3  and  C_19
    3  A    between atoms: C_3  and  C_22
    4  A    between atoms: C_9  and  C_22
    5  A    between atoms: C_15  and  C_23
                            x       y       z     vdW  Elec       q    Type
                         _______ _______ _______ _____ _____    ______ ____

>  <TORSDO>
F 5

$$$$
=
 OpenBabel11052413063D

 31 34  0  0  1  0  0  0  0  0999 V2000
  188.6280  177.1530  147.3830 C   0  0  0  0  0  0  0  0  0  0  0  0
  187.7810  177.8900  143.7830 C   0  0  0  0  0  0  0  0  0  0  0  0
  186.3890  178.2410  143.7580 C   0  0  0  0  0  0  0  0  0  0  0  0
  184.2400  178.6270  144.8630 C   0  0  0  0  0  3  0  0  0  0  0  0
  188.4940  177.5370  144.9700 C   0  0  0  0  0  0  0  0  0  0  0  0
  189.9760  176.8210  147.2700 C   0  0  0  0  0  3  0  0  0  0  0  0
  185.5920  178.2820  144.9180 C   0  0  0  0  0  3  0  0  0  0  0  0
  189.8790  177.5440  142.5250 C   0  0  0  0  0  0  0  0  0  0  0  0
  187.9930  177.1310  148.6550 N   0  0  0  0  0  1  0  0  0  0  0  0
  186.4880  178.5410  141.3420 C   0  0  0  0  0  3  0  0  0  0  0  0
  183.6490  178.9380  143.6400 C   0  0  0  0  0  0  0  0  0  0  0  0
  190.4970  177.2110  143.6830 N   0  0  0  0  0  0  0  0  0  0  0  0
  188.5000  177.8850  142.5450 C   0  0  0  0  0  0  0  0  0  0  0  0
  187.8990  177.5050  146.2460 C   0  0  0  0  0  3  0  0  0  0  0  0
  182.3050  179.2810  143.5850 O   0  0  0  0  0  1  0  0  0  0  0  0
  189.8660  177.1980  144.8780 C   0  0  0  0  0  0  0  0  0  0  0  0
  190.5920  176.8450  146.0200 C   0  0  0  0  0  3  0  0  0  0  0  0
  187.8320  178.2080  141.3570 C   0  0  0  0  0  3  0  0  0  0  0  0
  185.7650  178.5630  142.5240 C   0  0  0  0  0  0  0  0  0  0  0  0
  184.4110  178.9060  142.4740 C   0  0  0  0  0  3  0  0  0  0  0  0
  192.0560  177.5060  141.2980 C   0  0  0  0  0  3  0  0  0  0  0  0
  190.7290  177.5040  141.3100 C   0  0  0  0  0  3  0  0  0  0  0  0
  194.0910  176.9450  140.2130 O   0  0  0  0  0  1  0  0  0  0  0  0
  192.8170  177.4820  140.0140 C   0  0  1  0  0  3  0  0  0  0  0  0
  192.0670  176.6940  138.9400 C   0  0  0  0  0  2  0  0  0  0  0  0
  193.6920  176.7270  137.1980 O   0  0  0  0  0  0  0  0  0  0  0  0
  192.9870  176.0260  137.9690 C   0  0  0  0  0  0  0  0  0  0  0  0
  193.0450  174.5940  137.9340 N   0  0  0  0  0  2  0  0  0  0  0  0
  194.0120  173.7880  137.2470 C   0  0  0  0  0  0  0  0  0  0  0  0
  193.9760  173.5780  135.6220 S   0  0  0  0  0  0  0  0  0  0  0  0
  195.1910  173.2890  138.0010 C   0  0  0  0  0  1  0  0  0  0  0  0
  1  9  1  0  0  0  0
  2  5  1  0  0  0  0
  3  2  1  0  0  0  0
  3  7  2  0  0  0  0
  4  7  1  0  0  0  0
  5 14  1  0  0  0  0
  6  1  1  0  0  0  0
  8 13  1  0  0  0  0
  8 12  2  0  0  0  0
 10 18  2  0  0  0  0
 10 19  1  0  0  0  0
 11  4  2  0  0  0  0
 12 16  1  0  0  0  0
 13  2  2  0  0  0  0
 14  1  2  0  0  0  0
 15 11  1  0  0  0  0
 16  5  2  0  0  0  0
 16 17  1  0  0  0  0
 17  6  2  0  0  0  0
 18 13  1  0  0  0  0
 19  3  1  0  0  0  0
 20 19  2  0  0  0  0
 20 11  1  0  0  0  0
 21 22  2  0  0  0  0
 22  8  1  0  0  0  0
 24 23  1  1  0  0  0
 24 21  1  0  0  0  0
 25 24  1  0  0  0  0
 26 27  2  0  0  0  0
 27 25  1  0  0  0  0
 28 27  1  0  0  0  0
 29 28  1  0  0  0  0
 29 31  1  0  0  0  0
 30 29  2  0  0  0  0
M  END
>  <MODEL>
5

>  <REMARK>
 VINA RESULT:      -9.7      2.763      4.971
  Name = 
  5 active torsions:
  status: ('A' for Active; 'I' for Inactive)
    1  A    between atoms: C_1  and  N_24
    2  A    between atoms: C_3  and  C_19
    3  A    between atoms: C_3  and  C_22
    4  A    between atoms: C_9  and  C_22
    5  A    between atoms: C_15  and  C_23
                            x       y       z     vdW  Elec       q    Type
                         _______ _______ _______ _____ _____    ______ ____

>  <TORSDO>
F 5

$$$$
=
 OpenBabel11052413063D

 31 34  0  0  1  0  0  0  0  0999 V2000
  190.5230  176.7590  146.3000 C   0  0  0  0  0  0  0  0  0  0  0  0
  188.1830  177.7220  143.5050 C   0  0  0  0  0  0  0  0  0  0  0  0
  186.9270  178.0440  144.1210 C   0  0  0  0  0  0  0  0  0  0  0  0
  185.4900  178.3060  146.0850 C   0  0  0  0  0  3  0  0  0  0  0  0
  189.3430  177.3050  144.2280 C   0  0  0  0  0  0  0  0  0  0  0  0
  191.6800  176.4650  145.5810 C   0  0  0  0  0  3  0  0  0  0  0  0
  186.7230  177.9880  145.5140 C   0  0  0  0  0  3  0  0  0  0  0  0
  189.5070  177.5100  141.4290 C   0  0  0  0  0  0  0  0  0  0  0  0
  190.5150  176.6350  147.7160 N   0  0  0  0  0  1  0  0  0  0  0  0
  185.9530  178.5120  141.9380 C   0  0  0  0  0  3  0  0  0  0  0  0
  184.4230  178.6880  145.2740 C   0  0  0  0  0  0  0  0  0  0  0  0
  190.5690  177.1120  142.1700 N   0  0  0  0  0  0  0  0  0  0  0  0
  188.2830  177.8190  142.0800 C   0  0  0  0  0  0  0  0  0  0  0  0
  189.3720  177.1720  145.6290 C   0  0  0  0  0  3  0  0  0  0  0  0
  183.1960  179.0040  145.8400 O   0  0  0  0  0  1  0  0  0  0  0  0
  190.5300  177.0030  143.5170 C   0  0  0  0  0  0  0  0  0  0  0  0
  191.6820  176.5880  144.1930 C   0  0  0  0  0  3  0  0  0  0  0  0
  187.1620  178.2080  141.3340 C   0  0  0  0  0  3  0  0  0  0  0  0
  185.8260  178.4370  143.3150 C   0  0  0  0  0  0  0  0  0  0  0  0
  184.5920  178.7530  143.8920 C   0  0  0  0  0  3  0  0  0  0  0  0
  190.4820  176.7290  139.2650 C   0  0  0  0  0  3  0  0  0  0  0  0
  189.7330  177.5730  139.9650 C   0  0  0  0  0  3  0  0  0  0  0  0
  191.9460  176.5120  137.4100 O   0  0  0  0  0  1  0  0  0  0  0  0
  190.6580  176.8940  137.7920 C   0  0  1  0  0  3  0  0  0  0  0  0
  189.6110  176.0940  137.0160 C   0  0  0  0  0  2  0  0  0  0  0  0
  188.4260  177.6760  135.6850 O   0  0  0  0  0  0  0  0  0  0  0  0
  188.4010  176.9060  136.6800 C   0  0  0  0  0  0  0  0  0  0  0  0
  187.2330  176.7900  137.5020 N   0  0  0  0  0  2  0  0  0  0  0  0
  185.9240  177.3020  137.2150 C   0  0  0  0  0  0  0  0  0  0  0  0
  185.0080  176.7160  135.9890 S   0  0  0  0  0  0  0  0  0  0  0  0
  185.3030  178.2530  138.1720 C   0  0  0  0  0  1  0  0  0  0  0  0
  1  9  1  0  0  0  0
  2  3  1  0  0  0  0
  2  5  1  0  0  0  0
  3  7  1  0  0  0  0
  5 14  2  0  0  0  0
  6  1  2  0  0  0  0
  7  4  2  0  0  0  0
  8 13  1  0  0  0  0
  8 12  2  0  0  0  0
 10 19  1  0  0  0  0
 11 15  1  0  0  0  0
 11  4  1  0  0  0  0
 12 16  1  0  0  0  0
 13  2  2  0  0  0  0
 14  1  1  0  0  0  0
 16 17  2  0  0  0  0
 16  5  1  0  0  0  0
 17  6  1  0  0  0  0
 18 10  2  0  0  0  0
 18 13  1  0  0  0  0
 19 20  1  0  0  0  0
 19  3  2  0  0  0  0
 20 11  2  0  0  0  0
 21 22  2  0  0  0  0
 22  8  1  0  0  0  0
 24 23  1  6  0  0  0
 24 21  1  0  0  0  0
 25 24  1  0  0  0  0
 26 27  2  0  0  0  0
 27 25  1  0  0  0  0
 27 28  1  0  0  0  0
 29 28  1  0  0  0  0
 29 31  1  0  0  0  0
 30 29  2  0  0  0  0
M  END
>  <MODEL>
6

>  <REMARK>
 VINA RESULT:      -9.6      3.031      5.095
  Name = 
  5 active torsions:
  status: ('A' for Active; 'I' for Inactive)
    1  A    between atoms: C_1  and  N_24
    2  A    between atoms: C_3  and  C_19
    3  A    between atoms: C_3  and  C_22
    4  A    between atoms: C_9  and  C_22
    5  A    between atoms: C_15  and  C_23
                            x       y       z     vdW  Elec       q    Type
                         _______ _______ _______ _____ _____    ______ ____

>  <TORSDO>
F 5

$$$$
=
 OpenBabel11052413063D

 31 34  0  0  1  0  0  0  0  0999 V2000
  188.3700  177.5920  146.8320 C   0  0  0  0  0  0  0  0  0  0  0  0
  186.7040  178.2680  143.5180 C   0  0  0  0  0  0  0  0  0  0  0  0
  187.6990  178.0340  142.5090 C   0  0  0  0  0  0  0  0  0  0  0  0
  189.9580  177.4020  141.8100 C   0  0  0  0  0  3  0  0  0  0  0  0
  186.9390  178.1210  144.9200 C   0  0  0  0  0  0  0  0  0  0  0  0
  187.3210  177.8610  147.7090 C   0  0  0  0  0  3  0  0  0  0  0  0
  189.0110  177.6210  142.8120 C   0  0  0  0  0  3  0  0  0  0  0  0
  184.3850  178.9220  144.0630 C   0  0  0  0  0  0  0  0  0  0  0  0
  189.6350  177.1890  147.3380 N   0  0  0  0  0  1  0  0  0  0  0  0
  186.1020  178.6280  140.7680 C   0  0  0  0  0  3  0  0  0  0  0  0
  189.6150  177.5930  140.4730 C   0  0  0  0  0  0  0  0  0  0  0  0
  184.6720  178.7730  145.3770 N   0  0  0  0  0  0  0  0  0  0  0  0
  185.3990  178.6800  143.0980 C   0  0  0  0  0  0  0  0  0  0  0  0
  188.1780  177.7230  145.4560 C   0  0  0  0  0  3  0  0  0  0  0  0
  190.5560  177.3750  139.4760 O   0  0  0  0  0  1  0  0  0  0  0  0
  185.8860  178.3880  145.8290 C   0  0  0  0  0  0  0  0  0  0  0  0
  186.0830  178.2580  147.2070 C   0  0  0  0  0  3  0  0  0  0  0  0
  185.1340  178.8520  141.7330 C   0  0  0  0  0  3  0  0  0  0  0  0
  187.3730  178.2210  141.1400 C   0  0  0  0  0  0  0  0  0  0  0  0
  188.3250  178.0010  140.1400 C   0  0  0  0  0  3  0  0  0  0  0  0
  181.9050  178.6280  143.9610 C   0  0  0  0  0  3  0  0  0  0  0  0
  182.9990  179.3500  143.7530 C   0  0  0  0  0  3  0  0  0  0  0  0
  180.6590  180.4280  143.0450 O   0  0  0  0  0  1  0  0  0  0  0  0
  180.5550  179.1480  143.5950 C   0  0  1  0  0  3  0  0  0  0  0  0
  179.8420  178.2060  142.6250 C   0  0  0  0  0  2  0  0  0  0  0  0
  179.3490  179.1740  140.5040 O   0  0  0  0  0  0  0  0  0  0  0  0
  180.1610  178.5040  141.1950 C   0  0  0  0  0  0  0  0  0  0  0  0
  181.3890  178.0180  140.6370 N   0  0  0  0  0  2  0  0  0  0  0  0
  181.9680  178.3860  139.3780 C   0  0  0  0  0  0  0  0  0  0  0  0
  181.8370  177.4380  138.0470 S   0  0  0  0  0  0  0  0  0  0  0  0
  182.5320  179.7520  139.2230 C   0  0  0  0  0  1  0  0  0  0  0  0
  1  9  1  0  0  0  0
  1  6  1  0  0  0  0
  2  5  1  0  0  0  0
  3  7  2  0  0  0  0
  3  2  1  0  0  0  0
  4  7  1  0  0  0  0
  5 14  1  0  0  0  0
  5 16  2  0  0  0  0
  8 12  2  0  0  0  0
 10 19  1  0  0  0  0
 10 18  2  0  0  0  0
 11  4  2  0  0  0  0
 12 16  1  0  0  0  0
 13  2  2  0  0  0  0
 13  8  1  0  0  0  0
 14  1  2  0  0  0  0
 15 11  1  0  0  0  0
 16 17  1  0  0  0  0
 17  6  2  0  0  0  0
 18 13  1  0  0  0  0
 19  3  1  0  0  0  0
 20 11  1  0  0  0  0
 20 19  2  0  0  0  0
 22 21  2  0  0  0  0
 22  8  1  0  0  0  0
 24 23  1  6  0  0  0
 24 21  1  0  0  0  0
 25 24  1  0  0  0  0
 26 27  2  0  0  0  0
 27 25  1  0  0  0  0
 28 27  1  0  0  0  0
 29 28  1  0  0  0  0
 30 29  2  0  0  0  0
 31 29  1  0  0  0  0
M  END
>  <MODEL>
7

>  <REMARK>
 VINA RESULT:      -9.2      4.103      7.126
  Name = 
  5 active torsions:
  status: ('A' for Active; 'I' for Inactive)
    1  A    between atoms: C_1  and  N_24
    2  A    between atoms: C_3  and  C_19
    3  A    between atoms: C_3  and  C_22
    4  A    between atoms: C_9  and  C_22
    5  A    between atoms: C_15  and  C_23
                            x       y       z     vdW  Elec       q    Type
                         _______ _______ _______ _____ _____    ______ ____

>  <TORSDO>
F 5

$$$$
=
 OpenBabel11052413063D

 31 34  0  0  1  0  0  0  0  0999 V2000
  188.9700  177.6430  147.1110 C   0  0  0  0  0  0  0  0  0  0  0  0
  187.9420  177.9270  143.4940 C   0  0  0  0  0  0  0  0  0  0  0  0
  189.1430  177.7820  142.7190 C   0  0  0  0  0  0  0  0  0  0  0  0
  191.5570  177.4290  142.5240 C   0  0  0  0  0  3  0  0  0  0  0  0
  187.9030  177.8800  144.9220 C   0  0  0  0  0  0  0  0  0  0  0  0
  187.7400  177.8090  147.7440 C   0  0  0  0  0  3  0  0  0  0  0  0
  190.4060  177.5660  143.3030 C   0  0  0  0  0  3  0  0  0  0  0  0
  185.4980  178.2850  143.5260 C   0  0  0  0  0  0  0  0  0  0  0  0
  190.1470  177.4390  147.8830 N   0  0  0  0  0  1  0  0  0  0  0  0
  187.8720  178.0690  140.6610 C   0  0  0  0  0  3  0  0  0  0  0  0
  191.4720  177.5070  141.1350 C   0  0  0  0  0  0  0  0  0  0  0  0
  185.5280  178.2390  144.8790 N   0  0  0  0  0  0  0  0  0  0  0  0
  186.7090  178.1370  142.7990 C   0  0  0  0  0  0  0  0  0  0  0  0
  189.0470  177.6800  145.7180 C   0  0  0  0  0  3  0  0  0  0  0  0
  192.6150  177.3720  140.3600 O   0  0  0  0  0  1  0  0  0  0  0  0
  186.6640  178.0450  145.5860 C   0  0  0  0  0  0  0  0  0  0  0  0
  186.5910  178.0090  146.9820 C   0  0  0  0  0  3  0  0  0  0  0  0
  186.7080  178.2060  141.3990 C   0  0  0  0  0  3  0  0  0  0  0  0
  189.0810  177.8570  141.3030 C   0  0  0  0  0  0  0  0  0  0  0  0
  190.2370  177.7200  140.5270 C   0  0  0  0  0  3  0  0  0  0  0  0
  183.0360  178.7100  143.5940 C   0  0  0  0  0  3  0  0  0  0  0  0
  184.1620  178.5060  142.9210 C   0  0  0  0  0  3  0  0  0  0  0  0
  181.1670  180.1280  143.2390 O   0  0  0  0  0  1  0  0  0  0  0  0
  181.7370  178.9040  142.8840 C   0  0  1  0  0  3  0  0  0  0  0  0
  181.9160  178.8170  141.3690 C   0  0  0  0  0  2  0  0  0  0  0  0
  179.7540  177.8410  141.1340 O   0  0  0  0  0  0  0  0  0  0  0  0
  180.9450  177.8760  140.7290 C   0  0  0  0  0  0  0  0  0  0  0  0
  181.3940  177.0280  139.6630 N   0  0  0  0  0  2  0  0  0  0  0  0
  180.5750  176.2400  138.7880 C   0  0  0  0  0  0  0  0  0  0  0  0
  180.1580  176.7520  137.2880 S   0  0  0  0  0  0  0  0  0  0  0  0
  180.2590  174.8400  139.1730 C   0  0  0  0  0  1  0  0  0  0  0  0
  1  6  1  0  0  0  0
  1  9  1  0  0  0  0
  2  5  1  0  0  0  0
  3  7  2  0  0  0  0
  3  2  1  0  0  0  0
  4  7  1  0  0  0  0
  5 16  2  0  0  0  0
  5 14  1  0  0  0  0
  8 12  2  0  0  0  0
 10 19  1  0  0  0  0
 10 18  2  0  0  0  0
 11  4  2  0  0  0  0
 12 16  1  0  0  0  0
 13  2  2  0  0  0  0
 13  8  1  0  0  0  0
 14  1  2  0  0  0  0
 15 11  1  0  0  0  0
 16 17  1  0  0  0  0
 17  6  2  0  0  0  0
 18 13  1  0  0  0  0
 19  3  1  0  0  0  0
 20 11  1  0  0  0  0
 20 19  2  0  0  0  0
 22  8  1  0  0  0  0
 22 21  2  0  0  0  0
 24 23  1  6  0  0  0
 24 21  1  0  0  0  0
 25 24  1  0  0  0  0
 27 26  2  0  0  0  0
 27 25  1  0  0  0  0
 28 27  1  0  0  0  0
 29 31  1  0  0  0  0
 29 28  1  0  0  0  0
 30 29  2  0  0  0  0
M  END
>  <MODEL>
8

>  <REMARK>
 VINA RESULT:      -8.9      4.422      6.738
  Name = 
  5 active torsions:
  status: ('A' for Active; 'I' for Inactive)
    1  A    between atoms: C_1  and  N_24
    2  A    between atoms: C_3  and  C_19
    3  A    between atoms: C_3  and  C_22
    4  A    between atoms: C_9  and  C_22
    5  A    between atoms: C_15  and  C_23
                            x       y       z     vdW  Elec       q    Type
                         _______ _______ _______ _____ _____    ______ ____

>  <TORSDO>
F 5

$$$$
=
 OpenBabel11052413063D

 31 34  0  0  1  0  0  0  0  0999 V2000
  190.2050  177.2430  147.1860 C   0  0  0  0  0  0  0  0  0  0  0  0
  188.5440  177.7150  143.8340 C   0  0  0  0  0  0  0  0  0  0  0  0
  189.5880  177.6380  142.8510 C   0  0  0  0  0  0  0  0  0  0  0  0
  191.9320  177.3450  142.2080 C   0  0  0  0  0  3  0  0  0  0  0  0
  188.7620  177.5850  145.2410 C   0  0  0  0  0  0  0  0  0  0  0  0
  189.1070  177.3480  148.0380 C   0  0  0  0  0  3  0  0  0  0  0  0
  190.9380  177.4140  143.1860 C   0  0  0  0  0  3  0  0  0  0  0  0
  186.1420  178.0230  144.3220 C   0  0  0  0  0  0  0  0  0  0  0  0
  191.5020  177.0180  147.7230 N   0  0  0  0  0  1  0  0  0  0  0  0
  187.9680  178.0190  141.0720 C   0  0  0  0  0  3  0  0  0  0  0  0
  191.5990  177.5020  140.8640 C   0  0  0  0  0  0  0  0  0  0  0  0
  186.4140  177.9000  145.6430 N   0  0  0  0  0  0  0  0  0  0  0  0
  187.2050  177.9410  143.3830 C   0  0  0  0  0  0  0  0  0  0  0  0
  190.0310  177.3610  145.8070 C   0  0  0  0  0  3  0  0  0  0  0  0
  192.5860  177.4330  139.8910 O   0  0  0  0  0  1  0  0  0  0  0  0
  187.6590  177.6870  146.1230 C   0  0  0  0  0  0  0  0  0  0  0  0
  187.8380  177.5690  147.5050 C   0  0  0  0  0  3  0  0  0  0  0  0
  186.9530  178.0910  142.0130 C   0  0  0  0  0  3  0  0  0  0  0  0
  189.2740  177.7940  141.4760 C   0  0  0  0  0  0  0  0  0  0  0  0
  190.2730  177.7250  140.5000 C   0  0  0  0  0  3  0  0  0  0  0  0
  184.2370  178.4080  142.7510 C   0  0  0  0  0  3  0  0  0  0  0  0
  184.7180  178.2530  143.9790 C   0  0  0  0  0  3  0  0  0  0  0  0
  182.3360  179.7170  143.3020 O   0  0  0  0  0  1  0  0  0  0  0  0
  182.7830  178.6520  142.5170 C   0  0  1  0  0  3  0  0  0  0  0  0
  182.4980  178.9210  141.0390 C   0  0  0  0  0  2  0  0  0  0  0  0
  183.0470  176.7630  140.1900 O   0  0  0  0  0  0  0  0  0  0  0  0
  183.2540  178.0030  140.1320 C   0  0  0  0  0  0  0  0  0  0  0  0
  184.2020  178.5570  139.2110 N   0  0  0  0  0  2  0  0  0  0  0  0
  184.8440  177.8770  138.1240 C   0  0  0  0  0  0  0  0  0  0  0  0
  183.9950  177.0850  136.9680 S   0  0  0  0  0  0  0  0  0  0  0  0
  186.3060  178.0600  137.9300 C   0  0  0  0  0  1  0  0  0  0  0  0
  1  9  1  0  0  0  0
  1  6  1  0  0  0  0
  2  5  1  0  0  0  0
  3  7  2  0  0  0  0
  3  2  1  0  0  0  0
  4  7  1  0  0  0  0
  5 14  1  0  0  0  0
  5 16  2  0  0  0  0
  8 12  2  0  0  0  0
 10 19  1  0  0  0  0
 10 18  2  0  0  0  0
 11  4  2  0  0  0  0
 12 16  1  0  0  0  0
 13  2  2  0  0  0  0
 13  8  1  0  0  0  0
 14  1  2  0  0  0  0
 15 11  1  0  0  0  0
 16 17  1  0  0  0  0
 17  6  2  0  0  0  0
 18 13  1  0  0  0  0
 19  3  1  0  0  0  0
 20 11  1  0  0  0  0
 20 19  2  0  0  0  0
 21 22  2  0  0  0  0
 22  8  1  0  0  0  0
 24 21  1  0  0  0  0
 24 23  1  1  0  0  0
 25 24  1  0  0  0  0
 27 26  2  0  0  0  0
 27 25  1  0  0  0  0
 28 27  1  0  0  0  0
 29 28  1  0  0  0  0
 30 29  2  0  0  0  0
 31 29  1  0  0  0  0
M  END
>  <MODEL>
9

>  <REMARK>
 VINA RESULT:      -8.9      3.509      5.749
  Name = 
  5 active torsions:
  status: ('A' for Active; 'I' for Inactive)
    1  A    between atoms: C_1  and  N_24
    2  A    between atoms: C_3  and  C_19
    3  A    between atoms: C_3  and  C_22
    4  A    between atoms: C_9  and  C_22
    5  A    between atoms: C_15  and  C_23
                            x       y       z     vdW  Elec       q    Type
                         _______ _______ _______ _____ _____    ______ ____

>  <TORSDO>
F 5

$$$$
