=
 OpenBabel11052415153D

 37 43  0  0  1  0  0  0  0  0999 V2000
  186.6080  178.1570  138.5320 C   0  0  0  0  0  0  0  0  0  0  0  0
  187.8110  178.0180  142.2710 C   0  0  0  0  0  2  0  0  0  0  0  0
  186.5250  178.1170  136.0700 C   0  0  2  0  0  3  0  0  0  0  0  0
  187.3690  178.4140  139.7840 C   0  0  1  0  0  3  0  0  0  0  0  0
  187.2500  178.1860  137.3830 C   0  0  0  0  0  0  0  0  0  0  0  0
  186.7600  177.9870  141.1840 C   0  0  2  0  0  3  0  0  0  0  0  0
  185.2250  177.2750  136.2300 C   0  0  0  0  0  3  0  0  0  0  0  0
  188.8690  178.7240  137.6120 S   0  0  0  0  0  0  0  0  0  0  0  0
  188.9780  180.2040  137.4080 O   0  0  0  0  0  0  0  0  0  0  0  0
  184.2890  178.2700  139.4360 C   0  0  0  0  0  3  0  0  0  0  0  0
  184.6450  177.1390  137.4420 C   0  0  0  0  0  3  0  0  0  0  0  0
  189.8820  178.0100  136.7820 O   0  0  0  0  0  0  0  0  0  0  0  0
  188.5740  176.7290  142.1130 C   0  0  0  0  0  2  0  0  0  0  0  0
  185.1700  177.8270  138.5930 C   0  0  0  0  0  0  0  0  0  0  0  0
  188.8770  178.3490  139.3700 C   0  0  2  0  0  3  0  0  0  0  0  0
  185.6640  178.9770  141.5140 C   0  0  1  0  0  3  0  0  0  0  0  0
  189.7620  177.1830  141.1400 C   0  0  2  0  0  3  0  0  0  0  0  0
  189.5310  177.0210  139.7500 N   0  0  0  0  0  0  0  0  0  0  0  0
  184.5730  179.0670  140.6030 O   0  0  0  0  0  0  0  0  0  0  0  0
  185.9270  178.9260  144.1090 C   0  0  0  0  0  3  0  0  0  0  0  0
  185.1350  178.9060  142.9400 C   0  0  0  0  0  0  0  0  0  0  0  0
  183.7750  178.8130  143.0220 C   0  0  0  0  0  3  0  0  0  0  0  0
  181.7850  178.7340  144.4250 F   0  0  0  0  0  0  0  0  0  0  0  0
  183.8680  178.8970  145.4560 C   0  0  0  0  0  3  0  0  0  0  0  0
  183.1310  178.7780  144.2640 C   0  0  0  0  0  0  0  0  0  0  0  0
  185.2680  178.9430  145.3590 C   0  0  0  0  0  3  0  0  0  0  0  0
  191.5690  177.9270  142.7990 C   0  0  0  0  0  2  0  0  0  0  0  0
  191.1370  176.9410  141.7570 C   0  0  1  0  0  3  0  0  0  0  0  0
  191.0630  176.6630  143.0990 O   0  0  0  0  0  0  0  0  0  0  0  0
  190.7890  176.9720  139.1550 O   0  0  0  0  0  0  0  0  0  0  0  0
  190.9320  175.9050  138.2630 C   0  0  1  0  0  3  0  0  0  0  0  0
  191.8550  174.0060  137.1130 C   0  0  0  0  0  1  0  0  0  0  0  0
  192.0840  176.2250  137.2560 C   0  0  0  0  0  2  0  0  0  0  0  0
  192.1430  175.0290  138.1470 C   0  0  1  0  0  3  0  0  0  0  0  0
  187.3620  177.6130  134.8960 C   0  0  0  0  0  2  0  0  0  0  0  0
  187.7200  176.2010  134.9970 C   0  0  0  0  0  0  0  0  0  0  0  0
  188.0290  175.0510  135.1170 C   0  0  0  0  0  3  0  0  0  0  0  0
  1 14  1  0  0  0  0
  3 35  1  6  0  0  0
  3  7  1  0  0  0  0
  3  5  1  0  0  0  0
  4  1  1  6  0  0  0
  4  6  1  0  0  0  0
  5  8  1  0  0  0  0
  5  1  2  0  0  0  0
  6 16  1  0  0  0  0
  6  2  1  1  0  0  0
  7 11  2  0  0  0  0
  8 15  1  0  0  0  0
  9  8  2  0  0  0  0
 10 19  1  0  0  0  0
 11 14  1  0  0  0  0
 12  8  2  0  0  0  0
 13  2  1  0  0  0  0
 14 10  2  0  0  0  0
 15 18  1  6  0  0  0
 15  4  1  0  0  0  0
 16 21  1  1  0  0  0
 17 28  1  0  0  0  0
 17 13  1  1  0  0  0
 18 17  1  0  0  0  0
 19 16  1  0  0  0  0
 20 26  1  0  0  0  0
 21 22  1  0  0  0  0
 21 20  2  0  0  0  0
 22 25  2  0  0  0  0
 25 23  1  0  0  0  0
 25 24  1  0  0  0  0
 26 24  2  0  0  0  0
 27 29  1  0  0  0  0
 28 27  1  1  0  0  0
 28 29  1  0  0  0  0
 30 18  1  0  0  0  0
 31 30  1  1  0  0  0
 33 34  1  0  0  0  0
 33 31  1  0  0  0  0
 34 32  1  6  0  0  0
 34 31  1  0  0  0  0
 35 36  1  0  0  0  0
 36 37  3  0  0  0  0
M  END
>  <MODEL>
1

>  <REMARK>
 VINA RESULT:      -8.3      0.000      0.000
  Name = 
  6 active torsions:
  status: ('A' for Active; 'I' for Inactive)
    1  A    between atoms: O_1  and  C_5
    2  A    between atoms: O_1  and  N_36
    3  A    between atoms: C_3  and  C_30
    4  A    between atoms: C_6  and  C_31
    5  A    between atoms: C_9  and  C_30
    6  A    between atoms: C_26  and  C_33
                            x       y       z     vdW  Elec       q    Type
                         _______ _______ _______ _____ _____    ______ ____

>  <TORSDO>
F 6

$$$$
=
 OpenBabel11052415153D

 37 43  0  0  1  0  0  0  0  0999 V2000
  186.3930  178.2670  139.9500 C   0  0  0  0  0  0  0  0  0  0  0  0
  186.6480  176.5140  136.4410 C   0  0  0  0  0  2  0  0  0  0  0  0
  185.5550  179.3100  142.0180 C   0  0  2  0  0  3  0  0  0  0  0  0
  186.2100  177.9560  138.5070 C   0  0  1  0  0  3  0  0  0  0  0  0
  185.3920  178.8040  140.6150 C   0  0  0  0  0  0  0  0  0  0  0  0
  187.1980  176.9520  137.7800 C   0  0  2  0  0  3  0  0  0  0  0  0
  186.6360  178.4690  142.7590 C   0  0  0  0  0  3  0  0  0  0  0  0
  184.1050  179.2040  139.5430 S   0  0  0  0  0  0  0  0  0  0  0  0
  184.2130  180.6240  139.0800 O   0  0  0  0  0  0  0  0  0  0  0  0
  188.8580  177.9460  140.1250 C   0  0  0  0  0  3  0  0  0  0  0  0
  187.5850  177.8080  142.0590 C   0  0  0  0  0  3  0  0  0  0  0  0
  182.7420  178.9370  140.0860 O   0  0  0  0  0  0  0  0  0  0  0  0
  185.6500  175.4330  136.7650 C   0  0  0  0  0  2  0  0  0  0  0  0
  187.6610  177.9280  140.6260 C   0  0  0  0  0  0  0  0  0  0  0  0
  184.6730  178.0950  138.2480 C   0  0  2  0  0  3  0  0  0  0  0  0
  188.5070  177.6850  137.5730 C   0  0  1  0  0  3  0  0  0  0  0  0
  184.2980  176.2800  136.8900 C   0  0  2  0  0  3  0  0  0  0  0  0
  183.9650  176.7420  138.1900 N   0  0  0  0  0  0  0  0  0  0  0  0
  189.1810  178.1540  138.7360 O   0  0  0  0  0  0  0  0  0  0  0  0
  189.6930  177.2860  135.2840 C   0  0  0  0  0  3  0  0  0  0  0  0
  189.4990  176.9900  136.6510 C   0  0  0  0  0  0  0  0  0  0  0  0
  190.2260  176.0080  137.2600 C   0  0  0  0  0  3  0  0  0  0  0  0
  192.0020  174.3470  137.1060 F   0  0  0  0  0  0  0  0  0  0  0  0
  191.5100  175.6270  135.2230 C   0  0  0  0  0  3  0  0  0  0  0  0
  191.2090  175.3010  136.5580 C   0  0  0  0  0  0  0  0  0  0  0  0
  190.7220  176.6050  134.5940 C   0  0  0  0  0  3  0  0  0  0  0  0
  182.9800  176.6980  134.7320 C   0  0  0  0  0  2  0  0  0  0  0  0
  183.2270  175.8070  135.9100 C   0  0  1  0  0  3  0  0  0  0  0  0
  183.7440  175.5340  134.6690 O   0  0  0  0  0  0  0  0  0  0  0  0
  182.5920  176.9730  138.1750 O   0  0  0  0  0  0  0  0  0  0  0  0
  181.8780  176.0780  138.9780 C   0  0  1  0  0  3  0  0  0  0  0  0
  180.2290  174.4870  139.7030 C   0  0  0  0  0  1  0  0  0  0  0  0
  180.4610  176.6670  139.2740 C   0  0  0  0  0  2  0  0  0  0  0  0
  180.6260  175.3600  138.5730 C   0  0  1  0  0  3  0  0  0  0  0  0
  184.2650  179.3810  142.8330 C   0  0  0  0  0  2  0  0  0  0  0  0
  184.4470  179.0620  144.2460 C   0  0  0  0  0  0  0  0  0  0  0  0
  184.5550  178.8010  145.4090 C   0  0  0  0  0  3  0  0  0  0  0  0
  1  5  2  0  0  0  0
  1 14  1  0  0  0  0
  2 13  1  0  0  0  0
  3  7  1  0  0  0  0
  3 35  1  1  0  0  0
  4  1  1  1  0  0  0
  5  3  1  0  0  0  0
  6  2  1  6  0  0  0
  6  4  1  0  0  0  0
  8 12  2  0  0  0  0
  8  5  1  0  0  0  0
  9  8  2  0  0  0  0
 10 14  2  0  0  0  0
 11  7  2  0  0  0  0
 14 11  1  0  0  0  0
 15 18  1  1  0  0  0
 15  4  1  0  0  0  0
 15  8  1  0  0  0  0
 16 21  1  1  0  0  0
 16  6  1  0  0  0  0
 16 19  1  0  0  0  0
 17 13  1  1  0  0  0
 17 18  1  0  0  0  0
 19 10  1  0  0  0  0
 20 21  1  0  0  0  0
 21 22  2  0  0  0  0
 24 25  2  0  0  0  0
 25 23  1  0  0  0  0
 25 22  1  0  0  0  0
 26 24  1  0  0  0  0
 26 20  2  0  0  0  0
 28 27  1  6  0  0  0
 28 17  1  0  0  0  0
 29 27  1  0  0  0  0
 29 28  1  0  0  0  0
 30 18  1  0  0  0  0
 31 30  1  6  0  0  0
 31 33  1  0  0  0  0
 34 31  1  0  0  0  0
 34 33  1  0  0  0  0
 34 32  1  1  0  0  0
 35 36  1  0  0  0  0
 36 37  3  0  0  0  0
M  END
>  <MODEL>
2

>  <REMARK>
 VINA RESULT:      -7.5      3.507      8.450
  Name = 
  6 active torsions:
  status: ('A' for Active; 'I' for Inactive)
    1  A    between atoms: O_1  and  C_5
    2  A    between atoms: O_1  and  N_36
    3  A    between atoms: C_3  and  C_30
    4  A    between atoms: C_6  and  C_31
    5  A    between atoms: C_9  and  C_30
    6  A    between atoms: C_26  and  C_33
                            x       y       z     vdW  Elec       q    Type
                         _______ _______ _______ _____ _____    ______ ____

>  <TORSDO>
F 6

$$$$
=
 OpenBabel11052415153D

 37 43  0  0  1  0  0  0  0  0999 V2000
  189.8570  177.2050  139.2680 C   0  0  0  0  0  0  0  0  0  0  0  0
  191.2950  174.8510  136.4690 C   0  0  0  0  0  2  0  0  0  0  0  0
  188.3580  178.5260  140.7090 C   0  0  2  0  0  3  0  0  0  0  0  0
  190.1580  176.6040  137.9410 C   0  0  1  0  0  3  0  0  0  0  0  0
  188.6740  177.7450  139.4660 C   0  0  0  0  0  0  0  0  0  0  0  0
  191.3700  175.5950  137.7830 C   0  0  2  0  0  3  0  0  0  0  0  0
  189.1830  177.9680  141.9050 C   0  0  0  0  0  3  0  0  0  0  0  0
  187.7780  177.7870  137.9960 S   0  0  0  0  0  0  0  0  0  0  0  0
  187.9650  179.0950  137.2910 O   0  0  0  0  0  0  0  0  0  0  0  0
  192.1500  177.1980  140.2450 C   0  0  0  0  0  3  0  0  0  0  0  0
  190.3340  177.2940  141.6860 C   0  0  0  0  0  3  0  0  0  0  0  0
  186.3270  177.4800  138.1450 O   0  0  0  0  0  0  0  0  0  0  0  0
  190.2950  173.7480  136.7010 C   0  0  0  0  0  2  0  0  0  0  0  0
  190.8580  177.1440  140.3530 C   0  0  0  0  0  0  0  0  0  0  0  0
  188.7790  176.5200  137.2060 C   0  0  2  0  0  3  0  0  0  0  0  0
  192.6420  176.4150  137.8260 C   0  0  1  0  0  3  0  0  0  0  0  0
  188.9370  174.4490  136.2260 C   0  0  2  0  0  3  0  0  0  0  0  0
  188.1880  175.1120  137.2310 N   0  0  0  0  0  0  0  0  0  0  0  0
  192.8890  177.1700  139.0090 O   0  0  0  0  0  0  0  0  0  0  0  0
  194.5220  175.7310  136.1520 C   0  0  0  0  0  3  0  0  0  0  0  0
  193.9070  175.6700  137.4220 C   0  0  0  0  0  0  0  0  0  0  0  0
  194.4350  174.8950  138.4140 C   0  0  0  0  0  3  0  0  0  0  0  0
  196.2280  173.4260  139.1630 F   0  0  0  0  0  0  0  0  0  0  0  0
  196.3240  174.2850  136.9990 C   0  0  0  0  0  3  0  0  0  0  0  0
  195.6190  174.1780  138.2120 C   0  0  0  0  0  0  0  0  0  0  0  0
  195.7450  175.0460  135.9700 C   0  0  0  0  0  3  0  0  0  0  0  0
  188.9870  172.4730  134.5940 C   0  0  0  0  0  2  0  0  0  0  0  0
  188.2570  173.6810  135.0950 C   0  0  1  0  0  3  0  0  0  0  0  0
  187.9050  172.4090  135.4700 O   0  0  0  0  0  0  0  0  0  0  0  0
  186.8820  175.1820  136.7530 O   0  0  0  0  0  0  0  0  0  0  0  0
  186.0380  174.2230  137.3220 C   0  0  1  0  0  3  0  0  0  0  0  0
  184.3580  172.5200  137.5560 C   0  0  0  0  0  1  0  0  0  0  0  0
  184.5600  174.7230  137.2390 C   0  0  0  0  0  2  0  0  0  0  0  0
  184.9850  173.4490  136.5870 C   0  0  1  0  0  3  0  0  0  0  0  0
  186.8740  178.6080  141.0600 C   0  0  0  0  0  2  0  0  0  0  0  0
  186.5730  178.2050  142.4300 C   0  0  0  0  0  0  0  0  0  0  0  0
  186.3100  177.9120  143.5600 C   0  0  0  0  0  3  0  0  0  0  0  0
  1  5  2  0  0  0  0
  1 14  1  0  0  0  0
  2 13  1  0  0  0  0
  3 35  1  1  0  0  0
  3  7  1  0  0  0  0
  4  1  1  1  0  0  0
  5  3  1  0  0  0  0
  6  2  1  6  0  0  0
  6 16  1  0  0  0  0
  6  4  1  0  0  0  0
  8 12  2  0  0  0  0
  8  5  1  0  0  0  0
  9  8  2  0  0  0  0
 10 14  2  0  0  0  0
 11  7  2  0  0  0  0
 14 11  1  0  0  0  0
 15 18  1  1  0  0  0
 15  4  1  0  0  0  0
 15  8  1  0  0  0  0
 16 21  1  1  0  0  0
 16 19  1  0  0  0  0
 17 13  1  1  0  0  0
 17 18  1  0  0  0  0
 19 10  1  0  0  0  0
 20 21  1  0  0  0  0
 21 22  2  0  0  0  0
 24 25  2  0  0  0  0
 25 22  1  0  0  0  0
 25 23  1  0  0  0  0
 26 20  2  0  0  0  0
 26 24  1  0  0  0  0
 27 29  1  0  0  0  0
 28 27  1  6  0  0  0
 28 29  1  0  0  0  0
 28 17  1  0  0  0  0
 30 18  1  0  0  0  0
 31 30  1  6  0  0  0
 33 31  1  0  0  0  0
 34 33  1  0  0  0  0
 34 31  1  0  0  0  0
 34 32  1  1  0  0  0
 35 36  1  0  0  0  0
 36 37  3  0  0  0  0
M  END
>  <MODEL>
3

>  <REMARK>
 VINA RESULT:      -7.4      3.698      8.420
  Name = 
  6 active torsions:
  status: ('A' for Active; 'I' for Inactive)
    1  A    between atoms: O_1  and  C_5
    2  A    between atoms: O_1  and  N_36
    3  A    between atoms: C_3  and  C_30
    4  A    between atoms: C_6  and  C_31
    5  A    between atoms: C_9  and  C_30
    6  A    between atoms: C_26  and  C_33
                            x       y       z     vdW  Elec       q    Type
                         _______ _______ _______ _____ _____    ______ ____

>  <TORSDO>
F 6

$$$$
=
 OpenBabel11052415153D

 37 43  0  0  1  0  0  0  0  0999 V2000
  190.5540  176.8790  140.1670 C   0  0  0  0  0  0  0  0  0  0  0  0
  187.1530  177.8780  141.8650 C   0  0  0  0  0  2  0  0  0  0  0  0
  192.3210  176.3750  138.5270 C   0  0  2  0  0  3  0  0  0  0  0  0
  189.1090  176.9310  140.5200 C   0  0  1  0  0  3  0  0  0  0  0  0
  190.8940  176.6210  138.9230 C   0  0  0  0  0  0  0  0  0  0  0  0
  188.6450  177.6330  141.8630 C   0  0  2  0  0  3  0  0  0  0  0  0
  193.2720  177.1850  139.4560 C   0  0  0  0  0  3  0  0  0  0  0  0
  189.5050  176.2040  137.9940 S   0  0  0  0  0  0  0  0  0  0  0  0
  189.3030  174.7200  137.9680 O   0  0  0  0  0  0  0  0  0  0  0  0
  191.5310  176.8870  142.4600 C   0  0  0  0  0  3  0  0  0  0  0  0
  192.8650  177.5650  140.6870 C   0  0  0  0  0  3  0  0  0  0  0  0
  189.5000  176.7530  136.6080 O   0  0  0  0  0  0  0  0  0  0  0  0
  186.9610  179.1280  141.0440 C   0  0  0  0  0  2  0  0  0  0  0  0
  191.5770  177.1640  141.1930 C   0  0  0  0  0  0  0  0  0  0  0  0
  188.3530  176.9560  139.1500 C   0  0  2  0  0  3  0  0  0  0  0  0
  189.0050  176.7030  143.0010 C   0  0  1  0  0  3  0  0  0  0  0  0
  186.7210  178.5130  139.5860 C   0  0  2  0  0  3  0  0  0  0  0  0
  187.8730  178.3570  138.7730 N   0  0  0  0  0  0  0  0  0  0  0  0
  190.3820  176.3760  143.1640 O   0  0  0  0  0  0  0  0  0  0  0  0
  187.0270  177.2570  144.6090 C   0  0  0  0  0  3  0  0  0  0  0  0
  188.4020  177.0660  144.3510 C   0  0  0  0  0  0  0  0  0  0  0  0
  189.3230  177.2090  145.3480 C   0  0  0  0  0  3  0  0  0  0  0  0
  189.7760  177.6140  147.7070 F   0  0  0  0  0  0  0  0  0  0  0  0
  187.5620  177.6030  146.9860 C   0  0  0  0  0  3  0  0  0  0  0  0
  188.9250  177.5040  146.6560 C   0  0  0  0  0  0  0  0  0  0  0  0
  186.6270  177.5030  145.9420 C   0  0  0  0  0  3  0  0  0  0  0  0
  184.1620  178.4590  139.7380 C   0  0  0  0  0  2  0  0  0  0  0  0
  185.3760  178.9320  138.9980 C   0  0  1  0  0  3  0  0  0  0  0  0
  184.6720  179.7520  139.8440 O   0  0  0  0  0  0  0  0  0  0  0  0
  187.4120  178.3180  137.4600 O   0  0  0  0  0  0  0  0  0  0  0  0
  186.2950  177.4950  137.2950 C   0  0  1  0  0  3  0  0  0  0  0  0
  184.8980  175.6620  136.6120 C   0  0  0  0  0  1  0  0  0  0  0  0
  185.8640  177.5030  135.7930 C   0  0  0  0  0  2  0  0  0  0  0  0
  186.2570  176.2370  136.4800 C   0  0  1  0  0  3  0  0  0  0  0  0
  192.6380  176.6380  137.0570 C   0  0  0  0  0  2  0  0  0  0  0  0
  193.8030  175.9050  136.5690 C   0  0  0  0  0  0  0  0  0  0  0  0
  194.7650  175.2920  136.2080 C   0  0  0  0  0  3  0  0  0  0  0  0
  1 14  1  0  0  0  0
  3 35  1  6  0  0  0
  3  5  1  0  0  0  0
  3  7  1  0  0  0  0
  4  1  1  6  0  0  0
  4  6  1  0  0  0  0
  5  1  2  0  0  0  0
  6  2  1  6  0  0  0
  6 16  1  0  0  0  0
  7 11  2  0  0  0  0
  8  5  1  0  0  0  0
  8 15  1  0  0  0  0
  9  8  2  0  0  0  0
 10 19  1  0  0  0  0
 11 14  1  0  0  0  0
 12  8  2  0  0  0  0
 13  2  1  0  0  0  0
 14 10  2  0  0  0  0
 15 18  1  6  0  0  0
 15  4  1  0  0  0  0
 16 19  1  0  0  0  0
 16 21  1  1  0  0  0
 17 13  1  1  0  0  0
 18 17  1  0  0  0  0
 20 26  1  0  0  0  0
 21 20  2  0  0  0  0
 21 22  1  0  0  0  0
 22 25  2  0  0  0  0
 25 24  1  0  0  0  0
 25 23  1  0  0  0  0
 26 24  2  0  0  0  0
 27 29  1  0  0  0  0
 28 17  1  0  0  0  0
 28 27  1  1  0  0  0
 28 29  1  0  0  0  0
 30 18  1  0  0  0  0
 31 30  1  6  0  0  0
 33 34  1  0  0  0  0
 33 31  1  0  0  0  0
 34 32  1  1  0  0  0
 34 31  1  0  0  0  0
 36 35  1  0  0  0  0
 37 36  3  0  0  0  0
M  END
>  <MODEL>
4

>  <REMARK>
 VINA RESULT:      -7.4      2.352      5.584
  Name = 
  6 active torsions:
  status: ('A' for Active; 'I' for Inactive)
    1  A    between atoms: O_1  and  C_5
    2  A    between atoms: O_1  and  N_36
    3  A    between atoms: C_3  and  C_30
    4  A    between atoms: C_6  and  C_31
    5  A    between atoms: C_9  and  C_30
    6  A    between atoms: C_26  and  C_33
                            x       y       z     vdW  Elec       q    Type
                         _______ _______ _______ _____ _____    ______ ____

>  <TORSDO>
F 6

$$$$
=
 OpenBabel11052415153D

 37 43  0  0  1  0  0  0  0  0999 V2000
  183.2790  178.3000  140.9100 C   0  0  0  0  0  0  0  0  0  0  0  0
  184.0650  176.6320  137.4400 C   0  0  0  0  0  2  0  0  0  0  0  0
  182.1570  179.0840  142.9590 C   0  0  2  0  0  3  0  0  0  0  0  0
  183.2040  177.9170  139.4750 C   0  0  1  0  0  3  0  0  0  0  0  0
  182.1600  178.5210  141.5670 C   0  0  0  0  0  0  0  0  0  0  0  0
  184.4520  177.2450  138.7670 C   0  0  2  0  0  3  0  0  0  0  0  0
  183.4400  178.6270  143.7130 C   0  0  0  0  0  3  0  0  0  0  0  0
  180.8150  178.4880  140.4920 S   0  0  0  0  0  0  0  0  0  0  0  0
  180.4880  179.8640  139.9980 O   0  0  0  0  0  0  0  0  0  0  0  0
  185.7240  178.7470  141.0830 C   0  0  0  0  0  3  0  0  0  0  0  0
  184.5470  178.2710  143.0250 C   0  0  0  0  0  3  0  0  0  0  0  0
  179.5960  177.8320  141.0450 O   0  0  0  0  0  0  0  0  0  0  0  0
  183.4420  175.3050  137.7900 C   0  0  0  0  0  2  0  0  0  0  0  0
  184.5880  178.3770  141.5890 C   0  0  0  0  0  0  0  0  0  0  0  0
  181.6980  177.5770  139.2180 C   0  0  2  0  0  3  0  0  0  0  0  0
  185.4770  178.3360  138.5380 C   0  0  1  0  0  3  0  0  0  0  0  0
  181.8960  175.7050  137.9020 C   0  0  2  0  0  3  0  0  0  0  0  0
  181.4350  176.0720  139.1920 N   0  0  0  0  0  0  0  0  0  0  0  0
  185.9730  179.0130  139.6890 O   0  0  0  0  0  0  0  0  0  0  0  0
  186.6620  178.1130  136.2250 C   0  0  0  0  0  3  0  0  0  0  0  0
  186.6370  177.9560  137.6290 C   0  0  0  0  0  0  0  0  0  0  0  0
  187.7050  177.4200  138.2880 C   0  0  0  0  0  3  0  0  0  0  0  0
  189.9830  176.5620  138.1880 F   0  0  0  0  0  0  0  0  0  0  0  0
  188.9800  177.2860  136.2140 C   0  0  0  0  0  3  0  0  0  0  0  0
  188.8660  177.0550  137.5970 C   0  0  0  0  0  0  0  0  0  0  0  0
  187.8560  177.7920  135.5400 C   0  0  0  0  0  3  0  0  0  0  0  0
  180.6240  175.6160  135.6780 C   0  0  0  0  0  2  0  0  0  0  0  0
  181.0220  174.9080  136.9360 C   0  0  1  0  0  3  0  0  0  0  0  0
  181.6510  174.6750  135.7390 O   0  0  0  0  0  0  0  0  0  0  0  0
  180.0560  175.8740  139.1780 O   0  0  0  0  0  0  0  0  0  0  0  0
  179.5980  175.1300  140.2690 C   0  0  1  0  0  3  0  0  0  0  0  0
  179.3780  173.3770  141.8990 C   0  0  0  0  0  1  0  0  0  0  0  0
  178.9310  173.8150  139.7540 C   0  0  0  0  0  2  0  0  0  0  0  0
  180.1070  173.7780  140.6720 C   0  0  1  0  0  3  0  0  0  0  0  0
  180.9040  178.7770  143.7760 C   0  0  0  0  0  2  0  0  0  0  0  0
  179.8040  179.7060  143.5330 C   0  0  0  0  0  0  0  0  0  0  0  0
  178.9310  180.4960  143.3230 C   0  0  0  0  0  3  0  0  0  0  0  0
  1  5  2  0  0  0  0
  1 14  1  0  0  0  0
  2 13  1  0  0  0  0
  3  7  1  0  0  0  0
  3 35  1  1  0  0  0
  4  1  1  1  0  0  0
  5  3  1  0  0  0  0
  6  2  1  6  0  0  0
  6  4  1  0  0  0  0
  8 12  2  0  0  0  0
  8  5  1  0  0  0  0
  9  8  2  0  0  0  0
 10 14  2  0  0  0  0
 11  7  2  0  0  0  0
 14 11  1  0  0  0  0
 15 18  1  1  0  0  0
 15  4  1  0  0  0  0
 15  8  1  0  0  0  0
 16 21  1  1  0  0  0
 16  6  1  0  0  0  0
 16 19  1  0  0  0  0
 17 13  1  1  0  0  0
 17 18  1  0  0  0  0
 19 10  1  0  0  0  0
 20 21  1  0  0  0  0
 21 22  2  0  0  0  0
 24 25  2  0  0  0  0
 25 23  1  0  0  0  0
 25 22  1  0  0  0  0
 26 24  1  0  0  0  0
 26 20  2  0  0  0  0
 27 29  1  0  0  0  0
 28 27  1  6  0  0  0
 28 17  1  0  0  0  0
 29 28  1  0  0  0  0
 30 18  1  0  0  0  0
 31 30  1  6  0  0  0
 31 34  1  0  0  0  0
 33 31  1  0  0  0  0
 33 34  1  0  0  0  0
 34 32  1  1  0  0  0
 36 35  1  0  0  0  0
 37 36  3  0  0  0  0
M  END
>  <MODEL>
5

>  <REMARK>
 VINA RESULT:      -7.2      4.287      9.072
  Name = 
  6 active torsions:
  status: ('A' for Active; 'I' for Inactive)
    1  A    between atoms: O_1  and  C_5
    2  A    between atoms: O_1  and  N_36
    3  A    between atoms: C_3  and  C_30
    4  A    between atoms: C_6  and  C_31
    5  A    between atoms: C_9  and  C_30
    6  A    between atoms: C_26  and  C_33
                            x       y       z     vdW  Elec       q    Type
                         _______ _______ _______ _____ _____    ______ ____

>  <TORSDO>
F 6

$$$$
=
 OpenBabel11052415153D

 37 43  0  0  1  0  0  0  0  0999 V2000
  188.9720  178.0870  142.1830 C   0  0  0  0  0  0  0  0  0  0  0  0
  186.3620  178.0280  145.1200 C   0  0  0  0  0  2  0  0  0  0  0  0
  191.0500  178.0080  140.8620 C   0  0  2  0  0  3  0  0  0  0  0  0
  188.2800  178.3770  143.4670 C   0  0  1  0  0  3  0  0  0  0  0  0
  190.2870  178.1110  142.1510 C   0  0  0  0  0  0  0  0  0  0  0  0
  186.7640  177.9600  143.6640 C   0  0  2  0  0  3  0  0  0  0  0  0
  190.2490  177.1430  139.8440 C   0  0  0  0  0  3  0  0  0  0  0  0
  190.9140  178.6840  143.6490 S   0  0  0  0  0  0  0  0  0  0  0  0
  191.1490  180.1620  143.6020 O   0  0  0  0  0  0  0  0  0  0  0  0
  187.0150  178.1670  140.6410 C   0  0  0  0  0  3  0  0  0  0  0  0
  188.9100  177.0130  139.9640 C   0  0  0  0  0  3  0  0  0  0  0  0
  192.1410  177.9780  144.1170 O   0  0  0  0  0  0  0  0  0  0  0  0
  186.8810  176.7510  145.7290 C   0  0  0  0  0  2  0  0  0  0  0  0
  188.1870  177.7290  140.9830 C   0  0  0  0  0  0  0  0  0  0  0  0
  189.4030  178.3350  144.5570 C   0  0  2  0  0  3  0  0  0  0  0  0
  185.9250  178.9320  142.8630 C   0  0  1  0  0  3  0  0  0  0  0  0
  188.3240  177.2140  146.2460 C   0  0  2  0  0  3  0  0  0  0  0  0
  189.4030  177.0260  145.3460 N   0  0  0  0  0  0  0  0  0  0  0  0
  186.1560  178.9870  141.4580 O   0  0  0  0  0  0  0  0  0  0  0  0
  183.8190  179.0050  144.4000 C   0  0  0  0  0  3  0  0  0  0  0  0
  184.4280  178.8720  143.1330 C   0  0  0  0  0  0  0  0  0  0  0  0
  183.6720  178.6670  142.0150 C   0  0  0  0  0  3  0  0  0  0  0  0
  181.4570  178.4720  141.0200 F   0  0  0  0  0  0  0  0  0  0  0  0
  181.6160  178.8540  143.3120 C   0  0  0  0  0  3  0  0  0  0  0  0
  182.2750  178.6260  142.0910 C   0  0  0  0  0  0  0  0  0  0  0  0
  182.4070  179.0150  144.4620 C   0  0  0  0  0  3  0  0  0  0  0  0
  188.7330  178.2480  148.5560 C   0  0  0  0  0  2  0  0  0  0  0  0
  188.4900  177.0090  147.7500 C   0  0  1  0  0  3  0  0  0  0  0  0
  187.4930  177.6170  148.4700 O   0  0  0  0  0  0  0  0  0  0  0  0
  190.5540  176.9940  146.1280 O   0  0  0  0  0  0  0  0  0  0  0  0
  191.5330  176.1300  145.6270 C   0  0  1  0  0  3  0  0  0  0  0  0
  192.7990  174.1360  145.1820 C   0  0  0  0  0  1  0  0  0  0  0  0
  192.4300  175.6280  146.8040 C   0  0  0  0  0  2  0  0  0  0  0  0
  191.6560  174.6730  145.9570 C   0  0  1  0  0  3  0  0  0  0  0  0
  192.4840  177.5030  140.9990 C   0  0  0  0  0  2  0  0  0  0  0  0
  193.0880  177.1030  139.7310 C   0  0  0  0  0  0  0  0  0  0  0  0
  193.5490  176.7520  138.6850 C   0  0  0  0  0  3  0  0  0  0  0  0
  2 13  1  0  0  0  0
  3 35  1  1  0  0  0
  3  5  1  0  0  0  0
  4  1  1  6  0  0  0
  4  6  1  0  0  0  0
  4 15  1  0  0  0  0
  5  1  2  0  0  0  0
  5  8  1  0  0  0  0
  6  2  1  1  0  0  0
  7 11  2  0  0  0  0
  7  3  1  0  0  0  0
  8 12  2  0  0  0  0
  8 15  1  0  0  0  0
  9  8  2  0  0  0  0
 10 14  2  0  0  0  0
 10 19  1  0  0  0  0
 11 14  1  0  0  0  0
 14  1  1  0  0  0  0
 15 18  1  6  0  0  0
 16 21  1  6  0  0  0
 16  6  1  0  0  0  0
 17 13  1  6  0  0  0
 17 28  1  0  0  0  0
 18 30  1  0  0  0  0
 18 17  1  0  0  0  0
 19 16  1  0  0  0  0
 20 26  1  0  0  0  0
 21 20  2  0  0  0  0
 22 25  2  0  0  0  0
 22 21  1  0  0  0  0
 23 25  1  0  0  0  0
 24 26  2  0  0  0  0
 25 24  1  0  0  0  0
 28 29  1  0  0  0  0
 28 27  1  1  0  0  0
 29 27  1  0  0  0  0
 31 34  1  0  0  0  0
 31 30  1  1  0  0  0
 31 33  1  0  0  0  0
 34 32  1  6  0  0  0
 34 33  1  0  0  0  0
 36 35  1  0  0  0  0
 37 36  3  0  0  0  0
M  END
>  <MODEL>
6

>  <REMARK>
 VINA RESULT:      -6.8      3.304      5.489
  Name = 
  6 active torsions:
  status: ('A' for Active; 'I' for Inactive)
    1  A    between atoms: O_1  and  C_5
    2  A    between atoms: O_1  and  N_36
    3  A    between atoms: C_3  and  C_30
    4  A    between atoms: C_6  and  C_31
    5  A    between atoms: C_9  and  C_30
    6  A    between atoms: C_26  and  C_33
                            x       y       z     vdW  Elec       q    Type
                         _______ _______ _______ _____ _____    ______ ____

>  <TORSDO>
F 6

$$$$
=
 OpenBabel11052415153D

 37 43  0  0  1  0  0  0  0  0999 V2000
  184.9610  177.9680  140.3920 C   0  0  0  0  0  0  0  0  0  0  0  0
  183.5450  178.6410  143.9960 C   0  0  0  0  0  2  0  0  0  0  0  0
  185.1800  177.6210  137.9630 C   0  0  2  0  0  3  0  0  0  0  0  0
  184.1420  177.8780  141.6310 C   0  0  1  0  0  3  0  0  0  0  0  0
  184.3870  177.7270  139.2330 C   0  0  0  0  0  0  0  0  0  0  0  0
  184.6540  178.5500  142.9710 C   0  0  2  0  0  3  0  0  0  0  0  0
  186.4350  178.5390  138.0490 C   0  0  0  0  0  3  0  0  0  0  0  0
  182.7790  177.1550  139.4660 S   0  0  0  0  0  0  0  0  0  0  0  0
  182.7400  175.6590  139.4980 O   0  0  0  0  0  0  0  0  0  0  0  0
  187.2280  178.1110  141.4160 C   0  0  0  0  0  3  0  0  0  0  0  0
  186.9410  178.8940  139.2510 C   0  0  0  0  0  3  0  0  0  0  0  0
  181.7870  177.6790  138.4830 O   0  0  0  0  0  0  0  0  0  0  0  0
  182.7420  179.8520  143.5950 C   0  0  0  0  0  2  0  0  0  0  0  0
  186.3790  178.3720  140.4700 C   0  0  0  0  0  0  0  0  0  0  0  0
  182.6580  177.8040  141.1370 C   0  0  2  0  0  3  0  0  0  0  0  0
  185.7680  177.6780  143.5100 C   0  0  1  0  0  3  0  0  0  0  0  0
  181.6300  179.1930  142.6510 C   0  0  2  0  0  3  0  0  0  0  0  0
  181.9320  179.1430  141.2660 N   0  0  0  0  0  0  0  0  0  0  0  0
  186.9110  177.4970  142.6800 O   0  0  0  0  0  0  0  0  0  0  0  0
  185.5590  178.8880  145.8120 C   0  0  0  0  0  3  0  0  0  0  0  0
  186.2130  178.0000  144.9300 C   0  0  0  0  0  0  0  0  0  0  0  0
  187.3470  177.3450  145.3170 C   0  0  0  0  0  3  0  0  0  0  0  0
  188.9550  176.8510  147.0790 F   0  0  0  0  0  0  0  0  0  0  0  0
  187.1930  178.2970  147.5550 C   0  0  0  0  0  3  0  0  0  0  0  0
  187.8630  177.5030  146.6070 C   0  0  0  0  0  0  0  0  0  0  0  0
  186.0550  179.0040  147.1300 C   0  0  0  0  0  3  0  0  0  0  0  0
  179.3870  178.2530  143.4620 C   0  0  0  0  0  2  0  0  0  0  0  0
  180.2140  179.4630  143.1530 C   0  0  1  0  0  3  0  0  0  0  0  0
  180.0250  179.0190  144.4380 O   0  0  0  0  0  0  0  0  0  0  0  0
  180.7090  179.0370  140.6110 O   0  0  0  0  0  0  0  0  0  0  0  0
  180.4340  180.1290  139.7820 C   0  0  1  0  0  3  0  0  0  0  0  0
  179.5350  182.2080  138.9790 C   0  0  0  0  0  1  0  0  0  0  0  0
  178.9310  180.0910  139.3580 C   0  0  0  0  0  2  0  0  0  0  0  0
  179.4950  181.2510  140.1100 C   0  0  1  0  0  3  0  0  0  0  0  0
  184.3910  177.8920  136.6840 C   0  0  0  0  0  2  0  0  0  0  0  0
  184.1040  176.6890  135.9080 C   0  0  0  0  0  0  0  0  0  0  0  0
  183.9000  175.7130  135.2470 C   0  0  0  0  0  3  0  0  0  0  0  0
  1 14  1  0  0  0  0
  3 35  1  6  0  0  0
  3  7  1  0  0  0  0
  3  5  1  0  0  0  0
  4  1  1  6  0  0  0
  4  6  1  0  0  0  0
  5  8  1  0  0  0  0
  5  1  2  0  0  0  0
  6 16  1  0  0  0  0
  6  2  1  1  0  0  0
  7 11  2  0  0  0  0
  8  9  2  0  0  0  0
  8 15  1  0  0  0  0
 10 19  1  0  0  0  0
 11 14  1  0  0  0  0
 12  8  2  0  0  0  0
 13  2  1  0  0  0  0
 14 10  2  0  0  0  0
 15 18  1  6  0  0  0
 15  4  1  0  0  0  0
 16 21  1  1  0  0  0
 17 28  1  0  0  0  0
 17 13  1  1  0  0  0
 18 17  1  0  0  0  0
 19 16  1  0  0  0  0
 20 26  1  0  0  0  0
 21 22  1  0  0  0  0
 21 20  2  0  0  0  0
 22 25  2  0  0  0  0
 25 23  1  0  0  0  0
 25 24  1  0  0  0  0
 26 24  2  0  0  0  0
 27 29  1  0  0  0  0
 28 27  1  6  0  0  0
 28 29  1  0  0  0  0
 30 18  1  0  0  0  0
 31 34  1  0  0  0  0
 31 30  1  1  0  0  0
 33 31  1  0  0  0  0
 33 34  1  0  0  0  0
 34 32  1  6  0  0  0
 36 35  1  0  0  0  0
 37 36  3  0  0  0  0
M  END
>  <MODEL>
7

>  <REMARK>
 VINA RESULT:      -6.6      3.970      7.291
  Name = 
  6 active torsions:
  status: ('A' for Active; 'I' for Inactive)
    1  A    between atoms: O_1  and  C_5
    2  A    between atoms: O_1  and  N_36
    3  A    between atoms: C_3  and  C_30
    4  A    between atoms: C_6  and  C_31
    5  A    between atoms: C_9  and  C_30
    6  A    between atoms: C_26  and  C_33
                            x       y       z     vdW  Elec       q    Type
                         _______ _______ _______ _____ _____    ______ ____

>  <TORSDO>
F 6

$$$$
=
 OpenBabel11052415153D

 37 43  0  0  1  0  0  0  0  0999 V2000
  186.7730  178.0350  139.6810 C   0  0  0  0  0  0  0  0  0  0  0  0
  184.8150  178.3430  143.0750 C   0  0  0  0  0  2  0  0  0  0  0  0
  187.3700  177.9630  137.2920 C   0  0  2  0  0  3  0  0  0  0  0  0
  185.7640  177.8350  140.7570 C   0  0  1  0  0  3  0  0  0  0  0  0
  186.3860  177.9530  138.4260 C   0  0  0  0  0  0  0  0  0  0  0  0
  186.0700  178.3260  142.2320 C   0  0  2  0  0  3  0  0  0  0  0  0
  188.6150  178.8130  137.6830 C   0  0  0  0  0  3  0  0  0  0  0  0
  184.7490  177.4250  138.3340 S   0  0  0  0  0  0  0  0  0  0  0  0
  184.6730  175.9370  138.1790 O   0  0  0  0  0  0  0  0  0  0  0  0
  188.8500  177.9660  141.0560 C   0  0  0  0  0  3  0  0  0  0  0  0
  188.9290  179.0050  138.9830 C   0  0  0  0  0  3  0  0  0  0  0  0
  183.9390  178.0990  137.2800 O   0  0  0  0  0  0  0  0  0  0  0  0
  184.1130  179.6240  142.7030 C   0  0  0  0  0  2  0  0  0  0  0  0
  188.1690  178.3690  140.0280 C   0  0  0  0  0  0  0  0  0  0  0  0
  184.3780  177.8800  140.0330 C   0  0  2  0  0  3  0  0  0  0  0  0
  187.0650  177.3530  142.8290 C   0  0  1  0  0  3  0  0  0  0  0  0
  183.1520  179.1250  141.5250 C   0  0  2  0  0  3  0  0  0  0  0  0
  183.6700  179.2230  140.2080 N   0  0  0  0  0  0  0  0  0  0  0  0
  188.3220  177.2230  142.1710 O   0  0  0  0  0  0  0  0  0  0  0  0
  186.3060  177.8880  145.2670 C   0  0  0  0  0  3  0  0  0  0  0  0
  187.2840  177.4900  144.3290 C   0  0  0  0  0  0  0  0  0  0  0  0
  188.5540  177.1920  144.7330 C   0  0  0  0  0  3  0  0  0  0  0  0
  190.1320  176.9050  146.5670 F   0  0  0  0  0  0  0  0  0  0  0  0
  187.9430  177.5240  147.0690 C   0  0  0  0  0  3  0  0  0  0  0  0
  188.9060  177.2320  146.0860 C   0  0  0  0  0  0  0  0  0  0  0  0
  186.6530  177.8760  146.6370 C   0  0  0  0  0  3  0  0  0  0  0  0
  180.8380  178.1840  142.1040 C   0  0  0  0  0  2  0  0  0  0  0  0
  181.6800  179.3930  141.8280 C   0  0  1  0  0  3  0  0  0  0  0  0
  181.3360  179.0190  143.1030 O   0  0  0  0  0  0  0  0  0  0  0  0
  182.5650  179.2430  139.3610 O   0  0  0  0  0  0  0  0  0  0  0  0
  182.3890  180.4720  138.7180 C   0  0  1  0  0  3  0  0  0  0  0  0
  181.3990  182.5320  137.9740 C   0  0  0  0  0  1  0  0  0  0  0  0
  181.2880  180.3280  137.6200 C   0  0  0  0  0  2  0  0  0  0  0  0
  181.1360  181.2950  138.7470 C   0  0  1  0  0  3  0  0  0  0  0  0
  186.8010  178.4120  135.9480 C   0  0  0  0  0  2  0  0  0  0  0  0
  186.1790  177.3330  135.1860 C   0  0  0  0  0  0  0  0  0  0  0  0
  185.6620  176.4290  134.5960 C   0  0  0  0  0  3  0  0  0  0  0  0
  1 14  1  0  0  0  0
  3 35  1  6  0  0  0
  3  7  1  0  0  0  0
  3  5  1  0  0  0  0
  4  1  1  6  0  0  0
  4  6  1  0  0  0  0
  5  1  2  0  0  0  0
  6 16  1  0  0  0  0
  6  2  1  1  0  0  0
  7 11  2  0  0  0  0
  8  5  1  0  0  0  0
  8 15  1  0  0  0  0
  9  8  2  0  0  0  0
 10 19  1  0  0  0  0
 11 14  1  0  0  0  0
 12  8  2  0  0  0  0
 13  2  1  0  0  0  0
 14 10  2  0  0  0  0
 15 18  1  6  0  0  0
 15  4  1  0  0  0  0
 16 21  1  1  0  0  0
 17 28  1  0  0  0  0
 17 13  1  1  0  0  0
 18 17  1  0  0  0  0
 19 16  1  0  0  0  0
 20 26  1  0  0  0  0
 21 22  1  0  0  0  0
 21 20  2  0  0  0  0
 22 25  2  0  0  0  0
 25 23  1  0  0  0  0
 25 24  1  0  0  0  0
 26 24  2  0  0  0  0
 27 29  1  0  0  0  0
 28 27  1  6  0  0  0
 28 29  1  0  0  0  0
 30 18  1  0  0  0  0
 31 34  1  0  0  0  0
 31 30  1  1  0  0  0
 33 31  1  0  0  0  0
 33 34  1  0  0  0  0
 34 32  1  6  0  0  0
 36 35  1  0  0  0  0
 37 36  3  0  0  0  0
M  END
>  <MODEL>
8

>  <REMARK>
 VINA RESULT:      -6.6      3.233      6.370
  Name = 
  6 active torsions:
  status: ('A' for Active; 'I' for Inactive)
    1  A    between atoms: O_1  and  C_5
    2  A    between atoms: O_1  and  N_36
    3  A    between atoms: C_3  and  C_30
    4  A    between atoms: C_6  and  C_31
    5  A    between atoms: C_9  and  C_30
    6  A    between atoms: C_26  and  C_33
                            x       y       z     vdW  Elec       q    Type
                         _______ _______ _______ _____ _____    ______ ____

>  <TORSDO>
F 6

$$$$
=
 OpenBabel11052415153D

 37 43  0  0  1  0  0  0  0  0999 V2000
  186.9060  175.8810  136.9340 C   0  0  0  0  0  0  0  0  0  0  0  0
  183.0330  176.2930  137.4610 C   0  0  0  0  0  2  0  0  0  0  0  0
  189.3490  176.1830  137.0120 C   0  0  2  0  0  3  0  0  0  0  0  0
  185.5400  176.4670  136.9920 C   0  0  1  0  0  3  0  0  0  0  0  0
  187.9370  176.6460  137.2210 C   0  0  0  0  0  0  0  0  0  0  0  0
  184.2720  175.5190  137.0690 C   0  0  2  0  0  3  0  0  0  0  0  0
  189.4300  174.6390  137.2040 C   0  0  0  0  0  3  0  0  0  0  0  0
  187.4340  178.2800  137.4290 S   0  0  0  0  0  0  0  0  0  0  0  0
  187.5570  179.0470  136.1490 O   0  0  0  0  0  0  0  0  0  0  0  0
  186.3740  173.7260  135.8020 C   0  0  0  0  0  3  0  0  0  0  0  0
  188.3310  173.8720  137.0380 C   0  0  0  0  0  3  0  0  0  0  0  0
  188.1220  179.0040  138.5360 O   0  0  0  0  0  0  0  0  0  0  0  0
  183.1210  176.4390  138.9580 C   0  0  0  0  0  2  0  0  0  0  0  0
  187.0850  174.4520  136.6080 C   0  0  0  0  0  0  0  0  0  0  0  0
  185.7140  177.8440  137.7150 C   0  0  2  0  0  3  0  0  0  0  0  0
  184.0780  174.9200  135.6930 C   0  0  1  0  0  3  0  0  0  0  0  0
  183.8750  177.8450  139.0920 C   0  0  2  0  0  3  0  0  0  0  0  0
  185.2900  177.7910  139.1820 N   0  0  0  0  0  0  0  0  0  0  0  0
  185.1460  174.1350  135.1690 O   0  0  0  0  0  0  0  0  0  0  0  0
  181.6480  174.6980  134.7710 C   0  0  0  0  0  3  0  0  0  0  0  0
  182.7580  174.1920  135.4830 C   0  0  0  0  0  0  0  0  0  0  0  0
  182.7090  172.9560  136.0590 C   0  0  0  0  0  3  0  0  0  0  0  0
  181.4730  170.8880  136.4270 F   0  0  0  0  0  0  0  0  0  0  0  0
  180.4860  172.5610  135.1410 C   0  0  0  0  0  3  0  0  0  0  0  0
  181.5780  172.1440  135.9240 C   0  0  0  0  0  0  0  0  0  0  0  0
  180.5290  173.8540  134.5940 C   0  0  0  0  0  3  0  0  0  0  0  0
  182.3680  179.9180  139.0760 C   0  0  0  0  0  2  0  0  0  0  0  0
  183.0600  178.8630  139.8850 C   0  0  1  0  0  3  0  0  0  0  0  0
  181.7200  178.7960  139.5930 O   0  0  0  0  0  0  0  0  0  0  0  0
  185.6800  178.9830  139.7890 O   0  0  0  0  0  0  0  0  0  0  0  0
  186.3780  178.7860  140.9840 C   0  0  1  0  0  3  0  0  0  0  0  0
  186.9720  177.9720  143.1670 C   0  0  0  0  0  1  0  0  0  0  0  0
  185.5500  179.3780  142.1690 C   0  0  0  0  0  2  0  0  0  0  0  0
  185.9170  177.9310  142.1270 C   0  0  1  0  0  3  0  0  0  0  0  0
  190.3960  176.8960  137.8650 C   0  0  0  0  0  2  0  0  0  0  0  0
  190.1760  176.7530  139.3020 C   0  0  0  0  0  0  0  0  0  0  0  0
  189.9720  176.6710  140.4780 C   0  0  0  0  0  3  0  0  0  0  0  0
  1  5  2  0  0  0  0
  2 13  1  0  0  0  0
  3  7  1  0  0  0  0
  3  5  1  0  0  0  0
  3 35  1  1  0  0  0
  4  1  1  1  0  0  0
  4  6  1  0  0  0  0
  4 15  1  0  0  0  0
  5  8  1  0  0  0  0
  6  2  1  6  0  0  0
  8 15  1  0  0  0  0
  8 12  2  0  0  0  0
  9  8  2  0  0  0  0
 10 14  2  0  0  0  0
 11  7  2  0  0  0  0
 14  1  1  0  0  0  0
 14 11  1  0  0  0  0
 15 18  1  1  0  0  0
 16 21  1  1  0  0  0
 16  6  1  0  0  0  0
 17 13  1  1  0  0  0
 17 18  1  0  0  0  0
 17 28  1  0  0  0  0
 18 30  1  0  0  0  0
 19 16  1  0  0  0  0
 19 10  1  0  0  0  0
 20 21  1  0  0  0  0
 21 22  2  0  0  0  0
 24 25  2  0  0  0  0
 25 22  1  0  0  0  0
 25 23  1  0  0  0  0
 26 20  2  0  0  0  0
 26 24  1  0  0  0  0
 27 29  1  0  0  0  0
 28 27  1  6  0  0  0
 29 28  1  0  0  0  0
 31 30  1  6  0  0  0
 31 34  1  0  0  0  0
 31 33  1  0  0  0  0
 34 33  1  0  0  0  0
 34 32  1  1  0  0  0
 35 36  1  0  0  0  0
 36 37  3  0  0  0  0
M  END
>  <MODEL>
9

>  <REMARK>
 VINA RESULT:      -6.5      3.496      7.262
  Name = 
  6 active torsions:
  status: ('A' for Active; 'I' for Inactive)
    1  A    between atoms: O_1  and  C_5
    2  A    between atoms: O_1  and  N_36
    3  A    between atoms: C_3  and  C_30
    4  A    between atoms: C_6  and  C_31
    5  A    between atoms: C_9  and  C_30
    6  A    between atoms: C_26  and  C_33
                            x       y       z     vdW  Elec       q    Type
                         _______ _______ _______ _____ _____    ______ ____

>  <TORSDO>
F 6

$$$$
