=
 OpenBabel11052414363D

 32 36  0  0  1  0  0  0  0  0999 V2000
  182.3550  177.3280  139.5950 C   0  0  0  0  0  0  0  0  0  0  0  0
  181.5300  179.5160  138.6140 C   0  0  2  0  0  3  0  0  0  0  0  0
  182.1870  175.9510  139.7890 C   0  0  0  0  0  3  0  0  0  0  0  0
  181.3390  178.0720  138.9740 C   0  0  0  0  0  0  0  0  0  0  0  0
  181.4690  179.6840  137.0980 C   0  0  0  0  0  2  0  0  0  0  0  0
  182.7970  180.1450  139.2150 C   0  0  0  0  0  2  0  0  0  0  0  0
  180.1800  177.4260  138.5210 C   0  0  0  0  0  0  0  0  0  0  0  0
  178.9310  178.3640  137.6340 S   0  0  0  0  0  0  0  0  0  0  0  0
  180.0260  176.0500  138.7040 C   0  0  0  0  0  3  0  0  0  0  0  0
  183.9520  179.2390  139.2880 N   0  0  0  0  0  0  0  0  0  0  0  0
  183.6520  177.9850  139.9960 C   0  0  1  0  0  3  0  0  0  0  0  0
  180.1250  179.2050  136.4990 C   0  0  2  0  0  3  0  0  0  0  0  0
  181.0230  175.3150  139.3490 C   0  0  0  0  0  3  0  0  0  0  0  0
  185.7040  178.4620  143.3180 C   0  0  2  0  0  3  0  0  0  0  0  0
  183.4040  179.1390  145.6880 F   0  0  0  0  0  0  0  0  0  0  0  0
  186.6650  177.4700  143.2440 F   0  0  0  0  0  0  0  0  0  0  0  0
  182.6440  179.0680  143.4580 C   0  0  0  0  0  3  0  0  0  0  0  0
  183.9310  178.0830  141.5050 C   0  0  2  0  0  3  0  0  0  0  0  0
  184.6640  178.0220  144.1590 O   0  0  0  0  0  0  0  0  0  0  0  0
  182.7030  178.6430  142.1850 C   0  0  0  0  0  3  0  0  0  0  0  0
  185.2160  178.8410  141.9020 C   0  0  2  0  0  3  0  0  0  0  0  0
  186.2430  178.6680  140.9930 F   0  0  0  0  0  0  0  0  0  0  0  0
  183.8330  179.1260  144.3750 C   0  0  2  0  0  3  0  0  0  0  0  0
  180.2480  178.5880  135.2390 O   0  0  0  0  0  0  0  0  0  0  0  0
  181.5560  178.1000  135.1120 C   0  0  0  0  0  1  0  0  0  0  0  0
  184.4340  178.9370  137.9430 C   0  0  0  0  0  2  0  0  0  0  0  0
  184.8140  176.7220  136.8870 C   0  0  0  0  0  2  0  0  0  0  0  0
  187.0000  177.4520  136.2420 N   0  0  0  0  0  0  0  0  0  0  0  0
  186.6750  178.0160  137.4920 C   0  0  0  0  0  0  0  0  0  0  0  0
  187.4920  178.7130  138.1490 O   0  0  0  0  0  0  0  0  0  0  0  0
  185.8550  176.7040  135.7600 C   0  0  0  0  0  3  0  0  0  0  0  0
  185.3100  177.6930  137.9560 C   0  0  1  0  0  3  0  0  0  0  0  0
  1  3  1  0  0  0  0
  2  5  1  6  0  0  0
  2  4  1  0  0  0  0
  2  6  1  0  0  0  0
  4  1  2  0  0  0  0
  6 10  1  0  0  0  0
  7  9  2  0  0  0  0
  7  4  1  0  0  0  0
  8  7  1  0  0  0  0
  9 13  1  0  0  0  0
 10 11  1  0  0  0  0
 11  1  1  1  0  0  0
 11 18  1  0  0  0  0
 12 24  1  6  0  0  0
 12  5  1  0  0  0  0
 12  8  1  0  0  0  0
 13  3  2  0  0  0  0
 14 16  1  6  0  0  0
 14 19  1  0  0  0  0
 17 23  1  0  0  0  0
 18 21  1  0  0  0  0
 18 20  1  1  0  0  0
 19 23  1  0  0  0  0
 20 17  2  0  0  0  0
 21 22  1  6  0  0  0
 21 14  1  0  0  0  0
 23 15  1  1  0  0  0
 25 24  1  0  0  0  0
 26 10  1  0  0  0  0
 27 32  1  0  0  0  0
 28 29  1  0  0  0  0
 29 32  1  0  0  0  0
 29 30  2  0  0  0  0
 31 28  2  0  0  0  0
 31 27  1  0  0  0  0
 32 26  1  6  0  0  0
M  END
>  <MODEL>
1

>  <REMARK>
 VINA RESULT:      -6.4      0.000      0.000
  Name = 
  4 active torsions:
  status: ('A' for Active; 'I' for Inactive)
    1  A    between atoms: O_13  and  C_29
    2  A    between atoms: C_16  and  C_27
    3  A    between atoms: N_24  and  C_28
    4  A    between atoms: C_28  and  C_32
                            x       y       z     vdW  Elec       q    Type
                         _______ _______ _______ _____ _____    ______ ____

>  <TORSDO>
F 4

$$$$
=
 OpenBabel11052414363D

 32 36  0  0  1  0  0  0  0  0999 V2000
  182.8270  179.8110  139.1960 C   0  0  0  0  0  0  0  0  0  0  0  0
  181.6720  177.9910  140.5310 C   0  0  2  0  0  3  0  0  0  0  0  0
  182.7690  181.0380  138.5230 C   0  0  0  0  0  3  0  0  0  0  0  0
  181.6460  179.2270  139.6810 C   0  0  0  0  0  0  0  0  0  0  0  0
  181.1310  178.3080  141.9230 C   0  0  0  0  0  2  0  0  0  0  0  0
  183.0440  177.3020  140.5870 C   0  0  0  0  0  2  0  0  0  0  0  0
  180.4230  179.8930  139.5200 C   0  0  0  0  0  0  0  0  0  0  0  0
  178.9310  179.1920  140.2350 S   0  0  0  0  0  0  0  0  0  0  0  0
  180.3740  181.1240  138.8620 C   0  0  0  0  0  3  0  0  0  0  0  0
  184.1900  178.2240  140.5820 N   0  0  0  0  0  0  0  0  0  0  0  0
  184.1640  179.1610  139.4490 C   0  0  1  0  0  3  0  0  0  0  0  0
  179.6810  178.8480  141.8900 C   0  0  2  0  0  3  0  0  0  0  0  0
  181.5450  181.6900  138.3520 C   0  0  0  0  0  3  0  0  0  0  0  0
  187.1630  177.9130  137.2300 C   0  0  2  0  0  3  0  0  0  0  0  0
  185.7400  176.1680  134.7210 F   0  0  0  0  0  0  0  0  0  0  0  0
  188.0180  179.0000  137.2070 F   0  0  0  0  0  0  0  0  0  0  0  0
  184.3220  176.8620  136.4720 C   0  0  0  0  0  3  0  0  0  0  0  0
  184.9020  178.6120  138.2170 C   0  0  2  0  0  3  0  0  0  0  0  0
  186.4210  177.8960  136.0330 O   0  0  0  0  0  0  0  0  0  0  0  0
  183.9670  177.6880  137.4700 C   0  0  0  0  0  3  0  0  0  0  0  0
  186.2730  177.9570  138.4920 C   0  0  2  0  0  3  0  0  0  0  0  0
  186.9600  178.5670  139.5260 F   0  0  0  0  0  0  0  0  0  0  0  0
  185.7380  176.6750  136.0050 C   0  0  2  0  0  3  0  0  0  0  0  0
  179.4180  179.8410  142.8540 O   0  0  0  0  0  0  0  0  0  0  0  0
  179.1830  179.2100  144.0840 C   0  0  0  0  0  1  0  0  0  0  0  0
  184.2310  178.9720  141.8350 C   0  0  0  0  0  2  0  0  0  0  0  0
  186.0160  177.8080  143.1100 C   0  0  0  0  0  2  0  0  0  0  0  0
  185.3270  178.9920  145.0730 N   0  0  0  0  0  0  0  0  0  0  0  0
  184.1940  178.7050  144.2860 C   0  0  0  0  0  0  0  0  0  0  0  0
  183.0250  178.9800  144.6630 O   0  0  0  0  0  0  0  0  0  0  0  0
  186.5100  178.5430  144.3640 C   0  0  0  0  0  3  0  0  0  0  0  0
  184.5100  178.0390  143.0050 C   0  0  1  0  0  3  0  0  0  0  0  0
  1  4  1  0  0  0  0
  2  6  1  1  0  0  0
  2  5  1  0  0  0  0
  3  1  2  0  0  0  0
  4  2  1  0  0  0  0
  7  4  2  0  0  0  0
  7  8  1  0  0  0  0
  8 12  1  0  0  0  0
  9  7  1  0  0  0  0
 10  6  1  0  0  0  0
 10 26  1  0  0  0  0
 11  1  1  6  0  0  0
 11 10  1  0  0  0  0
 12  5  1  0  0  0  0
 12 24  1  1  0  0  0
 13  3  1  0  0  0  0
 13  9  2  0  0  0  0
 14 16  1  6  0  0  0
 14 21  1  0  0  0  0
 17 20  2  0  0  0  0
 18 20  1  1  0  0  0
 18 21  1  0  0  0  0
 18 11  1  0  0  0  0
 19 14  1  0  0  0  0
 21 22  1  1  0  0  0
 23 15  1  6  0  0  0
 23 19  1  0  0  0  0
 23 17  1  0  0  0  0
 24 25  1  0  0  0  0
 27 31  1  0  0  0  0
 29 30  2  0  0  0  0
 29 28  1  0  0  0  0
 31 28  2  0  0  0  0
 32 26  1  6  0  0  0
 32 27  1  0  0  0  0
 32 29  1  0  0  0  0
M  END
>  <MODEL>
2

>  <REMARK>
 VINA RESULT:      -6.0      2.664      6.056
  Name = 
  4 active torsions:
  status: ('A' for Active; 'I' for Inactive)
    1  A    between atoms: O_13  and  C_29
    2  A    between atoms: C_16  and  C_27
    3  A    between atoms: N_24  and  C_28
    4  A    between atoms: C_28  and  C_32
                            x       y       z     vdW  Elec       q    Type
                         _______ _______ _______ _____ _____    ______ ____

>  <TORSDO>
F 4

$$$$
=
 OpenBabel11052414363D

 32 36  0  0  1  0  0  0  0  0999 V2000
  182.7020  177.1990  139.4430 C   0  0  0  0  0  0  0  0  0  0  0  0
  180.3470  176.3670  139.8780 C   0  0  2  0  0  3  0  0  0  0  0  0
  183.8960  177.1190  138.7150 C   0  0  0  0  0  3  0  0  0  0  0  0
  181.6950  176.2420  139.2330 C   0  0  0  0  0  0  0  0  0  0  0  0
  179.2740  176.5500  138.8070 C   0  0  0  0  0  2  0  0  0  0  0  0
  180.2730  177.4540  140.9620 C   0  0  0  0  0  2  0  0  0  0  0  0
  181.8780  175.2380  138.2720 C   0  0  0  0  0  0  0  0  0  0  0  0
  180.5460  174.0810  137.9340 S   0  0  0  0  0  0  0  0  0  0  0  0
  183.0650  175.1740  137.5400 C   0  0  0  0  0  3  0  0  0  0  0  0
  181.0730  178.6540  140.6780 N   0  0  0  0  0  0  0  0  0  0  0  0
  182.4840  178.3460  140.3960 C   0  0  1  0  0  3  0  0  0  0  0  0
  179.2290  175.3740  137.8030 C   0  0  2  0  0  3  0  0  0  0  0  0
  184.0790  176.1070  137.7700 C   0  0  0  0  0  3  0  0  0  0  0  0
  185.6840  178.7750  142.6430 C   0  0  2  0  0  3  0  0  0  0  0  0
  184.5210  179.0260  145.7980 F   0  0  0  0  0  0  0  0  0  0  0  0
  186.5910  177.8970  142.0780 F   0  0  0  0  0  0  0  0  0  0  0  0
  182.9180  179.0490  144.0690 C   0  0  0  0  0  3  0  0  0  0  0  0
  183.3510  178.3560  141.6660 C   0  0  2  0  0  3  0  0  0  0  0  0
  185.1110  178.1670  143.7760 O   0  0  0  0  0  0  0  0  0  0  0  0
  182.4770  178.7320  142.8410 C   0  0  0  0  0  3  0  0  0  0  0  0
  184.6340  179.2100  141.5960 C   0  0  2  0  0  3  0  0  0  0  0  0
  185.2070  179.2150  140.3370 F   0  0  0  0  0  0  0  0  0  0  0  0
  184.3730  179.1590  144.4310 C   0  0  2  0  0  3  0  0  0  0  0  0
  178.9390  175.7620  136.4800 O   0  0  0  0  0  0  0  0  0  0  0  0
  179.0610  177.1560  136.3930 C   0  0  0  0  0  1  0  0  0  0  0  0
  180.4960  179.3810  139.5510 C   0  0  0  0  0  2  0  0  0  0  0  0
  181.4980  181.2580  138.2700 C   0  0  0  0  0  2  0  0  0  0  0  0
  179.4500  182.4700  138.5270 N   0  0  0  0  0  0  0  0  0  0  0  0
  179.6810  181.7040  139.6870 C   0  0  0  0  0  0  0  0  0  0  0  0
  178.9310  181.7660  140.6960 O   0  0  0  0  0  0  0  0  0  0  0  0
  180.4920  182.1770  137.5630 C   0  0  0  0  0  3  0  0  0  0  0  0
  180.8860  180.8510  139.6090 C   0  0  1  0  0  3  0  0  0  0  0  0
  2  5  1  6  0  0  0
  2  6  1  0  0  0  0
  3  1  2  0  0  0  0
  4  1  1  0  0  0  0
  4  2  1  0  0  0  0
  7  4  2  0  0  0  0
  8  7  1  0  0  0  0
  9 13  2  0  0  0  0
  9  7  1  0  0  0  0
 10  6  1  0  0  0  0
 11  1  1  1  0  0  0
 11 10  1  0  0  0  0
 11 18  1  0  0  0  0
 12 24  1  6  0  0  0
 12  8  1  0  0  0  0
 12  5  1  0  0  0  0
 13  3  1  0  0  0  0
 14 16  1  6  0  0  0
 14 19  1  0  0  0  0
 17 23  1  0  0  0  0
 18 20  1  1  0  0  0
 19 23  1  0  0  0  0
 20 17  2  0  0  0  0
 21 22  1  6  0  0  0
 21 18  1  0  0  0  0
 21 14  1  0  0  0  0
 23 15  1  1  0  0  0
 25 24  1  0  0  0  0
 26 10  1  0  0  0  0
 27 32  1  0  0  0  0
 28 29  1  0  0  0  0
 29 30  2  0  0  0  0
 31 27  1  0  0  0  0
 31 28  2  0  0  0  0
 32 26  1  6  0  0  0
 32 29  1  0  0  0  0
M  END
>  <MODEL>
3

>  <REMARK>
 VINA RESULT:      -6.0      2.523      4.168
  Name = 
  4 active torsions:
  status: ('A' for Active; 'I' for Inactive)
    1  A    between atoms: O_13  and  C_29
    2  A    between atoms: C_16  and  C_27
    3  A    between atoms: N_24  and  C_28
    4  A    between atoms: C_28  and  C_32
                            x       y       z     vdW  Elec       q    Type
                         _______ _______ _______ _____ _____    ______ ____

>  <TORSDO>
F 4

$$$$
=
 OpenBabel11052414363D

 32 36  0  0  1  0  0  0  0  0999 V2000
  182.6610  177.2570  139.7840 C   0  0  0  0  0  0  0  0  0  0  0  0
  183.9840  178.5890  138.0800 C   0  0  2  0  0  3  0  0  0  0  0  0
  181.9120  176.1190  140.1110 C   0  0  0  0  0  3  0  0  0  0  0  0
  183.0620  177.4670  138.4540 C   0  0  0  0  0  0  0  0  0  0  0  0
  185.2950  178.0250  137.5380 C   0  0  0  0  0  2  0  0  0  0  0  0
  184.2160  179.6080  139.2080 C   0  0  0  0  0  2  0  0  0  0  0  0
  182.7430  176.5190  137.4720 C   0  0  0  0  0  0  0  0  0  0  0  0
  183.3490  176.7400  135.7960 S   0  0  0  0  0  0  0  0  0  0  0  0
  182.0090  175.3790  137.8090 C   0  0  0  0  0  3  0  0  0  0  0  0
  184.2680  179.0230  140.5560 N   0  0  0  0  0  0  0  0  0  0  0  0
  183.0820  178.2110  140.8730 C   0  0  1  0  0  3  0  0  0  0  0  0
  185.0870  177.1280  136.2940 C   0  0  2  0  0  3  0  0  0  0  0  0
  181.5840  175.1850  139.1250 C   0  0  0  0  0  3  0  0  0  0  0  0
  179.8120  180.3800  141.1530 C   0  0  2  0  0  3  0  0  0  0  0  0
  178.9320  180.2350  144.4040 F   0  0  0  0  0  0  0  0  0  0  0  0
  180.0750  181.4610  140.3320 F   0  0  0  0  0  0  0  0  0  0  0  0
  180.6910  178.8240  143.7150 C   0  0  0  0  0  3  0  0  0  0  0  0
  181.9640  179.0380  141.5290 C   0  0  2  0  0  3  0  0  0  0  0  0
  180.0410  180.7600  142.4890 O   0  0  0  0  0  0  0  0  0  0  0  0
  181.7260  178.5010  142.9220 C   0  0  0  0  0  3  0  0  0  0  0  0
  180.6560  179.1600  140.7190 C   0  0  2  0  0  3  0  0  0  0  0  0
  180.8730  179.2060  139.3540 F   0  0  0  0  0  0  0  0  0  0  0  0
  179.5590  179.7170  143.2880 C   0  0  2  0  0  3  0  0  0  0  0  0
  185.9590  176.0230  136.2340 O   0  0  0  0  0  0  0  0  0  0  0  0
  187.1960  176.4080  136.7710 C   0  0  0  0  0  1  0  0  0  0  0  0
  185.4710  178.2090  140.6990 C   0  0  0  0  0  2  0  0  0  0  0  0
  186.0290  178.2520  143.1180 C   0  0  0  0  0  2  0  0  0  0  0  0
  188.2220  177.4560  142.5830 N   0  0  0  0  0  0  0  0  0  0  0  0
  187.7800  178.3150  141.5570 C   0  0  0  0  0  0  0  0  0  0  0  0
  188.5130  178.6380  140.5860 O   0  0  0  0  0  0  0  0  0  0  0  0
  187.1520  177.2970  143.5480 C   0  0  0  0  0  3  0  0  0  0  0  0
  186.3990  178.8090  141.7450 C   0  0  1  0  0  3  0  0  0  0  0  0
  1  3  1  0  0  0  0
  2  5  1  1  0  0  0
  2  4  1  0  0  0  0
  2  6  1  0  0  0  0
  4  1  2  0  0  0  0
  6 10  1  0  0  0  0
  7  9  2  0  0  0  0
  7  4  1  0  0  0  0
  8 12  1  0  0  0  0
  8  7  1  0  0  0  0
  9 13  1  0  0  0  0
 10 26  1  0  0  0  0
 10 11  1  0  0  0  0
 11  1  1  6  0  0  0
 11 18  1  0  0  0  0
 12 24  1  1  0  0  0
 12  5  1  0  0  0  0
 13  3  2  0  0  0  0
 14 16  1  6  0  0  0
 14 19  1  0  0  0  0
 18 20  1  1  0  0  0
 19 23  1  0  0  0  0
 20 17  2  0  0  0  0
 21 22  1  6  0  0  0
 21 14  1  0  0  0  0
 21 18  1  0  0  0  0
 23 17  1  0  0  0  0
 23 15  1  1  0  0  0
 24 25  1  0  0  0  0
 27 31  1  0  0  0  0
 28 31  2  0  0  0  0
 29 32  1  0  0  0  0
 29 28  1  0  0  0  0
 30 29  2  0  0  0  0
 32 26  1  6  0  0  0
 32 27  1  0  0  0  0
M  END
>  <MODEL>
4

>  <REMARK>
 VINA RESULT:      -5.8      3.112      4.428
  Name = 
  4 active torsions:
  status: ('A' for Active; 'I' for Inactive)
    1  A    between atoms: O_13  and  C_29
    2  A    between atoms: C_16  and  C_27
    3  A    between atoms: N_24  and  C_28
    4  A    between atoms: C_28  and  C_32
                            x       y       z     vdW  Elec       q    Type
                         _______ _______ _______ _____ _____    ______ ____

>  <TORSDO>
F 4

$$$$
=
 OpenBabel11052414363D

 32 36  0  0  1  0  0  0  0  0999 V2000
  183.9980  178.0010  139.4190 C   0  0  0  0  0  0  0  0  0  0  0  0
  181.9770  176.5250  139.0160 C   0  0  2  0  0  3  0  0  0  0  0  0
  185.2540  178.4680  139.0100 C   0  0  0  0  0  3  0  0  0  0  0  0
  183.3790  176.9600  138.7090 C   0  0  0  0  0  0  0  0  0  0  0  0
  181.0750  176.7960  137.8150 C   0  0  0  0  0  2  0  0  0  0  0  0
  181.4090  177.1240  140.3130 C   0  0  0  0  0  2  0  0  0  0  0  0
  184.0050  176.4200  137.5770 C   0  0  0  0  0  0  0  0  0  0  0  0
  183.1610  175.1610  136.6120 S   0  0  0  0  0  0  0  0  0  0  0  0
  185.2510  176.9010  137.1670 C   0  0  0  0  0  3  0  0  0  0  0  0
  181.8330  178.5050  140.5830 N   0  0  0  0  0  0  0  0  0  0  0  0
  183.2960  178.6650  140.5760 C   0  0  1  0  0  3  0  0  0  0  0  0
  181.5460  176.0590  136.5390 C   0  0  2  0  0  3  0  0  0  0  0  0
  185.8810  177.9160  137.8900 C   0  0  0  0  0  3  0  0  0  0  0  0
  186.0400  178.6090  143.3930 C   0  0  2  0  0  3  0  0  0  0  0  0
  184.3270  178.4740  146.2940 F   0  0  0  0  0  0  0  0  0  0  0  0
  187.0130  177.7730  142.8750 F   0  0  0  0  0  0  0  0  0  0  0  0
  183.0690  178.8230  144.3300 C   0  0  0  0  0  3  0  0  0  0  0  0
  183.9160  178.4520  141.9670 C   0  0  2  0  0  3  0  0  0  0  0  0
  185.2550  177.8780  144.3040 O   0  0  0  0  0  0  0  0  0  0  0  0
  182.8520  178.7040  143.0100 C   0  0  0  0  0  3  0  0  0  0  0  0
  185.2120  179.2400  142.2520 C   0  0  2  0  0  3  0  0  0  0  0  0
  186.0060  179.3910  141.1290 F   0  0  0  0  0  0  0  0  0  0  0  0
  184.4350  178.8050  144.9570 C   0  0  2  0  0  3  0  0  0  0  0  0
  181.3530  176.7920  135.3510 O   0  0  0  0  0  0  0  0  0  0  0  0
  181.3960  178.1580  135.6640 C   0  0  0  0  0  1  0  0  0  0  0  0
  181.2370  179.4090  139.6040 C   0  0  0  0  0  2  0  0  0  0  0  0
  179.5260  179.2450  141.3960 C   0  0  0  0  0  2  0  0  0  0  0  0
  179.3050  181.6280  141.3450 N   0  0  0  0  0  0  0  0  0  0  0  0
  179.5570  181.1600  140.0400 C   0  0  0  0  0  0  0  0  0  0  0  0
  179.5620  181.9240  139.0400 O   0  0  0  0  0  0  0  0  0  0  0  0
  179.3600  180.5030  142.2590 C   0  0  0  0  0  3  0  0  0  0  0  0
  179.7870  179.7020  139.9620 C   0  0  1  0  0  3  0  0  0  0  0  0
  2  5  1  6  0  0  0
  2  6  1  0  0  0  0
  3  1  1  0  0  0  0
  4  2  1  0  0  0  0
  4  1  2  0  0  0  0
  6 10  1  0  0  0  0
  7  4  1  0  0  0  0
  8  7  1  0  0  0  0
  9  7  2  0  0  0  0
  9 13  1  0  0  0  0
 11  1  1  6  0  0  0
 11 10  1  0  0  0  0
 11 18  1  0  0  0  0
 12 24  1  6  0  0  0
 12  8  1  0  0  0  0
 12  5  1  0  0  0  0
 13  3  2  0  0  0  0
 14 16  1  6  0  0  0
 14 19  1  0  0  0  0
 17 23  1  0  0  0  0
 18 21  1  0  0  0  0
 18 20  1  1  0  0  0
 19 23  1  0  0  0  0
 20 17  2  0  0  0  0
 21 22  1  6  0  0  0
 21 14  1  0  0  0  0
 23 15  1  1  0  0  0
 24 25  1  0  0  0  0
 26 10  1  0  0  0  0
 27 31  1  0  0  0  0
 28 31  2  0  0  0  0
 29 28  1  0  0  0  0
 30 29  2  0  0  0  0
 32 26  1  1  0  0  0
 32 29  1  0  0  0  0
 32 27  1  0  0  0  0
M  END
>  <MODEL>
5

>  <REMARK>
 VINA RESULT:      -5.7      2.276      4.486
  Name = 
  4 active torsions:
  status: ('A' for Active; 'I' for Inactive)
    1  A    between atoms: O_13  and  C_29
    2  A    between atoms: C_16  and  C_27
    3  A    between atoms: N_24  and  C_28
    4  A    between atoms: C_28  and  C_32
                            x       y       z     vdW  Elec       q    Type
                         _______ _______ _______ _____ _____    ______ ____

>  <TORSDO>
F 4

$$$$
=
 OpenBabel11052414363D

 32 36  0  0  1  0  0  0  0  0999 V2000
  183.2700  177.0340  139.0490 C   0  0  0  0  0  0  0  0  0  0  0  0
  185.2640  178.3920  138.2710 C   0  0  2  0  0  3  0  0  0  0  0  0
  182.4610  175.8960  138.9280 C   0  0  0  0  0  3  0  0  0  0  0  0
  184.2820  177.2710  138.1050 C   0  0  0  0  0  0  0  0  0  0  0  0
  186.6720  177.8270  138.4420 C   0  0  0  0  0  2  0  0  0  0  0  0
  184.8970  179.3810  139.3900 C   0  0  0  0  0  2  0  0  0  0  0  0
  184.4990  176.3500  137.0700 C   0  0  0  0  0  0  0  0  0  0  0  0
  185.8620  176.6050  135.9280 S   0  0  0  0  0  0  0  0  0  0  0  0
  183.6990  175.2100  136.9650 C   0  0  0  0  0  3  0  0  0  0  0  0
  184.2700  178.7640  140.5670 N   0  0  0  0  0  0  0  0  0  0  0  0
  183.0870  177.9570  140.2270 C   0  0  1  0  0  3  0  0  0  0  0  0
  187.1170  176.9630  137.2380 C   0  0  2  0  0  3  0  0  0  0  0  0
  182.6730  174.9890  137.8860 C   0  0  0  0  0  3  0  0  0  0  0  0
  179.9000  179.7170  141.7170 C   0  0  2  0  0  3  0  0  0  0  0  0
  178.9500  181.9510  139.3790 F   0  0  0  0  0  0  0  0  0  0  0  0
  179.2090  178.6760  142.3110 F   0  0  0  0  0  0  0  0  0  0  0  0
  181.0120  180.8620  139.0330 C   0  0  0  0  0  3  0  0  0  0  0  0
  181.7880  178.7790  140.2580 C   0  0  2  0  0  3  0  0  0  0  0  0
  179.3210  179.9870  140.4630 O   0  0  0  0  0  0  0  0  0  0  0  0
  181.8590  179.8290  139.1740 C   0  0  0  0  0  3  0  0  0  0  0  0
  181.4050  179.3780  141.6270 C   0  0  2  0  0  3  0  0  0  0  0  0
  181.7640  178.5660  142.6880 F   0  0  0  0  0  0  0  0  0  0  0  0
  179.9050  181.1720  140.0010 C   0  0  2  0  0  3  0  0  0  0  0  0
  187.9050  175.8510  137.5940 O   0  0  0  0  0  0  0  0  0  0  0  0
  189.1940  176.3060  137.9080 C   0  0  0  0  0  1  0  0  0  0  0  0
  185.2420  177.9330  141.2710 C   0  0  0  0  0  2  0  0  0  0  0  0
  184.9060  179.3660  143.2720 C   0  0  0  0  0  2  0  0  0  0  0  0
  186.1570  177.7840  144.5620 N   0  0  0  0  0  0  0  0  0  0  0  0
  186.6950  177.8470  143.2610 C   0  0  0  0  0  0  0  0  0  0  0  0
  187.7280  177.2090  142.9280 O   0  0  0  0  0  0  0  0  0  0  0  0
  184.9850  178.6350  144.6200 C   0  0  0  0  0  3  0  0  0  0  0  0
  185.9510  178.7410  142.3490 C   0  0  1  0  0  3  0  0  0  0  0  0
  2  5  1  1  0  0  0
  2  6  1  0  0  0  0
  3  1  1  0  0  0  0
  4  2  1  0  0  0  0
  4  1  2  0  0  0  0
  6 10  1  0  0  0  0
  7  4  1  0  0  0  0
  8  7  1  0  0  0  0
  8 12  1  0  0  0  0
  9  7  2  0  0  0  0
  9 13  1  0  0  0  0
 10 26  1  0  0  0  0
 11  1  1  6  0  0  0
 11 18  1  0  0  0  0
 11 10  1  0  0  0  0
 12 24  1  1  0  0  0
 12  5  1  0  0  0  0
 13  3  2  0  0  0  0
 14 16  1  6  0  0  0
 17 20  2  0  0  0  0
 17 23  1  0  0  0  0
 18 20  1  6  0  0  0
 18 21  1  0  0  0  0
 19 14  1  0  0  0  0
 21 14  1  0  0  0  0
 21 22  1  1  0  0  0
 23 15  1  6  0  0  0
 23 19  1  0  0  0  0
 24 25  1  0  0  0  0
 27 31  1  0  0  0  0
 28 31  2  0  0  0  0
 29 28  1  0  0  0  0
 30 29  2  0  0  0  0
 32 26  1  6  0  0  0
 32 29  1  0  0  0  0
 32 27  1  0  0  0  0
M  END
>  <MODEL>
6

>  <REMARK>
 VINA RESULT:      -5.7      3.096      5.542
  Name = 
  4 active torsions:
  status: ('A' for Active; 'I' for Inactive)
    1  A    between atoms: O_13  and  C_29
    2  A    between atoms: C_16  and  C_27
    3  A    between atoms: N_24  and  C_28
    4  A    between atoms: C_28  and  C_32
                            x       y       z     vdW  Elec       q    Type
                         _______ _______ _______ _____ _____    ______ ____

>  <TORSDO>
F 4

$$$$
=
 OpenBabel11052414363D

 32 36  0  0  1  0  0  0  0  0999 V2000
  187.0360  178.3290  142.1980 C   0  0  0  0  0  0  0  0  0  0  0  0
  187.6790  176.8000  144.1160 C   0  0  2  0  0  3  0  0  0  0  0  0
  186.1520  179.2610  141.6410 C   0  0  0  0  0  3  0  0  0  0  0  0
  186.7060  177.6940  143.4060 C   0  0  0  0  0  0  0  0  0  0  0  0
  188.0470  177.4040  145.4680 C   0  0  0  0  0  2  0  0  0  0  0  0
  188.9210  176.4460  143.2820 C   0  0  0  0  0  2  0  0  0  0  0  0
  185.5120  178.0240  144.0630 C   0  0  0  0  0  0  0  0  0  0  0  0
  185.1450  177.2860  145.6600 S   0  0  0  0  0  0  0  0  0  0  0  0
  184.6430  178.9670  143.5090 C   0  0  0  0  0  3  0  0  0  0  0  0
  189.4060  177.5330  142.4190 N   0  0  0  0  0  0  0  0  0  0  0  0
  188.3620  178.0640  141.5290 C   0  0  1  0  0  3  0  0  0  0  0  0
  186.8160  177.6090  146.3830 C   0  0  2  0  0  3  0  0  0  0  0  0
  184.9570  179.5760  142.2920 C   0  0  0  0  0  3  0  0  0  0  0  0
  187.2530  177.2400  137.8460 C   0  0  2  0  0  3  0  0  0  0  0  0
  189.6850  175.2590  136.6130 F   0  0  0  0  0  0  0  0  0  0  0  0
  185.8890  177.0380  137.9610 F   0  0  0  0  0  0  0  0  0  0  0  0
  190.0810  176.2440  138.7180 C   0  0  0  0  0  3  0  0  0  0  0  0
  188.3120  177.3300  140.1790 C   0  0  2  0  0  3  0  0  0  0  0  0
  187.8940  175.9880  137.8110 O   0  0  0  0  0  0  0  0  0  0  0  0
  189.6830  176.7620  139.8920 C   0  0  0  0  0  3  0  0  0  0  0  0
  187.7580  178.1460  138.9920 C   0  0  2  0  0  3  0  0  0  0  0  0
  186.7590  179.0260  139.3650 F   0  0  0  0  0  0  0  0  0  0  0  0
  189.2310  176.2350  137.4790 C   0  0  2  0  0  3  0  0  0  0  0  0
  186.8810  178.7710  147.1770 O   0  0  0  0  0  0  0  0  0  0  0  0
  187.7430  178.5220  148.2540 C   0  0  0  0  0  1  0  0  0  0  0  0
  189.9480  178.6140  143.2370 C   0  0  0  0  0  2  0  0  0  0  0  0
  191.3920  177.8290  145.0990 C   0  0  0  0  0  2  0  0  0  0  0  0
  192.0840  175.9910  143.7310 N   0  0  0  0  0  0  0  0  0  0  0  0
  191.8850  177.1240  142.9160 C   0  0  0  0  0  0  0  0  0  0  0  0
  192.1380  177.1190  141.6820 O   0  0  0  0  0  0  0  0  0  0  0  0
  191.7110  176.3280  145.0910 C   0  0  0  0  0  3  0  0  0  0  0  0
  191.3810  178.3050  143.6470 C   0  0  1  0  0  3  0  0  0  0  0  0
  1  4  1  0  0  0  0
  2  6  1  6  0  0  0
  2  5  1  0  0  0  0
  3  1  2  0  0  0  0
  3 13  1  0  0  0  0
  4  7  2  0  0  0  0
  4  2  1  0  0  0  0
  5 12  1  0  0  0  0
  7  8  1  0  0  0  0
  8 12  1  0  0  0  0
  9  7  1  0  0  0  0
 10 26  1  0  0  0  0
 10  6  1  0  0  0  0
 11  1  1  1  0  0  0
 11 10  1  0  0  0  0
 12 24  1  6  0  0  0
 13  9  2  0  0  0  0
 14 16  1  1  0  0  0
 14 21  1  0  0  0  0
 17 20  2  0  0  0  0
 18 20  1  6  0  0  0
 18 11  1  0  0  0  0
 19 14  1  0  0  0  0
 21 22  1  1  0  0  0
 21 18  1  0  0  0  0
 23 15  1  6  0  0  0
 23 19  1  0  0  0  0
 23 17  1  0  0  0  0
 24 25  1  0  0  0  0
 28 31  2  0  0  0  0
 29 32  1  0  0  0  0
 29 28  1  0  0  0  0
 30 29  2  0  0  0  0
 31 27  1  0  0  0  0
 32 26  1  6  0  0  0
 32 27  1  0  0  0  0
M  END
>  <MODEL>
7

>  <REMARK>
 VINA RESULT:      -5.0      4.982      8.480
  Name = 
  4 active torsions:
  status: ('A' for Active; 'I' for Inactive)
    1  A    between atoms: O_13  and  C_29
    2  A    between atoms: C_16  and  C_27
    3  A    between atoms: N_24  and  C_28
    4  A    between atoms: C_28  and  C_32
                            x       y       z     vdW  Elec       q    Type
                         _______ _______ _______ _____ _____    ______ ____

>  <TORSDO>
F 4

$$$$
=
 OpenBabel11052414363D

 32 36  0  0  1  0  0  0  0  0999 V2000
  190.8830  176.1820  137.7920 C   0  0  0  0  0  0  0  0  0  0  0  0
  189.6500  176.7250  135.6440 C   0  0  2  0  0  3  0  0  0  0  0  0
  191.0770  176.3990  139.1610 C   0  0  0  0  0  3  0  0  0  0  0  0
  190.0020  177.0070  137.0750 C   0  0  0  0  0  0  0  0  0  0  0  0
  188.1620  176.4040  135.5290 C   0  0  0  0  0  2  0  0  0  0  0  0
  190.5280  175.6470  134.9880 C   0  0  0  0  0  2  0  0  0  0  0  0
  189.2950  178.0180  137.7410 C   0  0  0  0  0  0  0  0  0  0  0  0
  188.0910  179.0010  136.8410 S   0  0  0  0  0  0  0  0  0  0  0  0
  189.4820  178.2190  139.1110 C   0  0  0  0  0  3  0  0  0  0  0  0
  190.9190  174.5500  135.8850 N   0  0  0  0  0  0  0  0  0  0  0  0
  191.5730  175.0240  137.1150 C   0  0  1  0  0  3  0  0  0  0  0  0
  187.2630  177.5570  136.0340 C   0  0  2  0  0  3  0  0  0  0  0  0
  190.3820  177.4180  139.8190 C   0  0  0  0  0  3  0  0  0  0  0  0
  195.3120  173.8490  136.7790 C   0  0  2  0  0  3  0  0  0  0  0  0
  196.9670  176.5120  135.5410 F   0  0  0  0  0  0  0  0  0  0  0  0
  195.5180  173.1070  137.9280 F   0  0  0  0  0  0  0  0  0  0  0  0
  194.6170  176.6690  135.6310 C   0  0  0  0  0  3  0  0  0  0  0  0
  193.0990  175.1310  136.9630 C   0  0  2  0  0  3  0  0  0  0  0  0
  195.8530  175.1350  136.9670 O   0  0  0  0  0  0  0  0  0  0  0  0
  193.4150  176.3640  136.1480 C   0  0  0  0  0  3  0  0  0  0  0  0
  193.8100  173.8740  136.4190 C   0  0  2  0  0  3  0  0  0  0  0  0
  193.2120  172.6980  136.8350 F   0  0  0  0  0  0  0  0  0  0  0  0
  195.8170  175.7690  135.7210 C   0  0  2  0  0  3  0  0  0  0  0  0
  186.0960  177.1250  136.6950 O   0  0  0  0  0  0  0  0  0  0  0  0
  186.2380  175.7630  136.9950 C   0  0  0  0  0  1  0  0  0  0  0  0
  189.7480  173.7490  136.2310 C   0  0  0  0  0  2  0  0  0  0  0  0
  190.2710  171.9300  134.6230 C   0  0  0  0  0  2  0  0  0  0  0  0
  188.2900  170.7900  135.3350 N   0  0  0  0  0  0  0  0  0  0  0  0
  188.0570  172.1790  135.3620 C   0  0  0  0  0  0  0  0  0  0  0  0
  186.9310  172.6690  135.6420 O   0  0  0  0  0  0  0  0  0  0  0  0
  189.6740  170.5590  134.9710 C   0  0  0  0  0  3  0  0  0  0  0  0
  189.2430  172.9900  135.0120 C   0  0  1  0  0  3  0  0  0  0  0  0
  1  3  1  0  0  0  0
  2  6  1  1  0  0  0
  2  4  1  0  0  0  0
  3 13  2  0  0  0  0
  4  7  1  0  0  0  0
  4  1  2  0  0  0  0
  5  2  1  0  0  0  0
  5 12  1  0  0  0  0
  6 10  1  0  0  0  0
  7  9  2  0  0  0  0
  8  7  1  0  0  0  0
  9 13  1  0  0  0  0
 10 26  1  0  0  0  0
 10 11  1  0  0  0  0
 11  1  1  6  0  0  0
 12 24  1  1  0  0  0
 12  8  1  0  0  0  0
 14 19  1  0  0  0  0
 14 16  1  1  0  0  0
 17 23  1  0  0  0  0
 17 20  2  0  0  0  0
 18 20  1  6  0  0  0
 18 11  1  0  0  0  0
 21 14  1  0  0  0  0
 21 22  1  1  0  0  0
 21 18  1  0  0  0  0
 23 15  1  1  0  0  0
 23 19  1  0  0  0  0
 24 25  1  0  0  0  0
 27 31  1  0  0  0  0
 27 32  1  0  0  0  0
 28 29  1  0  0  0  0
 29 30  2  0  0  0  0
 31 28  2  0  0  0  0
 32 29  1  0  0  0  0
 32 26  1  1  0  0  0
M  END
>  <MODEL>
8

>  <REMARK>
 VINA RESULT:      -4.9      6.699      9.942
  Name = 
  4 active torsions:
  status: ('A' for Active; 'I' for Inactive)
    1  A    between atoms: O_13  and  C_29
    2  A    between atoms: C_16  and  C_27
    3  A    between atoms: N_24  and  C_28
    4  A    between atoms: C_28  and  C_32
                            x       y       z     vdW  Elec       q    Type
                         _______ _______ _______ _____ _____    ______ ____

>  <TORSDO>
F 4

$$$$
=
 OpenBabel11052414363D

 32 36  0  0  1  0  0  0  0  0999 V2000
  191.1360  177.0240  139.4910 C   0  0  0  0  0  0  0  0  0  0  0  0
  189.9810  175.6340  137.7130 C   0  0  2  0  0  3  0  0  0  0  0  0
  192.3160  177.4970  140.0770 C   0  0  0  0  0  3  0  0  0  0  0  0
  191.2030  176.0630  138.4690 C   0  0  0  0  0  0  0  0  0  0  0  0
  190.1140  176.0310  136.2440 C   0  0  0  0  0  2  0  0  0  0  0  0
  188.6620  176.1270  138.3290 C   0  0  0  0  0  2  0  0  0  0  0  0
  192.4520  175.6130  138.0170 C   0  0  0  0  0  0  0  0  0  0  0  0
  192.5350  174.4640  136.6390 S   0  0  0  0  0  0  0  0  0  0  0  0
  193.6260  176.1010  138.5960 C   0  0  0  0  0  3  0  0  0  0  0  0
  188.7320  177.4690  138.9250 N   0  0  0  0  0  0  0  0  0  0  0  0
  189.8080  177.5970  139.9200 C   0  0  1  0  0  3  0  0  0  0  0  0
  191.3540  175.4010  135.5670 C   0  0  2  0  0  3  0  0  0  0  0  0
  193.5580  177.0330  139.6340 C   0  0  0  0  0  3  0  0  0  0  0  0
  189.9870  177.0890  143.8160 C   0  0  2  0  0  3  0  0  0  0  0  0
  186.7770  177.0100  144.8450 F   0  0  0  0  0  0  0  0  0  0  0  0
  191.0120  176.1740  143.9720 F   0  0  0  0  0  0  0  0  0  0  0  0
  187.1580  177.5960  142.5930 C   0  0  0  0  0  3  0  0  0  0  0  0
  189.3380  177.2460  141.3410 C   0  0  2  0  0  3  0  0  0  0  0  0
  188.7570  176.4100  143.9000 O   0  0  0  0  0  0  0  0  0  0  0  0
  187.8650  177.5670  141.4520 C   0  0  0  0  0  3  0  0  0  0  0  0
  190.1590  177.8660  142.4920 C   0  0  2  0  0  3  0  0  0  0  0  0
  191.5040  177.9800  142.1900 F   0  0  0  0  0  0  0  0  0  0  0  0
  187.7620  177.3920  143.9550 C   0  0  2  0  0  3  0  0  0  0  0  0
  191.9800  176.2410  134.6250 O   0  0  0  0  0  0  0  0  0  0  0  0
  193.3460  175.9280  134.5940 C   0  0  0  0  0  1  0  0  0  0  0  0
  188.9120  178.4700  137.8770 C   0  0  0  0  0  2  0  0  0  0  0  0
  187.3600  178.2920  135.9470 C   0  0  0  0  0  2  0  0  0  0  0  0
  185.7130  177.3580  137.4120 N   0  0  0  0  0  0  0  0  0  0  0  0
  186.4630  178.3220  138.1150 C   0  0  0  0  0  0  0  0  0  0  0  0
  186.1930  178.6530  139.3000 O   0  0  0  0  0  0  0  0  0  0  0  0
  186.2710  177.2190  136.0810 C   0  0  0  0  0  3  0  0  0  0  0  0
  187.5640  178.9140  137.3270 C   0  0  1  0  0  3  0  0  0  0  0  0
  1  3  1  0  0  0  0
  2  5  1  6  0  0  0
  2  6  1  0  0  0  0
  2  4  1  0  0  0  0
  4  1  2  0  0  0  0
  6 10  1  0  0  0  0
  7  4  1  0  0  0  0
  7  9  2  0  0  0  0
  8  7  1  0  0  0  0
  9 13  1  0  0  0  0
 10 11  1  0  0  0  0
 11  1  1  6  0  0  0
 11 18  1  0  0  0  0
 12 24  1  1  0  0  0
 12  5  1  0  0  0  0
 12  8  1  0  0  0  0
 13  3  2  0  0  0  0
 14 19  1  0  0  0  0
 14 16  1  6  0  0  0
 17 23  1  0  0  0  0
 18 20  1  6  0  0  0
 18 21  1  0  0  0  0
 19 23  1  0  0  0  0
 20 17  2  0  0  0  0
 21 22  1  6  0  0  0
 21 14  1  0  0  0  0
 23 15  1  1  0  0  0
 25 24  1  0  0  0  0
 26 10  1  0  0  0  0
 27 31  1  0  0  0  0
 27 32  1  0  0  0  0
 28 29  1  0  0  0  0
 29 30  2  0  0  0  0
 31 28  2  0  0  0  0
 32 26  1  1  0  0  0
 32 29  1  0  0  0  0
M  END
>  <MODEL>
9

>  <REMARK>
 VINA RESULT:      -4.9      4.984      7.871
  Name = 
  4 active torsions:
  status: ('A' for Active; 'I' for Inactive)
    1  A    between atoms: O_13  and  C_29
    2  A    between atoms: C_16  and  C_27
    3  A    between atoms: N_24  and  C_28
    4  A    between atoms: C_28  and  C_32
                            x       y       z     vdW  Elec       q    Type
                         _______ _______ _______ _____ _____    ______ ____

>  <TORSDO>
F 4

$$$$
