=
 OpenBabel11052414173D

 34 40  0  0  1  0  0  0  0  0999 V2000
  189.0820  177.1330  146.3850 C   0  0  0  0  0  0  0  0  0  0  0  0
  190.8680  177.2460  144.7480 C   0  0  0  0  0  0  0  0  0  0  0  0
  188.5770  177.5710  144.0670 C   0  0  0  0  0  0  0  0  0  0  0  0
  188.2270  178.0060  141.7920 C   0  0  0  0  0  0  0  0  0  0  0  0
  191.3410  176.8180  147.0280 C   0  0  0  0  0  3  0  0  0  0  0  0
  191.7620  176.9980  145.7400 N   0  0  0  0  0  0  0  0  0  0  0  0
  190.3000  177.6790  142.4740 N   0  0  0  0  0  0  0  0  0  0  0  0
  189.5030  177.3150  145.0670 C   0  0  0  0  0  0  0  0  0  0  0  0
  189.0070  178.1680  140.5310 C   0  0  0  0  0  2  0  0  0  0  0  0
  190.0140  176.8850  147.3440 N   0  0  0  0  0  0  0  0  0  0  0  0
  187.2050  177.6620  144.3330 C   0  0  0  0  0  0  0  0  0  0  0  0
  187.7110  177.2140  146.6850 C   0  0  0  0  0  3  0  0  0  0  0  0
  191.2690  177.4390  143.4090 C   0  0  0  0  0  3  0  0  0  0  0  0
  186.8820  178.1120  141.9750 N   0  0  0  0  0  0  0  0  0  0  0  0
  186.3450  177.9430  143.2290 C   0  0  0  0  0  0  0  0  0  0  0  0
  190.4650  177.9250  141.0410 C   0  0  2  0  0  3  0  0  0  0  0  0
  189.0280  177.7410  142.8110 N   0  0  0  0  0  0  0  0  0  0  0  0
  186.7740  177.4790  145.6620 C   0  0  0  0  0  3  0  0  0  0  0  0
  182.7240  178.6700  142.2630 C   0  0  0  0  0  0  0  0  0  0  0  0
  182.2670  179.5050  143.4200 C   0  0  0  0  0  2  0  0  0  0  0  0
  184.8570  178.0650  143.3780 C   0  0  2  0  0  3  0  0  0  0  0  0
  182.9660  179.0460  144.6990 C   0  0  0  0  0  2  0  0  0  0  0  0
  184.1910  178.4480  142.0540 C   0  0  0  0  0  2  0  0  0  0  0  0
  184.4820  179.0270  144.5100 C   0  0  0  0  0  2  0  0  0  0  0  0
  181.9140  178.2250  141.4670 O   0  0  0  0  0  0  0  0  0  0  0  0
  191.0520  176.6950  140.3670 C   0  0  0  0  0  2  0  0  0  0  0  0
  190.3040  176.3960  139.0790 C   0  0  0  0  0  2  0  0  0  0  0  0
  190.4180  173.9720  137.0720 C   0  0  0  0  0  1  0  0  0  0  0  0
  191.2410  176.0760  138.0120 N   0  0  0  0  0  0  0  0  0  0  0  0
  190.7370  175.4300  136.7920 C   0  0  1  0  0  3  0  0  0  0  0  0
  192.9830  175.8990  135.8280 C   0  0  0  0  0  3  0  0  0  0  0  0
  193.4700  176.3210  137.1480 C   0  0  0  0  0  3  0  0  0  0  0  0
  192.6280  176.4100  138.1750 C   0  0  0  0  0  3  0  0  0  0  0  0
  191.7190  175.5110  135.6520 C   0  0  0  0  0  3  0  0  0  0  0  0
  1 12  1  0  0  0  0
  1 10  2  0  0  0  0
  2  8  1  0  0  0  0
  2  6  1  0  0  0  0
  3 11  1  0  0  0  0
  3  8  2  0  0  0  0
  4 14  2  0  0  0  0
  4 17  1  0  0  0  0
  5 10  1  0  0  0  0
  6  5  2  0  0  0  0
  7 17  1  0  0  0  0
  7 13  1  0  0  0  0
  8  1  1  0  0  0  0
  9 16  1  0  0  0  0
  9  4  1  0  0  0  0
 11 18  1  0  0  0  0
 13  2  2  0  0  0  0
 14 15  1  0  0  0  0
 15 11  2  0  0  0  0
 16 26  1  6  0  0  0
 16  7  1  0  0  0  0
 17  3  1  0  0  0  0
 18 12  2  0  0  0  0
 19 20  1  0  0  0  0
 20 22  1  0  0  0  0
 21 15  1  6  0  0  0
 21 24  1  0  0  0  0
 23 19  1  0  0  0  0
 23 21  1  0  0  0  0
 24 22  1  0  0  0  0
 25 19  2  0  0  0  0
 27 26  1  0  0  0  0
 29 33  1  0  0  0  0
 29 27  1  0  0  0  0
 30 28  1  1  0  0  0
 30 29  1  0  0  0  0
 31 32  1  0  0  0  0
 32 33  2  0  0  0  0
 34 31  2  0  0  0  0
 34 30  1  0  0  0  0
M  END
>  <MODEL>
1

>  <REMARK>
 VINA RESULT:     -10.6      0.000      0.000
  Name = 
  4 active torsions:
  status: ('A' for Active; 'I' for Inactive)
    1  A    between atoms: C_3  and  N_13
    2  A    between atoms: C_3  and  C_17
    3  A    between atoms: C_12  and  C_28
    4  A    between atoms: C_17  and  C_29
                            x       y       z     vdW  Elec       q    Type
                         _______ _______ _______ _____ _____    ______ ____

>  <TORSDO>
F 4

$$$$
=
 OpenBabel11052414173D

 34 40  0  0  1  0  0  0  0  0999 V2000
  186.8270  178.1510  138.3250 C   0  0  0  0  0  0  0  0  0  0  0  0
  186.9190  178.6160  140.7030 C   0  0  0  0  0  0  0  0  0  0  0  0
  188.8180  177.6370  139.5860 C   0  0  0  0  0  0  0  0  0  0  0  0
  190.6940  177.2050  140.9210 C   0  0  0  0  0  0  0  0  0  0  0  0
  184.9750  179.1130  139.4470 C   0  0  0  0  0  3  0  0  0  0  0  0
  185.6510  179.0990  140.6340 N   0  0  0  0  0  0  0  0  0  0  0  0
  188.9150  178.0810  141.8900 N   0  0  0  0  0  0  0  0  0  0  0  0
  187.5240  178.1300  139.5340 C   0  0  0  0  0  0  0  0  0  0  0  0
  191.1410  177.3500  142.3370 C   0  0  0  0  0  2  0  0  0  0  0  0
  185.5600  178.6420  138.3050 N   0  0  0  0  0  0  0  0  0  0  0  0
  189.4740  177.1530  138.4470 C   0  0  0  0  0  0  0  0  0  0  0  0
  187.4540  177.6670  137.1630 C   0  0  0  0  0  3  0  0  0  0  0  0
  187.6460  178.5910  141.9120 C   0  0  0  0  0  3  0  0  0  0  0  0
  191.3940  176.7220  139.8580 N   0  0  0  0  0  0  0  0  0  0  0  0
  190.8110  176.6820  138.6140 C   0  0  0  0  0  0  0  0  0  0  0  0
  189.8640  177.9640  142.9980 C   0  0  2  0  0  3  0  0  0  0  0  0
  189.4530  177.6390  140.7720 N   0  0  0  0  0  0  0  0  0  0  0  0
  188.7750  177.1700  137.2230 C   0  0  0  0  0  3  0  0  0  0  0  0
  192.3580  174.0940  136.2720 C   0  0  0  0  0  0  0  0  0  0  0  0
  193.7880  174.5350  136.2430 C   0  0  0  0  0  2  0  0  0  0  0  0
  191.6210  176.1360  137.4760 C   0  0  2  0  0  3  0  0  0  0  0  0
  193.8650  176.0560  136.3630 C   0  0  0  0  0  2  0  0  0  0  0  0
  191.4510  174.6200  137.3430 C   0  0  0  0  0  2  0  0  0  0  0  0
  193.0940  176.5410  137.5890 C   0  0  0  0  0  2  0  0  0  0  0  0
  191.9500  173.2720  135.4700 O   0  0  0  0  0  0  0  0  0  0  0  0
  189.3170  177.0140  144.0510 C   0  0  0  0  0  2  0  0  0  0  0  0
  189.3400  177.6780  145.4180 C   0  0  0  0  0  2  0  0  0  0  0  0
  188.1540  177.2360  148.3020 C   0  0  0  0  0  1  0  0  0  0  0  0
  187.9860  177.8220  145.9320 N   0  0  0  0  0  0  0  0  0  0  0  0
  187.7940  178.3200  147.3020 C   0  0  1  0  0  3  0  0  0  0  0  0
  185.3850  178.5100  146.7070 C   0  0  0  0  0  3  0  0  0  0  0  0
  185.6330  177.7990  145.4460 C   0  0  0  0  0  3  0  0  0  0  0  0
  186.8750  177.4880  145.0850 C   0  0  0  0  0  3  0  0  0  0  0  0
  186.3800  178.7760  147.5550 C   0  0  0  0  0  3  0  0  0  0  0  0
  1  8  1  0  0  0  0
  2 13  2  0  0  0  0
  3 17  1  0  0  0  0
  4  9  1  0  0  0  0
  5  6  2  0  0  0  0
  6  2  1  0  0  0  0
  7 13  1  0  0  0  0
  7 16  1  0  0  0  0
  8  3  2  0  0  0  0
  8  2  1  0  0  0  0
  9 16  1  0  0  0  0
 10  1  2  0  0  0  0
 10  5  1  0  0  0  0
 11 15  2  0  0  0  0
 11  3  1  0  0  0  0
 12 18  2  0  0  0  0
 12  1  1  0  0  0  0
 14  4  2  0  0  0  0
 15 14  1  0  0  0  0
 16 26  1  1  0  0  0
 17  4  1  0  0  0  0
 17  7  1  0  0  0  0
 18 11  1  0  0  0  0
 19 23  1  0  0  0  0
 20 19  1  0  0  0  0
 20 22  1  0  0  0  0
 21 24  1  0  0  0  0
 21 15  1  1  0  0  0
 22 24  1  0  0  0  0
 23 21  1  0  0  0  0
 25 19  2  0  0  0  0
 26 27  1  0  0  0  0
 27 29  1  0  0  0  0
 29 30  1  0  0  0  0
 30 34  1  0  0  0  0
 30 28  1  1  0  0  0
 31 34  2  0  0  0  0
 32 31  1  0  0  0  0
 33 32  2  0  0  0  0
 33 29  1  0  0  0  0
M  END
>  <MODEL>
2

>  <REMARK>
 VINA RESULT:     -10.1      2.889      9.007
  Name = 
  4 active torsions:
  status: ('A' for Active; 'I' for Inactive)
    1  A    between atoms: C_3  and  N_13
    2  A    between atoms: C_3  and  C_17
    3  A    between atoms: C_12  and  C_28
    4  A    between atoms: C_17  and  C_29
                            x       y       z     vdW  Elec       q    Type
                         _______ _______ _______ _____ _____    ______ ____

>  <TORSDO>
F 4

$$$$
=
 OpenBabel11052414173D

 34 40  0  0  1  0  0  0  0  0999 V2000
  184.2620  178.6380  145.2630 C   0  0  0  0  0  0  0  0  0  0  0  0
  186.6540  178.2690  145.1140 C   0  0  0  0  0  0  0  0  0  0  0  0
  185.3440  178.5510  143.1080 C   0  0  0  0  0  0  0  0  0  0  0  0
  186.5190  178.4620  141.0840 C   0  0  0  0  0  0  0  0  0  0  0  0
  185.5730  178.3590  147.2170 C   0  0  0  0  0  3  0  0  0  0  0  0
  186.7070  178.2100  146.4700 N   0  0  0  0  0  0  0  0  0  0  0  0
  187.6590  178.1910  142.9540 N   0  0  0  0  0  0  0  0  0  0  0  0
  185.4140  178.4850  144.4910 C   0  0  0  0  0  0  0  0  0  0  0  0
  187.9130  178.2830  140.5840 C   0  0  0  0  0  2  0  0  0  0  0  0
  184.3640  178.5700  146.6160 N   0  0  0  0  0  0  0  0  0  0  0  0
  184.1350  178.7760  142.4380 C   0  0  0  0  0  0  0  0  0  0  0  0
  183.0310  178.8610  144.6200 C   0  0  0  0  0  3  0  0  0  0  0  0
  187.8060  178.1230  144.3120 C   0  0  0  0  0  3  0  0  0  0  0  0
  185.3840  178.6820  140.3650 N   0  0  0  0  0  0  0  0  0  0  0  0
  184.1810  178.8390  141.0130 C   0  0  0  0  0  0  0  0  0  0  0  0
  188.6940  178.0870  141.9240 C   0  0  2  0  0  3  0  0  0  0  0  0
  186.4800  178.3990  142.4050 N   0  0  0  0  0  0  0  0  0  0  0  0
  182.9670  178.9310  143.2120 C   0  0  0  0  0  3  0  0  0  0  0  0
  181.1180  178.0160  138.8890 C   0  0  0  0  0  0  0  0  0  0  0  0
  181.3160  178.9240  137.7140 C   0  0  0  0  0  2  0  0  0  0  0  0
  182.9580  179.0720  140.1760 C   0  0  2  0  0  3  0  0  0  0  0  0
  181.9940  180.2160  138.1650 C   0  0  0  0  0  2  0  0  0  0  0  0
  182.2670  177.7550  139.8140 C   0  0  0  0  0  2  0  0  0  0  0  0
  183.2770  179.9130  138.9360 C   0  0  0  0  0  2  0  0  0  0  0  0
  180.0510  177.4500  139.0570 O   0  0  0  0  0  0  0  0  0  0  0  0
  189.3250  176.7040  141.9590 C   0  0  0  0  0  2  0  0  0  0  0  0
  190.8360  176.8190  142.0670 C   0  0  0  0  0  2  0  0  0  0  0  0
  192.0620  178.8920  144.0960 C   0  0  0  0  0  1  0  0  0  0  0  0
  191.2570  176.6720  143.4520 N   0  0  0  0  0  0  0  0  0  0  0  0
  191.0530  177.7940  144.3800 C   0  0  1  0  0  3  0  0  0  0  0  0
  191.6590  176.1840  146.1790 C   0  0  0  0  0  3  0  0  0  0  0  0
  192.0540  175.1930  145.1690 C   0  0  0  0  0  3  0  0  0  0  0  0
  191.8480  175.4350  143.8770 C   0  0  0  0  0  3  0  0  0  0  0  0
  191.1730  177.3740  145.8230 C   0  0  0  0  0  3  0  0  0  0  0  0
  1 10  2  0  0  0  0
  2  6  1  0  0  0  0
  3  8  2  0  0  0  0
  4 17  1  0  0  0  0
  6  5  2  0  0  0  0
  7 13  1  0  0  0  0
  8  2  1  0  0  0  0
  8  1  1  0  0  0  0
  9  4  1  0  0  0  0
  9 16  1  0  0  0  0
 10  5  1  0  0  0  0
 11  3  1  0  0  0  0
 11 18  1  0  0  0  0
 12  1  1  0  0  0  0
 13  2  2  0  0  0  0
 14 15  1  0  0  0  0
 14  4  2  0  0  0  0
 15 11  2  0  0  0  0
 16 26  1  6  0  0  0
 16  7  1  0  0  0  0
 17  7  1  0  0  0  0
 17  3  1  0  0  0  0
 18 12  2  0  0  0  0
 19 25  2  0  0  0  0
 19 23  1  0  0  0  0
 20 22  1  0  0  0  0
 20 19  1  0  0  0  0
 21 15  1  6  0  0  0
 22 24  1  0  0  0  0
 23 21  1  0  0  0  0
 24 21  1  0  0  0  0
 26 27  1  0  0  0  0
 27 29  1  0  0  0  0
 29 33  1  0  0  0  0
 29 30  1  0  0  0  0
 30 28  1  6  0  0  0
 30 34  1  0  0  0  0
 32 31  1  0  0  0  0
 33 32  2  0  0  0  0
 34 31  2  0  0  0  0
M  END
>  <MODEL>
3

>  <REMARK>
 VINA RESULT:     -10.0      2.987      5.301
  Name = 
  4 active torsions:
  status: ('A' for Active; 'I' for Inactive)
    1  A    between atoms: C_3  and  N_13
    2  A    between atoms: C_3  and  C_17
    3  A    between atoms: C_12  and  C_28
    4  A    between atoms: C_17  and  C_29
                            x       y       z     vdW  Elec       q    Type
                         _______ _______ _______ _____ _____    ______ ____

>  <TORSDO>
F 4

$$$$
=
 OpenBabel11052414173D

 34 40  0  0  1  0  0  0  0  0999 V2000
  186.5770  177.8980  144.9990 C   0  0  0  0  0  0  0  0  0  0  0  0
  188.8280  177.6230  144.1420 C   0  0  0  0  0  0  0  0  0  0  0  0
  187.0120  178.1300  142.6380 C   0  0  0  0  0  0  0  0  0  0  0  0
  187.5730  178.3460  140.3740 C   0  0  0  0  0  0  0  0  0  0  0  0
  188.3790  177.4010  146.4550 C   0  0  0  0  0  3  0  0  0  0  0  0
  189.2580  177.3860  145.4090 N   0  0  0  0  0  0  0  0  0  0  0  0
  189.1880  177.8620  141.7970 N   0  0  0  0  0  0  0  0  0  0  0  0
  187.4660  177.8830  143.9240 C   0  0  0  0  0  0  0  0  0  0  0  0
  188.7700  178.2760  139.4870 C   0  0  0  0  0  2  0  0  0  0  0  0
  187.0530  177.6540  146.2490 N   0  0  0  0  0  0  0  0  0  0  0  0
  185.6660  178.4070  142.3670 C   0  0  0  0  0  0  0  0  0  0  0  0
  185.2180  178.1680  144.7610 C   0  0  0  0  0  3  0  0  0  0  0  0
  189.7090  177.6190  143.0390 C   0  0  0  0  0  3  0  0  0  0  0  0
  186.2840  178.6250  140.0360 N   0  0  0  0  0  0  0  0  0  0  0  0
  185.3120  178.6600  141.0080 C   0  0  0  0  0  0  0  0  0  0  0  0
  189.8930  177.9260  140.5170 C   0  0  2  0  0  3  0  0  0  0  0  0
  187.9050  178.1070  141.6320 N   0  0  0  0  0  0  0  0  0  0  0  0
  184.7630  178.4230  143.4490 C   0  0  0  0  0  3  0  0  0  0  0  0
  181.6680  178.0300  140.0620 C   0  0  0  0  0  0  0  0  0  0  0  0
  181.5440  178.8280  138.8010 C   0  0  0  0  0  2  0  0  0  0  0  0
  183.9060  178.9660  140.5840 C   0  0  2  0  0  3  0  0  0  0  0  0
  182.4340  180.0670  138.8810 C   0  0  0  0  0  2  0  0  0  0  0  0
  183.0310  177.7100  140.5950 C   0  0  0  0  0  2  0  0  0  0  0  0
  183.8700  179.6800  139.2290 C   0  0  0  0  0  2  0  0  0  0  0  0
  180.6730  177.5960  140.6160 O   0  0  0  0  0  0  0  0  0  0  0  0
  190.4960  176.5710  140.1860 C   0  0  0  0  0  2  0  0  0  0  0  0
  191.5350  176.7120  139.0870 C   0  0  0  0  0  2  0  0  0  0  0  0
  193.3180  175.8320  136.6450 C   0  0  0  0  0  1  0  0  0  0  0  0
  191.3240  175.7050  138.0580 N   0  0  0  0  0  0  0  0  0  0  0  0
  192.4800  174.9500  137.5530 C   0  0  1  0  0  3  0  0  0  0  0  0
  190.8100  173.4870  136.4300 C   0  0  0  0  0  3  0  0  0  0  0  0
  189.7370  174.4220  136.7900 C   0  0  0  0  0  3  0  0  0  0  0  0
  189.9930  175.4670  137.5740 C   0  0  0  0  0  3  0  0  0  0  0  0
  192.0720  173.7110  136.8000 C   0  0  0  0  0  3  0  0  0  0  0  0
  1 10  2  0  0  0  0
  2  6  1  0  0  0  0
  3  8  2  0  0  0  0
  4 17  1  0  0  0  0
  6  5  2  0  0  0  0
  7 13  1  0  0  0  0
  8  2  1  0  0  0  0
  8  1  1  0  0  0  0
  9  4  1  0  0  0  0
  9 16  1  0  0  0  0
 10  5  1  0  0  0  0
 11  3  1  0  0  0  0
 11 18  1  0  0  0  0
 12  1  1  0  0  0  0
 13  2  2  0  0  0  0
 14  4  2  0  0  0  0
 14 15  1  0  0  0  0
 15 11  2  0  0  0  0
 16 26  1  6  0  0  0
 16  7  1  0  0  0  0
 17  7  1  0  0  0  0
 17  3  1  0  0  0  0
 18 12  2  0  0  0  0
 19 23  1  0  0  0  0
 19 25  2  0  0  0  0
 20 22  1  0  0  0  0
 20 19  1  0  0  0  0
 21 23  1  0  0  0  0
 21 15  1  6  0  0  0
 22 24  1  0  0  0  0
 24 21  1  0  0  0  0
 27 26  1  0  0  0  0
 29 27  1  0  0  0  0
 30 28  1  6  0  0  0
 30 29  1  0  0  0  0
 31 32  1  0  0  0  0
 31 34  2  0  0  0  0
 32 33  2  0  0  0  0
 33 29  1  0  0  0  0
 34 30  1  0  0  0  0
M  END
>  <MODEL>
4

>  <REMARK>
 VINA RESULT:      -9.6      1.700      2.810
  Name = 
  4 active torsions:
  status: ('A' for Active; 'I' for Inactive)
    1  A    between atoms: C_3  and  N_13
    2  A    between atoms: C_3  and  C_17
    3  A    between atoms: C_12  and  C_28
    4  A    between atoms: C_17  and  C_29
                            x       y       z     vdW  Elec       q    Type
                         _______ _______ _______ _____ _____    ______ ____

>  <TORSDO>
F 4

$$$$
=
 OpenBabel11052414173D

 34 40  0  0  1  0  0  0  0  0999 V2000
  189.4590  177.7170  140.7110 C   0  0  0  0  0  0  0  0  0  0  0  0
  187.3450  178.3810  139.7250 C   0  0  0  0  0  0  0  0  0  0  0  0
  187.5030  177.9810  142.0980 C   0  0  0  0  0  0  0  0  0  0  0  0
  185.5360  178.2910  143.3330 C   0  0  0  0  0  0  0  0  0  0  0  0
  189.2770  178.1170  138.3820 C   0  0  0  0  0  3  0  0  0  0  0  0
  187.9510  178.4210  138.5090 N   0  0  0  0  0  0  0  0  0  0  0  0
  185.4510  178.6210  141.1520 N   0  0  0  0  0  0  0  0  0  0  0  0
  188.1050  178.0230  140.8500 C   0  0  0  0  0  0  0  0  0  0  0  0
  184.1140  178.6880  143.1250 C   0  0  0  0  0  2  0  0  0  0  0  0
  190.0210  177.7690  139.4740 N   0  0  0  0  0  0  0  0  0  0  0  0
  188.2180  177.6420  143.2540 C   0  0  0  0  0  0  0  0  0  0  0  0
  190.2040  177.3680  141.8510 C   0  0  0  0  0  3  0  0  0  0  0  0
  185.9790  178.6920  139.8920 C   0  0  0  0  0  3  0  0  0  0  0  0
  186.1660  177.9740  144.4980 N   0  0  0  0  0  0  0  0  0  0  0  0
  187.5000  177.6450  144.4880 C   0  0  0  0  0  0  0  0  0  0  0  0
  184.0810  178.9090  141.5780 C   0  0  2  0  0  3  0  0  0  0  0  0
  186.1960  178.2860  142.1860 N   0  0  0  0  0  0  0  0  0  0  0  0
  189.5860  177.3320  143.1200 C   0  0  0  0  0  3  0  0  0  0  0  0
  188.1870  177.7180  148.2430 C   0  0  0  0  0  0  0  0  0  0  0  0
  189.6780  177.8600  148.2710 C   0  0  0  0  0  2  0  0  0  0  0  0
  188.1470  177.2990  145.7970 C   0  0  2  0  0  3  0  0  0  0  0  0
  190.2920  177.1230  147.0820 C   0  0  0  0  0  2  0  0  0  0  0  0
  187.4490  177.9960  146.9690 C   0  0  0  0  0  2  0  0  0  0  0  0
  189.6520  177.5830  145.7730 C   0  0  0  0  0  2  0  0  0  0  0  0
  187.5750  177.4380  149.2590 O   0  0  0  0  0  0  0  0  0  0  0  0
  183.1190  177.9230  140.9340 C   0  0  0  0  0  2  0  0  0  0  0  0
  182.1770  178.6500  139.9890 C   0  0  0  0  0  2  0  0  0  0  0  0
  179.7010  177.0420  141.0850 C   0  0  0  0  0  1  0  0  0  0  0  0
  180.9860  179.0890  140.7010 N   0  0  0  0  0  0  0  0  0  0  0  0
  180.4120  178.2160  141.7340 C   0  0  1  0  0  3  0  0  0  0  0  0
  178.9890  180.1640  142.3420 C   0  0  0  0  0  3  0  0  0  0  0  0
  179.4540  180.8850  141.1500 C   0  0  0  0  0  3  0  0  0  0  0  0
  180.4120  180.3670  140.3850 C   0  0  0  0  0  3  0  0  0  0  0  0
  179.4450  178.9440  142.6310 C   0  0  0  0  0  3  0  0  0  0  0  0
  1  8  1  0  0  0  0
  1 12  1  0  0  0  0
  2 13  2  0  0  0  0
  2  8  1  0  0  0  0
  3 17  1  0  0  0  0
  3 11  1  0  0  0  0
  4 14  2  0  0  0  0
  5  6  2  0  0  0  0
  5 10  1  0  0  0  0
  6  2  1  0  0  0  0
  7 16  1  0  0  0  0
  7 17  1  0  0  0  0
  8  3  2  0  0  0  0
  9  4  1  0  0  0  0
 10  1  2  0  0  0  0
 11 15  2  0  0  0  0
 12 18  2  0  0  0  0
 13  7  1  0  0  0  0
 15 14  1  0  0  0  0
 16 26  1  6  0  0  0
 16  9  1  0  0  0  0
 17  4  1  0  0  0  0
 18 11  1  0  0  0  0
 19 20  1  0  0  0  0
 19 25  2  0  0  0  0
 21 15  1  6  0  0  0
 21 23  1  0  0  0  0
 22 20  1  0  0  0  0
 23 19  1  0  0  0  0
 24 21  1  0  0  0  0
 24 22  1  0  0  0  0
 27 29  1  0  0  0  0
 27 26  1  0  0  0  0
 29 30  1  0  0  0  0
 30 28  1  6  0  0  0
 30 34  1  0  0  0  0
 31 34  2  0  0  0  0
 32 31  1  0  0  0  0
 33 29  1  0  0  0  0
 33 32  2  0  0  0  0
M  END
>  <MODEL>
5

>  <REMARK>
 VINA RESULT:      -9.6      3.098      8.260
  Name = 
  4 active torsions:
  status: ('A' for Active; 'I' for Inactive)
    1  A    between atoms: C_3  and  N_13
    2  A    between atoms: C_3  and  C_17
    3  A    between atoms: C_12  and  C_28
    4  A    between atoms: C_17  and  C_29
                            x       y       z     vdW  Elec       q    Type
                         _______ _______ _______ _____ _____    ______ ____

>  <TORSDO>
F 4

$$$$
=
 OpenBabel11052414173D

 34 40  0  0  1  0  0  0  0  0999 V2000
  189.2230  177.0830  144.6980 C   0  0  0  0  0  0  0  0  0  0  0  0
  190.6050  177.3040  142.7180 C   0  0  0  0  0  0  0  0  0  0  0  0
  188.2220  177.6510  142.5780 C   0  0  0  0  0  0  0  0  0  0  0  0
  187.3820  178.2150  140.4650 C   0  0  0  0  0  0  0  0  0  0  0  0
  191.5660  176.7480  144.8080 C   0  0  0  0  0  3  0  0  0  0  0  0
  191.6950  177.0050  143.4720 N   0  0  0  0  0  0  0  0  0  0  0  0
  189.5520  177.8640  140.6540 N   0  0  0  0  0  0  0  0  0  0  0  0
  189.3440  177.3440  143.3330 C   0  0  0  0  0  0  0  0  0  0  0  0
  187.8660  178.4550  139.0750 C   0  0  0  0  0  2  0  0  0  0  0  0
  190.3410  176.7870  145.4120 N   0  0  0  0  0  0  0  0  0  0  0  0
  186.9430  177.7170  143.1440 C   0  0  0  0  0  0  0  0  0  0  0  0
  187.9520  177.1370  145.2970 C   0  0  0  0  0  3  0  0  0  0  0  0
  190.7030  177.5780  141.3370 C   0  0  0  0  0  3  0  0  0  0  0  0
  186.1110  178.3010  140.9460 N   0  0  0  0  0  0  0  0  0  0  0  0
  185.8620  178.0550  142.2750 C   0  0  0  0  0  0  0  0  0  0  0  0
  189.3990  178.1940  139.2370 C   0  0  2  0  0  3  0  0  0  0  0  0
  188.3860  177.8980  141.2660 N   0  0  0  0  0  0  0  0  0  0  0  0
  186.8140  177.4540  144.5230 C   0  0  0  0  0  3  0  0  0  0  0  0
  182.1070  178.7320  142.1490 C   0  0  0  0  0  0  0  0  0  0  0  0
  181.9120  179.5630  143.3800 C   0  0  0  0  0  2  0  0  0  0  0  0
  184.4440  178.1570  142.7550 C   0  0  2  0  0  3  0  0  0  0  0  0
  182.8860  179.1150  144.4690 C   0  0  0  0  0  2  0  0  0  0  0  0
  183.4920  178.5300  141.6150 C   0  0  0  0  0  2  0  0  0  0  0  0
  184.3200  179.1160  143.9440 C   0  0  0  0  0  2  0  0  0  0  0  0
  181.1460  178.2750  141.5550 O   0  0  0  0  0  0  0  0  0  0  0  0
  189.8160  177.0100  138.3790 C   0  0  0  0  0  2  0  0  0  0  0  0
  188.8930  176.8800  137.1790 C   0  0  0  0  0  2  0  0  0  0  0  0
  190.2160  174.6440  135.3990 C   0  0  0  0  0  1  0  0  0  0  0  0
  188.5340  175.4860  136.9660 N   0  0  0  0  0  0  0  0  0  0  0  0
  189.6050  174.4960  136.7810 C   0  0  1  0  0  3  0  0  0  0  0  0
  187.8170  172.7810  137.0150 C   0  0  0  0  0  3  0  0  0  0  0  0
  186.7920  173.8320  136.9650 C   0  0  0  0  0  3  0  0  0  0  0  0
  187.1470  175.1140  136.9520 C   0  0  0  0  0  3  0  0  0  0  0  0
  189.1150  173.0810  136.9560 C   0  0  0  0  0  3  0  0  0  0  0  0
  1 12  1  0  0  0  0
  1 10  2  0  0  0  0
  2  8  1  0  0  0  0
  2  6  1  0  0  0  0
  3 11  1  0  0  0  0
  3  8  2  0  0  0  0
  4 14  2  0  0  0  0
  4 17  1  0  0  0  0
  5 10  1  0  0  0  0
  6  5  2  0  0  0  0
  7 17  1  0  0  0  0
  7 13  1  0  0  0  0
  8  1  1  0  0  0  0
  9 16  1  0  0  0  0
  9  4  1  0  0  0  0
 11 18  1  0  0  0  0
 13  2  2  0  0  0  0
 14 15  1  0  0  0  0
 15 11  2  0  0  0  0
 16 26  1  6  0  0  0
 16  7  1  0  0  0  0
 17  3  1  0  0  0  0
 18 12  2  0  0  0  0
 19 20  1  0  0  0  0
 20 22  1  0  0  0  0
 21 15  1  6  0  0  0
 21 24  1  0  0  0  0
 23 19  1  0  0  0  0
 23 21  1  0  0  0  0
 24 22  1  0  0  0  0
 25 19  2  0  0  0  0
 27 26  1  0  0  0  0
 29 27  1  0  0  0  0
 30 28  1  6  0  0  0
 30 34  1  0  0  0  0
 30 29  1  0  0  0  0
 32 31  1  0  0  0  0
 33 32  2  0  0  0  0
 33 29  1  0  0  0  0
 34 31  2  0  0  0  0
M  END
>  <MODEL>
6

>  <REMARK>
 VINA RESULT:      -9.4      1.604      2.547
  Name = 
  4 active torsions:
  status: ('A' for Active; 'I' for Inactive)
    1  A    between atoms: C_3  and  N_13
    2  A    between atoms: C_3  and  C_17
    3  A    between atoms: C_12  and  C_28
    4  A    between atoms: C_17  and  C_29
                            x       y       z     vdW  Elec       q    Type
                         _______ _______ _______ _____ _____    ______ ____

>  <TORSDO>
F 4

$$$$
=
 OpenBabel11052414173D

 34 40  0  0  1  0  0  0  0  0999 V2000
  182.0640  178.7550  141.0600 C   0  0  0  0  0  0  0  0  0  0  0  0
  183.4150  178.7700  143.0730 C   0  0  0  0  0  0  0  0  0  0  0  0
  184.4600  178.5160  140.9140 C   0  0  0  0  0  0  0  0  0  0  0  0
  186.7940  178.3120  140.9120 C   0  0  0  0  0  0  0  0  0  0  0  0
  181.0630  179.0030  143.1930 C   0  0  0  0  0  3  0  0  0  0  0  0
  182.2820  178.9320  143.8050 N   0  0  0  0  0  0  0  0  0  0  0  0
  185.7770  178.5260  142.8590 N   0  0  0  0  0  0  0  0  0  0  0  0
  183.3130  178.6770  141.6770 C   0  0  0  0  0  0  0  0  0  0  0  0
  187.9350  178.2920  141.8720 C   0  0  0  0  0  2  0  0  0  0  0  0
  180.9580  178.9150  141.8340 N   0  0  0  0  0  0  0  0  0  0  0  0
  184.4150  178.4310  139.5170 C   0  0  0  0  0  0  0  0  0  0  0  0
  181.9840  178.6680  139.6590 C   0  0  0  0  0  3  0  0  0  0  0  0
  184.6900  178.6950  143.6730 C   0  0  0  0  0  3  0  0  0  0  0  0
  186.8280  178.2250  139.5540 N   0  0  0  0  0  0  0  0  0  0  0  0
  185.6590  178.2790  138.8330 C   0  0  0  0  0  0  0  0  0  0  0  0
  187.1870  178.4380  143.2380 C   0  0  2  0  0  3  0  0  0  0  0  0
  185.6430  178.4480  141.5510 N   0  0  0  0  0  0  0  0  0  0  0  0
  183.1560  178.5070  138.8890 C   0  0  0  0  0  3  0  0  0  0  0  0
  185.4540  176.7020  135.3620 C   0  0  0  0  0  0  0  0  0  0  0  0
  186.7750  177.0950  134.7770 C   0  0  0  0  0  2  0  0  0  0  0  0
  185.7490  178.1730  137.3390 C   0  0  2  0  0  3  0  0  0  0  0  0
  187.1930  178.4640  135.3110 C   0  0  0  0  0  2  0  0  0  0  0  0
  185.2450  176.8150  136.8420 C   0  0  0  0  0  2  0  0  0  0  0  0
  187.1640  178.4800  136.8380 C   0  0  0  0  0  2  0  0  0  0  0  0
  184.5780  176.2400  134.6520 O   0  0  0  0  0  0  0  0  0  0  0  0
  187.4200  177.2020  144.0910 C   0  0  0  0  0  2  0  0  0  0  0  0
  187.6420  177.5990  145.5400 C   0  0  0  0  0  2  0  0  0  0  0  0
  189.1300  177.9550  148.2920 C   0  0  0  0  0  1  0  0  0  0  0  0
  189.0370  177.4060  145.9100 N   0  0  0  0  0  0  0  0  0  0  0  0
  189.3530  176.8790  147.2450 C   0  0  1  0  0  3  0  0  0  0  0  0
  191.6810  176.6290  146.4020 C   0  0  0  0  0  3  0  0  0  0  0  0
  191.3260  177.3690  145.1830 C   0  0  0  0  0  3  0  0  0  0  0  0
  190.0640  177.7230  144.9580 C   0  0  0  0  0  3  0  0  0  0  0  0
  190.7700  176.3780  147.3440 C   0  0  0  0  0  3  0  0  0  0  0  0
  1  8  1  0  0  0  0
  1 10  2  0  0  0  0
  2 13  2  0  0  0  0
  2  6  1  0  0  0  0
  3 17  1  0  0  0  0
  3  8  2  0  0  0  0
  4 17  1  0  0  0  0
  4  9  1  0  0  0  0
  5  6  2  0  0  0  0
  7 16  1  0  0  0  0
  7 13  1  0  0  0  0
  8  2  1  0  0  0  0
  9 16  1  0  0  0  0
 10  5  1  0  0  0  0
 11  3  1  0  0  0  0
 12  1  1  0  0  0  0
 14  4  2  0  0  0  0
 15 11  2  0  0  0  0
 15 14  1  0  0  0  0
 16 26  1  1  0  0  0
 17  7  1  0  0  0  0
 18 11  1  0  0  0  0
 18 12  2  0  0  0  0
 19 23  1  0  0  0  0
 20 22  1  0  0  0  0
 20 19  1  0  0  0  0
 21 15  1  1  0  0  0
 22 24  1  0  0  0  0
 23 21  1  0  0  0  0
 24 21  1  0  0  0  0
 25 19  2  0  0  0  0
 26 27  1  0  0  0  0
 27 29  1  0  0  0  0
 29 30  1  0  0  0  0
 30 34  1  0  0  0  0
 30 28  1  1  0  0  0
 31 34  2  0  0  0  0
 32 31  1  0  0  0  0
 33 32  2  0  0  0  0
 33 29  1  0  0  0  0
M  END
>  <MODEL>
7

>  <REMARK>
 VINA RESULT:      -9.2      3.338      7.861
  Name = 
  4 active torsions:
  status: ('A' for Active; 'I' for Inactive)
    1  A    between atoms: C_3  and  N_13
    2  A    between atoms: C_3  and  C_17
    3  A    between atoms: C_12  and  C_28
    4  A    between atoms: C_17  and  C_29
                            x       y       z     vdW  Elec       q    Type
                         _______ _______ _______ _____ _____    ______ ____

>  <TORSDO>
F 4

$$$$
=
 OpenBabel11052414173D

 34 40  0  0  1  0  0  0  0  0999 V2000
  189.5270  177.7070  145.3510 C   0  0  0  0  0  0  0  0  0  0  0  0
  187.1790  177.8360  145.9450 C   0  0  0  0  0  0  0  0  0  0  0  0
  187.8520  177.9400  143.6310 C   0  0  0  0  0  0  0  0  0  0  0  0
  186.1260  178.1490  142.0600 C   0  0  0  0  0  0  0  0  0  0  0  0
  188.8390  177.6060  147.6170 C   0  0  0  0  0  3  0  0  0  0  0  0
  187.5270  177.7240  147.2530 N   0  0  0  0  0  0  0  0  0  0  0  0
  185.5760  178.0700  144.1960 N   0  0  0  0  0  0  0  0  0  0  0  0
  188.1900  177.8300  144.9710 C   0  0  0  0  0  0  0  0  0  0  0  0
  184.6390  178.2400  142.0100 C   0  0  0  0  0  2  0  0  0  0  0  0
  189.8270  177.5980  146.6730 N   0  0  0  0  0  0  0  0  0  0  0  0
  188.8200  177.9270  142.6190 C   0  0  0  0  0  0  0  0  0  0  0  0
  190.5240  177.6950  144.3600 C   0  0  0  0  0  3  0  0  0  0  0  0
  185.8340  177.9560  145.5350 C   0  0  0  0  0  3  0  0  0  0  0  0
  187.0100  178.1400  141.0240 N   0  0  0  0  0  0  0  0  0  0  0  0
  188.3570  178.0340  141.2720 C   0  0  0  0  0  0  0  0  0  0  0  0
  184.2790  178.1880  143.5300 C   0  0  2  0  0  3  0  0  0  0  0  0
  186.5510  178.0550  143.3100 N   0  0  0  0  0  0  0  0  0  0  0  0
  190.1720  177.8030  142.9970 C   0  0  0  0  0  3  0  0  0  0  0  0
  189.4790  178.1410  137.6250 C   0  0  0  0  0  0  0  0  0  0  0  0
  190.4340  176.9880  137.5720 C   0  0  0  0  0  2  0  0  0  0  0  0
  189.2900  178.0340  140.0970 C   0  0  2  0  0  3  0  0  0  0  0  0
  191.1530  176.8470  138.9120 C   0  0  0  0  0  2  0  0  0  0  0  0
  188.5360  178.2580  138.7840 C   0  0  0  0  0  2  0  0  0  0  0  0
  190.1470  176.7640  140.0590 C   0  0  0  0  0  2  0  0  0  0  0  0
  189.4300  178.9430  136.7080 O   0  0  0  0  0  0  0  0  0  0  0  0
  183.5970  179.4820  143.9460 C   0  0  0  0  0  2  0  0  0  0  0  0
  182.1600  179.2100  144.3560 C   0  0  0  0  0  2  0  0  0  0  0  0
  179.0180  179.3080  144.1750 C   0  0  0  0  0  1  0  0  0  0  0  0
  181.2690  179.3770  143.2180 N   0  0  0  0  0  0  0  0  0  0  0  0
  180.0230  180.1360  143.3950 C   0  0  1  0  0  3  0  0  0  0  0  0
  179.8270  180.0520  140.9150 C   0  0  0  0  0  3  0  0  0  0  0  0
  180.9520  179.1100  140.8510 C   0  0  0  0  0  3  0  0  0  0  0  0
  181.6350  178.8060  141.9520 C   0  0  0  0  0  3  0  0  0  0  0  0
  179.4100  180.5480  142.0810 C   0  0  0  0  0  3  0  0  0  0  0  0
  1 10  2  0  0  0  0
  2  6  1  0  0  0  0
  3  8  2  0  0  0  0
  4 17  1  0  0  0  0
  6  5  2  0  0  0  0
  7 13  1  0  0  0  0
  8  1  1  0  0  0  0
  8  2  1  0  0  0  0
  9  4  1  0  0  0  0
  9 16  1  0  0  0  0
 10  5  1  0  0  0  0
 11 18  1  0  0  0  0
 11  3  1  0  0  0  0
 12  1  1  0  0  0  0
 13  2  2  0  0  0  0
 14 15  1  0  0  0  0
 14  4  2  0  0  0  0
 15 11  2  0  0  0  0
 16 26  1  1  0  0  0
 16  7  1  0  0  0  0
 17  3  1  0  0  0  0
 17  7  1  0  0  0  0
 18 12  2  0  0  0  0
 19 23  1  0  0  0  0
 20 19  1  0  0  0  0
 20 22  1  0  0  0  0
 21 15  1  1  0  0  0
 22 24  1  0  0  0  0
 23 21  1  0  0  0  0
 24 21  1  0  0  0  0
 25 19  2  0  0  0  0
 26 27  1  0  0  0  0
 29 30  1  0  0  0  0
 29 27  1  0  0  0  0
 30 28  1  6  0  0  0
 31 34  2  0  0  0  0
 32 31  1  0  0  0  0
 32 33  2  0  0  0  0
 33 29  1  0  0  0  0
 34 30  1  0  0  0  0
M  END
>  <MODEL>
8

>  <REMARK>
 VINA RESULT:      -9.2      2.456      7.984
  Name = 
  4 active torsions:
  status: ('A' for Active; 'I' for Inactive)
    1  A    between atoms: C_3  and  N_13
    2  A    between atoms: C_3  and  C_17
    3  A    between atoms: C_12  and  C_28
    4  A    between atoms: C_17  and  C_29
                            x       y       z     vdW  Elec       q    Type
                         _______ _______ _______ _____ _____    ______ ____

>  <TORSDO>
F 4

$$$$
=
 OpenBabel11052414173D

 34 40  0  0  1  0  0  0  0  0999 V2000
  188.0360  177.8510  140.8500 C   0  0  0  0  0  0  0  0  0  0  0  0
  185.8080  178.6220  140.2800 C   0  0  0  0  0  0  0  0  0  0  0  0
  186.3980  178.2160  142.5830 C   0  0  0  0  0  0  0  0  0  0  0  0
  184.7220  178.6270  144.1680 C   0  0  0  0  0  0  0  0  0  0  0  0
  187.4300  178.2580  138.5950 C   0  0  0  0  0  3  0  0  0  0  0  0
  186.1700  178.6290  138.9710 N   0  0  0  0  0  0  0  0  0  0  0  0
  184.2380  178.9600  142.0410 N   0  0  0  0  0  0  0  0  0  0  0  0
  186.7500  178.2260  141.2430 C   0  0  0  0  0  0  0  0  0  0  0  0
  183.3090  179.0980  144.2330 C   0  0  0  0  0  2  0  0  0  0  0  0
  188.3520  177.8720  139.5280 N   0  0  0  0  0  0  0  0  0  0  0  0
  187.3030  177.8420  143.5850 C   0  0  0  0  0  0  0  0  0  0  0  0
  188.9670  177.4650  141.8300 C   0  0  0  0  0  3  0  0  0  0  0  0
  184.5170  179.0030  140.7020 C   0  0  0  0  0  3  0  0  0  0  0  0
  185.5470  178.2800  145.1940 N   0  0  0  0  0  0  0  0  0  0  0  0
  186.8370  177.8820  144.9330 C   0  0  0  0  0  0  0  0  0  0  0  0
  182.9910  179.3180  142.7180 C   0  0  2  0  0  3  0  0  0  0  0  0
  185.1490  178.5870  142.9160 N   0  0  0  0  0  0  0  0  0  0  0  0
  188.6030  177.4610  143.1940 C   0  0  0  0  0  3  0  0  0  0  0  0
  188.3350  178.0200  148.4410 C   0  0  0  0  0  0  0  0  0  0  0  0
  189.8010  177.9460  148.1440 C   0  0  0  0  0  2  0  0  0  0  0  0
  187.7040  177.5040  146.0970 C   0  0  2  0  0  3  0  0  0  0  0  0
  190.0370  177.0780  146.9090 C   0  0  0  0  0  2  0  0  0  0  0  0
  187.3780  178.3440  147.3350 C   0  0  0  0  0  2  0  0  0  0  0  0
  189.1910  177.5670  145.7350 C   0  0  0  0  0  2  0  0  0  0  0  0
  187.9300  177.8750  149.5820 O   0  0  0  0  0  0  0  0  0  0  0  0
  181.8750  178.3830  142.2810 C   0  0  0  0  0  2  0  0  0  0  0  0
  180.7310  179.1790  141.6750 C   0  0  0  0  0  2  0  0  0  0  0  0
  179.6660  181.2670  139.5730 C   0  0  0  0  0  1  0  0  0  0  0  0
  180.8680  179.2390  140.2270 N   0  0  0  0  0  0  0  0  0  0  0  0
  181.0050  180.5510  139.5790 C   0  0  1  0  0  3  0  0  0  0  0  0
  181.5810  179.2770  137.5200 C   0  0  0  0  0  3  0  0  0  0  0  0
  181.2050  178.0220  138.1830 C   0  0  0  0  0  3  0  0  0  0  0  0
  180.8790  178.0170  139.4730 C   0  0  0  0  0  3  0  0  0  0  0  0
  181.5150  180.4430  138.1650 C   0  0  0  0  0  3  0  0  0  0  0  0
  1  8  1  0  0  0  0
  1 12  1  0  0  0  0
  2 13  2  0  0  0  0
  2  8  1  0  0  0  0
  3 17  1  0  0  0  0
  3 11  1  0  0  0  0
  4  9  1  0  0  0  0
  4 14  2  0  0  0  0
  5  6  2  0  0  0  0
  5 10  1  0  0  0  0
  6  2  1  0  0  0  0
  7 16  1  0  0  0  0
  7 17  1  0  0  0  0
  8  3  2  0  0  0  0
 10  1  2  0  0  0  0
 11 15  2  0  0  0  0
 12 18  2  0  0  0  0
 13  7  1  0  0  0  0
 15 14  1  0  0  0  0
 16 26  1  6  0  0  0
 16  9  1  0  0  0  0
 17  4  1  0  0  0  0
 18 11  1  0  0  0  0
 19 25  2  0  0  0  0
 20 19  1  0  0  0  0
 21 15  1  6  0  0  0
 21 23  1  0  0  0  0
 22 20  1  0  0  0  0
 23 19  1  0  0  0  0
 24 21  1  0  0  0  0
 24 22  1  0  0  0  0
 27 26  1  0  0  0  0
 29 27  1  0  0  0  0
 30 28  1  6  0  0  0
 30 29  1  0  0  0  0
 31 34  2  0  0  0  0
 31 32  1  0  0  0  0
 32 33  2  0  0  0  0
 33 29  1  0  0  0  0
 34 30  1  0  0  0  0
M  END
>  <MODEL>
9

>  <REMARK>
 VINA RESULT:      -9.1      3.665      8.081
  Name = 
  4 active torsions:
  status: ('A' for Active; 'I' for Inactive)
    1  A    between atoms: C_3  and  N_13
    2  A    between atoms: C_3  and  C_17
    3  A    between atoms: C_12  and  C_28
    4  A    between atoms: C_17  and  C_29
                            x       y       z     vdW  Elec       q    Type
                         _______ _______ _______ _____ _____    ______ ____

>  <TORSDO>
F 4

$$$$
