=
 OpenBabel11052414143D

 34 37  0  0  1  0  0  0  0  0999 V2000
  187.8820  177.5220  144.4030 N   0  0  0  0  0  0  0  0  0  0  0  0
  186.0760  178.2080  142.7490 C   0  0  1  0  0  3  0  0  0  0  0  0
  185.7050  178.0210  145.1270 O   0  0  0  0  0  0  0  0  0  0  0  0
  188.8440  177.5140  143.2970 C   0  0  1  0  0  3  0  0  0  0  0  0
  187.1620  178.5790  141.9320 O   0  0  0  0  0  0  0  0  0  0  0  0
  188.0780  177.5110  141.9600 C   0  0  1  0  0  3  0  0  0  0  0  0
  186.5280  177.9590  144.1730 C   0  0  0  0  0  0  0  0  0  0  0  0
  189.4150  178.2880  138.4980 C   0  0  0  0  0  0  0  0  0  0  0  0
  190.5660  177.4970  138.4490 C   0  0  0  0  0  3  0  0  0  0  0  0
  188.9620  177.5040  140.7490 C   0  0  0  0  0  0  0  0  0  0  0  0
  190.9150  176.7060  139.5490 C   0  0  0  0  0  3  0  0  0  0  0  0
  188.6130  178.2870  139.6440 C   0  0  0  0  0  3  0  0  0  0  0  0
  190.1160  176.7080  140.6950 C   0  0  0  0  0  3  0  0  0  0  0  0
  189.0760  179.0550  137.4330 F   0  0  0  0  0  0  0  0  0  0  0  0
  191.1330  178.2810  143.9200 C   0  0  0  0  0  1  0  0  0  0  0  0
  189.7680  178.7210  143.4260 C   0  0  0  0  0  2  0  0  0  0  0  0
  188.2740  176.9180  145.6730 C   0  0  0  0  0  2  0  0  0  0  0  0
  188.2980  177.9510  146.7950 C   0  0  0  0  0  2  0  0  0  0  0  0
  189.5020  177.7700  147.7020 C   0  0  0  0  0  2  0  0  0  0  0  0
  190.1860  176.4450  147.4200 C   0  0  0  0  0  2  0  0  0  0  0  0
  192.4110  175.6960  148.0480 N   0  0  0  0  0  2  0  0  0  0  0  0
  191.6710  176.6690  147.2300 C   0  0  1  0  0  3  0  0  0  0  0  0
  192.2710  175.5000  146.5990 C   0  0  0  0  0  2  0  0  0  0  0  0
  185.0090  179.2920  142.6630 C   0  0  0  0  0  2  0  0  0  0  0  0
  183.5980  178.7120  142.6690 C   0  0  0  0  0  2  0  0  0  0  0  0
  183.3810  177.6800  141.5630 C   0  0  0  0  0  2  0  0  0  0  0  0
  182.7910  178.3090  140.3080 C   0  0  0  0  0  2  0  0  0  0  0  0
  184.9300  179.7920  139.2200 O   0  0  0  0  0  0  0  0  0  0  0  0
  183.5450  177.9020  139.1290 N   0  0  0  0  0  0  0  0  0  0  0  0
  184.6720  178.6800  138.6850 C   0  0  0  0  0  0  0  0  0  0  0  0
  184.8970  177.1560  136.7170 C   0  0  0  0  0  2  0  0  0  0  0  0
  184.1310  176.1190  137.5280 C   0  0  0  0  0  2  0  0  0  0  0  0
  183.0190  176.8110  138.3070 C   0  0  0  0  0  2  0  0  0  0  0  0
  185.6070  178.1340  137.6470 C   0  0  0  0  0  2  0  0  0  0  0  0
  1 17  1  0  0  0  0
  2 24  1  1  0  0  0
  2  7  1  0  0  0  0
  4 16  1  6  0  0  0
  4  1  1  0  0  0  0
  5  6  1  0  0  0  0
  5  2  1  0  0  0  0
  6 10  1  6  0  0  0
  6  4  1  0  0  0  0
  7  1  1  0  0  0  0
  7  3  2  0  0  0  0
  8 12  1  0  0  0  0
  9  8  2  0  0  0  0
  9 11  1  0  0  0  0
 11 13  2  0  0  0  0
 12 10  2  0  0  0  0
 13 10  1  0  0  0  0
 14  8  1  0  0  0  0
 16 15  1  0  0  0  0
 17 18  1  0  0  0  0
 18 19  1  0  0  0  0
 20 19  1  0  0  0  0
 22 20  1  1  0  0  0
 22 21  1  0  0  0  0
 23 22  1  0  0  0  0
 23 21  1  0  0  0  0
 24 25  1  0  0  0  0
 26 25  1  0  0  0  0
 27 26  1  0  0  0  0
 29 27  1  0  0  0  0
 30 29  1  0  0  0  0
 30 28  2  0  0  0  0
 31 32  1  0  0  0  0
 31 34  1  0  0  0  0
 32 33  1  0  0  0  0
 33 29  1  0  0  0  0
 34 30  1  0  0  0  0
M  END
>  <MODEL>
1

>  <REMARK>
 VINA RESULT:      -7.4      0.000      0.000
  Name = 
  12 active torsions:
  status: ('A' for Active; 'I' for Inactive)
    1  A    between atoms: C_2  and  C_15
    2  A    between atoms: C_2  and  C_25
    3  A    between atoms: C_3  and  N_13
    4  A    between atoms: C_3  and  C_17
    5  A    between atoms: N_4  and  C_15
    6  A    between atoms: C_5  and  C_18
    7  A    between atoms: C_6  and  C_9
    8  A    between atoms: C_9  and  C_25
    9  A    between atoms: C_12  and  C_28
   10  A    between atoms: C_17  and  C_29
   11  A    between atoms: C_18  and  C_29
   12  A    between atoms: C_21  and  C_32
                            x       y       z     vdW  Elec       q    Type
                         _______ _______ _______ _____ _____    ______ ____

>  <TORSDO>
F 12

$$$$
=
 OpenBabel11052414143D

 34 37  0  0  1  0  0  0  0  0999 V2000
  187.8100  178.3160  141.5560 N   0  0  0  0  0  0  0  0  0  0  0  0
  185.7120  178.6750  142.9480 C   0  0  1  0  0  3  0  0  0  0  0  0
  185.7970  178.9950  140.5570 O   0  0  0  0  0  0  0  0  0  0  0  0
  188.4910  177.8450  142.7650 C   0  0  1  0  0  3  0  0  0  0  0  0
  186.3420  177.8110  143.8650 O   0  0  0  0  0  0  0  0  0  0  0  0
  187.6690  178.2570  144.0020 C   0  0  1  0  0  3  0  0  0  0  0  0
  186.4060  178.6390  141.6030 C   0  0  0  0  0  0  0  0  0  0  0  0
  190.2390  177.2530  146.6030 C   0  0  0  0  0  0  0  0  0  0  0  0
  189.4350  176.9840  147.7140 C   0  0  0  0  0  3  0  0  0  0  0  0
  188.2700  177.8250  145.3070 C   0  0  0  0  0  0  0  0  0  0  0  0
  188.0470  177.1320  147.6220 C   0  0  0  0  0  3  0  0  0  0  0  0
  189.6560  177.6680  145.4010 C   0  0  0  0  0  3  0  0  0  0  0  0
  187.4660  177.5500  146.4230 C   0  0  0  0  0  3  0  0  0  0  0  0
  191.5850  177.1110  146.6920 F   0  0  0  0  0  0  0  0  0  0  0  0
  190.1460  175.9990  142.5030 C   0  0  0  0  0  1  0  0  0  0  0  0
  188.6780  176.3320  142.6800 C   0  0  0  0  0  2  0  0  0  0  0  0
  188.6140  178.6160  140.3760 C   0  0  0  0  0  2  0  0  0  0  0  0
  188.6630  177.4290  139.4210 C   0  0  0  0  0  2  0  0  0  0  0  0
  189.9510  177.4070  138.6150 C   0  0  0  0  0  2  0  0  0  0  0  0
  190.6080  176.0420  138.7010 C   0  0  0  0  0  2  0  0  0  0  0  0
  190.8610  173.9690  137.4580 N   0  0  0  0  0  2  0  0  0  0  0  0
  190.6760  175.4210  137.3220 C   0  0  1  0  0  3  0  0  0  0  0  0
  189.5430  174.5260  137.1250 C   0  0  0  0  0  2  0  0  0  0  0  0
  184.2400  178.2930  142.8500 C   0  0  0  0  0  2  0  0  0  0  0  0
  183.3740  179.0920  143.8180 C   0  0  0  0  0  2  0  0  0  0  0  0
  181.8950  178.7140  143.7350 C   0  0  0  0  0  2  0  0  0  0  0  0
  181.1890  179.4350  142.5950 C   0  0  0  0  0  2  0  0  0  0  0  0
  182.4260  179.2520  140.0660 O   0  0  0  0  0  0  0  0  0  0  0  0
  180.7900  178.4880  141.5610 N   0  0  0  0  0  0  0  0  0  0  0  0
  181.5250  178.4110  140.3260 C   0  0  0  0  0  0  0  0  0  0  0  0
  179.8730  176.7290  139.4960 C   0  0  0  0  0  2  0  0  0  0  0  0
  179.5340  176.4530  140.9550 C   0  0  0  0  0  2  0  0  0  0  0  0
  179.5260  177.7670  141.7270 C   0  0  0  0  0  2  0  0  0  0  0  0
  181.2930  177.2720  139.3780 C   0  0  0  0  0  2  0  0  0  0  0  0
  1  7  1  0  0  0  0
  1  4  1  0  0  0  0
  2 24  1  6  0  0  0
  2  5  1  0  0  0  0
  3  7  2  0  0  0  0
  4 16  1  6  0  0  0
  4  6  1  0  0  0  0
  5  6  1  0  0  0  0
  6 10  1  1  0  0  0
  7  2  1  0  0  0  0
  8 14  1  0  0  0  0
  8  9  1  0  0  0  0
 10 12  1  0  0  0  0
 10 13  2  0  0  0  0
 11  9  2  0  0  0  0
 12  8  2  0  0  0  0
 13 11  1  0  0  0  0
 15 16  1  0  0  0  0
 17  1  1  0  0  0  0
 18 17  1  0  0  0  0
 19 20  1  0  0  0  0
 19 18  1  0  0  0  0
 22 21  1  0  0  0  0
 22 20  1  1  0  0  0
 23 22  1  0  0  0  0
 23 21  1  0  0  0  0
 24 25  1  0  0  0  0
 26 25  1  0  0  0  0
 27 26  1  0  0  0  0
 28 30  2  0  0  0  0
 29 33  1  0  0  0  0
 29 27  1  0  0  0  0
 30 29  1  0  0  0  0
 31 32  1  0  0  0  0
 32 33  1  0  0  0  0
 34 31  1  0  0  0  0
 34 30  1  0  0  0  0
M  END
>  <MODEL>
2

>  <REMARK>
 VINA RESULT:      -7.1      2.963      5.975
  Name = 
  12 active torsions:
  status: ('A' for Active; 'I' for Inactive)
    1  A    between atoms: C_2  and  C_15
    2  A    between atoms: C_2  and  C_25
    3  A    between atoms: C_3  and  N_13
    4  A    between atoms: C_3  and  C_17
    5  A    between atoms: N_4  and  C_15
    6  A    between atoms: C_5  and  C_18
    7  A    between atoms: C_6  and  C_9
    8  A    between atoms: C_9  and  C_25
    9  A    between atoms: C_12  and  C_28
   10  A    between atoms: C_17  and  C_29
   11  A    between atoms: C_18  and  C_29
   12  A    between atoms: C_21  and  C_32
                            x       y       z     vdW  Elec       q    Type
                         _______ _______ _______ _____ _____    ______ ____

>  <TORSDO>
F 12

$$$$
=
 OpenBabel11052414143D

 34 37  0  0  1  0  0  0  0  0999 V2000
  187.9400  178.1930  141.6700 N   0  0  0  0  0  0  0  0  0  0  0  0
  185.7840  178.7050  142.9170 C   0  0  1  0  0  3  0  0  0  0  0  0
  186.0220  178.9150  140.5250 O   0  0  0  0  0  0  0  0  0  0  0  0
  188.5260  177.7450  142.9360 C   0  0  1  0  0  3  0  0  0  0  0  0
  186.3190  177.8550  143.9050 O   0  0  0  0  0  0  0  0  0  0  0  0
  187.6550  178.2480  144.1030 C   0  0  1  0  0  3  0  0  0  0  0  0
  186.5520  178.5790  141.6190 C   0  0  0  0  0  0  0  0  0  0  0  0
  190.0230  177.2720  146.9000 C   0  0  0  0  0  0  0  0  0  0  0  0
  189.1420  177.0630  147.9640 C   0  0  0  0  0  3  0  0  0  0  0  0
  188.1580  177.8470  145.4580 C   0  0  0  0  0  0  0  0  0  0  0  0
  187.7670  177.2420  147.7760 C   0  0  0  0  0  3  0  0  0  0  0  0
  189.5310  177.6590  145.6480 C   0  0  0  0  0  3  0  0  0  0  0  0
  187.2760  177.6320  146.5280 C   0  0  0  0  0  3  0  0  0  0  0  0
  191.3560  177.1000  147.0810 F   0  0  0  0  0  0  0  0  0  0  0  0
  190.1050  175.8180  142.8250 C   0  0  0  0  0  1  0  0  0  0  0  0
  188.6470  176.2240  142.9250 C   0  0  0  0  0  2  0  0  0  0  0  0
  188.8250  178.4050  140.5280 C   0  0  0  0  0  2  0  0  0  0  0  0
  188.9000  177.1630  139.6460 C   0  0  0  0  0  2  0  0  0  0  0  0
  189.8230  177.3710  138.4580 C   0  0  0  0  0  2  0  0  0  0  0  0
  189.1610  178.2580  137.4200 C   0  0  0  0  0  2  0  0  0  0  0  0
  186.8460  178.9370  137.1290 N   0  0  0  0  0  2  0  0  0  0  0  0
  187.7490  177.7770  137.1660 C   0  0  1  0  0  3  0  0  0  0  0  0
  187.2760  178.2860  135.8840 C   0  0  0  0  0  2  0  0  0  0  0  0
  184.3040  178.3850  142.7470 C   0  0  0  0  0  2  0  0  0  0  0  0
  183.4460  179.0460  143.8210 C   0  0  0  0  0  2  0  0  0  0  0  0
  181.9670  178.6800  143.7020 C   0  0  0  0  0  2  0  0  0  0  0  0
  181.2890  179.4230  142.5590 C   0  0  0  0  0  2  0  0  0  0  0  0
  182.4350  179.2420  139.9870 O   0  0  0  0  0  0  0  0  0  0  0  0
  180.8430  178.4880  141.5340 N   0  0  0  0  0  0  0  0  0  0  0  0
  181.5330  178.4090  140.2730 C   0  0  0  0  0  0  0  0  0  0  0  0
  179.8330  176.7520  139.4920 C   0  0  0  0  0  2  0  0  0  0  0  0
  179.5430  176.4710  140.9610 C   0  0  0  0  0  2  0  0  0  0  0  0
  179.5780  177.7800  141.7400 C   0  0  0  0  0  2  0  0  0  0  0  0
  181.2550  177.2800  139.3270 C   0  0  0  0  0  2  0  0  0  0  0  0
  1  4  1  0  0  0  0
  2 24  1  6  0  0  0
  2  5  1  0  0  0  0
  3  7  2  0  0  0  0
  4 16  1  6  0  0  0
  4  6  1  0  0  0  0
  5  6  1  0  0  0  0
  6 10  1  1  0  0  0
  7  1  1  0  0  0  0
  7  2  1  0  0  0  0
  8 14  1  0  0  0  0
  8  9  1  0  0  0  0
 10 12  1  0  0  0  0
 10 13  2  0  0  0  0
 11  9  2  0  0  0  0
 12  8  2  0  0  0  0
 13 11  1  0  0  0  0
 15 16  1  0  0  0  0
 17  1  1  0  0  0  0
 18 17  1  0  0  0  0
 19 18  1  0  0  0  0
 20 19  1  0  0  0  0
 21 22  1  0  0  0  0
 22 20  1  6  0  0  0
 23 21  1  0  0  0  0
 23 22  1  0  0  0  0
 24 25  1  0  0  0  0
 26 25  1  0  0  0  0
 27 26  1  0  0  0  0
 28 30  2  0  0  0  0
 29 33  1  0  0  0  0
 29 27  1  0  0  0  0
 30 29  1  0  0  0  0
 31 32  1  0  0  0  0
 32 33  1  0  0  0  0
 34 31  1  0  0  0  0
 34 30  1  0  0  0  0
M  END
>  <MODEL>
3

>  <REMARK>
 VINA RESULT:      -7.1      2.887      6.358
  Name = 
  12 active torsions:
  status: ('A' for Active; 'I' for Inactive)
    1  A    between atoms: C_2  and  C_15
    2  A    between atoms: C_2  and  C_25
    3  A    between atoms: C_3  and  N_13
    4  A    between atoms: C_3  and  C_17
    5  A    between atoms: N_4  and  C_15
    6  A    between atoms: C_5  and  C_18
    7  A    between atoms: C_6  and  C_9
    8  A    between atoms: C_9  and  C_25
    9  A    between atoms: C_12  and  C_28
   10  A    between atoms: C_17  and  C_29
   11  A    between atoms: C_18  and  C_29
   12  A    between atoms: C_21  and  C_32
                            x       y       z     vdW  Elec       q    Type
                         _______ _______ _______ _____ _____    ______ ____

>  <TORSDO>
F 12

$$$$
=
 OpenBabel11052414143D

 34 37  0  0  1  0  0  0  0  0999 V2000
  188.0250  178.2970  141.6060 N   0  0  0  0  0  0  0  0  0  0  0  0
  186.0000  178.6030  143.1130 C   0  0  1  0  0  3  0  0  0  0  0  0
  185.9500  178.9530  140.7260 O   0  0  0  0  0  0  0  0  0  0  0  0
  188.7780  177.8230  142.7700 C   0  0  1  0  0  3  0  0  0  0  0  0
  186.6930  177.7380  143.9830 O   0  0  0  0  0  0  0  0  0  0  0  0
  188.0170  178.2060  144.0550 C   0  0  1  0  0  3  0  0  0  0  0  0
  186.6200  178.5950  141.7320 C   0  0  0  0  0  0  0  0  0  0  0  0
  188.5440  177.2100  147.6760 C   0  0  0  0  0  0  0  0  0  0  0  0
  189.9220  176.9870  147.7160 C   0  0  0  0  0  3  0  0  0  0  0  0
  188.6950  177.7680  145.3200 C   0  0  0  0  0  0  0  0  0  0  0  0
  190.6910  177.1580  146.5590 C   0  0  0  0  0  3  0  0  0  0  0  0
  187.9320  177.6040  146.4800 C   0  0  0  0  0  3  0  0  0  0  0  0
  190.0790  177.5480  145.3650 C   0  0  0  0  0  3  0  0  0  0  0  0
  187.7980  177.0430  148.7960 F   0  0  0  0  0  0  0  0  0  0  0  0
  190.4430  176.0110  142.3700 C   0  0  0  0  0  1  0  0  0  0  0  0
  188.9850  176.3150  142.6550 C   0  0  0  0  0  2  0  0  0  0  0  0
  188.7590  178.6260  140.3880 C   0  0  0  0  0  2  0  0  0  0  0  0
  188.6090  177.5310  139.3370 C   0  0  0  0  0  2  0  0  0  0  0  0
  189.3310  177.8850  138.0480 C   0  0  0  0  0  2  0  0  0  0  0  0
  190.0310  176.6640  137.4800 C   0  0  0  0  0  2  0  0  0  0  0  0
  191.6200  174.8900  137.9620 N   0  0  0  0  0  2  0  0  0  0  0  0
  190.9430  176.0660  138.5290 C   0  0  1  0  0  3  0  0  0  0  0  0
  192.3310  176.1690  138.0950 C   0  0  0  0  0  2  0  0  0  0  0  0
  184.5310  178.1960  143.0900 C   0  0  0  0  0  2  0  0  0  0  0  0
  183.6750  179.0820  143.9890 C   0  0  0  0  0  2  0  0  0  0  0  0
  182.1990  178.6900  143.9700 C   0  0  0  0  0  2  0  0  0  0  0  0
  181.4130  179.4880  142.9380 C   0  0  0  0  0  2  0  0  0  0  0  0
  178.9320  178.1480  143.0160 O   0  0  0  0  0  0  0  0  0  0  0  0
  180.9270  178.6140  141.8780 N   0  0  0  0  0  0  0  0  0  0  0  0
  179.6150  178.0290  141.9640 C   0  0  0  0  0  0  0  0  0  0  0  0
  180.0790  176.7760  139.8520 C   0  0  0  0  0  2  0  0  0  0  0  0
  181.1360  177.8300  139.5480 C   0  0  0  0  0  2  0  0  0  0  0  0
  181.8660  178.1960  140.8340 C   0  0  0  0  0  2  0  0  0  0  0  0
  179.0080  177.3530  140.7700 C   0  0  0  0  0  2  0  0  0  0  0  0
  1  7  1  0  0  0  0
  1  4  1  0  0  0  0
  2 24  1  6  0  0  0
  2  5  1  0  0  0  0
  3  7  2  0  0  0  0
  4 16  1  6  0  0  0
  4  6  1  0  0  0  0
  5  6  1  0  0  0  0
  6 10  1  1  0  0  0
  7  2  1  0  0  0  0
  8  9  1  0  0  0  0
  8 14  1  0  0  0  0
 10 13  2  0  0  0  0
 10 12  1  0  0  0  0
 11  9  2  0  0  0  0
 12  8  2  0  0  0  0
 13 11  1  0  0  0  0
 15 16  1  0  0  0  0
 17  1  1  0  0  0  0
 18 17  1  0  0  0  0
 19 18  1  0  0  0  0
 20 19  1  0  0  0  0
 21 23  1  0  0  0  0
 21 22  1  0  0  0  0
 22 20  1  6  0  0  0
 23 22  1  0  0  0  0
 24 25  1  0  0  0  0
 26 25  1  0  0  0  0
 27 26  1  0  0  0  0
 29 30  1  0  0  0  0
 29 27  1  0  0  0  0
 30 28  2  0  0  0  0
 31 34  1  0  0  0  0
 32 31  1  0  0  0  0
 32 33  1  0  0  0  0
 33 29  1  0  0  0  0
 34 30  1  0  0  0  0
M  END
>  <MODEL>
4

>  <REMARK>
 VINA RESULT:      -7.1      3.247      6.135
  Name = 
  12 active torsions:
  status: ('A' for Active; 'I' for Inactive)
    1  A    between atoms: C_2  and  C_15
    2  A    between atoms: C_2  and  C_25
    3  A    between atoms: C_3  and  N_13
    4  A    between atoms: C_3  and  C_17
    5  A    between atoms: N_4  and  C_15
    6  A    between atoms: C_5  and  C_18
    7  A    between atoms: C_6  and  C_9
    8  A    between atoms: C_9  and  C_25
    9  A    between atoms: C_12  and  C_28
   10  A    between atoms: C_17  and  C_29
   11  A    between atoms: C_18  and  C_29
   12  A    between atoms: C_21  and  C_32
                            x       y       z     vdW  Elec       q    Type
                         _______ _______ _______ _____ _____    ______ ____

>  <TORSDO>
F 12

$$$$
=
 OpenBabel11052414143D

 34 37  0  0  1  0  0  0  0  0999 V2000
  187.7950  178.2590  141.6460 N   0  0  0  0  0  0  0  0  0  0  0  0
  185.5750  178.6980  142.8060 C   0  0  1  0  0  3  0  0  0  0  0  0
  185.9070  178.9410  140.4280 O   0  0  0  0  0  0  0  0  0  0  0  0
  188.3400  177.8140  142.9310 C   0  0  1  0  0  3  0  0  0  0  0  0
  186.0910  177.8530  143.8080 O   0  0  0  0  0  0  0  0  0  0  0  0
  187.4070  178.2800  144.0660 C   0  0  1  0  0  3  0  0  0  0  0  0
  186.4000  178.6070  141.5400 C   0  0  0  0  0  0  0  0  0  0  0  0
  189.6500  177.1400  146.9020 C   0  0  0  0  0  0  0  0  0  0  0  0
  188.7560  177.0880  147.9740 C   0  0  0  0  0  3  0  0  0  0  0  0
  187.8630  177.8790  145.4370 C   0  0  0  0  0  0  0  0  0  0  0  0
  187.4130  177.4280  147.7790 C   0  0  0  0  0  3  0  0  0  0  0  0
  189.2030  177.5300  145.6350 C   0  0  0  0  0  3  0  0  0  0  0  0
  186.9670  177.8220  146.5150 C   0  0  0  0  0  3  0  0  0  0  0  0
  190.9520  176.8110  147.0910 F   0  0  0  0  0  0  0  0  0  0  0  0
  189.9590  175.9340  142.6880 C   0  0  0  0  0  1  0  0  0  0  0  0
  188.5040  176.2970  142.9110 C   0  0  0  0  0  2  0  0  0  0  0  0
  188.7200  178.5080  140.5450 C   0  0  0  0  0  2  0  0  0  0  0  0
  188.6640  177.3900  139.5100 C   0  0  0  0  0  2  0  0  0  0  0  0
  189.0510  177.8830  138.1260 C   0  0  0  0  0  2  0  0  0  0  0  0
  189.9800  176.8930  137.4490 C   0  0  0  0  0  2  0  0  0  0  0  0
  190.9670  174.7470  138.0190 N   0  0  0  0  0  2  0  0  0  0  0  0
  190.7510  176.1200  138.4980 C   0  0  1  0  0  3  0  0  0  0  0  0
  192.0540  175.7340  137.9700 C   0  0  0  0  0  2  0  0  0  0  0  0
  184.1130  178.3390  142.5710 C   0  0  0  0  0  2  0  0  0  0  0  0
  183.1990  178.9160  143.6460 C   0  0  0  0  0  2  0  0  0  0  0  0
  181.7590  179.0880  143.1660 C   0  0  0  0  0  2  0  0  0  0  0  0
  181.5470  178.4860  141.7830 C   0  0  0  0  0  2  0  0  0  0  0  0
  182.7490  179.1960  139.3320 O   0  0  0  0  0  0  0  0  0  0  0  0
  181.0040  179.4840  140.8700 N   0  0  0  0  0  0  0  0  0  0  0  0
  181.6410  179.7310  139.6030 C   0  0  0  0  0  0  0  0  0  0  0  0
  179.9970  181.5650  139.1800 C   0  0  0  0  0  2  0  0  0  0  0  0
  179.0870  180.8800  140.1900 C   0  0  0  0  0  2  0  0  0  0  0  0
  179.9260  180.3520  141.3470 C   0  0  0  0  0  2  0  0  0  0  0  0
  180.9500  180.5510  138.5550 C   0  0  0  0  0  2  0  0  0  0  0  0
  1  4  1  0  0  0  0
  2 24  1  6  0  0  0
  2  5  1  0  0  0  0
  3  7  2  0  0  0  0
  4 16  1  6  0  0  0
  4  6  1  0  0  0  0
  5  6  1  0  0  0  0
  6 10  1  1  0  0  0
  7  1  1  0  0  0  0
  7  2  1  0  0  0  0
  8 14  1  0  0  0  0
  8  9  1  0  0  0  0
 10 12  1  0  0  0  0
 10 13  2  0  0  0  0
 11  9  2  0  0  0  0
 12  8  2  0  0  0  0
 13 11  1  0  0  0  0
 15 16  1  0  0  0  0
 17  1  1  0  0  0  0
 18 17  1  0  0  0  0
 19 18  1  0  0  0  0
 20 19  1  0  0  0  0
 21 22  1  0  0  0  0
 22 20  1  6  0  0  0
 23 21  1  0  0  0  0
 23 22  1  0  0  0  0
 24 25  1  0  0  0  0
 26 25  1  0  0  0  0
 27 26  1  0  0  0  0
 28 30  2  0  0  0  0
 29 33  1  0  0  0  0
 29 27  1  0  0  0  0
 30 29  1  0  0  0  0
 31 32  1  0  0  0  0
 32 33  1  0  0  0  0
 34 31  1  0  0  0  0
 34 30  1  0  0  0  0
M  END
>  <MODEL>
5

>  <REMARK>
 VINA RESULT:      -7.0      3.103      6.078
  Name = 
  12 active torsions:
  status: ('A' for Active; 'I' for Inactive)
    1  A    between atoms: C_2  and  C_15
    2  A    between atoms: C_2  and  C_25
    3  A    between atoms: C_3  and  N_13
    4  A    between atoms: C_3  and  C_17
    5  A    between atoms: N_4  and  C_15
    6  A    between atoms: C_5  and  C_18
    7  A    between atoms: C_6  and  C_9
    8  A    between atoms: C_9  and  C_25
    9  A    between atoms: C_12  and  C_28
   10  A    between atoms: C_17  and  C_29
   11  A    between atoms: C_18  and  C_29
   12  A    between atoms: C_21  and  C_32
                            x       y       z     vdW  Elec       q    Type
                         _______ _______ _______ _____ _____    ______ ____

>  <TORSDO>
F 12

$$$$
=
 OpenBabel11052414143D

 34 37  0  0  1  0  0  0  0  0999 V2000
  189.3960  177.7430  141.3180 N   0  0  0  0  0  0  0  0  0  0  0  0
  187.1140  178.6180  142.0200 C   0  0  1  0  0  3  0  0  0  0  0  0
  187.8710  178.5560  139.7290 O   0  0  0  0  0  0  0  0  0  0  0  0
  189.6420  177.3630  142.7120 C   0  0  1  0  0  3  0  0  0  0  0  0
  187.3140  177.8180  143.1620 O   0  0  0  0  0  0  0  0  0  0  0  0
  188.6200  178.0770  143.6190 C   0  0  1  0  0  3  0  0  0  0  0  0
  188.1120  178.2750  140.9350 C   0  0  0  0  0  0  0  0  0  0  0  0
  190.2180  177.2350  146.9530 C   0  0  0  0  0  0  0  0  0  0  0  0
  189.1040  177.1350  147.7890 C   0  0  0  0  0  3  0  0  0  0  0  0
  188.7720  177.7620  145.0770 C   0  0  0  0  0  0  0  0  0  0  0  0
  187.8210  177.3440  147.2710 C   0  0  0  0  0  3  0  0  0  0  0  0
  190.0510  177.5440  145.5980 C   0  0  0  0  0  3  0  0  0  0  0  0
  187.6550  177.6560  145.9200 C   0  0  0  0  0  3  0  0  0  0  0  0
  191.4620  177.0330  147.4550 F   0  0  0  0  0  0  0  0  0  0  0  0
  190.9090  175.2850  143.2520 C   0  0  0  0  0  1  0  0  0  0  0  0
  189.5610  175.8450  142.8420 C   0  0  0  0  0  2  0  0  0  0  0  0
  190.5190  177.7370  140.3860 C   0  0  0  0  0  2  0  0  0  0  0  0
  190.5990  176.4200  139.6210 C   0  0  0  0  0  2  0  0  0  0  0  0
  191.3010  176.5870  138.2840 C   0  0  0  0  0  2  0  0  0  0  0  0
  192.7980  176.7310  138.4840 C   0  0  0  0  0  2  0  0  0  0  0  0
  194.6510  175.2560  137.9410 N   0  0  0  0  0  2  0  0  0  0  0  0
  193.5320  176.0190  137.3690 C   0  0  1  0  0  3  0  0  0  0  0  0
  193.4130  174.5760  137.5390 C   0  0  0  0  0  2  0  0  0  0  0  0
  185.6730  178.4500  141.5540 C   0  0  0  0  0  2  0  0  0  0  0  0
  184.6970  178.3680  142.7230 C   0  0  0  0  0  2  0  0  0  0  0  0
  183.2490  178.6110  142.3000 C   0  0  0  0  0  2  0  0  0  0  0  0
  183.0050  178.2050  140.8530 C   0  0  0  0  0  2  0  0  0  0  0  0
  184.0330  180.1620  139.0990 O   0  0  0  0  0  0  0  0  0  0  0  0
  182.1850  179.2010  140.1740 N   0  0  0  0  0  0  0  0  0  0  0  0
  182.7820  180.1160  139.2370 C   0  0  0  0  0  0  0  0  0  0  0  0
  180.5650  181.2440  138.9890 C   0  0  0  0  0  2  0  0  0  0  0  0
  179.9360  179.9510  139.4930 C   0  0  0  0  0  2  0  0  0  0  0  0
  180.7970  179.3740  140.6090 C   0  0  0  0  0  2  0  0  0  0  0  0
  181.9170  180.9560  138.3450 C   0  0  0  0  0  2  0  0  0  0  0  0
  1  4  1  0  0  0  0
  2 24  1  6  0  0  0
  2  5  1  0  0  0  0
  3  7  2  0  0  0  0
  4 16  1  6  0  0  0
  4  6  1  0  0  0  0
  5  6  1  0  0  0  0
  6 10  1  1  0  0  0
  7  1  1  0  0  0  0
  7  2  1  0  0  0  0
  8 14  1  0  0  0  0
  8  9  1  0  0  0  0
 10 12  1  0  0  0  0
 10 13  2  0  0  0  0
 11  9  2  0  0  0  0
 12  8  2  0  0  0  0
 13 11  1  0  0  0  0
 16 15  1  0  0  0  0
 17  1  1  0  0  0  0
 18 17  1  0  0  0  0
 19 20  1  0  0  0  0
 19 18  1  0  0  0  0
 22 23  1  0  0  0  0
 22 21  1  0  0  0  0
 22 20  1  1  0  0  0
 23 21  1  0  0  0  0
 24 25  1  0  0  0  0
 26 25  1  0  0  0  0
 27 26  1  0  0  0  0
 28 30  2  0  0  0  0
 29 33  1  0  0  0  0
 29 27  1  0  0  0  0
 30 29  1  0  0  0  0
 31 32  1  0  0  0  0
 32 33  1  0  0  0  0
 34 31  1  0  0  0  0
 34 30  1  0  0  0  0
M  END
>  <MODEL>
6

>  <REMARK>
 VINA RESULT:      -7.0      3.158      5.984
  Name = 
  12 active torsions:
  status: ('A' for Active; 'I' for Inactive)
    1  A    between atoms: C_2  and  C_15
    2  A    between atoms: C_2  and  C_25
    3  A    between atoms: C_3  and  N_13
    4  A    between atoms: C_3  and  C_17
    5  A    between atoms: N_4  and  C_15
    6  A    between atoms: C_5  and  C_18
    7  A    between atoms: C_6  and  C_9
    8  A    between atoms: C_9  and  C_25
    9  A    between atoms: C_12  and  C_28
   10  A    between atoms: C_17  and  C_29
   11  A    between atoms: C_18  and  C_29
   12  A    between atoms: C_21  and  C_32
                            x       y       z     vdW  Elec       q    Type
                         _______ _______ _______ _____ _____    ______ ____

>  <TORSDO>
F 12

$$$$
=
 OpenBabel11052414143D

 34 37  0  0  1  0  0  0  0  0999 V2000
  181.8120  178.7010  140.6870 N   0  0  0  0  0  0  0  0  0  0  0  0
  183.0960  179.1770  142.8300 C   0  0  1  0  0  3  0  0  0  0  0  0
  180.6880  179.2340  142.6780 O   0  0  0  0  0  0  0  0  0  0  0  0
  183.0840  178.3750  140.0370 C   0  0  1  0  0  3  0  0  0  0  0  0
  184.1200  178.4280  142.2170 O   0  0  0  0  0  0  0  0  0  0  0  0
  184.2450  178.9080  140.9010 C   0  0  1  0  0  3  0  0  0  0  0  0
  181.7830  179.0040  142.0960 C   0  0  0  0  0  0  0  0  0  0  0  0
  187.9830  178.3100  140.6920 C   0  0  0  0  0  0  0  0  0  0  0  0
  188.1740  178.1510  139.3170 C   0  0  0  0  0  3  0  0  0  0  0  0
  185.6050  178.6310  140.3340 C   0  0  0  0  0  0  0  0  0  0  0  0
  187.0810  178.2360  138.4470 C   0  0  0  0  0  3  0  0  0  0  0  0
  186.7020  178.5540  141.1980 C   0  0  0  0  0  3  0  0  0  0  0  0
  185.8010  178.4750  138.9530 C   0  0  0  0  0  3  0  0  0  0  0  0
  189.0420  178.2270  141.5360 F   0  0  0  0  0  0  0  0  0  0  0  0
  182.9060  176.5250  138.3750 C   0  0  0  0  0  1  0  0  0  0  0  0
  183.1720  176.8660  139.8290 C   0  0  0  0  0  2  0  0  0  0  0  0
  180.6290  178.8820  139.8520 C   0  0  0  0  0  2  0  0  0  0  0  0
  180.9630  179.6450  138.5740 C   0  0  0  0  0  2  0  0  0  0  0  0
  180.5930  181.1140  138.6820 C   0  0  0  0  0  2  0  0  0  0  0  0
  181.1860  181.8970  137.5260 C   0  0  0  0  0  2  0  0  0  0  0  0
  181.8680  184.2120  137.2410 N   0  0  0  0  0  2  0  0  0  0  0  0
  180.7420  183.3420  137.6090 C   0  0  1  0  0  3  0  0  0  0  0  0
  180.7850  183.9500  136.2840 C   0  0  0  0  0  2  0  0  0  0  0  0
  182.9990  178.7630  144.2940 C   0  0  0  0  0  2  0  0  0  0  0  0
  184.2370  179.1660  145.0880 C   0  0  0  0  0  2  0  0  0  0  0  0
  185.0190  177.9620  145.6120 C   0  0  0  0  0  2  0  0  0  0  0  0
  186.0160  178.3610  146.6910 C   0  0  0  0  0  2  0  0  0  0  0  0
  188.1400  178.1050  148.5310 O   0  0  0  0  0  0  0  0  0  0  0  0
  187.3610  177.9340  146.3270 N   0  0  0  0  0  0  0  0  0  0  0  0
  188.3670  177.7580  147.3410 C   0  0  0  0  0  0  0  0  0  0  0  0
  190.0310  177.2520  145.5470 C   0  0  0  0  0  2  0  0  0  0  0  0
  188.8490  176.8950  144.6560 C   0  0  0  0  0  2  0  0  0  0  0  0
  187.7140  177.8800  144.9060 C   0  0  0  0  0  2  0  0  0  0  0  0
  189.6590  177.0710  147.0150 C   0  0  0  0  0  2  0  0  0  0  0  0
  1  7  1  0  0  0  0
  2 24  1  1  0  0  0
  4 16  1  1  0  0  0
  4  1  1  0  0  0  0
  4  6  1  0  0  0  0
  5  2  1  0  0  0  0
  6 10  1  6  0  0  0
  6  5  1  0  0  0  0
  7  3  2  0  0  0  0
  7  2  1  0  0  0  0
  8 12  1  0  0  0  0
  8 14  1  0  0  0  0
  9  8  2  0  0  0  0
 10 12  2  0  0  0  0
 11 13  2  0  0  0  0
 11  9  1  0  0  0  0
 13 10  1  0  0  0  0
 15 16  1  0  0  0  0
 17  1  1  0  0  0  0
 18 19  1  0  0  0  0
 18 17  1  0  0  0  0
 20 19  1  0  0  0  0
 21 22  1  0  0  0  0
 22 20  1  6  0  0  0
 23 21  1  0  0  0  0
 23 22  1  0  0  0  0
 24 25  1  0  0  0  0
 25 26  1  0  0  0  0
 26 27  1  0  0  0  0
 29 27  1  0  0  0  0
 29 30  1  0  0  0  0
 30 28  2  0  0  0  0
 31 34  1  0  0  0  0
 32 33  1  0  0  0  0
 32 31  1  0  0  0  0
 33 29  1  0  0  0  0
 34 30  1  0  0  0  0
M  END
>  <MODEL>
7

>  <REMARK>
 VINA RESULT:      -6.9      3.055      8.754
  Name = 
  12 active torsions:
  status: ('A' for Active; 'I' for Inactive)
    1  A    between atoms: C_2  and  C_15
    2  A    between atoms: C_2  and  C_25
    3  A    between atoms: C_3  and  N_13
    4  A    between atoms: C_3  and  C_17
    5  A    between atoms: N_4  and  C_15
    6  A    between atoms: C_5  and  C_18
    7  A    between atoms: C_6  and  C_9
    8  A    between atoms: C_9  and  C_25
    9  A    between atoms: C_12  and  C_28
   10  A    between atoms: C_17  and  C_29
   11  A    between atoms: C_18  and  C_29
   12  A    between atoms: C_21  and  C_32
                            x       y       z     vdW  Elec       q    Type
                         _______ _______ _______ _____ _____    ______ ____

>  <TORSDO>
F 12

$$$$
=
 OpenBabel11052414143D

 34 37  0  0  1  0  0  0  0  0999 V2000
  185.1340  177.9820  138.1380 N   0  0  0  0  0  0  0  0  0  0  0  0
  187.2240  178.0260  139.5850 C   0  0  1  0  0  3  0  0  0  0  0  0
  187.2510  177.5580  137.2180 O   0  0  0  0  0  0  0  0  0  0  0  0
  184.3580  178.4150  139.3030 C   0  0  1  0  0  3  0  0  0  0  0  0
  186.4480  178.8370  140.4360 O   0  0  0  0  0  0  0  0  0  0  0  0
  185.1990  178.2040  140.5780 C   0  0  1  0  0  3  0  0  0  0  0  0
  186.5690  177.8790  138.2280 C   0  0  0  0  0  0  0  0  0  0  0  0
  184.6500  179.4130  144.1300 C   0  0  0  0  0  0  0  0  0  0  0  0
  183.2580  179.3610  144.2390 C   0  0  0  0  0  3  0  0  0  0  0  0
  184.5060  178.6160  141.8420 C   0  0  0  0  0  0  0  0  0  0  0  0
  182.4880  178.9330  143.1530 C   0  0  0  0  0  3  0  0  0  0  0  0
  185.2730  179.0360  142.9340 C   0  0  0  0  0  3  0  0  0  0  0  0
  183.1090  178.5610  141.9580 C   0  0  0  0  0  3  0  0  0  0  0  0
  185.3970  179.8280  145.1820 F   0  0  0  0  0  0  0  0  0  0  0  0
  182.4880  179.9600  138.7270 C   0  0  0  0  0  1  0  0  0  0  0  0
  183.9500  179.8740  139.1220 C   0  0  0  0  0  2  0  0  0  0  0  0
  184.4150  177.4960  136.9640 C   0  0  0  0  0  2  0  0  0  0  0  0
  183.9870  176.0430  137.1380 C   0  0  0  0  0  2  0  0  0  0  0  0
  182.5320  175.8340  136.7530 C   0  0  0  0  0  2  0  0  0  0  0  0
  181.6150  176.5190  137.7490 C   0  0  0  0  0  2  0  0  0  0  0  0
  180.8180  176.4970  140.0440 N   0  0  0  0  0  2  0  0  0  0  0  0
  181.7450  175.8530  139.1020 C   0  0  1  0  0  3  0  0  0  0  0  0
  180.4930  175.1930  139.4510 C   0  0  0  0  0  2  0  0  0  0  0  0
  188.6240  178.6190  139.4900 C   0  0  0  0  0  2  0  0  0  0  0  0
  189.6930  177.6510  139.9850 C   0  0  0  0  0  2  0  0  0  0  0  0
  189.9880  177.8110  141.4760 C   0  0  0  0  0  2  0  0  0  0  0  0
  189.7760  176.5090  142.2380 C   0  0  0  0  0  2  0  0  0  0  0  0
  191.6880  176.6160  144.3100 O   0  0  0  0  0  0  0  0  0  0  0  0
  189.4500  176.7810  143.6320 N   0  0  0  0  0  0  0  0  0  0  0  0
  190.4970  176.8920  144.6140 C   0  0  0  0  0  0  0  0  0  0  0  0
  188.7530  177.1540  146.3850 C   0  0  0  0  0  2  0  0  0  0  0  0
  187.8040  177.5970  145.2790 C   0  0  0  0  0  2  0  0  0  0  0  0
  188.0440  176.7440  144.0390 C   0  0  0  0  0  2  0  0  0  0  0  0
  190.1980  177.4290  145.9820 C   0  0  0  0  0  2  0  0  0  0  0  0
  1  7  1  0  0  0  0
  1  4  1  0  0  0  0
  2 24  1  6  0  0  0
  2  5  1  0  0  0  0
  3  7  2  0  0  0  0
  4 16  1  6  0  0  0
  4  6  1  0  0  0  0
  5  6  1  0  0  0  0
  6 10  1  1  0  0  0
  7  2  1  0  0  0  0
  8  9  1  0  0  0  0
  8 14  1  0  0  0  0
 10 13  2  0  0  0  0
 10 12  1  0  0  0  0
 11  9  2  0  0  0  0
 12  8  2  0  0  0  0
 13 11  1  0  0  0  0
 15 16  1  0  0  0  0
 17 18  1  0  0  0  0
 17  1  1  0  0  0  0
 19 18  1  0  0  0  0
 19 20  1  0  0  0  0
 22 20  1  6  0  0  0
 22 23  1  0  0  0  0
 22 21  1  0  0  0  0
 23 21  1  0  0  0  0
 24 25  1  0  0  0  0
 25 26  1  0  0  0  0
 26 27  1  0  0  0  0
 27 29  1  0  0  0  0
 28 30  2  0  0  0  0
 29 33  1  0  0  0  0
 29 30  1  0  0  0  0
 30 34  1  0  0  0  0
 32 31  1  0  0  0  0
 33 32  1  0  0  0  0
 34 31  1  0  0  0  0
M  END
>  <MODEL>
8

>  <REMARK>
 VINA RESULT:      -6.8      2.421      8.724
  Name = 
  12 active torsions:
  status: ('A' for Active; 'I' for Inactive)
    1  A    between atoms: C_2  and  C_15
    2  A    between atoms: C_2  and  C_25
    3  A    between atoms: C_3  and  N_13
    4  A    between atoms: C_3  and  C_17
    5  A    between atoms: N_4  and  C_15
    6  A    between atoms: C_5  and  C_18
    7  A    between atoms: C_6  and  C_9
    8  A    between atoms: C_9  and  C_25
    9  A    between atoms: C_12  and  C_28
   10  A    between atoms: C_17  and  C_29
   11  A    between atoms: C_18  and  C_29
   12  A    between atoms: C_21  and  C_32
                            x       y       z     vdW  Elec       q    Type
                         _______ _______ _______ _____ _____    ______ ____

>  <TORSDO>
F 12

$$$$
=
 OpenBabel11052414143D

 34 37  0  0  1  0  0  0  0  0999 V2000
  190.2580  177.5870  142.5790 N   0  0  0  0  0  0  0  0  0  0  0  0
  189.0790  178.1870  140.4070 C   0  0  1  0  0  3  0  0  0  0  0  0
  191.4370  177.6940  140.5520 O   0  0  0  0  0  0  0  0  0  0  0  0
  188.9580  177.6150  143.2530 C   0  0  1  0  0  3  0  0  0  0  0  0
  187.9220  177.7450  141.0770 O   0  0  0  0  0  0  0  0  0  0  0  0
  187.9360  178.3370  142.3530 C   0  0  1  0  0  3  0  0  0  0  0  0
  190.3300  177.7690  141.1500 C   0  0  0  0  0  0  0  0  0  0  0  0
  184.1630  178.6140  142.6100 C   0  0  0  0  0  0  0  0  0  0  0  0
  183.9690  178.6330  143.9930 C   0  0  0  0  0  3  0  0  0  0  0  0
  186.5590  178.4270  142.9400 C   0  0  0  0  0  0  0  0  0  0  0  0
  185.0690  178.5530  144.8530 C   0  0  0  0  0  3  0  0  0  0  0  0
  185.4570  178.5160  142.0850 C   0  0  0  0  0  3  0  0  0  0  0  0
  186.3610  178.4510  144.3290 C   0  0  0  0  0  3  0  0  0  0  0  0
  183.0970  178.6910  141.7760 F   0  0  0  0  0  0  0  0  0  0  0  0
  189.5270  175.2010  143.0080 C   0  0  0  0  0  1  0  0  0  0  0  0
  188.5270  176.1880  143.5770 C   0  0  0  0  0  2  0  0  0  0  0  0
  191.4670  177.5510  143.3960 C   0  0  0  0  0  2  0  0  0  0  0  0
  191.1580  177.8630  144.8570 C   0  0  0  0  0  2  0  0  0  0  0  0
  191.5860  176.7320  145.7770 C   0  0  0  0  0  2  0  0  0  0  0  0
  190.8410  176.8120  147.0960 C   0  0  0  0  0  2  0  0  0  0  0  0
  188.4640  176.7750  147.6010 N   0  0  0  0  0  2  0  0  0  0  0  0
  189.5170  177.5170  146.8920 C   0  0  1  0  0  3  0  0  0  0  0  0
  189.0180  178.0110  148.1690 C   0  0  0  0  0  2  0  0  0  0  0  0
  189.0500  177.6540  138.9790 C   0  0  0  0  0  2  0  0  0  0  0  0
  188.9900  178.7760  137.9480 C   0  0  0  0  0  2  0  0  0  0  0  0
  187.9830  178.4990  136.8330 C   0  0  0  0  0  2  0  0  0  0  0  0
  187.2610  177.1730  137.0380 C   0  0  0  0  0  2  0  0  0  0  0  0
  185.3240  176.5550  135.0830 O   0  0  0  0  0  0  0  0  0  0  0  0
  185.8310  177.3920  137.2130 N   0  0  0  0  0  0  0  0  0  0  0  0
  184.9040  176.9780  136.1930 C   0  0  0  0  0  0  0  0  0  0  0  0
  183.0480  177.9880  137.5270 C   0  0  0  0  0  2  0  0  0  0  0  0
  183.9540  177.8610  138.7440 C   0  0  0  0  0  2  0  0  0  0  0  0
  185.3840  178.2060  138.3450 C   0  0  0  0  0  2  0  0  0  0  0  0
  183.4310  176.9540  136.4740 C   0  0  0  0  0  2  0  0  0  0  0  0
  1  4  1  0  0  0  0
  1 17  1  0  0  0  0
  2 24  1  6  0  0  0
  2  5  1  0  0  0  0
  2  7  1  0  0  0  0
  3  7  2  0  0  0  0
  4 16  1  6  0  0  0
  5  6  1  0  0  0  0
  6 10  1  1  0  0  0
  6  4  1  0  0  0  0
  7  1  1  0  0  0  0
  8  9  1  0  0  0  0
  9 11  2  0  0  0  0
 10 13  2  0  0  0  0
 12  8  2  0  0  0  0
 12 10  1  0  0  0  0
 13 11  1  0  0  0  0
 14  8  1  0  0  0  0
 15 16  1  0  0  0  0
 17 18  1  0  0  0  0
 18 19  1  0  0  0  0
 19 20  1  0  0  0  0
 21 23  1  0  0  0  0
 22 20  1  1  0  0  0
 22 21  1  0  0  0  0
 22 23  1  0  0  0  0
 25 24  1  0  0  0  0
 26 27  1  0  0  0  0
 26 25  1  0  0  0  0
 27 29  1  0  0  0  0
 28 30  2  0  0  0  0
 29 33  1  0  0  0  0
 30 34  1  0  0  0  0
 30 29  1  0  0  0  0
 31 32  1  0  0  0  0
 33 32  1  0  0  0  0
 34 31  1  0  0  0  0
M  END
>  <MODEL>
9

>  <REMARK>
 VINA RESULT:      -6.7      2.267      4.643
  Name = 
  12 active torsions:
  status: ('A' for Active; 'I' for Inactive)
    1  A    between atoms: C_2  and  C_15
    2  A    between atoms: C_2  and  C_25
    3  A    between atoms: C_3  and  N_13
    4  A    between atoms: C_3  and  C_17
    5  A    between atoms: N_4  and  C_15
    6  A    between atoms: C_5  and  C_18
    7  A    between atoms: C_6  and  C_9
    8  A    between atoms: C_9  and  C_25
    9  A    between atoms: C_12  and  C_28
   10  A    between atoms: C_17  and  C_29
   11  A    between atoms: C_18  and  C_29
   12  A    between atoms: C_21  and  C_32
                            x       y       z     vdW  Elec       q    Type
                         _______ _______ _______ _____ _____    ______ ____

>  <TORSDO>
F 12

$$$$
