=
 OpenBabel11052416223D

 43 48  0  0  1  0  0  0  0  0999 V2000
  182.1010  179.0250  142.1630 C   0  0  0  0  0  0  0  0  0  0  0  0
  186.1270  178.0350  145.0810 C   0  0  0  0  0  0  0  0  0  0  0  0
  188.0700  177.0740  143.3260 C   0  0  0  0  0  0  0  0  0  0  0  0
  183.6220  178.7950  144.0350 C   0  0  0  0  0  0  0  0  0  0  0  0
  183.0770  178.5130  141.3030 C   0  0  0  0  0  3  0  0  0  0  0  0
  180.5370  179.4900  141.5330 Cl  0  0  0  0  0  0  0  0  0  0  0  0
  184.6140  178.2750  143.1700 C   0  0  0  0  0  0  0  0  0  0  0  0
  182.3740  179.1670  143.5270 C   0  0  0  0  0  3  0  0  0  0  0  0
  184.3270  178.1400  141.8030 C   0  0  0  0  0  3  0  0  0  0  0  0
  186.8410  177.4290  142.8660 N   0  0  0  0  0  0  0  0  0  0  0  0
  185.8680  177.9050  143.6920 C   0  0  0  0  0  0  0  0  0  0  0  0
  185.1290  178.5660  145.9110 C   0  0  0  0  0  3  0  0  0  0  0  0
  187.3960  177.6470  145.5800 C   0  0  0  0  0  0  0  0  0  0  0  0
  188.3610  177.1790  144.6840 C   0  0  0  0  0  3  0  0  0  0  0  0
  183.8880  178.9410  145.3950 C   0  0  0  0  0  3  0  0  0  0  0  0
  189.1130  176.5580  142.3870 C   0  0  1  0  0  3  0  0  0  0  0  0
  188.6610  176.7170  140.9450 C   0  0  0  0  0  2  0  0  0  0  0  0
  190.4050  177.3490  142.5380 C   0  0  0  0  0  2  0  0  0  0  0  0
  189.4410  177.8880  140.3950 C   0  0  1  0  0  3  0  0  0  0  0  0
  190.7420  177.9000  141.1670 C   0  0  0  0  0  2  0  0  0  0  0  0
  189.6970  177.6960  138.9100 C   0  0  0  0  0  2  0  0  0  0  0  0
  188.6050  178.2800  138.1310 N   0  0  0  0  0  0  0  0  0  0  0  0
  186.7380  177.7850  136.7400 C   0  0  0  0  0  2  0  0  0  0  0  0
  187.4250  178.3750  138.9770 C   0  0  0  0  0  2  0  0  0  0  0  0
  188.2010  177.4590  136.9760 C   0  0  1  0  0  0  0  0  0  0  0  0
  189.0110  177.8740  135.7590 C   0  0  0  0  0  1  0  0  0  0  0  0
  186.2130  178.2770  138.0720 C   0  0  0  0  0  2  0  0  0  0  0  0
  188.3470  175.9420  137.2260 C   0  0  0  0  0  2  0  0  0  0  0  0
  188.2490  175.1750  135.9840 N   0  0  0  0  0  0  0  0  0  0  0  0
  189.3150  173.1130  136.8880 C   0  0  0  0  0  2  0  0  0  0  0  0
  186.9660  173.2850  136.9740 C   0  0  0  0  0  2  0  0  0  0  0  0
  188.0720  172.3770  136.6990 N   0  0  0  0  0  2  0  0  0  0  0  0
  186.9780  174.4370  135.9630 C   0  0  0  0  0  2  0  0  0  0  0  0
  189.3970  174.2620  135.8770 C   0  0  0  0  0  2  0  0  0  0  0  0
  187.7670  177.7100  146.9670 N   0  0  0  0  0  2  0  0  0  0  0  0
  189.1060  177.9220  147.5030 C   0  0  1  0  0  3  0  0  0  0  0  0
  189.0370  178.3400  148.9640 C   0  0  0  0  0  1  0  0  0  0  0  0
  189.9650  176.6730  147.3140 C   0  0  0  0  0  2  0  0  0  0  0  0
  191.4460  176.9890  147.1080 C   0  0  2  0  0  3  0  0  0  0  0  0
  191.6610  177.4570  145.8100 O   0  0  0  0  0  1  0  0  0  0  0  0
  192.4360  174.8260  146.3320 O   0  0  0  0  0  0  0  0  0  0  0  0
  192.8340  175.6010  148.4510 O   0  0  0  0  0  1  0  0  0  0  0  0
  192.2700  175.7690  147.3400 C   0  0  0  0  0  0  0  0  0  0  0  0
  1  8  1  0  0  0  0
  2 13  1  0  0  0  0
  2 12  1  0  0  0  0
  3 14  1  0  0  0  0
  4 15  1  0  0  0  0
  5  9  1  0  0  0  0
  5  1  2  0  0  0  0
  6  1  1  0  0  0  0
  7 11  1  0  0  0  0
  7  4  1  0  0  0  0
  8  4  2  0  0  0  0
  9  7  2  0  0  0  0
 10  3  2  0  0  0  0
 10 11  1  0  0  0  0
 11  2  2  0  0  0  0
 13 35  1  0  0  0  0
 14 13  2  0  0  0  0
 15 12  2  0  0  0  0
 16 18  1  0  0  0  0
 16  3  1  1  0  0  0
 17 16  1  0  0  0  0
 19 21  1  6  0  0  0
 19 17  1  0  0  0  0
 19 20  1  0  0  0  0
 20 18  1  0  0  0  0
 22 21  1  0  0  0  0
 22 24  1  0  0  0  0
 23 25  1  0  0  0  0
 23 27  1  0  0  0  0
 25 26  1  6  0  0  0
 25 28  1  0  0  0  0
 25 22  1  0  0  0  0
 27 24  1  0  0  0  0
 29 28  1  0  0  0  0
 32 30  1  0  0  0  0
 32 31  1  0  0  0  0
 33 29  1  0  0  0  0
 33 31  1  0  0  0  0
 34 29  1  0  0  0  0
 34 30  1  0  0  0  0
 35 36  1  0  0  0  0
 36 37  1  1  0  0  0
 38 36  1  0  0  0  0
 39 40  1  6  0  0  0
 39 38  1  0  0  0  0
 39 43  1  0  0  0  0
 41 43  2  0  0  0  0
 43 42  1  0  0  0  0
M  END
>  <MODEL>
1

>  <REMARK>
 VINA RESULT:      -9.7      0.000      0.000
  Name = 
  10 active torsions:
  status: ('A' for Active; 'I' for Inactive)
    1  A    between atoms: C_1  and  C_9
    2  A    between atoms: C_1  and  N_35
    3  A    between atoms: C_2  and  C_13
    4  A    between atoms: C_3  and  N_4
    5  A    between atoms: C_3  and  C_12
    6  A    between atoms: C_9  and  C_32
    7  A    between atoms: N_11  and  C_14
    8  A    between atoms: C_14  and  C_22
    9  A    between atoms: C_32  and  C_37
   10  A    between atoms: C_34  and  N_35
                            x       y       z     vdW  Elec       q    Type
                         _______ _______ _______ _____ _____    ______ ____

>  <TORSDO>
F 10

$$$$
=
 OpenBabel11052416223D

 43 48  0  0  1  0  0  0  0  0999 V2000
  191.0250  176.5120  146.3540 C   0  0  0  0  0  0  0  0  0  0  0  0
  187.2370  178.1720  143.4220 C   0  0  0  0  0  0  0  0  0  0  0  0
  188.3110  178.2810  140.8500 C   0  0  0  0  0  0  0  0  0  0  0  0
  188.8800  177.2840  145.5330 C   0  0  0  0  0  0  0  0  0  0  0  0
  191.5550  176.6020  145.0640 C   0  0  0  0  0  3  0  0  0  0  0  0
  192.0340  175.9750  147.6780 Cl  0  0  0  0  0  0  0  0  0  0  0  0
  189.4100  177.3780  144.2240 C   0  0  0  0  0  0  0  0  0  0  0  0
  189.6890  176.8510  146.5880 C   0  0  0  0  0  3  0  0  0  0  0  0
  190.7530  177.0320  144.0030 C   0  0  0  0  0  3  0  0  0  0  0  0
  189.0770  177.8810  141.9000 N   0  0  0  0  0  0  0  0  0  0  0  0
  188.5860  177.8120  143.1690 C   0  0  0  0  0  0  0  0  0  0  0  0
  186.7360  178.0560  144.7270 C   0  0  0  0  0  3  0  0  0  0  0  0
  186.4330  178.6140  142.3410 C   0  0  0  0  0  0  0  0  0  0  0  0
  186.9840  178.6510  141.0580 C   0  0  0  0  0  3  0  0  0  0  0  0
  187.5480  177.6180  145.7730 C   0  0  0  0  0  3  0  0  0  0  0  0
  188.8850  178.3410  139.4710 C   0  0  1  0  0  3  0  0  0  0  0  0
  190.2180  177.6150  139.4130 C   0  0  0  0  0  2  0  0  0  0  0  0
  187.9600  177.6500  138.4780 C   0  0  0  0  0  2  0  0  0  0  0  0
  189.9450  176.3030  138.7160 C   0  0  1  0  0  3  0  0  0  0  0  0
  188.7800  176.5780  137.7910 C   0  0  0  0  0  2  0  0  0  0  0  0
  191.1670  175.8620  137.9300 C   0  0  0  0  0  2  0  0  0  0  0  0
  190.7590  175.1010  136.7490 N   0  0  0  0  0  0  0  0  0  0  0  0
  191.5320  174.0710  134.7470 C   0  0  0  0  0  2  0  0  0  0  0  0
  190.8890  173.6800  137.0400 C   0  0  0  0  0  2  0  0  0  0  0  0
  191.6080  175.3440  135.5700 C   0  0  1  0  0  0  0  0  0  0  0  0
  191.0290  176.4970  134.7660 C   0  0  0  0  0  1  0  0  0  0  0  0
  191.1710  172.9760  135.7280 C   0  0  0  0  0  2  0  0  0  0  0  0
  193.0830  175.6260  135.9280 C   0  0  0  0  0  2  0  0  0  0  0  0
  193.9720  174.5700  135.4410 N   0  0  0  0  0  0  0  0  0  0  0  0
  196.0250  175.9790  135.4090 C   0  0  0  0  0  2  0  0  0  0  0  0
  195.5700  174.7130  137.3450 C   0  0  0  0  0  2  0  0  0  0  0  0
  196.6280  175.1400  136.4370 N   0  0  0  0  0  2  0  0  0  0  0  0
  194.5530  173.8540  136.5860 C   0  0  0  0  0  2  0  0  0  0  0  0
  195.0190  175.1600  134.5940 C   0  0  0  0  0  2  0  0  0  0  0  0
  185.0620  179.0270  142.4770 N   0  0  0  0  0  2  0  0  0  0  0  0
  183.8890  178.1630  142.4940 C   0  0  1  0  0  3  0  0  0  0  0  0
  182.7600  178.8090  143.2810 C   0  0  0  0  0  1  0  0  0  0  0  0
  183.4560  177.8150  141.0700 C   0  0  0  0  0  2  0  0  0  0  0  0
  182.9750  179.0290  140.2760 C   0  0  2  0  0  3  0  0  0  0  0  0
  181.7030  178.7880  139.7540 O   0  0  0  0  0  1  0  0  0  0  0  0
  184.2980  178.3260  138.2730 O   0  0  0  0  0  0  0  0  0  0  0  0
  184.3710  180.4900  139.0210 O   0  0  0  0  0  1  0  0  0  0  0  0
  183.9220  179.3240  139.1650 C   0  0  0  0  0  0  0  0  0  0  0  0
  1  8  1  0  0  0  0
  1  6  1  0  0  0  0
  2 12  1  0  0  0  0
  3 14  2  0  0  0  0
  3 10  1  0  0  0  0
  4 15  1  0  0  0  0
  4  8  2  0  0  0  0
  5  1  2  0  0  0  0
  7  4  1  0  0  0  0
  9  7  2  0  0  0  0
  9  5  1  0  0  0  0
 10 11  2  0  0  0  0
 11  2  1  0  0  0  0
 11  7  1  0  0  0  0
 12 15  2  0  0  0  0
 13 35  1  0  0  0  0
 13  2  2  0  0  0  0
 14 13  1  0  0  0  0
 16  3  1  1  0  0  0
 17 16  1  0  0  0  0
 18 16  1  0  0  0  0
 19 21  1  6  0  0  0
 19 17  1  0  0  0  0
 20 18  1  0  0  0  0
 20 19  1  0  0  0  0
 22 24  1  0  0  0  0
 22 21  1  0  0  0  0
 23 25  1  0  0  0  0
 23 27  1  0  0  0  0
 25 26  1  6  0  0  0
 25 28  1  0  0  0  0
 25 22  1  0  0  0  0
 27 24  1  0  0  0  0
 29 28  1  0  0  0  0
 29 33  1  0  0  0  0
 30 32  1  0  0  0  0
 32 31  1  0  0  0  0
 33 31  1  0  0  0  0
 34 30  1  0  0  0  0
 34 29  1  0  0  0  0
 35 36  1  0  0  0  0
 36 37  1  6  0  0  0
 38 36  1  0  0  0  0
 39 40  1  6  0  0  0
 39 38  1  0  0  0  0
 41 43  2  0  0  0  0
 42 43  1  0  0  0  0
 43 39  1  0  0  0  0
M  END
>  <MODEL>
2

>  <REMARK>
 VINA RESULT:      -9.6      4.570      7.162
  Name = 
  10 active torsions:
  status: ('A' for Active; 'I' for Inactive)
    1  A    between atoms: C_1  and  C_9
    2  A    between atoms: C_1  and  N_35
    3  A    between atoms: C_2  and  C_13
    4  A    between atoms: C_3  and  N_4
    5  A    between atoms: C_3  and  C_12
    6  A    between atoms: C_9  and  C_32
    7  A    between atoms: N_11  and  C_14
    8  A    between atoms: C_14  and  C_22
    9  A    between atoms: C_32  and  C_37
   10  A    between atoms: C_34  and  N_35
                            x       y       z     vdW  Elec       q    Type
                         _______ _______ _______ _____ _____    ______ ____

>  <TORSDO>
F 10

$$$$
=
 OpenBabel11052416223D

 43 48  0  0  1  0  0  0  0  0999 V2000
  191.0710  176.5370  146.4220 C   0  0  0  0  0  0  0  0  0  0  0  0
  187.4610  178.0990  143.2230 C   0  0  0  0  0  0  0  0  0  0  0  0
  188.6640  178.0660  140.7080 C   0  0  0  0  0  0  0  0  0  0  0  0
  188.9820  177.2950  145.4570 C   0  0  0  0  0  0  0  0  0  0  0  0
  191.6660  176.5560  145.1580 C   0  0  0  0  0  3  0  0  0  0  0  0
  192.0030  176.0530  147.8210 Cl  0  0  0  0  0  0  0  0  0  0  0  0
  189.5780  177.3170  144.1740 C   0  0  0  0  0  0  0  0  0  0  0  0
  189.7300  176.9050  146.5710 C   0  0  0  0  0  3  0  0  0  0  0  0
  190.9240  176.9430  144.0380 C   0  0  0  0  0  3  0  0  0  0  0  0
  189.3700  177.7090  141.8140 N   0  0  0  0  0  0  0  0  0  0  0  0
  188.8150  177.7100  143.0570 C   0  0  0  0  0  0  0  0  0  0  0  0
  186.8940  178.0550  144.5060 C   0  0  0  0  0  3  0  0  0  0  0  0
  186.7190  178.4980  142.0830 C   0  0  0  0  0  0  0  0  0  0  0  0
  187.3350  178.4640  140.8300 C   0  0  0  0  0  3  0  0  0  0  0  0
  187.6450  177.6590  145.6120 C   0  0  0  0  0  3  0  0  0  0  0  0
  189.3070  178.0500  139.3580 C   0  0  1  0  0  3  0  0  0  0  0  0
  190.2620  176.8750  139.2340 C   0  0  0  0  0  2  0  0  0  0  0  0
  188.2560  177.8850  138.2690 C   0  0  0  0  0  2  0  0  0  0  0  0
  189.5540  175.8560  138.3710 C   0  0  1  0  0  3  0  0  0  0  0  0
  188.6470  176.6610  137.4670 C   0  0  0  0  0  2  0  0  0  0  0  0
  190.5640  175.0650  137.5580 C   0  0  0  0  0  2  0  0  0  0  0  0
  191.4080  175.9730  136.7810 N   0  0  0  0  0  0  0  0  0  0  0  0
  193.4760  176.1780  135.6220 C   0  0  0  0  0  2  0  0  0  0  0  0
  191.1070  175.7960  135.3680 C   0  0  0  0  0  2  0  0  0  0  0  0
  192.8490  175.7000  136.9180 C   0  0  1  0  0  0  0  0  0  0  0  0
  193.4050  176.5130  138.0760 C   0  0  0  0  0  1  0  0  0  0  0  0
  192.3670  176.1350  134.5940 C   0  0  0  0  0  2  0  0  0  0  0  0
  193.1690  174.2020  137.1110 C   0  0  0  0  0  2  0  0  0  0  0  0
  194.3430  173.7930  136.3380 N   0  0  0  0  0  0  0  0  0  0  0  0
  195.2250  172.2150  138.0520 C   0  0  0  0  0  2  0  0  0  0  0  0
  193.8100  171.3610  136.3710 C   0  0  0  0  0  2  0  0  0  0  0  0
  195.0190  171.0970  137.1400 N   0  0  0  0  0  2  0  0  0  0  0  0
  194.0040  172.6210  135.5190 C   0  0  0  0  0  2  0  0  0  0  0  0
  195.4580  173.5010  137.2510 C   0  0  0  0  0  2  0  0  0  0  0  0
  185.3500  178.9350  142.1280 N   0  0  0  0  0  2  0  0  0  0  0  0
  184.1760  178.1030  142.3610 C   0  0  1  0  0  3  0  0  0  0  0  0
  183.2420  178.7650  143.3620 C   0  0  0  0  0  1  0  0  0  0  0  0
  183.4650  177.7960  141.0440 C   0  0  0  0  0  2  0  0  0  0  0  0
  182.7820  179.0190  140.4320 C   0  0  2  0  0  3  0  0  0  0  0  0
  181.4200  178.7690  140.2500 O   0  0  0  0  0  1  0  0  0  0  0  0
  184.5200  180.1850  139.0610 O   0  0  0  0  0  1  0  0  0  0  0  0
  182.9330  178.8680  138.0630 O   0  0  0  0  0  0  0  0  0  0  0  0
  183.4060  179.3550  139.1210 C   0  0  0  0  0  0  0  0  0  0  0  0
  1  8  1  0  0  0  0
  1  6  1  0  0  0  0
  2 12  1  0  0  0  0
  3 14  2  0  0  0  0
  3 10  1  0  0  0  0
  4 15  1  0  0  0  0
  4  8  2  0  0  0  0
  5  1  2  0  0  0  0
  7  4  1  0  0  0  0
  9  7  2  0  0  0  0
  9  5  1  0  0  0  0
 10 11  2  0  0  0  0
 11  2  1  0  0  0  0
 11  7  1  0  0  0  0
 12 15  2  0  0  0  0
 13 35  1  0  0  0  0
 13  2  2  0  0  0  0
 14 13  1  0  0  0  0
 16  3  1  1  0  0  0
 17 16  1  0  0  0  0
 18 16  1  0  0  0  0
 19 21  1  6  0  0  0
 19 17  1  0  0  0  0
 20 18  1  0  0  0  0
 20 19  1  0  0  0  0
 22 25  1  0  0  0  0
 22 21  1  0  0  0  0
 23 25  1  0  0  0  0
 24 22  1  0  0  0  0
 25 28  1  0  0  0  0
 25 26  1  1  0  0  0
 27 24  1  0  0  0  0
 27 23  1  0  0  0  0
 29 28  1  0  0  0  0
 29 34  1  0  0  0  0
 31 32  1  0  0  0  0
 32 30  1  0  0  0  0
 33 29  1  0  0  0  0
 33 31  1  0  0  0  0
 34 30  1  0  0  0  0
 35 36  1  0  0  0  0
 36 37  1  1  0  0  0
 38 36  1  0  0  0  0
 39 40  1  6  0  0  0
 39 38  1  0  0  0  0
 41 43  1  0  0  0  0
 42 43  2  0  0  0  0
 43 39  1  0  0  0  0
M  END
>  <MODEL>
3

>  <REMARK>
 VINA RESULT:      -9.5      4.643      7.197
  Name = 
  10 active torsions:
  status: ('A' for Active; 'I' for Inactive)
    1  A    between atoms: C_1  and  C_9
    2  A    between atoms: C_1  and  N_35
    3  A    between atoms: C_2  and  C_13
    4  A    between atoms: C_3  and  N_4
    5  A    between atoms: C_3  and  C_12
    6  A    between atoms: C_9  and  C_32
    7  A    between atoms: N_11  and  C_14
    8  A    between atoms: C_14  and  C_22
    9  A    between atoms: C_32  and  C_37
   10  A    between atoms: C_34  and  N_35
                            x       y       z     vdW  Elec       q    Type
                         _______ _______ _______ _____ _____    ______ ____

>  <TORSDO>
F 10

$$$$
=
 OpenBabel11052416223D

 43 48  0  0  1  0  0  0  0  0999 V2000
  190.4560  177.0240  138.8670 C   0  0  0  0  0  0  0  0  0  0  0  0
  188.3740  177.2230  143.4850 C   0  0  0  0  0  0  0  0  0  0  0  0
  186.0230  178.6860  143.1530 C   0  0  0  0  0  0  0  0  0  0  0  0
  189.9940  176.7420  141.2290 C   0  0  0  0  0  0  0  0  0  0  0  0
  189.2900  177.7810  138.7250 C   0  0  0  0  0  3  0  0  0  0  0  0
  191.4790  176.7260  137.4790 Cl  0  0  0  0  0  0  0  0  0  0  0  0
  188.8110  177.5080  141.0930 C   0  0  0  0  0  0  0  0  0  0  0  0
  190.8070  176.5040  140.1170 C   0  0  0  0  0  3  0  0  0  0  0  0
  188.4700  178.0210  139.8320 C   0  0  0  0  0  3  0  0  0  0  0  0
  186.8440  178.4520  142.0950 N   0  0  0  0  0  0  0  0  0  0  0  0
  187.9980  177.7390  142.2180 C   0  0  0  0  0  0  0  0  0  0  0  0
  189.5450  176.4570  143.5870 C   0  0  0  0  0  3  0  0  0  0  0  0
  187.5410  177.4790  144.6030 C   0  0  0  0  0  0  0  0  0  0  0  0
  186.3610  178.2040  144.4160 C   0  0  0  0  0  3  0  0  0  0  0  0
  190.3480  176.2190  142.4710 C   0  0  0  0  0  3  0  0  0  0  0  0
  184.7620  179.4700  142.9780 C   0  0  1  0  0  3  0  0  0  0  0  0
  184.0200  179.0190  141.7320 C   0  0  0  0  0  2  0  0  0  0  0  0
  183.8270  179.2470  144.1580 C   0  0  0  0  0  2  0  0  0  0  0  0
  182.8580  178.1870  142.2230 C   0  0  1  0  0  3  0  0  0  0  0  0
  182.5180  178.7420  143.5880 C   0  0  0  0  0  2  0  0  0  0  0  0
  181.6780  178.3230  141.2760 C   0  0  0  0  0  2  0  0  0  0  0  0
  182.1120  178.9230  140.0140 N   0  0  0  0  0  0  0  0  0  0  0  0
  181.7840  178.9230  137.6570 C   0  0  0  0  0  2  0  0  0  0  0  0
  181.2520  180.0600  139.7180 C   0  0  0  0  0  2  0  0  0  0  0  0
  181.9860  178.0190  138.8580 C   0  0  1  0  0  0  0  0  0  0  0  0
  183.2810  177.2400  138.6880 C   0  0  0  0  0  1  0  0  0  0  0  0
  181.2050  180.2080  138.2090 C   0  0  0  0  0  2  0  0  0  0  0  0
  180.7880  177.0500  138.9680 C   0  0  0  0  0  2  0  0  0  0  0  0
  181.2220  175.6780  139.2310 N   0  0  0  0  0  0  0  0  0  0  0  0
  178.9330  174.7670  139.6000 C   0  0  0  0  0  2  0  0  0  0  0  0
  179.8470  174.6480  137.4290 C   0  0  0  0  0  2  0  0  0  0  0  0
  179.0740  173.9150  138.4250 N   0  0  0  0  0  2  0  0  0  0  0  0
  181.2550  174.9250  137.9690 C   0  0  0  0  0  2  0  0  0  0  0  0
  180.3140  175.0510  140.2020 C   0  0  0  0  0  2  0  0  0  0  0  0
  187.8280  177.0300  145.9380 N   0  0  0  0  0  2  0  0  0  0  0  0
  188.8140  177.5890  146.8540 C   0  0  1  0  0  3  0  0  0  0  0  0
  188.1350  178.1570  148.0900 C   0  0  0  0  0  1  0  0  0  0  0  0
  189.8640  176.5410  147.2190 C   0  0  0  0  0  2  0  0  0  0  0  0
  191.2950  177.0710  147.1360 C   0  0  2  0  0  3  0  0  0  0  0  0
  191.5410  177.5910  145.8640 O   0  0  0  0  0  1  0  0  0  0  0  0
  192.9990  175.9770  148.6050 O   0  0  0  0  0  1  0  0  0  0  0  0
  192.4100  175.0390  146.5990 O   0  0  0  0  0  0  0  0  0  0  0  0
  192.2660  175.9780  147.4230 C   0  0  0  0  0  0  0  0  0  0  0  0
  1  8  1  0  0  0  0
  2 12  1  0  0  0  0
  2 13  1  0  0  0  0
  3 14  1  0  0  0  0
  4 15  1  0  0  0  0
  5  1  2  0  0  0  0
  5  9  1  0  0  0  0
  6  1  1  0  0  0  0
  7  4  1  0  0  0  0
  7 11  1  0  0  0  0
  8  4  2  0  0  0  0
  9  7  2  0  0  0  0
 10 11  1  0  0  0  0
 10  3  2  0  0  0  0
 11  2  2  0  0  0  0
 13 35  1  0  0  0  0
 14 13  2  0  0  0  0
 15 12  2  0  0  0  0
 16  3  1  1  0  0  0
 16 18  1  0  0  0  0
 17 19  1  0  0  0  0
 17 16  1  0  0  0  0
 19 21  1  6  0  0  0
 19 20  1  0  0  0  0
 20 18  1  0  0  0  0
 22 21  1  0  0  0  0
 23 27  1  0  0  0  0
 23 25  1  0  0  0  0
 24 22  1  0  0  0  0
 25 26  1  6  0  0  0
 25 28  1  0  0  0  0
 25 22  1  0  0  0  0
 27 24  1  0  0  0  0
 28 29  1  0  0  0  0
 29 34  1  0  0  0  0
 30 34  1  0  0  0  0
 31 33  1  0  0  0  0
 31 32  1  0  0  0  0
 32 30  1  0  0  0  0
 33 29  1  0  0  0  0
 35 36  1  0  0  0  0
 36 38  1  0  0  0  0
 36 37  1  1  0  0  0
 39 40  1  6  0  0  0
 39 38  1  0  0  0  0
 39 43  1  0  0  0  0
 42 43  2  0  0  0  0
 43 41  1  0  0  0  0
M  END
>  <MODEL>
4

>  <REMARK>
 VINA RESULT:      -9.4      3.500      6.161
  Name = 
  10 active torsions:
  status: ('A' for Active; 'I' for Inactive)
    1  A    between atoms: C_1  and  C_9
    2  A    between atoms: C_1  and  N_35
    3  A    between atoms: C_2  and  C_13
    4  A    between atoms: C_3  and  N_4
    5  A    between atoms: C_3  and  C_12
    6  A    between atoms: C_9  and  C_32
    7  A    between atoms: N_11  and  C_14
    8  A    between atoms: C_14  and  C_22
    9  A    between atoms: C_32  and  C_37
   10  A    between atoms: C_34  and  N_35
                            x       y       z     vdW  Elec       q    Type
                         _______ _______ _______ _____ _____    ______ ____

>  <TORSDO>
F 10

$$$$
=
 OpenBabel11052416223D

 43 48  0  0  1  0  0  0  0  0999 V2000
  191.0040  176.6900  146.2680 C   0  0  0  0  0  0  0  0  0  0  0  0
  189.6210  177.6290  141.4820 C   0  0  0  0  0  0  0  0  0  0  0  0
  187.0650  178.7280  141.6740 C   0  0  0  0  0  0  0  0  0  0  0  0
  190.9590  176.9060  143.8550 C   0  0  0  0  0  0  0  0  0  0  0  0
  189.7100  177.2140  146.3430 C   0  0  0  0  0  3  0  0  0  0  0  0
  191.8440  176.2250  147.7310 Cl  0  0  0  0  0  0  0  0  0  0  0  0
  189.6490  177.4370  143.9230 C   0  0  0  0  0  0  0  0  0  0  0  0
  191.6280  176.5380  145.0270 C   0  0  0  0  0  3  0  0  0  0  0  0
  189.0360  177.5870  145.1770 C   0  0  0  0  0  3  0  0  0  0  0  0
  187.7350  178.3440  142.7920 N   0  0  0  0  0  0  0  0  0  0  0  0
  188.9850  177.8070  142.7380 C   0  0  0  0  0  0  0  0  0  0  0  0
  190.9250  177.1130  141.4470 C   0  0  0  0  0  3  0  0  0  0  0  0
  188.9250  178.0020  140.3050 C   0  0  0  0  0  0  0  0  0  0  0  0
  187.6510  178.5620  140.4200 C   0  0  0  0  0  3  0  0  0  0  0  0
  191.5870  176.7530  142.6210 C   0  0  0  0  0  3  0  0  0  0  0  0
  185.6940  179.3170  141.7730 C   0  0  1  0  0  3  0  0  0  0  0  0
  184.8270  178.8520  140.6160 C   0  0  0  0  0  2  0  0  0  0  0  0
  185.0090  178.8590  143.0530 C   0  0  0  0  0  2  0  0  0  0  0  0
  183.8930  177.8120  141.1900 C   0  0  1  0  0  3  0  0  0  0  0  0
  183.7090  178.1990  142.6410 C   0  0  0  0  0  2  0  0  0  0  0  0
  182.5660  177.8340  140.4530 C   0  0  0  0  0  2  0  0  0  0  0  0
  181.9380  179.1490  140.5840 N   0  0  0  0  0  0  0  0  0  0  0  0
  180.3190  180.6230  139.6500 C   0  0  0  0  0  2  0  0  0  0  0  0
  180.7410  179.0170  141.4020 C   0  0  0  0  0  2  0  0  0  0  0  0
  181.4830  179.7140  139.3010 C   0  0  1  0  0  0  0  0  0  0  0  0
  182.6030  180.5430  138.6940 C   0  0  0  0  0  1  0  0  0  0  0  0
  179.7740  180.0980  140.9610 C   0  0  0  0  0  2  0  0  0  0  0  0
  181.0030  178.6420  138.2990 C   0  0  0  0  0  2  0  0  0  0  0  0
  181.6960  178.7520  137.0140 N   0  0  0  0  0  0  0  0  0  0  0  0
  181.5400  176.3310  136.4480 C   0  0  0  0  0  2  0  0  0  0  0  0
  179.8450  177.7720  135.6670 C   0  0  0  0  0  2  0  0  0  0  0  0
  180.6940  176.6440  135.3020 N   0  0  0  0  0  2  0  0  0  0  0  0
  180.7130  179.0030  135.9500 C   0  0  0  0  0  2  0  0  0  0  0  0
  182.4560  177.5200  136.7570 C   0  0  0  0  0  2  0  0  0  0  0  0
  189.4550  177.8490  138.9770 N   0  0  0  0  0  2  0  0  0  0  0  0
  189.6330  176.6000  138.2480 C   0  0  1  0  0  3  0  0  0  0  0  0
  188.3150  176.1390  137.6460 C   0  0  0  0  0  1  0  0  0  0  0  0
  190.7180  176.7500  137.1810 C   0  0  0  0  0  2  0  0  0  0  0  0
  191.7970  175.6700  137.2680 C   0  0  2  0  0  3  0  0  0  0  0  0
  191.4420  174.7110  138.2190 O   0  0  0  0  0  1  0  0  0  0  0  0
  194.1800  176.2360  136.7600 O   0  0  0  0  0  0  0  0  0  0  0  0
  193.2310  176.8560  138.7510 O   0  0  0  0  0  1  0  0  0  0  0  0
  193.1040  176.2800  137.6400 C   0  0  0  0  0  0  0  0  0  0  0  0
  1  5  1  0  0  0  0
  1  6  1  0  0  0  0
  2 11  1  0  0  0  0
  3 10  1  0  0  0  0
  4  7  2  0  0  0  0
  4  8  1  0  0  0  0
  7  9  1  0  0  0  0
  8  1  2  0  0  0  0
  9  5  2  0  0  0  0
 11 10  2  0  0  0  0
 11  7  1  0  0  0  0
 12  2  1  0  0  0  0
 12 15  2  0  0  0  0
 13 14  1  0  0  0  0
 13  2  2  0  0  0  0
 14  3  2  0  0  0  0
 15  4  1  0  0  0  0
 16  3  1  6  0  0  0
 16 18  1  0  0  0  0
 17 19  1  0  0  0  0
 17 16  1  0  0  0  0
 19 21  1  6  0  0  0
 19 20  1  0  0  0  0
 20 18  1  0  0  0  0
 21 22  1  0  0  0  0
 22 24  1  0  0  0  0
 23 27  1  0  0  0  0
 25 26  1  6  0  0  0
 25 23  1  0  0  0  0
 25 22  1  0  0  0  0
 27 24  1  0  0  0  0
 28 25  1  0  0  0  0
 29 28  1  0  0  0  0
 30 34  1  0  0  0  0
 31 33  1  0  0  0  0
 32 31  1  0  0  0  0
 32 30  1  0  0  0  0
 33 29  1  0  0  0  0
 34 29  1  0  0  0  0
 35 13  1  0  0  0  0
 36 37  1  6  0  0  0
 36 35  1  0  0  0  0
 38 39  1  0  0  0  0
 38 36  1  0  0  0  0
 39 43  1  0  0  0  0
 39 40  1  1  0  0  0
 41 43  2  0  0  0  0
 43 42  1  0  0  0  0
M  END
>  <MODEL>
5

>  <REMARK>
 VINA RESULT:      -9.3      4.240      7.801
  Name = 
  10 active torsions:
  status: ('A' for Active; 'I' for Inactive)
    1  A    between atoms: C_1  and  C_9
    2  A    between atoms: C_1  and  N_35
    3  A    between atoms: C_2  and  C_13
    4  A    between atoms: C_3  and  N_4
    5  A    between atoms: C_3  and  C_12
    6  A    between atoms: C_9  and  C_32
    7  A    between atoms: N_11  and  C_14
    8  A    between atoms: C_14  and  C_22
    9  A    between atoms: C_32  and  C_37
   10  A    between atoms: C_34  and  N_35
                            x       y       z     vdW  Elec       q    Type
                         _______ _______ _______ _____ _____    ______ ____

>  <TORSDO>
F 10

$$$$
=
 OpenBabel11052416223D

 43 48  0  0  1  0  0  0  0  0999 V2000
  187.9440  177.5030  146.7580 C   0  0  0  0  0  0  0  0  0  0  0  0
  186.0920  178.4360  142.1320 C   0  0  0  0  0  0  0  0  0  0  0  0
  188.3030  178.3330  140.4360 C   0  0  0  0  0  0  0  0  0  0  0  0
  186.4790  177.9660  144.8840 C   0  0  0  0  0  0  0  0  0  0  0  0
  189.0460  177.4860  145.8970 C   0  0  0  0  0  3  0  0  0  0  0  0
  188.1690  177.2250  148.4710 Cl  0  0  0  0  0  0  0  0  0  0  0  0
  187.5900  177.9500  144.0070 C   0  0  0  0  0  0  0  0  0  0  0  0
  186.6630  177.7410  146.2520 C   0  0  0  0  0  3  0  0  0  0  0  0
  188.8700  177.7070  144.5290 C   0  0  0  0  0  3  0  0  0  0  0  0
  188.4510  178.1370  141.7730 N   0  0  0  0  0  0  0  0  0  0  0  0
  187.3940  178.1760  142.6310 C   0  0  0  0  0  0  0  0  0  0  0  0
  185.0090  178.4320  143.0240 C   0  0  0  0  0  3  0  0  0  0  0  0
  185.9250  178.6680  140.7440 C   0  0  0  0  0  0  0  0  0  0  0  0
  187.0420  178.6010  139.9080 C   0  0  0  0  0  3  0  0  0  0  0  0
  185.1990  178.2000  144.3860 C   0  0  0  0  0  3  0  0  0  0  0  0
  189.4880  178.2810  139.5250 C   0  0  1  0  0  3  0  0  0  0  0  0
  190.1830  176.9340  139.6290 C   0  0  0  0  0  2  0  0  0  0  0  0
  189.0530  178.4450  138.0750 C   0  0  0  0  0  2  0  0  0  0  0  0
  189.8010  176.1740  138.3810 C   0  0  1  0  0  3  0  0  0  0  0  0
  189.5650  177.2320  137.3260 C   0  0  0  0  0  2  0  0  0  0  0  0
  190.9280  175.2430  137.9680 C   0  0  0  0  0  2  0  0  0  0  0  0
  190.7310  174.7940  136.5890 N   0  0  0  0  0  0  0  0  0  0  0  0
  191.5600  173.3520  134.8870 C   0  0  0  0  0  2  0  0  0  0  0  0
  189.8790  173.6130  136.5990 C   0  0  0  0  0  2  0  0  0  0  0  0
  191.9780  174.3790  135.9230 C   0  0  1  0  0  0  0  0  0  0  0  0
  192.5930  175.5780  135.2210 C   0  0  0  0  0  1  0  0  0  0  0  0
  190.2510  172.7810  135.3870 C   0  0  0  0  0  2  0  0  0  0  0  0
  193.0000  173.7370  136.8860 C   0  0  0  0  0  2  0  0  0  0  0  0
  194.3770  173.9630  136.4440 N   0  0  0  0  0  0  0  0  0  0  0  0
  195.3850  173.8230  138.7180 C   0  0  0  0  0  2  0  0  0  0  0  0
  195.2830  171.8580  137.4190 C   0  0  0  0  0  2  0  0  0  0  0  0
  196.1240  172.6290  138.3270 N   0  0  0  0  0  2  0  0  0  0  0  0
  195.0130  172.6710  136.1480 C   0  0  0  0  0  2  0  0  0  0  0  0
  195.1150  174.6930  137.4860 C   0  0  0  0  0  2  0  0  0  0  0  0
  184.6610  178.9640  140.1240 N   0  0  0  0  0  2  0  0  0  0  0  0
  183.6120  178.0110  139.7850 C   0  0  1  0  0  3  0  0  0  0  0  0
  182.3330  178.3320  140.5410 C   0  0  0  0  0  1  0  0  0  0  0  0
  183.3810  177.9810  138.2740 C   0  0  0  0  0  2  0  0  0  0  0  0
  183.5630  176.5890  137.6680 C   0  0  2  0  0  3  0  0  0  0  0  0
  183.3640  175.6100  138.6430 O   0  0  0  0  0  1  0  0  0  0  0  0
  185.3690  175.2310  136.5930 O   0  0  0  0  0  0  0  0  0  0  0  0
  185.6920  177.4530  137.0510 O   0  0  0  0  0  1  0  0  0  0  0  0
  184.9320  176.4520  137.0960 C   0  0  0  0  0  0  0  0  0  0  0  0
  1  6  1  0  0  0  0
  2 11  1  0  0  0  0
  2 12  1  0  0  0  0
  3 10  1  0  0  0  0
  4  8  2  0  0  0  0
  5  1  2  0  0  0  0
  7  9  2  0  0  0  0
  7  4  1  0  0  0  0
  8  1  1  0  0  0  0
  9  5  1  0  0  0  0
 10 11  2  0  0  0  0
 11  7  1  0  0  0  0
 12 15  2  0  0  0  0
 13  2  2  0  0  0  0
 14  3  2  0  0  0  0
 14 13  1  0  0  0  0
 15  4  1  0  0  0  0
 16 17  1  0  0  0  0
 16  3  1  1  0  0  0
 18 16  1  0  0  0  0
 19 21  1  6  0  0  0
 19 17  1  0  0  0  0
 20 18  1  0  0  0  0
 20 19  1  0  0  0  0
 22 24  1  0  0  0  0
 22 21  1  0  0  0  0
 23 27  1  0  0  0  0
 23 25  1  0  0  0  0
 25 26  1  6  0  0  0
 25 22  1  0  0  0  0
 25 28  1  0  0  0  0
 27 24  1  0  0  0  0
 29 28  1  0  0  0  0
 29 34  1  0  0  0  0
 31 32  1  0  0  0  0
 32 30  1  0  0  0  0
 33 29  1  0  0  0  0
 33 31  1  0  0  0  0
 34 30  1  0  0  0  0
 35 13  1  0  0  0  0
 36 35  1  0  0  0  0
 36 37  1  1  0  0  0
 38 36  1  0  0  0  0
 39 38  1  0  0  0  0
 39 40  1  1  0  0  0
 41 43  2  0  0  0  0
 42 43  1  0  0  0  0
 43 39  1  0  0  0  0
M  END
>  <MODEL>
6

>  <REMARK>
 VINA RESULT:      -9.0      4.479      7.094
  Name = 
  10 active torsions:
  status: ('A' for Active; 'I' for Inactive)
    1  A    between atoms: C_1  and  C_9
    2  A    between atoms: C_1  and  N_35
    3  A    between atoms: C_2  and  C_13
    4  A    between atoms: C_3  and  N_4
    5  A    between atoms: C_3  and  C_12
    6  A    between atoms: C_9  and  C_32
    7  A    between atoms: N_11  and  C_14
    8  A    between atoms: C_14  and  C_22
    9  A    between atoms: C_32  and  C_37
   10  A    between atoms: C_34  and  N_35
                            x       y       z     vdW  Elec       q    Type
                         _______ _______ _______ _____ _____    ______ ____

>  <TORSDO>
F 10

$$$$
=
 OpenBabel11052416223D

 43 48  0  0  1  0  0  0  0  0999 V2000
  181.9410  179.6870  139.7170 C   0  0  0  0  0  0  0  0  0  0  0  0
  185.8810  178.0550  142.4580 C   0  0  0  0  0  0  0  0  0  0  0  0
  188.0820  178.2770  140.7600 C   0  0  0  0  0  0  0  0  0  0  0  0
  183.3510  178.8470  141.4990 C   0  0  0  0  0  0  0  0  0  0  0  0
  183.0510  179.7630  138.8700 C   0  0  0  0  0  3  0  0  0  0  0  0
  180.3620  180.1640  139.1340 Cl  0  0  0  0  0  0  0  0  0  0  0  0
  184.4790  178.9210  140.6470 C   0  0  0  0  0  0  0  0  0  0  0  0
  182.0920  179.2310  141.0300 C   0  0  0  0  0  3  0  0  0  0  0  0
  184.3140  179.3830  139.3320 C   0  0  0  0  0  3  0  0  0  0  0  0
  186.8410  178.6260  140.3290 N   0  0  0  0  0  0  0  0  0  0  0  0
  185.7440  178.5340  141.1300 C   0  0  0  0  0  0  0  0  0  0  0  0
  184.7470  178.0050  143.2830 C   0  0  0  0  0  3  0  0  0  0  0  0
  187.1650  177.6640  142.9150 C   0  0  0  0  0  0  0  0  0  0  0  0
  188.2570  177.7930  142.0550 C   0  0  0  0  0  3  0  0  0  0  0  0
  183.4950  178.3960  142.8100 C   0  0  0  0  0  3  0  0  0  0  0  0
  189.2630  178.3940  139.8510 C   0  0  1  0  0  3  0  0  0  0  0  0
  190.0750  177.1100  139.8610 C   0  0  0  0  0  2  0  0  0  0  0  0
  188.8110  178.6240  138.4160 C   0  0  0  0  0  2  0  0  0  0  0  0
  189.7570  176.4110  138.5590 C   0  0  1  0  0  3  0  0  0  0  0  0
  189.4260  177.5180  137.5830 C   0  0  0  0  0  2  0  0  0  0  0  0
  190.9600  175.6150  138.0840 C   0  0  0  0  0  2  0  0  0  0  0  0
  190.7110  175.0750  136.7480 N   0  0  0  0  0  0  0  0  0  0  0  0
  191.4690  173.5140  135.1190 C   0  0  0  0  0  2  0  0  0  0  0  0
  189.8540  173.9040  136.8690 C   0  0  0  0  0  2  0  0  0  0  0  0
  191.9300  174.6050  136.0660 C   0  0  1  0  0  0  0  0  0  0  0  0
  192.5260  175.7500  135.2620 C   0  0  0  0  0  1  0  0  0  0  0  0
  190.1770  172.9880  135.7050 C   0  0  0  0  0  2  0  0  0  0  0  0
  192.9840  174.0230  137.0330 C   0  0  0  0  0  2  0  0  0  0  0  0
  194.3380  174.4520  136.6830 N   0  0  0  0  0  0  0  0  0  0  0  0
  195.4230  173.5160  138.7200 C   0  0  0  0  0  2  0  0  0  0  0  0
  195.3390  172.1740  136.7840 C   0  0  0  0  0  2  0  0  0  0  0  0
  196.1850  172.5840  137.8980 N   0  0  0  0  0  2  0  0  0  0  0  0
  195.0030  173.3900  135.9130 C   0  0  0  0  0  2  0  0  0  0  0  0
  195.0870  174.7700  137.9070 C   0  0  0  0  0  2  0  0  0  0  0  0
  187.4250  177.1410  144.2290 N   0  0  0  0  0  2  0  0  0  0  0  0
  187.8580  177.8970  145.3980 C   0  0  1  0  0  3  0  0  0  0  0  0
  186.6810  178.1780  146.3190 C   0  0  0  0  0  1  0  0  0  0  0  0
  188.9810  177.1620  146.1280 C   0  0  0  0  0  2  0  0  0  0  0  0
  190.3540  177.7990  145.9110 C   0  0  2  0  0  3  0  0  0  0  0  0
  190.3670  178.5170  144.7140 O   0  0  0  0  0  1  0  0  0  0  0  0
  192.0830  176.3790  147.0310 O   0  0  0  0  0  1  0  0  0  0  0  0
  191.6750  176.1720  144.7850 O   0  0  0  0  0  0  0  0  0  0  0  0
  191.4080  176.7460  145.8720 C   0  0  0  0  0  0  0  0  0  0  0  0
  1  8  1  0  0  0  0
  2 13  1  0  0  0  0
  2 12  1  0  0  0  0
  3 14  1  0  0  0  0
  4 15  1  0  0  0  0
  5  9  1  0  0  0  0
  5  1  2  0  0  0  0
  6  1  1  0  0  0  0
  7 11  1  0  0  0  0
  7  4  1  0  0  0  0
  8  4  2  0  0  0  0
  9  7  2  0  0  0  0
 10  3  2  0  0  0  0
 10 11  1  0  0  0  0
 11  2  2  0  0  0  0
 13 35  1  0  0  0  0
 14 13  2  0  0  0  0
 15 12  2  0  0  0  0
 16 17  1  0  0  0  0
 16  3  1  1  0  0  0
 18 16  1  0  0  0  0
 19 21  1  6  0  0  0
 19 17  1  0  0  0  0
 20 18  1  0  0  0  0
 20 19  1  0  0  0  0
 22 24  1  0  0  0  0
 22 21  1  0  0  0  0
 23 27  1  0  0  0  0
 23 25  1  0  0  0  0
 25 26  1  6  0  0  0
 25 22  1  0  0  0  0
 25 28  1  0  0  0  0
 27 24  1  0  0  0  0
 29 28  1  0  0  0  0
 29 34  1  0  0  0  0
 31 32  1  0  0  0  0
 32 30  1  0  0  0  0
 33 29  1  0  0  0  0
 33 31  1  0  0  0  0
 34 30  1  0  0  0  0
 35 36  1  0  0  0  0
 36 38  1  0  0  0  0
 36 37  1  1  0  0  0
 39 40  1  6  0  0  0
 39 38  1  0  0  0  0
 42 43  2  0  0  0  0
 43 39  1  0  0  0  0
 43 41  1  0  0  0  0
M  END
>  <MODEL>
7

>  <REMARK>
 VINA RESULT:      -9.0      2.986      4.178
  Name = 
  10 active torsions:
  status: ('A' for Active; 'I' for Inactive)
    1  A    between atoms: C_1  and  C_9
    2  A    between atoms: C_1  and  N_35
    3  A    between atoms: C_2  and  C_13
    4  A    between atoms: C_3  and  N_4
    5  A    between atoms: C_3  and  C_12
    6  A    between atoms: C_9  and  C_32
    7  A    between atoms: N_11  and  C_14
    8  A    between atoms: C_14  and  C_22
    9  A    between atoms: C_32  and  C_37
   10  A    between atoms: C_34  and  N_35
                            x       y       z     vdW  Elec       q    Type
                         _______ _______ _______ _____ _____    ______ ____

>  <TORSDO>
F 10

$$$$
=
 OpenBabel11052416223D

 43 48  0  0  1  0  0  0  0  0999 V2000
  191.0280  176.7480  146.2770 C   0  0  0  0  0  0  0  0  0  0  0  0
  189.5210  177.6070  141.5140 C   0  0  0  0  0  0  0  0  0  0  0  0
  186.9850  178.7420  141.7540 C   0  0  0  0  0  0  0  0  0  0  0  0
  190.9180  176.9150  143.8620 C   0  0  0  0  0  0  0  0  0  0  0  0
  189.7440  177.2900  146.3770 C   0  0  0  0  0  3  0  0  0  0  0  0
  191.9040  176.3020  147.7240 Cl  0  0  0  0  0  0  0  0  0  0  0  0
  189.6170  177.4640  143.9560 C   0  0  0  0  0  0  0  0  0  0  0  0
  191.6150  176.5620  145.0220 C   0  0  0  0  0  3  0  0  0  0  0  0
  189.0410  177.6470  145.2230 C   0  0  0  0  0  3  0  0  0  0  0  0
  187.6820  178.3720  142.8610 N   0  0  0  0  0  0  0  0  0  0  0  0
  188.9240  177.8180  142.7830 C   0  0  0  0  0  0  0  0  0  0  0  0
  190.8170  177.0730  141.4530 C   0  0  0  0  0  3  0  0  0  0  0  0
  188.7970  177.9650  140.3490 C   0  0  0  0  0  0  0  0  0  0  0  0
  187.5330  178.5430  140.4880 C   0  0  0  0  0  3  0  0  0  0  0  0
  191.5090  176.7300  142.6140 C   0  0  0  0  0  3  0  0  0  0  0  0
  185.6250  179.3490  141.8800 C   0  0  1  0  0  3  0  0  0  0  0  0
  184.7330  178.9090  140.7320 C   0  0  0  0  0  2  0  0  0  0  0  0
  184.9520  178.8900  143.1660 C   0  0  0  0  0  2  0  0  0  0  0  0
  183.7930  177.8770  141.3110 C   0  0  1  0  0  3  0  0  0  0  0  0
  183.6360  178.2530  142.7670 C   0  0  0  0  0  2  0  0  0  0  0  0
  182.4550  177.9260  140.5940 C   0  0  0  0  0  2  0  0  0  0  0  0
  181.8820  179.2690  140.6870 N   0  0  0  0  0  0  0  0  0  0  0  0
  180.2910  180.7640  139.7390 C   0  0  0  0  0  2  0  0  0  0  0  0
  180.7080  179.2180  141.5450 C   0  0  0  0  0  2  0  0  0  0  0  0
  181.4080  179.7970  139.3950 C   0  0  1  0  0  0  0  0  0  0  0  0
  182.5390  180.5550  138.7190 C   0  0  0  0  0  1  0  0  0  0  0  0
  179.7680  180.3160  141.0870 C   0  0  0  0  0  2  0  0  0  0  0  0
  180.8570  178.7040  138.4550 C   0  0  0  0  0  2  0  0  0  0  0  0
  181.5010  178.7420  137.1410 N   0  0  0  0  0  0  0  0  0  0  0  0
  181.2820  176.3020  136.6920 C   0  0  0  0  0  2  0  0  0  0  0  0
  179.5840  177.7380  135.9100 C   0  0  0  0  0  2  0  0  0  0  0  0
  180.3990  176.5790  135.5660 N   0  0  0  0  0  2  0  0  0  0  0  0
  180.4830  178.9640  136.1040 C   0  0  0  0  0  2  0  0  0  0  0  0
  182.2300  177.4860  136.9120 C   0  0  0  0  0  2  0  0  0  0  0  0
  189.2860  177.7780  139.0090 N   0  0  0  0  0  2  0  0  0  0  0  0
  188.4870  177.6740  137.7950 C   0  0  1  0  0  3  0  0  0  0  0  0
  189.2300  178.2770  136.6130 C   0  0  0  0  0  1  0  0  0  0  0  0
  188.0940  176.2210  137.5320 C   0  0  0  0  0  2  0  0  0  0  0  0
  189.0170  175.5210  136.5360 C   0  0  2  0  0  3  0  0  0  0  0  0
  188.2710  174.9740  135.4910 O   0  0  0  0  0  1  0  0  0  0  0  0
  189.4400  173.1060  137.0370 O   0  0  0  0  0  0  0  0  0  0  0  0
  190.7640  174.7390  137.9500 O   0  0  0  0  0  1  0  0  0  0  0  0
  189.7850  174.4410  137.2190 C   0  0  0  0  0  0  0  0  0  0  0  0
  1  5  1  0  0  0  0
  1  6  1  0  0  0  0
  2 11  1  0  0  0  0
  3 10  1  0  0  0  0
  4  7  2  0  0  0  0
  4  8  1  0  0  0  0
  7  9  1  0  0  0  0
  8  1  2  0  0  0  0
  9  5  2  0  0  0  0
 11 10  2  0  0  0  0
 11  7  1  0  0  0  0
 12  2  1  0  0  0  0
 12 15  2  0  0  0  0
 13 14  1  0  0  0  0
 13  2  2  0  0  0  0
 14  3  2  0  0  0  0
 15  4  1  0  0  0  0
 16  3  1  6  0  0  0
 16 18  1  0  0  0  0
 17 19  1  0  0  0  0
 17 16  1  0  0  0  0
 19 21  1  6  0  0  0
 19 20  1  0  0  0  0
 20 18  1  0  0  0  0
 21 22  1  0  0  0  0
 22 24  1  0  0  0  0
 23 27  1  0  0  0  0
 25 26  1  6  0  0  0
 25 23  1  0  0  0  0
 25 22  1  0  0  0  0
 27 24  1  0  0  0  0
 28 25  1  0  0  0  0
 29 28  1  0  0  0  0
 30 34  1  0  0  0  0
 31 33  1  0  0  0  0
 32 31  1  0  0  0  0
 32 30  1  0  0  0  0
 33 29  1  0  0  0  0
 34 29  1  0  0  0  0
 35 13  1  0  0  0  0
 36 37  1  6  0  0  0
 36 35  1  0  0  0  0
 38 36  1  0  0  0  0
 39 40  1  6  0  0  0
 39 43  1  0  0  0  0
 39 38  1  0  0  0  0
 41 43  2  0  0  0  0
 43 42  1  0  0  0  0
M  END
>  <MODEL>
8

>  <REMARK>
 VINA RESULT:      -9.0      4.417      8.052
  Name = 
  10 active torsions:
  status: ('A' for Active; 'I' for Inactive)
    1  A    between atoms: C_1  and  C_9
    2  A    between atoms: C_1  and  N_35
    3  A    between atoms: C_2  and  C_13
    4  A    between atoms: C_3  and  N_4
    5  A    between atoms: C_3  and  C_12
    6  A    between atoms: C_9  and  C_32
    7  A    between atoms: N_11  and  C_14
    8  A    between atoms: C_14  and  C_22
    9  A    between atoms: C_32  and  C_37
   10  A    between atoms: C_34  and  N_35
                            x       y       z     vdW  Elec       q    Type
                         _______ _______ _______ _____ _____    ______ ____

>  <TORSDO>
F 10

$$$$
=
 OpenBabel11052416223D

 43 48  0  0  1  0  0  0  0  0999 V2000
  191.0610  176.7100  146.3460 C   0  0  0  0  0  0  0  0  0  0  0  0
  189.6280  177.7300  141.5910 C   0  0  0  0  0  0  0  0  0  0  0  0
  187.0210  178.6950  141.8150 C   0  0  0  0  0  0  0  0  0  0  0  0
  191.0030  176.9990  143.9410 C   0  0  0  0  0  0  0  0  0  0  0  0
  189.7430  177.1670  146.4360 C   0  0  0  0  0  3  0  0  0  0  0  0
  191.9250  176.2410  147.7930 Cl  0  0  0  0  0  0  0  0  0  0  0  0
  189.6690  177.4620  144.0250 C   0  0  0  0  0  0  0  0  0  0  0  0
  191.6900  176.6280  145.1000 C   0  0  0  0  0  3  0  0  0  0  0  0
  189.0500  177.5420  145.2820 C   0  0  0  0  0  3  0  0  0  0  0  0
  187.7110  178.3090  142.9220 N   0  0  0  0  0  0  0  0  0  0  0  0
  188.9860  177.8360  142.8520 C   0  0  0  0  0  0  0  0  0  0  0  0
  190.9560  177.2800  141.5410 C   0  0  0  0  0  3  0  0  0  0  0  0
  188.9140  178.1050  140.4260 C   0  0  0  0  0  0  0  0  0  0  0  0
  187.6140  178.5970  140.5580 C   0  0  0  0  0  3  0  0  0  0  0  0
  191.6370  176.9170  142.7030 C   0  0  0  0  0  3  0  0  0  0  0  0
  185.6230  179.2110  141.9330 C   0  0  1  0  0  3  0  0  0  0  0  0
  184.9970  179.3750  140.5590 C   0  0  0  0  0  2  0  0  0  0  0  0
  184.7540  178.2260  142.7020 C   0  0  0  0  0  2  0  0  0  0  0  0
  184.0370  178.2190  140.4010 C   0  0  1  0  0  3  0  0  0  0  0  0
  183.5840  177.8820  141.8040 C   0  0  0  0  0  2  0  0  0  0  0  0
  182.8580  178.6290  139.5360 C   0  0  0  0  0  2  0  0  0  0  0  0
  182.5910  177.6040  138.5280 N   0  0  0  0  0  0  0  0  0  0  0  0
  181.8870  177.2310  136.2850 C   0  0  0  0  0  2  0  0  0  0  0  0
  183.8010  177.3890  137.7470 C   0  0  0  0  0  2  0  0  0  0  0  0
  181.5540  177.9910  137.5550 C   0  0  1  0  0  0  0  0  0  0  0  0
  180.1950  177.5410  138.0670 C   0  0  0  0  0  1  0  0  0  0  0  0
  183.3700  176.9390  136.3650 C   0  0  0  0  0  2  0  0  0  0  0  0
  181.5390  179.5040  137.2500 C   0  0  0  0  0  2  0  0  0  0  0  0
  180.2170  180.0900  137.4740 N   0  0  0  0  0  0  0  0  0  0  0  0
  181.0470  182.3930  137.9340 C   0  0  0  0  0  2  0  0  0  0  0  0
  180.4390  181.8460  135.7230 C   0  0  0  0  0  2  0  0  0  0  0  0
  180.3670  182.8860  136.7420 N   0  0  0  0  0  2  0  0  0  0  0  0
  179.6860  180.5990  136.2010 C   0  0  0  0  0  2  0  0  0  0  0  0
  180.3150  181.1610  138.4760 C   0  0  0  0  0  2  0  0  0  0  0  0
  189.4490  178.0200  139.0930 N   0  0  0  0  0  2  0  0  0  0  0  0
  189.3250  176.8960  138.1740 C   0  0  1  0  0  3  0  0  0  0  0  0
  189.1640  177.3900  136.7450 C   0  0  0  0  0  1  0  0  0  0  0  0
  190.5180  175.9520  138.3130 C   0  0  0  0  0  2  0  0  0  0  0  0
  191.5340  176.1000  137.1800 C   0  0  2  0  0  3  0  0  0  0  0  0
  191.6280  174.9080  136.4600 O   0  0  0  0  0  1  0  0  0  0  0  0
  193.9960  176.4560  136.9150 O   0  0  0  0  0  0  0  0  0  0  0  0
  192.9810  176.7720  138.9450 O   0  0  0  0  0  1  0  0  0  0  0  0
  192.8720  176.4540  137.7330 C   0  0  0  0  0  0  0  0  0  0  0  0
  1  5  1  0  0  0  0
  1  6  1  0  0  0  0
  2 11  1  0  0  0  0
  3 10  1  0  0  0  0
  4  7  2  0  0  0  0
  4  8  1  0  0  0  0
  7  9  1  0  0  0  0
  8  1  2  0  0  0  0
  9  5  2  0  0  0  0
 11 10  2  0  0  0  0
 11  7  1  0  0  0  0
 12  2  1  0  0  0  0
 12 15  2  0  0  0  0
 13 14  1  0  0  0  0
 13  2  2  0  0  0  0
 14  3  2  0  0  0  0
 15  4  1  0  0  0  0
 16  3  1  6  0  0  0
 16 18  1  0  0  0  0
 17 16  1  0  0  0  0
 19 21  1  6  0  0  0
 19 17  1  0  0  0  0
 19 20  1  0  0  0  0
 20 18  1  0  0  0  0
 22 21  1  0  0  0  0
 23 27  1  0  0  0  0
 23 25  1  0  0  0  0
 24 22  1  0  0  0  0
 25 26  1  1  0  0  0
 25 22  1  0  0  0  0
 27 24  1  0  0  0  0
 28 29  1  0  0  0  0
 28 25  1  0  0  0  0
 29 34  1  0  0  0  0
 30 34  1  0  0  0  0
 31 33  1  0  0  0  0
 31 32  1  0  0  0  0
 32 30  1  0  0  0  0
 33 29  1  0  0  0  0
 35 13  1  0  0  0  0
 36 37  1  6  0  0  0
 36 38  1  0  0  0  0
 36 35  1  0  0  0  0
 39 40  1  1  0  0  0
 39 43  1  0  0  0  0
 39 38  1  0  0  0  0
 41 43  2  0  0  0  0
 43 42  1  0  0  0  0
M  END
>  <MODEL>
9

>  <REMARK>
 VINA RESULT:      -9.0      4.626      8.190
  Name = 
  10 active torsions:
  status: ('A' for Active; 'I' for Inactive)
    1  A    between atoms: C_1  and  C_9
    2  A    between atoms: C_1  and  N_35
    3  A    between atoms: C_2  and  C_13
    4  A    between atoms: C_3  and  N_4
    5  A    between atoms: C_3  and  C_12
    6  A    between atoms: C_9  and  C_32
    7  A    between atoms: N_11  and  C_14
    8  A    between atoms: C_14  and  C_22
    9  A    between atoms: C_32  and  C_37
   10  A    between atoms: C_34  and  N_35
                            x       y       z     vdW  Elec       q    Type
                         _______ _______ _______ _____ _____    ______ ____

>  <TORSDO>
F 10

$$$$
