=
 OpenBabel11052412413D

 25 29  0  0  1  0  0  0  0  0999 V2000
  190.1230  176.5120  143.8740 C   0  0  2  0  0  3  0  0  0  0  0  0
  189.1190  177.0570  144.8610 C   0  0  0  0  0  0  0  0  0  0  0  0
  191.6990  176.3440  145.9220 C   0  0  0  0  0  3  0  0  0  0  0  0
  190.8480  177.0440  146.6710 C   0  0  0  0  0  3  0  0  0  0  0  0
  188.5630  177.9660  147.0520 C   0  0  0  0  0  0  0  0  0  0  0  0
  188.9060  178.2800  148.3270 F   0  0  0  0  0  0  0  0  0  0  0  0
  187.8130  177.3240  144.4320 C   0  0  0  0  0  3  0  0  0  0  0  0
  191.3230  175.9080  144.5690 C   0  0  0  0  0  0  0  0  0  0  0  0
  192.0140  175.0320  143.9890 O   0  0  0  0  0  0  0  0  0  0  0  0
  187.2630  178.2250  146.6100 C   0  0  0  0  0  3  0  0  0  0  0  0
  186.8840  177.8960  145.3060 C   0  0  0  0  0  0  0  0  0  0  0  0
  189.4960  177.3760  146.1850 C   0  0  0  0  0  0  0  0  0  0  0  0
  190.4880  177.6080  142.8550 C   0  0  2  0  0  3  0  0  0  0  0  0
  190.7270  177.7610  140.4570 N   0  0  2  0  0  0  0  0  0  0  0  0
  189.7360  177.5480  141.5330 C   0  0  1  0  0  3  0  0  0  0  0  0
  190.1200  176.4380  140.6560 C   0  0  0  0  0  2  0  0  0  0  0  0
  192.0630  177.6960  141.0480 C   0  0  0  0  0  2  0  0  0  0  0  0
  191.9600  177.7590  142.5580 C   0  0  0  0  0  2  0  0  0  0  0  0
  185.5050  178.1950  144.8320 C   0  0  0  0  0  2  0  0  0  0  0  0
  185.4030  177.9640  143.3360 C   0  0  2  0  0  3  0  0  0  0  0  0
  185.1610  179.2370  142.6640 C   0  0  2  0  0  3  0  0  0  0  0  0
  184.0460  178.3030  142.8840 N   0  0  0  0  0  2  0  0  0  0  0  0
  185.6090  179.1590  141.2420 C   0  0  0  0  0  0  0  0  0  0  0  0
  184.8220  179.6950  140.2320 O   0  0  0  0  0  0  0  0  0  0  0  0
  186.6850  178.5730  140.9510 O   0  0  0  0  0  1  0  0  0  0  0  0
  1  8  1  1  0  0  0
  1  2  1  0  0  0  0
  2 12  1  0  0  0  0
  3  4  2  0  0  0  0
  5  6  1  0  0  0  0
  7  2  2  0  0  0  0
  7 11  1  0  0  0  0
  8  3  1  0  0  0  0
  9  8  2  0  0  0  0
 10  5  1  0  0  0  0
 11 10  2  0  0  0  0
 12  4  1  0  0  0  0
 12  5  2  0  0  0  0
 13 18  1  6  0  0  0
 13  1  1  0  0  0  0
 14 16  1  6  0  0  0
 14 17  1  0  0  0  0
 14 15  1  0  0  0  0
 15 16  1  6  0  0  0
 15 13  1  0  0  0  0
 17 18  1  0  0  0  0
 19 11  1  0  0  0  0
 20 19  1  1  0  0  0
 21 23  1  6  0  0  0
 21 22  1  0  0  0  0
 21 20  1  0  0  0  0
 22 20  1  0  0  0  0
 24 23  2  0  0  0  0
 25 23  1  0  0  0  0
M  END
>  <MODEL>
1

>  <REMARK>
 VINA RESULT:      -9.3      0.000      0.000
  Name = 
  4 active torsions:
  status: ('A' for Active; 'I' for Inactive)
    1  A    between atoms: C_1  and  C_5
    2  A    between atoms: C_2  and  CA_21
    3  A    between atoms: C_6  and  C_15
    4  A    between atoms: C_6  and  C_23
                            x       y       z     vdW  Elec       q    Type
                         _______ _______ _______ _____ _____    ______ ____

>  <TORSDO>
F 4

$$$$
=
 OpenBabel11052412413D

 25 29  0  0  1  0  0  0  0  0999 V2000
  188.8480  177.0520  145.6370 C   0  0  2  0  0  3  0  0  0  0  0  0
  187.5330  177.7610  145.8560 C   0  0  0  0  0  0  0  0  0  0  0  0
  189.3700  177.7590  148.0730 C   0  0  0  0  0  3  0  0  0  0  0  0
  188.3000  178.5540  148.1020 C   0  0  0  0  0  3  0  0  0  0  0  0
  186.1090  179.2590  147.1450 C   0  0  0  0  0  0  0  0  0  0  0  0
  185.8740  180.0120  148.2490 F   0  0  0  0  0  0  0  0  0  0  0  0
  186.5540  177.7090  144.8570 C   0  0  0  0  0  3  0  0  0  0  0  0
  189.6060  176.8610  146.9320 C   0  0  0  0  0  0  0  0  0  0  0  0
  190.4510  175.9370  147.0400 O   0  0  0  0  0  0  0  0  0  0  0  0
  185.1410  179.1960  146.1400 C   0  0  0  0  0  3  0  0  0  0  0  0
  185.3560  178.4140  145.0020 C   0  0  0  0  0  0  0  0  0  0  0  0
  187.3060  178.5380  147.0130 C   0  0  0  0  0  0  0  0  0  0  0  0
  189.6560  177.7910  144.5530 C   0  0  2  0  0  3  0  0  0  0  0  0
  190.8030  177.1980  142.5130 N   0  0  2  0  0  0  0  0  0  0  0  0
  189.4640  177.2800  143.1320 C   0  0  1  0  0  3  0  0  0  0  0  0
  190.0680  175.9730  142.8600 C   0  0  0  0  0  2  0  0  0  0  0  0
  191.8030  177.3910  143.5630 C   0  0  0  0  0  2  0  0  0  0  0  0
  191.1360  177.9180  144.8160 C   0  0  0  0  0  2  0  0  0  0  0  0
  184.3310  178.3690  143.9230 C   0  0  0  0  0  2  0  0  0  0  0  0
  184.9660  177.9380  142.6140 C   0  0  2  0  0  3  0  0  0  0  0  0
  184.9110  179.0420  141.6610 C   0  0  2  0  0  3  0  0  0  0  0  0
  183.9450  177.9370  141.5570 N   0  0  0  0  0  2  0  0  0  0  0  0
  185.9750  178.8790  140.6270 C   0  0  0  0  0  0  0  0  0  0  0  0
  185.6640  179.0070  139.2800 O   0  0  0  0  0  0  0  0  0  0  0  0
  187.1510  178.5870  140.9720 O   0  0  0  0  0  1  0  0  0  0  0  0
  1  2  1  1  0  0  0
  1  8  1  0  0  0  0
  2 12  1  0  0  0  0
  3  4  2  0  0  0  0
  5  6  1  0  0  0  0
  7 11  1  0  0  0  0
  7  2  2  0  0  0  0
  8  9  2  0  0  0  0
  8  3  1  0  0  0  0
 10  5  1  0  0  0  0
 11 10  2  0  0  0  0
 12  5  2  0  0  0  0
 12  4  1  0  0  0  0
 13 18  1  1  0  0  0
 13  1  1  0  0  0  0
 14 16  1  1  0  0  0
 14 15  1  0  0  0  0
 14 17  1  0  0  0  0
 15 16  1  1  0  0  0
 15 13  1  0  0  0  0
 17 18  1  0  0  0  0
 19 11  1  0  0  0  0
 20 19  1  1  0  0  0
 21 23  1  6  0  0  0
 21 20  1  0  0  0  0
 22 21  1  0  0  0  0
 22 20  1  0  0  0  0
 23 25  1  0  0  0  0
 24 23  2  0  0  0  0
M  END
>  <MODEL>
2

>  <REMARK>
 VINA RESULT:      -9.2      1.657      2.263
  Name = 
  4 active torsions:
  status: ('A' for Active; 'I' for Inactive)
    1  A    between atoms: C_1  and  C_5
    2  A    between atoms: C_2  and  CA_21
    3  A    between atoms: C_6  and  C_15
    4  A    between atoms: C_6  and  C_23
                            x       y       z     vdW  Elec       q    Type
                         _______ _______ _______ _____ _____    ______ ____

>  <TORSDO>
F 4

$$$$
=
 OpenBabel11052412413D

 25 29  0  0  1  0  0  0  0  0999 V2000
  189.0740  177.0980  145.6950 C   0  0  2  0  0  3  0  0  0  0  0  0
  187.7040  177.7090  145.8580 C   0  0  0  0  0  0  0  0  0  0  0  0
  189.4060  177.7500  148.1790 C   0  0  0  0  0  3  0  0  0  0  0  0
  188.2850  178.4700  148.1690 C   0  0  0  0  0  3  0  0  0  0  0  0
  186.1090  179.0610  147.1070 C   0  0  0  0  0  0  0  0  0  0  0  0
  185.7590  179.7570  148.2190 F   0  0  0  0  0  0  0  0  0  0  0  0
  186.7890  177.6290  144.8010 C   0  0  0  0  0  3  0  0  0  0  0  0
  189.7680  176.9120  147.0260 C   0  0  0  0  0  0  0  0  0  0  0  0
  190.6670  176.0420  147.1540 O   0  0  0  0  0  0  0  0  0  0  0  0
  185.2060  178.9710  146.0450 C   0  0  0  0  0  3  0  0  0  0  0  0
  185.5400  178.2470  144.8970 C   0  0  0  0  0  0  0  0  0  0  0  0
  187.3580  178.4280  147.0240 C   0  0  0  0  0  0  0  0  0  0  0  0
  189.8910  177.9280  144.6860 C   0  0  2  0  0  3  0  0  0  0  0  0
  190.6660  177.6570  142.4150 N   0  0  2  0  0  0  0  0  0  0  0  0
  189.4460  177.8140  143.2350 C   0  0  1  0  0  3  0  0  0  0  0  0
  189.7430  176.5280  142.5980 C   0  0  0  0  0  2  0  0  0  0  0  0
  191.7930  177.4200  143.3160 C   0  0  0  0  0  2  0  0  0  0  0  0
  191.3860  177.7360  144.7410 C   0  0  0  0  0  2  0  0  0  0  0  0
  184.5830  178.1730  143.7580 C   0  0  0  0  0  2  0  0  0  0  0  0
  183.2370  178.7410  144.1670 C   0  0  2  0  0  3  0  0  0  0  0  0
  182.4560  179.0480  142.9720 C   0  0  2  0  0  3  0  0  0  0  0  0
  183.1350  180.1310  143.7010 N   0  0  0  0  0  2  0  0  0  0  0  0
  181.0000  179.0560  143.3000 C   0  0  0  0  0  0  0  0  0  0  0  0
  180.1660  180.0180  142.7460 O   0  0  0  0  0  0  0  0  0  0  0  0
  180.5300  178.2140  144.1110 O   0  0  0  0  0  1  0  0  0  0  0  0
  1  2  1  1  0  0  0
  1  8  1  0  0  0  0
  2 12  1  0  0  0  0
  4  3  2  0  0  0  0
  5  6  1  0  0  0  0
  7 11  1  0  0  0  0
  7  2  2  0  0  0  0
  8  9  2  0  0  0  0
  8  3  1  0  0  0  0
 10  5  1  0  0  0  0
 11 10  2  0  0  0  0
 12  5  2  0  0  0  0
 12  4  1  0  0  0  0
 13 18  1  6  0  0  0
 13  1  1  0  0  0  0
 14 16  1  6  0  0  0
 14 15  1  0  0  0  0
 14 17  1  0  0  0  0
 15 16  1  1  0  0  0
 15 13  1  0  0  0  0
 17 18  1  0  0  0  0
 19 11  1  0  0  0  0
 20 19  1  6  0  0  0
 21 23  1  1  0  0  0
 21 22  1  0  0  0  0
 21 20  1  0  0  0  0
 22 20  1  0  0  0  0
 23 25  1  0  0  0  0
 24 23  2  0  0  0  0
M  END
>  <MODEL>
3

>  <REMARK>
 VINA RESULT:      -8.6      2.444      3.064
  Name = 
  4 active torsions:
  status: ('A' for Active; 'I' for Inactive)
    1  A    between atoms: C_1  and  C_5
    2  A    between atoms: C_2  and  CA_21
    3  A    between atoms: C_6  and  C_15
    4  A    between atoms: C_6  and  C_23
                            x       y       z     vdW  Elec       q    Type
                         _______ _______ _______ _____ _____    ______ ____

>  <TORSDO>
F 4

$$$$
=
 OpenBabel11052412413D

 25 29  0  0  1  0  0  0  0  0999 V2000
  188.3020  177.2980  144.8990 C   0  0  2  0  0  3  0  0  0  0  0  0
  186.9110  177.7250  144.4950 C   0  0  0  0  0  0  0  0  0  0  0  0
  187.5440  177.9140  147.2970 C   0  0  0  0  0  3  0  0  0  0  0  0
  186.4340  178.4860  146.8310 C   0  0  0  0  0  3  0  0  0  0  0  0
  184.7940  178.8250  144.9850 C   0  0  0  0  0  0  0  0  0  0  0  0
  183.9490  179.4370  145.8530 F   0  0  0  0  0  0  0  0  0  0  0  0
  186.5030  177.5590  143.1660 C   0  0  0  0  0  3  0  0  0  0  0  0
  188.4340  177.1630  146.4000 C   0  0  0  0  0  0  0  0  0  0  0  0
  189.3150  176.4120  146.8910 O   0  0  0  0  0  0  0  0  0  0  0  0
  184.4010  178.6510  143.6560 C   0  0  0  0  0  3  0  0  0  0  0  0
  185.2480  178.0100  142.7490 C   0  0  0  0  0  0  0  0  0  0  0  0
  186.0450  178.3590  145.4150 C   0  0  0  0  0  0  0  0  0  0  0  0
  189.3340  178.2540  144.2730 C   0  0  2  0  0  3  0  0  0  0  0  0
  191.2650  178.0520  142.8370 N   0  0  2  0  0  0  0  0  0  0  0  0
  189.7970  177.8890  142.8690 C   0  0  1  0  0  3  0  0  0  0  0  0
  190.6650  176.7110  142.7930 C   0  0  0  0  0  2  0  0  0  0  0  0
  191.7320  178.2510  144.2080 C   0  0  0  0  0  2  0  0  0  0  0  0
  190.5530  178.5410  145.1140 C   0  0  0  0  0  2  0  0  0  0  0  0
  184.8340  177.8470  141.3280 C   0  0  0  0  0  2  0  0  0  0  0  0
  183.9340  178.9950  140.9100 C   0  0  2  0  0  3  0  0  0  0  0  0
  183.4810  178.7830  139.5390 C   0  0  2  0  0  3  0  0  0  0  0  0
  184.5690  179.7350  139.8110 N   0  0  0  0  0  2  0  0  0  0  0  0
  182.2090  179.5270  139.2990 C   0  0  0  0  0  0  0  0  0  0  0  0
  181.9710  180.1190  138.0650 O   0  0  0  0  0  0  0  0  0  0  0  0
  181.3670  179.6530  140.2260 O   0  0  0  0  0  1  0  0  0  0  0  0
  1  2  1  1  0  0  0
  1  8  1  0  0  0  0
  2 12  1  0  0  0  0
  4  3  2  0  0  0  0
  5 12  2  0  0  0  0
  5  6  1  0  0  0  0
  7  2  2  0  0  0  0
  8  9  2  0  0  0  0
  8  3  1  0  0  0  0
 10  5  1  0  0  0  0
 11  7  1  0  0  0  0
 11 10  2  0  0  0  0
 12  4  1  0  0  0  0
 13  1  1  0  0  0  0
 13 18  1  1  0  0  0
 14 16  1  1  0  0  0
 14 15  1  0  0  0  0
 14 17  1  0  0  0  0
 15 16  1  1  0  0  0
 15 13  1  0  0  0  0
 17 18  1  0  0  0  0
 19 11  1  0  0  0  0
 20 19  1  6  0  0  0
 21 23  1  1  0  0  0
 21 22  1  0  0  0  0
 21 20  1  0  0  0  0
 22 20  1  0  0  0  0
 23 25  1  0  0  0  0
 24 23  2  0  0  0  0
M  END
>  <MODEL>
4

>  <REMARK>
 VINA RESULT:      -8.2      2.468      3.578
  Name = 
  4 active torsions:
  status: ('A' for Active; 'I' for Inactive)
    1  A    between atoms: C_1  and  C_5
    2  A    between atoms: C_2  and  CA_21
    3  A    between atoms: C_6  and  C_15
    4  A    between atoms: C_6  and  C_23
                            x       y       z     vdW  Elec       q    Type
                         _______ _______ _______ _____ _____    ______ ____

>  <TORSDO>
F 4

$$$$
=
 OpenBabel11052412413D

 25 29  0  0  1  0  0  0  0  0999 V2000
  186.4150  177.7220  145.8050 C   0  0  2  0  0  3  0  0  0  0  0  0
  186.7760  177.7420  144.3390 C   0  0  0  0  0  0  0  0  0  0  0  0
  184.3720  179.1410  145.0840 C   0  0  0  0  0  3  0  0  0  0  0  0
  184.8810  179.3070  143.8640 C   0  0  0  0  0  3  0  0  0  0  0  0
  186.4920  178.6280  142.0870 C   0  0  0  0  0  0  0  0  0  0  0  0
  185.8330  179.4100  141.1960 F   0  0  0  0  0  0  0  0  0  0  0  0
  187.8730  176.9950  143.8940 C   0  0  0  0  0  3  0  0  0  0  0  0
  185.0100  178.2280  146.0450 C   0  0  0  0  0  0  0  0  0  0  0  0
  184.3790  177.8770  147.0740 O   0  0  0  0  0  0  0  0  0  0  0  0
  187.5880  177.8750  141.6580 C   0  0  0  0  0  3  0  0  0  0  0  0
  188.2720  177.0500  142.5560 C   0  0  0  0  0  0  0  0  0  0  0  0
  186.0750  178.5620  143.4250 C   0  0  0  0  0  0  0  0  0  0  0  0
  187.4880  178.4810  146.6080 C   0  0  2  0  0  3  0  0  0  0  0  0
  189.4130  177.9010  147.9460 N   0  0  2  0  0  0  0  0  0  0  0  0
  188.8850  177.8780  146.5660 C   0  0  1  0  0  3  0  0  0  0  0  0
  189.0390  176.6280  147.3140 C   0  0  0  0  0  2  0  0  0  0  0  0
  188.3160  178.2530  148.8470 C   0  0  0  0  0  2  0  0  0  0  0  0
  187.1420  178.7750  148.0470 C   0  0  0  0  0  2  0  0  0  0  0  0
  189.4530  176.2680  142.0990 C   0  0  0  0  0  2  0  0  0  0  0  0
  190.6550  176.5750  142.9730 C   0  0  2  0  0  3  0  0  0  0  0  0
  190.9010  178.0140  142.9720 C   0  0  2  0  0  3  0  0  0  0  0  0
  191.7310  177.1290  142.1400 N   0  0  0  0  0  2  0  0  0  0  0  0
  191.6560  178.4050  144.1990 C   0  0  0  0  0  0  0  0  0  0  0  0
  191.8820  177.4740  145.2050 O   0  0  0  0  0  1  0  0  0  0  0  0
  192.0550  179.5900  144.3440 O   0  0  0  0  0  0  0  0  0  0  0  0
  1  2  1  6  0  0  0
  1  8  1  0  0  0  0
  1 13  1  0  0  0  0
  3  8  1  0  0  0  0
  4  3  2  0  0  0  0
  5 12  1  0  0  0  0
  6  5  1  0  0  0  0
  7  2  1  0  0  0  0
  8  9  2  0  0  0  0
 10  5  2  0  0  0  0
 10 11  1  0  0  0  0
 11  7  2  0  0  0  0
 12  4  1  0  0  0  0
 12  2  2  0  0  0  0
 13 18  1  1  0  0  0
 14 16  1  1  0  0  0
 14 17  1  0  0  0  0
 15 13  1  0  0  0  0
 15 16  1  1  0  0  0
 15 14  1  0  0  0  0
 18 17  1  0  0  0  0
 19 11  1  0  0  0  0
 20 19  1  6  0  0  0
 21 20  1  0  0  0  0
 21 23  1  1  0  0  0
 22 21  1  0  0  0  0
 22 20  1  0  0  0  0
 23 25  2  0  0  0  0
 23 24  1  0  0  0  0
M  END
>  <MODEL>
5

>  <REMARK>
 VINA RESULT:      -8.2      3.207      6.350
  Name = 
  4 active torsions:
  status: ('A' for Active; 'I' for Inactive)
    1  A    between atoms: C_1  and  C_5
    2  A    between atoms: C_2  and  CA_21
    3  A    between atoms: C_6  and  C_15
    4  A    between atoms: C_6  and  C_23
                            x       y       z     vdW  Elec       q    Type
                         _______ _______ _______ _____ _____    ______ ____

>  <TORSDO>
F 4

$$$$
=
 OpenBabel11052412413D

 25 29  0  0  1  0  0  0  0  0999 V2000
  188.5590  176.9000  142.7100 C   0  0  2  0  0  3  0  0  0  0  0  0
  187.4040  177.4640  143.5020 C   0  0  0  0  0  0  0  0  0  0  0  0
  189.7580  176.7590  145.0010 C   0  0  0  0  0  3  0  0  0  0  0  0
  188.7950  177.4740  145.5810 C   0  0  0  0  0  3  0  0  0  0  0  0
  186.4850  178.4090  145.5500 C   0  0  0  0  0  0  0  0  0  0  0  0
  186.6060  178.7420  146.8600 F   0  0  0  0  0  0  0  0  0  0  0  0
  186.1930  177.7290  142.8500 C   0  0  0  0  0  3  0  0  0  0  0  0
  189.6180  176.3030  143.6100 C   0  0  0  0  0  0  0  0  0  0  0  0
  190.3930  175.4150  143.1710 O   0  0  0  0  0  0  0  0  0  0  0  0
  185.2820  178.6660  144.8870 C   0  0  0  0  0  3  0  0  0  0  0  0
  185.1310  178.3170  143.5420 C   0  0  0  0  0  0  0  0  0  0  0  0
  187.5490  177.8020  144.8660 C   0  0  0  0  0  0  0  0  0  0  0  0
  189.1010  177.9780  141.7520 C   0  0  2  0  0  3  0  0  0  0  0  0
  188.6850  178.6690  139.4770 N   0  0  2  0  0  0  0  0  0  0  0  0
  188.0720  178.6010  140.8200 C   0  0  1  0  0  3  0  0  0  0  0  0
  187.5970  177.7200  139.7490 C   0  0  0  0  0  2  0  0  0  0  0  0
  189.9250  177.8960  139.5020 C   0  0  0  0  0  2  0  0  0  0  0  0
  190.3040  177.5790  140.9340 C   0  0  0  0  0  2  0  0  0  0  0  0
  183.8550  178.6130  142.8340 C   0  0  0  0  0  2  0  0  0  0  0  0
  184.0850  178.6530  141.3340 C   0  0  2  0  0  3  0  0  0  0  0  0
  182.8320  178.9780  140.6590 C   0  0  2  0  0  3  0  0  0  0  0  0
  183.3040  177.5850  140.6950 N   0  0  0  0  0  2  0  0  0  0  0  0
  183.1120  179.5690  139.3180 C   0  0  0  0  0  0  0  0  0  0  0  0
  182.1790  179.4530  138.2960 O   0  0  0  0  0  0  0  0  0  0  0  0
  184.2110  180.1420  139.0970 O   0  0  0  0  0  1  0  0  0  0  0  0
  1  2  1  1  0  0  0
  1  8  1  0  0  0  0
  2 12  1  0  0  0  0
  3  4  2  0  0  0  0
  5  6  1  0  0  0  0
  7  2  2  0  0  0  0
  7 11  1  0  0  0  0
  8  3  1  0  0  0  0
  9  8  2  0  0  0  0
 10  5  1  0  0  0  0
 11 10  2  0  0  0  0
 12  5  2  0  0  0  0
 12  4  1  0  0  0  0
 13 18  1  6  0  0  0
 13  1  1  0  0  0  0
 14 17  1  1  0  0  0
 14 16  1  0  0  0  0
 14 15  1  0  0  0  0
 15 16  1  6  0  0  0
 15 13  1  0  0  0  0
 17 18  1  0  0  0  0
 19 11  1  0  0  0  0
 20 19  1  1  0  0  0
 21 23  1  6  0  0  0
 21 22  1  0  0  0  0
 21 20  1  0  0  0  0
 22 20  1  0  0  0  0
 24 23  2  0  0  0  0
 25 23  1  0  0  0  0
M  END
>  <MODEL>
6

>  <REMARK>
 VINA RESULT:      -8.1      1.831      2.544
  Name = 
  4 active torsions:
  status: ('A' for Active; 'I' for Inactive)
    1  A    between atoms: C_1  and  C_5
    2  A    between atoms: C_2  and  CA_21
    3  A    between atoms: C_6  and  C_15
    4  A    between atoms: C_6  and  C_23
                            x       y       z     vdW  Elec       q    Type
                         _______ _______ _______ _____ _____    ______ ____

>  <TORSDO>
F 4

$$$$
=
 OpenBabel11052412413D

 25 29  0  0  1  0  0  0  0  0999 V2000
  189.2010  176.9550  139.8700 C   0  0  2  0  0  3  0  0  0  0  0  0
  189.4340  177.2150  141.3380 C   0  0  0  0  0  0  0  0  0  0  0  0
  191.7840  176.9830  139.6920 C   0  0  0  0  0  3  0  0  0  0  0  0
  191.8940  177.4410  140.9380 C   0  0  0  0  0  3  0  0  0  0  0  0
  190.8930  177.8430  143.1850 C   0  0  0  0  0  0  0  0  0  0  0  0
  192.1230  178.1370  143.6770 F   0  0  0  0  0  0  0  0  0  0  0  0
  188.3400  177.2340  142.2120 C   0  0  0  0  0  3  0  0  0  0  0  0
  190.4780  176.5680  139.1580 C   0  0  0  0  0  0  0  0  0  0  0  0
  190.4310  175.8940  138.0970 O   0  0  0  0  0  0  0  0  0  0  0  0
  189.7920  177.8560  144.0450 C   0  0  0  0  0  3  0  0  0  0  0  0
  188.5180  177.5420  143.5630 C   0  0  0  0  0  0  0  0  0  0  0  0
  190.7230  177.5170  141.8310 C   0  0  0  0  0  0  0  0  0  0  0  0
  188.4880  178.1680  139.2400 C   0  0  2  0  0  3  0  0  0  0  0  0
  186.9460  178.5430  137.4210 N   0  0  2  0  0  0  0  0  0  0  0  0
  187.0700  177.9100  138.7500 C   0  0  1  0  0  3  0  0  0  0  0  0
  186.9750  177.0790  137.5470 C   0  0  0  0  0  2  0  0  0  0  0  0
  188.2810  178.9470  136.9820 C   0  0  0  0  0  2  0  0  0  0  0  0
  189.2480  178.8760  138.1460 C   0  0  0  0  0  2  0  0  0  0  0  0
  187.3440  177.5800  144.4780 C   0  0  0  0  0  2  0  0  0  0  0  0
  187.7400  178.1860  145.8120 C   0  0  2  0  0  3  0  0  0  0  0  0
  187.5810  177.1880  146.8650 C   0  0  2  0  0  3  0  0  0  0  0  0
  186.5630  178.2350  146.6910 N   0  0  0  0  0  2  0  0  0  0  0  0
  188.4560  177.5250  148.0270 C   0  0  0  0  0  0  0  0  0  0  0  0
  189.8380  177.5180  147.8840 O   0  0  0  0  0  0  0  0  0  0  0  0
  187.9460  177.7790  149.1500 O   0  0  0  0  0  1  0  0  0  0  0  0
  1  8  1  6  0  0  0
  1  2  1  0  0  0  0
  2 12  2  0  0  0  0
  2  7  1  0  0  0  0
  3  4  2  0  0  0  0
  4 12  1  0  0  0  0
  5  6  1  0  0  0  0
  5 10  2  0  0  0  0
  7 11  2  0  0  0  0
  8  3  1  0  0  0  0
  9  8  2  0  0  0  0
 11 10  1  0  0  0  0
 11 19  1  0  0  0  0
 12  5  1  0  0  0  0
 13 18  1  6  0  0  0
 13  1  1  0  0  0  0
 14 17  1  6  0  0  0
 14 16  1  0  0  0  0
 14 15  1  0  0  0  0
 15 16  1  6  0  0  0
 15 13  1  0  0  0  0
 17 18  1  0  0  0  0
 20 19  1  6  0  0  0
 20 22  1  0  0  0  0
 20 21  1  0  0  0  0
 21 23  1  1  0  0  0
 22 21  1  0  0  0  0
 23 25  1  0  0  0  0
 24 23  2  0  0  0  0
M  END
>  <MODEL>
7

>  <REMARK>
 VINA RESULT:      -7.8      3.308      5.231
  Name = 
  4 active torsions:
  status: ('A' for Active; 'I' for Inactive)
    1  A    between atoms: C_1  and  C_5
    2  A    between atoms: C_2  and  CA_21
    3  A    between atoms: C_6  and  C_15
    4  A    between atoms: C_6  and  C_23
                            x       y       z     vdW  Elec       q    Type
                         _______ _______ _______ _____ _____    ______ ____

>  <TORSDO>
F 4

$$$$
=
 OpenBabel11052412413D

 25 29  0  0  1  0  0  0  0  0999 V2000
  182.6510  178.5490  140.6600 C   0  0  2  0  0  3  0  0  0  0  0  0
  183.4640  178.5800  141.9320 C   0  0  0  0  0  0  0  0  0  0  0  0
  180.7250  179.4420  142.1440 C   0  0  0  0  0  3  0  0  0  0  0  0
  181.4340  179.2160  143.2500 C   0  0  0  0  0  3  0  0  0  0  0  0
  183.6220  178.7640  144.3560 C   0  0  0  0  0  0  0  0  0  0  0  0
  183.0560  179.0030  145.5650 F   0  0  0  0  0  0  0  0  0  0  0  0
  184.8290  178.2740  141.8780 C   0  0  0  0  0  3  0  0  0  0  0  0
  181.3360  179.2820  140.8170 C   0  0  0  0  0  0  0  0  0  0  0  0
  180.7520  179.7530  139.8080 O   0  0  0  0  0  0  0  0  0  0  0  0
  184.9840  178.4590  144.2860 C   0  0  0  0  0  3  0  0  0  0  0  0
  185.5900  178.2250  143.0490 C   0  0  0  0  0  0  0  0  0  0  0  0
  182.8560  178.8320  143.1820 C   0  0  0  0  0  0  0  0  0  0  0  0
  182.4910  177.0920  140.1870 C   0  0  2  0  0  3  0  0  0  0  0  0
  182.1470  175.9610  138.0820 N   0  0  2  0  0  0  0  0  0  0  0  0
  183.1240  176.7680  138.8420 C   0  0  1  0  0  3  0  0  0  0  0  0
  182.4380  177.3450  137.6830 C   0  0  0  0  0  2  0  0  0  0  0  0
  180.8720  175.9960  138.7970 C   0  0  0  0  0  2  0  0  0  0  0  0
  181.0810  176.5550  140.1890 C   0  0  0  0  0  2  0  0  0  0  0  0
  187.0370  177.8780  142.9820 C   0  0  0  0  0  2  0  0  0  0  0  0
  187.4550  177.1320  144.2350 C   0  0  2  0  0  3  0  0  0  0  0  0
  188.7340  177.6550  144.7080 C   0  0  2  0  0  3  0  0  0  0  0  0
  188.6920  176.3860  143.9660 N   0  0  0  0  0  2  0  0  0  0  0  0
  188.8910  177.3810  146.1660 C   0  0  0  0  0  0  0  0  0  0  0  0
  190.1280  177.0070  146.6760 O   0  0  0  0  0  0  0  0  0  0  0  0
  187.8950  177.4510  146.9340 O   0  0  0  0  0  1  0  0  0  0  0  0
  1  8  1  1  0  0  0
  1  2  1  0  0  0  0
  2 12  1  0  0  0  0
  3  4  2  0  0  0  0
  5  6  1  0  0  0  0
  7  2  2  0  0  0  0
  7 11  1  0  0  0  0
  8  3  1  0  0  0  0
  9  8  2  0  0  0  0
 10  5  1  0  0  0  0
 11 10  2  0  0  0  0
 12  4  1  0  0  0  0
 12  5  2  0  0  0  0
 13 18  1  6  0  0  0
 13  1  1  0  0  0  0
 14 16  1  6  0  0  0
 14 17  1  0  0  0  0
 14 15  1  0  0  0  0
 15 16  1  6  0  0  0
 15 13  1  0  0  0  0
 17 18  1  0  0  0  0
 19 11  1  0  0  0  0
 20 19  1  6  0  0  0
 20 21  1  0  0  0  0
 21 23  1  1  0  0  0
 22 20  1  0  0  0  0
 22 21  1  0  0  0  0
 23 24  2  0  0  0  0
 23 25  1  0  0  0  0
M  END
>  <MODEL>
8

>  <REMARK>
 VINA RESULT:      -7.6      3.811      7.904
  Name = 
  4 active torsions:
  status: ('A' for Active; 'I' for Inactive)
    1  A    between atoms: C_1  and  C_5
    2  A    between atoms: C_2  and  CA_21
    3  A    between atoms: C_6  and  C_15
    4  A    between atoms: C_6  and  C_23
                            x       y       z     vdW  Elec       q    Type
                         _______ _______ _______ _____ _____    ______ ____

>  <TORSDO>
F 4

$$$$
=
 OpenBabel11052412413D

 25 29  0  0  1  0  0  0  0  0999 V2000
  187.9810  178.2640  145.6270 C   0  0  2  0  0  3  0  0  0  0  0  0
  189.3050  177.7310  145.1350 C   0  0  0  0  0  0  0  0  0  0  0  0
  188.6900  177.2640  147.9080 C   0  0  0  0  0  3  0  0  0  0  0  0
  189.7170  176.6290  147.3430 C   0  0  0  0  0  3  0  0  0  0  0  0
  191.2800  176.3350  145.4240 C   0  0  0  0  0  0  0  0  0  0  0  0
  192.0560  175.5220  146.1850 F   0  0  0  0  0  0  0  0  0  0  0  0
  189.7120  178.0150  143.8260 C   0  0  0  0  0  3  0  0  0  0  0  0
  187.8850  178.2220  147.1370 C   0  0  0  0  0  0  0  0  0  0  0  0
  187.1080  179.0030  147.7420 O   0  0  0  0  0  0  0  0  0  0  0  0
  191.6740  176.6290  144.1160 C   0  0  0  0  0  3  0  0  0  0  0  0
  190.8970  177.4760  143.3200 C   0  0  0  0  0  0  0  0  0  0  0  0
  190.0990  176.8880  145.9430 C   0  0  0  0  0  0  0  0  0  0  0  0
  186.8320  177.5240  144.9170 C   0  0  2  0  0  3  0  0  0  0  0  0
  185.5560  177.8070  142.8870 N   0  0  2  0  0  0  0  0  0  0  0  0
  186.9090  177.5030  143.3970 C   0  0  1  0  0  3  0  0  0  0  0  0
  186.6400  178.7900  142.7490 C   0  0  0  0  0  2  0  0  0  0  0  0
  184.7340  178.2530  144.0120 C   0  0  0  0  0  2  0  0  0  0  0  0
  185.4390  177.9430  145.3160 C   0  0  0  0  0  2  0  0  0  0  0  0
  191.3100  177.7680  141.9190 C   0  0  0  0  0  2  0  0  0  0  0  0
  190.5780  176.8510  140.9570 C   0  0  2  0  0  3  0  0  0  0  0  0
  190.4650  177.5040  139.6560 C   0  0  2  0  0  3  0  0  0  0  0  0
  189.3070  177.4760  140.5630 N   0  0  0  0  0  2  0  0  0  0  0  0
  190.2890  176.4810  138.5830 C   0  0  0  0  0  0  0  0  0  0  0  0
  190.9300  175.2530  138.6790 O   0  0  0  0  0  1  0  0  0  0  0  0
  189.5890  176.7430  137.5690 O   0  0  0  0  0  0  0  0  0  0  0  0
  1  2  1  1  0  0  0
  1  8  1  0  0  0  0
  2 12  1  0  0  0  0
  4  3  2  0  0  0  0
  5 12  2  0  0  0  0
  5  6  1  0  0  0  0
  7  2  2  0  0  0  0
  8  9  2  0  0  0  0
  8  3  1  0  0  0  0
 10  5  1  0  0  0  0
 11  7  1  0  0  0  0
 11 10  2  0  0  0  0
 12  4  1  0  0  0  0
 13 18  1  6  0  0  0
 13  1  1  0  0  0  0
 14 16  1  6  0  0  0
 14 15  1  0  0  0  0
 14 17  1  0  0  0  0
 15 16  1  6  0  0  0
 15 13  1  0  0  0  0
 17 18  1  0  0  0  0
 19 11  1  0  0  0  0
 20 19  1  1  0  0  0
 21 23  1  6  0  0  0
 21 22  1  0  0  0  0
 21 20  1  0  0  0  0
 22 20  1  0  0  0  0
 23 24  1  0  0  0  0
 25 23  2  0  0  0  0
M  END
>  <MODEL>
9

>  <REMARK>
 VINA RESULT:      -7.6      2.445      5.133
  Name = 
  4 active torsions:
  status: ('A' for Active; 'I' for Inactive)
    1  A    between atoms: C_1  and  C_5
    2  A    between atoms: C_2  and  CA_21
    3  A    between atoms: C_6  and  C_15
    4  A    between atoms: C_6  and  C_23
                            x       y       z     vdW  Elec       q    Type
                         _______ _______ _______ _____ _____    ______ ____

>  <TORSDO>
F 4

$$$$
