=
 OpenBabel11052415533D

 34 37  0  0  1  0  0  0  0  0999 V2000
  185.1550  178.5860  141.9550 C   0  0  1  0  0  3  0  0  0  0  0  0
  186.0250  178.6770  139.1990 N   0  0  0  0  0  0  0  0  0  0  0  0
  182.9150  178.8850  140.7970 C   0  0  0  0  0  3  0  0  0  0  0  0
  182.5400  178.9450  139.4600 C   0  0  0  0  0  3  0  0  0  0  0  0
  184.6540  178.8300  139.5550 C   0  0  0  0  0  0  0  0  0  0  0  0
  184.2570  178.8410  140.8280 N   0  0  0  0  0  0  0  0  0  0  0  0
  183.6430  178.9010  138.6760 N   0  0  0  0  0  0  0  0  0  0  0  0
  186.9510  178.6750  140.1180 C   0  0  0  0  0  0  0  0  0  0  0  0
  187.4840  178.2190  142.4040 O   0  0  0  0  0  1  0  0  0  0  0  0
  186.6110  178.9270  141.5780 C   0  0  2  0  0  3  0  0  0  0  0  0
  188.2940  178.5120  139.7640 O   0  0  0  0  0  0  0  0  0  0  0  0
  188.7390  177.4990  138.8660 C   0  0  2  0  0  3  0  0  0  0  0  0
  189.9940  176.8340  139.4140 C   0  0  0  0  0  1  0  0  0  0  0  0
  189.0010  178.1020  137.4890 C   0  0  0  0  0  0  0  0  0  0  0  0
  190.2020  177.6220  136.9990 F   0  0  0  0  0  0  0  0  0  0  0  0
  189.0780  179.4790  137.5850 F   0  0  0  0  0  0  0  0  0  0  0  0
  187.9860  177.7600  136.6120 F   0  0  0  0  0  0  0  0  0  0  0  0
  184.7520  179.4030  143.1790 C   0  0  0  0  0  2  0  0  0  0  0  0
  184.0280  178.5410  144.1980 C   0  0  2  0  0  3  0  0  0  0  0  0
  182.5330  178.7440  144.0480 C   0  0  0  0  0  1  0  0  0  0  0  0
  187.2900  178.5950  147.9140 C   0  0  0  0  0  3  0  0  0  0  0  0
  186.6290  177.8840  145.3210 N   0  0  0  0  0  0  0  0  0  0  0  0
  190.3770  176.8550  146.8270 C   0  0  0  0  0  0  0  0  0  0  0  0
  189.4640  177.5550  147.6300 C   0  0  0  0  0  3  0  0  0  0  0  0
  188.2080  177.9000  147.1260 C   0  0  0  0  0  0  0  0  0  0  0  0
  184.4430  178.9110  145.5430 N   0  0  0  0  0  2  0  0  0  0  0  0
  188.7620  176.8500  145.0070 C   0  0  0  0  0  3  0  0  0  0  0  0
  187.8530  177.5460  145.8070 C   0  0  0  0  0  0  0  0  0  0  0  0
  190.0180  176.5070  145.5150 C   0  0  0  0  0  3  0  0  0  0  0  0
  185.7210  178.5620  146.0780 C   0  0  0  0  0  0  0  0  0  0  0  0
  186.0400  178.9290  147.3900 C   0  0  0  0  0  3  0  0  0  0  0  0
  191.6990  176.4940  147.3600 C   0  0  0  0  0  0  0  0  0  0  0  0
  192.3670  175.5640  146.8350 O   0  0  0  0  0  0  0  0  0  0  0  0
  192.2250  177.1770  148.4520 O   0  0  0  0  0  1  0  0  0  0  0  0
  1 18  1  1  0  0  0
  2  5  1  0  0  0  0
  2  8  2  0  0  0  0
  3  6  1  0  0  0  0
  4  3  2  0  0  0  0
  5  6  1  0  0  0  0
  6  1  1  0  0  0  0
  7  4  1  0  0  0  0
  7  5  2  0  0  0  0
  8 10  1  0  0  0  0
 10  1  1  0  0  0  0
 10  9  1  1  0  0  0
 11  8  1  0  0  0  0
 12 13  1  1  0  0  0
 12 11  1  0  0  0  0
 14 16  1  0  0  0  0
 14 12  1  0  0  0  0
 15 14  1  0  0  0  0
 17 14  1  0  0  0  0
 18 19  1  0  0  0  0
 19 20  1  1  0  0  0
 19 26  1  0  0  0  0
 22 28  1  0  0  0  0
 22 30  2  0  0  0  0
 23 32  1  0  0  0  0
 23 24  1  0  0  0  0
 25 24  2  0  0  0  0
 25 21  1  0  0  0  0
 26 30  1  0  0  0  0
 27 29  1  0  0  0  0
 27 28  2  0  0  0  0
 28 25  1  0  0  0  0
 29 23  2  0  0  0  0
 30 31  1  0  0  0  0
 31 21  2  0  0  0  0
 32 34  1  0  0  0  0
 33 32  2  0  0  0  0
M  END
>  <MODEL>
1

>  <REMARK>
 VINA RESULT:      -9.9      0.000      0.000
  Name = 
  7 active torsions:
  status: ('A' for Active; 'I' for Inactive)
    1  A    between atoms: C_1  and  C_9
    2  A    between atoms: O_2  and  C_23
    3  A    between atoms: O_2  and  C_32
    4  A    between atoms: C_3  and  C_23
    5  A    between atoms: C_7  and  C_11
    6  A    between atoms: C_8  and  C_9
    7  A    between atoms: C_8  and  N_18
                            x       y       z     vdW  Elec       q    Type
                         _______ _______ _______ _____ _____    ______ ____

>  <TORSDO>
F 7

$$$$
=
 OpenBabel11052415533D

 34 37  0  0  1  0  0  0  0  0999 V2000
  189.7310  177.1180  138.9890 C   0  0  1  0  0  3  0  0  0  0  0  0
  187.5780  176.8670  137.0740 N   0  0  0  0  0  0  0  0  0  0  0  0
  190.6460  175.2420  137.5430 C   0  0  0  0  0  3  0  0  0  0  0  0
  190.1850  174.6270  136.3850 C   0  0  0  0  0  3  0  0  0  0  0  0
  188.7200  176.0150  137.0320 C   0  0  0  0  0  0  0  0  0  0  0  0
  189.6880  176.0940  137.9450 N   0  0  0  0  0  0  0  0  0  0  0  0
  188.9690  175.1240  136.0590 N   0  0  0  0  0  0  0  0  0  0  0  0
  187.3860  177.6650  138.0880 C   0  0  0  0  0  0  0  0  0  0  0  0
  188.3990  178.9180  139.8550 O   0  0  0  0  0  1  0  0  0  0  0  0
  188.3130  177.6440  139.2920 C   0  0  2  0  0  3  0  0  0  0  0  0
  186.2710  178.5090  138.1190 O   0  0  0  0  0  0  0  0  0  0  0  0
  184.9970  178.0900  138.6000 C   0  0  2  0  0  3  0  0  0  0  0  0
  184.0470  177.8690  137.4310 C   0  0  0  0  0  1  0  0  0  0  0  0
  184.4370  179.1310  139.5650 C   0  0  0  0  0  0  0  0  0  0  0  0
  183.9880  180.2250  138.8490 F   0  0  0  0  0  0  0  0  0  0  0  0
  185.4260  179.5450  140.4380 F   0  0  0  0  0  0  0  0  0  0  0  0
  183.3820  178.5990  140.2880 F   0  0  0  0  0  0  0  0  0  0  0  0
  190.3470  176.5730  140.2740 C   0  0  0  0  0  2  0  0  0  0  0  0
  191.3890  177.5270  140.8280 C   0  0  2  0  0  3  0  0  0  0  0  0
  192.7290  177.2310  140.1830 C   0  0  0  0  0  1  0  0  0  0  0  0
  189.4630  177.5420  145.3830 C   0  0  0  0  0  3  0  0  0  0  0  0
  189.1390  177.8250  142.6470 N   0  0  0  0  0  0  0  0  0  0  0  0
  185.8440  178.3080  145.1530 C   0  0  0  0  0  0  0  0  0  0  0  0
  187.1010  178.0060  145.6960 C   0  0  0  0  0  3  0  0  0  0  0  0
  188.2060  177.8440  144.8570 C   0  0  0  0  0  0  0  0  0  0  0  0
  191.4910  177.3640  142.2720 N   0  0  0  0  0  2  0  0  0  0  0  0
  186.8090  178.2840  142.9200 C   0  0  0  0  0  3  0  0  0  0  0  0
  188.0610  177.9830  143.4610 C   0  0  0  0  0  0  0  0  0  0  0  0
  185.7050  178.4450  143.7630 C   0  0  0  0  0  3  0  0  0  0  0  0
  190.3730  177.5320  143.1460 C   0  0  0  0  0  0  0  0  0  0  0  0
  190.5530  177.3850  144.5260 C   0  0  0  0  0  3  0  0  0  0  0  0
  184.6820  178.4780  146.0400 C   0  0  0  0  0  0  0  0  0  0  0  0
  184.7610  178.1820  147.2610 O   0  0  0  0  0  1  0  0  0  0  0  0
  183.4820  178.9670  145.5350 O   0  0  0  0  0  0  0  0  0  0  0  0
  1 10  1  0  0  0  0
  1 18  1  1  0  0  0
  2  8  2  0  0  0  0
  3  6  1  0  0  0  0
  4  3  2  0  0  0  0
  5  2  1  0  0  0  0
  5  6  1  0  0  0  0
  6  1  1  0  0  0  0
  7  4  1  0  0  0  0
  7  5  2  0  0  0  0
  8 11  1  0  0  0  0
  8 10  1  0  0  0  0
 10  9  1  6  0  0  0
 11 12  1  0  0  0  0
 12 13  1  6  0  0  0
 12 14  1  0  0  0  0
 14 17  1  0  0  0  0
 14 16  1  0  0  0  0
 15 14  1  0  0  0  0
 18 19  1  0  0  0  0
 19 20  1  6  0  0  0
 19 26  1  0  0  0  0
 22 30  2  0  0  0  0
 22 28  1  0  0  0  0
 23 24  1  0  0  0  0
 23 32  1  0  0  0  0
 25 21  1  0  0  0  0
 25 24  2  0  0  0  0
 26 30  1  0  0  0  0
 27 28  2  0  0  0  0
 27 29  1  0  0  0  0
 28 25  1  0  0  0  0
 29 23  2  0  0  0  0
 30 31  1  0  0  0  0
 31 21  2  0  0  0  0
 32 33  1  0  0  0  0
 34 32  2  0  0  0  0
M  END
>  <MODEL>
2

>  <REMARK>
 VINA RESULT:      -9.3      3.390      6.015
  Name = 
  7 active torsions:
  status: ('A' for Active; 'I' for Inactive)
    1  A    between atoms: C_1  and  C_9
    2  A    between atoms: O_2  and  C_23
    3  A    between atoms: O_2  and  C_32
    4  A    between atoms: C_3  and  C_23
    5  A    between atoms: C_7  and  C_11
    6  A    between atoms: C_8  and  C_9
    7  A    between atoms: C_8  and  N_18
                            x       y       z     vdW  Elec       q    Type
                         _______ _______ _______ _____ _____    ______ ____

>  <TORSDO>
F 7

$$$$
=
 OpenBabel11052415533D

 34 37  0  0  1  0  0  0  0  0999 V2000
  183.8330  178.9820  141.6560 C   0  0  1  0  0  3  0  0  0  0  0  0
  183.7200  178.7280  144.5350 N   0  0  0  0  0  0  0  0  0  0  0  0
  181.3180  178.8780  141.9900 C   0  0  0  0  0  3  0  0  0  0  0  0
  180.5140  178.8200  143.1220 C   0  0  0  0  0  3  0  0  0  0  0  0
  182.5390  178.7240  143.7370 C   0  0  0  0  0  0  0  0  0  0  0  0
  182.5920  178.7870  142.4070 N   0  0  0  0  0  0  0  0  0  0  0  0
  181.2900  178.7310  144.2280 N   0  0  0  0  0  0  0  0  0  0  0  0
  184.8970  178.6620  143.9750 C   0  0  0  0  0  0  0  0  0  0  0  0
  186.2000  179.1240  142.0250 O   0  0  0  0  0  1  0  0  0  0  0  0
  185.0440  178.4860  142.4720 C   0  0  2  0  0  3  0  0  0  0  0  0
  186.0530  178.6800  144.7620 O   0  0  0  0  0  0  0  0  0  0  0  0
  186.6090  177.5050  145.3450 C   0  0  2  0  0  3  0  0  0  0  0  0
  186.9450  177.7610  146.8070 C   0  0  0  0  0  1  0  0  0  0  0  0
  187.8510  177.0760  144.5700 C   0  0  0  0  0  0  0  0  0  0  0  0
  188.8050  176.6060  145.4540 F   0  0  0  0  0  0  0  0  0  0  0  0
  188.3750  178.1570  143.8840 F   0  0  0  0  0  0  0  0  0  0  0  0
  187.5350  176.0730  143.6700 F   0  0  0  0  0  0  0  0  0  0  0  0
  183.7940  178.2420  140.3220 C   0  0  0  0  0  2  0  0  0  0  0  0
  184.2250  179.1480  139.1830 C   0  0  2  0  0  3  0  0  0  0  0  0
  183.0580  180.0240  138.7730 C   0  0  0  0  0  1  0  0  0  0  0  0
  187.6600  176.6590  136.6390 C   0  0  0  0  0  3  0  0  0  0  0  0
  186.9340  178.1370  138.8670 N   0  0  0  0  0  0  0  0  0  0  0  0
  190.8560  176.7700  138.5120 C   0  0  0  0  0  0  0  0  0  0  0  0
  189.9170  176.4820  137.5110 C   0  0  0  0  0  3  0  0  0  0  0  0
  188.6030  176.9390  137.6280 C   0  0  0  0  0  0  0  0  0  0  0  0
  184.6600  178.3440  138.0490 N   0  0  0  0  0  2  0  0  0  0  0  0
  189.1490  177.9800  139.7540 C   0  0  0  0  0  3  0  0  0  0  0  0
  188.2140  177.6930  138.7560 C   0  0  0  0  0  0  0  0  0  0  0  0
  190.4630  177.5200  139.6320 C   0  0  0  0  0  3  0  0  0  0  0  0
  186.0010  177.8730  137.9080 C   0  0  0  0  0  0  0  0  0  0  0  0
  186.3520  177.1270  136.7780 C   0  0  0  0  0  3  0  0  0  0  0  0
  192.2400  176.2870  138.3860 C   0  0  0  0  0  0  0  0  0  0  0  0
  192.4820  175.1820  137.8310 O   0  0  0  0  0  0  0  0  0  0  0  0
  193.2950  177.0470  138.8780 O   0  0  0  0  0  1  0  0  0  0  0  0
  1 18  1  6  0  0  0
  1  6  1  0  0  0  0
  1 10  1  0  0  0  0
  3  6  1  0  0  0  0
  3  4  2  0  0  0  0
  4  7  1  0  0  0  0
  5  7  2  0  0  0  0
  5  2  1  0  0  0  0
  6  5  1  0  0  0  0
  8  2  2  0  0  0  0
  8 11  1  0  0  0  0
 10  9  1  6  0  0  0
 10  8  1  0  0  0  0
 11 12  1  0  0  0  0
 12 13  1  1  0  0  0
 14 12  1  0  0  0  0
 14 15  1  0  0  0  0
 16 14  1  0  0  0  0
 17 14  1  0  0  0  0
 19 20  1  6  0  0  0
 19 18  1  0  0  0  0
 21 31  2  0  0  0  0
 21 25  1  0  0  0  0
 23 29  1  0  0  0  0
 24 25  1  0  0  0  0
 24 23  2  0  0  0  0
 25 28  2  0  0  0  0
 26 19  1  0  0  0  0
 28 22  1  0  0  0  0
 28 27  1  0  0  0  0
 29 27  2  0  0  0  0
 30 26  1  0  0  0  0
 30 22  2  0  0  0  0
 31 30  1  0  0  0  0
 32 23  1  0  0  0  0
 32 34  1  0  0  0  0
 33 32  2  0  0  0  0
M  END
>  <MODEL>
3

>  <REMARK>
 VINA RESULT:      -9.0      3.260      6.906
  Name = 
  7 active torsions:
  status: ('A' for Active; 'I' for Inactive)
    1  A    between atoms: C_1  and  C_9
    2  A    between atoms: O_2  and  C_23
    3  A    between atoms: O_2  and  C_32
    4  A    between atoms: C_3  and  C_23
    5  A    between atoms: C_7  and  C_11
    6  A    between atoms: C_8  and  C_9
    7  A    between atoms: C_8  and  N_18
                            x       y       z     vdW  Elec       q    Type
                         _______ _______ _______ _____ _____    ______ ____

>  <TORSDO>
F 7

$$$$
=
 OpenBabel11052415533D

 34 37  0  0  1  0  0  0  0  0999 V2000
  186.1750  178.4510  138.9200 C   0  0  1  0  0  3  0  0  0  0  0  0
  183.3370  178.3830  139.4700 N   0  0  0  0  0  0  0  0  0  0  0  0
  185.3460  177.3100  136.8090 C   0  0  0  0  0  3  0  0  0  0  0  0
  184.0760  176.9970  136.3370 C   0  0  0  0  0  3  0  0  0  0  0  0
  183.8810  177.8190  138.2800 C   0  0  0  0  0  0  0  0  0  0  0  0
  185.1940  177.8010  138.0500 N   0  0  0  0  0  0  0  0  0  0  0  0
  183.1500  177.3280  137.2670 N   0  0  0  0  0  0  0  0  0  0  0  0
  184.1220  178.7850  140.4310 C   0  0  0  0  0  0  0  0  0  0  0  0
  186.2870  179.6140  141.0160 O   0  0  0  0  0  1  0  0  0  0  0  0
  185.6260  178.5790  140.3560 C   0  0  2  0  0  3  0  0  0  0  0  0
  183.5830  179.3500  141.5910 O   0  0  0  0  0  0  0  0  0  0  0  0
  183.2040  178.5760  142.7250 C   0  0  2  0  0  3  0  0  0  0  0  0
  181.7520  178.8580  143.0840 C   0  0  0  0  0  1  0  0  0  0  0  0
  184.1250  178.8890  143.9010 C   0  0  0  0  0  0  0  0  0  0  0  0
  184.8520  180.0310  143.6230 F   0  0  0  0  0  0  0  0  0  0  0  0
  185.0030  177.8400  144.1040 F   0  0  0  0  0  0  0  0  0  0  0  0
  183.3830  179.0940  145.0520 F   0  0  0  0  0  0  0  0  0  0  0  0
  187.4860  177.6700  138.9550 C   0  0  0  0  0  2  0  0  0  0  0  0
  188.6790  178.6000  138.8190 C   0  0  2  0  0  3  0  0  0  0  0  0
  188.8860  178.9340  137.3550 C   0  0  0  0  0  1  0  0  0  0  0  0
  191.4010  176.8120  142.5410 C   0  0  0  0  0  3  0  0  0  0  0  0
  189.0660  177.9960  141.6380 N   0  0  0  0  0  0  0  0  0  0  0  0
  189.5160  177.2120  145.7070 C   0  0  0  0  0  0  0  0  0  0  0  0
  190.5400  176.8780  144.8090 C   0  0  0  0  0  3  0  0  0  0  0  0
  190.3910  177.1400  143.4460 C   0  0  0  0  0  0  0  0  0  0  0  0
  189.8710  177.9540  139.3510 N   0  0  0  0  0  2  0  0  0  0  0  0
  188.1880  178.0760  143.8610 C   0  0  0  0  0  3  0  0  0  0  0  0
  189.2080  177.7420  142.9670 C   0  0  0  0  0  0  0  0  0  0  0  0
  188.3420  177.8110  145.2250 C   0  0  0  0  0  3  0  0  0  0  0  0
  190.0450  177.6830  140.7430 C   0  0  0  0  0  0  0  0  0  0  0  0
  191.2300  177.0840  141.1830 C   0  0  0  0  0  3  0  0  0  0  0  0
  189.6770  176.9350  147.1430 C   0  0  0  0  0  0  0  0  0  0  0  0
  190.8010  176.6100  147.6090 O   0  0  0  0  0  0  0  0  0  0  0  0
  188.5860  177.0280  148.0010 O   0  0  0  0  0  1  0  0  0  0  0  0
  1 18  1  1  0  0  0
  1 10  1  0  0  0  0
  2  8  2  0  0  0  0
  3  6  1  0  0  0  0
  4  3  2  0  0  0  0
  4  7  1  0  0  0  0
  5  2  1  0  0  0  0
  6  5  1  0  0  0  0
  6  1  1  0  0  0  0
  7  5  2  0  0  0  0
  8 11  1  0  0  0  0
 10  8  1  0  0  0  0
 10  9  1  6  0  0  0
 11 12  1  0  0  0  0
 12 13  1  1  0  0  0
 12 14  1  0  0  0  0
 14 16  1  0  0  0  0
 14 17  1  0  0  0  0
 15 14  1  0  0  0  0
 19 20  1  6  0  0  0
 19 18  1  0  0  0  0
 19 26  1  0  0  0  0
 21 25  1  0  0  0  0
 22 28  1  0  0  0  0
 23 32  1  0  0  0  0
 24 23  2  0  0  0  0
 25 24  1  0  0  0  0
 26 30  1  0  0  0  0
 27 29  2  0  0  0  0
 28 25  2  0  0  0  0
 28 27  1  0  0  0  0
 29 23  1  0  0  0  0
 30 31  1  0  0  0  0
 30 22  2  0  0  0  0
 31 21  2  0  0  0  0
 32 33  2  0  0  0  0
 32 34  1  0  0  0  0
M  END
>  <MODEL>
4

>  <REMARK>
 VINA RESULT:      -8.9      3.242      5.525
  Name = 
  7 active torsions:
  status: ('A' for Active; 'I' for Inactive)
    1  A    between atoms: C_1  and  C_9
    2  A    between atoms: O_2  and  C_23
    3  A    between atoms: O_2  and  C_32
    4  A    between atoms: C_3  and  C_23
    5  A    between atoms: C_7  and  C_11
    6  A    between atoms: C_8  and  C_9
    7  A    between atoms: C_8  and  N_18
                            x       y       z     vdW  Elec       q    Type
                         _______ _______ _______ _____ _____    ______ ____

>  <TORSDO>
F 7

$$$$
=
 OpenBabel11052415533D

 34 37  0  0  1  0  0  0  0  0999 V2000
  188.6480  177.2020  145.3710 C   0  0  1  0  0  3  0  0  0  0  0  0
  186.1760  178.1590  146.5270 N   0  0  0  0  0  0  0  0  0  0  0  0
  189.4550  177.7920  147.7050 C   0  0  0  0  0  3  0  0  0  0  0  0
  188.8050  178.2530  148.8440 C   0  0  0  0  0  3  0  0  0  0  0  0
  187.3970  178.1620  147.2630 C   0  0  0  0  0  0  0  0  0  0  0  0
  188.5470  177.7720  146.7150 N   0  0  0  0  0  0  0  0  0  0  0  0
  187.5000  178.4780  148.5630 N   0  0  0  0  0  0  0  0  0  0  0  0
  186.1750  177.8940  145.2500 C   0  0  0  0  0  0  0  0  0  0  0  0
  187.2750  176.7690  143.4500 O   0  0  0  0  0  1  0  0  0  0  0  0
  187.4740  177.6760  144.4900 C   0  0  2  0  0  3  0  0  0  0  0  0
  184.9730  177.8780  144.5350 O   0  0  0  0  0  0  0  0  0  0  0  0
  184.4540  179.0260  143.8690 C   0  0  2  0  0  3  0  0  0  0  0  0
  182.9990  179.2410  144.2630 C   0  0  0  0  0  1  0  0  0  0  0  0
  184.5880  178.8580  142.3590 C   0  0  0  0  0  0  0  0  0  0  0  0
  185.6560  179.6120  141.9070 F   0  0  0  0  0  0  0  0  0  0  0  0
  183.4360  179.2960  141.7310 F   0  0  0  0  0  0  0  0  0  0  0  0
  184.8070  177.5290  142.0400 F   0  0  0  0  0  0  0  0  0  0  0  0
  189.9630  177.5940  144.7020 C   0  0  0  0  0  2  0  0  0  0  0  0
  190.8520  176.3810  144.4940 C   0  0  2  0  0  3  0  0  0  0  0  0
  191.6810  176.1520  145.7420 C   0  0  0  0  0  1  0  0  0  0  0  0
  191.6660  177.5000  139.7460 C   0  0  0  0  0  3  0  0  0  0  0  0
  189.9050  177.1600  141.8560 N   0  0  0  0  0  0  0  0  0  0  0  0
  188.4230  178.2460  138.1150 C   0  0  0  0  0  0  0  0  0  0  0  0
  189.8000  178.0560  138.2980 C   0  0  0  0  0  3  0  0  0  0  0  0
  190.2980  177.6920  139.5510 C   0  0  0  0  0  0  0  0  0  0  0  0
  191.7300  176.6010  143.3530 N   0  0  0  0  0  2  0  0  0  0  0  0
  188.0450  177.7040  140.4570 C   0  0  0  0  0  3  0  0  0  0  0  0
  189.4170  177.5150  140.6380 C   0  0  0  0  0  0  0  0  0  0  0  0
  187.5510  178.0680  139.2010 C   0  0  0  0  0  3  0  0  0  0  0  0
  191.2390  176.9680  142.0620 C   0  0  0  0  0  0  0  0  0  0  0  0
  192.1410  177.1360  141.0070 C   0  0  0  0  0  3  0  0  0  0  0  0
  187.9010  178.6290  136.7940 C   0  0  0  0  0  0  0  0  0  0  0  0
  187.2330  179.6880  136.6540 O   0  0  0  0  0  1  0  0  0  0  0  0
  188.1410  177.8250  135.6860 O   0  0  0  0  0  0  0  0  0  0  0  0
  1 18  1  6  0  0  0
  1  6  1  0  0  0  0
  2  5  1  0  0  0  0
  3  4  2  0  0  0  0
  5  7  2  0  0  0  0
  6  5  1  0  0  0  0
  6  3  1  0  0  0  0
  7  4  1  0  0  0  0
  8  2  2  0  0  0  0
 10  9  1  6  0  0  0
 10  8  1  0  0  0  0
 10  1  1  0  0  0  0
 11  8  1  0  0  0  0
 12 13  1  6  0  0  0
 12 11  1  0  0  0  0
 14 12  1  0  0  0  0
 15 14  1  0  0  0  0
 16 14  1  0  0  0  0
 17 14  1  0  0  0  0
 19 18  1  0  0  0  0
 19 20  1  1  0  0  0
 21 31  2  0  0  0  0
 22 30  2  0  0  0  0
 23 24  2  0  0  0  0
 23 29  1  0  0  0  0
 24 25  1  0  0  0  0
 25 21  1  0  0  0  0
 25 28  2  0  0  0  0
 26 19  1  0  0  0  0
 27 28  1  0  0  0  0
 28 22  1  0  0  0  0
 29 27  2  0  0  0  0
 30 26  1  0  0  0  0
 31 30  1  0  0  0  0
 32 23  1  0  0  0  0
 33 32  1  0  0  0  0
 34 32  2  0  0  0  0
M  END
>  <MODEL>
5

>  <REMARK>
 VINA RESULT:      -8.9      3.384      8.014
  Name = 
  7 active torsions:
  status: ('A' for Active; 'I' for Inactive)
    1  A    between atoms: C_1  and  C_9
    2  A    between atoms: O_2  and  C_23
    3  A    between atoms: O_2  and  C_32
    4  A    between atoms: C_3  and  C_23
    5  A    between atoms: C_7  and  C_11
    6  A    between atoms: C_8  and  C_9
    7  A    between atoms: C_8  and  N_18
                            x       y       z     vdW  Elec       q    Type
                         _______ _______ _______ _____ _____    ______ ____

>  <TORSDO>
F 7

$$$$
=
 OpenBabel11052415533D

 34 37  0  0  1  0  0  0  0  0999 V2000
  187.9900  177.6890  145.0590 C   0  0  1  0  0  3  0  0  0  0  0  0
  190.3880  176.3320  144.1810 N   0  0  0  0  0  0  0  0  0  0  0  0
  189.2760  177.6100  147.2470 C   0  0  0  0  0  3  0  0  0  0  0  0
  190.5460  177.1590  147.5830 C   0  0  0  0  0  3  0  0  0  0  0  0
  190.1990  176.7110  145.5420 C   0  0  0  0  0  0  0  0  0  0  0  0
  189.0720  177.2890  145.9580 N   0  0  0  0  0  0  0  0  0  0  0  0
  191.1320  176.5970  146.5000 N   0  0  0  0  0  0  0  0  0  0  0  0
  189.4060  176.4230  143.3270 C   0  0  0  0  0  0  0  0  0  0  0  0
  187.3720  177.5360  142.7440 O   0  0  0  0  0  1  0  0  0  0  0  0
  188.0140  176.8430  143.7700 C   0  0  2  0  0  3  0  0  0  0  0  0
  189.6010  176.0620  141.9900 O   0  0  0  0  0  0  0  0  0  0  0  0
  190.3930  176.8310  141.0890 C   0  0  2  0  0  3  0  0  0  0  0  0
  191.3240  177.7490  141.8690 C   0  0  0  0  0  1  0  0  0  0  0  0
  189.4900  177.6370  140.1590 C   0  0  0  0  0  0  0  0  0  0  0  0
  190.1940  177.9770  139.0180 F   0  0  0  0  0  0  0  0  0  0  0  0
  189.0780  178.7960  140.7900 F   0  0  0  0  0  0  0  0  0  0  0  0
  188.3800  176.8920  139.8000 F   0  0  0  0  0  0  0  0  0  0  0  0
  186.6280  177.5370  145.7300 C   0  0  0  0  0  2  0  0  0  0  0  0
  185.9660  178.8880  145.9330 C   0  0  2  0  0  3  0  0  0  0  0  0
  186.2410  179.3710  147.3430 C   0  0  0  0  0  1  0  0  0  0  0  0
  181.9590  178.7260  143.0380 C   0  0  0  0  0  3  0  0  0  0  0  0
  184.7100  178.9040  143.3100 N   0  0  0  0  0  0  0  0  0  0  0  0
  183.0270  178.9710  139.4970 C   0  0  0  0  0  0  0  0  0  0  0  0
  182.2040  178.8590  140.6270 C   0  0  0  0  0  3  0  0  0  0  0  0
  182.7670  178.8370  141.9050 C   0  0  0  0  0  0  0  0  0  0  0  0
  184.5290  178.7710  145.7250 N   0  0  0  0  0  2  0  0  0  0  0  0
  184.9860  179.0370  140.9380 C   0  0  0  0  0  3  0  0  0  0  0  0
  184.1660  178.9260  142.0640 C   0  0  0  0  0  0  0  0  0  0  0  0
  184.4190  179.0580  139.6610 C   0  0  0  0  0  3  0  0  0  0  0  0
  183.9350  178.7980  144.4250 C   0  0  0  0  0  0  0  0  0  0  0  0
  182.5440  178.7060  144.3050 C   0  0  0  0  0  3  0  0  0  0  0  0
  182.4310  178.9930  138.1520 C   0  0  0  0  0  0  0  0  0  0  0  0
  182.6800  178.0740  137.3270 O   0  0  0  0  0  0  0  0  0  0  0  0
  181.5860  180.0320  137.7780 O   0  0  0  0  0  1  0  0  0  0  0  0
  1 18  1  1  0  0  0
  1  6  1  0  0  0  0
  2  5  1  0  0  0  0
  3  4  2  0  0  0  0
  5  6  1  0  0  0  0
  5  7  2  0  0  0  0
  6  3  1  0  0  0  0
  7  4  1  0  0  0  0
  8 10  1  0  0  0  0
  8  2  2  0  0  0  0
 10  9  1  6  0  0  0
 10  1  1  0  0  0  0
 11  8  1  0  0  0  0
 12 13  1  1  0  0  0
 12 11  1  0  0  0  0
 14 16  1  0  0  0  0
 14 12  1  0  0  0  0
 15 14  1  0  0  0  0
 17 14  1  0  0  0  0
 18 19  1  0  0  0  0
 19 20  1  1  0  0  0
 21 31  2  0  0  0  0
 22 30  2  0  0  0  0
 23 29  2  0  0  0  0
 23 24  1  0  0  0  0
 24 25  2  0  0  0  0
 25 28  1  0  0  0  0
 25 21  1  0  0  0  0
 26 19  1  0  0  0  0
 27 28  2  0  0  0  0
 28 22  1  0  0  0  0
 29 27  1  0  0  0  0
 30 26  1  0  0  0  0
 31 30  1  0  0  0  0
 32 23  1  0  0  0  0
 33 32  2  0  0  0  0
 34 32  1  0  0  0  0
M  END
>  <MODEL>
6

>  <REMARK>
 VINA RESULT:      -8.8      2.471      7.224
  Name = 
  7 active torsions:
  status: ('A' for Active; 'I' for Inactive)
    1  A    between atoms: C_1  and  C_9
    2  A    between atoms: O_2  and  C_23
    3  A    between atoms: O_2  and  C_32
    4  A    between atoms: C_3  and  C_23
    5  A    between atoms: C_7  and  C_11
    6  A    between atoms: C_8  and  C_9
    7  A    between atoms: C_8  and  N_18
                            x       y       z     vdW  Elec       q    Type
                         _______ _______ _______ _____ _____    ______ ____

>  <TORSDO>
F 7

$$$$
=
 OpenBabel11052415533D

 34 37  0  0  1  0  0  0  0  0999 V2000
  191.5480  175.8000  137.9700 C   0  0  1  0  0  3  0  0  0  0  0  0
  193.3590  174.0710  136.5230 N   0  0  0  0  0  0  0  0  0  0  0  0
  189.8780  174.2270  136.8840 C   0  0  0  0  0  3  0  0  0  0  0  0
  190.0200  173.0950  136.0900 C   0  0  0  0  0  3  0  0  0  0  0  0
  191.9450  173.9050  136.4460 C   0  0  0  0  0  0  0  0  0  0  0  0
  191.1080  174.7340  137.0700 N   0  0  0  0  0  0  0  0  0  0  0  0
  191.3310  172.8890  135.8210 N   0  0  0  0  0  0  0  0  0  0  0  0
  193.8710  175.1210  137.1020 C   0  0  0  0  0  0  0  0  0  0  0  0
  193.5720  176.8310  138.7470 O   0  0  0  0  0  1  0  0  0  0  0  0
  192.9860  176.2400  137.6280 C   0  0  2  0  0  3  0  0  0  0  0  0
  195.2590  175.2720  137.1860 O   0  0  0  0  0  0  0  0  0  0  0  0
  196.1180  174.2540  137.6930 C   0  0  2  0  0  3  0  0  0  0  0  0
  195.9160  174.1030  139.1940 C   0  0  0  0  0  1  0  0  0  0  0  0
  197.5710  174.5920  137.3720 C   0  0  0  0  0  0  0  0  0  0  0  0
  197.6140  175.4620  136.2980 F   0  0  0  0  0  0  0  0  0  0  0  0
  198.2610  173.4410  137.0400 F   0  0  0  0  0  0  0  0  0  0  0  0
  198.1780  175.1910  138.4630 F   0  0  0  0  0  0  0  0  0  0  0  0
  190.6230  177.0110  137.8870 C   0  0  0  0  0  2  0  0  0  0  0  0
  189.8760  177.2180  139.1920 C   0  0  2  0  0  3  0  0  0  0  0  0
  188.9740  178.4290  139.0630 C   0  0  0  0  0  1  0  0  0  0  0  0
  190.9950  177.8400  143.9690 C   0  0  0  0  0  3  0  0  0  0  0  0
  189.1070  177.3970  141.9920 N   0  0  0  0  0  0  0  0  0  0  0  0
  187.8760  177.6690  145.9650 C   0  0  0  0  0  0  0  0  0  0  0  0
  189.2340  177.8010  145.6390 C   0  0  0  0  0  3  0  0  0  0  0  0
  189.6470  177.7100  144.3080 C   0  0  0  0  0  0  0  0  0  0  0  0
  190.8240  177.4220  140.2790 N   0  0  0  0  0  2  0  0  0  0  0  0
  187.3480  177.3530  143.6110 C   0  0  0  0  0  3  0  0  0  0  0  0
  188.7000  177.4850  143.2860 C   0  0  0  0  0  0  0  0  0  0  0  0
  186.9390  177.4430  144.9440 C   0  0  0  0  0  3  0  0  0  0  0  0
  190.4190  177.5230  141.6450 C   0  0  0  0  0  0  0  0  0  0  0  0
  191.3850  177.7460  142.6320 C   0  0  0  0  0  3  0  0  0  0  0  0
  187.4440  177.7640  147.3680 C   0  0  0  0  0  0  0  0  0  0  0  0
  188.0300  177.1000  148.2640 O   0  0  0  0  0  1  0  0  0  0  0  0
  186.3820  178.5900  147.7190 O   0  0  0  0  0  0  0  0  0  0  0  0
  1 18  1  6  0  0  0
  2  8  2  0  0  0  0
  3  6  1  0  0  0  0
  4  3  2  0  0  0  0
  5  2  1  0  0  0  0
  5  6  1  0  0  0  0
  6  1  1  0  0  0  0
  7  4  1  0  0  0  0
  7  5  2  0  0  0  0
  8 11  1  0  0  0  0
  8 10  1  0  0  0  0
 10  1  1  0  0  0  0
 10  9  1  1  0  0  0
 11 12  1  0  0  0  0
 12 13  1  1  0  0  0
 14 12  1  0  0  0  0
 14 17  1  0  0  0  0
 15 14  1  0  0  0  0
 16 14  1  0  0  0  0
 18 19  1  0  0  0  0
 19 20  1  6  0  0  0
 19 26  1  0  0  0  0
 21 25  1  0  0  0  0
 22 28  1  0  0  0  0
 23 32  1  0  0  0  0
 24 23  1  0  0  0  0
 25 24  2  0  0  0  0
 26 30  1  0  0  0  0
 27 29  1  0  0  0  0
 28 27  2  0  0  0  0
 28 25  1  0  0  0  0
 29 23  2  0  0  0  0
 30 22  2  0  0  0  0
 30 31  1  0  0  0  0
 31 21  2  0  0  0  0
 32 34  2  0  0  0  0
 32 33  1  0  0  0  0
M  END
>  <MODEL>
7

>  <REMARK>
 VINA RESULT:      -8.7      5.145      7.427
  Name = 
  7 active torsions:
  status: ('A' for Active; 'I' for Inactive)
    1  A    between atoms: C_1  and  C_9
    2  A    between atoms: O_2  and  C_23
    3  A    between atoms: O_2  and  C_32
    4  A    between atoms: C_3  and  C_23
    5  A    between atoms: C_7  and  C_11
    6  A    between atoms: C_8  and  C_9
    7  A    between atoms: C_8  and  N_18
                            x       y       z     vdW  Elec       q    Type
                         _______ _______ _______ _____ _____    ______ ____

>  <TORSDO>
F 7

$$$$
=
 OpenBabel11052415533D

 34 37  0  0  1  0  0  0  0  0999 V2000
  181.0430  178.8650  139.8630 C   0  0  1  0  0  3  0  0  0  0  0  0
  180.1350  181.6080  139.7250 N   0  0  0  0  0  0  0  0  0  0  0  0
  179.7100  178.9960  142.0200 C   0  0  0  0  0  3  0  0  0  0  0  0
  178.9310  179.9930  142.5940 C   0  0  0  0  0  3  0  0  0  0  0  0
  179.8220  180.7710  140.8360 C   0  0  0  0  0  0  0  0  0  0  0  0
  180.2830  179.5240  140.9260 N   0  0  0  0  0  0  0  0  0  0  0  0
  178.9960  181.1140  141.8370 N   0  0  0  0  0  0  0  0  0  0  0  0
  180.9940  181.2160  138.8240 C   0  0  0  0  0  0  0  0  0  0  0  0
  182.0150  179.3550  137.7230 O   0  0  0  0  0  1  0  0  0  0  0  0
  181.7530  179.9080  138.9770 C   0  0  2  0  0  3  0  0  0  0  0  0
  181.2880  182.0350  137.7290 O   0  0  0  0  0  0  0  0  0  0  0  0
  180.4610  183.1270  137.3360 C   0  0  2  0  0  3  0  0  0  0  0  0
  179.7650  182.8040  136.0210 C   0  0  0  0  0  1  0  0  0  0  0  0
  181.2980  184.3960  137.2100 C   0  0  0  0  0  0  0  0  0  0  0  0
  180.6460  185.4410  137.8380 F   0  0  0  0  0  0  0  0  0  0  0  0
  181.4700  184.7160  135.8750 F   0  0  0  0  0  0  0  0  0  0  0  0
  182.5380  184.2160  137.8000 F   0  0  0  0  0  0  0  0  0  0  0  0
  182.0830  177.9080  140.4380 C   0  0  0  0  0  2  0  0  0  0  0  0
  183.2110  178.6680  141.1130 C   0  0  2  0  0  3  0  0  0  0  0  0
  184.4950  177.8740  140.9810 C   0  0  0  0  0  1  0  0  0  0  0  0
  184.4080  178.6480  145.9110 C   0  0  0  0  0  3  0  0  0  0  0  0
  185.1320  178.2830  143.2630 N   0  0  0  0  0  0  0  0  0  0  0  0
  187.9660  177.6690  146.2560 C   0  0  0  0  0  0  0  0  0  0  0  0
  186.6610  178.0560  146.5920 C   0  0  0  0  0  3  0  0  0  0  0  0
  185.7100  178.2620  145.5900 C   0  0  0  0  0  0  0  0  0  0  0  0
  182.8980  178.8700  142.5210 N   0  0  0  0  0  2  0  0  0  0  0  0
  187.3600  177.6970  143.9000 C   0  0  0  0  0  3  0  0  0  0  0  0
  186.0600  178.0820  144.2350 C   0  0  0  0  0  0  0  0  0  0  0  0
  188.3090  177.4920  144.9060 C   0  0  0  0  0  3  0  0  0  0  0  0
  183.8560  178.6590  143.5600 C   0  0  0  0  0  0  0  0  0  0  0  0
  183.4750  178.8480  144.8930 C   0  0  0  0  0  3  0  0  0  0  0  0
  188.9660  177.4530  147.3140 C   0  0  0  0  0  0  0  0  0  0  0  0
  189.9090  176.6350  147.1440 O   0  0  0  0  0  0  0  0  0  0  0  0
  188.8790  178.1520  148.5130 O   0  0  0  0  0  1  0  0  0  0  0  0
  1 18  1  1  0  0  0
  1  6  1  0  0  0  0
  2  5  1  0  0  0  0
  3  4  2  0  0  0  0
  5  6  1  0  0  0  0
  5  7  2  0  0  0  0
  6  3  1  0  0  0  0
  7  4  1  0  0  0  0
  8 10  1  0  0  0  0
  8  2  2  0  0  0  0
 10  9  1  6  0  0  0
 10  1  1  0  0  0  0
 11  8  1  0  0  0  0
 12 13  1  6  0  0  0
 12 11  1  0  0  0  0
 14 12  1  0  0  0  0
 14 17  1  0  0  0  0
 14 15  1  0  0  0  0
 16 14  1  0  0  0  0
 18 19  1  0  0  0  0
 19 20  1  1  0  0  0
 19 26  1  0  0  0  0
 22 30  2  0  0  0  0
 22 28  1  0  0  0  0
 23 24  1  0  0  0  0
 23 32  1  0  0  0  0
 25 21  1  0  0  0  0
 25 24  2  0  0  0  0
 26 30  1  0  0  0  0
 27 28  2  0  0  0  0
 27 29  1  0  0  0  0
 28 25  1  0  0  0  0
 29 23  2  0  0  0  0
 30 31  1  0  0  0  0
 31 21  2  0  0  0  0
 32 34  1  0  0  0  0
 33 32  2  0  0  0  0
M  END
>  <MODEL>
8

>  <REMARK>
 VINA RESULT:      -8.6      4.335      5.951
  Name = 
  7 active torsions:
  status: ('A' for Active; 'I' for Inactive)
    1  A    between atoms: C_1  and  C_9
    2  A    between atoms: O_2  and  C_23
    3  A    between atoms: O_2  and  C_32
    4  A    between atoms: C_3  and  C_23
    5  A    between atoms: C_7  and  C_11
    6  A    between atoms: C_8  and  C_9
    7  A    between atoms: C_8  and  N_18
                            x       y       z     vdW  Elec       q    Type
                         _______ _______ _______ _____ _____    ______ ____

>  <TORSDO>
F 7

$$$$
=
 OpenBabel11052415533D

 34 37  0  0  1  0  0  0  0  0999 V2000
  185.6340  177.8440  139.2200 C   0  0  1  0  0  3  0  0  0  0  0  0
  187.8300  177.6380  137.3490 N   0  0  0  0  0  0  0  0  0  0  0  0
  184.3460  177.3910  137.0800 C   0  0  0  0  0  3  0  0  0  0  0  0
  184.7410  177.1170  135.7760 C   0  0  0  0  0  3  0  0  0  0  0  0
  186.4730  177.5240  136.9260 C   0  0  0  0  0  0  0  0  0  0  0  0
  185.4590  177.6720  137.7780 N   0  0  0  0  0  0  0  0  0  0  0  0
  186.0900  177.1940  135.6830 N   0  0  0  0  0  0  0  0  0  0  0  0
  188.1130  178.0210  138.5640 C   0  0  0  0  0  0  0  0  0  0  0  0
  187.3840  178.1260  140.8380 O   0  0  0  0  0  1  0  0  0  0  0  0
  187.0200  178.4450  139.5310 C   0  0  2  0  0  3  0  0  0  0  0  0
  189.4450  178.1180  138.9780 O   0  0  0  0  0  0  0  0  0  0  0  0
  190.1830  177.0050  139.4770 C   0  0  2  0  0  3  0  0  0  0  0  0
  190.7860  177.3480  140.8320 C   0  0  0  0  0  1  0  0  0  0  0  0
  191.2710  176.6130  138.4820 C   0  0  0  0  0  0  0  0  0  0  0  0
  191.3410  175.2350  138.3970 F   0  0  0  0  0  0  0  0  0  0  0  0
  192.4960  177.0950  138.9080 F   0  0  0  0  0  0  0  0  0  0  0  0
  190.9870  177.1290  137.2290 F   0  0  0  0  0  0  0  0  0  0  0  0
  184.5550  178.7520  139.8040 C   0  0  0  0  0  2  0  0  0  0  0  0
  183.5920  177.9650  140.6760 C   0  0  2  0  0  3  0  0  0  0  0  0
  182.3110  177.7180  139.9060 C   0  0  0  0  0  1  0  0  0  0  0  0
  184.5780  179.3160  145.3300 C   0  0  0  0  0  3  0  0  0  0  0  0
  185.2610  177.8880  143.0570 N   0  0  0  0  0  0  0  0  0  0  0  0
  187.7160  177.6710  146.4180 C   0  0  0  0  0  0  0  0  0  0  0  0
  186.5570  178.4600  146.4440 C   0  0  0  0  0  3  0  0  0  0  0  0
  185.7340  178.5340  145.3180 C   0  0  0  0  0  0  0  0  0  0  0  0
  183.3010  178.7140  141.8910 N   0  0  0  0  0  2  0  0  0  0  0  0
  187.2200  177.0280  144.1250 C   0  0  0  0  0  3  0  0  0  0  0  0
  186.0650  177.8150  144.1510 C   0  0  0  0  0  0  0  0  0  0  0  0
  188.0410  176.9580  145.2530 C   0  0  0  0  0  3  0  0  0  0  0  0
  184.1280  178.6460  143.0540 C   0  0  0  0  0  0  0  0  0  0  0  0
  183.7700  179.3740  144.1930 C   0  0  0  0  0  3  0  0  0  0  0  0
  188.5820  177.5960  147.6060 C   0  0  0  0  0  0  0  0  0  0  0  0
  189.8340  177.5440  147.4810 O   0  0  0  0  0  0  0  0  0  0  0  0
  188.0240  177.5820  148.8790 O   0  0  0  0  0  1  0  0  0  0  0  0
  1 10  1  0  0  0  0
  1 18  1  6  0  0  0
  2  8  2  0  0  0  0
  3  6  1  0  0  0  0
  4  3  2  0  0  0  0
  5  2  1  0  0  0  0
  5  6  1  0  0  0  0
  6  1  1  0  0  0  0
  7  4  1  0  0  0  0
  7  5  2  0  0  0  0
  8 11  1  0  0  0  0
  8 10  1  0  0  0  0
 10  9  1  1  0  0  0
 11 12  1  0  0  0  0
 12 13  1  1  0  0  0
 14 16  1  0  0  0  0
 14 12  1  0  0  0  0
 15 14  1  0  0  0  0
 17 14  1  0  0  0  0
 18 19  1  0  0  0  0
 19 20  1  6  0  0  0
 19 26  1  0  0  0  0
 22 28  1  0  0  0  0
 23 24  1  0  0  0  0
 23 32  1  0  0  0  0
 25 21  1  0  0  0  0
 25 24  2  0  0  0  0
 26 30  1  0  0  0  0
 27 28  2  0  0  0  0
 27 29  1  0  0  0  0
 28 25  1  0  0  0  0
 29 23  2  0  0  0  0
 30 22  2  0  0  0  0
 30 31  1  0  0  0  0
 31 21  2  0  0  0  0
 32 34  1  0  0  0  0
 33 32  2  0  0  0  0
M  END
>  <MODEL>
9

>  <REMARK>
 VINA RESULT:      -8.6      2.040      3.213
  Name = 
  7 active torsions:
  status: ('A' for Active; 'I' for Inactive)
    1  A    between atoms: C_1  and  C_9
    2  A    between atoms: O_2  and  C_23
    3  A    between atoms: O_2  and  C_32
    4  A    between atoms: C_3  and  C_23
    5  A    between atoms: C_7  and  C_11
    6  A    between atoms: C_8  and  C_9
    7  A    between atoms: C_8  and  N_18
                            x       y       z     vdW  Elec       q    Type
                         _______ _______ _______ _____ _____    ______ ____

>  <TORSDO>
F 7

$$$$
