=
 OpenBabel11052416473D

 32 37  0  0  1  0  0  0  0  0999 V2000
  191.0320  177.6260  144.5650 C   0  0  2  0  0  3  0  0  0  0  0  0
  186.9240  178.2060  143.1710 C   0  0  0  0  0  0  0  0  0  0  0  0
  188.4920  178.2450  138.6120 C   0  0  0  0  0  3  0  0  0  0  0  0
  187.1850  178.4110  138.1580 C   0  0  0  0  0  3  0  0  0  0  0  0
  184.4670  178.4810  143.5890 C   0  0  0  0  0  0  0  0  0  0  0  0
  183.1960  178.6440  143.0390 C   0  0  0  0  0  0  0  0  0  0  0  0
  188.6540  178.2810  145.0230 C   0  0  2  0  0  3  0  0  0  0  0  0
  189.4280  178.0280  142.6750 C   0  0  0  0  0  2  0  0  0  0  0  0
  181.6070  178.9000  141.3030 C   0  0  2  0  0  3  0  0  0  0  0  0
  191.4440  178.9490  144.5360 F   0  0  0  0  0  0  0  0  0  0  0  0
  188.7300  178.1540  139.9460 N   0  0  0  0  0  0  0  0  0  0  0  0
  187.9860  178.1180  142.2300 C   0  0  0  0  0  0  0  0  0  0  0  0
  187.7190  178.2190  140.8570 C   0  0  0  0  0  0  0  0  0  0  0  0
  185.3410  178.4700  141.3070 C   0  0  0  0  0  0  0  0  0  0  0  0
  180.8740  178.9670  142.6520 C   0  0  0  0  0  3  0  0  0  0  0  0
  190.0370  177.4100  146.9090 C   0  0  0  0  0  3  0  0  0  0  0  0
  189.5800  177.5020  144.0940 C   0  0  1  0  0  3  0  0  0  0  0  0
  181.9150  178.7780  143.7670 C   0  0  0  0  0  3  0  0  0  0  0  0
  188.8790  177.9220  146.4670 C   0  0  0  0  0  3  0  0  0  0  0  0
  191.1940  177.0710  145.9870 C   0  0  1  0  0  3  0  0  0  0  0  0
  186.1700  178.4780  139.0590 N   0  0  0  0  0  0  0  0  0  0  0  0
  186.3990  178.3880  140.3980 C   0  0  0  0  0  0  0  0  0  0  0  0
  184.0690  178.6330  140.8380 N   0  0  0  0  0  0  0  0  0  0  0  0
  187.2130  177.9890  144.6410 C   0  0  0  0  0  2  0  0  0  0  0  0
  184.5930  178.4320  144.9720 O   0  0  0  0  0  1  0  0  0  0  0  0
  181.1140  177.6970  140.5210 C   0  0  0  0  0  1  0  0  0  0  0  0
  185.5870  178.3810  142.7130 C   0  0  0  0  0  0  0  0  0  0  0  0
  183.0210  178.7100  141.6910 C   0  0  0  0  0  0  0  0  0  0  0  0
  191.5300  175.5760  145.9710 C   0  0  2  0  0  3  0  0  0  0  0  0
  192.4570  175.1690  147.1100 C   0  0  0  0  0  1  0  0  0  0  0  0
  192.1240  175.1750  144.6290 C   0  0  0  0  0  2  0  0  0  0  0  0
  192.5710  173.8530  144.6800 O   0  0  0  0  0  1  0  0  0  0  0  0
  1 10  1  1  0  0  0
  1 20  1  0  0  0  0
  2 24  1  0  0  0  0
  3 11  1  0  0  0  0
  4  3  2  0  0  0  0
  4 21  1  0  0  0  0
  5 25  1  0  0  0  0
  6  5  1  0  0  0  0
  6 18  1  0  0  0  0
  7 24  1  6  0  0  0
  7 19  1  0  0  0  0
  9 26  1  6  0  0  0
  9 28  1  0  0  0  0
  9 15  1  0  0  0  0
 11 13  2  0  0  0  0
 12  8  1  0  0  0  0
 12  2  2  0  0  0  0
 13 12  1  0  0  0  0
 14 27  1  0  0  0  0
 15 18  2  0  0  0  0
 17  8  1  6  0  0  0
 17  1  1  0  0  0  0
 17  7  1  0  0  0  0
 19 16  2  0  0  0  0
 20 29  1  6  0  0  0
 20 16  1  0  0  0  0
 21 22  2  0  0  0  0
 22 13  1  0  0  0  0
 22 14  1  0  0  0  0
 23 14  2  0  0  0  0
 23 28  1  0  0  0  0
 27  2  1  0  0  0  0
 27  5  2  0  0  0  0
 28  6  2  0  0  0  0
 29 30  1  1  0  0  0
 31 32  1  0  0  0  0
 31 29  1  0  0  0  0
M  END
>  <MODEL>
1

>  <REMARK>
 VINA RESULT:     -10.2      0.000      0.000
  Name = 
  2 active torsions:
  status: ('A' for Active; 'I' for Inactive)
    1  A    between atoms: C_1  and  C_10
    2  A    between atoms: C_10  and  C_24
                            x       y       z     vdW  Elec       q    Type
                         _______ _______ _______ _____ _____    ______ ____

>  <TORSDO>
F 2

$$$$
=
 OpenBabel11052416473D

 32 37  0  0  1  0  0  0  0  0999 V2000
  189.3290  177.4270  137.1510 C   0  0  2  0  0  3  0  0  0  0  0  0
  189.4050  177.4400  141.5260 C   0  0  0  0  0  0  0  0  0  0  0  0
  184.8650  179.0620  141.5860 C   0  0  0  0  0  3  0  0  0  0  0  0
  184.8740  179.0510  142.9790 C   0  0  0  0  0  3  0  0  0  0  0  0
  190.5570  177.0400  143.7180 C   0  0  0  0  0  0  0  0  0  0  0  0
  190.4680  177.0600  145.1090 C   0  0  0  0  0  0  0  0  0  0  0  0
  190.6200  177.3900  139.3010 C   0  0  2  0  0  3  0  0  0  0  0  0
  188.2020  177.9620  139.3300 C   0  0  0  0  0  2  0  0  0  0  0  0
  189.4280  177.4200  147.2050 C   0  0  2  0  0  3  0  0  0  0  0  0
  189.6220  178.7650  136.9390 F   0  0  0  0  0  0  0  0  0  0  0  0
  185.9740  178.6670  140.9080 N   0  0  0  0  0  0  0  0  0  0  0  0
  188.2310  177.8480  140.8370 C   0  0  0  0  0  0  0  0  0  0  0  0
  187.0990  178.2560  141.5570 C   0  0  0  0  0  0  0  0  0  0  0  0
  188.2500  177.8430  143.6600 C   0  0  0  0  0  0  0  0  0  0  0  0
  190.8710  176.9540  147.4490 C   0  0  0  0  0  3  0  0  0  0  0  0
  191.6510  176.3670  137.2720 C   0  0  0  0  0  3  0  0  0  0  0  0
  189.2680  177.1170  138.6490 C   0  0  1  0  0  3  0  0  0  0  0  0
  191.5260  176.7040  146.0800 C   0  0  0  0  0  3  0  0  0  0  0  0
  191.7430  176.7100  138.5650 C   0  0  0  0  0  3  0  0  0  0  0  0
  190.3860  176.5560  136.4560 C   0  0  1  0  0  3  0  0  0  0  0  0
  185.9930  178.6450  143.6360 N   0  0  0  0  0  0  0  0  0  0  0  0
  187.1080  178.2470  142.9640 C   0  0  0  0  0  0  0  0  0  0  0  0
  188.2340  177.8420  145.0260 N   0  0  0  0  0  0  0  0  0  0  0  0
  190.5810  176.9000  140.7400 C   0  0  0  0  0  2  0  0  0  0  0  0
  191.7550  176.6450  143.1330 O   0  0  0  0  0  1  0  0  0  0  0  0
  188.4640  176.3970  147.7760 C   0  0  0  0  0  1  0  0  0  0  0  0
  189.4210  177.4320  142.9510 C   0  0  0  0  0  0  0  0  0  0  0  0
  189.3210  177.4500  145.7300 C   0  0  0  0  0  0  0  0  0  0  0  0
  189.7880  175.2350  135.9620 C   0  0  2  0  0  3  0  0  0  0  0  0
  188.2800  175.1570  136.1720 C   0  0  0  0  0  1  0  0  0  0  0  0
  190.4810  174.0530  136.6220 C   0  0  0  0  0  2  0  0  0  0  0  0
  189.5700  173.3400  137.4050 O   0  0  0  0  0  1  0  0  0  0  0  0
  1 10  1  1  0  0  0
  1 17  1  0  0  0  0
  2 27  1  0  0  0  0
  3  4  1  0  0  0  0
  4 21  2  0  0  0  0
  5  6  1  0  0  0  0
  6 28  2  0  0  0  0
  6 18  1  0  0  0  0
  7 19  1  6  0  0  0
  7 24  1  0  0  0  0
  8 12  1  0  0  0  0
  9 15  1  0  0  0  0
  9 26  1  1  0  0  0
 11 13  1  0  0  0  0
 11  3  2  0  0  0  0
 12  2  2  0  0  0  0
 12 13  1  0  0  0  0
 13 22  2  0  0  0  0
 14 23  2  0  0  0  0
 16 19  2  0  0  0  0
 17  7  1  0  0  0  0
 17  8  1  1  0  0  0
 18 15  2  0  0  0  0
 20 29  1  1  0  0  0
 20  1  1  0  0  0  0
 20 16  1  0  0  0  0
 22 21  1  0  0  0  0
 22 14  1  0  0  0  0
 23 28  1  0  0  0  0
 24  2  1  0  0  0  0
 25  5  1  0  0  0  0
 27 14  1  0  0  0  0
 27  5  2  0  0  0  0
 28  9  1  0  0  0  0
 29 30  1  1  0  0  0
 29 31  1  0  0  0  0
 31 32  1  0  0  0  0
M  END
>  <MODEL>
2

>  <REMARK>
 VINA RESULT:     -10.2      3.102      7.233
  Name = 
  2 active torsions:
  status: ('A' for Active; 'I' for Inactive)
    1  A    between atoms: C_1  and  C_10
    2  A    between atoms: C_10  and  C_24
                            x       y       z     vdW  Elec       q    Type
                         _______ _______ _______ _____ _____    ______ ____

>  <TORSDO>
F 2

$$$$
=
 OpenBabel11052416473D

 32 37  0  0  1  0  0  0  0  0999 V2000
  181.9570  179.3430  138.6510 C   0  0  2  0  0  3  0  0  0  0  0  0
  185.3410  178.5000  141.2940 C   0  0  0  0  0  0  0  0  0  0  0  0
  188.2970  178.4980  137.4850 C   0  0  0  0  0  3  0  0  0  0  0  0
  189.3840  178.2490  138.3210 C   0  0  0  0  0  3  0  0  0  0  0  0
  186.3220  178.0840  143.5640 C   0  0  0  0  0  0  0  0  0  0  0  0
  187.4690  177.8380  144.3180 C   0  0  0  0  0  0  0  0  0  0  0  0
  182.8440  178.5530  140.8600 C   0  0  2  0  0  3  0  0  0  0  0  0
  184.3960  178.8220  138.9380 C   0  0  0  0  0  2  0  0  0  0  0  0
  189.7780  177.4650  144.6840 C   0  0  2  0  0  3  0  0  0  0  0  0
  181.6990  178.0480  138.2330 F   0  0  0  0  0  0  0  0  0  0  0  0
  187.0550  178.6200  138.0210 N   0  0  0  0  0  0  0  0  0  0  0  0
  185.5520  178.6410  139.8950 C   0  0  0  0  0  0  0  0  0  0  0  0
  186.8420  178.5060  139.3620 C   0  0  0  0  0  0  0  0  0  0  0  0
  187.7540  178.1190  141.5850 C   0  0  0  0  0  0  0  0  0  0  0  0
  189.0480  177.3720  146.0320 C   0  0  0  0  0  3  0  0  0  0  0  0
  180.5490  179.5290  140.7750 C   0  0  0  0  0  3  0  0  0  0  0  0
  183.1490  179.3750  139.6110 C   0  0  1  0  0  3  0  0  0  0  0  0
  187.5540  177.6370  145.7810 C   0  0  0  0  0  3  0  0  0  0  0  0
  181.5280  178.9430  141.4790 C   0  0  0  0  0  3  0  0  0  0  0  0
  180.7030  179.9250  139.3190 C   0  0  1  0  0  3  0  0  0  0  0  0
  189.1810  178.1320  139.6600 N   0  0  0  0  0  0  0  0  0  0  0  0
  187.9400  178.2530  140.2060 C   0  0  0  0  0  0  0  0  0  0  0  0
  188.8340  177.8730  142.3830 N   0  0  0  0  0  0  0  0  0  0  0  0
  183.9640  178.7530  141.8680 C   0  0  0  0  0  2  0  0  0  0  0  0
  185.0980  178.1580  144.2190 O   0  0  0  0  0  1  0  0  0  0  0  0
  190.7540  178.6270  144.7180 C   0  0  0  0  0  1  0  0  0  0  0  0
  186.4480  178.2400  142.1530 C   0  0  0  0  0  0  0  0  0  0  0  0
  188.6900  177.7450  143.7230 C   0  0  0  0  0  0  0  0  0  0  0  0
  180.5980  181.4380  139.0940 C   0  0  2  0  0  3  0  0  0  0  0  0
  179.2470  182.0030  139.5160 C   0  0  0  0  0  1  0  0  0  0  0  0
  180.8920  181.7850  137.6420 C   0  0  0  0  0  2  0  0  0  0  0  0
  181.1810  183.1460  137.5260 O   0  0  0  0  0  1  0  0  0  0  0  0
  1 10  1  1  0  0  0
  1 20  1  0  0  0  0
  1 17  1  0  0  0  0
  2 24  1  0  0  0  0
  2 27  1  0  0  0  0
  3 11  2  0  0  0  0
  3  4  1  0  0  0  0
  4 21  2  0  0  0  0
  5 25  1  0  0  0  0
  5  6  1  0  0  0  0
  6 18  1  0  0  0  0
  7 19  1  1  0  0  0
  7 24  1  0  0  0  0
  8 12  1  0  0  0  0
  9 26  1  1  0  0  0
  9 15  1  0  0  0  0
 11 13  1  0  0  0  0
 12  2  2  0  0  0  0
 13 12  1  0  0  0  0
 13 22  2  0  0  0  0
 14 27  1  0  0  0  0
 14 23  2  0  0  0  0
 16 19  2  0  0  0  0
 17  8  1  6  0  0  0
 17  7  1  0  0  0  0
 18 15  2  0  0  0  0
 20 29  1  1  0  0  0
 20 16  1  0  0  0  0
 21 22  1  0  0  0  0
 22 14  1  0  0  0  0
 23 28  1  0  0  0  0
 27  5  2  0  0  0  0
 28  6  2  0  0  0  0
 28  9  1  0  0  0  0
 29 30  1  6  0  0  0
 31 29  1  0  0  0  0
 32 31  1  0  0  0  0
M  END
>  <MODEL>
3

>  <REMARK>
 VINA RESULT:      -9.8      3.192      8.333
  Name = 
  2 active torsions:
  status: ('A' for Active; 'I' for Inactive)
    1  A    between atoms: C_1  and  C_10
    2  A    between atoms: C_10  and  C_24
                            x       y       z     vdW  Elec       q    Type
                         _______ _______ _______ _____ _____    ______ ____

>  <TORSDO>
F 2

$$$$
=
 OpenBabel11052416473D

 32 37  0  0  1  0  0  0  0  0999 V2000
  191.3470  177.3810  144.2940 C   0  0  2  0  0  3  0  0  0  0  0  0
  187.4740  178.0770  142.3790 C   0  0  0  0  0  0  0  0  0  0  0  0
  189.6150  178.0130  138.0590 C   0  0  0  0  0  3  0  0  0  0  0  0
  188.3820  178.2150  137.4400 C   0  0  0  0  0  3  0  0  0  0  0  0
  184.9940  178.4360  142.4750 C   0  0  0  0  0  0  0  0  0  0  0  0
  183.8100  178.6330  141.7650 C   0  0  0  0  0  0  0  0  0  0  0  0
  188.9540  178.1180  144.4370 C   0  0  2  0  0  3  0  0  0  0  0  0
  190.0130  177.8130  142.2110 C   0  0  0  0  0  2  0  0  0  0  0  0
  182.4660  178.9210  139.8380 C   0  0  2  0  0  3  0  0  0  0  0  0
  191.8040  178.6890  144.3080 F   0  0  0  0  0  0  0  0  0  0  0  0
  189.6760  177.9290  139.4140 N   0  0  0  0  0  0  0  0  0  0  0  0
  188.6440  177.9430  141.5830 C   0  0  0  0  0  0  0  0  0  0  0  0
  188.5590  178.0370  140.1870 C   0  0  0  0  0  0  0  0  0  0  0  0
  186.1520  178.3700  140.3250 C   0  0  0  0  0  0  0  0  0  0  0  0
  181.5690  179.0260  141.0800 C   0  0  0  0  0  3  0  0  0  0  0  0
  190.0530  177.2240  146.4910 C   0  0  0  0  0  3  0  0  0  0  0  0
  189.9650  177.2980  143.6410 C   0  0  1  0  0  3  0  0  0  0  0  0
  182.4520  178.8170  142.3220 C   0  0  0  0  0  3  0  0  0  0  0  0
  188.9790  177.7680  145.9010 C   0  0  0  0  0  3  0  0  0  0  0  0
  191.3070  176.8370  145.7290 C   0  0  1  0  0  3  0  0  0  0  0  0
  187.2630  178.3260  138.2020 N   0  0  0  0  0  0  0  0  0  0  0  0
  187.3160  178.2430  139.5610 C   0  0  0  0  0  0  0  0  0  0  0  0
  184.9580  178.5690  139.6950 N   0  0  0  0  0  0  0  0  0  0  0  0
  187.5640  177.8670  143.8750 C   0  0  0  0  0  2  0  0  0  0  0  0
  184.9390  178.3980  143.8640 O   0  0  0  0  0  1  0  0  0  0  0  0
  182.0380  177.7250  139.0080 C   0  0  0  0  0  1  0  0  0  0  0  0
  186.2130  178.2900  141.7510 C   0  0  0  0  0  0  0  0  0  0  0  0
  183.8120  178.6890  140.4060 C   0  0  0  0  0  0  0  0  0  0  0  0
  191.5920  175.3320  145.7670 C   0  0  2  0  0  3  0  0  0  0  0  0
  192.4230  174.9210  146.9760 C   0  0  0  0  0  1  0  0  0  0  0  0
  192.2630  174.8810  144.4790 C   0  0  0  0  0  2  0  0  0  0  0  0
  192.6750  173.5520  144.5940 O   0  0  0  0  0  1  0  0  0  0  0  0
  1 10  1  1  0  0  0
  1 20  1  0  0  0  0
  2 24  1  0  0  0  0
  3 11  1  0  0  0  0
  4  3  2  0  0  0  0
  4 21  1  0  0  0  0
  5 25  1  0  0  0  0
  6 18  1  0  0  0  0
  6  5  1  0  0  0  0
  7 24  1  6  0  0  0
  7 19  1  0  0  0  0
  9 26  1  6  0  0  0
  9 28  1  0  0  0  0
  9 15  1  0  0  0  0
 11 13  2  0  0  0  0
 12  8  1  0  0  0  0
 12  2  2  0  0  0  0
 13 12  1  0  0  0  0
 14 27  1  0  0  0  0
 15 18  2  0  0  0  0
 17  8  1  6  0  0  0
 17  1  1  0  0  0  0
 17  7  1  0  0  0  0
 19 16  2  0  0  0  0
 20 29  1  6  0  0  0
 20 16  1  0  0  0  0
 21 22  2  0  0  0  0
 22 13  1  0  0  0  0
 22 14  1  0  0  0  0
 23 14  2  0  0  0  0
 23 28  1  0  0  0  0
 27  2  1  0  0  0  0
 27  5  2  0  0  0  0
 28  6  2  0  0  0  0
 29 30  1  1  0  0  0
 31 32  1  0  0  0  0
 31 29  1  0  0  0  0
M  END
>  <MODEL>
4

>  <REMARK>
 VINA RESULT:      -9.2      0.941      1.100
  Name = 
  2 active torsions:
  status: ('A' for Active; 'I' for Inactive)
    1  A    between atoms: C_1  and  C_10
    2  A    between atoms: C_10  and  C_24
                            x       y       z     vdW  Elec       q    Type
                         _______ _______ _______ _____ _____    ______ ____

>  <TORSDO>
F 2

$$$$
=
 OpenBabel11052416473D

 32 37  0  0  1  0  0  0  0  0999 V2000
  181.4690  178.9090  141.2150 C   0  0  2  0  0  3  0  0  0  0  0  0
  185.7340  178.3080  141.9930 C   0  0  0  0  0  0  0  0  0  0  0  0
  184.8700  178.4270  146.7350 C   0  0  0  0  0  3  0  0  0  0  0  0
  186.2240  178.2160  146.9920 C   0  0  0  0  0  3  0  0  0  0  0  0
  188.0950  177.9670  141.2190 C   0  0  0  0  0  0  0  0  0  0  0  0
  189.4260  177.7560  141.5770 C   0  0  0  0  0  0  0  0  0  0  0  0
  183.8500  178.9580  140.4260 C   0  0  2  0  0  3  0  0  0  0  0  0
  183.3650  178.7480  142.8540 C   0  0  0  0  0  2  0  0  0  0  0  0
  191.2480  177.4690  143.0610 C   0  0  2  0  0  3  0  0  0  0  0  0
  181.4320  180.2880  141.3480 F   0  0  0  0  0  0  0  0  0  0  0  0
  184.4370  178.4950  145.4490 N   0  0  0  0  0  0  0  0  0  0  0  0
  184.8260  178.4300  143.0790 C   0  0  0  0  0  0  0  0  0  0  0  0
  185.2950  178.3610  144.3990 C   0  0  0  0  0  0  0  0  0  0  0  0
  187.5690  178.0200  143.6050 C   0  0  0  0  0  0  0  0  0  0  0  0
  191.7810  177.4400  141.6210 C   0  0  0  0  0  3  0  0  0  0  0  0
  182.0410  178.6100  138.7420 C   0  0  0  0  0  3  0  0  0  0  0  0
  182.8860  178.3810  141.4570 C   0  0  1  0  0  3  0  0  0  0  0  0
  190.5850  177.6060  140.6690 C   0  0  0  0  0  3  0  0  0  0  0  0
  183.3420  178.7730  139.0210 C   0  0  0  0  0  3  0  0  0  0  0  0
  180.9730  178.5170  139.8160 C   0  0  1  0  0  3  0  0  0  0  0  0
  187.0870  178.0830  145.9510 N   0  0  0  0  0  0  0  0  0  0  0  0
  186.6610  178.1500  144.6590 C   0  0  0  0  0  0  0  0  0  0  0  0
  188.8900  177.8160  143.8830 N   0  0  0  0  0  0  0  0  0  0  0  0
  185.2000  178.2770  140.5770 C   0  0  0  0  0  2  0  0  0  0  0  0
  187.7730  178.0500  139.8700 O   0  0  0  0  0  1  0  0  0  0  0  0
  191.5040  176.1280  143.7210 C   0  0  0  0  0  1  0  0  0  0  0  0
  187.1190  178.0980  142.2500 C   0  0  0  0  0  0  0  0  0  0  0  0
  189.7950  177.6790  142.8840 C   0  0  0  0  0  0  0  0  0  0  0  0
  180.2570  177.1620  139.8340 C   0  0  2  0  0  3  0  0  0  0  0  0
  179.5630  176.8450  138.5140 C   0  0  0  0  0  1  0  0  0  0  0  0
  179.2680  177.0940  140.9870 C   0  0  0  0  0  2  0  0  0  0  0  0
  178.9380  175.7650  141.2580 O   0  0  0  0  0  1  0  0  0  0  0  0
  1 10  1  6  0  0  0
  1 17  1  0  0  0  0
  2 27  2  0  0  0  0
  2 12  1  0  0  0  0
  3  4  1  0  0  0  0
  5  6  2  0  0  0  0
  5 27  1  0  0  0  0
  6 28  1  0  0  0  0
  7 19  1  6  0  0  0
  7 24  1  0  0  0  0
  7 17  1  0  0  0  0
  8 12  1  0  0  0  0
  9 26  1  6  0  0  0
 11  3  2  0  0  0  0
 12 13  2  0  0  0  0
 13 22  1  0  0  0  0
 13 11  1  0  0  0  0
 14 23  1  0  0  0  0
 14 22  2  0  0  0  0
 15  9  1  0  0  0  0
 16 19  2  0  0  0  0
 16 20  1  0  0  0  0
 17  8  1  1  0  0  0
 18  6  1  0  0  0  0
 18 15  2  0  0  0  0
 20 29  1  1  0  0  0
 20  1  1  0  0  0  0
 21  4  2  0  0  0  0
 22 21  1  0  0  0  0
 24  2  1  0  0  0  0
 25  5  1  0  0  0  0
 27 14  1  0  0  0  0
 28  9  1  0  0  0  0
 28 23  2  0  0  0  0
 29 30  1  6  0  0  0
 29 31  1  0  0  0  0
 31 32  1  0  0  0  0
M  END
>  <MODEL>
5

>  <REMARK>
 VINA RESULT:      -9.0      3.377      8.757
  Name = 
  2 active torsions:
  status: ('A' for Active; 'I' for Inactive)
    1  A    between atoms: C_1  and  C_10
    2  A    between atoms: C_10  and  C_24
                            x       y       z     vdW  Elec       q    Type
                         _______ _______ _______ _____ _____    ______ ____

>  <TORSDO>
F 2

$$$$
=
 OpenBabel11052416473D

 32 37  0  0  1  0  0  0  0  0999 V2000
  184.7960  178.6610  138.7260 C   0  0  2  0  0  3  0  0  0  0  0  0
  187.2750  177.9760  142.2670 C   0  0  0  0  0  0  0  0  0  0  0  0
  183.4870  178.9410  145.0890 C   0  0  0  0  0  3  0  0  0  0  0  0
  184.2640  178.7060  146.2210 C   0  0  0  0  0  3  0  0  0  0  0  0
  189.4540  177.3850  143.3580 C   0  0  0  0  0  0  0  0  0  0  0  0
  190.1480  177.1690  144.5480 C   0  0  0  0  0  0  0  0  0  0  0  0
  187.0600  178.4500  139.7860 C   0  0  2  0  0  3  0  0  0  0  0  0
  185.0470  178.6800  141.2240 C   0  0  0  0  0  2  0  0  0  0  0  0
  190.4300  177.0410  146.8950 C   0  0  2  0  0  3  0  0  0  0  0  0
  184.8920  180.0420  138.6760 F   0  0  0  0  0  0  0  0  0  0  0  0
  184.0450  178.8130  143.8570 N   0  0  0  0  0  0  0  0  0  0  0  0
  185.9060  178.3280  142.4180 C   0  0  0  0  0  0  0  0  0  0  0  0
  185.3510  178.4590  143.6990 C   0  0  0  0  0  0  0  0  0  0  0  0
  187.4820  177.8690  144.7160 C   0  0  0  0  0  0  0  0  0  0  0  0
  191.7790  176.7400  146.2230 C   0  0  0  0  0  3  0  0  0  0  0  0
  186.8230  177.9180  137.3590 C   0  0  0  0  0  3  0  0  0  0  0  0
  185.5790  178.1070  139.9190 C   0  0  1  0  0  3  0  0  0  0  0  0
  191.5740  176.8060  144.7010 C   0  0  0  0  0  3  0  0  0  0  0  0
  187.6050  178.0570  138.4390 C   0  0  0  0  0  3  0  0  0  0  0  0
  185.3140  178.0650  137.4100 C   0  0  1  0  0  3  0  0  0  0  0  0
  185.5680  178.3530  146.0740 N   0  0  0  0  0  0  0  0  0  0  0  0
  186.1360  178.2230  144.8430 C   0  0  0  0  0  0  0  0  0  0  0  0
  188.2220  177.6450  145.8410 N   0  0  0  0  0  0  0  0  0  0  0  0
  187.8330  177.7340  140.8810 C   0  0  0  0  0  2  0  0  0  0  0  0
  190.1390  177.2560  142.1550 O   0  0  0  0  0  1  0  0  0  0  0  0
  189.9670  175.8190  147.6650 C   0  0  0  0  0  1  0  0  0  0  0  0
  188.0760  177.7400  143.4220 C   0  0  0  0  0  0  0  0  0  0  0  0
  189.5270  177.2940  145.7520 C   0  0  0  0  0  0  0  0  0  0  0  0
  184.5730  176.7720  137.0500 C   0  0  2  0  0  3  0  0  0  0  0  0
  185.5190  175.6100  136.7720 C   0  0  0  0  0  1  0  0  0  0  0  0
  183.6430  176.9980  135.8670 C   0  0  0  0  0  2  0  0  0  0  0  0
  184.3890  177.2180  134.7080 O   0  0  0  0  0  1  0  0  0  0  0  0
  1 10  1  6  0  0  0
  1 17  1  0  0  0  0
  2 12  2  0  0  0  0
  2 27  1  0  0  0  0
  3  4  1  0  0  0  0
  5 27  2  0  0  0  0
  5  6  1  0  0  0  0
  6 18  1  0  0  0  0
  6 28  2  0  0  0  0
  7 19  1  6  0  0  0
  7 17  1  0  0  0  0
  7 24  1  0  0  0  0
  8 12  1  0  0  0  0
  9 26  1  6  0  0  0
 11  3  2  0  0  0  0
 12 13  1  0  0  0  0
 13 11  1  0  0  0  0
 13 22  2  0  0  0  0
 14 22  1  0  0  0  0
 14 23  2  0  0  0  0
 15  9  1  0  0  0  0
 16 20  1  0  0  0  0
 16 19  2  0  0  0  0
 17  8  1  1  0  0  0
 18 15  2  0  0  0  0
 20 29  1  1  0  0  0
 20  1  1  0  0  0  0
 21  4  2  0  0  0  0
 22 21  1  0  0  0  0
 24  2  1  0  0  0  0
 25  5  1  0  0  0  0
 27 14  1  0  0  0  0
 28 23  1  0  0  0  0
 28  9  1  0  0  0  0
 29 30  1  6  0  0  0
 31 29  1  0  0  0  0
 32 31  1  0  0  0  0
M  END
>  <MODEL>
6

>  <REMARK>
 VINA RESULT:      -8.6      3.363      8.174
  Name = 
  2 active torsions:
  status: ('A' for Active; 'I' for Inactive)
    1  A    between atoms: C_1  and  C_10
    2  A    between atoms: C_10  and  C_24
                            x       y       z     vdW  Elec       q    Type
                         _______ _______ _______ _____ _____    ______ ____

>  <TORSDO>
F 2

$$$$
=
 OpenBabel11052416473D

 32 37  0  0  1  0  0  0  0  0999 V2000
  191.4810  177.8680  144.0670 C   0  0  2  0  0  3  0  0  0  0  0  0
  189.5210  177.4890  140.1720 C   0  0  0  0  0  0  0  0  0  0  0  0
  193.7290  176.2050  138.1970 C   0  0  0  0  0  3  0  0  0  0  0  0
  193.1090  176.0630  136.9570 C   0  0  0  0  0  3  0  0  0  0  0  0
  187.4980  177.6050  138.6950 C   0  0  0  0  0  0  0  0  0  0  0  0
  186.9690  177.4330  137.4170 C   0  0  0  0  0  0  0  0  0  0  0  0
  189.5440  178.3630  142.5510 C   0  0  2  0  0  3  0  0  0  0  0  0
  191.6460  177.4430  141.5980 C   0  0  0  0  0  2  0  0  0  0  0  0
  187.0200  176.9230  135.1050 C   0  0  2  0  0  3  0  0  0  0  0  0
  191.9940  179.1450  143.9110 F   0  0  0  0  0  0  0  0  0  0  0  0
  192.9910  176.5850  139.2730 N   0  0  0  0  0  0  0  0  0  0  0  0
  190.9110  177.2170  140.2950 C   0  0  0  0  0  0  0  0  0  0  0  0
  191.6550  176.8300  139.1710 C   0  0  0  0  0  0  0  0  0  0  0  0
  189.6630  176.9440  137.7770 C   0  0  0  0  0  0  0  0  0  0  0  0
  185.5910  177.3450  135.4820 C   0  0  0  0  0  3  0  0  0  0  0  0
  189.1520  178.3220  145.0150 C   0  0  0  0  0  3  0  0  0  0  0  0
  190.7250  177.4320  142.8080 C   0  0  1  0  0  3  0  0  0  0  0  0
  185.5700  177.6530  136.9880 C   0  0  0  0  0  3  0  0  0  0  0  0
  188.6840  178.5270  143.7760 C   0  0  0  0  0  3  0  0  0  0  0  0
  190.5610  177.8330  145.2950 C   0  0  1  0  0  3  0  0  0  0  0  0
  191.7770  176.3070  136.8450 N   0  0  0  0  0  0  0  0  0  0  0  0
  191.0300  176.6880  137.9180 C   0  0  0  0  0  0  0  0  0  0  0  0
  189.0800  176.7990  136.5510 N   0  0  0  0  0  0  0  0  0  0  0  0
  188.7110  177.8000  141.4120 C   0  0  0  0  0  2  0  0  0  0  0  0
  186.6520  178.0280  139.7140 O   0  0  0  0  0  1  0  0  0  0  0  0
  187.0100  175.4820  134.6310 C   0  0  0  0  0  1  0  0  0  0  0  0
  188.8840  177.3510  138.9050 C   0  0  0  0  0  0  0  0  0  0  0  0
  187.7570  177.0320  136.3820 C   0  0  0  0  0  0  0  0  0  0  0  0
  190.5940  176.4640  145.9830 C   0  0  2  0  0  3  0  0  0  0  0  0
  189.6700  176.3900  147.1930 C   0  0  0  0  0  1  0  0  0  0  0  0
  192.0170  176.0960  146.3740 C   0  0  0  0  0  2  0  0  0  0  0  0
  192.2650  176.4770  147.6940 O   0  0  0  0  0  1  0  0  0  0  0  0
  1 10  1  6  0  0  0
  1 20  1  0  0  0  0
  2 12  1  0  0  0  0
  2 24  1  0  0  0  0
  3 11  2  0  0  0  0
  4  3  1  0  0  0  0
  5 27  1  0  0  0  0
  5 25  1  0  0  0  0
  6  5  2  0  0  0  0
  7 24  1  6  0  0  0
  7 17  1  0  0  0  0
  7 19  1  0  0  0  0
  9 26  1  1  0  0  0
  9 15  1  0  0  0  0
  9 28  1  0  0  0  0
 12  8  1  0  0  0  0
 13 11  1  0  0  0  0
 13 12  2  0  0  0  0
 14 22  2  0  0  0  0
 14 27  1  0  0  0  0
 15 18  2  0  0  0  0
 16 20  1  0  0  0  0
 17  8  1  6  0  0  0
 17  1  1  0  0  0  0
 18  6  1  0  0  0  0
 19 16  2  0  0  0  0
 20 29  1  6  0  0  0
 21  4  2  0  0  0  0
 21 22  1  0  0  0  0
 22 13  1  0  0  0  0
 23 14  1  0  0  0  0
 27  2  2  0  0  0  0
 28 23  2  0  0  0  0
 28  6  1  0  0  0  0
 29 31  1  0  0  0  0
 29 30  1  1  0  0  0
 31 32  1  0  0  0  0
M  END
>  <MODEL>
7

>  <REMARK>
 VINA RESULT:      -8.4      3.652      5.147
  Name = 
  2 active torsions:
  status: ('A' for Active; 'I' for Inactive)
    1  A    between atoms: C_1  and  C_10
    2  A    between atoms: C_10  and  C_24
                            x       y       z     vdW  Elec       q    Type
                         _______ _______ _______ _____ _____    ______ ____

>  <TORSDO>
F 2

$$$$
=
 OpenBabel11052416473D

 32 37  0  0  1  0  0  0  0  0999 V2000
  189.5620  177.2780  136.9530 C   0  0  2  0  0  3  0  0  0  0  0  0
  188.0670  177.8050  141.0330 C   0  0  0  0  0  0  0  0  0  0  0  0
  183.8260  179.2780  139.2740 C   0  0  0  0  0  3  0  0  0  0  0  0
  183.3360  179.4300  140.5690 C   0  0  0  0  0  3  0  0  0  0  0  0
  188.3540  177.7010  143.5220 C   0  0  0  0  0  0  0  0  0  0  0  0
  187.7730  177.8820  144.7770 C   0  0  0  0  0  0  0  0  0  0  0  0
  189.9970  177.5340  139.4110 C   0  0  2  0  0  3  0  0  0  0  0  0
  187.7360  178.0280  138.5060 C   0  0  0  0  0  2  0  0  0  0  0  0
  186.0570  178.4510  146.3040 C   0  0  2  0  0  3  0  0  0  0  0  0
  189.9270  178.5910  136.7010 F   0  0  0  0  0  0  0  0  0  0  0  0
  185.0990  178.8410  139.0890 N   0  0  0  0  0  0  0  0  0  0  0  0
  187.2220  178.0920  139.9260 C   0  0  0  0  0  0  0  0  0  0  0  0
  185.9130  178.5460  140.1410 C   0  0  0  0  0  0  0  0  0  0  0  0
  186.2300  178.4180  142.5500 C   0  0  0  0  0  0  0  0  0  0  0  0
  187.3110  178.0630  147.1010 C   0  0  0  0  0  3  0  0  0  0  0  0
  191.6730  176.3150  138.0220 C   0  0  0  0  0  3  0  0  0  0  0  0
  188.9650  177.1440  138.3570 C   0  0  1  0  0  3  0  0  0  0  0  0
  188.4090  177.6760  146.0970 C   0  0  0  0  0  3  0  0  0  0  0  0
  191.3010  176.8100  139.2110 C   0  0  0  0  0  3  0  0  0  0  0  0
  190.7860  176.3670  136.7920 C   0  0  1  0  0  3  0  0  0  0  0  0
  184.1410  179.1400  141.6260 N   0  0  0  0  0  0  0  0  0  0  0  0
  185.4180  178.7010  141.4480 C   0  0  0  0  0  0  0  0  0  0  0  0
  185.7270  178.5760  143.8090 N   0  0  0  0  0  0  0  0  0  0  0  0
  189.4400  177.2160  140.7880 C   0  0  0  0  0  2  0  0  0  0  0  0
  189.6770  177.2800  143.4550 O   0  0  0  0  0  1  0  0  0  0  0  0
  184.9400  177.4710  146.6140 C   0  0  0  0  0  1  0  0  0  0  0  0
  187.5730  177.9650  142.3600 C   0  0  0  0  0  0  0  0  0  0  0  0
  186.4850  178.3040  144.8970 C   0  0  0  0  0  0  0  0  0  0  0  0
  190.3880  174.9780  136.2800 C   0  0  2  0  0  3  0  0  0  0  0  0
  189.2500  174.3590  137.0830 C   0  0  0  0  0  1  0  0  0  0  0  0
  191.5930  174.0500  136.2580 C   0  0  0  0  0  2  0  0  0  0  0  0
  192.4040  174.3450  135.1610 O   0  0  0  0  0  1  0  0  0  0  0  0
  1 10  1  1  0  0  0
  1 17  1  0  0  0  0
  2 27  1  0  0  0  0
  3  4  1  0  0  0  0
  4 21  2  0  0  0  0
  5  6  1  0  0  0  0
  6 28  2  0  0  0  0
  6 18  1  0  0  0  0
  7 19  1  6  0  0  0
  7 24  1  0  0  0  0
  8 12  1  0  0  0  0
  9 26  1  1  0  0  0
  9 15  1  0  0  0  0
 11  3  2  0  0  0  0
 11 13  1  0  0  0  0
 12 13  1  0  0  0  0
 12  2  2  0  0  0  0
 13 22  2  0  0  0  0
 14 23  2  0  0  0  0
 16 19  2  0  0  0  0
 17  8  1  6  0  0  0
 17  7  1  0  0  0  0
 18 15  2  0  0  0  0
 20 29  1  1  0  0  0
 20  1  1  0  0  0  0
 20 16  1  0  0  0  0
 22 21  1  0  0  0  0
 22 14  1  0  0  0  0
 23 28  1  0  0  0  0
 24  2  1  0  0  0  0
 25  5  1  0  0  0  0
 27 14  1  0  0  0  0
 27  5  2  0  0  0  0
 28  9  1  0  0  0  0
 29 30  1  1  0  0  0
 31 29  1  0  0  0  0
 32 31  1  0  0  0  0
M  END
>  <MODEL>
8

>  <REMARK>
 VINA RESULT:      -8.1      3.271      6.215
  Name = 
  2 active torsions:
  status: ('A' for Active; 'I' for Inactive)
    1  A    between atoms: C_1  and  C_10
    2  A    between atoms: C_10  and  C_24
                            x       y       z     vdW  Elec       q    Type
                         _______ _______ _______ _____ _____    ______ ____

>  <TORSDO>
F 2

$$$$
=
 OpenBabel11052416473D

 32 37  0  0  1  0  0  0  0  0999 V2000
  182.7950  178.6880  139.8390 C   0  0  2  0  0  3  0  0  0  0  0  0
  185.4890  178.1940  143.2520 C   0  0  0  0  0  0  0  0  0  0  0  0
  189.2000  177.6380  140.2240 C   0  0  0  0  0  3  0  0  0  0  0  0
  190.0680  177.4990  141.3050 C   0  0  0  0  0  3  0  0  0  0  0  0
  185.9370  178.0900  145.7170 C   0  0  0  0  0  0  0  0  0  0  0  0
  186.8820  177.9430  146.7310 C   0  0  0  0  0  0  0  0  0  0  0  0
  183.1500  178.2050  142.2750 C   0  0  2  0  0  3  0  0  0  0  0  0
  185.0920  178.1920  140.7240 C   0  0  0  0  0  2  0  0  0  0  0  0
  189.0400  177.6070  147.6440 C   0  0  2  0  0  3  0  0  0  0  0  0
  182.5840  177.3480  139.5530 F   0  0  0  0  0  0  0  0  0  0  0  0
  187.8760  177.8440  140.4520 N   0  0  0  0  0  0  0  0  0  0  0  0
  186.0040  178.1370  141.9290 C   0  0  0  0  0  0  0  0  0  0  0  0
  187.3730  177.9190  141.7160 C   0  0  0  0  0  0  0  0  0  0  0  0
  187.7650  177.8380  144.1160 C   0  0  0  0  0  0  0  0  0  0  0  0
  188.0320  177.7080  148.7980 C   0  0  0  0  0  3  0  0  0  0  0  0
  180.9670  179.1790  141.5560 C   0  0  0  0  0  3  0  0  0  0  0  0
  183.7500  178.8430  141.0250 C   0  0  1  0  0  3  0  0  0  0  0  0
  186.6390  177.9470  148.1910 C   0  0  0  0  0  3  0  0  0  0  0  0
  181.7470  178.6890  142.5300 C   0  0  0  0  0  3  0  0  0  0  0  0
  181.4490  179.3660  140.1290 C   0  0  1  0  0  3  0  0  0  0  0  0
  189.5750  177.5710  142.5700 N   0  0  0  0  0  0  0  0  0  0  0  0
  188.2500  177.7770  142.8070 C   0  0  0  0  0  0  0  0  0  0  0  0
  188.6350  177.6980  145.1580 N   0  0  0  0  0  0  0  0  0  0  0  0
  184.0300  178.5360  143.4690 C   0  0  0  0  0  2  0  0  0  0  0  0
  184.6030  178.2650  146.0700 O   0  0  0  0  0  1  0  0  0  0  0  0
  190.0290  178.7540  147.7370 C   0  0  0  0  0  1  0  0  0  0  0  0
  186.3720  178.0470  144.3610 C   0  0  0  0  0  0  0  0  0  0  0  0
  188.1980  177.7580  146.4380 C   0  0  0  0  0  0  0  0  0  0  0  0
  181.4530  180.8340  139.6860 C   0  0  2  0  0  3  0  0  0  0  0  0
  180.0540  181.4330  139.6210 C   0  0  0  0  0  1  0  0  0  0  0  0
  182.1630  180.9870  138.3500 C   0  0  0  0  0  2  0  0  0  0  0  0
  181.2260  181.1260  137.3240 O   0  0  0  0  0  1  0  0  0  0  0  0
  1 10  1  1  0  0  0
  1 20  1  0  0  0  0
  1 17  1  0  0  0  0
  2 24  1  0  0  0  0
  2 27  1  0  0  0  0
  3 11  2  0  0  0  0
  3  4  1  0  0  0  0
  4 21  2  0  0  0  0
  5 25  1  0  0  0  0
  5  6  1  0  0  0  0
  6 18  1  0  0  0  0
  7 19  1  1  0  0  0
  7 24  1  0  0  0  0
  8 12  1  0  0  0  0
  9 26  1  1  0  0  0
  9 15  1  0  0  0  0
 11 13  1  0  0  0  0
 12  2  2  0  0  0  0
 13 12  1  0  0  0  0
 13 22  2  0  0  0  0
 14 27  1  0  0  0  0
 14 23  2  0  0  0  0
 16 19  2  0  0  0  0
 17  8  1  6  0  0  0
 17  7  1  0  0  0  0
 18 15  2  0  0  0  0
 20 29  1  1  0  0  0
 20 16  1  0  0  0  0
 21 22  1  0  0  0  0
 22 14  1  0  0  0  0
 23 28  1  0  0  0  0
 27  5  2  0  0  0  0
 28  6  2  0  0  0  0
 28  9  1  0  0  0  0
 29 30  1  6  0  0  0
 31 29  1  0  0  0  0
 32 31  1  0  0  0  0
M  END
>  <MODEL>
9

>  <REMARK>
 VINA RESULT:      -7.8      3.156      7.961
  Name = 
  2 active torsions:
  status: ('A' for Active; 'I' for Inactive)
    1  A    between atoms: C_1  and  C_10
    2  A    between atoms: C_10  and  C_24
                            x       y       z     vdW  Elec       q    Type
                         _______ _______ _______ _____ _____    ______ ____

>  <TORSDO>
F 2

$$$$
