=
 OpenBabel11052414203D

 34 37  0  0  1  0  0  0  0  0999 V2000
  188.3520  177.6090  140.0750 C   0  0  2  0  0  3  0  0  0  0  0  0
  188.8810  175.6790  137.5710 C   0  0  2  0  0  3  0  0  0  0  0  0
  188.6440  178.1860  136.6680 C   0  0  0  0  0  0  0  0  0  0  0  0
  189.2810  177.9910  138.9110 C   0  0  2  0  0  3  0  0  0  0  0  0
  190.5250  176.3320  135.9060 O   0  0  0  0  0  1  0  0  0  0  0  0
  188.2520  178.0020  135.4850 O   0  0  0  0  0  0  0  0  0  0  0  0
  189.1060  179.3710  138.5850 O   0  0  0  0  0  0  0  0  0  0  0  0
  189.0460  177.1880  137.6400 C   0  0  1  0  0  0  0  0  0  0  0  0
  190.2480  176.3230  137.2790 C   0  0  1  0  0  3  0  0  0  0  0  0
  188.2190  175.3070  136.3970 O   0  0  0  0  0  1  0  0  0  0  0  0
  188.7050  179.4070  137.2900 O   0  0  0  0  0  0  0  0  0  0  0  0
  184.8170  178.7420  140.4780 C   0  0  0  0  0  2  0  0  0  0  0  0
  185.4350  179.4480  141.5950 N   0  0  0  0  0  0  0  0  0  0  0  0
  187.2230  178.6370  140.2680 C   0  0  2  0  0  3  0  0  0  0  0  0
  186.7940  178.8960  141.7120 C   0  0  2  0  0  3  0  0  0  0  0  0
  185.9340  178.2540  139.5640 C   0  0  2  0  0  3  0  0  0  0  0  0
  185.8530  178.9110  138.3370 O   0  0  0  0  0  1  0  0  0  0  0  0
  186.9300  177.7310  143.8030 O   0  0  0  0  0  0  0  0  0  0  0  0
  186.8790  177.6540  142.5860 C   0  0  0  0  0  3  0  0  0  0  0  0
  184.6100  179.2650  142.7880 C   0  0  0  0  0  2  0  0  0  0  0  0
  183.2350  178.7480  142.4030 C   0  0  0  0  0  2  0  0  0  0  0  0
  182.3790  178.7940  143.5040 O   0  0  0  0  0  1  0  0  0  0  0  0
  189.1030  177.4400  141.3160 N   0  0  0  0  0  2  0  0  0  0  0  0
  190.4550  177.0420  140.9620 C   0  0  0  0  0  2  0  0  0  0  0  0
  191.4010  177.3900  142.0920 C   0  0  0  0  0  2  0  0  0  0  0  0
  190.5860  178.5380  143.2340 S   0  0  0  0  0  0  0  0  0  0  0  0
  191.6700  178.0630  144.6140 C   0  0  0  0  0  2  0  0  0  0  0  0
  192.0670  175.7720  147.3160 C   0  0  0  0  0  1  0  0  0  0  0  0
  191.1810  176.7690  145.2490 C   0  0  1  0  0  3  0  0  0  0  0  0
  191.2280  176.8940  146.7400 C   0  0  1  0  0  3  0  0  0  0  0  0
  189.5920  177.8500  148.1010 C   0  0  0  0  0  1  0  0  0  0  0  0
  189.0490  176.9640  146.0550 N   0  0  0  0  0  2  0  0  0  0  0  0
  189.7830  176.5560  144.9260 N   0  0  0  0  0  2  0  0  0  0  0  0
  189.8570  176.7530  147.1880 N   0  0  0  0  0  0  0  0  0  0  0  0
  1 23  1  1  0  0  0
  2 10  1  6  0  0  0
  2  8  1  0  0  0  0
  3 11  1  0  0  0  0
  4  1  1  1  0  0  0
  6  3  2  0  0  0  0
  7  4  1  0  0  0  0
  8  3  1  6  0  0  0
  8  4  1  0  0  0  0
  9  5  1  6  0  0  0
  9  2  1  0  0  0  0
  9  8  1  0  0  0  0
 11  7  1  0  0  0  0
 12 13  1  0  0  0  0
 13 15  1  0  0  0  0
 13 20  1  0  0  0  0
 14  1  1  1  0  0  0
 14 15  1  0  0  0  0
 15 19  1  1  0  0  0
 16 17  1  6  0  0  0
 16 14  1  0  0  0  0
 16 12  1  0  0  0  0
 19 18  2  0  0  0  0
 21 20  1  0  0  0  0
 21 22  1  0  0  0  0
 24 23  1  0  0  0  0
 24 25  1  0  0  0  0
 25 26  1  0  0  0  0
 26 27  1  0  0  0  0
 29 27  1  6  0  0  0
 29 30  1  0  0  0  0
 30 34  1  0  0  0  0
 30 28  1  1  0  0  0
 32 34  1  0  0  0  0
 33 29  1  0  0  0  0
 33 32  1  0  0  0  0
 34 31  1  0  0  0  0
M  END
>  <MODEL>
1

>  <REMARK>
 VINA RESULT:      -7.2      0.000      0.000
  Name = 
  11 active torsions:
  status: ('A' for Active; 'I' for Inactive)
    1  A    between atoms: C_3  and  C_13
    2  A    between atoms: C_3  and  S_17
    3  A    between atoms: C_4  and  C_31
    4  A    between atoms: N_5  and  C_18
    5  A    between atoms: N_5  and  C_31
    6  A    between atoms: N_8  and  C_27
    7  A    between atoms: C_12  and  C_27
    8  A    between atoms: S_17  and  C_29
    9  A    between atoms: C_18  and  C_29
   10  A    between atoms: C_21  and  C_31
   11  A    between atoms: C_26  and  C_28
                            x       y       z     vdW  Elec       q    Type
                         _______ _______ _______ _____ _____    ______ ____

>  <TORSDO>
F 11

$$$$
=
 OpenBabel11052414203D

 34 37  0  0  1  0  0  0  0  0999 V2000
  190.3660  176.9840  137.8360 C   0  0  2  0  0  3  0  0  0  0  0  0
  187.6850  175.4910  136.9050 C   0  0  2  0  0  3  0  0  0  0  0  0
  187.1640  178.1060  137.1210 C   0  0  0  0  0  0  0  0  0  0  0  0
  189.4130  177.5640  136.7770 C   0  0  2  0  0  3  0  0  0  0  0  0
  186.3840  176.4320  135.0840 O   0  0  0  0  0  1  0  0  0  0  0  0
  185.9240  178.1080  137.3460 O   0  0  0  0  0  0  0  0  0  0  0  0
  189.2870  178.9750  136.9630 O   0  0  0  0  0  0  0  0  0  0  0  0
  188.0120  176.9720  136.8100 C   0  0  1  0  0  0  0  0  0  0  0  0
  187.6870  176.1980  135.5380 C   0  0  1  0  0  3  0  0  0  0  0  0
  186.3890  175.3000  137.3920 O   0  0  0  0  0  1  0  0  0  0  0  0
  187.9720  179.2120  137.1910 O   0  0  0  0  0  0  0  0  0  0  0  0
  192.9350  175.3680  135.6610 C   0  0  0  0  0  2  0  0  0  0  0  0
  193.3230  174.8190  136.9560 N   0  0  0  0  0  0  0  0  0  0  0  0
  191.1960  175.8130  137.2790 C   0  0  2  0  0  3  0  0  0  0  0  0
  192.5450  175.5700  137.9550 C   0  0  2  0  0  3  0  0  0  0  0  0
  191.5420  175.9650  135.8090 C   0  0  2  0  0  3  0  0  0  0  0  0
  190.6390  175.2400  135.0340 O   0  0  0  0  0  1  0  0  0  0  0  0
  193.4380  177.0730  139.5970 O   0  0  0  0  0  0  0  0  0  0  0  0
  193.2160  176.8550  138.4160 C   0  0  0  0  0  3  0  0  0  0  0  0
  194.7710  174.9410  137.1110 C   0  0  0  0  0  2  0  0  0  0  0  0
  195.2630  174.0190  138.2130 C   0  0  0  0  0  2  0  0  0  0  0  0
  195.9630  174.7490  139.1740 O   0  0  0  0  0  1  0  0  0  0  0  0
  189.6370  176.5670  139.0300 N   0  0  0  0  0  2  0  0  0  0  0  0
  189.9090  177.5410  140.0730 C   0  0  0  0  0  2  0  0  0  0  0  0
  189.7890  176.8810  141.4310 C   0  0  0  0  0  2  0  0  0  0  0  0
  188.5520  177.7590  142.4250 S   0  0  0  0  0  0  0  0  0  0  0  0
  188.9920  176.8400  143.9310 C   0  0  0  0  0  2  0  0  0  0  0  0
  189.2010  177.5310  147.4220 C   0  0  0  0  0  1  0  0  0  0  0  0
  189.5160  177.7930  144.9970 C   0  0  1  0  0  3  0  0  0  0  0  0
  189.9350  177.0130  146.2030 C   0  0  1  0  0  3  0  0  0  0  0  0
  191.9960  175.9660  146.5270 C   0  0  0  0  0  1  0  0  0  0  0  0
  191.8000  177.7670  145.1190 N   0  0  0  0  0  2  0  0  0  0  0  0
  190.7210  178.4490  144.5260 N   0  0  0  0  0  2  0  0  0  0  0  0
  191.3560  177.2580  146.3530 N   0  0  0  0  0  0  0  0  0  0  0  0
  1 23  1  1  0  0  0
  2 10  1  1  0  0  0
  3 11  1  0  0  0  0
  3  6  2  0  0  0  0
  4  8  1  0  0  0  0
  4  7  1  0  0  0  0
  4  1  1  1  0  0  0
  7 11  1  0  0  0  0
  8  2  1  0  0  0  0
  8  3  1  1  0  0  0
  9  5  1  1  0  0  0
  9  8  1  0  0  0  0
  9  2  1  0  0  0  0
 12 16  1  0  0  0  0
 12 13  1  0  0  0  0
 13 20  1  0  0  0  0
 13 15  1  0  0  0  0
 14  1  1  1  0  0  0
 14 15  1  0  0  0  0
 15 19  1  6  0  0  0
 16 17  1  6  0  0  0
 16 14  1  0  0  0  0
 19 18  2  0  0  0  0
 20 21  1  0  0  0  0
 21 22  1  0  0  0  0
 23 24  1  0  0  0  0
 24 25  1  0  0  0  0
 25 26  1  0  0  0  0
 26 27  1  0  0  0  0
 29 27  1  6  0  0  0
 29 30  1  0  0  0  0
 30 34  1  0  0  0  0
 30 28  1  1  0  0  0
 32 34  1  0  0  0  0
 33 29  1  0  0  0  0
 33 32  1  0  0  0  0
 34 31  1  0  0  0  0
M  END
>  <MODEL>
2

>  <REMARK>
 VINA RESULT:      -7.0      3.014      5.959
  Name = 
  11 active torsions:
  status: ('A' for Active; 'I' for Inactive)
    1  A    between atoms: C_3  and  C_13
    2  A    between atoms: C_3  and  S_17
    3  A    between atoms: C_4  and  C_31
    4  A    between atoms: N_5  and  C_18
    5  A    between atoms: N_5  and  C_31
    6  A    between atoms: N_8  and  C_27
    7  A    between atoms: C_12  and  C_27
    8  A    between atoms: S_17  and  C_29
    9  A    between atoms: C_18  and  C_29
   10  A    between atoms: C_21  and  C_31
   11  A    between atoms: C_26  and  C_28
                            x       y       z     vdW  Elec       q    Type
                         _______ _______ _______ _____ _____    ______ ____

>  <TORSDO>
F 11

$$$$
=
 OpenBabel11052414203D

 34 37  0  0  1  0  0  0  0  0999 V2000
  188.4520  177.6530  141.1290 C   0  0  2  0  0  3  0  0  0  0  0  0
  190.7620  178.7920  143.0400 C   0  0  2  0  0  3  0  0  0  0  0  0
  189.0920  177.3170  144.5200 C   0  0  0  0  0  0  0  0  0  0  0  0
  189.1080  176.8110  142.2360 C   0  0  2  0  0  3  0  0  0  0  0  0
  191.8390  177.2860  144.6120 O   0  0  0  0  0  1  0  0  0  0  0  0
  189.2430  177.8200  145.6660 O   0  0  0  0  0  0  0  0  0  0  0  0
  188.1160  176.0180  142.8920 O   0  0  0  0  0  0  0  0  0  0  0  0
  189.8150  177.6320  143.3050 C   0  0  1  0  0  0  0  0  0  0  0  0
  191.3180  177.3840  143.3160 C   0  0  1  0  0  3  0  0  0  0  0  0
  190.8570  179.6190  144.1630 O   0  0  0  0  0  1  0  0  0  0  0  0
  188.1370  176.3860  144.1960 O   0  0  0  0  0  0  0  0  0  0  0  0
  190.3700  176.8140  138.0370 C   0  0  0  0  0  2  0  0  0  0  0  0
  189.7750  178.0810  137.6260 N   0  0  0  0  0  0  0  0  0  0  0  0
  189.4210  177.9230  139.9640 C   0  0  2  0  0  3  0  0  0  0  0  0
  188.7830  178.4100  138.6630 C   0  0  2  0  0  3  0  0  0  0  0  0
  190.2180  176.6990  139.5480 C   0  0  2  0  0  3  0  0  0  0  0  0
  191.4760  176.7300  140.1470 O   0  0  0  0  0  1  0  0  0  0  0  0
  186.4370  178.5020  138.1770 O   0  0  0  0  0  0  0  0  0  0  0  0
  187.4100  177.8040  138.4150 C   0  0  0  0  0  3  0  0  0  0  0  0
  189.2100  177.9290  136.2860 C   0  0  0  0  0  2  0  0  0  0  0  0
  189.6570  176.6130  135.6730 C   0  0  0  0  0  2  0  0  0  0  0  0
  188.5670  175.9560  135.1000 O   0  0  0  0  0  1  0  0  0  0  0  0
  187.9330  178.9110  141.6590 N   0  0  0  0  0  2  0  0  0  0  0  0
  186.4840  178.8700  141.5510 C   0  0  0  0  0  2  0  0  0  0  0  0
  185.8770  178.6400  142.9190 C   0  0  0  0  0  2  0  0  0  0  0  0
  184.0700  178.5860  142.7790 S   0  0  0  0  0  0  0  0  0  0  0  0
  184.1270  178.6660  140.9630 C   0  0  0  0  0  2  0  0  0  0  0  0
  180.5690  178.4870  140.8190 C   0  0  0  0  0  1  0  0  0  0  0  0
  182.9260  177.9450  140.3650 C   0  0  1  0  0  3  0  0  0  0  0  0
  181.8300  178.9310  140.1060 C   0  0  1  0  0  3  0  0  0  0  0  0
  181.6030  180.2830  138.2170 C   0  0  0  0  0  1  0  0  0  0  0  0
  182.7510  178.2990  138.1120 N   0  0  0  0  0  2  0  0  0  0  0  0
  183.2700  177.4030  139.0650 N   0  0  0  0  0  2  0  0  0  0  0  0
  181.6110  178.9040  138.6730 N   0  0  0  0  0  0  0  0  0  0  0  0
  1 23  1  1  0  0  0
  2  8  1  0  0  0  0
  2  9  1  0  0  0  0
  2 10  1  1  0  0  0
  3  6  2  0  0  0  0
  4  1  1  6  0  0  0
  4  7  1  0  0  0  0
  4  8  1  0  0  0  0
  7 11  1  0  0  0  0
  8  9  1  0  0  0  0
  8  3  1  1  0  0  0
  9  5  1  1  0  0  0
 11  3  1  0  0  0  0
 12 16  1  0  0  0  0
 13 12  1  0  0  0  0
 13 15  1  0  0  0  0
 14  1  1  1  0  0  0
 15 19  1  6  0  0  0
 15 14  1  0  0  0  0
 16 14  1  0  0  0  0
 16 17  1  1  0  0  0
 18 19  2  0  0  0  0
 20 13  1  0  0  0  0
 21 20  1  0  0  0  0
 22 21  1  0  0  0  0
 24 23  1  0  0  0  0
 24 25  1  0  0  0  0
 26 25  1  0  0  0  0
 27 26  1  0  0  0  0
 29 27  1  6  0  0  0
 30 29  1  0  0  0  0
 30 28  1  1  0  0  0
 31 34  1  0  0  0  0
 32 34  1  0  0  0  0
 32 33  1  0  0  0  0
 33 29  1  0  0  0  0
 34 30  1  0  0  0  0
M  END
>  <MODEL>
3

>  <REMARK>
 VINA RESULT:      -6.9      2.869      7.865
  Name = 
  11 active torsions:
  status: ('A' for Active; 'I' for Inactive)
    1  A    between atoms: C_3  and  C_13
    2  A    between atoms: C_3  and  S_17
    3  A    between atoms: C_4  and  C_31
    4  A    between atoms: N_5  and  C_18
    5  A    between atoms: N_5  and  C_31
    6  A    between atoms: N_8  and  C_27
    7  A    between atoms: C_12  and  C_27
    8  A    between atoms: S_17  and  C_29
    9  A    between atoms: C_18  and  C_29
   10  A    between atoms: C_21  and  C_31
   11  A    between atoms: C_26  and  C_28
                            x       y       z     vdW  Elec       q    Type
                         _______ _______ _______ _____ _____    ______ ____

>  <TORSDO>
F 11

$$$$
=
 OpenBabel11052414203D

 34 37  0  0  1  0  0  0  0  0999 V2000
  188.2800  177.4970  141.3140 C   0  0  2  0  0  3  0  0  0  0  0  0
  190.6380  178.8110  143.0440 C   0  0  2  0  0  3  0  0  0  0  0  0
  189.0790  177.3880  144.6870 C   0  0  0  0  0  0  0  0  0  0  0  0
  189.0090  176.7420  142.4390 C   0  0  2  0  0  3  0  0  0  0  0  0
  191.8280  177.4340  144.6530 O   0  0  0  0  0  1  0  0  0  0  0  0
  189.2660  177.9650  145.7910 O   0  0  0  0  0  0  0  0  0  0  0  0
  188.0700  175.9660  143.1860 O   0  0  0  0  0  0  0  0  0  0  0  0
  189.7390  177.6460  143.4220 C   0  0  1  0  0  0  0  0  0  0  0  0
  191.2480  177.4380  143.3790 C   0  0  1  0  0  3  0  0  0  0  0  0
  190.7590  179.7090  144.1090 O   0  0  0  0  0  1  0  0  0  0  0  0
  188.1380  176.4150  144.4640 O   0  0  0  0  0  0  0  0  0  0  0  0
  190.2170  177.0520  138.1530 C   0  0  0  0  0  2  0  0  0  0  0  0
  189.5930  178.3440  137.8840 N   0  0  0  0  0  0  0  0  0  0  0  0
  189.2430  177.9160  140.1890 C   0  0  2  0  0  3  0  0  0  0  0  0
  188.5950  178.5320  138.9490 C   0  0  2  0  0  3  0  0  0  0  0  0
  190.0670  176.7660  139.6410 C   0  0  2  0  0  3  0  0  0  0  0  0
  191.3250  176.7570  140.2430 O   0  0  0  0  0  1  0  0  0  0  0  0
  186.2220  178.6070  138.6120 O   0  0  0  0  0  0  0  0  0  0  0  0
  187.2360  177.9270  138.6310 C   0  0  0  0  0  3  0  0  0  0  0  0
  189.0330  178.3300  136.5350 C   0  0  0  0  0  2  0  0  0  0  0  0
  189.4870  177.0880  135.7880 C   0  0  0  0  0  2  0  0  0  0  0  0
  188.3840  176.4170  135.2560 O   0  0  0  0  0  1  0  0  0  0  0  0
  187.5680  178.6600  141.8330 N   0  0  0  0  0  2  0  0  0  0  0  0
  186.2510  178.2160  142.2580 C   0  0  0  0  0  2  0  0  0  0  0  0
  185.2240  179.2800  141.9310 C   0  0  0  0  0  2  0  0  0  0  0  0
  183.7180  178.4940  141.2980 S   0  0  0  0  0  0  0  0  0  0  0  0
  182.8530  178.6870  142.8860 C   0  0  0  0  0  2  0  0  0  0  0  0
  180.5470  179.9690  140.4870 C   0  0  0  0  0  1  0  0  0  0  0  0
  181.4830  179.3160  142.6670 C   0  0  1  0  0  3  0  0  0  0  0  0
  180.8960  178.8030  141.3890 C   0  0  1  0  0  3  0  0  0  0  0  0
  179.7130  176.8100  141.1110 C   0  0  0  0  0  1  0  0  0  0  0  0
  179.7860  177.8590  143.1510 N   0  0  0  0  0  2  0  0  0  0  0  0
  180.5690  178.8870  143.7080 N   0  0  0  0  0  2  0  0  0  0  0  0
  179.6830  178.1040  141.7680 N   0  0  0  0  0  0  0  0  0  0  0  0
  1 23  1  1  0  0  0
  2  9  1  0  0  0  0
  2  8  1  0  0  0  0
  2 10  1  1  0  0  0
  3  6  2  0  0  0  0
  4  1  1  6  0  0  0
  4  7  1  0  0  0  0
  4  8  1  0  0  0  0
  7 11  1  0  0  0  0
  8  3  1  1  0  0  0
  9  8  1  0  0  0  0
  9  5  1  1  0  0  0
 11  3  1  0  0  0  0
 12 16  1  0  0  0  0
 13 12  1  0  0  0  0
 13 15  1  0  0  0  0
 14  1  1  1  0  0  0
 15 19  1  6  0  0  0
 15 14  1  0  0  0  0
 16 14  1  0  0  0  0
 16 17  1  1  0  0  0
 18 19  2  0  0  0  0
 20 13  1  0  0  0  0
 21 20  1  0  0  0  0
 22 21  1  0  0  0  0
 23 24  1  0  0  0  0
 25 24  1  0  0  0  0
 26 25  1  0  0  0  0
 26 27  1  0  0  0  0
 29 27  1  1  0  0  0
 29 33  1  0  0  0  0
 30 28  1  6  0  0  0
 30 34  1  0  0  0  0
 30 29  1  0  0  0  0
 31 34  1  0  0  0  0
 32 33  1  0  0  0  0
 34 32  1  0  0  0  0
M  END
>  <MODEL>
4

>  <REMARK>
 VINA RESULT:      -6.8      3.071      7.890
  Name = 
  11 active torsions:
  status: ('A' for Active; 'I' for Inactive)
    1  A    between atoms: C_3  and  C_13
    2  A    between atoms: C_3  and  S_17
    3  A    between atoms: C_4  and  C_31
    4  A    between atoms: N_5  and  C_18
    5  A    between atoms: N_5  and  C_31
    6  A    between atoms: N_8  and  C_27
    7  A    between atoms: C_12  and  C_27
    8  A    between atoms: S_17  and  C_29
    9  A    between atoms: C_18  and  C_29
   10  A    between atoms: C_21  and  C_31
   11  A    between atoms: C_26  and  C_28
                            x       y       z     vdW  Elec       q    Type
                         _______ _______ _______ _____ _____    ______ ____

>  <TORSDO>
F 11

$$$$
=
 OpenBabel11052414203D

 34 37  0  0  1  0  0  0  0  0999 V2000
  188.1130  177.5730  137.9770 C   0  0  2  0  0  3  0  0  0  0  0  0
  190.5700  175.5180  138.1100 C   0  0  2  0  0  3  0  0  0  0  0  0
  190.0200  176.0100  135.5390 C   0  0  0  0  0  0  0  0  0  0  0  0
  189.3290  177.6660  137.0400 C   0  0  2  0  0  3  0  0  0  0  0  0
  192.5100  175.9070  136.7010 O   0  0  0  0  0  1  0  0  0  0  0  0
  190.4430  174.9650  134.9760 O   0  0  0  0  0  0  0  0  0  0  0  0
  188.8980  178.0090  135.7220 O   0  0  0  0  0  0  0  0  0  0  0  0
  190.1330  176.3790  136.9360 C   0  0  1  0  0  0  0  0  0  0  0  0
  191.5430  176.5380  137.4930 C   0  0  1  0  0  3  0  0  0  0  0  0
  190.8480  174.2140  137.6910 O   0  0  0  0  0  1  0  0  0  0  0  0
  189.2990  176.9960  134.9150 O   0  0  0  0  0  0  0  0  0  0  0  0
  184.7440  176.1960  137.1460 C   0  0  0  0  0  2  0  0  0  0  0  0
  184.4260  177.6190  137.2000 N   0  0  0  0  0  0  0  0  0  0  0  0
  186.7920  177.4790  137.1940 C   0  0  2  0  0  3  0  0  0  0  0  0
  185.6170  178.2720  137.7680 C   0  0  2  0  0  3  0  0  0  0  0  0
  186.2590  176.0620  137.0790 C   0  0  2  0  0  3  0  0  0  0  0  0
  186.6260  175.5190  135.8490 O   0  0  0  0  0  1  0  0  0  0  0  0
  185.3350  179.3400  139.8960 O   0  0  0  0  0  0  0  0  0  0  0  0
  185.6240  178.3210  139.2890 C   0  0  0  0  0  3  0  0  0  0  0  0
  183.2090  177.8050  137.9890 C   0  0  0  0  0  2  0  0  0  0  0  0
  182.7070  176.4680  138.5050 C   0  0  0  0  0  2  0  0  0  0  0  0
  182.4390  176.5510  139.8720 O   0  0  0  0  0  1  0  0  0  0  0  0
  188.0750  178.6990  138.9050 N   0  0  0  0  0  2  0  0  0  0  0  0
  189.1450  178.5110  139.8710 C   0  0  0  0  0  2  0  0  0  0  0  0
  188.7340  177.4670  140.8890 C   0  0  0  0  0  2  0  0  0  0  0  0
  190.2150  176.7120  141.6140 S   0  0  0  0  0  0  0  0  0  0  0  0
  189.3390  176.2700  143.1450 C   0  0  0  0  0  2  0  0  0  0  0  0
  186.8380  177.6790  145.2590 C   0  0  0  0  0  1  0  0  0  0  0  0
  188.8530  177.5260  143.8560 C   0  0  1  0  0  3  0  0  0  0  0  0
  188.2560  177.1530  145.1770 C   0  0  1  0  0  3  0  0  0  0  0  0
  189.4160  176.8110  147.1730 C   0  0  0  0  0  1  0  0  0  0  0  0
  190.2750  178.1640  145.5310 N   0  0  0  0  0  2  0  0  0  0  0  0
  189.9790  178.3840  144.1730 N   0  0  0  0  0  2  0  0  0  0  0  0
  189.0750  177.8110  146.1760 N   0  0  0  0  0  0  0  0  0  0  0  0
  1 23  1  1  0  0  0
  2 10  1  6  0  0  0
  4  1  1  1  0  0  0
  6  3  2  0  0  0  0
  7  4  1  0  0  0  0
  8  3  1  6  0  0  0
  8  4  1  0  0  0  0
  8  9  1  0  0  0  0
  8  2  1  0  0  0  0
  9  5  1  6  0  0  0
  9  2  1  0  0  0  0
 11  3  1  0  0  0  0
 11  7  1  0  0  0  0
 12 13  1  0  0  0  0
 13 15  1  0  0  0  0
 13 20  1  0  0  0  0
 14 15  1  0  0  0  0
 14  1  1  1  0  0  0
 15 19  1  1  0  0  0
 16 17  1  6  0  0  0
 16 12  1  0  0  0  0
 16 14  1  0  0  0  0
 19 18  2  0  0  0  0
 20 21  1  0  0  0  0
 21 22  1  0  0  0  0
 23 24  1  0  0  0  0
 24 25  1  0  0  0  0
 25 26  1  0  0  0  0
 26 27  1  0  0  0  0
 29 27  1  1  0  0  0
 29 33  1  0  0  0  0
 29 30  1  0  0  0  0
 30 28  1  6  0  0  0
 30 34  1  0  0  0  0
 32 34  1  0  0  0  0
 33 32  1  0  0  0  0
 34 31  1  0  0  0  0
M  END
>  <MODEL>
5

>  <REMARK>
 VINA RESULT:      -6.4      2.367      3.333
  Name = 
  11 active torsions:
  status: ('A' for Active; 'I' for Inactive)
    1  A    between atoms: C_3  and  C_13
    2  A    between atoms: C_3  and  S_17
    3  A    between atoms: C_4  and  C_31
    4  A    between atoms: N_5  and  C_18
    5  A    between atoms: N_5  and  C_31
    6  A    between atoms: N_8  and  C_27
    7  A    between atoms: C_12  and  C_27
    8  A    between atoms: S_17  and  C_29
    9  A    between atoms: C_18  and  C_29
   10  A    between atoms: C_21  and  C_31
   11  A    between atoms: C_26  and  C_28
                            x       y       z     vdW  Elec       q    Type
                         _______ _______ _______ _____ _____    ______ ____

>  <TORSDO>
F 11

$$$$
=
 OpenBabel11052414203D

 34 37  0  0  1  0  0  0  0  0999 V2000
  189.3120  177.1720  137.9120 C   0  0  2  0  0  3  0  0  0  0  0  0
  186.8510  175.3960  136.8750 C   0  0  2  0  0  3  0  0  0  0  0  0
  186.0070  177.9180  137.1700 C   0  0  0  0  0  0  0  0  0  0  0  0
  188.3120  177.6700  136.8540 C   0  0  2  0  0  3  0  0  0  0  0  0
  185.4730  176.2380  135.0600 O   0  0  0  0  0  1  0  0  0  0  0  0
  184.7730  177.7590  137.3690 O   0  0  0  0  0  0  0  0  0  0  0  0
  188.0090  179.0470  137.0860 O   0  0  0  0  0  0  0  0  0  0  0  0
  186.9940  176.9090  136.8380 C   0  0  1  0  0  0  0  0  0  0  0  0
  186.7880  176.1490  135.5340 C   0  0  1  0  0  3  0  0  0  0  0  0
  185.5800  175.0310  137.3270 O   0  0  0  0  0  1  0  0  0  0  0  0
  186.6710  179.1120  137.2940 O   0  0  0  0  0  0  0  0  0  0  0  0
  192.0680  175.5750  135.9650 C   0  0  0  0  0  2  0  0  0  0  0  0
  192.2780  174.9410  137.2620 N   0  0  0  0  0  0  0  0  0  0  0  0
  190.1630  176.0010  137.3900 C   0  0  2  0  0  3  0  0  0  0  0  0
  191.4120  175.6670  138.2050 C   0  0  2  0  0  3  0  0  0  0  0  0
  190.6880  176.2190  135.9820 C   0  0  2  0  0  3  0  0  0  0  0  0
  189.8610  175.5750  135.0640 O   0  0  0  0  0  1  0  0  0  0  0  0
  192.4390  176.9110  139.9790 O   0  0  0  0  0  0  0  0  0  0  0  0
  192.0650  176.8970  138.8160 C   0  0  0  0  0  3  0  0  0  0  0  0
  193.7010  174.9960  137.5940 C   0  0  0  0  0  2  0  0  0  0  0  0
  194.5400  174.8750  136.3340 C   0  0  0  0  0  2  0  0  0  0  0  0
  194.9780  173.5600  136.1730 O   0  0  0  0  0  1  0  0  0  0  0  0
  188.6290  176.7940  139.1460 N   0  0  0  0  0  2  0  0  0  0  0  0
  188.8520  177.8540  140.1140 C   0  0  0  0  0  2  0  0  0  0  0  0
  189.3060  177.2570  141.4290 C   0  0  0  0  0  2  0  0  0  0  0  0
  188.0760  177.6090  142.7130 S   0  0  0  0  0  0  0  0  0  0  0  0
  189.0310  176.7290  143.9850 C   0  0  0  0  0  2  0  0  0  0  0  0
  189.1820  177.4770  147.4680 C   0  0  0  0  0  1  0  0  0  0  0  0
  189.5270  177.7060  145.0430 C   0  0  1  0  0  3  0  0  0  0  0  0
  189.9400  176.9500  146.2670 C   0  0  1  0  0  3  0  0  0  0  0  0
  192.0100  175.9370  146.6360 C   0  0  0  0  0  1  0  0  0  0  0  0
  191.8100  177.7130  145.1960 N   0  0  0  0  0  2  0  0  0  0  0  0
  190.7300  178.3700  144.5780 N   0  0  0  0  0  2  0  0  0  0  0  0
  191.3550  177.2170  146.4330 N   0  0  0  0  0  0  0  0  0  0  0  0
  1 23  1  1  0  0  0
  2 10  1  1  0  0  0
  3 11  1  0  0  0  0
  3  6  2  0  0  0  0
  4  7  1  0  0  0  0
  4  1  1  1  0  0  0
  7 11  1  0  0  0  0
  8  4  1  0  0  0  0
  8  2  1  0  0  0  0
  8  3  1  1  0  0  0
  9  5  1  1  0  0  0
  9  8  1  0  0  0  0
  9  2  1  0  0  0  0
 12 16  1  0  0  0  0
 12 13  1  0  0  0  0
 13 20  1  0  0  0  0
 13 15  1  0  0  0  0
 14  1  1  1  0  0  0
 14 15  1  0  0  0  0
 15 19  1  6  0  0  0
 16 17  1  6  0  0  0
 16 14  1  0  0  0  0
 19 18  2  0  0  0  0
 21 20  1  0  0  0  0
 22 21  1  0  0  0  0
 23 24  1  0  0  0  0
 24 25  1  0  0  0  0
 25 26  1  0  0  0  0
 26 27  1  0  0  0  0
 29 27  1  6  0  0  0
 29 30  1  0  0  0  0
 30 34  1  0  0  0  0
 30 28  1  1  0  0  0
 32 34  1  0  0  0  0
 33 29  1  0  0  0  0
 33 32  1  0  0  0  0
 34 31  1  0  0  0  0
M  END
>  <MODEL>
6

>  <REMARK>
 VINA RESULT:      -6.3      2.845      5.752
  Name = 
  11 active torsions:
  status: ('A' for Active; 'I' for Inactive)
    1  A    between atoms: C_3  and  C_13
    2  A    between atoms: C_3  and  S_17
    3  A    between atoms: C_4  and  C_31
    4  A    between atoms: N_5  and  C_18
    5  A    between atoms: N_5  and  C_31
    6  A    between atoms: N_8  and  C_27
    7  A    between atoms: C_12  and  C_27
    8  A    between atoms: S_17  and  C_29
    9  A    between atoms: C_18  and  C_29
   10  A    between atoms: C_21  and  C_31
   11  A    between atoms: C_26  and  C_28
                            x       y       z     vdW  Elec       q    Type
                         _______ _______ _______ _____ _____    ______ ____

>  <TORSDO>
F 11

$$$$
=
 OpenBabel11052414203D

 34 37  0  0  1  0  0  0  0  0999 V2000
  190.6770  176.4150  138.0410 C   0  0  2  0  0  3  0  0  0  0  0  0
  187.8260  177.4170  139.1130 C   0  0  2  0  0  3  0  0  0  0  0  0
  188.2860  178.5640  136.7400 C   0  0  0  0  0  0  0  0  0  0  0  0
  189.4510  176.5720  137.1260 C   0  0  2  0  0  3  0  0  0  0  0  0
  185.9330  177.4270  137.5920 O   0  0  0  0  0  1  0  0  0  0  0  0
  187.5930  179.6130  136.8180 O   0  0  0  0  0  0  0  0  0  0  0  0
  189.8530  177.1220  135.8700 O   0  0  0  0  0  0  0  0  0  0  0  0
  188.3640  177.4740  137.6930 C   0  0  1  0  0  0  0  0  0  0  0  0
  187.0750  176.7110  137.9700 C   0  0  1  0  0  3  0  0  0  0  0  0
  187.2230  178.6290  139.4620 O   0  0  0  0  0  1  0  0  0  0  0  0
  189.1700  178.2850  135.7290 O   0  0  0  0  0  0  0  0  0  0  0  0
  191.9120  173.4150  136.1930 C   0  0  0  0  0  2  0  0  0  0  0  0
  193.0830  173.7020  137.0150 N   0  0  0  0  0  0  0  0  0  0  0  0
  191.3270  175.0280  137.8960 C   0  0  2  0  0  3  0  0  0  0  0  0
  192.8310  175.0190  137.6210 C   0  0  2  0  0  3  0  0  0  0  0  0
  190.7410  174.2040  136.7640 C   0  0  2  0  0  3  0  0  0  0  0  0
  189.7860  173.3220  137.2680 O   0  0  0  0  0  1  0  0  0  0  0  0
  193.9320  177.1110  137.2190 O   0  0  0  0  0  0  0  0  0  0  0  0
  193.2800  176.1880  136.7570 C   0  0  0  0  0  3  0  0  0  0  0  0
  194.2780  173.6490  136.1760 C   0  0  0  0  0  2  0  0  0  0  0  0
  195.2750  172.6520  136.7420 C   0  0  0  0  0  2  0  0  0  0  0  0
  195.0600  172.4820  138.1110 O   0  0  0  0  0  1  0  0  0  0  0  0
  190.3310  176.6710  139.4360 N   0  0  0  0  0  2  0  0  0  0  0  0
  191.3480  177.5490  139.9890 C   0  0  0  0  0  2  0  0  0  0  0  0
  191.7390  177.0700  141.3710 C   0  0  0  0  0  2  0  0  0  0  0  0
  190.2850  176.3820  142.2080 S   0  0  0  0  0  0  0  0  0  0  0  0
  191.2730  175.7950  143.6160 C   0  0  0  0  0  2  0  0  0  0  0  0
  190.9240  179.2920  144.2100 C   0  0  0  0  0  1  0  0  0  0  0  0
  191.5780  176.9470  144.5640 C   0  0  1  0  0  3  0  0  0  0  0  0
  190.4290  177.9070  144.5700 C   0  0  1  0  0  3  0  0  0  0  0  0
  188.4890  177.7350  145.8550 C   0  0  0  0  0  1  0  0  0  0  0  0
  190.4460  176.7510  146.5410 N   0  0  0  0  0  2  0  0  0  0  0  0
  191.6760  176.4570  145.9250 N   0  0  0  0  0  2  0  0  0  0  0  0
  189.9290  177.9090  145.9300 N   0  0  0  0  0  0  0  0  0  0  0  0
  1 23  1  1  0  0  0
  2 10  1  6  0  0  0
  3  6  2  0  0  0  0
  4  8  1  0  0  0  0
  4  1  1  1  0  0  0
  7  4  1  0  0  0  0
  8  3  1  6  0  0  0
  8  9  1  0  0  0  0
  8  2  1  0  0  0  0
  9  5  1  6  0  0  0
  9  2  1  0  0  0  0
 11  7  1  0  0  0  0
 11  3  1  0  0  0  0
 12 16  1  0  0  0  0
 12 13  1  0  0  0  0
 13 15  1  0  0  0  0
 14  1  1  6  0  0  0
 15 19  1  6  0  0  0
 15 14  1  0  0  0  0
 16 17  1  1  0  0  0
 16 14  1  0  0  0  0
 19 18  2  0  0  0  0
 20 21  1  0  0  0  0
 20 13  1  0  0  0  0
 21 22  1  0  0  0  0
 23 24  1  0  0  0  0
 24 25  1  0  0  0  0
 25 26  1  0  0  0  0
 26 27  1  0  0  0  0
 29 27  1  6  0  0  0
 29 30  1  0  0  0  0
 29 33  1  0  0  0  0
 30 28  1  1  0  0  0
 30 34  1  0  0  0  0
 31 34  1  0  0  0  0
 33 32  1  0  0  0  0
 34 32  1  0  0  0  0
M  END
>  <MODEL>
7

>  <REMARK>
 VINA RESULT:      -6.3      2.794      6.325
  Name = 
  11 active torsions:
  status: ('A' for Active; 'I' for Inactive)
    1  A    between atoms: C_3  and  C_13
    2  A    between atoms: C_3  and  S_17
    3  A    between atoms: C_4  and  C_31
    4  A    between atoms: N_5  and  C_18
    5  A    between atoms: N_5  and  C_31
    6  A    between atoms: N_8  and  C_27
    7  A    between atoms: C_12  and  C_27
    8  A    between atoms: S_17  and  C_29
    9  A    between atoms: C_18  and  C_29
   10  A    between atoms: C_21  and  C_31
   11  A    between atoms: C_26  and  C_28
                            x       y       z     vdW  Elec       q    Type
                         _______ _______ _______ _____ _____    ______ ____

>  <TORSDO>
F 11

$$$$
=
 OpenBabel11052414203D

 34 37  0  0  1  0  0  0  0  0999 V2000
  185.7350  178.6260  139.0350 C   0  0  2  0  0  3  0  0  0  0  0  0
  183.0780  176.8420  138.8540 C   0  0  2  0  0  3  0  0  0  0  0  0
  182.3710  179.3490  139.4640 C   0  0  0  0  0  0  0  0  0  0  0  0
  184.4360  179.1310  138.3860 C   0  0  2  0  0  3  0  0  0  0  0  0
  181.1650  177.6970  137.6260 O   0  0  0  0  0  1  0  0  0  0  0  0
  181.2760  179.1740  140.0640 O   0  0  0  0  0  0  0  0  0  0  0  0
  184.2230  180.5010  138.7320 O   0  0  0  0  0  0  0  0  0  0  0  0
  183.1930  178.3560  138.8000 C   0  0  1  0  0  0  0  0  0  0  0  0
  182.5630  177.6150  137.6270 C   0  0  1  0  0  3  0  0  0  0  0  0
  182.0350  176.4550  139.7020 O   0  0  0  0  0  1  0  0  0  0  0  0
  183.0330  180.5470  139.3800 O   0  0  0  0  0  0  0  0  0  0  0  0
  187.9070  177.5840  136.1830 C   0  0  0  0  0  2  0  0  0  0  0  0
  188.5330  176.8280  137.2630 N   0  0  0  0  0  0  0  0  0  0  0  0
  186.4770  177.6260  138.1310 C   0  0  2  0  0  3  0  0  0  0  0  0
  187.9320  177.3380  138.5060 C   0  0  2  0  0  3  0  0  0  0  0  0
  186.5500  178.0650  136.6800 C   0  0  2  0  0  3  0  0  0  0  0  0
  185.5380  177.4460  135.9480 O   0  0  0  0  0  1  0  0  0  0  0  0
  189.1880  178.5170  140.1740 O   0  0  0  0  0  0  0  0  0  0  0  0
  188.6450  178.5520  139.0800 C   0  0  0  0  0  3  0  0  0  0  0  0
  189.9820  177.0010  137.1860 C   0  0  0  0  0  2  0  0  0  0  0  0
  190.6860  175.6990  137.5270 C   0  0  0  0  0  2  0  0  0  0  0  0
  190.9260  175.6280  138.9000 O   0  0  0  0  0  1  0  0  0  0  0  0
  185.4760  178.0330  140.3440 N   0  0  0  0  0  2  0  0  0  0  0  0
  185.9090  178.9850  141.3530 C   0  0  0  0  0  2  0  0  0  0  0  0
  184.9430  178.9670  142.5190 C   0  0  0  0  0  2  0  0  0  0  0  0
  185.7590  178.2530  143.9720 S   0  0  0  0  0  0  0  0  0  0  0  0
  187.2750  177.8820  143.0390 C   0  0  0  0  0  2  0  0  0  0  0  0
  190.1780  175.8130  143.0200 C   0  0  0  0  0  1  0  0  0  0  0  0
  188.2090  177.0160  143.8740 C   0  0  1  0  0  3  0  0  0  0  0  0
  189.6120  177.1720  143.3770 C   0  0  1  0  0  3  0  0  0  0  0  0
  191.1100  178.8610  143.9690 C   0  0  0  0  0  1  0  0  0  0  0  0
  189.4060  178.2530  145.3800 N   0  0  0  0  0  2  0  0  0  0  0  0
  188.2320  177.4890  145.2440 N   0  0  0  0  0  2  0  0  0  0  0  0
  190.3590  177.7310  144.4870 N   0  0  0  0  0  0  0  0  0  0  0  0
  1 23  1  1  0  0  0
  2 10  1  1  0  0  0
  3  6  2  0  0  0  0
  4  7  1  0  0  0  0
  4  8  1  0  0  0  0
  4  1  1  1  0  0  0
  7 11  1  0  0  0  0
  8  2  1  0  0  0  0
  8  3  1  1  0  0  0
  9  5  1  1  0  0  0
  9  8  1  0  0  0  0
  9  2  1  0  0  0  0
 11  3  1  0  0  0  0
 12 16  1  0  0  0  0
 12 13  1  0  0  0  0
 13 15  1  0  0  0  0
 14 15  1  0  0  0  0
 14  1  1  1  0  0  0
 15 19  1  6  0  0  0
 16 17  1  6  0  0  0
 16 14  1  0  0  0  0
 19 18  2  0  0  0  0
 20 13  1  0  0  0  0
 20 21  1  0  0  0  0
 21 22  1  0  0  0  0
 23 24  1  0  0  0  0
 24 25  1  0  0  0  0
 25 26  1  0  0  0  0
 27 26  1  0  0  0  0
 29 27  1  6  0  0  0
 29 33  1  0  0  0  0
 30 28  1  1  0  0  0
 30 29  1  0  0  0  0
 30 34  1  0  0  0  0
 31 34  1  0  0  0  0
 33 32  1  0  0  0  0
 34 32  1  0  0  0  0
M  END
>  <MODEL>
8

>  <REMARK>
 VINA RESULT:      -6.2      2.534      5.686
  Name = 
  11 active torsions:
  status: ('A' for Active; 'I' for Inactive)
    1  A    between atoms: C_3  and  C_13
    2  A    between atoms: C_3  and  S_17
    3  A    between atoms: C_4  and  C_31
    4  A    between atoms: N_5  and  C_18
    5  A    between atoms: N_5  and  C_31
    6  A    between atoms: N_8  and  C_27
    7  A    between atoms: C_12  and  C_27
    8  A    between atoms: S_17  and  C_29
    9  A    between atoms: C_18  and  C_29
   10  A    between atoms: C_21  and  C_31
   11  A    between atoms: C_26  and  C_28
                            x       y       z     vdW  Elec       q    Type
                         _______ _______ _______ _____ _____    ______ ____

>  <TORSDO>
F 11

$$$$
=
 OpenBabel11052414203D

 34 37  0  0  1  0  0  0  0  0999 V2000
  187.4230  178.3510  142.5660 C   0  0  2  0  0  3  0  0  0  0  0  0
  190.4750  179.0830  143.2260 C   0  0  2  0  0  3  0  0  0  0  0  0
  189.6500  177.2400  144.9810 C   0  0  0  0  0  0  0  0  0  0  0  0
  188.4670  177.2930  142.9640 C   0  0  2  0  0  3  0  0  0  0  0  0
  192.0530  177.2850  143.6460 O   0  0  0  0  0  1  0  0  0  0  0  0
  190.4030  177.4620  145.9670 O   0  0  0  0  0  0  0  0  0  0  0  0
  187.8720  176.3330  143.8380 O   0  0  0  0  0  0  0  0  0  0  0  0
  189.6880  177.8610  143.6720 C   0  0  1  0  0  0  0  0  0  0  0  0
  190.9620  177.6700  142.8580 C   0  0  1  0  0  3  0  0  0  0  0  0
  191.1980  179.6220  144.2930 O   0  0  0  0  0  1  0  0  0  0  0  0
  188.5810  176.3810  144.9930 O   0  0  0  0  0  0  0  0  0  0  0  0
  184.0530  178.9590  144.0530 C   0  0  0  0  0  2  0  0  0  0  0  0
  183.6660  178.2540  142.8360 N   0  0  0  0  0  0  0  0  0  0  0  0
  186.0100  177.9680  143.0380 C   0  0  2  0  0  3  0  0  0  0  0  0
  184.8870  178.1690  142.0190 C   0  0  2  0  0  3  0  0  0  0  0  0
  185.5480  178.7500  144.2540 C   0  0  2  0  0  3  0  0  0  0  0  0
  185.7630  177.9970  145.4080 O   0  0  0  0  0  1  0  0  0  0  0  0
  184.8700  179.3410  139.9270 O   0  0  0  0  0  0  0  0  0  0  0  0
  185.1120  179.3780  141.1230 C   0  0  0  0  0  3  0  0  0  0  0  0
  182.5680  178.9770  142.1960 C   0  0  0  0  0  2  0  0  0  0  0  0
  181.3500  178.9950  143.1040 C   0  0  0  0  0  2  0  0  0  0  0  0
  180.5750  180.1270  142.8440 O   0  0  0  0  0  1  0  0  0  0  0  0
  187.4320  178.5850  141.1250 N   0  0  0  0  0  2  0  0  0  0  0  0
  188.3490  177.6280  140.5290 C   0  0  0  0  0  2  0  0  0  0  0  0
  189.0820  178.2750  139.3730 C   0  0  0  0  0  2  0  0  0  0  0  0
  188.3280  177.7570  137.8080 S   0  0  0  0  0  0  0  0  0  0  0  0
  189.8270  176.8730  137.2840 C   0  0  0  0  0  2  0  0  0  0  0  0
  188.7520  173.5040  136.8360 C   0  0  0  0  0  1  0  0  0  0  0  0
  189.8360  175.4620  137.8570 C   0  0  1  0  0  3  0  0  0  0  0  0
  189.9150  174.4690  136.7390 C   0  0  1  0  0  3  0  0  0  0  0  0
  191.8570  173.7430  135.6690 C   0  0  0  0  0  1  0  0  0  0  0  0
  191.9280  174.5370  137.8200 N   0  0  0  0  0  2  0  0  0  0  0  0
  191.0380  175.2530  138.6420 N   0  0  0  0  0  2  0  0  0  0  0  0
  191.1580  173.7520  136.9410 N   0  0  0  0  0  0  0  0  0  0  0  0
  1 23  1  6  0  0  0
  2  8  1  0  0  0  0
  2 10  1  1  0  0  0
  3 11  1  0  0  0  0
  3  6  2  0  0  0  0
  4  1  1  1  0  0  0
  4  8  1  0  0  0  0
  4  7  1  0  0  0  0
  7 11  1  0  0  0  0
  8  3  1  1  0  0  0
  9  2  1  0  0  0  0
  9  5  1  1  0  0  0
  9  8  1  0  0  0  0
 12 16  1  0  0  0  0
 13 12  1  0  0  0  0
 14  1  1  6  0  0  0
 14 16  1  0  0  0  0
 15 19  1  1  0  0  0
 15 13  1  0  0  0  0
 15 14  1  0  0  0  0
 16 17  1  1  0  0  0
 18 19  2  0  0  0  0
 20 13  1  0  0  0  0
 20 21  1  0  0  0  0
 22 21  1  0  0  0  0
 24 23  1  0  0  0  0
 25 24  1  0  0  0  0
 26 25  1  0  0  0  0
 27 26  1  0  0  0  0
 29 27  1  6  0  0  0
 29 33  1  0  0  0  0
 30 28  1  1  0  0  0
 30 34  1  0  0  0  0
 30 29  1  0  0  0  0
 31 34  1  0  0  0  0
 32 33  1  0  0  0  0
 34 32  1  0  0  0  0
M  END
>  <MODEL>
9

>  <REMARK>
 VINA RESULT:      -6.2      3.373      6.782
  Name = 
  11 active torsions:
  status: ('A' for Active; 'I' for Inactive)
    1  A    between atoms: C_3  and  C_13
    2  A    between atoms: C_3  and  S_17
    3  A    between atoms: C_4  and  C_31
    4  A    between atoms: N_5  and  C_18
    5  A    between atoms: N_5  and  C_31
    6  A    between atoms: N_8  and  C_27
    7  A    between atoms: C_12  and  C_27
    8  A    between atoms: S_17  and  C_29
    9  A    between atoms: C_18  and  C_29
   10  A    between atoms: C_21  and  C_31
   11  A    between atoms: C_26  and  C_28
                            x       y       z     vdW  Elec       q    Type
                         _______ _______ _______ _____ _____    ______ ____

>  <TORSDO>
F 11

$$$$
