=
 OpenBabel11052416363D

 43 48  0  0  1  0  0  0  0  0999 V2000
  186.6610  178.1890  146.3810 C   0  0  0  0  0  0  0  0  0  0  0  0
  183.3250  178.6370  142.5480 C   0  0  0  0  0  0  0  0  0  0  0  0
  185.5090  178.2510  141.3670 C   0  0  0  0  0  3  0  0  0  0  0  0
  184.6580  178.6070  145.0320 C   0  0  0  0  0  0  0  0  0  0  0  0
  187.3980  177.8810  145.3150 C   0  0  0  0  0  3  0  0  0  0  0  0
  187.2630  178.1240  147.7380 C   0  0  0  0  0  1  0  0  0  0  0  0
  185.3680  178.2770  143.8550 C   0  0  0  0  0  0  0  0  0  0  0  0
  185.2510  178.5800  146.2290 C   0  0  0  0  0  3  0  0  0  0  0  0
  186.8470  177.9430  143.9160 C   0  0  0  0  0  3  0  0  0  0  0  0
  184.9650  178.1090  140.1580 C   0  0  0  0  0  0  0  0  0  0  0  0
  184.7060  178.3100  142.6070 C   0  0  0  0  0  0  0  0  0  0  0  0
  182.6630  179.0050  143.7310 C   0  0  0  0  0  3  0  0  0  0  0  0
  182.6560  178.6300  141.3750 C   0  0  1  0  0  3  0  0  0  0  0  0
  183.2460  177.6430  139.9920 S   0  0  0  0  0  0  0  0  0  0  0  0
  183.3200  178.9850  144.9570 C   0  0  0  0  0  3  0  0  0  0  0  0
  185.8040  178.2140  138.9220 C   0  0  1  0  0  3  0  0  0  0  0  0
  185.4830  179.3810  138.2270 O   0  0  0  0  0  1  0  0  0  0  0  0
  187.2950  178.1990  139.2380 C   0  0  0  0  0  2  0  0  0  0  0  0
  188.2350  178.0870  136.7170 O   0  0  0  0  0  0  0  0  0  0  0  0
  188.2170  177.3020  137.9980 S   0  0  0  0  0  0  0  0  0  0  0  0
  187.5420  175.9780  137.7680 O   0  0  0  0  0  0  0  0  0  0  0  0
  189.8520  177.0400  138.5420 N   0  0  0  0  0  0  0  0  0  0  0  0
  190.2100  177.2780  139.9160 C   0  0  0  0  0  0  0  0  0  0  0  0
  191.4080  177.5160  140.2250 O   0  0  0  0  0  0  0  0  0  0  0  0
  191.6660  175.5050  137.9560 C   0  0  0  0  0  2  0  0  0  0  0  0
  190.8960  176.7540  137.5550 C   0  0  0  0  0  3  0  0  0  0  0  0
  190.6230  175.4240  136.8680 C   0  0  0  0  0  2  0  0  0  0  0  0
  189.1910  177.1840  141.0060 C   0  0  0  0  0  2  0  0  0  0  0  0
  189.8420  177.3470  142.3370 C   0  0  0  0  0  0  0  0  0  0  0  0
  190.7670  178.7790  144.0610 C   0  0  0  0  0  3  0  0  0  0  0  0
  190.8440  176.3720  144.3170 C   0  0  0  0  0  3  0  0  0  0  0  0
  191.1250  177.6510  144.8070 C   0  0  0  0  0  3  0  0  0  0  0  0
  190.2060  176.2200  143.0830 C   0  0  0  0  0  3  0  0  0  0  0  0
  190.1270  178.6280  142.8270 C   0  0  0  0  0  3  0  0  0  0  0  0
  181.2880  179.2280  141.2330 C   0  0  0  0  0  2  0  0  0  0  0  0
  179.1030  179.5580  138.2490 C   0  0  0  0  0  2  0  0  0  0  0  0
  179.6110  180.9120  137.7560 C   0  0  1  0  0  3  0  0  0  0  0  0
  181.4160  180.7580  139.4680 C   0  0  0  0  0  2  0  0  0  0  0  0
  179.5120  179.3590  139.7060 C   0  0  0  0  0  2  0  0  0  0  0  0
  180.9700  179.4120  139.8270 N   0  0  0  0  0  0  0  0  0  0  0  0
  181.1140  181.0330  137.9970 C   0  0  0  0  0  2  0  0  0  0  0  0
  180.5820  180.8210  135.6370 C   0  0  0  0  0  1  0  0  0  0  0  0
  179.3310  181.0520  136.3390 N   0  0  0  0  0  2  0  0  0  0  0  0
  1  6  1  0  0  0  0
  2 11  2  0  0  0  0
  2 12  1  0  0  0  0
  3 11  1  0  0  0  0
  4  8  2  0  0  0  0
  5  1  2  0  0  0  0
  7  9  2  0  0  0  0
  7  4  1  0  0  0  0
  8  1  1  0  0  0  0
  9  5  1  0  0  0  0
 10  3  2  0  0  0  0
 11  7  1  0  0  0  0
 12 15  2  0  0  0  0
 13 35  1  1  0  0  0
 13  2  1  0  0  0  0
 14 10  1  0  0  0  0
 14 13  1  0  0  0  0
 15  4  1  0  0  0  0
 16 17  1  1  0  0  0
 16 18  1  0  0  0  0
 16 10  1  0  0  0  0
 19 20  2  0  0  0  0
 20 22  1  0  0  0  0
 20 18  1  0  0  0  0
 21 20  2  0  0  0  0
 22 23  1  0  0  0  0
 23 24  2  0  0  0  0
 23 28  1  0  0  0  0
 26 25  1  0  0  0  0
 26 22  1  0  0  0  0
 27 26  1  0  0  0  0
 27 25  1  0  0  0  0
 28 29  1  0  0  0  0
 29 34  2  0  0  0  0
 29 33  1  0  0  0  0
 30 32  2  0  0  0  0
 31 32  1  0  0  0  0
 33 31  2  0  0  0  0
 34 30  1  0  0  0  0
 36 39  1  0  0  0  0
 37 43  1  6  0  0  0
 37 41  1  0  0  0  0
 37 36  1  0  0  0  0
 38 40  1  0  0  0  0
 39 40  1  0  0  0  0
 40 35  1  0  0  0  0
 41 38  1  0  0  0  0
 42 43  1  0  0  0  0
M  END
>  <MODEL>
1

>  <REMARK>
 VINA RESULT:      -9.2      0.000      0.000
  Name = 
  10 active torsions:
  status: ('A' for Active; 'I' for Inactive)
    1  A    between atoms: C_1  and  C_34
    2  A    between atoms: C_1  and  N_35
    3  A    between atoms: C_2  and  C_6
    4  A    between atoms: C_2  and  C_27
    5  A    between atoms: N_4  and  S_12
    6  A    between atoms: N_4  and  C_15
    7  A    between atoms: C_6  and  S_12
    8  A    between atoms: C_11  and  C_14
    9  A    between atoms: C_14  and  C_22
   10  A    between atoms: C_19  and  N_37
                            x       y       z     vdW  Elec       q    Type
                         _______ _______ _______ _____ _____    ______ ____

>  <TORSDO>
F 10

$$$$
=
 OpenBabel11052416363D

 43 48  0  0  1  0  0  0  0  0999 V2000
  185.0290  178.5560  144.8820 C   0  0  0  0  0  0  0  0  0  0  0  0
  182.8490  178.4970  140.2710 C   0  0  0  0  0  0  0  0  0  0  0  0
  185.2870  178.1710  139.7580 C   0  0  0  0  0  3  0  0  0  0  0  0
  183.4540  178.7390  143.0140 C   0  0  0  0  0  0  0  0  0  0  0  0
  186.0420  178.2200  144.0850 C   0  0  0  0  0  3  0  0  0  0  0  0
  185.2410  178.6310  146.3510 C   0  0  0  0  0  1  0  0  0  0  0  0
  184.4720  178.3710  142.1040 C   0  0  0  0  0  0  0  0  0  0  0  0
  183.6980  178.8390  144.3230 C   0  0  0  0  0  3  0  0  0  0  0  0
  185.8910  178.1410  142.5890 C   0  0  0  0  0  3  0  0  0  0  0  0
  185.0990  177.9040  138.4650 C   0  0  0  0  0  0  0  0  0  0  0  0
  184.1740  178.2670  140.7270 C   0  0  0  0  0  0  0  0  0  0  0  0
  181.8740  178.9060  141.1960 C   0  0  0  0  0  3  0  0  0  0  0  0
  182.5260  178.3580  138.9670 C   0  0  1  0  0  3  0  0  0  0  0  0
  183.5130  177.3140  137.8860 S   0  0  0  0  0  0  0  0  0  0  0  0
  182.1710  179.0200  142.5500 C   0  0  0  0  0  3  0  0  0  0  0  0
  186.2380  177.9730  137.4940 C   0  0  1  0  0  3  0  0  0  0  0  0
  186.6450  179.2980  137.3330 O   0  0  0  0  0  1  0  0  0  0  0  0
  187.4230  177.1240  137.9400 C   0  0  0  0  0  2  0  0  0  0  0  0
  188.7040  179.3240  138.8200 O   0  0  0  0  0  0  0  0  0  0  0  0
  188.9290  178.0850  138.0000 S   0  0  0  0  0  0  0  0  0  0  0  0
  189.3040  178.4720  136.5960 O   0  0  0  0  0  0  0  0  0  0  0  0
  190.2110  177.1430  138.7100 N   0  0  0  0  0  0  0  0  0  0  0  0
  190.2900  176.9790  140.1380 C   0  0  0  0  0  0  0  0  0  0  0  0
  191.3910  176.6970  140.6830 O   0  0  0  0  0  0  0  0  0  0  0  0
  191.5130  175.1780  138.0500 C   0  0  0  0  0  2  0  0  0  0  0  0
  191.3090  176.6730  137.8610 C   0  0  0  0  0  3  0  0  0  0  0  0
  190.7900  175.6850  136.8270 C   0  0  0  0  0  2  0  0  0  0  0  0
  189.0680  177.0750  140.9940 C   0  0  0  0  0  2  0  0  0  0  0  0
  189.4480  177.3630  142.4070 C   0  0  0  0  0  0  0  0  0  0  0  0
  190.4890  178.8130  144.0480 C   0  0  0  0  0  3  0  0  0  0  0  0
  189.5690  176.6780  144.7300 C   0  0  0  0  0  3  0  0  0  0  0  0
  190.2210  177.8730  145.0490 C   0  0  0  0  0  3  0  0  0  0  0  0
  189.1850  176.4220  143.4100 C   0  0  0  0  0  3  0  0  0  0  0  0
  190.1040  178.5580  142.7280 C   0  0  0  0  0  3  0  0  0  0  0  0
  181.2230  178.8520  138.4110 C   0  0  0  0  0  2  0  0  0  0  0  0
  180.7630  181.0990  135.4910 C   0  0  0  0  0  2  0  0  0  0  0  0
  180.4060  182.3740  136.2520 C   0  0  1  0  0  3  0  0  0  0  0  0
  181.0060  181.1810  138.3560 C   0  0  0  0  0  2  0  0  0  0  0  0
  180.5840  179.8910  136.4080 C   0  0  0  0  0  2  0  0  0  0  0  0
  181.4500  180.0230  137.5800 N   0  0  0  0  0  0  0  0  0  0  0  0
  181.2100  182.4600  137.5470 C   0  0  0  0  0  2  0  0  0  0  0  0
  180.9400  184.6440  136.3270 C   0  0  0  0  0  1  0  0  0  0  0  0
  180.6910  183.5330  135.4250 N   0  0  0  0  0  2  0  0  0  0  0  0
  1  6  1  0  0  0  0
  2 11  2  0  0  0  0
  2 12  1  0  0  0  0
  3 11  1  0  0  0  0
  4  8  2  0  0  0  0
  5  1  2  0  0  0  0
  7  9  2  0  0  0  0
  7  4  1  0  0  0  0
  8  1  1  0  0  0  0
  9  5  1  0  0  0  0
 10  3  2  0  0  0  0
 11  7  1  0  0  0  0
 12 15  2  0  0  0  0
 13 35  1  1  0  0  0
 13  2  1  0  0  0  0
 14 10  1  0  0  0  0
 14 13  1  0  0  0  0
 15  4  1  0  0  0  0
 16 17  1  1  0  0  0
 16 18  1  0  0  0  0
 16 10  1  0  0  0  0
 18 20  1  0  0  0  0
 20 22  1  0  0  0  0
 20 19  2  0  0  0  0
 21 20  2  0  0  0  0
 22 23  1  0  0  0  0
 23 24  2  0  0  0  0
 23 28  1  0  0  0  0
 26 25  1  0  0  0  0
 26 22  1  0  0  0  0
 27 26  1  0  0  0  0
 27 25  1  0  0  0  0
 28 29  1  0  0  0  0
 29 34  2  0  0  0  0
 29 33  1  0  0  0  0
 30 32  2  0  0  0  0
 31 32  1  0  0  0  0
 33 31  2  0  0  0  0
 34 30  1  0  0  0  0
 36 37  1  0  0  0  0
 36 39  1  0  0  0  0
 37 43  1  6  0  0  0
 37 41  1  0  0  0  0
 39 40  1  0  0  0  0
 40 38  1  0  0  0  0
 40 35  1  0  0  0  0
 41 38  1  0  0  0  0
 43 42  1  0  0  0  0
M  END
>  <MODEL>
2

>  <REMARK>
 VINA RESULT:      -8.8      1.383      2.020
  Name = 
  10 active torsions:
  status: ('A' for Active; 'I' for Inactive)
    1  A    between atoms: C_1  and  C_34
    2  A    between atoms: C_1  and  N_35
    3  A    between atoms: C_2  and  C_6
    4  A    between atoms: C_2  and  C_27
    5  A    between atoms: N_4  and  S_12
    6  A    between atoms: N_4  and  C_15
    7  A    between atoms: C_6  and  S_12
    8  A    between atoms: C_11  and  C_14
    9  A    between atoms: C_14  and  C_22
   10  A    between atoms: C_19  and  N_37
                            x       y       z     vdW  Elec       q    Type
                         _______ _______ _______ _____ _____    ______ ____

>  <TORSDO>
F 10

$$$$
=
 OpenBabel11052416363D

 43 48  0  0  1  0  0  0  0  0999 V2000
  187.8970  177.9960  147.5800 C   0  0  0  0  0  0  0  0  0  0  0  0
  188.0100  177.7640  142.4860 C   0  0  0  0  0  0  0  0  0  0  0  0
  185.5650  178.0410  142.9940 C   0  0  0  0  0  3  0  0  0  0  0  0
  188.5810  177.6990  145.2460 C   0  0  0  0  0  0  0  0  0  0  0  0
  186.6370  178.2720  147.2470 C   0  0  0  0  0  3  0  0  0  0  0  0
  188.3030  178.0160  149.0100 C   0  0  0  0  0  1  0  0  0  0  0  0
  187.2700  178.0010  144.8110 C   0  0  0  0  0  0  0  0  0  0  0  0
  188.8930  177.6840  146.5440 C   0  0  0  0  0  3  0  0  0  0  0  0
  186.1640  178.2530  145.8190 C   0  0  0  0  0  3  0  0  0  0  0  0
  185.2020  178.2230  141.7240 C   0  0  0  0  0  0  0  0  0  0  0  0
  186.9780  178.0150  143.4290 C   0  0  0  0  0  0  0  0  0  0  0  0
  189.2890  177.4230  142.9540 C   0  0  0  0  0  3  0  0  0  0  0  0
  187.7700  177.8180  141.1580 C   0  0  1  0  0  3  0  0  0  0  0  0
  186.3960  178.7830  140.5150 S   0  0  0  0  0  0  0  0  0  0  0  0
  189.5730  177.3960  144.3160 C   0  0  0  0  0  3  0  0  0  0  0  0
  183.7690  178.0830  141.3080 C   0  0  1  0  0  3  0  0  0  0  0  0
  182.9450  178.7570  142.2090 O   0  0  0  0  0  1  0  0  0  0  0  0
  183.5280  178.6110  139.8980 C   0  0  0  0  0  2  0  0  0  0  0  0
  180.9090  179.0500  139.4470 O   0  0  0  0  0  0  0  0  0  0  0  0
  181.9790  178.0160  139.2350 S   0  0  0  0  0  0  0  0  0  0  0  0
  181.6060  176.7500  139.9570 O   0  0  0  0  0  0  0  0  0  0  0  0
  182.1440  177.6910  137.5310 N   0  0  0  0  0  0  0  0  0  0  0  0
  183.3210  177.0350  137.0250 C   0  0  0  0  0  0  0  0  0  0  0  0
  183.6550  177.1780  135.8180 O   0  0  0  0  0  0  0  0  0  0  0  0
  180.7920  177.2190  135.5460 C   0  0  0  0  0  2  0  0  0  0  0  0
  181.1640  178.2530  136.5980 C   0  0  0  0  0  3  0  0  0  0  0  0
  179.8490  177.4920  136.6920 C   0  0  0  0  0  2  0  0  0  0  0  0
  184.1300  176.1240  137.8920 C   0  0  0  0  0  2  0  0  0  0  0  0
  183.8580  174.7010  137.5410 C   0  0  0  0  0  0  0  0  0  0  0  0
  184.6610  172.4580  137.0920 C   0  0  0  0  0  3  0  0  0  0  0  0
  182.2990  172.9570  136.9030 C   0  0  0  0  0  3  0  0  0  0  0  0
  183.3540  172.0430  136.8180 C   0  0  0  0  0  3  0  0  0  0  0  0
  182.5510  174.2840  137.2620 C   0  0  0  0  0  3  0  0  0  0  0  0
  184.9140  173.7860  137.4520 C   0  0  0  0  0  3  0  0  0  0  0  0
  188.7500  177.2960  140.1480 C   0  0  0  0  0  2  0  0  0  0  0  0
  188.8390  178.7820  136.7460 C   0  0  0  0  0  2  0  0  0  0  0  0
  188.7020  177.4900  135.9420 C   0  0  1  0  0  3  0  0  0  0  0  0
  188.2550  176.3050  138.0880 C   0  0  0  0  0  2  0  0  0  0  0  0
  189.2690  178.4500  138.1730 C   0  0  0  0  0  2  0  0  0  0  0  0
  188.2760  177.5800  138.8040 N   0  0  0  0  0  0  0  0  0  0  0  0
  187.7670  176.5180  136.6570 C   0  0  0  0  0  2  0  0  0  0  0  0
  186.7640  178.0870  134.7880 C   0  0  0  0  0  1  0  0  0  0  0  0
  188.1770  177.7900  134.6220 N   0  0  0  0  0  2  0  0  0  0  0  0
  1  6  1  0  0  0  0
  2 12  2  0  0  0  0
  2 11  1  0  0  0  0
  3 11  1  0  0  0  0
  4  8  1  0  0  0  0
  5  1  1  0  0  0  0
  7  4  1  0  0  0  0
  7  9  1  0  0  0  0
  8  1  2  0  0  0  0
  9  5  2  0  0  0  0
 10  3  2  0  0  0  0
 11  7  2  0  0  0  0
 12 15  1  0  0  0  0
 13 35  1  6  0  0  0
 13  2  1  0  0  0  0
 14 13  1  0  0  0  0
 14 10  1  0  0  0  0
 15  4  2  0  0  0  0
 16 10  1  0  0  0  0
 16 17  1  1  0  0  0
 18 16  1  0  0  0  0
 20 19  2  0  0  0  0
 20 18  1  0  0  0  0
 20 21  2  0  0  0  0
 22 20  1  0  0  0  0
 23 22  1  0  0  0  0
 23 28  1  0  0  0  0
 24 23  2  0  0  0  0
 25 26  1  0  0  0  0
 25 27  1  0  0  0  0
 26 27  1  0  0  0  0
 26 22  1  0  0  0  0
 29 28  1  0  0  0  0
 30 34  2  0  0  0  0
 31 33  1  0  0  0  0
 32 31  2  0  0  0  0
 32 30  1  0  0  0  0
 33 29  2  0  0  0  0
 34 29  1  0  0  0  0
 36 39  1  0  0  0  0
 37 43  1  6  0  0  0
 37 41  1  0  0  0  0
 37 36  1  0  0  0  0
 38 40  1  0  0  0  0
 39 40  1  0  0  0  0
 40 35  1  0  0  0  0
 41 38  1  0  0  0  0
 43 42  1  0  0  0  0
M  END
>  <MODEL>
3

>  <REMARK>
 VINA RESULT:      -8.5      3.260      7.357
  Name = 
  10 active torsions:
  status: ('A' for Active; 'I' for Inactive)
    1  A    between atoms: C_1  and  C_34
    2  A    between atoms: C_1  and  N_35
    3  A    between atoms: C_2  and  C_6
    4  A    between atoms: C_2  and  C_27
    5  A    between atoms: N_4  and  S_12
    6  A    between atoms: N_4  and  C_15
    7  A    between atoms: C_6  and  S_12
    8  A    between atoms: C_11  and  C_14
    9  A    between atoms: C_14  and  C_22
   10  A    between atoms: C_19  and  N_37
                            x       y       z     vdW  Elec       q    Type
                         _______ _______ _______ _____ _____    ______ ____

>  <TORSDO>
F 10

$$$$
=
 OpenBabel11052416363D

 43 48  0  0  1  0  0  0  0  0999 V2000
  191.3550  176.4720  146.9810 C   0  0  0  0  0  0  0  0  0  0  0  0
  189.5760  177.2990  142.2720 C   0  0  0  0  0  0  0  0  0  0  0  0
  187.5320  177.5530  143.7120 C   0  0  0  0  0  3  0  0  0  0  0  0
  191.1040  176.6420  144.5500 C   0  0  0  0  0  0  0  0  0  0  0  0
  190.1000  176.8570  147.2060 C   0  0  0  0  0  3  0  0  0  0  0  0
  192.2550  176.1810  148.1280 C   0  0  0  0  0  1  0  0  0  0  0  0
  189.7660  177.0750  144.7060 C   0  0  0  0  0  0  0  0  0  0  0  0
  191.8640  176.3460  145.6070 C   0  0  0  0  0  3  0  0  0  0  0  0
  189.1390  177.1520  146.0860 C   0  0  0  0  0  3  0  0  0  0  0  0
  186.7530  178.0080  142.7290 C   0  0  0  0  0  0  0  0  0  0  0  0
  188.9940  177.3860  143.5650 C   0  0  0  0  0  0  0  0  0  0  0  0
  190.8910  176.8220  142.1510 C   0  0  0  0  0  3  0  0  0  0  0  0
  188.8760  177.6370  141.1680 C   0  0  1  0  0  3  0  0  0  0  0  0
  187.4790  178.7630  141.2790 S   0  0  0  0  0  0  0  0  0  0  0  0
  191.6470  176.5030  143.2740 C   0  0  0  0  0  3  0  0  0  0  0  0
  185.2620  178.0090  142.8710 C   0  0  1  0  0  3  0  0  0  0  0  0
  184.9110  177.8470  144.2110 O   0  0  0  0  0  1  0  0  0  0  0  0
  184.6360  179.2890  142.3290 C   0  0  0  0  0  2  0  0  0  0  0  0
  183.5310  177.4820  140.6650 O   0  0  0  0  0  0  0  0  0  0  0  0
  183.4760  178.9430  141.0140 S   0  0  0  0  0  0  0  0  0  0  0  0
  183.8590  179.7620  139.8130 O   0  0  0  0  0  0  0  0  0  0  0  0
  181.8610  179.3590  141.5170 N   0  0  0  0  0  0  0  0  0  0  0  0
  180.8570  179.6920  140.5410 C   0  0  0  0  0  0  0  0  0  0  0  0
  179.8610  180.3920  140.8700 O   0  0  0  0  0  0  0  0  0  0  0  0
  180.3080  178.8100  143.3270 C   0  0  0  0  0  2  0  0  0  0  0  0
  181.5810  179.5470  142.9430 C   0  0  0  0  0  3  0  0  0  0  0  0
  181.6500  178.2140  143.6740 C   0  0  0  0  0  2  0  0  0  0  0  0
  180.9350  179.1660  139.1430 C   0  0  0  0  0  2  0  0  0  0  0  0
  180.8230  180.2840  138.1640 C   0  0  0  0  0  0  0  0  0  0  0  0
  180.2380  181.0880  135.9520 C   0  0  0  0  0  3  0  0  0  0  0  0
  181.1870  182.6090  137.5810 C   0  0  0  0  0  3  0  0  0  0  0  0
  180.6740  182.3700  136.3020 C   0  0  0  0  0  3  0  0  0  0  0  0
  181.2630  181.5670  138.5090 C   0  0  0  0  0  3  0  0  0  0  0  0
  180.3130  180.0450  136.8820 C   0  0  0  0  0  3  0  0  0  0  0  0
  189.3550  177.3010  139.7860 C   0  0  0  0  0  2  0  0  0  0  0  0
  187.7140  178.8890  136.8590 C   0  0  0  0  0  2  0  0  0  0  0  0
  187.4060  177.6200  136.0670 C   0  0  1  0  0  3  0  0  0  0  0  0
  188.1280  176.3080  138.0590 C   0  0  0  0  0  2  0  0  0  0  0  0
  188.7770  178.5870  137.9130 C   0  0  0  0  0  2  0  0  0  0  0  0
  188.2960  177.5450  138.8210 N   0  0  0  0  0  0  0  0  0  0  0  0
  187.0280  176.4840  137.0150 C   0  0  0  0  0  2  0  0  0  0  0  0
  185.1600  177.1390  135.6510 C   0  0  0  0  0  1  0  0  0  0  0  0
  186.3110  177.8710  135.1480 N   0  0  0  0  0  2  0  0  0  0  0  0
  1  5  1  0  0  0  0
  1  6  1  0  0  0  0
  2 11  1  0  0  0  0
  4  7  1  0  0  0  0
  4  8  1  0  0  0  0
  7  9  1  0  0  0  0
  8  1  2  0  0  0  0
  9  5  2  0  0  0  0
 10 16  1  0  0  0  0
 10  3  2  0  0  0  0
 11  3  1  0  0  0  0
 11  7  2  0  0  0  0
 12  2  2  0  0  0  0
 12 15  1  0  0  0  0
 13 35  1  6  0  0  0
 13 14  1  0  0  0  0
 13  2  1  0  0  0  0
 14 10  1  0  0  0  0
 15  4  2  0  0  0  0
 16 17  1  1  0  0  0
 18 16  1  0  0  0  0
 19 20  2  0  0  0  0
 20 22  1  0  0  0  0
 20 18  1  0  0  0  0
 21 20  2  0  0  0  0
 22 26  1  0  0  0  0
 23 24  2  0  0  0  0
 23 22  1  0  0  0  0
 25 27  1  0  0  0  0
 26 25  1  0  0  0  0
 26 27  1  0  0  0  0
 28 23  1  0  0  0  0
 29 33  1  0  0  0  0
 29 28  1  0  0  0  0
 30 32  2  0  0  0  0
 30 34  1  0  0  0  0
 31 33  2  0  0  0  0
 32 31  1  0  0  0  0
 34 29  2  0  0  0  0
 36 39  1  0  0  0  0
 37 43  1  6  0  0  0
 37 36  1  0  0  0  0
 37 41  1  0  0  0  0
 38 40  1  0  0  0  0
 39 40  1  0  0  0  0
 40 35  1  0  0  0  0
 41 38  1  0  0  0  0
 43 42  1  0  0  0  0
M  END
>  <MODEL>
4

>  <REMARK>
 VINA RESULT:      -8.4      2.646      8.356
  Name = 
  10 active torsions:
  status: ('A' for Active; 'I' for Inactive)
    1  A    between atoms: C_1  and  C_34
    2  A    between atoms: C_1  and  N_35
    3  A    between atoms: C_2  and  C_6
    4  A    between atoms: C_2  and  C_27
    5  A    between atoms: N_4  and  S_12
    6  A    between atoms: N_4  and  C_15
    7  A    between atoms: C_6  and  S_12
    8  A    between atoms: C_11  and  C_14
    9  A    between atoms: C_14  and  C_22
   10  A    between atoms: C_19  and  N_37
                            x       y       z     vdW  Elec       q    Type
                         _______ _______ _______ _____ _____    ______ ____

>  <TORSDO>
F 10

$$$$
=
 OpenBabel11052416363D

 43 48  0  0  1  0  0  0  0  0999 V2000
  191.4270  176.3590  147.0140 C   0  0  0  0  0  0  0  0  0  0  0  0
  189.6110  177.1610  142.3160 C   0  0  0  0  0  0  0  0  0  0  0  0
  187.5860  177.4590  143.7730 C   0  0  0  0  0  3  0  0  0  0  0  0
  191.1530  176.5070  144.5840 C   0  0  0  0  0  0  0  0  0  0  0  0
  190.1800  176.7640  147.2490 C   0  0  0  0  0  3  0  0  0  0  0  0
  192.3340  176.0670  148.1550 C   0  0  0  0  0  1  0  0  0  0  0  0
  189.8230  176.9600  144.7500 C   0  0  0  0  0  0  0  0  0  0  0  0
  191.9200  176.2110  145.6370 C   0  0  0  0  0  3  0  0  0  0  0  0
  189.2120  177.0610  146.1350 C   0  0  0  0  0  3  0  0  0  0  0  0
  186.8040  177.9150  142.7940 C   0  0  0  0  0  0  0  0  0  0  0  0
  189.0440  177.2700  143.6130 C   0  0  0  0  0  0  0  0  0  0  0  0
  190.9190  176.6640  142.1860 C   0  0  0  0  0  3  0  0  0  0  0  0
  188.9050  177.4970  141.2150 C   0  0  1  0  0  3  0  0  0  0  0  0
  187.5250  178.6450  141.3290 S   0  0  0  0  0  0  0  0  0  0  0  0
  191.6810  176.3460  143.3050 C   0  0  0  0  0  3  0  0  0  0  0  0
  185.3140  177.9390  142.9500 C   0  0  1  0  0  3  0  0  0  0  0  0
  184.9770  177.8780  144.3030 O   0  0  0  0  0  1  0  0  0  0  0  0
  184.6920  179.1810  142.3220 C   0  0  0  0  0  2  0  0  0  0  0  0
  183.8370  177.3070  140.5870 O   0  0  0  0  0  0  0  0  0  0  0  0
  183.6500  178.7580  140.9340 S   0  0  0  0  0  0  0  0  0  0  0  0
  184.0490  179.6110  139.7620 O   0  0  0  0  0  0  0  0  0  0  0  0
  181.9780  179.0500  141.3300 N   0  0  0  0  0  0  0  0  0  0  0  0
  180.9740  179.0430  140.2990 C   0  0  0  0  0  0  0  0  0  0  0  0
  179.8870  179.6570  140.4710 O   0  0  0  0  0  0  0  0  0  0  0  0
  180.2720  178.9220  143.0790 C   0  0  0  0  0  2  0  0  0  0  0  0
  181.6290  179.4840  142.6850 C   0  0  0  0  0  3  0  0  0  0  0  0
  181.5300  178.2820  143.6140 C   0  0  0  0  0  2  0  0  0  0  0  0
  181.1660  178.2610  139.0390 C   0  0  0  0  0  2  0  0  0  0  0  0
  180.3710  177.0000  139.0870 C   0  0  0  0  0  0  0  0  0  0  0  0
  179.4790  175.1260  140.3400 C   0  0  0  0  0  3  0  0  0  0  0  0
  179.1110  175.2690  137.9500 C   0  0  0  0  0  3  0  0  0  0  0  0
  178.9350  174.5980  139.1650 C   0  0  0  0  0  3  0  0  0  0  0  0
  179.8300  176.4670  137.9120 C   0  0  0  0  0  3  0  0  0  0  0  0
  180.1970  176.3260  140.3020 C   0  0  0  0  0  3  0  0  0  0  0  0
  189.3650  177.1400  139.8320 C   0  0  0  0  0  2  0  0  0  0  0  0
  187.8310  178.9070  136.9490 C   0  0  0  0  0  2  0  0  0  0  0  0
  187.4780  177.6830  136.1070 C   0  0  1  0  0  3  0  0  0  0  0  0
  188.1190  176.2670  138.0550 C   0  0  0  0  0  2  0  0  0  0  0  0
  188.8660  178.5200  138.0030 C   0  0  0  0  0  2  0  0  0  0  0  0
  188.3300  177.4670  138.8650 N   0  0  0  0  0  0  0  0  0  0  0  0
  187.0410  176.5300  137.0060 C   0  0  0  0  0  2  0  0  0  0  0  0
  185.2980  177.1270  135.4880 C   0  0  0  0  0  1  0  0  0  0  0  0
  186.4070  178.0160  135.1850 N   0  0  0  0  0  2  0  0  0  0  0  0
  1  5  1  0  0  0  0
  1  6  1  0  0  0  0
  2 11  1  0  0  0  0
  4  7  1  0  0  0  0
  4  8  1  0  0  0  0
  7  9  1  0  0  0  0
  8  1  2  0  0  0  0
  9  5  2  0  0  0  0
 10 16  1  0  0  0  0
 10  3  2  0  0  0  0
 11  3  1  0  0  0  0
 11  7  2  0  0  0  0
 12  2  2  0  0  0  0
 12 15  1  0  0  0  0
 13 35  1  6  0  0  0
 13 14  1  0  0  0  0
 13  2  1  0  0  0  0
 14 10  1  0  0  0  0
 15  4  2  0  0  0  0
 16 17  1  1  0  0  0
 18 16  1  0  0  0  0
 19 20  2  0  0  0  0
 20 22  1  0  0  0  0
 20 18  1  0  0  0  0
 21 20  2  0  0  0  0
 22 26  1  0  0  0  0
 23 24  2  0  0  0  0
 23 22  1  0  0  0  0
 25 27  1  0  0  0  0
 26 25  1  0  0  0  0
 26 27  1  0  0  0  0
 28 29  1  0  0  0  0
 28 23  1  0  0  0  0
 29 34  1  0  0  0  0
 31 32  2  0  0  0  0
 32 30  1  0  0  0  0
 33 31  1  0  0  0  0
 33 29  2  0  0  0  0
 34 30  2  0  0  0  0
 36 39  1  0  0  0  0
 37 43  1  6  0  0  0
 37 36  1  0  0  0  0
 37 41  1  0  0  0  0
 38 40  1  0  0  0  0
 39 40  1  0  0  0  0
 40 35  1  0  0  0  0
 41 38  1  0  0  0  0
 43 42  1  0  0  0  0
M  END
>  <MODEL>
5

>  <REMARK>
 VINA RESULT:      -8.3      2.794      8.250
  Name = 
  10 active torsions:
  status: ('A' for Active; 'I' for Inactive)
    1  A    between atoms: C_1  and  C_34
    2  A    between atoms: C_1  and  N_35
    3  A    between atoms: C_2  and  C_6
    4  A    between atoms: C_2  and  C_27
    5  A    between atoms: N_4  and  S_12
    6  A    between atoms: N_4  and  C_15
    7  A    between atoms: C_6  and  S_12
    8  A    between atoms: C_11  and  C_14
    9  A    between atoms: C_14  and  C_22
   10  A    between atoms: C_19  and  N_37
                            x       y       z     vdW  Elec       q    Type
                         _______ _______ _______ _____ _____    ______ ____

>  <TORSDO>
F 10

$$$$
=
 OpenBabel11052416363D

 43 48  0  0  1  0  0  0  0  0999 V2000
  185.6260  178.4760  145.5820 C   0  0  0  0  0  0  0  0  0  0  0  0
  182.5300  178.5500  141.5290 C   0  0  0  0  0  0  0  0  0  0  0  0
  184.7750  178.0270  140.5280 C   0  0  0  0  0  3  0  0  0  0  0  0
  183.7130  178.7670  144.0800 C   0  0  0  0  0  0  0  0  0  0  0  0
  186.4210  178.0530  144.6000 C   0  0  0  0  0  3  0  0  0  0  0  0
  186.1470  178.5460  146.9730 C   0  0  0  0  0  1  0  0  0  0  0  0
  184.4870  178.3110  142.9870 C   0  0  0  0  0  0  0  0  0  0  0  0
  184.2340  178.8590  145.3060 C   0  0  0  0  0  3  0  0  0  0  0  0
  185.9550  177.9740  143.1710 C   0  0  0  0  0  3  0  0  0  0  0  0
  184.3010  177.7640  139.3100 C   0  0  0  0  0  0  0  0  0  0  0  0
  183.9000  178.2200  141.7050 C   0  0  0  0  0  0  0  0  0  0  0  0
  181.8050  179.0430  142.6260 C   0  0  0  0  0  3  0  0  0  0  0  0
  181.9320  178.4260  140.3250 C   0  0  1  0  0  3  0  0  0  0  0  0
  182.5890  177.2970  139.0890 S   0  0  0  0  0  0  0  0  0  0  0  0
  182.3870  179.1450  143.8850 C   0  0  0  0  0  3  0  0  0  0  0  0
  185.2130  177.7340  138.1220 C   0  0  1  0  0  3  0  0  0  0  0  0
  184.4710  177.8770  136.9490 O   0  0  0  0  0  1  0  0  0  0  0  0
  186.2780  178.8230  138.1900 C   0  0  0  0  0  2  0  0  0  0  0  0
  188.6850  179.5460  137.2230 O   0  0  0  0  0  0  0  0  0  0  0  0
  187.6520  178.4610  137.1070 S   0  0  0  0  0  0  0  0  0  0  0  0
  187.1420  178.4010  135.6930 O   0  0  0  0  0  0  0  0  0  0  0  0
  188.3660  176.9310  137.5380 N   0  0  0  0  0  0  0  0  0  0  0  0
  189.1320  176.8000  138.7500 C   0  0  0  0  0  0  0  0  0  0  0  0
  189.9870  175.8810  138.8610 O   0  0  0  0  0  0  0  0  0  0  0  0
  187.7580  174.5820  137.2180 C   0  0  0  0  0  2  0  0  0  0  0  0
  188.3380  175.8300  136.5710 C   0  0  0  0  0  3  0  0  0  0  0  0
  186.9020  175.4100  136.2920 C   0  0  0  0  0  2  0  0  0  0  0  0
  188.8880  177.7000  139.9180 C   0  0  0  0  0  2  0  0  0  0  0  0
  189.6370  177.2140  141.1110 C   0  0  0  0  0  0  0  0  0  0  0  0
  189.6840  176.0100  143.2150 C   0  0  0  0  0  3  0  0  0  0  0  0
  191.6770  177.1330  142.4200 C   0  0  0  0  0  3  0  0  0  0  0  0
  191.0280  176.3560  143.3850 C   0  0  0  0  0  3  0  0  0  0  0  0
  190.9810  177.5630  141.2860 C   0  0  0  0  0  3  0  0  0  0  0  0
  188.9880  176.4390  142.0800 C   0  0  0  0  0  3  0  0  0  0  0  0
  180.5830  179.0170  140.0400 C   0  0  0  0  0  2  0  0  0  0  0  0
  180.6720  181.1050  136.9700 C   0  0  0  0  0  2  0  0  0  0  0  0
  179.6180  182.1330  137.3770 C   0  0  1  0  0  3  0  0  0  0  0  0
  179.6360  181.1210  139.6540 C   0  0  0  0  0  2  0  0  0  0  0  0
  180.5420  179.8660  137.8540 C   0  0  0  0  0  2  0  0  0  0  0  0
  180.7290  180.2340  139.2580 N   0  0  0  0  0  0  0  0  0  0  0  0
  179.7170  182.4300  138.8710 C   0  0  0  0  0  2  0  0  0  0  0  0
  179.9630  184.4310  137.5920 C   0  0  0  0  0  1  0  0  0  0  0  0
  179.8150  183.3580  136.6230 N   0  0  0  0  0  2  0  0  0  0  0  0
  1  6  1  0  0  0  0
  2 11  2  0  0  0  0
  2 12  1  0  0  0  0
  3 11  1  0  0  0  0
  4  8  2  0  0  0  0
  5  1  2  0  0  0  0
  7  9  2  0  0  0  0
  7  4  1  0  0  0  0
  8  1  1  0  0  0  0
  9  5  1  0  0  0  0
 10  3  2  0  0  0  0
 11  7  1  0  0  0  0
 12 15  2  0  0  0  0
 13 35  1  1  0  0  0
 13  2  1  0  0  0  0
 14 10  1  0  0  0  0
 14 13  1  0  0  0  0
 15  4  1  0  0  0  0
 16 17  1  6  0  0  0
 16 18  1  0  0  0  0
 16 10  1  0  0  0  0
 20 19  2  0  0  0  0
 20 22  1  0  0  0  0
 20 18  1  0  0  0  0
 21 20  2  0  0  0  0
 22 23  1  0  0  0  0
 23 24  2  0  0  0  0
 23 28  1  0  0  0  0
 26 25  1  0  0  0  0
 26 22  1  0  0  0  0
 27 26  1  0  0  0  0
 27 25  1  0  0  0  0
 28 29  1  0  0  0  0
 29 33  2  0  0  0  0
 29 34  1  0  0  0  0
 30 32  1  0  0  0  0
 31 32  2  0  0  0  0
 33 31  1  0  0  0  0
 34 30  2  0  0  0  0
 36 37  1  0  0  0  0
 36 39  1  0  0  0  0
 37 43  1  6  0  0  0
 37 41  1  0  0  0  0
 39 40  1  0  0  0  0
 40 38  1  0  0  0  0
 40 35  1  0  0  0  0
 41 38  1  0  0  0  0
 43 42  1  0  0  0  0
M  END
>  <MODEL>
6

>  <REMARK>
 VINA RESULT:      -8.3      1.602      2.051
  Name = 
  10 active torsions:
  status: ('A' for Active; 'I' for Inactive)
    1  A    between atoms: C_1  and  C_34
    2  A    between atoms: C_1  and  N_35
    3  A    between atoms: C_2  and  C_6
    4  A    between atoms: C_2  and  C_27
    5  A    between atoms: N_4  and  S_12
    6  A    between atoms: N_4  and  C_15
    7  A    between atoms: C_6  and  S_12
    8  A    between atoms: C_11  and  C_14
    9  A    between atoms: C_14  and  C_22
   10  A    between atoms: C_19  and  N_37
                            x       y       z     vdW  Elec       q    Type
                         _______ _______ _______ _____ _____    ______ ____

>  <TORSDO>
F 10

$$$$
=
 OpenBabel11052416363D

 43 48  0  0  1  0  0  0  0  0999 V2000
  184.5170  179.0400  139.2080 C   0  0  0  0  0  0  0  0  0  0  0  0
  188.8530  177.0410  137.4140 C   0  0  0  0  0  0  0  0  0  0  0  0
  189.3670  177.4440  139.8400 C   0  0  0  0  0  3  0  0  0  0  0  0
  186.2980  178.1820  137.7610 C   0  0  0  0  0  0  0  0  0  0  0  0
  185.2410  178.8730  140.3140 C   0  0  0  0  0  3  0  0  0  0  0  0
  183.1290  179.5630  139.3070 C   0  0  0  0  0  1  0  0  0  0  0  0
  187.1220  177.9580  138.8880 C   0  0  0  0  0  0  0  0  0  0  0  0
  185.0730  178.6970  137.8900 C   0  0  0  0  0  3  0  0  0  0  0  0
  186.6550  178.3610  140.2750 C   0  0  0  0  0  3  0  0  0  0  0  0
  190.5350  176.8020  139.8200 C   0  0  0  0  0  0  0  0  0  0  0  0
  188.4100  177.4050  138.7130 C   0  0  0  0  0  0  0  0  0  0  0  0
  188.0270  177.3200  136.3130 C   0  0  0  0  0  3  0  0  0  0  0  0
  190.0600  176.4660  137.2240 C   0  0  1  0  0  3  0  0  0  0  0  0
  190.8710  175.5770  138.5600 S   0  0  0  0  0  0  0  0  0  0  0  0
  186.7640  177.8770  136.4840 C   0  0  0  0  0  3  0  0  0  0  0  0
  191.5380  176.9990  140.9160 C   0  0  1  0  0  3  0  0  0  0  0  0
  192.5350  177.8790  140.4940 O   0  0  0  0  0  1  0  0  0  0  0  0
  190.8950  177.5280  142.1930 C   0  0  0  0  0  2  0  0  0  0  0  0
  192.0530  175.5270  143.5750 O   0  0  0  0  0  0  0  0  0  0  0  0
  190.7400  176.2440  143.4260 S   0  0  0  0  0  0  0  0  0  0  0  0
  189.6850  175.2730  142.9730 O   0  0  0  0  0  0  0  0  0  0  0  0
  190.2800  176.9380  144.9570 N   0  0  0  0  0  0  0  0  0  0  0  0
  188.9520  177.4560  145.1520 C   0  0  0  0  0  0  0  0  0  0  0  0
  188.7340  178.3190  146.0440 O   0  0  0  0  0  0  0  0  0  0  0  0
  190.7730  176.7540  147.3470 C   0  0  0  0  0  2  0  0  0  0  0  0
  191.3060  177.1560  145.9800 C   0  0  0  0  0  3  0  0  0  0  0  0
  191.7130  175.8320  146.6100 C   0  0  0  0  0  2  0  0  0  0  0  0
  187.7970  176.9410  144.3530 C   0  0  0  0  0  2  0  0  0  0  0  0
  186.5410  177.6350  144.7540 C   0  0  0  0  0  0  0  0  0  0  0  0
  184.9430  178.2640  146.4660 C   0  0  0  0  0  3  0  0  0  0  0  0
  184.5440  178.8750  144.1570 C   0  0  0  0  0  3  0  0  0  0  0  0
  184.1460  178.8830  145.4970 C   0  0  0  0  0  3  0  0  0  0  0  0
  185.7390  178.2510  143.7860 C   0  0  0  0  0  3  0  0  0  0  0  0
  186.1390  177.6410  146.0960 C   0  0  0  0  0  3  0  0  0  0  0  0
  190.6700  176.3240  135.8600 C   0  0  0  0  0  2  0  0  0  0  0  0
  192.9780  173.5560  134.9650 C   0  0  0  0  0  2  0  0  0  0  0  0
  194.2120  174.3980  134.6450 C   0  0  1  0  0  3  0  0  0  0  0  0
  192.9860  176.3760  135.5380 C   0  0  0  0  0  2  0  0  0  0  0  0
  191.7370  174.4450  134.9480 C   0  0  0  0  0  2  0  0  0  0  0  0
  191.8750  175.5130  135.9370 N   0  0  0  0  0  0  0  0  0  0  0  0
  194.2970  175.5940  135.5900 C   0  0  0  0  0  2  0  0  0  0  0  0
  195.6780  173.4660  136.2030 C   0  0  0  0  0  1  0  0  0  0  0  0
  195.4070  173.5840  134.7800 N   0  0  0  0  0  2  0  0  0  0  0  0
  1  6  1  0  0  0  0
  1  5  1  0  0  0  0
  2 11  1  0  0  0  0
  4  8  1  0  0  0  0
  4  7  1  0  0  0  0
  7  9  1  0  0  0  0
  8  1  2  0  0  0  0
  9  5  2  0  0  0  0
 10  3  2  0  0  0  0
 10 16  1  0  0  0  0
 11  7  2  0  0  0  0
 11  3  1  0  0  0  0
 12 15  1  0  0  0  0
 12  2  2  0  0  0  0
 13 35  1  6  0  0  0
 13  2  1  0  0  0  0
 13 14  1  0  0  0  0
 14 10  1  0  0  0  0
 15  4  2  0  0  0  0
 16 17  1  6  0  0  0
 16 18  1  0  0  0  0
 18 20  1  0  0  0  0
 20 19  2  0  0  0  0
 20 22  1  0  0  0  0
 21 20  2  0  0  0  0
 22 23  1  0  0  0  0
 22 26  1  0  0  0  0
 23 24  2  0  0  0  0
 26 27  1  0  0  0  0
 26 25  1  0  0  0  0
 27 25  1  0  0  0  0
 28 29  1  0  0  0  0
 28 23  1  0  0  0  0
 29 34  1  0  0  0  0
 31 32  2  0  0  0  0
 32 30  1  0  0  0  0
 33 31  1  0  0  0  0
 33 29  2  0  0  0  0
 34 30  2  0  0  0  0
 35 40  1  0  0  0  0
 37 43  1  1  0  0  0
 37 36  1  0  0  0  0
 37 41  1  0  0  0  0
 38 41  1  0  0  0  0
 38 40  1  0  0  0  0
 39 36  1  0  0  0  0
 39 40  1  0  0  0  0
 43 42  1  0  0  0  0
M  END
>  <MODEL>
7

>  <REMARK>
 VINA RESULT:      -8.3      3.919      9.141
  Name = 
  10 active torsions:
  status: ('A' for Active; 'I' for Inactive)
    1  A    between atoms: C_1  and  C_34
    2  A    between atoms: C_1  and  N_35
    3  A    between atoms: C_2  and  C_6
    4  A    between atoms: C_2  and  C_27
    5  A    between atoms: N_4  and  S_12
    6  A    between atoms: N_4  and  C_15
    7  A    between atoms: C_6  and  S_12
    8  A    between atoms: C_11  and  C_14
    9  A    between atoms: C_14  and  C_22
   10  A    between atoms: C_19  and  N_37
                            x       y       z     vdW  Elec       q    Type
                         _______ _______ _______ _____ _____    ______ ____

>  <TORSDO>
F 10

$$$$
=
 OpenBabel11052416363D

 43 48  0  0  1  0  0  0  0  0999 V2000
  185.8050  178.1990  145.1880 C   0  0  0  0  0  0  0  0  0  0  0  0
  188.9960  177.4180  141.2860 C   0  0  0  0  0  0  0  0  0  0  0  0
  186.8800  178.1640  140.1570 C   0  0  0  0  0  3  0  0  0  0  0  0
  187.7090  177.5450  143.7920 C   0  0  0  0  0  0  0  0  0  0  0  0
  185.1090  178.6520  144.1470 C   0  0  0  0  0  3  0  0  0  0  0  0
  185.2330  178.2980  146.5570 C   0  0  0  0  0  1  0  0  0  0  0  0
  187.0430  178.0210  142.6390 C   0  0  0  0  0  0  0  0  0  0  0  0
  187.1400  177.6130  144.9980 C   0  0  0  0  0  3  0  0  0  0  0  0
  185.6290  178.5650  142.7370 C   0  0  0  0  0  3  0  0  0  0  0  0
  187.4260  178.2730  138.9450 C   0  0  0  0  0  0  0  0  0  0  0  0
  187.6790  177.9410  141.3810 C   0  0  0  0  0  0  0  0  0  0  0  0
  189.6100  176.9120  142.4440 C   0  0  0  0  0  3  0  0  0  0  0  0
  189.6470  177.3730  140.1040 C   0  0  1  0  0  3  0  0  0  0  0  0
  189.1930  178.4880  138.7680 S   0  0  0  0  0  0  0  0  0  0  0  0
  188.9770  176.9790  143.6810 C   0  0  0  0  0  3  0  0  0  0  0  0
  186.5670  178.3390  137.7200 C   0  0  1  0  0  3  0  0  0  0  0  0
  187.3670  178.4830  136.5860 O   0  0  0  0  0  1  0  0  0  0  0  0
  185.6850  177.1050  137.5710 C   0  0  0  0  0  2  0  0  0  0  0  0
  183.4700  177.8520  136.2330 O   0  0  0  0  0  0  0  0  0  0  0  0
  183.9510  177.5320  137.6210 S   0  0  0  0  0  0  0  0  0  0  0  0
  183.7820  178.7390  138.5020 O   0  0  0  0  0  0  0  0  0  0  0  0
  183.0250  176.2030  138.2640 N   0  0  0  0  0  0  0  0  0  0  0  0
  181.9790  176.4410  139.2240 C   0  0  0  0  0  0  0  0  0  0  0  0
  181.6130  175.5190  140.0010 O   0  0  0  0  0  0  0  0  0  0  0  0
  182.2710  174.0470  137.3870 C   0  0  0  0  0  2  0  0  0  0  0  0
  183.4400  174.8310  137.9620 C   0  0  0  0  0  3  0  0  0  0  0  0
  183.3460  174.5690  136.4660 C   0  0  0  0  0  2  0  0  0  0  0  0
  181.2650  177.7530  139.2780 C   0  0  0  0  0  2  0  0  0  0  0  0
  181.0130  178.1470  140.6930 C   0  0  0  0  0  0  0  0  0  0  0  0
  181.8250  178.9970  142.8140 C   0  0  0  0  0  3  0  0  0  0  0  0
  179.5130  178.3090  142.5920 C   0  0  0  0  0  3  0  0  0  0  0  0
  180.5530  178.8230  143.3710 C   0  0  0  0  0  3  0  0  0  0  0  0
  179.7430  177.9700  141.2550 C   0  0  0  0  0  3  0  0  0  0  0  0
  182.0550  178.6580  141.4760 C   0  0  0  0  0  3  0  0  0  0  0  0
  190.9110  176.5870  139.9180 C   0  0  0  0  0  2  0  0  0  0  0  0
  193.1690  176.3730  136.9770 C   0  0  0  0  0  2  0  0  0  0  0  0
  192.5290  175.1640  136.2990 C   0  0  1  0  0  3  0  0  0  0  0  0
  190.6810  175.3180  137.9660 C   0  0  0  0  0  2  0  0  0  0  0  0
  192.7230  176.4350  138.4370 C   0  0  0  0  0  2  0  0  0  0  0  0
  191.2660  176.5440  138.5080 N   0  0  0  0  0  0  0  0  0  0  0  0
  191.0130  175.1970  136.4800 C   0  0  0  0  0  2  0  0  0  0  0  0
  193.8400  176.2140  134.6810 C   0  0  0  0  0  1  0  0  0  0  0  0
  192.8510  175.1690  134.8840 N   0  0  0  0  0  2  0  0  0  0  0  0
  1  6  1  0  0  0  0
  2 11  2  0  0  0  0
  2 12  1  0  0  0  0
  3 11  1  0  0  0  0
  4  8  2  0  0  0  0
  5  1  2  0  0  0  0
  7  9  2  0  0  0  0
  7  4  1  0  0  0  0
  8  1  1  0  0  0  0
  9  5  1  0  0  0  0
 10  3  2  0  0  0  0
 11  7  1  0  0  0  0
 12 15  2  0  0  0  0
 13 35  1  1  0  0  0
 13  2  1  0  0  0  0
 14 10  1  0  0  0  0
 14 13  1  0  0  0  0
 15  4  1  0  0  0  0
 16 17  1  6  0  0  0
 16 10  1  0  0  0  0
 18 20  1  0  0  0  0
 18 16  1  0  0  0  0
 19 20  2  0  0  0  0
 20 22  1  0  0  0  0
 20 21  2  0  0  0  0
 22 23  1  0  0  0  0
 23 28  1  0  0  0  0
 23 24  2  0  0  0  0
 25 26  1  0  0  0  0
 26 22  1  0  0  0  0
 27 25  1  0  0  0  0
 27 26  1  0  0  0  0
 28 29  1  0  0  0  0
 29 33  2  0  0  0  0
 29 34  1  0  0  0  0
 30 32  1  0  0  0  0
 31 32  2  0  0  0  0
 33 31  1  0  0  0  0
 34 30  2  0  0  0  0
 36 39  1  0  0  0  0
 37 43  1  6  0  0  0
 37 41  1  0  0  0  0
 37 36  1  0  0  0  0
 38 40  1  0  0  0  0
 39 40  1  0  0  0  0
 40 35  1  0  0  0  0
 41 38  1  0  0  0  0
 42 43  1  0  0  0  0
M  END
>  <MODEL>
8

>  <REMARK>
 VINA RESULT:      -8.1      2.441      8.246
  Name = 
  10 active torsions:
  status: ('A' for Active; 'I' for Inactive)
    1  A    between atoms: C_1  and  C_34
    2  A    between atoms: C_1  and  N_35
    3  A    between atoms: C_2  and  C_6
    4  A    between atoms: C_2  and  C_27
    5  A    between atoms: N_4  and  S_12
    6  A    between atoms: N_4  and  C_15
    7  A    between atoms: C_6  and  S_12
    8  A    between atoms: C_11  and  C_14
    9  A    between atoms: C_14  and  C_22
   10  A    between atoms: C_19  and  N_37
                            x       y       z     vdW  Elec       q    Type
                         _______ _______ _______ _____ _____    ______ ____

>  <TORSDO>
F 10

$$$$
=
 OpenBabel11052416363D

 43 48  0  0  1  0  0  0  0  0999 V2000
  183.8740  177.1590  135.5090 C   0  0  0  0  0  0  0  0  0  0  0  0
  188.8240  176.7970  136.6850 C   0  0  0  0  0  0  0  0  0  0  0  0
  187.7840  177.6090  138.8230 C   0  0  0  0  0  3  0  0  0  0  0  0
  186.3090  176.9050  135.4150 C   0  0  0  0  0  0  0  0  0  0  0  0
  183.8810  177.3950  136.8200 C   0  0  0  0  0  3  0  0  0  0  0  0
  182.5830  177.1200  134.7730 C   0  0  0  0  0  1  0  0  0  0  0  0
  186.3980  177.1280  136.8090 C   0  0  0  0  0  0  0  0  0  0  0  0
  185.1320  176.9230  134.7850 C   0  0  0  0  0  3  0  0  0  0  0  0
  185.1570  177.4610  137.6150 C   0  0  0  0  0  3  0  0  0  0  0  0
  188.8900  177.4630  139.5540 C   0  0  0  0  0  0  0  0  0  0  0  0
  187.6600  177.0930  137.4430 C   0  0  0  0  0  0  0  0  0  0  0  0
  188.7050  176.6260  135.2960 C   0  0  0  0  0  3  0  0  0  0  0  0
  190.0370  176.7100  137.2730 C   0  0  1  0  0  3  0  0  0  0  0  0
  190.1770  176.3380  139.0270 S   0  0  0  0  0  0  0  0  0  0  0  0
  187.4630  176.6740  134.6700 C   0  0  0  0  0  3  0  0  0  0  0  0
  189.0250  178.1380  140.8840 C   0  0  1  0  0  3  0  0  0  0  0  0
  188.2120  179.2700  140.9270 O   0  0  0  0  0  1  0  0  0  0  0  0
  188.6690  177.2070  142.0380 C   0  0  0  0  0  2  0  0  0  0  0  0
  191.3370  177.3730  142.3610 O   0  0  0  0  0  0  0  0  0  0  0  0
  190.1230  176.7100  142.9490 S   0  0  0  0  0  0  0  0  0  0  0  0
  190.2650  175.2170  142.8430 O   0  0  0  0  0  0  0  0  0  0  0  0
  189.9650  177.1670  144.6230 N   0  0  0  0  0  0  0  0  0  0  0  0
  188.6650  177.4050  145.1940 C   0  0  0  0  0  0  0  0  0  0  0  0
  188.5470  178.1300  146.2180 O   0  0  0  0  0  0  0  0  0  0  0  0
  191.1010  176.8290  146.7640 C   0  0  0  0  0  2  0  0  0  0  0  0
  191.1700  177.4860  145.3940 C   0  0  0  0  0  3  0  0  0  0  0  0
  191.9610  176.2190  145.6840 C   0  0  0  0  0  2  0  0  0  0  0  0
  187.4440  176.7530  144.6300 C   0  0  0  0  0  2  0  0  0  0  0  0
  186.2600  177.6430  144.7950 C   0  0  0  0  0  0  0  0  0  0  0  0
  184.5520  178.6290  146.2060 C   0  0  0  0  0  3  0  0  0  0  0  0
  184.5680  179.0860  143.8270 C   0  0  0  0  0  3  0  0  0  0  0  0
  183.9950  179.2630  145.0900 C   0  0  0  0  0  3  0  0  0  0  0  0
  185.6970  178.2750  143.6800 C   0  0  0  0  0  3  0  0  0  0  0  0
  185.6830  177.8190  146.0580 C   0  0  0  0  0  3  0  0  0  0  0  0
  191.3090  176.6740  136.4790 C   0  0  0  0  0  2  0  0  0  0  0  0
  192.9210  173.3330  136.3190 C   0  0  0  0  0  2  0  0  0  0  0  0
  194.3730  173.7860  136.4620 C   0  0  1  0  0  3  0  0  0  0  0  0
  193.5190  176.0740  136.9570 C   0  0  0  0  0  2  0  0  0  0  0  0
  192.0540  174.5230  135.9150 C   0  0  0  0  0  2  0  0  0  0  0  0
  192.1450  175.5730  136.9290 N   0  0  0  0  0  0  0  0  0  0  0  0
  194.4660  174.9710  137.4210 C   0  0  0  0  0  2  0  0  0  0  0  0
  195.5060  173.0010  138.3440 C   0  0  0  0  0  1  0  0  0  0  0  0
  195.1800  172.6880  136.9640 N   0  0  0  0  0  2  0  0  0  0  0  0
  1  5  1  0  0  0  0
  2 13  1  0  0  0  0
  2 11  1  0  0  0  0
  3 10  2  0  0  0  0
  4  7  1  0  0  0  0
  5  9  2  0  0  0  0
  6  1  1  0  0  0  0
  7 11  2  0  0  0  0
  7  9  1  0  0  0  0
  8  4  1  0  0  0  0
  8  1  2  0  0  0  0
 10 16  1  0  0  0  0
 11  3  1  0  0  0  0
 12  2  2  0  0  0  0
 13 35  1  6  0  0  0
 13 14  1  0  0  0  0
 14 10  1  0  0  0  0
 15 12  1  0  0  0  0
 15  4  2  0  0  0  0
 16 17  1  6  0  0  0
 16 18  1  0  0  0  0
 18 20  1  0  0  0  0
 19 20  2  0  0  0  0
 20 22  1  0  0  0  0
 21 20  2  0  0  0  0
 22 23  1  0  0  0  0
 22 26  1  0  0  0  0
 23 24  2  0  0  0  0
 26 27  1  0  0  0  0
 26 25  1  0  0  0  0
 27 25  1  0  0  0  0
 28 29  1  0  0  0  0
 28 23  1  0  0  0  0
 29 34  1  0  0  0  0
 31 32  2  0  0  0  0
 32 30  1  0  0  0  0
 33 31  1  0  0  0  0
 33 29  2  0  0  0  0
 34 30  2  0  0  0  0
 35 40  1  0  0  0  0
 36 37  1  0  0  0  0
 37 43  1  1  0  0  0
 37 41  1  0  0  0  0
 38 41  1  0  0  0  0
 39 36  1  0  0  0  0
 39 40  1  0  0  0  0
 40 38  1  0  0  0  0
 43 42  1  0  0  0  0
M  END
>  <MODEL>
9

>  <REMARK>
 VINA RESULT:      -8.1      3.970      9.550
  Name = 
  10 active torsions:
  status: ('A' for Active; 'I' for Inactive)
    1  A    between atoms: C_1  and  C_34
    2  A    between atoms: C_1  and  N_35
    3  A    between atoms: C_2  and  C_6
    4  A    between atoms: C_2  and  C_27
    5  A    between atoms: N_4  and  S_12
    6  A    between atoms: N_4  and  C_15
    7  A    between atoms: C_6  and  S_12
    8  A    between atoms: C_11  and  C_14
    9  A    between atoms: C_14  and  C_22
   10  A    between atoms: C_19  and  N_37
                            x       y       z     vdW  Elec       q    Type
                         _______ _______ _______ _____ _____    ______ ____

>  <TORSDO>
F 10

$$$$
