=
 OpenBabel11052413003D

 31 34  0  0  1  0  0  0  0  0999 V2000
  186.5230  177.8580  143.0760 C   0  0  1  0  0  3  0  0  0  0  0  0
  186.2860  178.4260  144.4080 N   0  0  0  0  0  0  0  0  0  0  0  0
  187.1010  178.0580  145.5370 C   0  0  0  0  0  0  0  0  0  0  0  0
  189.0760  176.7340  146.3950 C   0  0  0  0  0  3  0  0  0  0  0  0
  188.2050  177.3110  145.3540 C   0  0  0  0  0  3  0  0  0  0  0  0
  185.0000  178.5460  146.9200 C   0  0  0  0  0  2  0  0  0  0  0  0
  189.2630  177.2420  147.6120 C   0  0  0  0  0  3  0  0  0  0  0  0
  185.2140  179.2420  144.6260 O   0  0  0  0  0  0  0  0  0  0  0  0
  188.6760  178.5400  148.0500 C   0  0  0  0  0  2  0  0  0  0  0  0
  184.3780  178.5440  145.5150 C   0  0  0  0  0  2  0  0  0  0  0  0
  186.4900  178.3320  146.8660 C   0  0  0  0  0  0  0  0  0  0  0  0
  187.1860  178.5250  147.9880 C   0  0  0  0  0  3  0  0  0  0  0  0
  183.6840  178.5250  141.0260 N   0  0  0  0  0  0  0  0  0  0  0  0
  184.5850  179.3600  140.4880 C   0  0  0  0  0  3  0  0  0  0  0  0
  182.3050  178.3680  140.6050 C   0  0  0  0  0  1  0  0  0  0  0  0
  184.2370  177.8660  142.0250 N   0  0  0  0  0  0  0  0  0  0  0  0
  185.5030  178.3200  142.0790 C   0  0  0  0  0  0  0  0  0  0  0  0
  185.7620  179.2530  141.1390 N   0  0  0  0  0  0  0  0  0  0  0  0
  188.5980  177.1880  142.0770 C   0  0  0  0  0  3  0  0  0  0  0  0
  187.8770  178.1000  142.6270 N   0  0  0  0  0  0  0  0  0  0  0  0
  190.0040  177.4720  141.6440 C   0  0  1  0  0  3  0  0  0  0  0  0
  190.5780  175.7670  142.9320 C   0  0  0  0  0  1  0  0  0  0  0  0
  190.8960  177.0960  142.6500 O   0  0  0  0  0  0  0  0  0  0  0  0
  190.3430  176.7300  140.3540 C   0  0  0  0  0  2  0  0  0  0  0  0
  188.1470  177.4370  138.0850 C   0  0  2  0  0  3  0  0  0  0  0  0
  189.0500  177.0280  136.9340 C   0  0  2  0  0  3  0  0  0  0  0  0
  186.8850  178.1440  137.6230 C   0  0  0  0  0  1  0  0  0  0  0  0
  188.9640  178.3200  138.9940 C   0  0  0  0  0  2  0  0  0  0  0  0
  190.6900  176.7010  137.6460 S   0  0  0  0  0  0  0  0  0  0  0  0
  190.3270  177.6660  139.1520 C   0  0  2  0  0  3  0  0  0  0  0  0
  189.1640  178.0570  135.9950 O   0  0  0  0  0  1  0  0  0  0  0  0
  1 20  1  6  0  0  0
  1  2  1  0  0  0  0
  2  8  1  0  0  0  0
  2  3  1  0  0  0  0
  3 11  1  0  0  0  0
  4  7  2  0  0  0  0
  5  3  2  0  0  0  0
  5  4  1  0  0  0  0
  7  9  1  0  0  0  0
  8 10  1  0  0  0  0
 10  6  1  0  0  0  0
 11  6  1  0  0  0  0
 11 12  2  0  0  0  0
 12  9  1  0  0  0  0
 13 16  1  0  0  0  0
 14 13  1  0  0  0  0
 14 18  2  0  0  0  0
 15 13  1  0  0  0  0
 16 17  2  0  0  0  0
 17  1  1  0  0  0  0
 18 17  1  0  0  0  0
 19 20  2  0  0  0  0
 21 24  1  6  0  0  0
 21 19  1  0  0  0  0
 21 23  1  0  0  0  0
 23 22  1  0  0  0  0
 25 27  1  6  0  0  0
 25 28  1  0  0  0  0
 26 31  1  6  0  0  0
 26 29  1  0  0  0  0
 26 25  1  0  0  0  0
 28 30  1  0  0  0  0
 29 30  1  0  0  0  0
 30 24  1  1  0  0  0
M  END
>  <MODEL>
1

>  <REMARK>
 VINA RESULT:      -8.6      0.000      0.000
  Name = 
  7 active torsions:
  status: ('A' for Active; 'I' for Inactive)
    1  A    between atoms: C_3  and  C_9
    2  A    between atoms: C_3  and  C_22
    3  A    between atoms: N_4  and  C_12
    4  A    between atoms: C_9  and  C_15
    5  A    between atoms: C_9  and  O_23
    6  A    between atoms: C_12  and  N_20
    7  A    between atoms: C_12  and  C_27
                            x       y       z     vdW  Elec       q    Type
                         _______ _______ _______ _____ _____    ______ ____

>  <TORSDO>
F 7

$$$$
=
 OpenBabel11052413003D

 31 34  0  0  1  0  0  0  0  0999 V2000
  187.5220  177.8320  140.3740 C   0  0  1  0  0  3  0  0  0  0  0  0
  186.3740  178.5880  140.8870 N   0  0  0  0  0  0  0  0  0  0  0  0
  185.9390  178.4580  142.2530 C   0  0  0  0  0  0  0  0  0  0  0  0
  186.3360  177.4190  144.5230 C   0  0  0  0  0  3  0  0  0  0  0  0
  186.6850  177.7640  143.1320 C   0  0  0  0  0  3  0  0  0  0  0  0
  183.6180  179.0220  141.3280 C   0  0  0  0  0  2  0  0  0  0  0  0
  185.5300  178.1250  145.3140 C   0  0  0  0  0  3  0  0  0  0  0  0
  185.6260  179.3580  140.0440 O   0  0  0  0  0  0  0  0  0  0  0  0
  184.9420  179.4340  144.9150 C   0  0  0  0  0  2  0  0  0  0  0  0
  184.3550  178.7570  140.0050 C   0  0  0  0  0  2  0  0  0  0  0  0
  184.5420  178.9000  142.5110 C   0  0  0  0  0  0  0  0  0  0  0  0
  184.0900  179.3140  143.6960 C   0  0  0  0  0  3  0  0  0  0  0  0
  187.7330  178.2760  136.8430 N   0  0  0  0  0  0  0  0  0  0  0  0
  188.7530  179.0440  137.2550 C   0  0  0  0  0  3  0  0  0  0  0  0
  187.3130  178.0760  135.4690 C   0  0  0  0  0  1  0  0  0  0  0  0
  187.1440  177.7300  137.8890 N   0  0  0  0  0  0  0  0  0  0  0  0
  187.8350  178.1840  138.9500 C   0  0  0  0  0  0  0  0  0  0  0  0
  188.8460  179.0070  138.6000 N   0  0  0  0  0  0  0  0  0  0  0  0
  189.6000  177.0730  141.2990 C   0  0  0  0  0  3  0  0  0  0  0  0
  188.6760  177.9650  141.2380 N   0  0  0  0  0  0  0  0  0  0  0  0
  190.7700  177.2370  142.2220 C   0  0  1  0  0  3  0  0  0  0  0  0
  192.1660  177.4430  140.5170 C   0  0  0  0  0  1  0  0  0  0  0  0
  191.7040  178.1060  141.6550 O   0  0  0  0  0  0  0  0  0  0  0  0
  190.3270  177.7750  143.5810 C   0  0  0  0  0  2  0  0  0  0  0  0
  190.0740  177.6890  146.8050 C   0  0  2  0  0  3  0  0  0  0  0  0
  191.2950  176.8030  146.9830 C   0  0  2  0  0  3  0  0  0  0  0  0
  189.2780  177.8610  148.0870 C   0  0  0  0  0  1  0  0  0  0  0  0
  189.2320  177.0670  145.7200 C   0  0  0  0  0  2  0  0  0  0  0  0
  191.8080  176.2790  145.3200 S   0  0  0  0  0  0  0  0  0  0  0  0
  190.1730  176.6540  144.6010 C   0  0  2  0  0  3  0  0  0  0  0  0
  190.9860  175.6670  147.7370 O   0  0  0  0  0  1  0  0  0  0  0  0
  1  2  1  0  0  0  0
  1 20  1  1  0  0  0
  2  3  1  0  0  0  0
  3 11  1  0  0  0  0
  3  5  2  0  0  0  0
  4  7  2  0  0  0  0
  5  4  1  0  0  0  0
  6 11  1  0  0  0  0
  8  2  1  0  0  0  0
  9  7  1  0  0  0  0
 10  8  1  0  0  0  0
 10  6  1  0  0  0  0
 11 12  2  0  0  0  0
 12  9  1  0  0  0  0
 13 14  1  0  0  0  0
 13 16  1  0  0  0  0
 14 18  2  0  0  0  0
 15 13  1  0  0  0  0
 16 17  2  0  0  0  0
 17  1  1  0  0  0  0
 18 17  1  0  0  0  0
 20 19  2  0  0  0  0
 21 19  1  6  0  0  0
 21 24  1  0  0  0  0
 22 23  1  0  0  0  0
 23 21  1  0  0  0  0
 25 26  1  0  0  0  0
 25 27  1  1  0  0  0
 26 31  1  1  0  0  0
 28 25  1  0  0  0  0
 29 26  1  0  0  0  0
 30 24  1  6  0  0  0
 30 29  1  0  0  0  0
 30 28  1  0  0  0  0
M  END
>  <MODEL>
2

>  <REMARK>
 VINA RESULT:      -8.5      2.647      5.736
  Name = 
  7 active torsions:
  status: ('A' for Active; 'I' for Inactive)
    1  A    between atoms: C_3  and  C_9
    2  A    between atoms: C_3  and  C_22
    3  A    between atoms: N_4  and  C_12
    4  A    between atoms: C_9  and  C_15
    5  A    between atoms: C_9  and  O_23
    6  A    between atoms: C_12  and  N_20
    7  A    between atoms: C_12  and  C_27
                            x       y       z     vdW  Elec       q    Type
                         _______ _______ _______ _____ _____    ______ ____

>  <TORSDO>
F 7

$$$$
=
 OpenBabel11052413003D

 31 34  0  0  1  0  0  0  0  0999 V2000
  185.6220  178.3000  141.8150 C   0  0  1  0  0  3  0  0  0  0  0  0
  185.2530  178.8340  143.1310 N   0  0  0  0  0  0  0  0  0  0  0  0
  185.8850  178.3630  144.3360 C   0  0  0  0  0  0  0  0  0  0  0  0
  187.6320  176.8610  145.3760 C   0  0  0  0  0  3  0  0  0  0  0  0
  186.9480  177.5400  144.2600 C   0  0  0  0  0  3  0  0  0  0  0  0
  183.6610  178.9570  145.4600 C   0  0  0  0  0  2  0  0  0  0  0  0
  187.6940  177.3070  146.6290 C   0  0  0  0  0  3  0  0  0  0  0  0
  184.2230  179.7210  143.2480 O   0  0  0  0  0  0  0  0  0  0  0  0
  187.1470  178.6280  147.0500 C   0  0  0  0  0  2  0  0  0  0  0  0
  183.2300  179.0560  143.9880 C   0  0  0  0  0  2  0  0  0  0  0  0
  185.1260  178.6320  145.5870 C   0  0  0  0  0  0  0  0  0  0  0  0
  185.6810  178.7290  146.7970 C   0  0  0  0  0  3  0  0  0  0  0  0
  182.9270  178.7330  139.5220 N   0  0  0  0  0  0  0  0  0  0  0  0
  183.7300  179.7450  139.1610 C   0  0  0  0  0  3  0  0  0  0  0  0
  181.6390  178.4120  138.9360 C   0  0  0  0  0  1  0  0  0  0  0  0
  183.4790  178.0680  140.5180 N   0  0  0  0  0  0  0  0  0  0  0  0
  184.6430  178.7010  140.7520 C   0  0  0  0  0  0  0  0  0  0  0  0
  184.8390  179.7530  139.9290 N   0  0  0  0  0  0  0  0  0  0  0  0
  187.7310  177.8710  140.7560 C   0  0  0  0  0  3  0  0  0  0  0  0
  186.9840  178.6430  141.4630 N   0  0  0  0  0  0  0  0  0  0  0  0
  189.1440  178.2530  140.4310 C   0  0  1  0  0  3  0  0  0  0  0  0
  190.3070  177.5110  142.1610 C   0  0  0  0  0  1  0  0  0  0  0  0
  190.0130  177.2340  140.8250 O   0  0  0  0  0  0  0  0  0  0  0  0
  189.3110  178.5200  138.9370 C   0  0  0  0  0  2  0  0  0  0  0  0
  189.6190  177.0900  136.0510 C   0  0  2  0  0  3  0  0  0  0  0  0
  188.3820  177.7550  135.4710 C   0  0  2  0  0  3  0  0  0  0  0  0
  190.1760  175.9980  135.1540 C   0  0  0  0  0  1  0  0  0  0  0  0
  189.2330  176.5410  137.4010 C   0  0  0  0  0  2  0  0  0  0  0  0
  187.5590  178.6160  136.8440 S   0  0  0  0  0  0  0  0  0  0  0  0
  188.4140  177.6110  138.1050 C   0  0  2  0  0  3  0  0  0  0  0  0
  187.5010  176.8060  134.9440 O   0  0  0  0  0  1  0  0  0  0  0  0
  1 20  1  6  0  0  0
  1  2  1  0  0  0  0
  2  8  1  0  0  0  0
  2  3  1  0  0  0  0
  3 11  1  0  0  0  0
  4  7  2  0  0  0  0
  5  3  2  0  0  0  0
  5  4  1  0  0  0  0
  6 11  1  0  0  0  0
  7  9  1  0  0  0  0
  8 10  1  0  0  0  0
 10  6  1  0  0  0  0
 11 12  2  0  0  0  0
 12  9  1  0  0  0  0
 13 16  1  0  0  0  0
 14 13  1  0  0  0  0
 14 18  2  0  0  0  0
 15 13  1  0  0  0  0
 16 17  2  0  0  0  0
 17  1  1  0  0  0  0
 18 17  1  0  0  0  0
 19 20  2  0  0  0  0
 21 24  1  6  0  0  0
 21 19  1  0  0  0  0
 21 23  1  0  0  0  0
 23 22  1  0  0  0  0
 25 27  1  6  0  0  0
 25 28  1  0  0  0  0
 26 31  1  1  0  0  0
 26 25  1  0  0  0  0
 26 29  1  0  0  0  0
 28 30  1  0  0  0  0
 29 30  1  0  0  0  0
 30 24  1  6  0  0  0
M  END
>  <MODEL>
3

>  <REMARK>
 VINA RESULT:      -8.1      1.535      2.125
  Name = 
  7 active torsions:
  status: ('A' for Active; 'I' for Inactive)
    1  A    between atoms: C_3  and  C_9
    2  A    between atoms: C_3  and  C_22
    3  A    between atoms: N_4  and  C_12
    4  A    between atoms: C_9  and  C_15
    5  A    between atoms: C_9  and  O_23
    6  A    between atoms: C_12  and  N_20
    7  A    between atoms: C_12  and  C_27
                            x       y       z     vdW  Elec       q    Type
                         _______ _______ _______ _____ _____    ______ ____

>  <TORSDO>
F 7

$$$$
=
 OpenBabel11052413003D

 31 34  0  0  1  0  0  0  0  0999 V2000
  185.7660  178.1420  142.1870 C   0  0  1  0  0  3  0  0  0  0  0  0
  185.3910  178.7310  143.4780 N   0  0  0  0  0  0  0  0  0  0  0  0
  185.9930  178.2880  144.7090 C   0  0  0  0  0  0  0  0  0  0  0  0
  187.6880  176.7830  145.8290 C   0  0  0  0  0  3  0  0  0  0  0  0
  187.0370  177.4390  144.6790 C   0  0  0  0  0  3  0  0  0  0  0  0
  183.7670  178.9730  145.7760 C   0  0  0  0  0  2  0  0  0  0  0  0
  187.7410  177.2720  147.0660 C   0  0  0  0  0  3  0  0  0  0  0  0
  184.3810  179.6450  143.5470 O   0  0  0  0  0  0  0  0  0  0  0  0
  187.2200  178.6190  147.4310 C   0  0  0  0  0  2  0  0  0  0  0  0
  183.3600  179.0300  144.2950 C   0  0  0  0  0  2  0  0  0  0  0  0
  185.2220  178.6190  145.9380 C   0  0  0  0  0  0  0  0  0  0  0  0
  185.7600  178.7460  147.1520 C   0  0  0  0  0  3  0  0  0  0  0  0
  183.1580  178.7010  139.8230 N   0  0  0  0  0  0  0  0  0  0  0  0
  184.0630  179.6050  139.4180 C   0  0  0  0  0  3  0  0  0  0  0  0
  181.8520  178.4740  139.2330 C   0  0  0  0  0  1  0  0  0  0  0  0
  183.6280  178.0460  140.8660 N   0  0  0  0  0  0  0  0  0  0  0  0
  184.8460  178.5730  141.0840 C   0  0  0  0  0  0  0  0  0  0  0  0
  185.1570  179.5490  140.2050 N   0  0  0  0  0  0  0  0  0  0  0  0
  187.9710  177.4580  141.5370 C   0  0  0  0  0  3  0  0  0  0  0  0
  187.1560  178.3950  141.8710 N   0  0  0  0  0  0  0  0  0  0  0  0
  189.4090  177.7570  141.2370 C   0  0  1  0  0  3  0  0  0  0  0  0
  190.0450  176.3240  142.7990 C   0  0  0  0  0  1  0  0  0  0  0  0
  190.1680  177.6570  142.4050 O   0  0  0  0  0  0  0  0  0  0  0  0
  189.9610  176.8000  140.1830 C   0  0  0  0  0  2  0  0  0  0  0  0
  191.7450  175.8410  137.6590 C   0  0  2  0  0  3  0  0  0  0  0  0
  193.0600  176.2590  138.2950 C   0  0  2  0  0  3  0  0  0  0  0  0
  191.8920  175.4580  136.1970 C   0  0  0  0  0  1  0  0  0  0  0  0
  190.7880  176.9960  137.8250 C   0  0  0  0  0  2  0  0  0  0  0  0
  192.6420  177.1660  139.8140 S   0  0  0  0  0  0  0  0  0  0  0  0
  190.9390  177.5040  139.2500 C   0  0  2  0  0  3  0  0  0  0  0  0
  193.7800  177.1070  137.4490 O   0  0  0  0  0  1  0  0  0  0  0  0
  1 20  1  6  0  0  0
  1  2  1  0  0  0  0
  2  8  1  0  0  0  0
  2  3  1  0  0  0  0
  3 11  1  0  0  0  0
  4  7  2  0  0  0  0
  5  3  2  0  0  0  0
  5  4  1  0  0  0  0
  6 11  1  0  0  0  0
  7  9  1  0  0  0  0
  8 10  1  0  0  0  0
 10  6  1  0  0  0  0
 11 12  2  0  0  0  0
 12  9  1  0  0  0  0
 13 16  1  0  0  0  0
 14 13  1  0  0  0  0
 14 18  2  0  0  0  0
 15 13  1  0  0  0  0
 16 17  2  0  0  0  0
 17  1  1  0  0  0  0
 18 17  1  0  0  0  0
 19 20  2  0  0  0  0
 21 24  1  6  0  0  0
 21 19  1  0  0  0  0
 21 23  1  0  0  0  0
 23 22  1  0  0  0  0
 25 27  1  6  0  0  0
 25 28  1  0  0  0  0
 25 26  1  0  0  0  0
 26 31  1  6  0  0  0
 26 29  1  0  0  0  0
 28 30  1  0  0  0  0
 30 29  1  0  0  0  0
 30 24  1  1  0  0  0
M  END
>  <MODEL>
4

>  <REMARK>
 VINA RESULT:      -7.9      1.727      2.200
  Name = 
  7 active torsions:
  status: ('A' for Active; 'I' for Inactive)
    1  A    between atoms: C_3  and  C_9
    2  A    between atoms: C_3  and  C_22
    3  A    between atoms: N_4  and  C_12
    4  A    between atoms: C_9  and  C_15
    5  A    between atoms: C_9  and  O_23
    6  A    between atoms: C_12  and  N_20
    7  A    between atoms: C_12  and  C_27
                            x       y       z     vdW  Elec       q    Type
                         _______ _______ _______ _____ _____    ______ ____

>  <TORSDO>
F 7

$$$$
=
 OpenBabel11052413003D

 31 34  0  0  1  0  0  0  0  0999 V2000
  188.3220  178.2860  142.1880 C   0  0  1  0  0  3  0  0  0  0  0  0
  189.3150  177.7410  143.1210 N   0  0  0  0  0  0  0  0  0  0  0  0
  189.0690  177.7030  144.5400 C   0  0  0  0  0  0  0  0  0  0  0  0
  187.4570  178.1530  146.4340 C   0  0  0  0  0  3  0  0  0  0  0  0
  187.8510  178.0120  145.0200 C   0  0  0  0  0  3  0  0  0  0  0  0
  191.6140  177.9030  144.7530 C   0  0  0  0  0  2  0  0  0  0  0  0
  188.0250  177.5200  147.4590 C   0  0  0  0  0  3  0  0  0  0  0  0
  190.5420  177.3540  142.6690 O   0  0  0  0  0  0  0  0  0  0  0  0
  189.0920  176.4930  147.2900 C   0  0  0  0  0  2  0  0  0  0  0  0
  191.4630  178.2370  143.2600 C   0  0  0  0  0  2  0  0  0  0  0  0
  190.2880  177.5670  145.3830 C   0  0  0  0  0  0  0  0  0  0  0  0
  190.2980  177.0500  146.6130 C   0  0  0  0  0  3  0  0  0  0  0  0
  189.0040  178.2710  138.6890 N   0  0  0  0  0  0  0  0  0  0  0  0
  189.3420  177.0150  139.0170 C   0  0  0  0  0  3  0  0  0  0  0  0
  189.0900  178.8630  137.3680 C   0  0  0  0  0  1  0  0  0  0  0  0
  188.5910  178.9100  139.7660 N   0  0  0  0  0  0  0  0  0  0  0  0
  188.6820  178.0070  140.7590 C   0  0  0  0  0  0  0  0  0  0  0  0
  189.1470  176.8130  140.3360 N   0  0  0  0  0  0  0  0  0  0  0  0
  185.9330  178.5000  142.1800 C   0  0  0  0  0  3  0  0  0  0  0  0
  186.9840  177.8380  142.5130 N   0  0  0  0  0  0  0  0  0  0  0  0
  184.5650  178.0140  142.5530 C   0  0  1  0  0  3  0  0  0  0  0  0
  183.0740  178.9850  143.8700 C   0  0  0  0  0  1  0  0  0  0  0  0
  184.3010  178.3200  143.8900 O   0  0  0  0  0  0  0  0  0  0  0  0
  183.4970  178.6430  141.6620 C   0  0  0  0  0  2  0  0  0  0  0  0
  181.9430  179.3700  138.9190 C   0  0  2  0  0  3  0  0  0  0  0  0
  181.7680  177.9170  138.5090 C   0  0  2  0  0  3  0  0  0  0  0  0
  181.5640  180.3440  137.8160 C   0  0  0  0  0  1  0  0  0  0  0  0
  183.3850  179.5430  139.3260 C   0  0  0  0  0  2  0  0  0  0  0  0
  182.7330  176.9220  139.6840 S   0  0  0  0  0  0  0  0  0  0  0  0
  183.7540  178.3480  140.1900 C   0  0  2  0  0  3  0  0  0  0  0  0
  182.2620  177.6960  137.2200 O   0  0  0  0  0  1  0  0  0  0  0  0
  1 20  1  1  0  0  0
  1  2  1  0  0  0  0
  2  3  1  0  0  0  0
  3  5  2  0  0  0  0
  3 11  1  0  0  0  0
  4  7  2  0  0  0  0
  5  4  1  0  0  0  0
  6 11  1  0  0  0  0
  8  2  1  0  0  0  0
  8 10  1  0  0  0  0
  9  7  1  0  0  0  0
 10  6  1  0  0  0  0
 11 12  2  0  0  0  0
 12  9  1  0  0  0  0
 13 14  1  0  0  0  0
 13 16  1  0  0  0  0
 14 18  2  0  0  0  0
 15 13  1  0  0  0  0
 16 17  2  0  0  0  0
 17  1  1  0  0  0  0
 18 17  1  0  0  0  0
 19 20  2  0  0  0  0
 19 21  1  0  0  0  0
 21 24  1  6  0  0  0
 21 23  1  0  0  0  0
 22 23  1  0  0  0  0
 25 27  1  6  0  0  0
 25 28  1  0  0  0  0
 26 31  1  6  0  0  0
 26 25  1  0  0  0  0
 26 29  1  0  0  0  0
 28 30  1  0  0  0  0
 29 30  1  0  0  0  0
 30 24  1  1  0  0  0
M  END
>  <MODEL>
5

>  <REMARK>
 VINA RESULT:      -7.9      2.690      5.427
  Name = 
  7 active torsions:
  status: ('A' for Active; 'I' for Inactive)
    1  A    between atoms: C_3  and  C_9
    2  A    between atoms: C_3  and  C_22
    3  A    between atoms: N_4  and  C_12
    4  A    between atoms: C_9  and  C_15
    5  A    between atoms: C_9  and  O_23
    6  A    between atoms: C_12  and  N_20
    7  A    between atoms: C_12  and  C_27
                            x       y       z     vdW  Elec       q    Type
                         _______ _______ _______ _____ _____    ______ ____

>  <TORSDO>
F 7

$$$$
=
 OpenBabel11052413003D

 31 34  0  0  1  0  0  0  0  0999 V2000
  184.8550  178.2750  141.2690 C   0  0  1  0  0  3  0  0  0  0  0  0
  184.3750  178.8540  142.5300 N   0  0  0  0  0  0  0  0  0  0  0  0
  184.9500  178.4780  143.7950 C   0  0  0  0  0  0  0  0  0  0  0  0
  186.6990  177.1260  145.0210 C   0  0  0  0  0  3  0  0  0  0  0  0
  186.0550  177.7110  143.8300 C   0  0  0  0  0  3  0  0  0  0  0  0
  182.6300  179.0070  144.7450 C   0  0  0  0  0  2  0  0  0  0  0  0
  186.6560  177.6370  146.2500 C   0  0  0  0  0  3  0  0  0  0  0  0
  183.2960  179.6890  142.5350 O   0  0  0  0  0  0  0  0  0  0  0  0
  186.0180  178.9460  146.5640 C   0  0  0  0  0  2  0  0  0  0  0  0
  182.2910  179.0090  143.2460 C   0  0  0  0  0  2  0  0  0  0  0  0
  184.0990  178.7680  144.9810 C   0  0  0  0  0  0  0  0  0  0  0  0
  184.5680  178.9560  146.2160 C   0  0  0  0  0  3  0  0  0  0  0  0
  182.6130  178.8780  138.5650 N   0  0  0  0  0  0  0  0  0  0  0  0
  183.4010  179.9620  138.4850 C   0  0  0  0  0  3  0  0  0  0  0  0
  181.4810  178.5800  137.7080 C   0  0  0  0  0  1  0  0  0  0  0  0
  183.0120  178.1170  139.5640 N   0  0  0  0  0  0  0  0  0  0  0  0
  184.0680  178.7650  140.0910 C   0  0  0  0  0  0  0  0  0  0  0  0
  184.3440  179.9190  139.4490 N   0  0  0  0  0  0  0  0  0  0  0  0
  186.9580  177.8750  140.1870 C   0  0  0  0  0  3  0  0  0  0  0  0
  186.2780  178.4760  141.0990 N   0  0  0  0  0  0  0  0  0  0  0  0
  188.4350  178.0940  140.0560 C   0  0  1  0  0  3  0  0  0  0  0  0
  189.1320  178.6380  138.0270 C   0  0  0  0  0  1  0  0  0  0  0  0
  188.6800  179.1900  139.2270 O   0  0  0  0  0  0  0  0  0  0  0  0
  189.0790  178.3280  141.4200 C   0  0  0  0  0  2  0  0  0  0  0  0
  190.3690  177.5090  144.2720 C   0  0  2  0  0  3  0  0  0  0  0  0
  191.7010  177.0930  143.6700 C   0  0  2  0  0  3  0  0  0  0  0  0
  190.2380  177.1270  145.7360 C   0  0  0  0  0  1  0  0  0  0  0  0
  189.2880  176.8630  143.4420 C   0  0  0  0  0  2  0  0  0  0  0  0
  191.4930  177.1300  141.8650 S   0  0  0  0  0  0  0  0  0  0  0  0
  189.6740  177.0430  141.9830 C   0  0  2  0  0  3  0  0  0  0  0  0
  192.0420  175.7940  144.0560 O   0  0  0  0  0  1  0  0  0  0  0  0
  1 20  1  6  0  0  0
  1  2  1  0  0  0  0
  2  8  1  0  0  0  0
  2  3  1  0  0  0  0
  3  5  2  0  0  0  0
  3 11  1  0  0  0  0
  4  7  2  0  0  0  0
  5  4  1  0  0  0  0
  6 11  1  0  0  0  0
  7  9  1  0  0  0  0
  8 10  1  0  0  0  0
 10  6  1  0  0  0  0
 11 12  2  0  0  0  0
 12  9  1  0  0  0  0
 13 16  1  0  0  0  0
 14 13  1  0  0  0  0
 14 18  2  0  0  0  0
 15 13  1  0  0  0  0
 16 17  2  0  0  0  0
 17  1  1  0  0  0  0
 18 17  1  0  0  0  0
 19 20  2  0  0  0  0
 21 19  1  1  0  0  0
 21 24  1  0  0  0  0
 22 23  1  0  0  0  0
 23 21  1  0  0  0  0
 25 27  1  1  0  0  0
 26 31  1  1  0  0  0
 26 25  1  0  0  0  0
 28 25  1  0  0  0  0
 29 30  1  0  0  0  0
 29 26  1  0  0  0  0
 30 24  1  1  0  0  0
 30 28  1  0  0  0  0
M  END
>  <MODEL>
6

>  <REMARK>
 VINA RESULT:      -7.8      1.967      4.109
  Name = 
  7 active torsions:
  status: ('A' for Active; 'I' for Inactive)
    1  A    between atoms: C_3  and  C_9
    2  A    between atoms: C_3  and  C_22
    3  A    between atoms: N_4  and  C_12
    4  A    between atoms: C_9  and  C_15
    5  A    between atoms: C_9  and  O_23
    6  A    between atoms: C_12  and  N_20
    7  A    between atoms: C_12  and  C_27
                            x       y       z     vdW  Elec       q    Type
                         _______ _______ _______ _____ _____    ______ ____

>  <TORSDO>
F 7

$$$$
=
 OpenBabel11052413003D

 31 34  0  0  1  0  0  0  0  0999 V2000
  187.8300  178.3840  139.8070 C   0  0  1  0  0  3  0  0  0  0  0  0
  188.9650  177.5320  140.1810 N   0  0  0  0  0  0  0  0  0  0  0  0
  189.6630  177.7160  141.4270 C   0  0  0  0  0  0  0  0  0  0  0  0
  189.8210  178.9770  143.6120 C   0  0  0  0  0  3  0  0  0  0  0  0
  189.1780  178.5680  142.3490 C   0  0  0  0  0  3  0  0  0  0  0  0
  191.6900  176.7900  140.1640 C   0  0  0  0  0  2  0  0  0  0  0  0
  190.6800  178.2410  144.3140 C   0  0  0  0  0  3  0  0  0  0  0  0
  189.4500  176.6090  139.3010 O   0  0  0  0  0  0  0  0  0  0  0  0
  191.0340  176.8390  143.9530 C   0  0  0  0  0  2  0  0  0  0  0  0
  190.7480  177.0390  138.9750 C   0  0  0  0  0  2  0  0  0  0  0  0
  191.0270  177.1230  141.4740 C   0  0  0  0  0  0  0  0  0  0  0  0
  191.6480  176.7530  142.5960 C   0  0  0  0  0  3  0  0  0  0  0  0
  186.5760  177.6210  136.5590 N   0  0  0  0  0  0  0  0  0  0  0  0
  187.4730  178.5750  136.2650 C   0  0  0  0  0  3  0  0  0  0  0  0
  185.7220  176.9290  135.6120 C   0  0  0  0  0  1  0  0  0  0  0  0
  186.5690  177.4100  137.8600 N   0  0  0  0  0  0  0  0  0  0  0  0
  187.4900  178.2590  138.3520 C   0  0  0  0  0  0  0  0  0  0  0  0
  188.0760  179.0050  137.3920 N   0  0  0  0  0  0  0  0  0  0  0  0
  185.6790  178.9500  140.7050 C   0  0  0  0  0  3  0  0  0  0  0  0
  186.6840  178.1480  140.6590 N   0  0  0  0  0  0  0  0  0  0  0  0
  184.5200  178.6820  141.6170 C   0  0  1  0  0  3  0  0  0  0  0  0
  183.2830  178.6080  139.7830 C   0  0  0  0  0  1  0  0  0  0  0  0
  183.5650  177.9060  140.9560 O   0  0  0  0  0  0  0  0  0  0  0  0
  184.9730  177.9670  142.8870 C   0  0  0  0  0  2  0  0  0  0  0  0
  186.3090  177.6810  145.8200 C   0  0  2  0  0  3  0  0  0  0  0  0
  185.1260  178.3110  146.5360 C   0  0  2  0  0  3  0  0  0  0  0  0
  187.5130  177.4890  146.7250 C   0  0  0  0  0  1  0  0  0  0  0  0
  186.6440  178.5750  144.6520 C   0  0  0  0  0  2  0  0  0  0  0  0
  184.0120  178.9460  145.2480 S   0  0  0  0  0  0  0  0  0  0  0  0
  185.3320  178.9570  143.9870 C   0  0  2  0  0  3  0  0  0  0  0  0
  185.5360  179.3770  147.3420 O   0  0  0  0  0  1  0  0  0  0  0  0
  1  2  1  0  0  0  0
  1 20  1  1  0  0  0
  2  3  1  0  0  0  0
  3 11  1  0  0  0  0
  3  5  2  0  0  0  0
  4  7  2  0  0  0  0
  5  4  1  0  0  0  0
  6 11  1  0  0  0  0
  8  2  1  0  0  0  0
  9  7  1  0  0  0  0
 10  8  1  0  0  0  0
 10  6  1  0  0  0  0
 11 12  2  0  0  0  0
 12  9  1  0  0  0  0
 13 16  1  0  0  0  0
 14 13  1  0  0  0  0
 14 18  2  0  0  0  0
 15 13  1  0  0  0  0
 16 17  2  0  0  0  0
 17  1  1  0  0  0  0
 18 17  1  0  0  0  0
 20 19  2  0  0  0  0
 21 19  1  6  0  0  0
 21 24  1  0  0  0  0
 22 23  1  0  0  0  0
 23 21  1  0  0  0  0
 25 26  1  0  0  0  0
 25 27  1  1  0  0  0
 26 31  1  1  0  0  0
 28 25  1  0  0  0  0
 29 26  1  0  0  0  0
 30 24  1  6  0  0  0
 30 28  1  0  0  0  0
 30 29  1  0  0  0  0
M  END
>  <MODEL>
7

>  <REMARK>
 VINA RESULT:      -7.7      2.921      6.784
  Name = 
  7 active torsions:
  status: ('A' for Active; 'I' for Inactive)
    1  A    between atoms: C_3  and  C_9
    2  A    between atoms: C_3  and  C_22
    3  A    between atoms: N_4  and  C_12
    4  A    between atoms: C_9  and  C_15
    5  A    between atoms: C_9  and  O_23
    6  A    between atoms: C_12  and  N_20
    7  A    between atoms: C_12  and  C_27
                            x       y       z     vdW  Elec       q    Type
                         _______ _______ _______ _____ _____    ______ ____

>  <TORSDO>
F 7

$$$$
=
 OpenBabel11052413003D

 31 34  0  0  1  0  0  0  0  0999 V2000
  189.4500  176.5510  139.6250 C   0  0  1  0  0  3  0  0  0  0  0  0
  188.5770  177.3340  138.7440 N   0  0  0  0  0  0  0  0  0  0  0  0
  187.8290  176.7110  137.6830 C   0  0  0  0  0  0  0  0  0  0  0  0
  187.1870  174.5700  136.5030 C   0  0  0  0  0  3  0  0  0  0  0  0
  187.7870  175.3700  137.5870 C   0  0  0  0  0  3  0  0  0  0  0  0
  188.0500  178.9770  136.5080 C   0  0  0  0  0  2  0  0  0  0  0  0
  186.1660  174.9510  135.7370 C   0  0  0  0  0  3  0  0  0  0  0  0
  188.5380  178.6940  138.8480 O   0  0  0  0  0  0  0  0  0  0  0  0
  185.4230  176.2250  135.9490 C   0  0  0  0  0  2  0  0  0  0  0  0
  189.0680  179.1840  137.6410 C   0  0  0  0  0  2  0  0  0  0  0  0
  187.3680  177.6380  136.6130 C   0  0  0  0  0  0  0  0  0  0  0  0
  186.3130  177.4150  135.8270 C   0  0  0  0  0  3  0  0  0  0  0  0
  192.4690  175.6500  137.9570 N   0  0  0  0  0  0  0  0  0  0  0  0
  192.8660  176.7450  138.6230 C   0  0  0  0  0  3  0  0  0  0  0  0
  193.2870  174.8440  137.0720 C   0  0  0  0  0  1  0  0  0  0  0  0
  191.1970  175.4170  138.2140 N   0  0  0  0  0  0  0  0  0  0  0  0
  190.8300  176.3980  139.0580 C   0  0  0  0  0  0  0  0  0  0  0  0
  191.8400  177.2490  139.3390 N   0  0  0  0  0  0  0  0  0  0  0  0
  189.9560  176.4370  141.9670 C   0  0  0  0  0  3  0  0  0  0  0  0
  189.4670  177.0860  140.9700 N   0  0  0  0  0  0  0  0  0  0  0  0
  189.9360  177.0160  143.3490 C   0  0  1  0  0  3  0  0  0  0  0  0
  191.5200  178.5350  143.6350 C   0  0  0  0  0  1  0  0  0  0  0  0
  190.1750  178.3900  143.2920 O   0  0  0  0  0  0  0  0  0  0  0  0
  188.5970  176.7570  144.0350 C   0  0  0  0  0  2  0  0  0  0  0  0
  187.6390  177.5010  147.0340 C   0  0  2  0  0  3  0  0  0  0  0  0
  186.2390  177.9020  146.6020 C   0  0  2  0  0  3  0  0  0  0  0  0
  187.9360  177.8610  148.4800 C   0  0  0  0  0  1  0  0  0  0  0  0
  188.6030  178.1820  146.0960 C   0  0  0  0  0  2  0  0  0  0  0  0
  186.2330  177.9000  144.7840 S   0  0  0  0  0  0  0  0  0  0  0  0
  188.0520  178.0200  144.6890 C   0  0  2  0  0  3  0  0  0  0  0  0
  185.9230  179.1880  147.0510 O   0  0  0  0  0  1  0  0  0  0  0  0
  1 20  1  1  0  0  0
  2  8  1  0  0  0  0
  2  1  1  0  0  0  0
  3  2  1  0  0  0  0
  4  5  1  0  0  0  0
  5  3  2  0  0  0  0
  6 11  1  0  0  0  0
  6 10  1  0  0  0  0
  7  9  1  0  0  0  0
  7  4  2  0  0  0  0
 10  8  1  0  0  0  0
 11  3  1  0  0  0  0
 12  9  1  0  0  0  0
 12 11  2  0  0  0  0
 13 16  1  0  0  0  0
 13 14  1  0  0  0  0
 14 18  2  0  0  0  0
 15 13  1  0  0  0  0
 16 17  2  0  0  0  0
 17 18  1  0  0  0  0
 17  1  1  0  0  0  0
 20 19  2  0  0  0  0
 21 19  1  6  0  0  0
 21 24  1  0  0  0  0
 23 21  1  0  0  0  0
 23 22  1  0  0  0  0
 25 27  1  1  0  0  0
 26 25  1  0  0  0  0
 26 31  1  6  0  0  0
 28 25  1  0  0  0  0
 29 26  1  0  0  0  0
 30 24  1  1  0  0  0
 30 29  1  0  0  0  0
 30 28  1  0  0  0  0
M  END
>  <MODEL>
8

>  <REMARK>
 VINA RESULT:      -7.7      3.246      8.471
  Name = 
  7 active torsions:
  status: ('A' for Active; 'I' for Inactive)
    1  A    between atoms: C_3  and  C_9
    2  A    between atoms: C_3  and  C_22
    3  A    between atoms: N_4  and  C_12
    4  A    between atoms: C_9  and  C_15
    5  A    between atoms: C_9  and  O_23
    6  A    between atoms: C_12  and  N_20
    7  A    between atoms: C_12  and  C_27
                            x       y       z     vdW  Elec       q    Type
                         _______ _______ _______ _____ _____    ______ ____

>  <TORSDO>
F 7

$$$$
=
 OpenBabel11052413003D

 31 34  0  0  1  0  0  0  0  0999 V2000
  189.1530  177.6150  142.9470 C   0  0  1  0  0  3  0  0  0  0  0  0
  187.8080  177.4920  143.5220 N   0  0  0  0  0  0  0  0  0  0  0  0
  186.6520  178.0210  142.8470 C   0  0  0  0  0  0  0  0  0  0  0  0
  185.7270  179.1830  140.8020 C   0  0  0  0  0  3  0  0  0  0  0  0
  186.7630  178.4920  141.5910 C   0  0  0  0  0  3  0  0  0  0  0  0
  185.6880  178.2980  145.2040 C   0  0  0  0  0  2  0  0  0  0  0  0
  184.4130  179.0130  140.9370 C   0  0  0  0  0  3  0  0  0  0  0  0
  187.6400  176.9600  144.7670 O   0  0  0  0  0  0  0  0  0  0  0  0
  183.8140  178.0080  141.8590 C   0  0  0  0  0  2  0  0  0  0  0  0
  187.1530  178.0090  145.5680 C   0  0  0  0  0  2  0  0  0  0  0  0
  185.4630  178.2370  143.7170 C   0  0  0  0  0  0  0  0  0  0  0  0
  184.2030  178.2530  143.2780 C   0  0  0  0  0  3  0  0  0  0  0  0
  191.4260  176.3770  145.3980 N   0  0  0  0  0  0  0  0  0  0  0  0
  191.6800  175.5460  144.3750 C   0  0  0  0  0  3  0  0  0  0  0  0
  192.0540  176.3420  146.7040 C   0  0  0  0  0  1  0  0  0  0  0  0
  190.4910  177.2360  145.0430 N   0  0  0  0  0  0  0  0  0  0  0  0
  190.1850  176.9090  143.7750 C   0  0  0  0  0  0  0  0  0  0  0  0
  190.9020  175.8600  143.3200 N   0  0  0  0  0  0  0  0  0  0  0  0
  190.1080  177.5570  140.7480 C   0  0  0  0  0  3  0  0  0  0  0  0
  189.1800  177.1960  141.5620 N   0  0  0  0  0  0  0  0  0  0  0  0
  190.0900  177.1180  139.3150 C   0  0  1  0  0  3  0  0  0  0  0  0
  191.9120  176.3760  138.3020 C   0  0  0  0  0  1  0  0  0  0  0  0
  190.8830  175.9800  139.1570 O   0  0  0  0  0  0  0  0  0  0  0  0
  188.6670  176.8210  138.8480 C   0  0  0  0  0  2  0  0  0  0  0  0
  186.1840  176.8610  136.7750 C   0  0  2  0  0  3  0  0  0  0  0  0
  187.0740  176.8400  135.5430 C   0  0  2  0  0  3  0  0  0  0  0  0
  184.7250  177.1240  136.4430 C   0  0  0  0  0  1  0  0  0  0  0  0
  186.7320  177.9210  137.6970 C   0  0  0  0  0  2  0  0  0  0  0  0
  188.7820  177.0490  136.1300 S   0  0  0  0  0  0  0  0  0  0  0  0
  188.2430  177.7570  137.7230 C   0  0  2  0  0  3  0  0  0  0  0  0
  186.7630  177.8930  134.6800 O   0  0  0  0  0  1  0  0  0  0  0  0
  1 20  1  6  0  0  0
  1  2  1  0  0  0  0
  1 17  1  0  0  0  0
  2  8  1  0  0  0  0
  3  2  1  0  0  0  0
  3 11  1  0  0  0  0
  4  7  2  0  0  0  0
  4  5  1  0  0  0  0
  5  3  2  0  0  0  0
  6 10  1  0  0  0  0
  7  9  1  0  0  0  0
  8 10  1  0  0  0  0
  9 12  1  0  0  0  0
 11  6  1  0  0  0  0
 12 11  2  0  0  0  0
 13 15  1  0  0  0  0
 14 13  1  0  0  0  0
 16 13  1  0  0  0  0
 17 16  2  0  0  0  0
 18 17  1  0  0  0  0
 18 14  2  0  0  0  0
 19 20  2  0  0  0  0
 21 24  1  1  0  0  0
 21 19  1  0  0  0  0
 22 23  1  0  0  0  0
 23 21  1  0  0  0  0
 25 27  1  6  0  0  0
 25 28  1  0  0  0  0
 26 31  1  6  0  0  0
 26 29  1  0  0  0  0
 26 25  1  0  0  0  0
 28 30  1  0  0  0  0
 29 30  1  0  0  0  0
 30 24  1  1  0  0  0
M  END
>  <MODEL>
9

>  <REMARK>
 VINA RESULT:      -7.7      2.210      5.086
  Name = 
  7 active torsions:
  status: ('A' for Active; 'I' for Inactive)
    1  A    between atoms: C_3  and  C_9
    2  A    between atoms: C_3  and  C_22
    3  A    between atoms: N_4  and  C_12
    4  A    between atoms: C_9  and  C_15
    5  A    between atoms: C_9  and  O_23
    6  A    between atoms: C_12  and  N_20
    7  A    between atoms: C_12  and  C_27
                            x       y       z     vdW  Elec       q    Type
                         _______ _______ _______ _____ _____    ______ ____

>  <TORSDO>
F 7

$$$$
