=
 OpenBabel11052413473D

 27 31  0  0  1  0  0  0  0  0999 V2000
  187.4050  178.4550  142.0450 N   0  0  0  0  0  2  0  0  0  0  0  0
  187.8310  177.5590  144.2490 C   0  0  0  0  0  0  0  0  0  0  0  0
  189.3910  176.3240  142.8130 O   0  0  0  0  0  0  0  0  0  0  0  0
  190.4770  177.1820  147.4640 C   0  0  0  0  0  3  0  0  0  0  0  0
  192.5300  176.3680  148.3600 F   0  0  0  0  0  0  0  0  0  0  0  0
  187.5530  178.1140  145.5070 C   0  0  0  0  0  3  0  0  0  0  0  0
  191.1420  176.0470  144.9910 C   0  0  0  0  0  3  0  0  0  0  0  0
  190.4410  177.1800  139.3920 C   0  0  0  0  0  0  0  0  0  0  0  0
  192.0130  175.9230  146.0760 C   0  0  0  0  0  3  0  0  0  0  0  0
  191.3890  176.7410  138.4790 O   0  0  0  0  0  1  0  0  0  0  0  0
  189.9300  176.7360  145.1340 C   0  0  0  0  0  0  0  0  0  0  0  0
  186.8560  177.6440  143.1140 C   0  0  1  0  0  3  0  0  0  0  0  0
  191.6820  176.4900  147.3110 C   0  0  0  0  0  0  0  0  0  0  0  0
  189.6010  177.3090  146.3830 C   0  0  0  0  0  0  0  0  0  0  0  0
  188.5020  178.0450  141.2260 C   0  0  0  0  0  0  0  0  0  0  0  0
  189.0470  176.8840  144.0530 C   0  0  0  0  0  0  0  0  0  0  0  0
  190.3160  176.5450  140.6280 C   0  0  0  0  0  3  0  0  0  0  0  0
  188.4330  177.9830  146.5340 N   0  0  0  0  0  0  0  0  0  0  0  0
  189.6200  178.2610  139.0790 C   0  0  0  0  0  3  0  0  0  0  0  0
  188.6540  178.6850  139.9910 C   0  0  0  0  0  3  0  0  0  0  0  0
  189.3730  176.9750  141.5690 C   0  0  0  0  0  0  0  0  0  0  0  0
  182.8980  178.9660  144.1700 C   0  0  0  0  0  3  0  0  0  0  0  0
  185.4840  178.1210  143.4980 C   0  0  0  0  0  0  0  0  0  0  0  0
  184.5180  178.2930  142.5000 C   0  0  0  0  0  3  0  0  0  0  0  0
  183.2280  178.7170  142.8350 C   0  0  0  0  0  3  0  0  0  0  0  0
  183.8570  178.7910  145.1720 C   0  0  0  0  0  3  0  0  0  0  0  0
  185.1470  178.3670  144.8380 C   0  0  0  0  0  3  0  0  0  0  0  0
  1 12  1  0  0  0  0
  2  6  1  0  0  0  0
  3 16  1  0  0  0  0
  6 18  2  0  0  0  0
  7 11  2  0  0  0  0
  7  9  1  0  0  0  0
  8 17  1  0  0  0  0
  9 13  2  0  0  0  0
 10  8  1  0  0  0  0
 11 14  1  0  0  0  0
 12 23  1  1  0  0  0
 12  2  1  0  0  0  0
 13  4  1  0  0  0  0
 13  5  1  0  0  0  0
 14 18  1  0  0  0  0
 14  4  2  0  0  0  0
 15 21  1  0  0  0  0
 15  1  1  0  0  0  0
 16  2  2  0  0  0  0
 16 11  1  0  0  0  0
 17 21  2  0  0  0  0
 19  8  2  0  0  0  0
 19 20  1  0  0  0  0
 20 15  2  0  0  0  0
 21  3  1  0  0  0  0
 22 26  1  0  0  0  0
 23 27  1  0  0  0  0
 24 25  1  0  0  0  0
 24 23  2  0  0  0  0
 25 22  2  0  0  0  0
 27 26  2  0  0  0  0
M  END
>  <MODEL>
1

>  <REMARK>
 VINA RESULT:     -11.3      0.000      0.000
  Name = 
  1 active torsions:
  status: ('A' for Active; 'I' for Inactive)
    1  A    between atoms: C_9  and  C_15
                            x       y       z     vdW  Elec       q    Type
                         _______ _______ _______ _____ _____    ______ ____

>  <TORSDO>
F 1

$$$$
=
 OpenBabel11052413473D

 27 31  0  0  1  0  0  0  0  0999 V2000
  186.2190  178.6170  141.7660 N   0  0  0  0  0  2  0  0  0  0  0  0
  185.9640  178.1690  144.1280 C   0  0  0  0  0  0  0  0  0  0  0  0
  187.9460  176.8650  143.5050 O   0  0  0  0  0  0  0  0  0  0  0  0
  187.4720  178.6310  147.9990 C   0  0  0  0  0  3  0  0  0  0  0  0
  189.1680  178.1980  149.6170 F   0  0  0  0  0  0  0  0  0  0  0  0
  185.2800  178.9060  145.1070 C   0  0  0  0  0  3  0  0  0  0  0  0
  188.9290  177.1520  146.1190 C   0  0  0  0  0  3  0  0  0  0  0  0
  189.9870  177.2080  140.4630 C   0  0  0  0  0  0  0  0  0  0  0  0
  189.4180  177.3090  147.4200 C   0  0  0  0  0  3  0  0  0  0  0  0
  191.1920  176.7140  139.9850 O   0  0  0  0  0  1  0  0  0  0  0  0
  187.7080  177.7310  145.7510 C   0  0  0  0  0  0  0  0  0  0  0  0
  185.3940  177.9550  142.7590 C   0  0  1  0  0  3  0  0  0  0  0  0
  188.6910  178.0480  148.3590 C   0  0  0  0  0  0  0  0  0  0  0  0
  186.9770  178.4770  146.7020 C   0  0  0  0  0  0  0  0  0  0  0  0
  187.5340  178.1820  141.4160 C   0  0  0  0  0  0  0  0  0  0  0  0
  187.2050  177.5970  144.4460 C   0  0  0  0  0  0  0  0  0  0  0  0
  189.5040  176.7910  141.7040 C   0  0  0  0  0  3  0  0  0  0  0  0
  185.7950  179.0460  146.3560 N   0  0  0  0  0  0  0  0  0  0  0  0
  189.2630  178.1300  139.7090 C   0  0  0  0  0  3  0  0  0  0  0  0
  188.0420  178.6070  140.1830 C   0  0  0  0  0  3  0  0  0  0  0  0
  188.2950  177.2830  142.2100 C   0  0  0  0  0  0  0  0  0  0  0  0
  181.2560  179.0400  142.2790 C   0  0  0  0  0  3  0  0  0  0  0  0
  183.9520  178.3510  142.6070 C   0  0  0  0  0  0  0  0  0  0  0  0
  183.3830  178.3760  141.3290 C   0  0  0  0  0  3  0  0  0  0  0  0
  182.0380  178.7220  141.1640 C   0  0  0  0  0  3  0  0  0  0  0  0
  181.8180  179.0130  143.5580 C   0  0  0  0  0  3  0  0  0  0  0  0
  183.1630  178.6670  143.7240 C   0  0  0  0  0  3  0  0  0  0  0  0
  1 12  1  0  0  0  0
  2 16  2  0  0  0  0
  2  6  1  0  0  0  0
  3 16  1  0  0  0  0
  4 13  1  0  0  0  0
  6 18  2  0  0  0  0
  7  9  1  0  0  0  0
  8 17  1  0  0  0  0
  9 13  2  0  0  0  0
 10  8  1  0  0  0  0
 11  7  2  0  0  0  0
 11 14  1  0  0  0  0
 12 23  1  1  0  0  0
 12  2  1  0  0  0  0
 13  5  1  0  0  0  0
 14  4  2  0  0  0  0
 15  1  1  0  0  0  0
 15 21  1  0  0  0  0
 16 11  1  0  0  0  0
 17 21  2  0  0  0  0
 18 14  1  0  0  0  0
 19 20  1  0  0  0  0
 19  8  2  0  0  0  0
 20 15  2  0  0  0  0
 21  3  1  0  0  0  0
 22 26  1  0  0  0  0
 23 27  1  0  0  0  0
 24 23  2  0  0  0  0
 25 24  1  0  0  0  0
 25 22  2  0  0  0  0
 26 27  2  0  0  0  0
M  END
>  <MODEL>
2

>  <REMARK>
 VINA RESULT:     -11.1      1.650      2.268
  Name = 
  1 active torsions:
  status: ('A' for Active; 'I' for Inactive)
    1  A    between atoms: C_9  and  C_15
                            x       y       z     vdW  Elec       q    Type
                         _______ _______ _______ _____ _____    ______ ____

>  <TORSDO>
F 1

$$$$
=
 OpenBabel11052413473D

 27 31  0  0  1  0  0  0  0  0999 V2000
  189.7500  178.2350  141.5130 N   0  0  0  0  0  2  0  0  0  0  0  0
  187.3380  178.0850  141.5430 C   0  0  0  0  0  0  0  0  0  0  0  0
  188.0060  177.0630  143.6720 O   0  0  0  0  0  0  0  0  0  0  0  0
  183.7370  179.3340  143.2620 C   0  0  0  0  0  3  0  0  0  0  0  0
  182.2710  179.4260  145.1380 F   0  0  0  0  0  0  0  0  0  0  0  0
  186.3880  178.8240  140.8210 C   0  0  0  0  0  3  0  0  0  0  0  0
  185.5680  177.8770  144.8020 C   0  0  0  0  0  3  0  0  0  0  0  0
  191.2690  177.3200  145.3520 C   0  0  0  0  0  0  0  0  0  0  0  0
  184.3570  178.2950  145.3610 C   0  0  0  0  0  3  0  0  0  0  0  0
  191.8100  176.9760  146.5830 O   0  0  0  0  0  1  0  0  0  0  0  0
  185.8710  178.1810  143.4680 C   0  0  0  0  0  0  0  0  0  0  0  0
  188.6010  177.5870  140.9090 C   0  0  1  0  0  3  0  0  0  0  0  0
  183.4430  179.0220  144.5930 C   0  0  0  0  0  0  0  0  0  0  0  0
  184.9460  178.9180  142.6960 C   0  0  0  0  0  0  0  0  0  0  0  0
  190.1850  177.9850  142.8510 C   0  0  0  0  0  0  0  0  0  0  0  0
  187.0870  177.7820  142.8910 C   0  0  0  0  0  0  0  0  0  0  0  0
  189.9420  177.0040  145.0600 C   0  0  0  0  0  3  0  0  0  0  0  0
  185.2290  179.2230  141.4050 N   0  0  0  0  0  0  0  0  0  0  0  0
  192.0480  177.9900  144.4110 C   0  0  0  0  0  3  0  0  0  0  0  0
  191.5070  178.3140  143.1670 C   0  0  0  0  0  3  0  0  0  0  0  0
  189.3720  177.3490  143.8280 C   0  0  0  0  0  0  0  0  0  0  0  0
  188.6620  177.9040  136.6170 C   0  0  0  0  0  3  0  0  0  0  0  0
  188.6440  177.7070  139.4120 C   0  0  0  0  0  0  0  0  0  0  0  0
  188.1790  176.6450  138.6290 C   0  0  0  0  0  3  0  0  0  0  0  0
  188.1890  176.7410  137.2340 C   0  0  0  0  0  3  0  0  0  0  0  0
  189.1240  178.9700  137.3940 C   0  0  0  0  0  3  0  0  0  0  0  0
  189.1130  178.8740  138.7890 C   0  0  0  0  0  3  0  0  0  0  0  0
  1 15  1  0  0  0  0
  2 16  1  0  0  0  0
  3 21  1  0  0  0  0
  4 13  2  0  0  0  0
  6 18  1  0  0  0  0
  6  2  2  0  0  0  0
  7  9  2  0  0  0  0
  8 10  1  0  0  0  0
 11  7  1  0  0  0  0
 12 23  1  6  0  0  0
 12  1  1  0  0  0  0
 12  2  1  0  0  0  0
 13  5  1  0  0  0  0
 13  9  1  0  0  0  0
 14  4  1  0  0  0  0
 14 11  1  0  0  0  0
 15 20  2  0  0  0  0
 15 21  1  0  0  0  0
 16 11  2  0  0  0  0
 16  3  1  0  0  0  0
 17  8  1  0  0  0  0
 18 14  2  0  0  0  0
 19  8  2  0  0  0  0
 20 19  1  0  0  0  0
 21 17  2  0  0  0  0
 22 25  2  0  0  0  0
 22 26  1  0  0  0  0
 24 23  2  0  0  0  0
 25 24  1  0  0  0  0
 26 27  2  0  0  0  0
 27 23  1  0  0  0  0
M  END
>  <MODEL>
3

>  <REMARK>
 VINA RESULT:     -10.3      2.968      6.269
  Name = 
  1 active torsions:
  status: ('A' for Active; 'I' for Inactive)
    1  A    between atoms: C_9  and  C_15
                            x       y       z     vdW  Elec       q    Type
                         _______ _______ _______ _____ _____    ______ ____

>  <TORSDO>
F 1

$$$$
=
 OpenBabel11052413473D

 27 31  0  0  1  0  0  0  0  0999 V2000
  189.8700  176.8310  141.2290 N   0  0  0  0  0  2  0  0  0  0  0  0
  188.0410  177.8410  142.4440 C   0  0  0  0  0  0  0  0  0  0  0  0
  187.8950  178.8710  140.2220 O   0  0  0  0  0  0  0  0  0  0  0  0
  183.9070  178.2530  142.9170 C   0  0  0  0  0  3  0  0  0  0  0  0
  181.7990  178.9870  142.0810 F   0  0  0  0  0  0  0  0  0  0  0  0
  187.3780  177.3910  143.5960 C   0  0  0  0  0  3  0  0  0  0  0  0
  185.1250  179.1740  140.5690 C   0  0  0  0  0  3  0  0  0  0  0  0
  189.4910  177.7210  137.1120 C   0  0  0  0  0  0  0  0  0  0  0  0
  183.7450  179.3120  140.7440 C   0  0  0  0  0  3  0  0  0  0  0  0
  189.4310  178.0330  135.7620 O   0  0  0  0  0  1  0  0  0  0  0  0
  185.9070  178.5790  141.5670 C   0  0  0  0  0  0  0  0  0  0  0  0
  189.5300  177.7470  142.3020 C   0  0  1  0  0  3  0  0  0  0  0  0
  183.1370  178.8520  141.9150 C   0  0  0  0  0  0  0  0  0  0  0  0
  185.2880  178.1140  142.7490 C   0  0  0  0  0  0  0  0  0  0  0  0
  189.6370  177.1110  139.8480 C   0  0  0  0  0  0  0  0  0  0  0  0
  187.2920  178.4180  141.4060 C   0  0  0  0  0  0  0  0  0  0  0  0
  188.7290  178.4440  138.0310 C   0  0  0  0  0  3  0  0  0  0  0  0
  186.0330  177.5310  143.7220 N   0  0  0  0  0  0  0  0  0  0  0  0
  190.3050  176.6780  137.5510 C   0  0  0  0  0  3  0  0  0  0  0  0
  190.3790  176.3820  138.9120 C   0  0  0  0  0  3  0  0  0  0  0  0
  188.7670  178.1400  139.3970 C   0  0  0  0  0  0  0  0  0  0  0  0
  191.6800  176.7000  145.8800 C   0  0  0  0  0  3  0  0  0  0  0  0
  190.2620  177.3880  143.5640 C   0  0  0  0  0  0  0  0  0  0  0  0
  190.9750  176.1860  143.6210 C   0  0  0  0  0  3  0  0  0  0  0  0
  191.6810  175.8400  144.7770 C   0  0  0  0  0  3  0  0  0  0  0  0
  190.9740  177.9050  145.8270 C   0  0  0  0  0  3  0  0  0  0  0  0
  190.2680  178.2510  144.6710 C   0  0  0  0  0  3  0  0  0  0  0  0
  1 12  1  0  0  0  0
  2  6  1  0  0  0  0
  3 16  1  0  0  0  0
  6 18  2  0  0  0  0
  7  9  2  0  0  0  0
  7 11  1  0  0  0  0
  8 19  2  0  0  0  0
  8 17  1  0  0  0  0
  9 13  1  0  0  0  0
 10  8  1  0  0  0  0
 11 14  2  0  0  0  0
 12  2  1  0  0  0  0
 12 23  1  1  0  0  0
 13  5  1  0  0  0  0
 13  4  2  0  0  0  0
 14  4  1  0  0  0  0
 14 18  1  0  0  0  0
 15  1  1  0  0  0  0
 16 11  1  0  0  0  0
 16  2  2  0  0  0  0
 17 21  2  0  0  0  0
 19 20  1  0  0  0  0
 20 15  2  0  0  0  0
 21 15  1  0  0  0  0
 21  3  1  0  0  0  0
 23 24  2  0  0  0  0
 23 27  1  0  0  0  0
 24 25  1  0  0  0  0
 25 22  2  0  0  0  0
 26 22  1  0  0  0  0
 27 26  2  0  0  0  0
M  END
>  <MODEL>
4

>  <REMARK>
 VINA RESULT:     -10.0      3.041      6.129
  Name = 
  1 active torsions:
  status: ('A' for Active; 'I' for Inactive)
    1  A    between atoms: C_9  and  C_15
                            x       y       z     vdW  Elec       q    Type
                         _______ _______ _______ _____ _____    ______ ____

>  <TORSDO>
F 1

$$$$
=
 OpenBabel11052413473D

 27 31  0  0  1  0  0  0  0  0999 V2000
  188.2570  177.2230  142.9850 N   0  0  0  0  0  2  0  0  0  0  0  0
  186.1100  178.3340  142.9930 C   0  0  0  0  0  0  0  0  0  0  0  0
  187.1140  179.0350  140.8660 O   0  0  0  0  0  0  0  0  0  0  0  0
  182.2960  178.6720  141.3150 C   0  0  0  0  0  3  0  0  0  0  0  0
  180.9000  179.2110  139.4600 F   0  0  0  0  0  0  0  0  0  0  0  0
  184.9500  178.0280  143.7210 C   0  0  0  0  0  3  0  0  0  0  0  0
  184.5440  179.2930  139.7640 C   0  0  0  0  0  3  0  0  0  0  0  0
  189.9800  177.5110  139.1340 C   0  0  0  0  0  0  0  0  0  0  0  0
  183.2630  179.4080  139.2190 C   0  0  0  0  0  3  0  0  0  0  0  0
  190.6020  177.6290  137.8990 O   0  0  0  0  0  1  0  0  0  0  0  0
  184.7110  178.8700  141.0890 C   0  0  0  0  0  0  0  0  0  0  0  0
  187.4730  178.2690  143.6130 C   0  0  1  0  0  3  0  0  0  0  0  0
  182.1400  179.0980  139.9920 C   0  0  0  0  0  0  0  0  0  0  0  0
  183.5750  178.5560  141.8670 C   0  0  0  0  0  0  0  0  0  0  0  0
  188.7420  177.2980  141.6430 C   0  0  0  0  0  0  0  0  0  0  0  0
  185.9900  178.7340  141.6520 C   0  0  0  0  0  0  0  0  0  0  0  0
  188.8960  178.3310  139.4500 C   0  0  0  0  0  3  0  0  0  0  0  0
  183.7230  178.1410  143.1500 N   0  0  0  0  0  0  0  0  0  0  0  0
  190.4310  176.5680  140.0550 C   0  0  0  0  0  3  0  0  0  0  0  0
  189.8170  176.4690  141.3030 C   0  0  0  0  0  3  0  0  0  0  0  0
  188.2470  178.2250  140.6860 C   0  0  0  0  0  0  0  0  0  0  0  0
  187.5520  177.8480  147.8960 C   0  0  0  0  0  3  0  0  0  0  0  0
  187.4770  178.1160  145.1080 C   0  0  0  0  0  0  0  0  0  0  0  0
  188.5500  177.4610  145.7230 C   0  0  0  0  0  3  0  0  0  0  0  0
  188.5870  177.3250  147.1150 C   0  0  0  0  0  3  0  0  0  0  0  0
  186.4810  178.5070  147.2880 C   0  0  0  0  0  3  0  0  0  0  0  0
  186.4430  178.6440  145.8970 C   0  0  0  0  0  3  0  0  0  0  0  0
  1 12  1  0  0  0  0
  2 12  1  0  0  0  0
  2  6  1  0  0  0  0
  3 16  1  0  0  0  0
  4 14  1  0  0  0  0
  5 13  1  0  0  0  0
  7 11  1  0  0  0  0
  8 17  2  0  0  0  0
  8 19  1  0  0  0  0
  9  7  2  0  0  0  0
  9 13  1  0  0  0  0
 10  8  1  0  0  0  0
 11 16  1  0  0  0  0
 11 14  2  0  0  0  0
 12 23  1  1  0  0  0
 13  4  2  0  0  0  0
 14 18  1  0  0  0  0
 15  1  1  0  0  0  0
 16  2  2  0  0  0  0
 17 21  1  0  0  0  0
 18  6  2  0  0  0  0
 19 20  2  0  0  0  0
 20 15  1  0  0  0  0
 21  3  1  0  0  0  0
 21 15  2  0  0  0  0
 23 24  2  0  0  0  0
 23 27  1  0  0  0  0
 24 25  1  0  0  0  0
 25 22  2  0  0  0  0
 26 22  1  0  0  0  0
 27 26  2  0  0  0  0
M  END
>  <MODEL>
5

>  <REMARK>
 VINA RESULT:      -9.9      3.447      6.242
  Name = 
  1 active torsions:
  status: ('A' for Active; 'I' for Inactive)
    1  A    between atoms: C_9  and  C_15
                            x       y       z     vdW  Elec       q    Type
                         _______ _______ _______ _____ _____    ______ ____

>  <TORSDO>
F 1

$$$$
=
 OpenBabel11052413473D

 27 31  0  0  1  0  0  0  0  0999 V2000
  187.4650  177.4690  142.0340 N   0  0  0  0  0  2  0  0  0  0  0  0
  189.6620  177.2780  143.0220 C   0  0  0  0  0  0  0  0  0  0  0  0
  188.3670  178.4780  144.7260 O   0  0  0  0  0  0  0  0  0  0  0  0
  192.0650  175.6110  146.0100 C   0  0  0  0  0  3  0  0  0  0  0  0
  192.6400  175.3960  148.3130 F   0  0  0  0  0  0  0  0  0  0  0  0
  190.7000  176.3800  142.7250 C   0  0  0  0  0  3  0  0  0  0  0  0
  190.0120  177.3790  146.7190 C   0  0  0  0  0  3  0  0  0  0  0  0
  184.7060  178.7600  144.9680 C   0  0  0  0  0  0  0  0  0  0  0  0
  190.8280  176.8200  147.7060 C   0  0  0  0  0  3  0  0  0  0  0  0
  183.7810  179.2320  145.8880 O   0  0  0  0  0  1  0  0  0  0  0  0
  190.2190  177.0610  145.3700 C   0  0  0  0  0  0  0  0  0  0  0  0
  188.8410  177.9200  141.9460 C   0  0  1  0  0  3  0  0  0  0  0  0
  191.8530  175.9360  147.3530 C   0  0  0  0  0  0  0  0  0  0  0  0
  191.2540  176.1670  145.0170 C   0  0  0  0  0  0  0  0  0  0  0  0
  186.5790  177.8370  143.0930 C   0  0  0  0  0  0  0  0  0  0  0  0
  189.4020  177.6020  144.3630 C   0  0  0  0  0  0  0  0  0  0  0  0
  186.0720  178.8720  145.2320 C   0  0  0  0  0  3  0  0  0  0  0  0
  191.4620  175.8480  143.7150 N   0  0  0  0  0  0  0  0  0  0  0  0
  184.2730  178.1650  143.7850 C   0  0  0  0  0  3  0  0  0  0  0  0
  185.2070  177.7130  142.8530 C   0  0  0  0  0  3  0  0  0  0  0  0
  187.0240  178.3950  144.3220 C   0  0  0  0  0  0  0  0  0  0  0  0
  190.3550  177.4700  137.9420 C   0  0  0  0  0  3  0  0  0  0  0  0
  189.3750  177.7400  140.5530 C   0  0  0  0  0  0  0  0  0  0  0  0
  188.6580  178.2690  139.4740 C   0  0  0  0  0  3  0  0  0  0  0  0
  189.1450  178.1330  138.1710 C   0  0  0  0  0  3  0  0  0  0  0  0
  191.0780  176.9440  139.0170 C   0  0  0  0  0  3  0  0  0  0  0  0
  190.5920  177.0810  140.3200 C   0  0  0  0  0  3  0  0  0  0  0  0
  1 15  1  0  0  0  0
  2 16  1  0  0  0  0
  4 13  2  0  0  0  0
  6  2  2  0  0  0  0
  6 18  1  0  0  0  0
  7  9  2  0  0  0  0
  8 17  1  0  0  0  0
  8 10  1  0  0  0  0
 11  7  1  0  0  0  0
 12 23  1  6  0  0  0
 12  1  1  0  0  0  0
 12  2  1  0  0  0  0
 13  9  1  0  0  0  0
 13  5  1  0  0  0  0
 14 11  1  0  0  0  0
 14  4  1  0  0  0  0
 15 21  1  0  0  0  0
 16  3  1  0  0  0  0
 16 11  2  0  0  0  0
 18 14  2  0  0  0  0
 19  8  2  0  0  0  0
 20 15  2  0  0  0  0
 20 19  1  0  0  0  0
 21  3  1  0  0  0  0
 21 17  2  0  0  0  0
 22 25  2  0  0  0  0
 22 26  1  0  0  0  0
 24 23  2  0  0  0  0
 25 24  1  0  0  0  0
 26 27  2  0  0  0  0
 27 23  1  0  0  0  0
M  END
>  <MODEL>
6

>  <REMARK>
 VINA RESULT:      -9.6      1.939      5.314
  Name = 
  1 active torsions:
  status: ('A' for Active; 'I' for Inactive)
    1  A    between atoms: C_9  and  C_15
                            x       y       z     vdW  Elec       q    Type
                         _______ _______ _______ _____ _____    ______ ____

>  <TORSDO>
F 1

$$$$
=
 OpenBabel11052413473D

 27 31  0  0  1  0  0  0  0  0999 V2000
  189.0350  178.0230  146.8960 N   0  0  0  0  0  2  0  0  0  0  0  0
  190.2160  177.1340  144.9840 C   0  0  0  0  0  0  0  0  0  0  0  0
  187.8550  176.9170  144.3540 O   0  0  0  0  0  0  0  0  0  0  0  0
  191.2600  177.5630  140.9580 C   0  0  0  0  0  3  0  0  0  0  0  0
  190.6290  177.6380  138.6610 F   0  0  0  0  0  0  0  0  0  0  0  0
  191.5450  177.3420  144.5800 C   0  0  0  0  0  3  0  0  0  0  0  0
  188.5750  177.1700  141.6520 C   0  0  0  0  0  3  0  0  0  0  0  0
  184.9620  178.5820  145.9030 C   0  0  0  0  0  0  0  0  0  0  0  0
  188.9400  177.3070  140.3100 C   0  0  0  0  0  3  0  0  0  0  0  0
  183.6100  178.7320  145.6330 O   0  0  0  0  0  1  0  0  0  0  0  0
  189.5500  177.2240  142.6560 C   0  0  0  0  0  0  0  0  0  0  0  0
  189.8510  176.9220  146.4210 C   0  0  1  0  0  3  0  0  0  0  0  0
  190.2800  177.5040  139.9620 C   0  0  0  0  0  0  0  0  0  0  0  0
  190.9020  177.4250  142.3020 C   0  0  0  0  0  0  0  0  0  0  0  0
  187.6910  178.2520  146.4670 C   0  0  0  0  0  0  0  0  0  0  0  0
  189.2030  177.1020  144.0120 C   0  0  0  0  0  0  0  0  0  0  0  0
  185.7600  177.8050  145.0630 C   0  0  0  0  0  3  0  0  0  0  0  0
  191.8560  177.4840  143.2660 N   0  0  0  0  0  0  0  0  0  0  0  0
  185.5270  179.2160  147.0080 C   0  0  0  0  0  3  0  0  0  0  0  0
  186.8830  179.0450  147.2880 C   0  0  0  0  0  3  0  0  0  0  0  0
  187.1290  177.6460  145.3100 C   0  0  0  0  0  0  0  0  0  0  0  0
  193.1540  176.2670  149.1030 C   0  0  0  0  0  3  0  0  0  0  0  0
  191.0180  176.6860  147.3390 C   0  0  0  0  0  0  0  0  0  0  0  0
  191.2970  177.6220  148.3400 C   0  0  0  0  0  3  0  0  0  0  0  0
  192.3650  177.4150  149.2200 C   0  0  0  0  0  3  0  0  0  0  0  0
  192.8760  175.3260  148.1080 C   0  0  0  0  0  3  0  0  0  0  0  0
  191.8090  175.5320  147.2280 C   0  0  0  0  0  3  0  0  0  0  0  0
  2 12  1  0  0  0  0
  3 21  1  0  0  0  0
  4 14  1  0  0  0  0
  5 13  1  0  0  0  0
  6  2  1  0  0  0  0
  7 11  1  0  0  0  0
  8 19  1  0  0  0  0
  9  7  2  0  0  0  0
 10  8  1  0  0  0  0
 11 16  1  0  0  0  0
 12  1  1  0  0  0  0
 12 23  1  1  0  0  0
 13  9  1  0  0  0  0
 13  4  2  0  0  0  0
 14 11  2  0  0  0  0
 14 18  1  0  0  0  0
 15  1  1  0  0  0  0
 15 20  1  0  0  0  0
 16  3  1  0  0  0  0
 16  2  2  0  0  0  0
 17 21  1  0  0  0  0
 17  8  2  0  0  0  0
 18  6  2  0  0  0  0
 19 20  2  0  0  0  0
 21 15  2  0  0  0  0
 22 25  1  0  0  0  0
 23 24  1  0  0  0  0
 24 25  2  0  0  0  0
 26 22  2  0  0  0  0
 27 23  2  0  0  0  0
 27 26  1  0  0  0  0
M  END
>  <MODEL>
7

>  <REMARK>
 VINA RESULT:      -9.6      2.898      7.081
  Name = 
  1 active torsions:
  status: ('A' for Active; 'I' for Inactive)
    1  A    between atoms: C_9  and  C_15
                            x       y       z     vdW  Elec       q    Type
                         _______ _______ _______ _____ _____    ______ ____

>  <TORSDO>
F 1

$$$$
=
 OpenBabel11052413473D

 27 31  0  0  1  0  0  0  0  0999 V2000
  190.0020  177.8680  143.0940 N   0  0  0  0  0  2  0  0  0  0  0  0
  188.2080  177.7180  141.4810 C   0  0  0  0  0  0  0  0  0  0  0  0
  187.1500  177.0330  143.5860 O   0  0  0  0  0  0  0  0  0  0  0  0
  184.5470  179.2040  140.1130 C   0  0  0  0  0  3  0  0  0  0  0  0
  182.2170  179.5760  140.4500 F   0  0  0  0  0  0  0  0  0  0  0  0
  188.0810  178.3370  140.2270 C   0  0  0  0  0  3  0  0  0  0  0  0
  184.6900  178.0020  142.6390 C   0  0  0  0  0  3  0  0  0  0  0  0
  188.4170  177.5500  147.0010 C   0  0  0  0  0  0  0  0  0  0  0  0
  183.4720  178.4970  142.1660 C   0  0  0  0  0  3  0  0  0  0  0  0
  187.9430  177.3980  148.2960 O   0  0  0  0  0  1  0  0  0  0  0  0
  185.8450  178.1010  141.8520 C   0  0  0  0  0  0  0  0  0  0  0  0
  189.5070  177.1330  141.9450 C   0  0  1  0  0  3  0  0  0  0  0  0
  183.4000  179.0970  140.9050 C   0  0  0  0  0  0  0  0  0  0  0  0
  185.7690  178.7100  140.5800 C   0  0  0  0  0  0  0  0  0  0  0  0
  189.3870  177.8260  144.3830 C   0  0  0  0  0  0  0  0  0  0  0  0
  187.0820  177.6230  142.3140 C   0  0  0  0  0  0  0  0  0  0  0  0
  187.6150  177.1900  145.9170 C   0  0  0  0  0  3  0  0  0  0  0  0
  186.8810  178.8160  139.8090 N   0  0  0  0  0  0  0  0  0  0  0  0
  189.6900  178.0720  146.7810 C   0  0  0  0  0  3  0  0  0  0  0  0
  190.1710  178.2020  145.4790 C   0  0  0  0  0  3  0  0  0  0  0  0
  188.0690  177.3420  144.6020 C   0  0  0  0  0  0  0  0  0  0  0  0
  192.5810  176.8040  138.9490 C   0  0  0  0  0  3  0  0  0  0  0  0
  190.5650  177.0250  140.8830 C   0  0  0  0  0  0  0  0  0  0  0  0
  191.8470  177.5180  141.1450 C   0  0  0  0  0  3  0  0  0  0  0  0
  192.8540  177.4110  140.1800 C   0  0  0  0  0  3  0  0  0  0  0  0
  191.3030  176.3050  138.6840 C   0  0  0  0  0  3  0  0  0  0  0  0
  190.2960  176.4120  139.6480 C   0  0  0  0  0  3  0  0  0  0  0  0
  1 15  1  0  0  0  0
  2 12  1  0  0  0  0
  2 16  1  0  0  0  0
  3 21  1  0  0  0  0
  4 14  1  0  0  0  0
  4 13  2  0  0  0  0
  5 13  1  0  0  0  0
  6  2  2  0  0  0  0
  8 10  1  0  0  0  0
  9  7  2  0  0  0  0
 11 16  2  0  0  0  0
 11  7  1  0  0  0  0
 12 23  1  6  0  0  0
 12  1  1  0  0  0  0
 13  9  1  0  0  0  0
 14 11  1  0  0  0  0
 15 21  2  0  0  0  0
 15 20  1  0  0  0  0
 16  3  1  0  0  0  0
 17  8  2  0  0  0  0
 18  6  1  0  0  0  0
 18 14  2  0  0  0  0
 19  8  1  0  0  0  0
 20 19  2  0  0  0  0
 21 17  1  0  0  0  0
 22 25  1  0  0  0  0
 23 24  1  0  0  0  0
 25 24  2  0  0  0  0
 26 22  2  0  0  0  0
 26 27  1  0  0  0  0
 27 23  2  0  0  0  0
M  END
>  <MODEL>
8

>  <REMARK>
 VINA RESULT:      -9.5      3.354      7.522
  Name = 
  1 active torsions:
  status: ('A' for Active; 'I' for Inactive)
    1  A    between atoms: C_9  and  C_15
                            x       y       z     vdW  Elec       q    Type
                         _______ _______ _______ _____ _____    ______ ____

>  <TORSDO>
F 1

$$$$
=
 OpenBabel11052413473D

 27 31  0  0  1  0  0  0  0  0999 V2000
  184.6570  178.0300  140.9580 N   0  0  0  0  0  2  0  0  0  0  0  0
  186.4800  178.2690  142.5260 C   0  0  0  0  0  0  0  0  0  0  0  0
  184.6090  179.3970  143.6420 O   0  0  0  0  0  0  0  0  0  0  0  0
  188.1020  177.2600  146.2450 C   0  0  0  0  0  3  0  0  0  0  0  0
  188.0080  177.3380  148.6260 F   0  0  0  0  0  0  0  0  0  0  0  0
  187.6620  177.5200  142.6410 C   0  0  0  0  0  3  0  0  0  0  0  0
  185.7290  178.7440  146.1320 C   0  0  0  0  0  3  0  0  0  0  0  0
  181.0290  179.1280  142.8330 C   0  0  0  0  0  0  0  0  0  0  0  0
  186.2870  178.4060  147.3690 C   0  0  0  0  0  3  0  0  0  0  0  0
  179.8260  179.5290  143.3970 O   0  0  0  0  0  1  0  0  0  0  0  0
  186.3550  178.3460  144.9440 C   0  0  0  0  0  0  0  0  0  0  0  0
  185.9320  178.6800  141.1930 C   0  0  1  0  0  3  0  0  0  0  0  0
  187.4710  177.6650  147.4260 C   0  0  0  0  0  0  0  0  0  0  0  0
  187.5500  177.5960  145.0060 C   0  0  0  0  0  0  0  0  0  0  0  0
  183.4640  178.3470  141.6780 C   0  0  0  0  0  0  0  0  0  0  0  0
  185.8040  178.6640  143.6920 C   0  0  0  0  0  0  0  0  0  0  0  0
  182.2350  179.4730  143.4450 C   0  0  0  0  0  3  0  0  0  0  0  0
  188.1640  177.2010  143.8620 N   0  0  0  0  0  0  0  0  0  0  0  0
  181.0340  178.3730  141.6630 C   0  0  0  0  0  3  0  0  0  0  0  0
  182.2460  177.9910  141.0880 C   0  0  0  0  0  3  0  0  0  0  0  0
  183.4610  179.0720  142.9000 C   0  0  0  0  0  0  0  0  0  0  0  0
  188.5630  178.1010  137.8360 C   0  0  0  0  0  3  0  0  0  0  0  0
  186.8650  178.4650  140.0350 C   0  0  0  0  0  0  0  0  0  0  0  0
  186.3300  178.1820  138.7730 C   0  0  0  0  0  3  0  0  0  0  0  0
  187.1770  177.9980  137.6750 C   0  0  0  0  0  3  0  0  0  0  0  0
  189.1010  178.3880  139.0930 C   0  0  0  0  0  3  0  0  0  0  0  0
  188.2550  178.5720  140.1910 C   0  0  0  0  0  3  0  0  0  0  0  0
  1 12  1  0  0  0  0
  1 15  1  0  0  0  0
  2  6  2  0  0  0  0
  2 16  1  0  0  0  0
  3 16  1  0  0  0  0
  4 13  2  0  0  0  0
  6 18  1  0  0  0  0
  7  9  2  0  0  0  0
  8 10  1  0  0  0  0
  8 17  1  0  0  0  0
  9 13  1  0  0  0  0
 11 14  1  0  0  0  0
 11  7  1  0  0  0  0
 12 23  1  6  0  0  0
 12  2  1  0  0  0  0
 13  5  1  0  0  0  0
 14  4  1  0  0  0  0
 15 21  1  0  0  0  0
 16 11  2  0  0  0  0
 18 14  2  0  0  0  0
 19  8  2  0  0  0  0
 20 19  1  0  0  0  0
 20 15  2  0  0  0  0
 21 17  2  0  0  0  0
 21  3  1  0  0  0  0
 22 26  1  0  0  0  0
 23 27  1  0  0  0  0
 24 23  2  0  0  0  0
 25 22  2  0  0  0  0
 25 24  1  0  0  0  0
 26 27  2  0  0  0  0
M  END
>  <MODEL>
9

>  <REMARK>
 VINA RESULT:      -9.4      2.967      6.132
  Name = 
  1 active torsions:
  status: ('A' for Active; 'I' for Inactive)
    1  A    between atoms: C_9  and  C_15
                            x       y       z     vdW  Elec       q    Type
                         _______ _______ _______ _____ _____    ______ ____

>  <TORSDO>
F 1

$$$$
