=
 OpenBabel11052412363D

 30 33  0  0  1  0  0  0  0  0999 V2000
  190.2230  177.2080  140.1380 C   0  0  0  0  0  0  0  0  0  0  0  0
  189.7020  178.6000  138.2510 C   0  0  0  0  0  3  0  0  0  0  0  0
  185.4740  178.1160  139.5120 O   0  0  0  0  0  0  0  0  0  0  0  0
  188.6580  178.7470  142.1910 C   0  0  0  0  0  2  0  0  0  0  0  0
  189.7790  176.1470  140.9850 N   0  0  0  0  0  2  0  0  0  0  0  0
  190.7790  177.4330  144.2700 C   0  0  1  0  0  3  0  0  0  0  0  0
  190.9690  177.0590  142.9130 O   0  0  0  0  0  0  0  0  0  0  0  0
  189.8800  175.0280  143.0190 O   0  0  0  0  0  0  0  0  0  0  0  0
  185.6270  178.1710  143.0820 C   0  0  2  0  0  3  0  0  0  0  0  0
  185.1480  178.9290  140.6280 C   0  0  1  0  0  3  0  0  0  0  0  0
  190.2340  176.0230  142.3320 C   0  0  0  0  0  0  0  0  0  0  0  0
  188.5200  178.5460  143.7120 C   0  0  2  0  0  3  0  0  0  0  0  0
  188.8450  179.4100  137.3430 C   0  0  0  0  0  2  0  0  0  0  0  0
  186.4230  176.9600  143.5860 C   0  0  0  0  0  2  0  0  0  0  0  0
  192.1220  177.7210  144.9060 C   0  0  0  0  0  1  0  0  0  0  0  0
  191.4550  177.4730  140.0710 O   0  0  0  0  0  0  0  0  0  0  0  0
  186.7660  178.0890  138.9920 C   0  0  0  0  0  0  0  0  0  0  0  0
  187.7940  178.5270  136.7640 C   0  0  0  0  0  3  0  0  0  0  0  0
  189.9000  178.6890  144.3680 C   0  0  0  0  0  2  0  0  0  0  0  0
  189.2480  178.0060  139.3620 C   0  0  0  0  0  0  0  0  0  0  0  0
  187.5260  178.1740  141.3370 C   0  0  1  0  0  3  0  0  0  0  0  0
  183.6960  178.7100  141.0230 C   0  0  0  0  0  1  0  0  0  0  0  0
  186.1780  178.7940  141.7690 C   0  0  2  0  0  3  0  0  0  0  0  0
  187.6320  177.3490  145.6050 O   0  0  0  0  0  1  0  0  0  0  0  0
  186.8630  177.9500  137.5230 C   0  0  0  0  0  3  0  0  0  0  0  0
  187.8250  178.1700  139.8380 C   0  0  0  0  0  0  0  0  0  0  0  0
  187.7850  177.2810  144.2190 C   0  0  2  0  0  3  0  0  0  0  0  0
  185.3600  179.1260  144.1690 N   0  0  0  0  0  0  0  0  0  0  0  0
  184.2710  178.5980  144.9700 C   0  0  0  0  0  1  0  0  0  0  0  0
  184.9420  180.3130  143.6640 O   0  0  0  0  0  1  0  0  0  0  0  0
  1  5  1  0  0  0  0
  2 20  2  0  0  0  0
  3 10  1  0  0  0  0
  5 11  1  0  0  0  0
  6 19  1  0  0  0  0
  6 15  1  6  0  0  0
  7  6  1  0  0  0  0
  9 14  1  0  0  0  0
  9 28  1  1  0  0  0
 10 22  1  1  0  0  0
 10 23  1  0  0  0  0
 11  7  1  0  0  0  0
 11  8  2  0  0  0  0
 12  4  1  6  0  0  0
 12 27  1  0  0  0  0
 12 19  1  0  0  0  0
 13  2  1  0  0  0  0
 14 27  1  0  0  0  0
 16  1  2  0  0  0  0
 17  3  1  0  0  0  0
 17 26  2  0  0  0  0
 18 13  1  0  0  0  0
 18 25  2  0  0  0  0
 20 26  1  0  0  0  0
 20  1  1  0  0  0  0
 21 23  1  0  0  0  0
 21  4  1  1  0  0  0
 23  9  1  0  0  0  0
 25 17  1  0  0  0  0
 26 21  1  0  0  0  0
 27 24  1  0  0  0  0
 28 29  1  0  0  0  0
 30 28  1  0  0  0  0
M  END
>  <MODEL>
1

>  <REMARK>
 VINA RESULT:      -7.3      0.000      0.000
  Name = 
  1 active torsions:
  status: ('A' for Active; 'I' for Inactive)
    1  A    between atoms: N_7  and  C_10
                            x       y       z     vdW  Elec       q    Type
                         _______ _______ _______ _____ _____    ______ ____

>  <TORSDO>
F 1

$$$$
=
 OpenBabel11052412363D

 30 33  0  0  1  0  0  0  0  0999 V2000
  188.1390  177.8780  145.7740 C   0  0  0  0  0  0  0  0  0  0  0  0
  185.7730  177.6340  146.1080 C   0  0  0  0  0  3  0  0  0  0  0  0
  185.3730  179.5310  142.1150 O   0  0  0  0  0  0  0  0  0  0  0  0
  188.2710  176.6250  143.0460 C   0  0  0  0  0  2  0  0  0  0  0  0
  189.1760  178.6560  145.1730 N   0  0  0  0  0  2  0  0  0  0  0  0
  191.3500  176.0050  143.8720 C   0  0  1  0  0  3  0  0  0  0  0  0
  190.5980  176.6950  144.8600 O   0  0  0  0  0  0  0  0  0  0  0  0
  191.3470  178.8190  144.3620 O   0  0  0  0  0  0  0  0  0  0  0  0
  188.0970  178.1770  140.2390 C   0  0  2  0  0  3  0  0  0  0  0  0
  185.6570  178.6280  141.0580 C   0  0  1  0  0  3  0  0  0  0  0  0
  190.4320  178.0810  144.8150 C   0  0  0  0  0  0  0  0  0  0  0  0
  189.4740  176.3240  142.1310 C   0  0  2  0  0  3  0  0  0  0  0  0
  184.3280  177.6790  145.7520 C   0  0  0  0  0  2  0  0  0  0  0  0
  189.4270  178.6280  140.8580 C   0  0  0  0  0  2  0  0  0  0  0  0
  192.1880  174.9330  144.5360 C   0  0  0  0  0  1  0  0  0  0  0  0
  188.4160  177.1190  146.7440 O   0  0  0  0  0  0  0  0  0  0  0  0
  185.4860  179.1410  143.4480 C   0  0  0  0  0  0  0  0  0  0  0  0
  183.9620  179.0840  145.4190 C   0  0  0  0  0  3  0  0  0  0  0  0
  190.4190  175.3460  142.8430 C   0  0  0  0  0  2  0  0  0  0  0  0
  186.7560  177.9420  145.2530 C   0  0  0  0  0  0  0  0  0  0  0  0
  187.5010  177.9090  142.7340 C   0  0  1  0  0  3  0  0  0  0  0  0
  185.5190  179.3360  139.7200 C   0  0  0  0  0  1  0  0  0  0  0  0
  186.9820  177.8700  141.2790 C   0  0  2  0  0  3  0  0  0  0  0  0
  191.2030  177.0530  140.6210 O   0  0  0  0  0  1  0  0  0  0  0  0
  184.4890  179.7200  144.3730 C   0  0  0  0  0  3  0  0  0  0  0  0
  186.4860  178.2950  143.8100 C   0  0  0  0  0  0  0  0  0  0  0  0
  190.2520  177.5200  141.5290 C   0  0  2  0  0  3  0  0  0  0  0  0
  188.3060  177.1400  139.2160 N   0  0  0  0  0  0  0  0  0  0  0  0
  189.1520  177.7010  138.1790 C   0  0  0  0  0  1  0  0  0  0  0  0
  187.1280  176.8090  138.6310 O   0  0  0  0  0  1  0  0  0  0  0  0
  1 16  2  0  0  0  0
  3 17  1  0  0  0  0
  5  1  1  0  0  0  0
  6 15  1  1  0  0  0
  6  7  1  0  0  0  0
  8 11  2  0  0  0  0
  9 28  1  1  0  0  0
  9 14  1  0  0  0  0
  9 23  1  0  0  0  0
 10 22  1  6  0  0  0
 10 23  1  0  0  0  0
 10  3  1  0  0  0  0
 11  7  1  0  0  0  0
 11  5  1  0  0  0  0
 12 19  1  1  0  0  0
 12  4  1  0  0  0  0
 13  2  1  0  0  0  0
 14 27  1  0  0  0  0
 17 26  2  0  0  0  0
 17 25  1  0  0  0  0
 18 13  1  0  0  0  0
 19  6  1  0  0  0  0
 20  1  1  0  0  0  0
 20  2  2  0  0  0  0
 21  4  1  1  0  0  0
 21 26  1  0  0  0  0
 23 21  1  0  0  0  0
 24 27  1  0  0  0  0
 25 18  2  0  0  0  0
 26 20  1  0  0  0  0
 27 12  1  0  0  0  0
 29 28  1  0  0  0  0
 30 28  1  0  0  0  0
M  END
>  <MODEL>
2

>  <REMARK>
 VINA RESULT:      -6.7      1.705      5.284
  Name = 
  1 active torsions:
  status: ('A' for Active; 'I' for Inactive)
    1  A    between atoms: N_7  and  C_10
                            x       y       z     vdW  Elec       q    Type
                         _______ _______ _______ _____ _____    ______ ____

>  <TORSDO>
F 1

$$$$
=
 OpenBabel11052412363D

 30 33  0  0  1  0  0  0  0  0999 V2000
  183.1830  178.3420  142.6250 C   0  0  0  0  0  0  0  0  0  0  0  0
  184.4330  179.0930  144.5350 C   0  0  0  0  0  3  0  0  0  0  0  0
  187.9130  177.1610  142.5710 O   0  0  0  0  0  0  0  0  0  0  0  0
  185.0250  179.4260  140.5130 C   0  0  0  0  0  2  0  0  0  0  0  0
  183.0510  177.3390  141.6170 N   0  0  0  0  0  2  0  0  0  0  0  0
  182.3450  179.4170  138.6780 C   0  0  1  0  0  3  0  0  0  0  0  0
  182.1580  178.9420  140.0040 O   0  0  0  0  0  0  0  0  0  0  0  0
  182.2790  176.6890  139.5230 O   0  0  0  0  0  0  0  0  0  0  0  0
  187.4260  177.8320  139.0950 C   0  0  2  0  0  3  0  0  0  0  0  0
  188.4310  177.9390  141.5050 C   0  0  1  0  0  3  0  0  0  0  0  0
  182.4480  177.6210  140.3540 C   0  0  0  0  0  0  0  0  0  0  0  0
  184.9070  179.4290  138.9770 C   0  0  2  0  0  3  0  0  0  0  0  0
  185.6400  179.3380  145.3700 C   0  0  0  0  0  2  0  0  0  0  0  0
  186.1480  177.1370  138.6070 C   0  0  0  0  0  2  0  0  0  0  0  0
  181.1870  180.3140  138.2980 C   0  0  0  0  0  1  0  0  0  0  0  0
  182.1900  179.0640  142.9150 O   0  0  0  0  0  0  0  0  0  0  0  0
  186.7900  177.5720  143.2870 C   0  0  0  0  0  0  0  0  0  0  0  0
  186.2790  178.0290  145.6830 C   0  0  0  0  0  3  0  0  0  0  0  0
  183.6530  180.2140  138.5670 C   0  0  0  0  0  2  0  0  0  0  0  0
  184.4770  178.5490  143.3120 C   0  0  0  0  0  0  0  0  0  0  0  0
  185.8960  178.3220  141.1130 C   0  0  1  0  0  3  0  0  0  0  0  0
  189.6080  177.2220  140.8620 C   0  0  0  0  0  1  0  0  0  0  0  0
  187.3260  178.4090  140.5350 C   0  0  2  0  0  3  0  0  0  0  0  0
  185.0100  178.2900  136.8570 O   0  0  0  0  0  1  0  0  0  0  0  0
  186.7970  177.2550  144.7310 C   0  0  0  0  0  3  0  0  0  0  0  0
  185.7800  178.2020  142.6330 C   0  0  0  0  0  0  0  0  0  0  0  0
  184.9880  178.0710  138.2350 C   0  0  2  0  0  3  0  0  0  0  0  0
  187.9520  178.7580  138.0800 N   0  0  0  0  0  0  0  0  0  0  0  0
  188.4470  177.9680  136.9690 C   0  0  0  0  0  1  0  0  0  0  0  0
  189.0080  179.4510  138.5750 O   0  0  0  0  0  1  0  0  0  0  0  0
  1 16  2  0  0  0  0
  1 20  1  0  0  0  0
  2 13  1  0  0  0  0
  3 17  1  0  0  0  0
  5  1  1  0  0  0  0
  6 15  1  1  0  0  0
  6  7  1  0  0  0  0
  7 11  1  0  0  0  0
  8 11  2  0  0  0  0
  9 28  1  6  0  0  0
  9 23  1  0  0  0  0
 10 22  1  6  0  0  0
 10  3  1  0  0  0  0
 11  5  1  0  0  0  0
 12 19  1  1  0  0  0
 12  4  1  0  0  0  0
 13 18  1  0  0  0  0
 14  9  1  0  0  0  0
 17 25  1  0  0  0  0
 19  6  1  0  0  0  0
 20  2  2  0  0  0  0
 21  4  1  1  0  0  0
 21 26  1  0  0  0  0
 23 21  1  0  0  0  0
 23 10  1  0  0  0  0
 24 27  1  0  0  0  0
 25 18  2  0  0  0  0
 26 17  2  0  0  0  0
 26 20  1  0  0  0  0
 27 14  1  0  0  0  0
 27 12  1  0  0  0  0
 28 30  1  0  0  0  0
 29 28  1  0  0  0  0
M  END
>  <MODEL>
3

>  <REMARK>
 VINA RESULT:      -6.7      2.363      7.288
  Name = 
  1 active torsions:
  status: ('A' for Active; 'I' for Inactive)
    1  A    between atoms: N_7  and  C_10
                            x       y       z     vdW  Elec       q    Type
                         _______ _______ _______ _____ _____    ______ ____

>  <TORSDO>
F 1

$$$$
=
 OpenBabel11052412363D

 30 33  0  0  1  0  0  0  0  0999 V2000
  188.0170  178.2530  144.5320 C   0  0  0  0  0  0  0  0  0  0  0  0
  185.7540  177.8870  143.8110 C   0  0  0  0  0  3  0  0  0  0  0  0
  187.2920  178.7340  139.7340 O   0  0  0  0  0  0  0  0  0  0  0  0
  189.3450  176.4020  142.5730 C   0  0  0  0  0  2  0  0  0  0  0  0
  189.2380  178.9540  144.2890 N   0  0  0  0  0  2  0  0  0  0  0  0
  191.6800  176.2710  144.8270 C   0  0  1  0  0  3  0  0  0  0  0  0
  190.5810  177.1080  145.1590 O   0  0  0  0  0  0  0  0  0  0  0  0
  191.5430  179.1090  144.5340 O   0  0  0  0  0  0  0  0  0  0  0  0
  190.5280  177.2180  139.7000 C   0  0  2  0  0  3  0  0  0  0  0  0
  188.0000  177.6340  139.1860 C   0  0  1  0  0  3  0  0  0  0  0  0
  190.4990  178.4230  144.6950 C   0  0  0  0  0  0  0  0  0  0  0  0
  190.8230  175.9990  142.4090 C   0  0  2  0  0  3  0  0  0  0  0  0
  184.6370  177.7190  142.8430 C   0  0  0  0  0  2  0  0  0  0  0  0
  191.4400  177.9190  140.7160 C   0  0  0  0  0  2  0  0  0  0  0  0
  192.0860  175.4670  146.0430 C   0  0  0  0  0  1  0  0  0  0  0  0
  187.7930  177.7750  145.6780 O   0  0  0  0  0  0  0  0  0  0  0  0
  186.7690  178.6850  141.0250 C   0  0  0  0  0  0  0  0  0  0  0  0
  184.5090  178.9660  142.0380 C   0  0  0  0  0  3  0  0  0  0  0  0
  191.3040  175.3070  143.6920 C   0  0  0  0  0  2  0  0  0  0  0  0
  187.0300  178.0690  143.4450 C   0  0  0  0  0  0  0  0  0  0  0  0
  188.8460  177.5010  141.6350 C   0  0  1  0  0  3  0  0  0  0  0  0
  188.5150  177.9870  137.8000 C   0  0  0  0  0  1  0  0  0  0  0  0
  189.0520  177.0700  140.1650 C   0  0  2  0  0  3  0  0  0  0  0  0
  193.0750  176.4970  141.7130 O   0  0  0  0  0  1  0  0  0  0  0  0
  185.4770  179.3780  141.2210 C   0  0  0  0  0  3  0  0  0  0  0  0
  187.4630  178.0420  142.0000 C   0  0  0  0  0  0  0  0  0  0  0  0
  191.8290  177.0810  141.9430 C   0  0  2  0  0  3  0  0  0  0  0  0
  191.1500  175.9900  139.1810 N   0  0  0  0  0  0  0  0  0  0  0  0
  192.2060  176.3780  138.2640 C   0  0  0  0  0  1  0  0  0  0  0  0
  190.2500  175.2690  138.4660 O   0  0  0  0  0  1  0  0  0  0  0  0
  1 16  2  0  0  0  0
  3 17  1  0  0  0  0
  5  1  1  0  0  0  0
  5 11  1  0  0  0  0
  6  7  1  0  0  0  0
  6 15  1  1  0  0  0
  8 11  2  0  0  0  0
  9 28  1  1  0  0  0
  9 23  1  0  0  0  0
  9 14  1  0  0  0  0
 10 22  1  6  0  0  0
 10  3  1  0  0  0  0
 10 23  1  0  0  0  0
 11  7  1  0  0  0  0
 12  4  1  1  0  0  0
 12 19  1  0  0  0  0
 13  2  1  0  0  0  0
 14 27  1  0  0  0  0
 17 25  1  0  0  0  0
 17 26  2  0  0  0  0
 18 13  1  0  0  0  0
 19  6  1  0  0  0  0
 20  2  2  0  0  0  0
 20  1  1  0  0  0  0
 21 26  1  0  0  0  0
 21  4  1  1  0  0  0
 23 21  1  0  0  0  0
 24 27  1  0  0  0  0
 25 18  2  0  0  0  0
 26 20  1  0  0  0  0
 27 12  1  0  0  0  0
 29 28  1  0  0  0  0
 30 28  1  0  0  0  0
M  END
>  <MODEL>
4

>  <REMARK>
 VINA RESULT:      -6.6      1.783      5.230
  Name = 
  1 active torsions:
  status: ('A' for Active; 'I' for Inactive)
    1  A    between atoms: N_7  and  C_10
                            x       y       z     vdW  Elec       q    Type
                         _______ _______ _______ _____ _____    ______ ____

>  <TORSDO>
F 1

$$$$
=
 OpenBabel11052412363D

 30 33  0  0  1  0  0  0  0  0999 V2000
  187.2920  177.5310  142.7040 C   0  0  0  0  0  0  0  0  0  0  0  0
  185.6120  179.1270  143.3370 C   0  0  0  0  0  3  0  0  0  0  0  0
  186.3620  177.7360  147.4850 O   0  0  0  0  0  0  0  0  0  0  0  0
  189.4040  178.4030  144.6550 C   0  0  0  0  0  2  0  0  0  0  0  0
  187.9080  176.2780  143.0060 N   0  0  0  0  0  2  0  0  0  0  0  0
  191.4400  177.1130  142.4780 C   0  0  1  0  0  3  0  0  0  0  0  0
  190.0650  177.0210  142.1330 O   0  0  0  0  0  0  0  0  0  0  0  0
  189.7350  174.8510  142.8430 O   0  0  0  0  0  0  0  0  0  0  0  0
  189.8910  177.1850  147.5870 C   0  0  2  0  0  3  0  0  0  0  0  0
  187.5570  178.2750  148.0270 C   0  0  1  0  0  3  0  0  0  0  0  0
  189.2560  175.9960  142.6290 C   0  0  0  0  0  0  0  0  0  0  0  0
  190.8520  177.9180  144.8580 C   0  0  2  0  0  3  0  0  0  0  0  0
  184.7680  179.9320  144.2630 C   0  0  0  0  0  2  0  0  0  0  0  0
  190.2670  176.0540  146.6220 C   0  0  0  0  0  2  0  0  0  0  0  0
  192.2410  177.5030  141.2550 C   0  0  0  0  0  1  0  0  0  0  0  0
  187.3880  178.0040  141.5380 O   0  0  0  0  0  0  0  0  0  0  0  0
  185.9720  178.0160  146.1770 C   0  0  0  0  0  0  0  0  0  0  0  0
  183.9540  179.0030  145.0960 C   0  0  0  0  0  3  0  0  0  0  0  0
  191.6540  178.1690  143.5730 C   0  0  0  0  0  2  0  0  0  0  0  0
  186.5630  178.2800  143.7510 C   0  0  0  0  0  0  0  0  0  0  0  0
  188.3630  177.8100  145.6050 C   0  0  1  0  0  3  0  0  0  0  0  0
  187.7680  177.7520  149.4390 C   0  0  0  0  0  1  0  0  0  0  0  0
  188.7560  178.1130  147.0690 C   0  0  2  0  0  3  0  0  0  0  0  0
  192.4310  176.2760  145.6420 O   0  0  0  0  0  1  0  0  0  0  0  0
  184.5160  178.1550  145.9570 C   0  0  0  0  0  3  0  0  0  0  0  0
  186.9190  178.1200  145.2090 C   0  0  0  0  0  0  0  0  0  0  0  0
  191.0740  176.4790  145.3860 C   0  0  2  0  0  3  0  0  0  0  0  0
  191.0870  177.8770  148.0930 N   0  0  0  0  0  0  0  0  0  0  0  0
  192.0330  176.8680  148.5320 C   0  0  0  0  0  1  0  0  0  0  0  0
  190.7750  178.6280  149.1800 O   0  0  0  0  0  1  0  0  0  0  0  0
  1  5  1  0  0  0  0
  1 20  1  0  0  0  0
  2 20  2  0  0  0  0
  2 13  1  0  0  0  0
  3 10  1  0  0  0  0
  4 12  1  0  0  0  0
  6 15  1  6  0  0  0
  6 19  1  0  0  0  0
  7  6  1  0  0  0  0
  7 11  1  0  0  0  0
  9 28  1  6  0  0  0
 10 22  1  1  0  0  0
 11  8  2  0  0  0  0
 11  5  1  0  0  0  0
 12 19  1  6  0  0  0
 12 27  1  0  0  0  0
 13 18  1  0  0  0  0
 14  9  1  0  0  0  0
 16  1  2  0  0  0  0
 17  3  1  0  0  0  0
 18 25  2  0  0  0  0
 20 26  1  0  0  0  0
 21  4  1  6  0  0  0
 21 23  1  0  0  0  0
 23  9  1  0  0  0  0
 23 10  1  0  0  0  0
 25 17  1  0  0  0  0
 26 21  1  0  0  0  0
 26 17  2  0  0  0  0
 27 24  1  0  0  0  0
 27 14  1  0  0  0  0
 28 29  1  0  0  0  0
 28 30  1  0  0  0  0
M  END
>  <MODEL>
5

>  <REMARK>
 VINA RESULT:      -6.6      2.882      5.828
  Name = 
  1 active torsions:
  status: ('A' for Active; 'I' for Inactive)
    1  A    between atoms: N_7  and  C_10
                            x       y       z     vdW  Elec       q    Type
                         _______ _______ _______ _____ _____    ______ ____

>  <TORSDO>
F 1

$$$$
=
 OpenBabel11052412363D

 30 33  0  0  1  0  0  0  0  0999 V2000
  186.2770  178.6390  141.4490 C   0  0  0  0  0  0  0  0  0  0  0  0
  186.5340  177.8050  143.6870 C   0  0  0  0  0  3  0  0  0  0  0  0
  182.4030  179.2930  144.3350 O   0  0  0  0  0  0  0  0  0  0  0  0
  183.6530  177.3060  140.8430 C   0  0  0  0  0  2  0  0  0  0  0  0
  185.6640  179.6240  140.6160 N   0  0  0  0  0  2  0  0  0  0  0  0
  184.6430  177.5620  137.7600 C   0  0  1  0  0  3  0  0  0  0  0  0
  185.5490  178.0880  138.7200 O   0  0  0  0  0  0  0  0  0  0  0  0
  184.9300  180.3010  138.5180 O   0  0  0  0  0  0  0  0  0  0  0  0
  180.7390  178.5910  141.2530 C   0  0  2  0  0  3  0  0  0  0  0  0
  181.4260  178.4360  143.7690 C   0  0  1  0  0  3  0  0  0  0  0  0
  185.3980  179.3780  139.2350 C   0  0  0  0  0  0  0  0  0  0  0  0
  182.8110  177.2770  139.5540 C   0  0  2  0  0  3  0  0  0  0  0  0
  186.1190  177.4500  145.0710 C   0  0  0  0  0  2  0  0  0  0  0  0
  181.3750  179.4090  140.1210 C   0  0  0  0  0  2  0  0  0  0  0  0
  185.4140  176.7870  136.7130 C   0  0  0  0  0  1  0  0  0  0  0  0
  187.3090  178.0370  141.0410 O   0  0  0  0  0  0  0  0  0  0  0  0
  183.7640  179.0250  144.2010 C   0  0  0  0  0  0  0  0  0  0  0  0
  185.6720  178.6890  145.7690 C   0  0  0  0  0  3  0  0  0  0  0  0
  183.6280  176.6240  138.4300 C   0  0  0  0  0  2  0  0  0  0  0  0
  185.6980  178.3090  142.7700 C   0  0  0  0  0  0  0  0  0  0  0  0
  183.2210  178.3230  141.8990 C   0  0  1  0  0  3  0  0  0  0  0  0
  180.0360  179.0040  144.0080 C   0  0  0  0  0  1  0  0  0  0  0  0
  181.7520  178.0650  142.3070 C   0  0  2  0  0  3  0  0  0  0  0  0
  181.3220  178.3430  137.9880 O   0  0  0  0  0  1  0  0  0  0  0  0
  184.6060  179.3770  145.3650 C   0  0  0  0  0  3  0  0  0  0  0  0
  184.2250  178.4930  143.0390 C   0  0  0  0  0  0  0  0  0  0  0  0
  182.1570  178.5980  139.0770 C   0  0  2  0  0  3  0  0  0  0  0  0
  179.8010  177.5870  140.7250 N   0  0  0  0  0  0  0  0  0  0  0  0
  178.9310  178.2470  139.7700 C   0  0  0  0  0  1  0  0  0  0  0  0
  179.0100  177.1100  141.7180 O   0  0  0  0  0  1  0  0  0  0  0  0
  1 20  1  0  0  0  0
  2 13  1  0  0  0  0
  5  1  1  0  0  0  0
  6 15  1  6  0  0  0
  6 19  1  0  0  0  0
  6  7  1  0  0  0  0
  7 11  1  0  0  0  0
  8 11  2  0  0  0  0
  9 28  1  6  0  0  0
  9 23  1  0  0  0  0
 10 22  1  6  0  0  0
 10  3  1  0  0  0  0
 11  5  1  0  0  0  0
 12 19  1  6  0  0  0
 12  4  1  0  0  0  0
 13 18  1  0  0  0  0
 14  9  1  0  0  0  0
 16  1  2  0  0  0  0
 17  3  1  0  0  0  0
 17 25  1  0  0  0  0
 20 26  1  0  0  0  0
 20  2  2  0  0  0  0
 21  4  1  6  0  0  0
 21 23  1  0  0  0  0
 21 26  1  0  0  0  0
 23 10  1  0  0  0  0
 24 27  1  0  0  0  0
 25 18  2  0  0  0  0
 26 17  2  0  0  0  0
 27 12  1  0  0  0  0
 27 14  1  0  0  0  0
 28 30  1  0  0  0  0
 29 28  1  0  0  0  0
M  END
>  <MODEL>
6

>  <REMARK>
 VINA RESULT:      -6.5      3.267      6.913
  Name = 
  1 active torsions:
  status: ('A' for Active; 'I' for Inactive)
    1  A    between atoms: N_7  and  C_10
                            x       y       z     vdW  Elec       q    Type
                         _______ _______ _______ _____ _____    ______ ____

>  <TORSDO>
F 1

$$$$
=
 OpenBabel11052412363D

 30 33  0  0  1  0  0  0  0  0999 V2000
  190.3770  177.6850  145.4100 C   0  0  0  0  0  0  0  0  0  0  0  0
  189.3560  176.6330  147.3140 C   0  0  0  0  0  3  0  0  0  0  0  0
  185.7240  178.9200  146.1810 O   0  0  0  0  0  0  0  0  0  0  0  0
  188.2430  177.0050  143.4070 C   0  0  0  0  0  2  0  0  0  0  0  0
  190.4140  178.8450  144.5780 N   0  0  0  0  0  2  0  0  0  0  0  0
  190.6660  177.2950  141.2630 C   0  0  1  0  0  3  0  0  0  0  0  0
  191.0370  177.5320  142.6140 O   0  0  0  0  0  0  0  0  0  0  0  0
  190.9350  179.8360  142.5410 O   0  0  0  0  0  0  0  0  0  0  0  0
  185.7390  178.8510  142.6090 C   0  0  2  0  0  3  0  0  0  0  0  0
  185.0460  178.3430  145.0760 C   0  0  1  0  0  3  0  0  0  0  0  0
  190.8410  178.7770  143.2170 C   0  0  0  0  0  0  0  0  0  0  0  0
  188.1640  177.2660  141.8910 C   0  0  2  0  0  3  0  0  0  0  0  0
  188.2570  176.2630  148.2470 C   0  0  0  0  0  2  0  0  0  0  0  0
  186.9680  179.6030  142.0810 C   0  0  0  0  0  2  0  0  0  0  0  0
  191.7330  176.4620  140.5870 C   0  0  0  0  0  1  0  0  0  0  0  0
  191.3730  176.9110  145.4400 O   0  0  0  0  0  0  0  0  0  0  0  0
  186.9140  178.3760  146.6620 C   0  0  0  0  0  0  0  0  0  0  0  0
  187.7100  177.5060  148.8580 C   0  0  0  0  0  3  0  0  0  0  0  0
  189.3260  176.5470  141.1930 C   0  0  0  0  0  2  0  0  0  0  0  0
  189.1740  177.3800  146.2170 C   0  0  0  0  0  0  0  0  0  0  0  0
  187.4960  178.0010  144.2950 C   0  0  1  0  0  3  0  0  0  0  0  0
  183.8240  179.1760  144.7260 C   0  0  0  0  0  1  0  0  0  0  0  0
  186.0010  178.0330  143.9040 C   0  0  2  0  0  3  0  0  0  0  0  0
  187.8320  178.7540  140.0260 O   0  0  0  0  0  1  0  0  0  0  0  0
  187.1020  178.4400  148.1280 C   0  0  0  0  0  3  0  0  0  0  0  0
  187.8090  177.8550  145.7840 C   0  0  0  0  0  0  0  0  0  0  0  0
  188.0370  178.7310  141.4060 C   0  0  2  0  0  3  0  0  0  0  0  0
  185.0550  178.1200  141.5300 N   0  0  0  0  0  0  0  0  0  0  0  0
  184.6490  179.0850  140.5250 C   0  0  0  0  0  1  0  0  0  0  0  0
  183.9230  177.5360  141.9980 O   0  0  0  0  0  1  0  0  0  0  0  0
  1 16  2  0  0  0  0
  1 20  1  0  0  0  0
  2 13  1  0  0  0  0
  3 17  1  0  0  0  0
  5  1  1  0  0  0  0
  6 15  1  1  0  0  0
  6  7  1  0  0  0  0
  7 11  1  0  0  0  0
  8 11  2  0  0  0  0
  9 28  1  6  0  0  0
  9 23  1  0  0  0  0
 10 22  1  6  0  0  0
 10  3  1  0  0  0  0
 11  5  1  0  0  0  0
 12 19  1  6  0  0  0
 12  4  1  0  0  0  0
 13 18  1  0  0  0  0
 14  9  1  0  0  0  0
 17 25  1  0  0  0  0
 19  6  1  0  0  0  0
 20  2  2  0  0  0  0
 21  4  1  6  0  0  0
 21 26  1  0  0  0  0
 23 21  1  0  0  0  0
 23 10  1  0  0  0  0
 24 27  1  0  0  0  0
 25 18  2  0  0  0  0
 26 20  1  0  0  0  0
 26 17  2  0  0  0  0
 27 12  1  0  0  0  0
 27 14  1  0  0  0  0
 28 30  1  0  0  0  0
 29 28  1  0  0  0  0
M  END
>  <MODEL>
7

>  <REMARK>
 VINA RESULT:      -6.2      2.368      5.684
  Name = 
  1 active torsions:
  status: ('A' for Active; 'I' for Inactive)
    1  A    between atoms: N_7  and  C_10
                            x       y       z     vdW  Elec       q    Type
                         _______ _______ _______ _____ _____    ______ ____

>  <TORSDO>
F 1

$$$$
=
 OpenBabel11052412363D

 30 33  0  0  1  0  0  0  0  0999 V2000
  179.7210  176.6990  140.4310 C   0  0  0  0  0  0  0  0  0  0  0  0
  179.2830  174.4710  139.6460 C   0  0  0  0  0  3  0  0  0  0  0  0
  181.6970  175.6270  136.1050 O   0  0  0  0  0  0  0  0  0  0  0  0
  182.7020  176.6560  140.0600 C   0  0  0  0  0  2  0  0  0  0  0  0
  179.9630  178.0580  140.0630 N   0  0  0  0  0  2  0  0  0  0  0  0
  182.6660  178.9220  142.3860 C   0  0  1  0  0  3  0  0  0  0  0  0
  181.3850  178.4340  142.0130 O   0  0  0  0  0  0  0  0  0  0  0  0
  180.8280  180.1520  140.5790 O   0  0  0  0  0  0  0  0  0  0  0  0
  184.3010  177.6620  137.4630 C   0  0  2  0  0  3  0  0  0  0  0  0
  183.0900  175.6180  136.3770 C   0  0  1  0  0  3  0  0  0  0  0  0
  180.7060  178.9410  140.9030 C   0  0  0  0  0  0  0  0  0  0  0  0
  183.7770  177.7060  140.4010 C   0  0  2  0  0  3  0  0  0  0  0  0
  179.3970  173.2890  138.7490 C   0  0  0  0  0  2  0  0  0  0  0  0
  183.7000  178.9350  138.0740 C   0  0  0  0  0  2  0  0  0  0  0  0
  182.7360  179.0510  143.8930 C   0  0  0  0  0  1  0  0  0  0  0  0
  179.3050  176.4370  141.5940 O   0  0  0  0  0  0  0  0  0  0  0  0
  180.7660  175.3370  137.1010 C   0  0  0  0  0  0  0  0  0  0  0  0
  178.9310  173.6760  137.3880 C   0  0  0  0  0  3  0  0  0  0  0  0
  183.7700  177.9640  141.9140 C   0  0  0  0  0  2  0  0  0  0  0  0
  179.9740  175.6050  139.4680 C   0  0  0  0  0  0  0  0  0  0  0  0
  182.2320  176.6300  138.6050 C   0  0  1  0  0  3  0  0  0  0  0  0
  183.8620  176.0360  135.1350 C   0  0  0  0  0  1  0  0  0  0  0  0
  183.4370  176.3870  137.6690 C   0  0  2  0  0  3  0  0  0  0  0  0
  184.9020  179.7880  139.9490 O   0  0  0  0  0  1  0  0  0  0  0  0
  179.5660  174.5930  136.6610 C   0  0  0  0  0  3  0  0  0  0  0  0
  180.9990  175.7580  138.3710 C   0  0  0  0  0  0  0  0  0  0  0  0
  183.7790  179.0350  139.6040 C   0  0  2  0  0  3  0  0  0  0  0  0
  185.7240  177.5220  137.8120 N   0  0  0  0  0  0  0  0  0  0  0  0
  186.4840  178.4170  136.9590 C   0  0  0  0  0  1  0  0  0  0  0  0
  186.1540  176.2620  137.5480 O   0  0  0  0  0  1  0  0  0  0  0  0
  1 16  2  0  0  0  0
  3 10  1  0  0  0  0
  3 17  1  0  0  0  0
  5  1  1  0  0  0  0
  5 11  1  0  0  0  0
  6 15  1  1  0  0  0
  7  6  1  0  0  0  0
  8 11  2  0  0  0  0
  9 23  1  0  0  0  0
  9 28  1  1  0  0  0
  9 14  1  0  0  0  0
 10 22  1  6  0  0  0
 10 23  1  0  0  0  0
 11  7  1  0  0  0  0
 12  4  1  6  0  0  0
 12 19  1  0  0  0  0
 13  2  1  0  0  0  0
 14 27  1  0  0  0  0
 17 26  2  0  0  0  0
 18 13  1  0  0  0  0
 19  6  1  0  0  0  0
 20  2  2  0  0  0  0
 20  1  1  0  0  0  0
 21  4  1  1  0  0  0
 23 21  1  0  0  0  0
 25 17  1  0  0  0  0
 25 18  2  0  0  0  0
 26 21  1  0  0  0  0
 26 20  1  0  0  0  0
 27 24  1  0  0  0  0
 27 12  1  0  0  0  0
 29 28  1  0  0  0  0
 30 28  1  0  0  0  0
M  END
>  <MODEL>
8

>  <REMARK>
 VINA RESULT:      -6.0      4.774      8.325
  Name = 
  1 active torsions:
  status: ('A' for Active; 'I' for Inactive)
    1  A    between atoms: N_7  and  C_10
                            x       y       z     vdW  Elec       q    Type
                         _______ _______ _______ _____ _____    ______ ____

>  <TORSDO>
F 1

$$$$
=
 OpenBabel11052412363D

 30 33  0  0  1  0  0  0  0  0999 V2000
  184.5800  178.7200  138.9950 C   0  0  0  0  0  0  0  0  0  0  0  0
  186.0560  178.2980  137.1470 C   0  0  0  0  0  3  0  0  0  0  0  0
  184.4160  174.1740  137.2390 O   0  0  0  0  0  0  0  0  0  0  0  0
  182.0760  177.6360  137.7380 C   0  0  0  0  0  2  0  0  0  0  0  0
  183.9270  178.1670  140.1380 N   0  0  0  0  0  2  0  0  0  0  0  0
  180.5930  179.6560  139.8040 C   0  0  1  0  0  3  0  0  0  0  0  0
  182.0110  179.6600  139.8850 O   0  0  0  0  0  0  0  0  0  0  0  0
  182.2000  178.2390  141.6920 O   0  0  0  0  0  0  0  0  0  0  0  0
  180.9600  174.6370  138.0220 C   0  0  2  0  0  3  0  0  0  0  0  0
  183.1240  174.0950  136.6600 C   0  0  1  0  0  3  0  0  0  0  0  0
  182.7020  178.7050  140.6340 C   0  0  0  0  0  0  0  0  0  0  0  0
  180.6250  177.5940  138.2550 C   0  0  2  0  0  3  0  0  0  0  0  0
  186.6620  177.5260  136.0280 C   0  0  0  0  0  2  0  0  0  0  0  0
  180.8230  175.2440  139.4240 C   0  0  0  0  0  2  0  0  0  0  0  0
  180.0800  181.0790  139.8810 C   0  0  0  0  0  1  0  0  0  0  0  0
  184.7410  179.9690  138.9160 O   0  0  0  0  0  0  0  0  0  0  0  0
  185.0850  175.3920  137.3480 C   0  0  0  0  0  0  0  0  0  0  0  0
  187.2810  176.2880  136.5810 C   0  0  0  0  0  3  0  0  0  0  0  0
  180.1270  179.0280  138.4820 C   0  0  0  0  0  2  0  0  0  0  0  0
  185.0480  177.8410  137.9000 C   0  0  0  0  0  0  0  0  0  0  0  0
  182.8850  176.3510  137.9180 C   0  0  1  0  0  3  0  0  0  0  0  0
  182.6080  172.6670  136.7350 C   0  0  0  0  0  1  0  0  0  0  0  0
  182.1710  175.1780  137.2100 C   0  0  2  0  0  3  0  0  0  0  0  0
  178.9310  176.6700  139.6970 O   0  0  0  0  0  1  0  0  0  0  0  0
  186.5510  175.3380  137.1640 C   0  0  0  0  0  3  0  0  0  0  0  0
  184.3770  176.5170  137.6280 C   0  0  0  0  0  0  0  0  0  0  0  0
  180.3080  176.6900  139.4720 C   0  0  2  0  0  3  0  0  0  0  0  0
  179.6730  174.6400  137.3090 N   0  0  0  0  0  0  0  0  0  0  0  0
  179.0580  173.3380  137.4930 C   0  0  0  0  0  1  0  0  0  0  0  0
  179.8700  174.8000  135.9760 O   0  0  0  0  0  1  0  0  0  0  0  0
  1  5  1  0  0  0  0
  2 20  2  0  0  0  0
  3 17  1  0  0  0  0
  5 11  1  0  0  0  0
  6 15  1  6  0  0  0
  6  7  1  0  0  0  0
  7 11  1  0  0  0  0
  9 28  1  6  0  0  0
  9 14  1  0  0  0  0
 10 22  1  1  0  0  0
 10 23  1  0  0  0  0
 10  3  1  0  0  0  0
 11  8  2  0  0  0  0
 12  4  1  1  0  0  0
 12 19  1  0  0  0  0
 12 27  1  0  0  0  0
 13 18  1  0  0  0  0
 13  2  1  0  0  0  0
 14 27  1  0  0  0  0
 16  1  2  0  0  0  0
 17 26  2  0  0  0  0
 18 25  2  0  0  0  0
 19  6  1  0  0  0  0
 20  1  1  0  0  0  0
 21  4  1  6  0  0  0
 23 21  1  0  0  0  0
 23  9  1  0  0  0  0
 25 17  1  0  0  0  0
 26 20  1  0  0  0  0
 26 21  1  0  0  0  0
 27 24  1  0  0  0  0
 28 29  1  0  0  0  0
 30 28  1  0  0  0  0
M  END
>  <MODEL>
9

>  <REMARK>
 VINA RESULT:      -5.5      5.276      7.922
  Name = 
  1 active torsions:
  status: ('A' for Active; 'I' for Inactive)
    1  A    between atoms: N_7  and  C_10
                            x       y       z     vdW  Elec       q    Type
                         _______ _______ _______ _____ _____    ______ ____

>  <TORSDO>
F 1

$$$$
