=
 OpenBabel11052412463D

 25 28  0  0  1  0  0  0  0  0999 V2000
  186.7350  178.2370  142.5570 C   0  0  0  0  0  0  0  0  0  0  0  0
  188.0230  177.8440  142.1830 C   0  0  0  0  0  0  0  0  0  0  0  0
  186.2230  178.7550  140.2770 N   0  0  0  0  0  0  0  0  0  0  0  0
  186.1480  178.2460  143.8320 C   0  0  0  0  0  0  0  0  0  0  0  0
  184.6500  178.4080  146.1830 C   0  0  0  0  0  3  0  0  0  0  0  0
  187.4540  178.3840  139.9080 N   0  0  0  0  0  0  0  0  0  0  0  0
  184.8300  178.7050  143.8090 C   0  0  0  0  0  0  0  0  0  0  0  0
  184.0630  178.7950  144.9680 C   0  0  0  0  0  3  0  0  0  0  0  0
  189.6570  177.5360  140.4340 C   0  0  0  0  0  0  0  0  0  0  0  0
  190.0910  177.5950  139.0090 C   0  0  0  0  0  1  0  0  0  0  0  0
  188.9310  177.3870  143.0840 N   0  0  0  0  0  0  0  0  0  0  0  0
  185.9780  177.9420  146.2190 C   0  0  0  0  0  3  0  0  0  0  0  0
  185.8620  178.6890  141.5810 C   0  0  0  0  0  0  0  0  0  0  0  0
  184.3660  179.1040  142.2360 S   0  0  0  0  0  0  0  0  0  0  0  0
  190.5290  177.0880  141.3760 N   0  0  0  0  0  0  0  0  0  0  0  0
  186.7370  177.8590  145.0410 C   0  0  0  0  0  3  0  0  0  0  0  0
  190.1740  177.0090  142.6880 C   0  0  0  0  0  0  0  0  0  0  0  0
  188.3690  177.9290  140.8170 C   0  0  0  0  0  0  0  0  0  0  0  0
  191.3460  176.4050  143.8930 S   0  0  0  0  0  0  0  0  0  0  0  0
  190.6620  177.4780  145.2010 C   0  0  0  0  0  2  0  0  0  0  0  0
  190.4220  176.7260  146.5090 C   0  0  2  0  0  3  0  0  0  0  0  0
  189.4410  177.4750  147.4030 C   0  0  0  0  0  1  0  0  0  0  0  0
  191.7090  176.3770  147.2050 C   0  0  0  0  0  0  0  0  0  0  0  0
  192.3930  175.2210  146.8440 O   0  0  0  0  0  0  0  0  0  0  0  0
  192.1570  177.0950  148.1420 O   0  0  0  0  0  1  0  0  0  0  0  0
  1  4  1  0  0  0  0
  2  1  1  0  0  0  0
  2 11  1  0  0  0  0
  3 13  1  0  0  0  0
  4 16  1  0  0  0  0
  5 12  1  0  0  0  0
  6  3  2  0  0  0  0
  6 18  1  0  0  0  0
  7  4  2  0  0  0  0
  7  8  1  0  0  0  0
  8  5  2  0  0  0  0
  9 18  1  0  0  0  0
  9 15  2  0  0  0  0
 10  9  1  0  0  0  0
 13 14  1  0  0  0  0
 13  1  2  0  0  0  0
 14  7  1  0  0  0  0
 15 17  1  0  0  0  0
 16 12  2  0  0  0  0
 17 11  2  0  0  0  0
 17 19  1  0  0  0  0
 18  2  2  0  0  0  0
 19 20  1  0  0  0  0
 20 21  1  0  0  0  0
 21 23  1  0  0  0  0
 21 22  1  1  0  0  0
 23 25  1  0  0  0  0
 24 23  2  0  0  0  0
M  END
>  <MODEL>
1

>  <REMARK>
 VINA RESULT:      -9.7      0.000      0.000
  Name = 
  4 active torsions:
  status: ('A' for Active; 'I' for Inactive)
    1  A    between atoms: C_2  and  C_21
    2  A    between atoms: S_6  and  C_15
    3  A    between atoms: S_6  and  C_23
    4  A    between atoms: C_15  and  C_21
                            x       y       z     vdW  Elec       q    Type
                         _______ _______ _______ _____ _____    ______ ____

>  <TORSDO>
F 4

$$$$
=
 OpenBabel11052412463D

 25 28  0  0  1  0  0  0  0  0999 V2000
  187.2060  177.8460  145.5720 C   0  0  0  0  0  0  0  0  0  0  0  0
  188.5150  177.4270  145.3180 C   0  0  0  0  0  0  0  0  0  0  0  0
  187.6560  177.8460  147.9230 N   0  0  0  0  0  0  0  0  0  0  0  0
  186.1710  178.1170  144.6640 C   0  0  0  0  0  0  0  0  0  0  0  0
  183.8880  178.7440  143.1830 C   0  0  0  0  0  3  0  0  0  0  0  0
  188.9100  177.4430  147.6910 N   0  0  0  0  0  0  0  0  0  0  0  0
  184.9950  178.5210  145.2990 C   0  0  0  0  0  0  0  0  0  0  0  0
  183.8440  178.8380  144.5830 C   0  0  0  0  0  3  0  0  0  0  0  0
  190.6840  176.8070  146.1750 C   0  0  0  0  0  0  0  0  0  0  0  0
  191.6450  176.5790  147.2920 C   0  0  0  0  0  1  0  0  0  0  0  0
  188.9740  177.2170  144.0570 N   0  0  0  0  0  0  0  0  0  0  0  0
  185.0680  178.3390  142.5300 C   0  0  0  0  0  3  0  0  0  0  0  0
  186.8090  178.0440  146.8840 C   0  0  0  0  0  0  0  0  0  0  0  0
  185.2040  178.5520  146.9750 S   0  0  0  0  0  0  0  0  0  0  0  0
  191.0940  176.6100  144.8940 N   0  0  0  0  0  0  0  0  0  0  0  0
  186.2180  178.0220  143.2690 C   0  0  0  0  0  3  0  0  0  0  0  0
  190.2540  176.8130  143.8420 C   0  0  0  0  0  0  0  0  0  0  0  0
  189.3710  177.2260  146.4210 C   0  0  0  0  0  0  0  0  0  0  0  0
  190.8350  176.5520  142.1740 S   0  0  0  0  0  0  0  0  0  0  0  0
  189.4220  177.4620  141.4630 C   0  0  0  0  0  2  0  0  0  0  0  0
  189.3210  177.2940  139.9480 C   0  0  2  0  0  3  0  0  0  0  0  0
  190.6980  177.1150  139.3200 C   0  0  0  0  0  1  0  0  0  0  0  0
  188.5190  178.3950  139.3090 C   0  0  0  0  0  0  0  0  0  0  0  0
  187.1700  178.5310  139.6210 O   0  0  0  0  0  1  0  0  0  0  0  0
  189.0400  179.1710  138.4610 O   0  0  0  0  0  0  0  0  0  0  0  0
  1 13  1  0  0  0  0
  2  1  2  0  0  0  0
  2 18  1  0  0  0  0
  4  7  1  0  0  0  0
  4  1  1  0  0  0  0
  5  8  1  0  0  0  0
  6  3  1  0  0  0  0
  7 14  1  0  0  0  0
  8  7  2  0  0  0  0
  9 18  1  0  0  0  0
  9 10  1  0  0  0  0
 11  2  1  0  0  0  0
 12  5  2  0  0  0  0
 12 16  1  0  0  0  0
 13 14  1  0  0  0  0
 13  3  2  0  0  0  0
 15  9  2  0  0  0  0
 16  4  2  0  0  0  0
 17 11  2  0  0  0  0
 17 15  1  0  0  0  0
 18  6  2  0  0  0  0
 19 17  1  0  0  0  0
 20 19  1  0  0  0  0
 21 22  1  6  0  0  0
 21 20  1  0  0  0  0
 23 24  1  0  0  0  0
 23 21  1  0  0  0  0
 25 23  2  0  0  0  0
M  END
>  <MODEL>
2

>  <REMARK>
 VINA RESULT:      -9.7      3.399      5.616
  Name = 
  4 active torsions:
  status: ('A' for Active; 'I' for Inactive)
    1  A    between atoms: C_2  and  C_21
    2  A    between atoms: S_6  and  C_15
    3  A    between atoms: S_6  and  C_23
    4  A    between atoms: C_15  and  C_21
                            x       y       z     vdW  Elec       q    Type
                         _______ _______ _______ _____ _____    ______ ____

>  <TORSDO>
F 4

$$$$
=
 OpenBabel11052412463D

 25 28  0  0  1  0  0  0  0  0999 V2000
  189.4740  177.4580  144.0590 C   0  0  0  0  0  0  0  0  0  0  0  0
  188.8980  177.7360  142.8160 C   0  0  0  0  0  0  0  0  0  0  0  0
  191.5410  176.9080  142.9840 N   0  0  0  0  0  0  0  0  0  0  0  0
  188.9020  177.5360  145.3380 C   0  0  0  0  0  0  0  0  0  0  0  0
  188.1230  177.5690  148.0190 C   0  0  0  0  0  3  0  0  0  0  0  0
  190.9990  177.1690  141.7890 N   0  0  0  0  0  0  0  0  0  0  0  0
  189.7990  177.1810  146.3470 C   0  0  0  0  0  0  0  0  0  0  0  0
  189.4340  177.1890  147.6910 C   0  0  0  0  0  3  0  0  0  0  0  0
  189.1300  177.8580  140.4170 C   0  0  0  0  0  0  0  0  0  0  0  0
  189.9180  177.7190  139.1590 C   0  0  0  0  0  1  0  0  0  0  0  0
  187.6100  178.1490  142.6930 N   0  0  0  0  0  0  0  0  0  0  0  0
  187.2090  177.9290  147.0100 C   0  0  0  0  0  3  0  0  0  0  0  0
  190.7960  177.0450  144.1070 C   0  0  0  0  0  0  0  0  0  0  0  0
  191.2990  176.7690  145.6910 S   0  0  0  0  0  0  0  0  0  0  0  0
  187.8350  178.2670  140.3480 N   0  0  0  0  0  0  0  0  0  0  0  0
  187.5940  177.9140  145.6610 C   0  0  0  0  0  3  0  0  0  0  0  0
  187.0790  178.4150  141.4710 C   0  0  0  0  0  0  0  0  0  0  0  0
  189.7000  177.5800  141.6660 C   0  0  0  0  0  0  0  0  0  0  0  0
  185.3850  178.9640  141.3370 S   0  0  0  0  0  0  0  0  0  0  0  0
  184.9530  178.2570  142.9640 C   0  0  0  0  0  2  0  0  0  0  0  0
  183.9490  179.1190  143.7280 C   0  0  2  0  0  3  0  0  0  0  0  0
  184.1450  178.9890  145.2340 C   0  0  0  0  0  1  0  0  0  0  0  0
  182.5330  178.8590  143.2920 C   0  0  0  0  0  0  0  0  0  0  0  0
  182.2070  178.9380  141.9420 O   0  0  0  0  0  0  0  0  0  0  0  0
  181.6270  178.6130  144.1360 O   0  0  0  0  0  1  0  0  0  0  0  0
  1 13  2  0  0  0  0
  1  4  1  0  0  0  0
  2  1  1  0  0  0  0
  3 13  1  0  0  0  0
  4 16  2  0  0  0  0
  4  7  1  0  0  0  0
  6  3  2  0  0  0  0
  7  8  2  0  0  0  0
  8  5  1  0  0  0  0
  9 18  1  0  0  0  0
 10  9  1  0  0  0  0
 11  2  1  0  0  0  0
 12  5  2  0  0  0  0
 13 14  1  0  0  0  0
 14  7  1  0  0  0  0
 15  9  2  0  0  0  0
 15 17  1  0  0  0  0
 16 12  1  0  0  0  0
 17 11  2  0  0  0  0
 18  6  1  0  0  0  0
 18  2  2  0  0  0  0
 19 17  1  0  0  0  0
 19 20  1  0  0  0  0
 20 21  1  0  0  0  0
 21 22  1  1  0  0  0
 23 21  1  0  0  0  0
 23 25  1  0  0  0  0
 24 23  2  0  0  0  0
M  END
>  <MODEL>
3

>  <REMARK>
 VINA RESULT:      -9.4      3.505      5.835
  Name = 
  4 active torsions:
  status: ('A' for Active; 'I' for Inactive)
    1  A    between atoms: C_2  and  C_21
    2  A    between atoms: S_6  and  C_15
    3  A    between atoms: S_6  and  C_23
    4  A    between atoms: C_15  and  C_21
                            x       y       z     vdW  Elec       q    Type
                         _______ _______ _______ _____ _____    ______ ____

>  <TORSDO>
F 4

$$$$
=
 OpenBabel11052412463D

 25 28  0  0  1  0  0  0  0  0999 V2000
  187.2470  177.9300  145.7410 C   0  0  0  0  0  0  0  0  0  0  0  0
  186.3670  178.2560  144.7050 C   0  0  0  0  0  0  0  0  0  0  0  0
  185.5110  178.3120  147.3440 N   0  0  0  0  0  0  0  0  0  0  0  0
  188.5940  177.5440  145.6690 C   0  0  0  0  0  0  0  0  0  0  0  0
  191.2590  176.7530  145.9310 C   0  0  0  0  0  3  0  0  0  0  0  0
  184.6610  178.6280  146.3610 N   0  0  0  0  0  0  0  0  0  0  0  0
  189.1450  177.2930  146.9270 C   0  0  0  0  0  0  0  0  0  0  0  0
  190.4710  176.8980  147.0830 C   0  0  0  0  0  3  0  0  0  0  0  0
  184.1570  178.9390  144.0160 C   0  0  0  0  0  0  0  0  0  0  0  0
  182.7440  179.3200  144.3030 C   0  0  0  0  0  1  0  0  0  0  0  0
  186.7450  178.2350  143.4010 N   0  0  0  0  0  0  0  0  0  0  0  0
  190.7150  177.0020  144.6560 C   0  0  0  0  0  3  0  0  0  0  0  0
  186.7880  177.9700  147.0470 C   0  0  0  0  0  0  0  0  0  0  0  0
  187.9960  177.5380  148.1400 S   0  0  0  0  0  0  0  0  0  0  0  0
  184.5870  178.9030  142.7270 N   0  0  0  0  0  0  0  0  0  0  0  0
  189.3760  177.4010  144.5180 C   0  0  0  0  0  3  0  0  0  0  0  0
  185.8650  178.5530  142.4160 C   0  0  0  0  0  0  0  0  0  0  0  0
  185.0450  178.6120  145.0480 C   0  0  0  0  0  0  0  0  0  0  0  0
  186.3870  178.5100  140.7090 S   0  0  0  0  0  0  0  0  0  0  0  0
  188.1520  178.4790  141.1750 C   0  0  0  0  0  2  0  0  0  0  0  0
  188.9710  177.5330  140.2990 C   0  0  2  0  0  3  0  0  0  0  0  0
  190.4060  177.4210  140.8020 C   0  0  0  0  0  1  0  0  0  0  0  0
  188.8820  177.8900  138.8410 C   0  0  0  0  0  0  0  0  0  0  0  0
  189.0560  179.2130  138.4480 O   0  0  0  0  0  1  0  0  0  0  0  0
  188.6090  177.0160  137.9730 O   0  0  0  0  0  0  0  0  0  0  0  0
  1 13  2  0  0  0  0
  2 18  2  0  0  0  0
  2  1  1  0  0  0  0
  4  1  1  0  0  0  0
  4  7  1  0  0  0  0
  5  8  1  0  0  0  0
  6  3  2  0  0  0  0
  7  8  2  0  0  0  0
  7 14  1  0  0  0  0
  9 10  1  0  0  0  0
  9 18  1  0  0  0  0
 11  2  1  0  0  0  0
 12  5  2  0  0  0  0
 13  3  1  0  0  0  0
 13 14  1  0  0  0  0
 15  9  2  0  0  0  0
 16 12  1  0  0  0  0
 16  4  2  0  0  0  0
 17 15  1  0  0  0  0
 17 11  2  0  0  0  0
 18  6  1  0  0  0  0
 19 20  1  0  0  0  0
 19 17  1  0  0  0  0
 21 22  1  1  0  0  0
 21 20  1  0  0  0  0
 23 21  1  0  0  0  0
 24 23  1  0  0  0  0
 25 23  2  0  0  0  0
M  END
>  <MODEL>
4

>  <REMARK>
 VINA RESULT:      -9.2      3.607      6.448
  Name = 
  4 active torsions:
  status: ('A' for Active; 'I' for Inactive)
    1  A    between atoms: C_2  and  C_21
    2  A    between atoms: S_6  and  C_15
    3  A    between atoms: S_6  and  C_23
    4  A    between atoms: C_15  and  C_21
                            x       y       z     vdW  Elec       q    Type
                         _______ _______ _______ _____ _____    ______ ____

>  <TORSDO>
F 4

$$$$
=
 OpenBabel11052412463D

 25 28  0  0  1  0  0  0  0  0999 V2000
  189.5390  177.4800  143.3940 C   0  0  0  0  0  0  0  0  0  0  0  0
  188.7300  177.8480  142.3150 C   0  0  0  0  0  0  0  0  0  0  0  0
  191.3910  177.1730  141.9080 N   0  0  0  0  0  0  0  0  0  0  0  0
  189.2120  177.3900  144.7550 C   0  0  0  0  0  0  0  0  0  0  0  0
  188.9450  177.0970  147.5190 C   0  0  0  0  0  3  0  0  0  0  0  0
  190.6260  177.5220  140.8680 N   0  0  0  0  0  0  0  0  0  0  0  0
  190.2950  176.9890  145.5390 C   0  0  0  0  0  0  0  0  0  0  0  0
  190.1870  176.8350  146.9190 C   0  0  0  0  0  3  0  0  0  0  0  0
  188.5060  178.2320  139.9430 C   0  0  0  0  0  0  0  0  0  0  0  0
  189.0520  178.2730  138.5560 C   0  0  0  0  0  1  0  0  0  0  0  0
  187.4260  178.1910  142.4730 N   0  0  0  0  0  0  0  0  0  0  0  0
  187.8450  177.5020  146.7390 C   0  0  0  0  0  3  0  0  0  0  0  0
  190.8620  177.1460  143.1550 C   0  0  0  0  0  0  0  0  0  0  0  0
  191.6630  176.7400  144.5810 S   0  0  0  0  0  0  0  0  0  0  0  0
  187.2060  178.5640  140.1550 N   0  0  0  0  0  0  0  0  0  0  0  0
  187.9730  177.6510  145.3500 C   0  0  0  0  0  3  0  0  0  0  0  0
  186.6660  178.5490  141.4050 C   0  0  0  0  0  0  0  0  0  0  0  0
  189.3100  177.8620  141.0280 C   0  0  0  0  0  0  0  0  0  0  0  0
  184.9550  179.0030  141.6420 S   0  0  0  0  0  0  0  0  0  0  0  0
  185.2430  179.4530  143.3880 C   0  0  0  0  0  2  0  0  0  0  0  0
  184.3060  178.7170  144.3440 C   0  0  2  0  0  3  0  0  0  0  0  0
  182.8460  179.0030  144.0140 C   0  0  0  0  0  1  0  0  0  0  0  0
  184.6490  178.9780  145.7850 C   0  0  0  0  0  0  0  0  0  0  0  0
  185.5310  180.0050  146.1050 O   0  0  0  0  0  0  0  0  0  0  0  0
  184.1820  178.2530  146.7070 O   0  0  0  0  0  1  0  0  0  0  0  0
  1  4  1  0  0  0  0
  2 11  1  0  0  0  0
  2  1  1  0  0  0  0
  3 13  1  0  0  0  0
  4 16  2  0  0  0  0
  4  7  1  0  0  0  0
  6 18  1  0  0  0  0
  6  3  2  0  0  0  0
  7  8  2  0  0  0  0
  8  5  1  0  0  0  0
  9 15  2  0  0  0  0
  9 18  1  0  0  0  0
 10  9  1  0  0  0  0
 12  5  2  0  0  0  0
 13  1  2  0  0  0  0
 13 14  1  0  0  0  0
 14  7  1  0  0  0  0
 15 17  1  0  0  0  0
 16 12  1  0  0  0  0
 17 19  1  0  0  0  0
 17 11  2  0  0  0  0
 18  2  2  0  0  0  0
 19 20  1  0  0  0  0
 20 21  1  0  0  0  0
 21 22  1  1  0  0  0
 21 23  1  0  0  0  0
 23 24  2  0  0  0  0
 23 25  1  0  0  0  0
M  END
>  <MODEL>
5

>  <REMARK>
 VINA RESULT:      -9.2      2.468      5.272
  Name = 
  4 active torsions:
  status: ('A' for Active; 'I' for Inactive)
    1  A    between atoms: C_2  and  C_21
    2  A    between atoms: S_6  and  C_15
    3  A    between atoms: S_6  and  C_23
    4  A    between atoms: C_15  and  C_21
                            x       y       z     vdW  Elec       q    Type
                         _______ _______ _______ _____ _____    ______ ____

>  <TORSDO>
F 4

$$$$
=
 OpenBabel11052412463D

 25 28  0  0  1  0  0  0  0  0999 V2000
  186.1550  178.2960  144.2140 C   0  0  0  0  0  0  0  0  0  0  0  0
  186.2600  178.3970  142.8240 C   0  0  0  0  0  0  0  0  0  0  0  0
  183.8560  178.9510  144.0940 N   0  0  0  0  0  0  0  0  0  0  0  0
  187.1330  177.9290  145.1510 C   0  0  0  0  0  0  0  0  0  0  0  0
  188.7900  177.2540  147.2950 C   0  0  0  0  0  3  0  0  0  0  0  0
  183.9450  179.0530  142.7640 N   0  0  0  0  0  0  0  0  0  0  0  0
  186.6480  177.9380  146.4600 C   0  0  0  0  0  0  0  0  0  0  0  0
  187.4550  177.6060  147.5460 C   0  0  0  0  0  3  0  0  0  0  0  0
  185.2100  178.8910  140.7080 C   0  0  0  0  0  0  0  0  0  0  0  0
  184.0380  179.2940  139.8790 C   0  0  0  0  0  1  0  0  0  0  0  0
  187.4170  178.1290  142.1640 N   0  0  0  0  0  0  0  0  0  0  0  0
  189.2910  177.2390  145.9790 C   0  0  0  0  0  3  0  0  0  0  0  0
  184.9410  178.5820  144.8170 C   0  0  0  0  0  0  0  0  0  0  0  0
  185.0220  178.3940  146.4890 S   0  0  0  0  0  0  0  0  0  0  0  0
  186.3920  178.6130  140.0970 N   0  0  0  0  0  0  0  0  0  0  0  0
  188.4630  177.5790  144.8970 C   0  0  0  0  0  3  0  0  0  0  0  0
  187.4860  178.2330  140.8120 C   0  0  0  0  0  0  0  0  0  0  0  0
  185.1130  178.7880  142.1010 C   0  0  0  0  0  0  0  0  0  0  0  0
  189.0170  177.8670  139.9690 S   0  0  0  0  0  0  0  0  0  0  0  0
  189.7680  177.1760  141.4830 C   0  0  0  0  0  2  0  0  0  0  0  0
  191.1490  177.7620  141.7710 C   0  0  2  0  0  3  0  0  0  0  0  0
  192.1340  177.4240  140.6590 C   0  0  0  0  0  1  0  0  0  0  0  0
  191.6490  177.3860  143.1390 C   0  0  0  0  0  0  0  0  0  0  0  0
  191.7210  176.0430  143.4980 O   0  0  0  0  0  0  0  0  0  0  0  0
  191.9650  178.2710  143.9820 O   0  0  0  0  0  1  0  0  0  0  0  0
  1 13  2  0  0  0  0
  1  4  1  0  0  0  0
  2  1  1  0  0  0  0
  3 13  1  0  0  0  0
  4  7  1  0  0  0  0
  5  8  1  0  0  0  0
  6  3  2  0  0  0  0
  7 14  1  0  0  0  0
  7  8  2  0  0  0  0
  9 18  1  0  0  0  0
 10  9  1  0  0  0  0
 11  2  1  0  0  0  0
 12  5  2  0  0  0  0
 13 14  1  0  0  0  0
 15  9  2  0  0  0  0
 15 17  1  0  0  0  0
 16  4  2  0  0  0  0
 16 12  1  0  0  0  0
 17 11  2  0  0  0  0
 18  6  1  0  0  0  0
 18  2  2  0  0  0  0
 19 17  1  0  0  0  0
 19 20  1  0  0  0  0
 20 21  1  0  0  0  0
 21 22  1  6  0  0  0
 21 23  1  0  0  0  0
 23 24  2  0  0  0  0
 23 25  1  0  0  0  0
M  END
>  <MODEL>
6

>  <REMARK>
 VINA RESULT:      -9.1      2.372      4.104
  Name = 
  4 active torsions:
  status: ('A' for Active; 'I' for Inactive)
    1  A    between atoms: C_2  and  C_21
    2  A    between atoms: S_6  and  C_15
    3  A    between atoms: S_6  and  C_23
    4  A    between atoms: C_15  and  C_21
                            x       y       z     vdW  Elec       q    Type
                         _______ _______ _______ _____ _____    ______ ____

>  <TORSDO>
F 4

$$$$
=
 OpenBabel11052412463D

 25 28  0  0  1  0  0  0  0  0999 V2000
  186.1400  178.4720  141.8370 C   0  0  0  0  0  0  0  0  0  0  0  0
  187.5000  178.1520  141.7930 C   0  0  0  0  0  0  0  0  0  0  0  0
  186.1020  178.6630  139.4510 N   0  0  0  0  0  0  0  0  0  0  0  0
  185.2930  178.5850  142.9500 C   0  0  0  0  0  0  0  0  0  0  0  0
  183.3160  178.9000  144.8970 C   0  0  0  0  0  3  0  0  0  0  0  0
  187.4030  178.3580  139.3980 N   0  0  0  0  0  0  0  0  0  0  0  0
  183.9860  178.9210  142.5940 C   0  0  0  0  0  0  0  0  0  0  0  0
  182.9830  179.0840  143.5470 C   0  0  0  0  0  3  0  0  0  0  0  0
  189.4880  177.7770  140.4780 C   0  0  0  0  0  0  0  0  0  0  0  0
  190.2150  177.7000  139.1780 C   0  0  0  0  0  1  0  0  0  0  0  0
  188.2180  177.8890  142.9160 N   0  0  0  0  0  0  0  0  0  0  0  0
  184.6310  178.5600  145.2690 C   0  0  0  0  0  3  0  0  0  0  0  0
  185.4730  178.7240  140.6500 C   0  0  0  0  0  0  0  0  0  0  0  0
  183.8480  179.0840  140.9180 S   0  0  0  0  0  0  0  0  0  0  0  0
  190.1610  177.5250  141.6310 N   0  0  0  0  0  0  0  0  0  0  0  0
  185.6290  178.4020  144.2960 C   0  0  0  0  0  3  0  0  0  0  0  0
  189.5370  177.5760  142.8400 C   0  0  0  0  0  0  0  0  0  0  0  0
  188.1270  178.1000  140.5300 C   0  0  0  0  0  0  0  0  0  0  0  0
  190.4560  177.2270  144.3320 S   0  0  0  0  0  0  0  0  0  0  0  0
  189.1670  177.9760  145.3850 C   0  0  0  0  0  2  0  0  0  0  0  0
  188.9300  177.1860  146.6710 C   0  0  2  0  0  3  0  0  0  0  0  0
  187.4940  177.3420  147.1570 C   0  0  0  0  0  1  0  0  0  0  0  0
  189.9500  177.5050  147.7280 C   0  0  0  0  0  0  0  0  0  0  0  0
  191.1520  176.8040  147.7560 O   0  0  0  0  0  0  0  0  0  0  0  0
  189.7160  178.3700  148.6180 O   0  0  0  0  0  1  0  0  0  0  0  0
  1  4  1  0  0  0  0
  2  1  1  0  0  0  0
  2 11  1  0  0  0  0
  3 13  1  0  0  0  0
  4 16  1  0  0  0  0
  5 12  1  0  0  0  0
  6  3  2  0  0  0  0
  6 18  1  0  0  0  0
  7  4  2  0  0  0  0
  7  8  1  0  0  0  0
  8  5  2  0  0  0  0
  9 18  1  0  0  0  0
  9 15  2  0  0  0  0
 10  9  1  0  0  0  0
 13 14  1  0  0  0  0
 13  1  2  0  0  0  0
 14  7  1  0  0  0  0
 15 17  1  0  0  0  0
 16 12  2  0  0  0  0
 17 11  2  0  0  0  0
 17 19  1  0  0  0  0
 18  2  2  0  0  0  0
 19 20  1  0  0  0  0
 20 21  1  0  0  0  0
 21 22  1  1  0  0  0
 21 23  1  0  0  0  0
 23 24  2  0  0  0  0
 23 25  1  0  0  0  0
M  END
>  <MODEL>
7

>  <REMARK>
 VINA RESULT:      -8.9      1.149      1.435
  Name = 
  4 active torsions:
  status: ('A' for Active; 'I' for Inactive)
    1  A    between atoms: C_2  and  C_21
    2  A    between atoms: S_6  and  C_15
    3  A    between atoms: S_6  and  C_23
    4  A    between atoms: C_15  and  C_21
                            x       y       z     vdW  Elec       q    Type
                         _______ _______ _______ _____ _____    ______ ____

>  <TORSDO>
F 4

$$$$
=
 OpenBabel11052412463D

 25 28  0  0  1  0  0  0  0  0999 V2000
  189.3380  177.5010  144.0520 C   0  0  0  0  0  0  0  0  0  0  0  0
  188.3760  177.7530  145.0350 C   0  0  0  0  0  0  0  0  0  0  0  0
  190.9330  176.9430  145.7480 N   0  0  0  0  0  0  0  0  0  0  0  0
  189.2230  177.5900  142.6570 C   0  0  0  0  0  0  0  0  0  0  0  0
  189.3790  177.6510  139.8690 C   0  0  0  0  0  3  0  0  0  0  0  0
  190.0210  177.1830  146.6960 N   0  0  0  0  0  0  0  0  0  0  0  0
  190.4070  177.2530  142.0000 C   0  0  0  0  0  0  0  0  0  0  0  0
  190.5100  177.2770  140.6110 C   0  0  0  0  0  3  0  0  0  0  0  0
  187.7920  177.8330  147.3750 C   0  0  0  0  0  0  0  0  0  0  0  0
  188.1150  177.6710  148.8220 C   0  0  0  0  0  1  0  0  0  0  0  0
  187.1130  178.1450  144.7260 N   0  0  0  0  0  0  0  0  0  0  0  0
  188.1780  177.9920  140.5200 C   0  0  0  0  0  3  0  0  0  0  0  0
  190.6060  177.1000  144.4430 C   0  0  0  0  0  0  0  0  0  0  0  0
  191.6090  176.8430  143.1140 S   0  0  0  0  0  0  0  0  0  0  0  0
  186.5420  178.2250  147.0130 N   0  0  0  0  0  0  0  0  0  0  0  0
  188.0930  177.9640  141.9200 C   0  0  0  0  0  3  0  0  0  0  0  0
  186.2000  178.3780  145.7040 C   0  0  0  0  0  0  0  0  0  0  0  0
  188.7510  177.5840  146.3850 C   0  0  0  0  0  0  0  0  0  0  0  0
  184.5430  178.8860  145.2710 S   0  0  0  0  0  0  0  0  0  0  0  0
  184.7290  178.2800  143.5590 C   0  0  0  0  0  2  0  0  0  0  0  0
  183.8620  179.0540  142.5670 C   0  0  2  0  0  3  0  0  0  0  0  0
  182.3810  178.8930  142.8880 C   0  0  0  0  0  1  0  0  0  0  0  0
  184.1970  178.7180  141.1400 C   0  0  0  0  0  0  0  0  0  0  0  0
  185.0310  179.5630  140.4140 O   0  0  0  0  0  0  0  0  0  0  0  0
  183.7010  177.7030  140.5760 O   0  0  0  0  0  1  0  0  0  0  0  0
  1 13  1  0  0  0  0
  1  2  2  0  0  0  0
  2 18  1  0  0  0  0
  3  6  1  0  0  0  0
  4  1  1  0  0  0  0
  5 12  2  0  0  0  0
  5  8  1  0  0  0  0
  7  4  1  0  0  0  0
  7 14  1  0  0  0  0
  8  7  2  0  0  0  0
  9 10  1  0  0  0  0
 11  2  1  0  0  0  0
 11 17  2  0  0  0  0
 12 16  1  0  0  0  0
 13  3  2  0  0  0  0
 14 13  1  0  0  0  0
 15  9  2  0  0  0  0
 16  4  2  0  0  0  0
 17 15  1  0  0  0  0
 18  6  2  0  0  0  0
 18  9  1  0  0  0  0
 19 17  1  0  0  0  0
 20 19  1  0  0  0  0
 21 22  1  1  0  0  0
 21 20  1  0  0  0  0
 23 21  1  0  0  0  0
 24 23  2  0  0  0  0
 25 23  1  0  0  0  0
M  END
>  <MODEL>
8

>  <REMARK>
 VINA RESULT:      -8.8      3.707      7.150
  Name = 
  4 active torsions:
  status: ('A' for Active; 'I' for Inactive)
    1  A    between atoms: C_2  and  C_21
    2  A    between atoms: S_6  and  C_15
    3  A    between atoms: S_6  and  C_23
    4  A    between atoms: C_15  and  C_21
                            x       y       z     vdW  Elec       q    Type
                         _______ _______ _______ _____ _____    ______ ____

>  <TORSDO>
F 4

$$$$
=
 OpenBabel11052412463D

 25 28  0  0  1  0  0  0  0  0999 V2000
  185.7640  178.4980  144.6030 C   0  0  0  0  0  0  0  0  0  0  0  0
  186.9230  178.2510  145.3450 C   0  0  0  0  0  0  0  0  0  0  0  0
  184.4870  178.6170  146.6250 N   0  0  0  0  0  0  0  0  0  0  0  0
  185.6090  178.6060  143.2120 C   0  0  0  0  0  0  0  0  0  0  0  0
  184.9100  178.8850  140.5230 C   0  0  0  0  0  3  0  0  0  0  0  0
  185.5890  178.3790  147.3440 N   0  0  0  0  0  0  0  0  0  0  0  0
  184.2890  178.8650  142.8410 C   0  0  0  0  0  0  0  0  0  0  0  0
  183.9150  179.0080  141.5060 C   0  0  0  0  0  3  0  0  0  0  0  0
  187.9640  177.9490  147.5010 C   0  0  0  0  0  0  0  0  0  0  0  0
  187.9200  177.8780  148.9890 C   0  0  0  0  0  1  0  0  0  0  0  0
  188.1340  178.0730  144.7570 N   0  0  0  0  0  0  0  0  0  0  0  0
  186.2450  178.6250  140.8860 C   0  0  0  0  0  3  0  0  0  0  0  0
  184.5640  178.6740  145.2730 C   0  0  0  0  0  0  0  0  0  0  0  0
  183.2960  178.9660  144.2030 S   0  0  0  0  0  0  0  0  0  0  0  0
  189.1520  177.7750  146.8620 N   0  0  0  0  0  0  0  0  0  0  0  0
  186.6030  178.4830  142.2350 C   0  0  0  0  0  3  0  0  0  0  0  0
  189.2420  177.8390  145.5060 C   0  0  0  0  0  0  0  0  0  0  0  0
  186.8080  178.1940  146.7500 C   0  0  0  0  0  0  0  0  0  0  0  0
  190.8240  177.6160  144.7070 S   0  0  0  0  0  0  0  0  0  0  0  0
  190.1590  178.1320  143.0870 C   0  0  0  0  0  2  0  0  0  0  0  0
  189.9510  176.9540  142.1380 C   0  0  2  0  0  3  0  0  0  0  0  0
  190.2270  175.6280  142.8360 C   0  0  0  0  0  1  0  0  0  0  0  0
  190.7190  177.1180  140.8550 C   0  0  0  0  0  0  0  0  0  0  0  0
  192.0550  177.5030  140.9000 O   0  0  0  0  0  1  0  0  0  0  0  0
  190.1580  176.9530  139.7360 O   0  0  0  0  0  0  0  0  0  0  0  0
  1 13  1  0  0  0  0
  1  2  2  0  0  0  0
  2 18  1  0  0  0  0
  3  6  1  0  0  0  0
  4  1  1  0  0  0  0
  5 12  2  0  0  0  0
  5  8  1  0  0  0  0
  7  4  1  0  0  0  0
  7 14  1  0  0  0  0
  8  7  2  0  0  0  0
  9 10  1  0  0  0  0
 11  2  1  0  0  0  0
 11 17  2  0  0  0  0
 12 16  1  0  0  0  0
 13  3  2  0  0  0  0
 14 13  1  0  0  0  0
 15  9  2  0  0  0  0
 16  4  2  0  0  0  0
 17 15  1  0  0  0  0
 18  6  2  0  0  0  0
 18  9  1  0  0  0  0
 19 17  1  0  0  0  0
 20 19  1  0  0  0  0
 21 22  1  1  0  0  0
 21 20  1  0  0  0  0
 23 24  1  0  0  0  0
 23 21  1  0  0  0  0
 25 23  2  0  0  0  0
M  END
>  <MODEL>
9

>  <REMARK>
 VINA RESULT:      -8.7      2.934      5.187
  Name = 
  4 active torsions:
  status: ('A' for Active; 'I' for Inactive)
    1  A    between atoms: C_2  and  C_21
    2  A    between atoms: S_6  and  C_15
    3  A    between atoms: S_6  and  C_23
    4  A    between atoms: C_15  and  C_21
                            x       y       z     vdW  Elec       q    Type
                         _______ _______ _______ _____ _____    ______ ____

>  <TORSDO>
F 4

$$$$
