=
 OpenBabel11052412373D

 30 34  0  0  1  0  0  0  0  0999 V2000
  181.2490  177.5100  139.2670 C   0  0  1  0  0  3  0  0  0  0  0  0
  179.1110  180.1550  140.8700 C   0  0  0  0  0  2  0  0  0  0  0  0
  182.8140  179.2450  143.7650 C   0  0  0  0  0  1  0  0  0  0  0  0
  182.6320  177.8360  138.6110 C   0  0  2  0  0  3  0  0  0  0  0  0
  181.1090  176.0420  139.6820 C   0  0  0  0  0  2  0  0  0  0  0  0
  186.0910  177.6250  135.7210 C   0  0  0  0  0  2  0  0  0  0  0  0
  182.6010  175.4500  137.6760 C   0  0  2  0  0  3  0  0  0  0  0  0
  184.8840  179.0860  138.8000 C   0  0  0  0  0  2  0  0  0  0  0  0
  184.3250  177.5870  141.3300 C   0  0  0  0  0  1  0  0  0  0  0  0
  181.3510  175.1040  138.5000 C   0  0  0  0  0  2  0  0  0  0  0  0
  183.4420  176.5520  138.3420 C   0  0  1  0  0  3  0  0  0  0  0  0
  179.6230  180.9500  141.9000 O   0  0  0  0  0  0  0  0  0  0  0  0
  185.6180  177.7620  138.5310 C   0  0  2  0  0  3  0  0  0  0  0  0
  186.7910  178.5640  136.7010 C   0  0  0  0  0  2  0  0  0  0  0  0
  180.2480  179.7080  139.9650 C   0  0  0  0  0  2  0  0  0  0  0  0
  182.0300  178.5330  141.4760 C   0  0  1  0  0  3  0  0  0  0  0  0
  179.3910  180.2490  143.0940 C   0  0  0  0  0  2  0  0  0  0  0  0
  180.8690  178.3980  140.4530 C   0  0  2  0  0  3  0  0  0  0  0  0
  182.8420  180.1720  139.0720 O   0  0  0  0  0  1  0  0  0  0  0  0
  183.4370  178.7360  140.8730 C   0  0  2  0  0  3  0  0  0  0  0  0
  183.4470  178.9440  139.3400 C   0  0  1  0  0  0  0  0  0  0  0  0
  186.9070  177.9700  137.9800 O   0  0  0  0  0  0  0  0  0  0  0  0
  184.6940  177.3230  136.2430 C   0  0  0  0  0  2  0  0  0  0  0  0
  181.7550  179.4330  142.6930 C   0  0  1  0  0  3  0  0  0  0  0  0
  180.3960  179.1120  143.3050 C   0  0  0  0  0  2  0  0  0  0  0  0
  184.7960  176.7960  137.6750 C   0  0  2  0  0  3  0  0  0  0  0  0
  182.2050  175.8330  136.3920 O   0  0  0  0  0  0  0  0  0  0  0  0
  180.9430  175.3570  136.2640 N   0  0  0  0  0  2  0  0  0  0  0  0
  180.2990  176.1520  135.2350 C   0  0  0  0  0  2  0  0  0  0  0  0
  180.5690  177.6190  135.4900 C   0  0  0  0  0  1  0  0  0  0  0  0
  1  5  1  1  0  0  0
  1 18  1  0  0  0  0
  2 12  1  0  0  0  0
  4  1  1  0  0  0  0
  4 21  1  0  0  0  0
  6 23  1  0  0  0  0
  6 14  1  0  0  0  0
  7 11  1  0  0  0  0
  7 10  1  0  0  0  0
  8 21  1  0  0  0  0
 10  5  1  0  0  0  0
 11  4  1  0  0  0  0
 12 17  1  0  0  0  0
 13  8  1  0  0  0  0
 14 22  1  0  0  0  0
 15 18  1  0  0  0  0
 15  2  1  0  0  0  0
 16 24  1  0  0  0  0
 17 25  1  0  0  0  0
 18 16  1  0  0  0  0
 19 21  1  0  0  0  0
 20  9  1  0  0  0  0
 20 16  1  0  0  0  0
 21 20  1  0  0  0  0
 22 13  1  0  0  0  0
 23 26  1  0  0  0  0
 24 25  1  0  0  0  0
 24  3  1  0  0  0  0
 26 11  1  0  0  0  0
 26 13  1  0  0  0  0
 27  7  1  0  0  0  0
 28 27  1  0  0  0  0
 29 30  1  0  0  0  0
 29 28  1  0  0  0  0
M  END
>  <MODEL>
1

>  <REMARK>
 VINA RESULT:      -5.0      0.000      0.000
  Name = 
  3 active torsions:
  status: ('A' for Active; 'I' for Inactive)
    1  A    between atoms: O_6  and  C_8
    2  A    between atoms: O_6  and  N_21
    3  A    between atoms: C_9  and  N_21
                            x       y       z     vdW  Elec       q    Type
                         _______ _______ _______ _____ _____    ______ ____

>  <TORSDO>
F 3

$$$$
=
 OpenBabel11052412373D

 30 34  0  0  1  0  0  0  0  0999 V2000
  191.6980  176.4070  137.6050 C   0  0  1  0  0  3  0  0  0  0  0  0
  194.9640  176.0920  135.7690 C   0  0  0  0  0  2  0  0  0  0  0  0
  192.7990  171.8220  135.7460 C   0  0  0  0  0  1  0  0  0  0  0  0
  190.3210  176.4250  136.8640 C   0  0  2  0  0  3  0  0  0  0  0  0
  191.5890  175.9820  139.0730 C   0  0  0  0  0  2  0  0  0  0  0  0
  186.0430  177.5140  135.9240 C   0  0  0  0  0  2  0  0  0  0  0  0
  189.2740  177.0960  139.1060 C   0  0  2  0  0  3  0  0  0  0  0  0
  188.8230  175.3790  135.0370 C   0  0  0  0  0  2  0  0  0  0  0  0
  189.9830  173.2320  136.7700 C   0  0  0  0  0  1  0  0  0  0  0  0
  190.6060  176.8690  139.8370 C   0  0  0  0  0  2  0  0  0  0  0  0
  189.1510  176.2190  137.8480 C   0  0  1  0  0  3  0  0  0  0  0  0
  195.1960  175.0060  134.9190 O   0  0  0  0  0  0  0  0  0  0  0  0
  187.7090  175.2030  136.0810 C   0  0  2  0  0  3  0  0  0  0  0  0
  186.1320  176.4030  134.8800 C   0  0  0  0  0  2  0  0  0  0  0  0
  193.4730  176.3800  135.8250 C   0  0  0  0  0  2  0  0  0  0  0  0
  192.2760  174.1640  136.5260 C   0  0  1  0  0  3  0  0  0  0  0  0
  195.7180  173.9800  135.7210 C   0  0  0  0  0  2  0  0  0  0  0  0
  192.7870  175.5730  136.9290 C   0  0  2  0  0  3  0  0  0  0  0  0
  190.9930  176.0990  134.5940 O   0  0  0  0  0  1  0  0  0  0  0  0
  190.8670  174.1140  135.8980 C   0  0  2  0  0  3  0  0  0  0  0  0
  190.2490  175.5030  135.6110 C   0  0  1  0  0  0  0  0  0  0  0  0
  186.4230  175.1580  135.4860 O   0  0  0  0  0  0  0  0  0  0  0  0
  187.3820  177.6240  136.6390 C   0  0  0  0  0  2  0  0  0  0  0  0
  193.2920  173.2570  135.8090 C   0  0  1  0  0  3  0  0  0  0  0  0
  194.6320  173.2690  136.5360 C   0  0  0  0  0  2  0  0  0  0  0  0
  187.7700  176.2530  137.1930 C   0  0  2  0  0  3  0  0  0  0  0  0
  189.1620  178.4510  138.7810 O   0  0  0  0  0  0  0  0  0  0  0  0
  188.6720  179.0330  139.9010 N   0  0  0  0  0  2  0  0  0  0  0  0
  187.4800  178.2910  140.2700 C   0  0  0  0  0  2  0  0  0  0  0  0
  187.0590  178.6790  141.6710 C   0  0  0  0  0  1  0  0  0  0  0  0
  1  5  1  1  0  0  0
  2 15  1  0  0  0  0
  3 24  1  0  0  0  0
  4  1  1  0  0  0  0
  4 11  1  0  0  0  0
  5 10  1  0  0  0  0
  6 23  1  0  0  0  0
  7 10  1  0  0  0  0
  8 21  1  0  0  0  0
  8 13  1  0  0  0  0
 11  7  1  0  0  0  0
 12 17  1  0  0  0  0
 12  2  1  0  0  0  0
 13 26  1  0  0  0  0
 14 22  1  0  0  0  0
 14  6  1  0  0  0  0
 15 18  1  0  0  0  0
 16 18  1  0  0  0  0
 17 25  1  0  0  0  0
 18  1  1  0  0  0  0
 19 21  1  0  0  0  0
 20 16  1  0  0  0  0
 20  9  1  0  0  0  0
 21 20  1  0  0  0  0
 21  4  1  0  0  0  0
 22 13  1  0  0  0  0
 23 26  1  0  0  0  0
 24 16  1  0  0  0  0
 24 25  1  0  0  0  0
 26 11  1  0  0  0  0
 27  7  1  0  0  0  0
 27 28  1  0  0  0  0
 28 29  1  0  0  0  0
 29 30  1  0  0  0  0
M  END
>  <MODEL>
2

>  <REMARK>
 VINA RESULT:      -4.9      5.944     10.699
  Name = 
  3 active torsions:
  status: ('A' for Active; 'I' for Inactive)
    1  A    between atoms: O_6  and  C_8
    2  A    between atoms: O_6  and  N_21
    3  A    between atoms: C_9  and  N_21
                            x       y       z     vdW  Elec       q    Type
                         _______ _______ _______ _____ _____    ______ ____

>  <TORSDO>
F 3

$$$$
=
 OpenBabel11052412373D

 30 34  0  0  1  0  0  0  0  0999 V2000
  183.0470  177.3390  138.7710 C   0  0  1  0  0  3  0  0  0  0  0  0
  180.3540  174.7850  139.3730 C   0  0  0  0  0  2  0  0  0  0  0  0
  180.8250  175.4000  134.6480 C   0  0  0  0  0  1  0  0  0  0  0  0
  184.4670  176.9470  138.2430 C   0  0  2  0  0  3  0  0  0  0  0  0
  182.6830  178.8010  138.4980 C   0  0  0  0  0  2  0  0  0  0  0  0
  188.9490  177.0260  137.7190 C   0  0  0  0  0  2  0  0  0  0  0  0
  185.1770  179.3550  138.7640 C   0  0  2  0  0  3  0  0  0  0  0  0
  185.8530  175.5620  136.5600 C   0  0  0  0  0  2  0  0  0  0  0  0
  183.6680  177.0270  135.1320 C   0  0  0  0  0  1  0  0  0  0  0  0
  183.7280  179.7530  139.0800 C   0  0  0  0  0  2  0  0  0  0  0  0
  185.2490  178.1880  137.7650 C   0  0  1  0  0  3  0  0  0  0  0  0
  179.9420  173.9350  138.3420 O   0  0  0  0  0  0  0  0  0  0  0  0
  186.5820  176.8460  136.1350 C   0  0  2  0  0  3  0  0  0  0  0  0
  188.6990  176.0230  136.5950 C   0  0  0  0  0  2  0  0  0  0  0  0
  181.8020  175.1870  139.1470 C   0  0  0  0  0  2  0  0  0  0  0  0
  181.9600  176.2160  136.7480 C   0  0  1  0  0  3  0  0  0  0  0  0
  178.9320  174.6180  137.6450 C   0  0  0  0  0  2  0  0  0  0  0  0
  181.9060  176.4450  138.2830 C   0  0  2  0  0  3  0  0  0  0  0  0
  184.2250  174.5920  137.9140 O   0  0  0  0  0  1  0  0  0  0  0  0
  183.3610  175.9440  136.1580 C   0  0  2  0  0  3  0  0  0  0  0  0
  184.4750  175.7750  137.2190 C   0  0  1  0  0  0  0  0  0  0  0  0
  187.8650  176.5770  135.5950 O   0  0  0  0  0  0  0  0  0  0  0  0
  187.6150  177.3970  138.3510 C   0  0  0  0  0  2  0  0  0  0  0  0
  180.8680  175.3020  136.1630 C   0  0  1  0  0  3  0  0  0  0  0  0
  179.4970  175.6880  136.7050 C   0  0  0  0  0  2  0  0  0  0  0  0
  186.6590  177.8810  137.2600 C   0  0  2  0  0  3  0  0  0  0  0  0
  185.8270  179.0280  139.9580 O   0  0  0  0  0  0  0  0  0  0  0  0
  185.0050  179.4840  140.9330 N   0  0  0  0  0  2  0  0  0  0  0  0
  185.0400  178.5030  142.0020 C   0  0  0  0  0  2  0  0  0  0  0  0
  183.7420  178.5570  142.7780 C   0  0  0  0  0  1  0  0  0  0  0  0
  1  5  1  6  0  0  0
  3 24  1  0  0  0  0
  4  1  1  0  0  0  0
  5 10  1  0  0  0  0
  6 23  1  0  0  0  0
  7 10  1  0  0  0  0
  7 27  1  0  0  0  0
  8 21  1  0  0  0  0
  9 20  1  0  0  0  0
 11  4  1  0  0  0  0
 11  7  1  0  0  0  0
 12  2  1  0  0  0  0
 13  8  1  0  0  0  0
 13 26  1  0  0  0  0
 14  6  1  0  0  0  0
 15  2  1  0  0  0  0
 16 18  1  0  0  0  0
 17 12  1  0  0  0  0
 18  1  1  0  0  0  0
 18 15  1  0  0  0  0
 20 16  1  0  0  0  0
 20 21  1  0  0  0  0
 21 19  1  0  0  0  0
 21  4  1  0  0  0  0
 22 13  1  0  0  0  0
 22 14  1  0  0  0  0
 24 25  1  0  0  0  0
 24 16  1  0  0  0  0
 25 17  1  0  0  0  0
 26 11  1  0  0  0  0
 26 23  1  0  0  0  0
 27 28  1  0  0  0  0
 28 29  1  0  0  0  0
 29 30  1  0  0  0  0
M  END
>  <MODEL>
3

>  <REMARK>
 VINA RESULT:      -4.8      2.798      5.583
  Name = 
  3 active torsions:
  status: ('A' for Active; 'I' for Inactive)
    1  A    between atoms: O_6  and  C_8
    2  A    between atoms: O_6  and  N_21
    3  A    between atoms: C_9  and  N_21
                            x       y       z     vdW  Elec       q    Type
                         _______ _______ _______ _____ _____    ______ ____

>  <TORSDO>
F 3

$$$$
=
 OpenBabel11052412373D

 30 34  0  0  1  0  0  0  0  0999 V2000
  179.8590  176.9200  139.3370 C   0  0  1  0  0  3  0  0  0  0  0  0
  179.0030  173.5420  137.9230 C   0  0  0  0  0  2  0  0  0  0  0  0
  181.4120  176.0060  134.5990 C   0  0  0  0  0  1  0  0  0  0  0  0
  181.3100  177.2940  139.7870 C   0  0  2  0  0  3  0  0  0  0  0  0
  178.9950  178.1400  139.0080 C   0  0  0  0  0  2  0  0  0  0  0  0
  184.6350  179.1700  142.1930 C   0  0  0  0  0  2  0  0  0  0  0  0
  180.3000  179.4110  140.8190 C   0  0  2  0  0  3  0  0  0  0  0  0
  183.8350  177.2380  139.2440 C   0  0  0  0  0  2  0  0  0  0  0  0
  182.2960  178.2390  136.8790 C   0  0  0  0  0  1  0  0  0  0  0  0
  178.9330  179.1120  140.1870 C   0  0  0  0  0  2  0  0  0  0  0  0
  181.4570  178.8150  140.0000 C   0  0  1  0  0  3  0  0  0  0  0  0
  179.6780  173.0540  136.8010 O   0  0  0  0  0  0  0  0  0  0  0  0
  183.8960  178.7580  139.4680 C   0  0  2  0  0  3  0  0  0  0  0  0
  185.5490  178.6440  141.0890 C   0  0  0  0  0  2  0  0  0  0  0  0
  179.9130  174.4920  138.6850 C   0  0  0  0  0  2  0  0  0  0  0  0
  180.7120  176.3260  137.0010 C   0  0  1  0  0  3  0  0  0  0  0  0
  178.9830  173.5350  135.6800 C   0  0  0  0  0  2  0  0  0  0  0  0
  179.7770  175.9280  138.1750 C   0  0  2  0  0  3  0  0  0  0  0  0
  182.5200  175.3170  139.2010 O   0  0  0  0  0  1  0  0  0  0  0  0
  182.1190  176.8190  137.4000 C   0  0  2  0  0  3  0  0  0  0  0  0
  182.4380  176.6780  138.9080 C   0  0  1  0  0  0  0  0  0  0  0  0
  185.1950  179.1910  139.8330 O   0  0  0  0  0  0  0  0  0  0  0  0
  183.2010  178.7710  141.8760 C   0  0  0  0  0  2  0  0  0  0  0  0
  180.7230  175.3710  135.7940 C   0  0  1  0  0  3  0  0  0  0  0  0
  179.3010  175.0040  135.3850 C   0  0  0  0  0  2  0  0  0  0  0  0
  182.8460  179.2490  140.4680 C   0  0  2  0  0  3  0  0  0  0  0  0
  180.3110  178.9190  142.1270 O   0  0  0  0  0  0  0  0  0  0  0  0
  179.5390  179.7860  142.8270 N   0  0  0  0  0  2  0  0  0  0  0  0
  179.3210  179.1890  144.1320 C   0  0  0  0  0  2  0  0  0  0  0  0
  180.0490  177.8640  144.2080 C   0  0  0  0  0  1  0  0  0  0  0  0
  1  5  1  6  0  0  0
  1  4  1  0  0  0  0
  2 15  1  0  0  0  0
  3 24  1  0  0  0  0
  4 11  1  0  0  0  0
  5 10  1  0  0  0  0
  7 27  1  0  0  0  0
  8 13  1  0  0  0  0
  9 20  1  0  0  0  0
 10  7  1  0  0  0  0
 11 26  1  0  0  0  0
 11  7  1  0  0  0  0
 12  2  1  0  0  0  0
 13 22  1  0  0  0  0
 13 26  1  0  0  0  0
 14  6  1  0  0  0  0
 16 20  1  0  0  0  0
 16 18  1  0  0  0  0
 17 12  1  0  0  0  0
 18 15  1  0  0  0  0
 18  1  1  0  0  0  0
 20 21  1  0  0  0  0
 21 19  1  0  0  0  0
 21  8  1  0  0  0  0
 21  4  1  0  0  0  0
 22 14  1  0  0  0  0
 23  6  1  0  0  0  0
 24 16  1  0  0  0  0
 25 17  1  0  0  0  0
 25 24  1  0  0  0  0
 26 23  1  0  0  0  0
 27 28  1  0  0  0  0
 28 29  1  0  0  0  0
 29 30  1  0  0  0  0
M  END
>  <MODEL>
4

>  <REMARK>
 VINA RESULT:      -4.6      2.414      6.111
  Name = 
  3 active torsions:
  status: ('A' for Active; 'I' for Inactive)
    1  A    between atoms: O_6  and  C_8
    2  A    between atoms: O_6  and  N_21
    3  A    between atoms: C_9  and  N_21
                            x       y       z     vdW  Elec       q    Type
                         _______ _______ _______ _____ _____    ______ ____

>  <TORSDO>
F 3

$$$$
=
 OpenBabel11052412373D

 30 34  0  0  1  0  0  0  0  0999 V2000
  185.5800  177.5340  137.8150 C   0  0  1  0  0  3  0  0  0  0  0  0
  182.5020  178.3890  139.7980 C   0  0  0  0  0  2  0  0  0  0  0  0
  181.2210  177.7110  135.2350 C   0  0  0  0  0  1  0  0  0  0  0  0
  185.8710  176.0820  137.3080 C   0  0  2  0  0  3  0  0  0  0  0  0
  186.3080  178.6130  137.0080 C   0  0  0  0  0  2  0  0  0  0  0  0
  188.2100  172.3900  136.1840 C   0  0  0  0  0  2  0  0  0  0  0  0
  188.2090  176.9180  136.6690 C   0  0  2  0  0  3  0  0  0  0  0  0
  184.9470  173.9470  136.1870 C   0  0  0  0  0  2  0  0  0  0  0  0
  184.1750  176.3610  134.5940 C   0  0  0  0  0  1  0  0  0  0  0  0
  187.8170  178.3690  136.9870 C   0  0  0  0  0  2  0  0  0  0  0  0
  186.9950  176.0720  136.2510 C   0  0  1  0  0  3  0  0  0  0  0  0
  181.2310  178.1120  139.2860 O   0  0  0  0  0  0  0  0  0  0  0  0
  186.0940  174.0110  135.1660 C   0  0  2  0  0  3  0  0  0  0  0  0
  186.8810  171.8810  135.6310 C   0  0  0  0  0  2  0  0  0  0  0  0
  183.5040  177.3990  139.2260 C   0  0  0  0  0  2  0  0  0  0  0  0
  183.3200  177.5220  136.6210 C   0  0  1  0  0  3  0  0  0  0  0  0
  180.8630  179.2260  138.5140 C   0  0  0  0  0  2  0  0  0  0  0  0
  184.0980  177.9020  137.9090 C   0  0  2  0  0  3  0  0  0  0  0  0
  183.9140  174.9180  138.0330 O   0  0  0  0  0  1  0  0  0  0  0  0
  183.6600  176.1450  136.0110 C   0  0  2  0  0  3  0  0  0  0  0  0
  184.6070  175.2820  136.8790 C   0  0  1  0  0  0  0  0  0  0  0  0
  186.3920  172.7380  134.6170 O   0  0  0  0  0  0  0  0  0  0  0  0
  187.9960  173.7740  136.7810 C   0  0  0  0  0  2  0  0  0  0  0  0
  181.8110  177.8250  136.6300 C   0  0  1  0  0  3  0  0  0  0  0  0
  181.5490  179.2360  137.1440 C   0  0  0  0  0  2  0  0  0  0  0  0
  187.3500  174.6790  135.7310 C   0  0  2  0  0  3  0  0  0  0  0  0
  188.8390  176.3650  137.7880 O   0  0  0  0  0  0  0  0  0  0  0  0
  189.5670  177.3810  138.3100 N   0  0  0  0  0  2  0  0  0  0  0  0
  189.7680  177.0720  139.7130 C   0  0  0  0  0  2  0  0  0  0  0  0
  188.7110  177.7730  140.5390 C   0  0  0  0  0  1  0  0  0  0  0  0
  1  5  1  6  0  0  0
  1 18  1  0  0  0  0
  3 24  1  0  0  0  0
  4  1  1  0  0  0  0
  6 23  1  0  0  0  0
  7 10  1  0  0  0  0
  7 27  1  0  0  0  0
  8 21  1  0  0  0  0
  9 20  1  0  0  0  0
 10  5  1  0  0  0  0
 11  7  1  0  0  0  0
 11  4  1  0  0  0  0
 12  2  1  0  0  0  0
 13 26  1  0  0  0  0
 13  8  1  0  0  0  0
 14  6  1  0  0  0  0
 15  2  1  0  0  0  0
 16 24  1  0  0  0  0
 16 18  1  0  0  0  0
 17 12  1  0  0  0  0
 18 15  1  0  0  0  0
 20 16  1  0  0  0  0
 20 21  1  0  0  0  0
 21  4  1  0  0  0  0
 21 19  1  0  0  0  0
 22 13  1  0  0  0  0
 22 14  1  0  0  0  0
 24 25  1  0  0  0  0
 25 17  1  0  0  0  0
 26 11  1  0  0  0  0
 26 23  1  0  0  0  0
 27 28  1  0  0  0  0
 28 29  1  0  0  0  0
 29 30  1  0  0  0  0
M  END
>  <MODEL>
5

>  <REMARK>
 VINA RESULT:      -4.4      3.280      6.139
  Name = 
  3 active torsions:
  status: ('A' for Active; 'I' for Inactive)
    1  A    between atoms: O_6  and  C_8
    2  A    between atoms: O_6  and  N_21
    3  A    between atoms: C_9  and  N_21
                            x       y       z     vdW  Elec       q    Type
                         _______ _______ _______ _____ _____    ______ ____

>  <TORSDO>
F 3

$$$$
=
 OpenBabel11052412373D

 30 34  0  0  1  0  0  0  0  0999 V2000
  184.1590  176.7990  137.8800 C   0  0  1  0  0  3  0  0  0  0  0  0
  182.4820  179.0120  140.4150 C   0  0  0  0  0  2  0  0  0  0  0  0
  179.7840  178.9270  136.4610 C   0  0  0  0  0  1  0  0  0  0  0  0
  183.6250  175.3690  137.5360 C   0  0  2  0  0  3  0  0  0  0  0  0
  185.0210  177.4060  136.7690 C   0  0  0  0  0  2  0  0  0  0  0  0
  183.6770  170.9960  136.4220 C   0  0  0  0  0  2  0  0  0  0  0  0
  185.7990  175.0200  136.2230 C   0  0  2  0  0  3  0  0  0  0  0  0
  181.5800  173.8840  137.0030 C   0  0  0  0  0  2  0  0  0  0  0  0
  181.5240  176.3550  135.3150 C   0  0  0  0  0  1  0  0  0  0  0  0
  186.1930  176.4920  136.4110 C   0  0  0  0  0  2  0  0  0  0  0  0
  184.2740  174.8230  136.2470 C   0  0  1  0  0  3  0  0  0  0  0  0
  181.1310  179.3450  140.2800 O   0  0  0  0  0  0  0  0  0  0  0  0
  182.2930  173.3940  135.7320 C   0  0  2  0  0  3  0  0  0  0  0  0
  182.1620  171.1490  136.2950 C   0  0  0  0  0  2  0  0  0  0  0  0
  182.7370  177.6610  139.7650 C   0  0  0  0  0  2  0  0  0  0  0  0
  181.8860  177.8120  137.2970 C   0  0  1  0  0  3  0  0  0  0  0  0
  181.0850  180.4890  139.4690 C   0  0  0  0  0  2  0  0  0  0  0  0
  183.0860  177.8110  138.2830 C   0  0  2  0  0  3  0  0  0  0  0  0
  181.6560  175.2530  138.8850 O   0  0  0  0  0  1  0  0  0  0  0  0
  181.3980  176.4240  136.8310 C   0  0  2  0  0  3  0  0  0  0  0  0
  182.0750  175.2360  137.5550 C   0  0  1  0  0  0  0  0  0  0  0  0
  181.8300  172.1190  135.3190 O   0  0  0  0  0  0  0  0  0  0  0  0
  184.2720  172.3310  136.8440 C   0  0  0  0  0  2  0  0  0  0  0  0
  180.7370  178.7790  137.6340 C   0  0  1  0  0  3  0  0  0  0  0  0
  181.2800  180.1590  137.9850 C   0  0  0  0  0  2  0  0  0  0  0  0
  183.8180  173.4150  135.8660 C   0  0  2  0  0  3  0  0  0  0  0  0
  186.4150  174.2560  137.2190 O   0  0  0  0  0  0  0  0  0  0  0  0
  187.7070  174.6630  137.2150 N   0  0  0  0  0  2  0  0  0  0  0  0
  188.4910  173.5580  136.6940 C   0  0  0  0  0  2  0  0  0  0  0  0
  187.9310  172.2530  137.2190 C   0  0  0  0  0  1  0  0  0  0  0  0
  1  5  1  6  0  0  0
  1 18  1  0  0  0  0
  3 24  1  0  0  0  0
  4 21  1  0  0  0  0
  4  1  1  0  0  0  0
  6 23  1  0  0  0  0
  7 11  1  0  0  0  0
  7 10  1  0  0  0  0
  7 27  1  0  0  0  0
  8 21  1  0  0  0  0
  9 20  1  0  0  0  0
 10  5  1  0  0  0  0
 11  4  1  0  0  0  0
 12  2  1  0  0  0  0
 13 26  1  0  0  0  0
 13  8  1  0  0  0  0
 14  6  1  0  0  0  0
 15  2  1  0  0  0  0
 16 24  1  0  0  0  0
 16 18  1  0  0  0  0
 17 12  1  0  0  0  0
 18 15  1  0  0  0  0
 20 16  1  0  0  0  0
 20 21  1  0  0  0  0
 21 19  1  0  0  0  0
 22 13  1  0  0  0  0
 22 14  1  0  0  0  0
 24 25  1  0  0  0  0
 25 17  1  0  0  0  0
 26 11  1  0  0  0  0
 26 23  1  0  0  0  0
 28 27  1  0  0  0  0
 29 28  1  0  0  0  0
 29 30  1  0  0  0  0
M  END
>  <MODEL>
6

>  <REMARK>
 VINA RESULT:      -4.3      2.943      5.627
  Name = 
  3 active torsions:
  status: ('A' for Active; 'I' for Inactive)
    1  A    between atoms: O_6  and  C_8
    2  A    between atoms: O_6  and  N_21
    3  A    between atoms: C_9  and  N_21
                            x       y       z     vdW  Elec       q    Type
                         _______ _______ _______ _____ _____    ______ ____

>  <TORSDO>
F 3

$$$$
=
 OpenBabel11052412373D

 30 34  0  0  1  0  0  0  0  0999 V2000
  192.4260  173.0970  136.3050 C   0  0  1  0  0  3  0  0  0  0  0  0
  195.7230  172.8280  138.0920 C   0  0  0  0  0  2  0  0  0  0  0  0
  195.9750  176.4690  134.9920 C   0  0  0  0  0  1  0  0  0  0  0  0
  191.3970  174.2340  136.6150 C   0  0  2  0  0  3  0  0  0  0  0  0
  192.2440  172.4800  134.9150 C   0  0  0  0  0  2  0  0  0  0  0  0
  187.4240  176.2890  137.2120 C   0  0  0  0  0  2  0  0  0  0  0  0
  189.7280  172.9370  135.1650 C   0  0  2  0  0  3  0  0  0  0  0  0
  191.0060  176.7520  137.0400 C   0  0  0  0  0  2  0  0  0  0  0  0
  192.6890  176.3710  134.5940 C   0  0  0  0  0  1  0  0  0  0  0  0
  190.8220  171.9540  134.7210 C   0  0  0  0  0  2  0  0  0  0  0  0
  190.3060  174.3150  135.5280 C   0  0  1  0  0  3  0  0  0  0  0  0
  196.6220  173.8990  138.0820 O   0  0  0  0  0  0  0  0  0  0  0  0
  189.9350  176.7500  135.9370 C   0  0  2  0  0  3  0  0  0  0  0  0
  188.2530  177.5690  137.3060 C   0  0  0  0  0  2  0  0  0  0  0  0
  194.3050  173.3580  137.9540 C   0  0  0  0  0  2  0  0  0  0  0  0
  194.2300  174.8340  135.7980 C   0  0  1  0  0  3  0  0  0  0  0  0
  197.4040  173.7500  136.9270 C   0  0  0  0  0  2  0  0  0  0  0  0
  193.8940  173.4840  136.4860 C   0  0  2  0  0  3  0  0  0  0  0  0
  192.5860  175.5280  138.2350 O   0  0  0  0  0  1  0  0  0  0  0  0
  193.1850  175.9570  135.9730 C   0  0  2  0  0  3  0  0  0  0  0  0
  192.0390  175.6110  136.9550 C   0  0  1  0  0  0  0  0  0  0  0  0
  188.9850  177.7880  136.1150 O   0  0  0  0  0  0  0  0  0  0  0  0
  188.3630  175.1110  136.9960 C   0  0  0  0  0  2  0  0  0  0  0  0
  195.6800  175.3270  135.9490 C   0  0  1  0  0  3  0  0  0  0  0  0
  196.6640  174.1990  135.6620 C   0  0  0  0  0  2  0  0  0  0  0  0
  189.2490  175.3900  135.7820 C   0  0  2  0  0  3  0  0  0  0  0  0
  189.0370  172.3860  136.2480 O   0  0  0  0  0  0  0  0  0  0  0  0
  188.2690  171.4110  135.7060 N   0  0  0  0  0  2  0  0  0  0  0  0
  187.1060  172.0650  135.1350 C   0  0  0  0  0  2  0  0  0  0  0  0
  186.0810  172.3070  136.2220 C   0  0  0  0  0  1  0  0  0  0  0  0
  1  5  1  6  0  0  0
  1 18  1  0  0  0  0
  1  4  1  0  0  0  0
  3 24  1  0  0  0  0
  4 21  1  0  0  0  0
  6 14  1  0  0  0  0
  7 11  1  0  0  0  0
  7 27  1  0  0  0  0
  9 20  1  0  0  0  0
 10  5  1  0  0  0  0
 10  7  1  0  0  0  0
 11 26  1  0  0  0  0
 11  4  1  0  0  0  0
 12  2  1  0  0  0  0
 13 22  1  0  0  0  0
 13  8  1  0  0  0  0
 15  2  1  0  0  0  0
 16 24  1  0  0  0  0
 16 20  1  0  0  0  0
 16 18  1  0  0  0  0
 17 12  1  0  0  0  0
 18 15  1  0  0  0  0
 20 21  1  0  0  0  0
 21  8  1  0  0  0  0
 21 19  1  0  0  0  0
 22 14  1  0  0  0  0
 23  6  1  0  0  0  0
 25 24  1  0  0  0  0
 25 17  1  0  0  0  0
 26 13  1  0  0  0  0
 26 23  1  0  0  0  0
 28 27  1  0  0  0  0
 29 28  1  0  0  0  0
 29 30  1  0  0  0  0
M  END
>  <MODEL>
7

>  <REMARK>
 VINA RESULT:      -4.3      7.279     11.665
  Name = 
  3 active torsions:
  status: ('A' for Active; 'I' for Inactive)
    1  A    between atoms: O_6  and  C_8
    2  A    between atoms: O_6  and  N_21
    3  A    between atoms: C_9  and  N_21
                            x       y       z     vdW  Elec       q    Type
                         _______ _______ _______ _____ _____    ______ ____

>  <TORSDO>
F 3

$$$$
=
 OpenBabel11052412373D

 30 34  0  0  1  0  0  0  0  0999 V2000
  190.2460  175.5970  135.5430 C   0  0  1  0  0  3  0  0  0  0  0  0
  191.3710  172.1050  134.7190 C   0  0  0  0  0  2  0  0  0  0  0  0
  194.9770  174.3810  136.8960 C   0  0  0  0  0  1  0  0  0  0  0  0
  189.8960  176.0400  137.0020 C   0  0  2  0  0  3  0  0  0  0  0  0
  190.6180  176.7680  134.6290 C   0  0  0  0  0  2  0  0  0  0  0  0
  187.7960  178.1710  140.3810 C   0  0  0  0  0  2  0  0  0  0  0  0
  188.9690  178.2000  135.9810 C   0  0  2  0  0  3  0  0  0  0  0  0
  190.5570  176.0090  139.4990 C   0  0  0  0  0  2  0  0  0  0  0  0
  192.9090  176.7950  137.8220 C   0  0  0  0  0  1  0  0  0  0  0  0
  189.5100  177.8210  134.5950 C   0  0  0  0  0  2  0  0  0  0  0  0
  189.7990  177.5750  137.1150 C   0  0  1  0  0  3  0  0  0  0  0  0
  192.4880  171.5530  135.3540 O   0  0  0  0  0  0  0  0  0  0  0  0
  190.4450  177.5420  139.5260 C   0  0  2  0  0  3  0  0  0  0  0  0
  188.9040  177.5880  141.2570 C   0  0  0  0  0  2  0  0  0  0  0  0
  190.7240  173.1300  135.6360 C   0  0  0  0  0  2  0  0  0  0  0  0
  192.5720  174.8560  136.3010 C   0  0  1  0  0  3  0  0  0  0  0  0
  193.6040  171.9340  134.5940 C   0  0  0  0  0  2  0  0  0  0  0  0
  191.3280  174.5210  135.4350 C   0  0  2  0  0  3  0  0  0  0  0  0
  190.3970  174.0570  138.2400 O   0  0  0  0  0  1  0  0  0  0  0  0
  192.2790  175.4130  137.7110 C   0  0  2  0  0  3  0  0  0  0  0  0
  190.7830  175.3910  138.1050 C   0  0  1  0  0  0  0  0  0  0  0  0
  190.1770  178.0340  140.8290 O   0  0  0  0  0  0  0  0  0  0  0  0
  188.0130  177.7130  138.9460 C   0  0  0  0  0  2  0  0  0  0  0  0
  193.7070  173.8170  136.2830 C   0  0  1  0  0  3  0  0  0  0  0  0
  194.0190  173.3860  134.8540 C   0  0  0  0  0  2  0  0  0  0  0  0
  189.4320  178.0780  138.5110 C   0  0  2  0  0  3  0  0  0  0  0  0
  187.6310  177.8050  136.0680 O   0  0  0  0  0  0  0  0  0  0  0  0
  187.1560  177.9180  134.8040 N   0  0  0  0  0  2  0  0  0  0  0  0
  186.0650  176.9690  134.6830 C   0  0  0  0  0  2  0  0  0  0  0  0
  186.3920  175.7220  135.4760 C   0  0  0  0  0  1  0  0  0  0  0  0
  1  5  1  6  0  0  0
  1  4  1  0  0  0  0
  2 12  1  0  0  0  0
  2 15  1  0  0  0  0
  4 11  1  0  0  0  0
  4 21  1  0  0  0  0
  6 14  1  0  0  0  0
  7 27  1  0  0  0  0
  7 11  1  0  0  0  0
  8 13  1  0  0  0  0
 10  5  1  0  0  0  0
 10  7  1  0  0  0  0
 11 26  1  0  0  0  0
 13 22  1  0  0  0  0
 16 20  1  0  0  0  0
 17 25  1  0  0  0  0
 17 12  1  0  0  0  0
 18  1  1  0  0  0  0
 18 15  1  0  0  0  0
 18 16  1  0  0  0  0
 20  9  1  0  0  0  0
 20 21  1  0  0  0  0
 21 19  1  0  0  0  0
 21  8  1  0  0  0  0
 22 14  1  0  0  0  0
 23  6  1  0  0  0  0
 24 16  1  0  0  0  0
 24  3  1  0  0  0  0
 25 24  1  0  0  0  0
 26 23  1  0  0  0  0
 26 13  1  0  0  0  0
 28 27  1  0  0  0  0
 29 28  1  0  0  0  0
 29 30  1  0  0  0  0
M  END
>  <MODEL>
8

>  <REMARK>
 VINA RESULT:      -4.1      5.847     10.371
  Name = 
  3 active torsions:
  status: ('A' for Active; 'I' for Inactive)
    1  A    between atoms: O_6  and  C_8
    2  A    between atoms: O_6  and  N_21
    3  A    between atoms: C_9  and  N_21
                            x       y       z     vdW  Elec       q    Type
                         _______ _______ _______ _____ _____    ______ ____

>  <TORSDO>
F 3

$$$$
=
 OpenBabel11052412373D

 30 34  0  0  1  0  0  0  0  0999 V2000
  180.3240  177.9550  136.9500 C   0  0  1  0  0  3  0  0  0  0  0  0
  179.6160  174.5050  135.6330 C   0  0  0  0  0  2  0  0  0  0  0  0
  183.8050  174.4090  137.9480 C   0  0  0  0  0  1  0  0  0  0  0  0
  180.1920  178.3140  138.4670 C   0  0  2  0  0  3  0  0  0  0  0  0
  181.2510  178.9030  136.1830 C   0  0  0  0  0  2  0  0  0  0  0  0
  179.3040  180.7300  142.1740 C   0  0  0  0  0  2  0  0  0  0  0  0
  180.4760  180.7650  137.7730 C   0  0  2  0  0  3  0  0  0  0  0  0
  180.6750  177.6320  140.9110 C   0  0  0  0  0  2  0  0  0  0  0  0
  183.1610  177.3790  139.2620 C   0  0  0  0  0  1  0  0  0  0  0  0
  180.8040  180.3580  136.3290 C   0  0  0  0  0  2  0  0  0  0  0  0
  180.8570  179.6690  138.7830 C   0  0  1  0  0  3  0  0  0  0  0  0
  180.2980  173.3980  136.1470 O   0  0  0  0  0  0  0  0  0  0  0  0
  181.3290  179.0040  141.1430 C   0  0  2  0  0  3  0  0  0  0  0  0
  179.9560  179.5690  142.9220 C   0  0  0  0  0  2  0  0  0  0  0  0
  179.5270  175.5840  136.7010 C   0  0  0  0  0  2  0  0  0  0  0  0
  181.9630  176.0760  137.5140 C   0  0  1  0  0  3  0  0  0  0  0  0
  181.4800  173.2790  135.4000 C   0  0  0  0  0  2  0  0  0  0  0  0
  180.7420  176.5130  136.6600 C   0  0  2  0  0  3  0  0  0  0  0  0
  179.6170  176.1960  139.4130 O   0  0  0  0  0  1  0  0  0  0  0  0
  181.9370  176.5120  138.9950 C   0  0  2  0  0  3  0  0  0  0  0  0
  180.6110  177.1740  139.4400 C   0  0  1  0  0  0  0  0  0  0  0  0
  181.2960  179.3860  142.5070 O   0  0  0  0  0  0  0  0  0  0  0  0
  179.3120  180.4200  140.6840 C   0  0  0  0  0  2  0  0  0  0  0  0
  182.4420  174.6270  137.3160 C   0  0  1  0  0  3  0  0  0  0  0  0
  182.5460  174.2930  135.8320 C   0  0  0  0  0  2  0  0  0  0  0  0
  180.7410  180.0960  140.2460 C   0  0  2  0  0  3  0  0  0  0  0  0
  179.1140  181.0690  137.8600 O   0  0  0  0  0  0  0  0  0  0  0  0
  178.9920  182.2730  137.2500 N   0  0  0  0  0  2  0  0  0  0  0  0
  179.3060  183.2790  138.2470 C   0  0  0  0  0  2  0  0  0  0  0  0
  180.0630  184.4160  137.5930 C   0  0  0  0  0  1  0  0  0  0  0  0
  1  5  1  1  0  0  0
  1  4  1  0  0  0  0
  2 12  1  0  0  0  0
  2 15  1  0  0  0  0
  4 11  1  0  0  0  0
  4 21  1  0  0  0  0
  5 10  1  0  0  0  0
  6 14  1  0  0  0  0
  7 27  1  0  0  0  0
  7 11  1  0  0  0  0
  8 13  1  0  0  0  0
 10  7  1  0  0  0  0
 11 26  1  0  0  0  0
 13 22  1  0  0  0  0
 16 20  1  0  0  0  0
 17 25  1  0  0  0  0
 17 12  1  0  0  0  0
 18 15  1  0  0  0  0
 18  1  1  0  0  0  0
 18 16  1  0  0  0  0
 19 21  1  0  0  0  0
 20  9  1  0  0  0  0
 20 21  1  0  0  0  0
 21  8  1  0  0  0  0
 22 14  1  0  0  0  0
 23  6  1  0  0  0  0
 24 16  1  0  0  0  0
 24  3  1  0  0  0  0
 25 24  1  0  0  0  0
 26 23  1  0  0  0  0
 26 13  1  0  0  0  0
 28 27  1  0  0  0  0
 28 29  1  0  0  0  0
 30 29  1  0  0  0  0
M  END
>  <MODEL>
9

>  <REMARK>
 VINA RESULT:      -4.1      2.873      6.527
  Name = 
  3 active torsions:
  status: ('A' for Active; 'I' for Inactive)
    1  A    between atoms: O_6  and  C_8
    2  A    between atoms: O_6  and  N_21
    3  A    between atoms: C_9  and  N_21
                            x       y       z     vdW  Elec       q    Type
                         _______ _______ _______ _____ _____    ______ ____

>  <TORSDO>
F 3

$$$$
