=
 OpenBabel11052414133D

 34 38  0  0  1  0  0  0  0  0999 V2000
  188.5100  178.4080  141.7700 C   0  0  2  0  0  3  0  0  0  0  0  0
  189.8570  176.4080  141.9860 C   0  0  0  0  0  0  0  0  0  0  0  0
  189.3520  178.2870  140.1590 S   0  0  0  0  0  0  0  0  0  0  0  0
  190.3190  175.4140  142.5260 O   0  0  0  0  0  0  0  0  0  0  0  0
  190.4690  176.9780  140.7550 C   0  0  2  0  0  3  0  0  0  0  0  0
  188.6350  177.0850  142.5040 C   0  0  1  0  0  3  0  0  0  0  0  0
  187.6150  177.9390  146.0820 C   0  0  0  0  0  0  0  0  0  0  0  0
  186.2580  177.7150  144.0780 C   0  0  0  0  0  3  0  0  0  0  0  0
  188.6820  177.3260  143.9890 C   0  0  0  0  0  0  0  0  0  0  0  0
  185.2300  178.3510  146.1770 C   0  0  0  0  0  3  0  0  0  0  0  0
  185.1230  178.0660  144.8130 C   0  0  0  0  0  3  0  0  0  0  0  0
  187.5130  177.6530  144.7020 C   0  0  0  0  0  0  0  0  0  0  0  0
  186.4740  178.2850  146.8120 C   0  0  0  0  0  3  0  0  0  0  0  0
  189.9910  177.5740  145.9670 C   0  0  0  0  0  3  0  0  0  0  0  0
  188.8580  177.8970  146.7130 C   0  0  0  0  0  3  0  0  0  0  0  0
  189.8820  177.3080  144.6390 N   0  0  0  0  0  0  0  0  0  0  0  0
  190.5840  175.9460  139.7370 N   0  0  0  0  0  2  0  0  0  0  0  0
  190.2810  176.5710  138.4600 C   0  0  0  0  0  2  0  0  0  0  0  0
  191.5360  176.5990  137.6020 C   0  0  2  0  0  3  0  0  0  0  0  0
  190.3640  174.8010  136.4460 O   0  0  0  0  0  1  0  0  0  0  0  0
  191.5360  175.5640  136.4720 C   0  0  2  0  0  3  0  0  0  0  0  0
  192.2890  175.2930  137.7600 C   0  0  1  0  0  3  0  0  0  0  0  0
  194.4270  175.6260  138.7540 O   0  0  0  0  0  1  0  0  0  0  0  0
  193.9500  176.7110  136.8070 O   0  0  0  0  0  1  0  0  0  0  0  0
  193.7690  175.5280  137.5270 C   0  0  0  0  0  3  0  0  0  0  0  0
  187.0450  178.7380  141.5730 C   0  0  0  0  0  2  0  0  0  0  0  0
  186.6740  178.5530  140.1730 N   0  0  0  0  0  2  0  0  0  0  0  0
  183.5220  177.3500  139.1040 N   0  0  0  0  0  0  0  0  0  0  0  0
  185.0790  178.3040  137.6560 O   0  0  0  0  0  0  0  0  0  0  0  0
  185.2900  178.9860  139.9500 C   0  0  1  0  0  3  0  0  0  0  0  0
  184.6320  178.2140  138.8310 C   0  0  0  0  0  0  0  0  0  0  0  0
  183.4270  178.1590  141.3810 C   0  0  0  0  0  3  0  0  0  0  0  0
  184.4870  178.9540  141.2310 C   0  0  0  0  0  3  0  0  0  0  0  0
  182.9590  177.3040  140.2750 C   0  0  0  0  0  3  0  0  0  0  0  0
  1 26  1  6  0  0  0
  1  6  1  0  0  0  0
  2  6  1  0  0  0  0
  2  4  2  0  0  0  0
  3  5  1  0  0  0  0
  3  1  1  0  0  0  0
  5 17  1  6  0  0  0
  5  2  1  0  0  0  0
  6  9  1  1  0  0  0
  7 15  1  0  0  0  0
  7 13  2  0  0  0  0
  8 12  2  0  0  0  0
  8 11  1  0  0  0  0
  9 16  2  0  0  0  0
  9 12  1  0  0  0  0
 10 13  1  0  0  0  0
 11 10  2  0  0  0  0
 12  7  1  0  0  0  0
 14 15  2  0  0  0  0
 16 14  1  0  0  0  0
 18 17  1  0  0  0  0
 19 22  1  0  0  0  0
 19 18  1  1  0  0  0
 21 20  1  1  0  0  0
 21 19  1  0  0  0  0
 21 22  1  0  0  0  0
 22 25  1  6  0  0  0
 24 25  1  0  0  0  0
 25 23  1  0  0  0  0
 27 26  1  0  0  0  0
 28 34  2  0  0  0  0
 29 31  2  0  0  0  0
 30 27  1  1  0  0  0
 30 33  1  0  0  0  0
 31 28  1  0  0  0  0
 31 30  1  0  0  0  0
 33 32  2  0  0  0  0
 34 32  1  0  0  0  0
M  END
>  <MODEL>
1

>  <REMARK>
 VINA RESULT:      -8.9      0.000      0.000
  Name = 
  8 active torsions:
  status: ('A' for Active; 'I' for Inactive)
    1  A    between atoms: C_3  and  C_13
    2  A    between atoms: C_3  and  N_17
    3  A    between atoms: C_4  and  C_31
    4  A    between atoms: C_5  and  C_26
    5  A    between atoms: C_12  and  N_28
    6  A    between atoms: N_17  and  C_29
    7  A    between atoms: C_20  and  C_34
    8  A    between atoms: C_26  and  N_28
                            x       y       z     vdW  Elec       q    Type
                         _______ _______ _______ _____ _____    ______ ____

>  <TORSDO>
F 8

$$$$
=
 OpenBabel11052414133D

 34 38  0  0  1  0  0  0  0  0999 V2000
  188.5240  178.4000  142.0750 C   0  0  2  0  0  3  0  0  0  0  0  0
  189.8520  176.3800  142.2130 C   0  0  0  0  0  0  0  0  0  0  0  0
  189.3290  178.3090  140.4440 S   0  0  0  0  0  0  0  0  0  0  0  0
  190.3140  175.3690  142.7190 O   0  0  0  0  0  0  0  0  0  0  0  0
  190.4440  176.9740  140.9830 C   0  0  2  0  0  3  0  0  0  0  0  0
  188.6500  177.0580  142.7740 C   0  0  1  0  0  3  0  0  0  0  0  0
  187.7220  177.8520  146.3910 C   0  0  0  0  0  0  0  0  0  0  0  0
  186.3200  177.7090  144.4110 C   0  0  0  0  0  3  0  0  0  0  0  0
  188.7320  177.2620  144.2630 C   0  0  0  0  0  0  0  0  0  0  0  0
  185.3500  178.3200  146.5440 C   0  0  0  0  0  3  0  0  0  0  0  0
  185.2090  178.0700  145.1760 C   0  0  0  0  0  3  0  0  0  0  0  0
  187.5860  177.6000  145.0080 C   0  0  0  0  0  0  0  0  0  0  0  0
  186.6050  178.2070  147.1520 C   0  0  0  0  0  3  0  0  0  0  0  0
  190.0850  177.4310  146.2200 C   0  0  0  0  0  3  0  0  0  0  0  0
  188.9750  177.7630  146.9960 C   0  0  0  0  0  3  0  0  0  0  0  0
  189.9430  177.1990  144.8880 N   0  0  0  0  0  0  0  0  0  0  0  0
  190.5250  175.9650  139.9390 N   0  0  0  0  0  2  0  0  0  0  0  0
  191.0800  176.6140  138.7620 C   0  0  0  0  0  2  0  0  0  0  0  0
  190.7340  175.7980  137.5260 C   0  0  2  0  0  3  0  0  0  0  0  0
  189.6470  177.8840  136.8830 O   0  0  0  0  0  1  0  0  0  0  0  0
  189.9090  176.5670  136.4890 C   0  0  2  0  0  3  0  0  0  0  0  0
  189.2320  175.6070  137.4470 C   0  0  1  0  0  3  0  0  0  0  0  0
  187.5560  174.0410  136.8050 O   0  0  0  0  0  1  0  0  0  0  0  0
  189.6440  173.2650  137.2920 O   0  0  0  0  0  1  0  0  0  0  0  0
  188.9220  174.3140  136.7170 C   0  0  0  0  0  3  0  0  0  0  0  0
  187.0590  178.7510  141.9190 C   0  0  0  0  0  2  0  0  0  0  0  0
  186.6700  178.6630  140.5140 N   0  0  0  0  0  2  0  0  0  0  0  0
  183.6220  177.6740  139.0110 N   0  0  0  0  0  0  0  0  0  0  0  0
  185.1900  179.0270  137.9420 O   0  0  0  0  0  0  0  0  0  0  0  0
  185.2770  179.0920  140.3410 C   0  0  1  0  0  3  0  0  0  0  0  0
  184.7010  178.6160  139.0280 C   0  0  0  0  0  0  0  0  0  0  0  0
  183.4000  177.8550  141.4130 C   0  0  0  0  0  3  0  0  0  0  0  0
  184.4270  178.6980  141.5280 C   0  0  0  0  0  3  0  0  0  0  0  0
  183.0170  177.3030  140.1010 C   0  0  0  0  0  3  0  0  0  0  0  0
  1 26  1  6  0  0  0
  1  6  1  0  0  0  0
  2  4  2  0  0  0  0
  2  6  1  0  0  0  0
  3  5  1  0  0  0  0
  3  1  1  0  0  0  0
  5 17  1  6  0  0  0
  5  2  1  0  0  0  0
  6  9  1  1  0  0  0
  7 15  1  0  0  0  0
  7 13  2  0  0  0  0
  8 12  2  0  0  0  0
  8 11  1  0  0  0  0
  9 16  2  0  0  0  0
  9 12  1  0  0  0  0
 10 13  1  0  0  0  0
 11 10  2  0  0  0  0
 12  7  1  0  0  0  0
 14 15  2  0  0  0  0
 16 14  1  0  0  0  0
 18 17  1  0  0  0  0
 19 18  1  1  0  0  0
 21 20  1  1  0  0  0
 21 22  1  0  0  0  0
 21 19  1  0  0  0  0
 22 25  1  6  0  0  0
 22 19  1  0  0  0  0
 25 23  1  0  0  0  0
 25 24  1  0  0  0  0
 27 26  1  0  0  0  0
 28 31  1  0  0  0  0
 28 34  2  0  0  0  0
 29 31  2  0  0  0  0
 30 27  1  1  0  0  0
 30 33  1  0  0  0  0
 31 30  1  0  0  0  0
 32 33  2  0  0  0  0
 34 32  1  0  0  0  0
M  END
>  <MODEL>
2

>  <REMARK>
 VINA RESULT:      -8.8      1.467      2.018
  Name = 
  8 active torsions:
  status: ('A' for Active; 'I' for Inactive)
    1  A    between atoms: C_3  and  C_13
    2  A    between atoms: C_3  and  N_17
    3  A    between atoms: C_4  and  C_31
    4  A    between atoms: C_5  and  C_26
    5  A    between atoms: C_12  and  N_28
    6  A    between atoms: N_17  and  C_29
    7  A    between atoms: C_20  and  C_34
    8  A    between atoms: C_26  and  N_28
                            x       y       z     vdW  Elec       q    Type
                         _______ _______ _______ _____ _____    ______ ____

>  <TORSDO>
F 8

$$$$
=
 OpenBabel11052414133D

 34 38  0  0  1  0  0  0  0  0999 V2000
  188.2640  178.5440  140.6920 C   0  0  2  0  0  3  0  0  0  0  0  0
  189.8980  176.7850  140.3770 C   0  0  0  0  0  0  0  0  0  0  0  0
  188.3870  178.3980  138.8800 S   0  0  0  0  0  0  0  0  0  0  0  0
  190.6990  175.9210  140.7000 O   0  0  0  0  0  0  0  0  0  0  0  0
  189.8530  177.3230  138.9900 C   0  0  2  0  0  3  0  0  0  0  0  0
  188.8970  177.3250  141.3390 C   0  0  1  0  0  3  0  0  0  0  0  0
  189.3370  178.0290  145.0650 C   0  0  0  0  0  0  0  0  0  0  0  0
  187.4480  177.0830  143.8630 C   0  0  0  0  0  3  0  0  0  0  0  0
  189.5010  177.7040  142.6650 C   0  0  0  0  0  0  0  0  0  0  0  0
  187.3090  177.4440  146.2540 C   0  0  0  0  0  3  0  0  0  0  0  0
  186.7290  177.0120  145.0580 C   0  0  0  0  0  3  0  0  0  0  0  0
  188.7550  177.5950  143.8530 C   0  0  0  0  0  0  0  0  0  0  0  0
  188.6130  177.9490  146.2580 C   0  0  0  0  0  3  0  0  0  0  0  0
  191.3300  178.6490  143.8680 C   0  0  0  0  0  3  0  0  0  0  0  0
  190.6280  178.5540  145.0690 C   0  0  0  0  0  3  0  0  0  0  0  0
  190.7560  178.2360  142.7070 N   0  0  0  0  0  0  0  0  0  0  0  0
  189.7170  176.2290  138.0410 N   0  0  0  0  0  2  0  0  0  0  0  0
  188.5570  176.5230  137.2150 C   0  0  0  0  0  2  0  0  0  0  0  0
  188.0430  175.2350  136.5910 C   0  0  2  0  0  3  0  0  0  0  0  0
  186.2870  176.7310  135.8010 O   0  0  0  0  0  1  0  0  0  0  0  0
  186.7410  175.4070  135.8020 C   0  0  2  0  0  3  0  0  0  0  0  0
  186.7130  174.8620  137.2170 C   0  0  1  0  0  3  0  0  0  0  0  0
  186.1150  172.9790  135.8880 O   0  0  0  0  0  1  0  0  0  0  0  0
  185.5700  172.9690  138.1020 O   0  0  0  0  0  1  0  0  0  0  0  0
  186.5300  173.3580  137.1650 C   0  0  0  0  0  3  0  0  0  0  0  0
  186.8130  178.6410  141.1130 C   0  0  0  0  0  2  0  0  0  0  0  0
  185.9640  178.8490  139.9430 N   0  0  0  0  0  2  0  0  0  0  0  0
  182.6690  178.9770  138.6580 N   0  0  0  0  0  0  0  0  0  0  0  0
  184.0490  180.8480  138.8140 O   0  0  0  0  0  0  0  0  0  0  0  0
  184.5750  179.0820  140.3540 C   0  0  1  0  0  3  0  0  0  0  0  0
  183.7570  179.7010  139.2460 C   0  0  0  0  0  0  0  0  0  0  0  0
  182.8930  177.2450  140.3310 C   0  0  0  0  0  3  0  0  0  0  0  0
  183.9450  177.8250  140.9100 C   0  0  0  0  0  3  0  0  0  0  0  0
  182.2630  177.8390  139.1380 C   0  0  0  0  0  3  0  0  0  0  0  0
  1 26  1  6  0  0  0
  1  6  1  0  0  0  0
  2  4  2  0  0  0  0
  2  6  1  0  0  0  0
  3  5  1  0  0  0  0
  3  1  1  0  0  0  0
  5 17  1  6  0  0  0
  5  2  1  0  0  0  0
  6  9  1  1  0  0  0
  7 15  1  0  0  0  0
  7 13  2  0  0  0  0
  8 11  1  0  0  0  0
  9 16  2  0  0  0  0
  9 12  1  0  0  0  0
 10 13  1  0  0  0  0
 11 10  2  0  0  0  0
 12  8  2  0  0  0  0
 12  7  1  0  0  0  0
 14 15  2  0  0  0  0
 16 14  1  0  0  0  0
 18 17  1  0  0  0  0
 19 18  1  1  0  0  0
 19 22  1  0  0  0  0
 21 20  1  1  0  0  0
 21 19  1  0  0  0  0
 21 22  1  0  0  0  0
 22 25  1  6  0  0  0
 23 25  1  0  0  0  0
 25 24  1  0  0  0  0
 27 26  1  0  0  0  0
 28 34  2  0  0  0  0
 28 31  1  0  0  0  0
 29 31  2  0  0  0  0
 30 27  1  6  0  0  0
 30 33  1  0  0  0  0
 31 30  1  0  0  0  0
 32 33  2  0  0  0  0
 34 32  1  0  0  0  0
M  END
>  <MODEL>
3

>  <REMARK>
 VINA RESULT:      -8.7      2.374      3.467
  Name = 
  8 active torsions:
  status: ('A' for Active; 'I' for Inactive)
    1  A    between atoms: C_3  and  C_13
    2  A    between atoms: C_3  and  N_17
    3  A    between atoms: C_4  and  C_31
    4  A    between atoms: C_5  and  C_26
    5  A    between atoms: C_12  and  N_28
    6  A    between atoms: N_17  and  C_29
    7  A    between atoms: C_20  and  C_34
    8  A    between atoms: C_26  and  N_28
                            x       y       z     vdW  Elec       q    Type
                         _______ _______ _______ _____ _____    ______ ____

>  <TORSDO>
F 8

$$$$
=
 OpenBabel11052414133D

 34 38  0  0  1  0  0  0  0  0999 V2000
  187.8860  176.7150  143.1870 C   0  0  2  0  0  3  0  0  0  0  0  0
  188.4460  178.1880  141.3490 C   0  0  0  0  0  0  0  0  0  0  0  0
  189.4930  176.0810  142.6080 S   0  0  0  0  0  0  0  0  0  0  0  0
  188.3030  179.1150  140.5650 O   0  0  0  0  0  0  0  0  0  0  0  0
  189.4460  177.1140  141.1090 C   0  0  2  0  0  3  0  0  0  0  0  0
  187.6530  178.0990  142.6080 C   0  0  1  0  0  3  0  0  0  0  0  0
  183.9320  178.6710  143.2390 C   0  0  0  0  0  0  0  0  0  0  0  0
  185.7930  178.6050  144.8020 C   0  0  0  0  0  3  0  0  0  0  0  0
  186.1800  178.3220  142.3920 C   0  0  0  0  0  0  0  0  0  0  0  0
  183.5350  178.9250  145.6160 C   0  0  0  0  0  3  0  0  0  0  0  0
  184.9040  178.7950  145.8620 C   0  0  0  0  0  3  0  0  0  0  0  0
  185.3170  178.5360  143.4830 C   0  0  0  0  0  0  0  0  0  0  0  0
  183.0490  178.8660  144.3060 C   0  0  0  0  0  3  0  0  0  0  0  0
  184.3320  178.3700  140.8860 C   0  0  0  0  0  3  0  0  0  0  0  0
  183.4420  178.5890  141.9370 C   0  0  0  0  0  3  0  0  0  0  0  0
  185.6610  178.2340  141.1330 N   0  0  0  0  0  0  0  0  0  0  0  0
  190.7580  177.7010  140.8900 N   0  0  0  0  0  2  0  0  0  0  0  0
  191.3010  177.0960  139.6860 C   0  0  0  0  0  2  0  0  0  0  0  0
  190.1580  176.6320  138.7950 C   0  0  2  0  0  3  0  0  0  0  0  0
  191.9750  176.3860  137.1880 O   0  0  0  0  0  1  0  0  0  0  0  0
  190.5960  176.2470  137.3790 C   0  0  2  0  0  3  0  0  0  0  0  0
  189.9820  177.6070  137.6470 C   0  0  1  0  0  3  0  0  0  0  0  0
  187.9730  178.8590  137.3870 O   0  0  0  0  0  1  0  0  0  0  0  0
  187.8180  176.6480  137.9210 O   0  0  0  0  0  1  0  0  0  0  0  0
  188.5360  177.5970  137.1900 C   0  0  0  0  0  3  0  0  0  0  0  0
  187.8680  176.7930  144.7000 C   0  0  0  0  0  2  0  0  0  0  0  0
  189.2180  177.0240  145.2060 N   0  0  0  0  0  2  0  0  0  0  0  0
  190.4050  178.1560  148.3420 N   0  0  0  0  0  0  0  0  0  0  0  0
  191.6850  176.8610  146.8880 O   0  0  0  0  0  0  0  0  0  0  0  0
  189.3100  176.6270  146.6160 C   0  0  1  0  0  3  0  0  0  0  0  0
  190.5380  177.2000  147.2830 C   0  0  0  0  0  0  0  0  0  0  0  0
  188.0120  177.8100  148.3820 C   0  0  0  0  0  3  0  0  0  0  0  0
  188.0360  176.9470  147.3650 C   0  0  0  0  0  3  0  0  0  0  0  0
  189.2490  178.4570  148.8550 C   0  0  0  0  0  3  0  0  0  0  0  0
  1 26  1  1  0  0  0
  2  6  1  0  0  0  0
  3  1  1  0  0  0  0
  4  2  2  0  0  0  0
  5 17  1  1  0  0  0
  5  2  1  0  0  0  0
  5  3  1  0  0  0  0
  6  9  1  6  0  0  0
  6  1  1  0  0  0  0
  7 12  1  0  0  0  0
  7 13  2  0  0  0  0
  8 11  1  0  0  0  0
  9 12  1  0  0  0  0
 10 11  2  0  0  0  0
 12  8  2  0  0  0  0
 13 10  1  0  0  0  0
 14 16  1  0  0  0  0
 14 15  2  0  0  0  0
 15  7  1  0  0  0  0
 16  9  2  0  0  0  0
 18 17  1  0  0  0  0
 19 18  1  1  0  0  0
 21 20  1  1  0  0  0
 21 22  1  0  0  0  0
 21 19  1  0  0  0  0
 22 25  1  6  0  0  0
 22 19  1  0  0  0  0
 25 23  1  0  0  0  0
 25 24  1  0  0  0  0
 26 27  1  0  0  0  0
 28 34  2  0  0  0  0
 29 31  2  0  0  0  0
 30 27  1  6  0  0  0
 30 31  1  0  0  0  0
 30 33  1  0  0  0  0
 31 28  1  0  0  0  0
 32 34  1  0  0  0  0
 33 32  2  0  0  0  0
M  END
>  <MODEL>
4

>  <REMARK>
 VINA RESULT:      -8.6      2.080      5.769
  Name = 
  8 active torsions:
  status: ('A' for Active; 'I' for Inactive)
    1  A    between atoms: C_3  and  C_13
    2  A    between atoms: C_3  and  N_17
    3  A    between atoms: C_4  and  C_31
    4  A    between atoms: C_5  and  C_26
    5  A    between atoms: C_12  and  N_28
    6  A    between atoms: N_17  and  C_29
    7  A    between atoms: C_20  and  C_34
    8  A    between atoms: C_26  and  N_28
                            x       y       z     vdW  Elec       q    Type
                         _______ _______ _______ _____ _____    ______ ____

>  <TORSDO>
F 8

$$$$
=
 OpenBabel11052414133D

 34 38  0  0  1  0  0  0  0  0999 V2000
  187.1410  178.6510  141.4800 C   0  0  2  0  0  3  0  0  0  0  0  0
  187.6190  176.9910  143.1760 C   0  0  0  0  0  0  0  0  0  0  0  0
  188.9090  178.2890  141.2330 S   0  0  0  0  0  0  0  0  0  0  0  0
  187.3890  176.2350  144.1080 O   0  0  0  0  0  0  0  0  0  0  0  0
  189.0110  177.3460  142.7880 C   0  0  2  0  0  3  0  0  0  0  0  0
  186.5230  177.5720  142.3510 C   0  0  1  0  0  3  0  0  0  0  0  0
  183.1170  178.9110  143.4390 C   0  0  0  0  0  0  0  0  0  0  0  0
  183.7880  177.8400  141.3620 C   0  0  0  0  0  3  0  0  0  0  0  0
  185.4110  178.1580  143.1790 C   0  0  0  0  0  0  0  0  0  0  0  0
  181.5150  178.6270  141.6440 C   0  0  0  0  0  3  0  0  0  0  0  0
  182.4950  178.0120  140.8610 C   0  0  0  0  0  3  0  0  0  0  0  0
  184.1130  178.2920  142.6510 C   0  0  0  0  0  0  0  0  0  0  0  0
  181.8240  179.0740  142.9320 C   0  0  0  0  0  3  0  0  0  0  0  0
  184.7280  179.2310  145.1970 C   0  0  0  0  0  3  0  0  0  0  0  0
  183.4280  179.3780  144.7150 C   0  0  0  0  0  3  0  0  0  0  0  0
  185.6800  178.6400  144.4270 N   0  0  0  0  0  0  0  0  0  0  0  0
  189.7840  176.1340  142.5640 N   0  0  0  0  0  2  0  0  0  0  0  0
  190.9420  176.2000  143.4410 C   0  0  0  0  0  2  0  0  0  0  0  0
  190.5020  176.6590  144.8230 C   0  0  2  0  0  3  0  0  0  0  0  0
  192.0550  178.4730  144.3310 O   0  0  0  0  0  1  0  0  0  0  0  0
  191.1730  177.9560  145.2860 C   0  0  2  0  0  3  0  0  0  0  0  0
  191.6830  176.6130  145.7730 C   0  0  1  0  0  3  0  0  0  0  0  0
  189.9090  176.9150  147.3330 O   0  0  0  0  0  1  0  0  0  0  0  0
  192.0550  176.9910  148.0960 O   0  0  0  0  0  1  0  0  0  0  0  0
  191.1890  176.3790  147.1880 C   0  0  0  0  0  3  0  0  0  0  0  0
  186.4240  178.6940  140.1460 C   0  0  0  0  0  2  0  0  0  0  0  0
  187.3250  178.2730  139.0780 N   0  0  0  0  0  2  0  0  0  0  0  0
  186.6170  176.1320  136.3510 N   0  0  0  0  0  0  0  0  0  0  0  0
  188.4540  177.5650  136.4010 O   0  0  0  0  0  0  0  0  0  0  0  0
  186.6160  178.2380  137.7940 C   0  0  1  0  0  3  0  0  0  0  0  0
  187.2870  177.3130  136.8060 C   0  0  0  0  0  0  0  0  0  0  0  0
  184.5900  176.8260  137.4720 C   0  0  0  0  0  3  0  0  0  0  0  0
  185.1490  177.9240  137.9820 C   0  0  0  0  0  3  0  0  0  0  0  0
  185.3770  175.8850  136.6550 C   0  0  0  0  0  3  0  0  0  0  0  0
  1 26  1  6  0  0  0
  1  6  1  0  0  0  0
  2  4  2  0  0  0  0
  3  1  1  0  0  0  0
  3  5  1  0  0  0  0
  5 17  1  6  0  0  0
  5  2  1  0  0  0  0
  6  2  1  0  0  0  0
  6  9  1  1  0  0  0
  7 15  1  0  0  0  0
  8 12  1  0  0  0  0
  9 16  2  0  0  0  0
 10 13  2  0  0  0  0
 11  8  2  0  0  0  0
 11 10  1  0  0  0  0
 12  9  1  0  0  0  0
 12  7  2  0  0  0  0
 13  7  1  0  0  0  0
 15 14  2  0  0  0  0
 16 14  1  0  0  0  0
 17 18  1  0  0  0  0
 19 18  1  6  0  0  0
 19 21  1  0  0  0  0
 19 22  1  0  0  0  0
 21 20  1  6  0  0  0
 21 22  1  0  0  0  0
 22 25  1  1  0  0  0
 25 23  1  0  0  0  0
 25 24  1  0  0  0  0
 27 26  1  0  0  0  0
 28 34  2  0  0  0  0
 28 31  1  0  0  0  0
 29 31  2  0  0  0  0
 30 33  1  0  0  0  0
 30 27  1  1  0  0  0
 31 30  1  0  0  0  0
 32 33  2  0  0  0  0
 34 32  1  0  0  0  0
M  END
>  <MODEL>
5

>  <REMARK>
 VINA RESULT:      -8.3      3.081      5.512
  Name = 
  8 active torsions:
  status: ('A' for Active; 'I' for Inactive)
    1  A    between atoms: C_3  and  C_13
    2  A    between atoms: C_3  and  N_17
    3  A    between atoms: C_4  and  C_31
    4  A    between atoms: C_5  and  C_26
    5  A    between atoms: C_12  and  N_28
    6  A    between atoms: N_17  and  C_29
    7  A    between atoms: C_20  and  C_34
    8  A    between atoms: C_26  and  N_28
                            x       y       z     vdW  Elec       q    Type
                         _______ _______ _______ _____ _____    ______ ____

>  <TORSDO>
F 8

$$$$
=
 OpenBabel11052414133D

 34 38  0  0  1  0  0  0  0  0999 V2000
  187.3670  178.6540  141.7840 C   0  0  2  0  0  3  0  0  0  0  0  0
  187.4100  177.0890  143.6310 C   0  0  0  0  0  0  0  0  0  0  0  0
  189.1370  178.2640  141.9700 S   0  0  0  0  0  0  0  0  0  0  0  0
  186.9570  176.3890  144.5250 O   0  0  0  0  0  0  0  0  0  0  0  0
  188.8600  177.4100  143.5540 C   0  0  2  0  0  3  0  0  0  0  0  0
  186.5440  177.6310  142.5460 C   0  0  1  0  0  3  0  0  0  0  0  0
  182.9620  178.9270  142.7990 C   0  0  0  0  0  0  0  0  0  0  0  0
  184.0270  177.5950  141.0660 C   0  0  0  0  0  3  0  0  0  0  0  0
  185.2840  178.2720  143.0650 C   0  0  0  0  0  0  0  0  0  0  0  0
  181.7190  178.2880  140.8190 C   0  0  0  0  0  3  0  0  0  0  0  0
  182.8420  177.6170  140.3270 C   0  0  0  0  0  3  0  0  0  0  0  0
  184.1000  178.2530  142.3040 C   0  0  0  0  0  0  0  0  0  0  0  0
  181.7780  178.9400  142.0560 C   0  0  0  0  0  3  0  0  0  0  0  0
  184.2190  179.5960  144.7380 C   0  0  0  0  0  3  0  0  0  0  0  0
  183.0240  179.5970  144.0190 C   0  0  0  0  0  3  0  0  0  0  0  0
  185.3100  178.9510  144.2490 N   0  0  0  0  0  0  0  0  0  0  0  0
  189.6390  176.1820  143.5790 N   0  0  0  0  0  2  0  0  0  0  0  0
  190.8590  176.4650  144.3160 C   0  0  0  0  0  2  0  0  0  0  0  0
  190.5560  177.4540  145.4320 C   0  0  2  0  0  3  0  0  0  0  0  0
  192.0550  175.9820  146.6690 O   0  0  0  0  0  1  0  0  0  0  0  0
  191.2570  177.1280  146.7540 C   0  0  2  0  0  3  0  0  0  0  0  0
  189.8030  176.7500  146.5440 C   0  0  1  0  0  3  0  0  0  0  0  0
  189.5840  178.2200  148.4040 O   0  0  0  0  0  1  0  0  0  0  0  0
  187.7290  177.1280  147.6530 O   0  0  0  0  0  1  0  0  0  0  0  0
  188.9220  177.7470  147.2710 C   0  0  0  0  0  3  0  0  0  0  0  0
  186.9750  178.6280  140.3210 C   0  0  0  0  0  2  0  0  0  0  0  0
  188.1680  178.5490  139.4840 N   0  0  0  0  0  2  0  0  0  0  0  0
  189.0550  178.1440  136.0820 N   0  0  0  0  0  0  0  0  0  0  0  0
  187.2040  179.3770  136.7770 O   0  0  0  0  0  0  0  0  0  0  0  0
  187.9230  177.6850  138.3240 C   0  0  1  0  0  3  0  0  0  0  0  0
  188.0190  178.4480  137.0230 C   0  0  0  0  0  0  0  0  0  0  0  0
  189.7130  176.2230  137.3970 C   0  0  0  0  0  3  0  0  0  0  0  0
  188.8100  176.4610  138.3490 C   0  0  0  0  0  3  0  0  0  0  0  0
  189.8510  177.1280  136.2420 C   0  0  0  0  0  3  0  0  0  0  0  0
  1 26  1  6  0  0  0
  1  3  1  0  0  0  0
  1  6  1  0  0  0  0
  2  4  2  0  0  0  0
  3  5  1  0  0  0  0
  5 17  1  6  0  0  0
  5  2  1  0  0  0  0
  6  9  1  1  0  0  0
  6  2  1  0  0  0  0
  7 15  1  0  0  0  0
  8 12  1  0  0  0  0
  9 16  2  0  0  0  0
 10 13  2  0  0  0  0
 11 10  1  0  0  0  0
 11  8  2  0  0  0  0
 12  7  2  0  0  0  0
 12  9  1  0  0  0  0
 13  7  1  0  0  0  0
 15 14  2  0  0  0  0
 16 14  1  0  0  0  0
 17 18  1  0  0  0  0
 19 18  1  6  0  0  0
 19 22  1  0  0  0  0
 19 21  1  0  0  0  0
 21 20  1  6  0  0  0
 22 21  1  0  0  0  0
 22 25  1  1  0  0  0
 25 24  1  0  0  0  0
 25 23  1  0  0  0  0
 27 26  1  0  0  0  0
 28 34  2  0  0  0  0
 28 31  1  0  0  0  0
 29 31  2  0  0  0  0
 30 33  1  0  0  0  0
 30 27  1  1  0  0  0
 31 30  1  0  0  0  0
 32 33  2  0  0  0  0
 34 32  1  0  0  0  0
M  END
>  <MODEL>
6

>  <REMARK>
 VINA RESULT:      -8.2      2.985      6.405
  Name = 
  8 active torsions:
  status: ('A' for Active; 'I' for Inactive)
    1  A    between atoms: C_3  and  C_13
    2  A    between atoms: C_3  and  N_17
    3  A    between atoms: C_4  and  C_31
    4  A    between atoms: C_5  and  C_26
    5  A    between atoms: C_12  and  N_28
    6  A    between atoms: N_17  and  C_29
    7  A    between atoms: C_20  and  C_34
    8  A    between atoms: C_26  and  N_28
                            x       y       z     vdW  Elec       q    Type
                         _______ _______ _______ _____ _____    ______ ____

>  <TORSDO>
F 8

$$$$
=
 OpenBabel11052414133D

 34 38  0  0  1  0  0  0  0  0999 V2000
  191.6720  177.1360  139.4910 C   0  0  2  0  0  3  0  0  0  0  0  0
  189.7500  177.1420  140.9630 C   0  0  0  0  0  0  0  0  0  0  0  0
  192.4110  177.2040  141.1540 S   0  0  0  0  0  0  0  0  0  0  0  0
  188.5670  177.1240  141.2710 O   0  0  0  0  0  0  0  0  0  0  0  0
  190.8010  177.5350  141.9390 C   0  0  2  0  0  3  0  0  0  0  0  0
  190.2110  176.7380  139.6050 C   0  0  1  0  0  3  0  0  0  0  0  0
  188.1520  177.2500  136.4310 C   0  0  0  0  0  0  0  0  0  0  0  0
  188.9060  175.1980  137.4950 C   0  0  0  0  0  3  0  0  0  0  0  0
  189.4180  177.3810  138.4990 C   0  0  0  0  0  0  0  0  0  0  0  0
  187.6640  175.1040  135.4180 C   0  0  0  0  0  3  0  0  0  0  0  0
  188.3290  174.4560  136.4620 C   0  0  0  0  0  3  0  0  0  0  0  0
  188.8280  176.6000  137.4880 C   0  0  0  0  0  0  0  0  0  0  0  0
  187.5720  176.5000  135.4040 C   0  0  0  0  0  3  0  0  0  0  0  0
  188.6820  179.3770  137.4220 C   0  0  0  0  0  3  0  0  0  0  0  0
  188.0790  178.6420  136.4020 C   0  0  0  0  0  3  0  0  0  0  0  0
  189.3370  178.7410  138.4290 N   0  0  0  0  0  0  0  0  0  0  0  0
  190.6810  176.7300  143.1450 N   0  0  0  0  0  2  0  0  0  0  0  0
  191.0970  177.5670  144.2580 C   0  0  0  0  0  2  0  0  0  0  0  0
  189.8720  178.2150  144.8870 C   0  0  2  0  0  3  0  0  0  0  0  0
  190.4850  176.7580  146.7420 O   0  0  0  0  0  1  0  0  0  0  0  0
  189.5630  177.7120  146.3000 C   0  0  2  0  0  3  0  0  0  0  0  0
  188.8000  177.1670  145.1090 C   0  0  1  0  0  3  0  0  0  0  0  0
  186.7170  177.5060  146.2110 O   0  0  0  0  0  1  0  0  0  0  0  0
  186.7350  177.3580  143.9370 O   0  0  0  0  0  1  0  0  0  0  0  0
  187.4320  177.8200  145.0550 C   0  0  0  0  0  3  0  0  0  0  0  0
  192.4040  176.1250  138.6330 C   0  0  0  0  0  2  0  0  0  0  0  0
  193.5530  176.7530  137.9870 N   0  0  0  0  0  2  0  0  0  0  0  0
  194.2940  173.9400  135.9710 N   0  0  0  0  0  0  0  0  0  0  0  0
  195.8980  175.5010  136.6190 O   0  0  0  0  0  0  0  0  0  0  0  0
  193.6450  176.3320  136.5850 C   0  0  1  0  0  3  0  0  0  0  0  0
  194.6840  175.2540  136.3870 C   0  0  0  0  0  0  0  0  0  0  0  0
  192.0280  174.7070  135.6120 C   0  0  0  0  0  3  0  0  0  0  0  0
  192.2910  175.9440  136.0340 C   0  0  0  0  0  3  0  0  0  0  0  0
  193.0720  173.6670  135.6190 C   0  0  0  0  0  3  0  0  0  0  0  0
  1 26  1  6  0  0  0
  1  6  1  0  0  0  0
  1  3  1  0  0  0  0
  2  4  2  0  0  0  0
  2  5  1  0  0  0  0
  3  5  1  0  0  0  0
  5 17  1  1  0  0  0
  6  9  1  6  0  0  0
  6  2  1  0  0  0  0
  7 12  1  0  0  0  0
 10 11  1  0  0  0  0
 11  8  2  0  0  0  0
 12  8  1  0  0  0  0
 12  9  2  0  0  0  0
 13 10  2  0  0  0  0
 13  7  1  0  0  0  0
 14 16  2  0  0  0  0
 15  7  2  0  0  0  0
 15 14  1  0  0  0  0
 16  9  1  0  0  0  0
 17 18  1  0  0  0  0
 19 18  1  6  0  0  0
 19 22  1  0  0  0  0
 19 21  1  0  0  0  0
 21 20  1  6  0  0  0
 22 25  1  1  0  0  0
 22 21  1  0  0  0  0
 24 25  1  0  0  0  0
 25 23  1  0  0  0  0
 27 26  1  0  0  0  0
 28 31  1  0  0  0  0
 30 27  1  1  0  0  0
 31 30  1  0  0  0  0
 31 29  2  0  0  0  0
 32 34  1  0  0  0  0
 32 33  2  0  0  0  0
 33 30  1  0  0  0  0
 34 28  2  0  0  0  0
M  END
>  <MODEL>
7

>  <REMARK>
 VINA RESULT:      -8.0      3.119      8.588
  Name = 
  8 active torsions:
  status: ('A' for Active; 'I' for Inactive)
    1  A    between atoms: C_3  and  C_13
    2  A    between atoms: C_3  and  N_17
    3  A    between atoms: C_4  and  C_31
    4  A    between atoms: C_5  and  C_26
    5  A    between atoms: C_12  and  N_28
    6  A    between atoms: N_17  and  C_29
    7  A    between atoms: C_20  and  C_34
    8  A    between atoms: C_26  and  N_28
                            x       y       z     vdW  Elec       q    Type
                         _______ _______ _______ _____ _____    ______ ____

>  <TORSDO>
F 8

$$$$
=
 OpenBabel11052414133D

 34 38  0  0  1  0  0  0  0  0999 V2000
  192.2370  176.6750  138.4330 C   0  0  2  0  0  3  0  0  0  0  0  0
  190.5300  176.8950  140.1360 C   0  0  0  0  0  0  0  0  0  0  0  0
  193.1810  177.1240  139.9250 S   0  0  0  0  0  0  0  0  0  0  0  0
  189.4030  176.8840  140.6100 O   0  0  0  0  0  0  0  0  0  0  0  0
  191.6680  177.5330  140.8520 C   0  0  2  0  0  3  0  0  0  0  0  0
  190.8390  176.2400  138.8340 C   0  0  1  0  0  3  0  0  0  0  0  0
  188.3820  175.9840  135.9230 C   0  0  0  0  0  0  0  0  0  0  0  0
  189.4630  174.2340  137.2180 C   0  0  0  0  0  3  0  0  0  0  0  0
  189.8590  176.5990  137.7490 C   0  0  0  0  0  0  0  0  0  0  0  0
  188.0030  173.6550  135.3740 C   0  0  0  0  0  3  0  0  0  0  0  0
  188.8490  173.2680  136.4170 C   0  0  0  0  0  3  0  0  0  0  0  0
  189.2400  175.5990  136.9770 C   0  0  0  0  0  0  0  0  0  0  0  0
  187.7670  175.0120  135.1290 C   0  0  0  0  0  3  0  0  0  0  0  0
  188.8010  178.2950  136.4470 C   0  0  0  0  0  3  0  0  0  0  0  0
  188.1620  177.3360  135.6620 C   0  0  0  0  0  3  0  0  0  0  0  0
  189.6310  177.9120  137.4540 N   0  0  0  0  0  0  0  0  0  0  0  0
  191.7690  176.9910  142.1980 N   0  0  0  0  0  2  0  0  0  0  0  0
  191.8550  178.1230  143.1070 C   0  0  0  0  0  2  0  0  0  0  0  0
  190.5020  178.3450  143.7650 C   0  0  2  0  0  3  0  0  0  0  0  0
  191.6770  177.4210  145.6900 O   0  0  0  0  0  1  0  0  0  0  0  0
  190.4520  177.9210  145.2360 C   0  0  2  0  0  3  0  0  0  0  0  0
  189.9010  177.0090  144.1570 C   0  0  1  0  0  3  0  0  0  0  0  0
  187.9110  177.1300  145.4590 O   0  0  0  0  0  1  0  0  0  0  0  0
  187.8490  176.0120  143.4730 O   0  0  0  0  0  1  0  0  0  0  0  0
  188.3880  177.1100  144.1480 C   0  0  0  0  0  3  0  0  0  0  0  0
  192.9250  175.5440  137.6970 C   0  0  0  0  0  2  0  0  0  0  0  0
  194.2050  175.9990  137.1630 N   0  0  0  0  0  2  0  0  0  0  0  0
  197.6640  175.2550  137.2540 N   0  0  0  0  0  0  0  0  0  0  0  0
  196.5140  175.7260  135.2830 O   0  0  0  0  0  0  0  0  0  0  0  0
  195.1460  174.8770  137.0650 C   0  0  1  0  0  3  0  0  0  0  0  0
  196.4670  175.3010  136.4680 C   0  0  0  0  0  0  0  0  0  0  0  0
  196.4750  174.1270  139.0330 C   0  0  0  0  0  3  0  0  0  0  0  0
  195.3060  174.1730  138.3930 C   0  0  0  0  0  3  0  0  0  0  0  0
  197.6850  174.7270  138.4420 C   0  0  0  0  0  3  0  0  0  0  0  0
  1 26  1  1  0  0  0
  1  6  1  0  0  0  0
  1  3  1  0  0  0  0
  2  4  2  0  0  0  0
  2  5  1  0  0  0  0
  3  5  1  0  0  0  0
  5 17  1  1  0  0  0
  6  9  1  6  0  0  0
  6  2  1  0  0  0  0
  7 12  1  0  0  0  0
 10 11  1  0  0  0  0
 11  8  2  0  0  0  0
 12  8  1  0  0  0  0
 12  9  2  0  0  0  0
 13 10  2  0  0  0  0
 13  7  1  0  0  0  0
 14 16  2  0  0  0  0
 15  7  2  0  0  0  0
 15 14  1  0  0  0  0
 16  9  1  0  0  0  0
 17 18  1  0  0  0  0
 19 18  1  6  0  0  0
 19 22  1  0  0  0  0
 19 21  1  0  0  0  0
 21 20  1  6  0  0  0
 22 25  1  1  0  0  0
 22 21  1  0  0  0  0
 24 25  1  0  0  0  0
 25 23  1  0  0  0  0
 27 26  1  0  0  0  0
 28 34  2  0  0  0  0
 29 31  2  0  0  0  0
 30 27  1  1  0  0  0
 30 33  1  0  0  0  0
 31 30  1  0  0  0  0
 31 28  1  0  0  0  0
 33 32  2  0  0  0  0
 34 32  1  0  0  0  0
M  END
>  <MODEL>
8

>  <REMARK>
 VINA RESULT:      -8.0      3.507      9.249
  Name = 
  8 active torsions:
  status: ('A' for Active; 'I' for Inactive)
    1  A    between atoms: C_3  and  C_13
    2  A    between atoms: C_3  and  N_17
    3  A    between atoms: C_4  and  C_31
    4  A    between atoms: C_5  and  C_26
    5  A    between atoms: C_12  and  N_28
    6  A    between atoms: N_17  and  C_29
    7  A    between atoms: C_20  and  C_34
    8  A    between atoms: C_26  and  N_28
                            x       y       z     vdW  Elec       q    Type
                         _______ _______ _______ _____ _____    ______ ____

>  <TORSDO>
F 8

$$$$
=
 OpenBabel11052414133D

 34 38  0  0  1  0  0  0  0  0999 V2000
  192.0900  177.0240  138.7850 C   0  0  2  0  0  3  0  0  0  0  0  0
  190.3560  176.9120  140.4710 C   0  0  0  0  0  0  0  0  0  0  0  0
  192.9930  177.3060  140.3420 S   0  0  0  0  0  0  0  0  0  0  0  0
  189.2270  176.7760  140.9180 O   0  0  0  0  0  0  0  0  0  0  0  0
  191.4500  177.5010  141.2900 C   0  0  2  0  0  3  0  0  0  0  0  0
  190.7140  176.4640  139.0960 C   0  0  1  0  0  3  0  0  0  0  0  0
  188.3140  176.4950  136.1270 C   0  0  0  0  0  0  0  0  0  0  0  0
  189.4830  174.6400  137.1760 C   0  0  0  0  0  3  0  0  0  0  0  0
  189.7280  176.9210  138.0540 C   0  0  0  0  0  0  0  0  0  0  0  0
  188.0850  174.2530  135.2370 C   0  0  0  0  0  3  0  0  0  0  0  0
  188.9400  173.7680  136.2300 C   0  0  0  0  0  3  0  0  0  0  0  0
  189.1800  176.0100  137.1320 C   0  0  0  0  0  0  0  0  0  0  0  0
  187.7700  175.6150  135.1870 C   0  0  0  0  0  3  0  0  0  0  0  0
  188.5850  178.7240  136.9910 C   0  0  0  0  0  3  0  0  0  0  0  0
  188.0160  177.8550  136.0610 C   0  0  0  0  0  3  0  0  0  0  0  0
  189.4240  178.2470  137.9490 N   0  0  0  0  0  0  0  0  0  0  0  0
  191.5660  176.7820  142.5490 N   0  0  0  0  0  2  0  0  0  0  0  0
  191.0730  177.6660  143.5920 C   0  0  0  0  0  2  0  0  0  0  0  0
  190.4200  176.8370  144.6880 C   0  0  2  0  0  3  0  0  0  0  0  0
  188.4030  177.8610  143.7780 O   0  0  0  0  0  1  0  0  0  0  0  0
  188.8980  176.9910  144.7560 C   0  0  2  0  0  3  0  0  0  0  0  0
  189.7890  177.7590  145.7140 C   0  0  1  0  0  3  0  0  0  0  0  0
  189.3700  177.9850  148.0470 O   0  0  0  0  0  1  0  0  0  0  0  0
  191.0430  176.5920  147.3700 O   0  0  0  0  0  1  0  0  0  0  0  0
  189.7670  177.0750  147.0670 C   0  0  0  0  0  3  0  0  0  0  0  0
  192.8470  176.0450  137.9110 C   0  0  0  0  0  2  0  0  0  0  0  0
  194.1470  175.7450  138.5030 N   0  0  0  0  0  2  0  0  0  0  0  0
  196.0630  172.7700  138.4400 N   0  0  0  0  0  0  0  0  0  0  0  0
  196.9840  174.8700  138.8580 O   0  0  0  0  0  0  0  0  0  0  0  0
  194.9380  174.9020  137.5990 C   0  0  1  0  0  3  0  0  0  0  0  0
  196.0600  174.1980  138.3250 C   0  0  0  0  0  0  0  0  0  0  0  0
  194.1670  172.6260  136.9450 C   0  0  0  0  0  3  0  0  0  0  0  0
  194.0590  173.9500  136.8210 C   0  0  0  0  0  3  0  0  0  0  0  0
  195.1930  172.0300  137.8190 C   0  0  0  0  0  3  0  0  0  0  0  0
  1 26  1  6  0  0  0
  1  6  1  0  0  0  0
  1  3  1  0  0  0  0
  2  4  2  0  0  0  0
  2  5  1  0  0  0  0
  3  5  1  0  0  0  0
  5 17  1  1  0  0  0
  6  9  1  6  0  0  0
  6  2  1  0  0  0  0
  7 12  1  0  0  0  0
 10 11  1  0  0  0  0
 11  8  2  0  0  0  0
 12  8  1  0  0  0  0
 12  9  2  0  0  0  0
 13 10  2  0  0  0  0
 13  7  1  0  0  0  0
 14 16  2  0  0  0  0
 15  7  2  0  0  0  0
 15 14  1  0  0  0  0
 16  9  1  0  0  0  0
 17 18  1  0  0  0  0
 19 18  1  6  0  0  0
 19 21  1  0  0  0  0
 19 22  1  0  0  0  0
 21 20  1  6  0  0  0
 21 22  1  0  0  0  0
 22 25  1  1  0  0  0
 25 24  1  0  0  0  0
 25 23  1  0  0  0  0
 26 27  1  0  0  0  0
 30 31  1  0  0  0  0
 30 27  1  1  0  0  0
 31 28  1  0  0  0  0
 31 29  2  0  0  0  0
 32 34  1  0  0  0  0
 33 32  2  0  0  0  0
 33 30  1  0  0  0  0
 34 28  2  0  0  0  0
M  END
>  <MODEL>
9

>  <REMARK>
 VINA RESULT:      -8.0      3.544      9.124
  Name = 
  8 active torsions:
  status: ('A' for Active; 'I' for Inactive)
    1  A    between atoms: C_3  and  C_13
    2  A    between atoms: C_3  and  N_17
    3  A    between atoms: C_4  and  C_31
    4  A    between atoms: C_5  and  C_26
    5  A    between atoms: C_12  and  N_28
    6  A    between atoms: N_17  and  C_29
    7  A    between atoms: C_20  and  C_34
    8  A    between atoms: C_26  and  N_28
                            x       y       z     vdW  Elec       q    Type
                         _______ _______ _______ _____ _____    ______ ____

>  <TORSDO>
F 8

$$$$
