=
 OpenBabel11052414343D

 32 36  0  0  1  0  0  0  0  0999 V2000
  187.8510  177.2300  143.1420 C   0  0  1  0  0  3  0  0  0  0  0  0
  187.1560  178.0910  140.8930 C   0  0  0  0  0  0  0  0  0  0  0  0
  187.6830  177.7080  144.5850 C   0  0  0  0  0  2  0  0  0  0  0  0
  186.9000  177.9510  142.2080 C   0  0  0  0  0  0  0  0  0  0  0  0
  186.1200  178.6870  139.9800 C   0  0  0  0  0  0  0  0  0  0  0  0
  189.4450  175.0380  136.0700 C   0  0  0  0  0  1  0  0  0  0  0  0
  188.5230  177.7340  140.3190 C   0  0  1  0  0  3  0  0  0  0  0  0
  187.4990  177.0050  136.5760 S   0  0  0  0  0  0  0  0  0  0  0  0
  187.4030  177.7390  138.0820 C   0  0  0  0  0  0  0  0  0  0  0  0
  185.6150  178.4420  142.7400 C   0  0  0  0  0  0  0  0  0  0  0  0
  186.4420  178.8050  138.5050 C   0  0  0  0  0  2  0  0  0  0  0  0
  184.7190  179.0690  141.8750 O   0  0  0  0  0  0  0  0  0  0  0  0
  185.3160  178.3190  144.0370 C   0  0  0  0  0  3  0  0  0  0  0  0
  189.3610  176.8060  141.2100 C   0  0  0  0  0  2  0  0  0  0  0  0
  189.3080  177.2510  142.6690 C   0  0  1  0  0  3  0  0  0  0  0  0
  188.3810  177.2210  138.9140 C   0  0  0  0  0  0  0  0  0  0  0  0
  184.9490  179.1510  140.4950 C   0  0  0  0  0  0  0  0  0  0  0  0
  186.2160  177.5880  144.9960 C   0  0  0  0  0  2  0  0  0  0  0  0
  188.7950  176.0100  136.9870 C   0  0  0  0  0  0  0  0  0  0  0  0
  189.1800  176.2440  138.3010 C   0  0  0  0  0  3  0  0  0  0  0  0
  183.9250  179.7350  139.7270 O   0  0  0  0  0  0  0  0  0  0  0  0
  182.6450  179.1640  139.4880 C   0  0  0  0  0  1  0  0  0  0  0  0
  189.9770  178.6100  142.8760 C   0  0  0  0  0  2  0  0  0  0  0  0
  191.3970  178.4210  143.3770 C   0  0  0  0  0  2  0  0  0  0  0  0
  191.3920  177.8880  144.8010 C   0  0  0  0  0  2  0  0  0  0  0  0
  191.7780  176.4390  144.8460 C   0  0  0  0  0  0  0  0  0  0  0  0
  192.3830  175.7230  148.3850 O   0  0  0  0  0  0  0  0  0  0  0  0
  191.7790  175.7580  143.7850 O   0  0  0  0  0  0  0  0  0  0  0  0
  192.1480  175.8050  146.0750 N   0  0  0  0  0  2  0  0  0  0  0  0
  191.7990  176.2420  147.3960 C   0  0  0  0  0  0  0  0  0  0  0  0
  190.6860  177.2160  147.6330 C   0  0  0  0  0  2  0  0  0  0  0  0
  189.3410  176.5200  147.5710 C   0  0  0  0  0  1  0  0  0  0  0  0
  1  3  1  1  0  0  0
  2  4  2  0  0  0  0
  3 18  1  0  0  0  0
  4 10  1  0  0  0  0
  4  1  1  0  0  0  0
  5 17  2  0  0  0  0
  5  2  1  0  0  0  0
  6 19  1  0  0  0  0
  7  2  1  0  0  0  0
  7 14  1  1  0  0  0
  8 19  1  0  0  0  0
  8  9  1  0  0  0  0
  9 11  1  0  0  0  0
  9 16  2  0  0  0  0
 10 13  2  0  0  0  0
 11  5  1  0  0  0  0
 12 10  1  0  0  0  0
 13 18  1  0  0  0  0
 14 15  1  0  0  0  0
 15 23  1  6  0  0  0
 15  1  1  0  0  0  0
 16  7  1  0  0  0  0
 17 12  1  0  0  0  0
 19 20  2  0  0  0  0
 20 16  1  0  0  0  0
 21 17  1  0  0  0  0
 22 21  1  0  0  0  0
 23 24  1  0  0  0  0
 24 25  1  0  0  0  0
 25 26  1  0  0  0  0
 26 29  1  0  0  0  0
 28 26  2  0  0  0  0
 29 30  1  0  0  0  0
 30 31  1  0  0  0  0
 30 27  2  0  0  0  0
 32 31  1  0  0  0  0
M  END
>  <MODEL>
1

>  <REMARK>
 VINA RESULT:      -8.2      0.000      0.000
  Name = 
  6 active torsions:
  status: ('A' for Active; 'I' for Inactive)
    1  A    between atoms: C_3  and  C_22
    2  A    between atoms: O_13  and  C_29
    3  A    between atoms: C_15  and  C_26
    4  A    between atoms: C_16  and  C_23
    5  A    between atoms: C_16  and  C_27
    6  A    between atoms: C_22  and  C_23
                            x       y       z     vdW  Elec       q    Type
                         _______ _______ _______ _____ _____    ______ ____

>  <TORSDO>
F 6

$$$$
=
 OpenBabel11052414343D

 32 36  0  0  1  0  0  0  0  0999 V2000
  188.1290  176.7890  143.5820 C   0  0  1  0  0  3  0  0  0  0  0  0
  187.9760  177.7620  141.2770 C   0  0  0  0  0  0  0  0  0  0  0  0
  187.6840  177.2300  144.9770 C   0  0  0  0  0  2  0  0  0  0  0  0
  187.4400  177.5960  142.5020 C   0  0  0  0  0  0  0  0  0  0  0  0
  187.1930  178.4500  140.1940 C   0  0  0  0  0  0  0  0  0  0  0  0
  191.0750  174.7290  136.9160 C   0  0  0  0  0  1  0  0  0  0  0  0
  189.4140  177.3390  140.9890 C   0  0  1  0  0  3  0  0  0  0  0  0
  189.1730  176.7950  137.0860 S   0  0  0  0  0  0  0  0  0  0  0  0
  188.7980  177.4850  138.5690 C   0  0  0  0  0  0  0  0  0  0  0  0
  186.0990  178.1480  142.7720 C   0  0  0  0  0  0  0  0  0  0  0  0
  187.8270  178.5940  138.8260 C   0  0  0  0  0  2  0  0  0  0  0  0
  185.4420  178.8560  141.7660 O   0  0  0  0  0  0  0  0  0  0  0  0
  185.5240  178.0030  143.9690 C   0  0  0  0  0  3  0  0  0  0  0  0
  189.9920  176.3340  141.9960 C   0  0  0  0  0  2  0  0  0  0  0  0
  189.6520  176.7350  143.4290 C   0  0  1  0  0  3  0  0  0  0  0  0
  189.5470  176.8820  139.5650 C   0  0  0  0  0  0  0  0  0  0  0  0
  185.9650  178.9680  140.4700 C   0  0  0  0  0  0  0  0  0  0  0  0
  186.1590  177.1880  145.0640 C   0  0  0  0  0  2  0  0  0  0  0  0
  190.2980  175.7100  137.7170 C   0  0  0  0  0  0  0  0  0  0  0  0
  190.4050  175.8770  139.0920 C   0  0  0  0  0  3  0  0  0  0  0  0
  185.1610  179.6380  139.5300 O   0  0  0  0  0  0  0  0  0  0  0  0
  183.7950  179.3520  139.2610 C   0  0  0  0  0  1  0  0  0  0  0  0
  190.3340  178.0430  143.8320 C   0  0  0  0  0  2  0  0  0  0  0  0
  191.3800  177.7790  144.8990 C   0  0  0  0  0  2  0  0  0  0  0  0
  191.1290  176.4380  145.5710 C   0  0  0  0  0  2  0  0  0  0  0  0
  191.9320  176.2970  146.8300 C   0  0  0  0  0  0  0  0  0  0  0  0
  190.3290  178.5390  149.2390 O   0  0  0  0  0  0  0  0  0  0  0  0
  192.8900  175.4790  146.8730 O   0  0  0  0  0  0  0  0  0  0  0  0
  191.6340  177.0750  147.9950 N   0  0  0  0  0  2  0  0  0  0  0  0
  190.3790  177.6990  148.3020 C   0  0  0  0  0  0  0  0  0  0  0  0
  189.1120  177.2970  147.6120 C   0  0  0  0  0  2  0  0  0  0  0  0
  187.9020  177.7340  148.4120 C   0  0  0  0  0  1  0  0  0  0  0  0
  1  3  1  1  0  0  0
  2  4  2  0  0  0  0
  3 18  1  0  0  0  0
  4 10  1  0  0  0  0
  4  1  1  0  0  0  0
  5 17  2  0  0  0  0
  5  2  1  0  0  0  0
  6 19  1  0  0  0  0
  7  2  1  0  0  0  0
  7 14  1  1  0  0  0
  8 19  1  0  0  0  0
  8  9  1  0  0  0  0
  9 11  1  0  0  0  0
  9 16  2  0  0  0  0
 10 13  2  0  0  0  0
 11  5  1  0  0  0  0
 12 10  1  0  0  0  0
 13 18  1  0  0  0  0
 14 15  1  0  0  0  0
 15  1  1  0  0  0  0
 15 23  1  6  0  0  0
 16  7  1  0  0  0  0
 17 12  1  0  0  0  0
 19 20  2  0  0  0  0
 20 16  1  0  0  0  0
 21 17  1  0  0  0  0
 22 21  1  0  0  0  0
 23 24  1  0  0  0  0
 24 25  1  0  0  0  0
 25 26  1  0  0  0  0
 26 28  2  0  0  0  0
 26 29  1  0  0  0  0
 29 30  1  0  0  0  0
 30 27  2  0  0  0  0
 31 30  1  0  0  0  0
 31 32  1  0  0  0  0
M  END
>  <MODEL>
2

>  <REMARK>
 VINA RESULT:      -7.9      1.297      1.602
  Name = 
  6 active torsions:
  status: ('A' for Active; 'I' for Inactive)
    1  A    between atoms: C_3  and  C_22
    2  A    between atoms: O_13  and  C_29
    3  A    between atoms: C_15  and  C_26
    4  A    between atoms: C_16  and  C_23
    5  A    between atoms: C_16  and  C_27
    6  A    between atoms: C_22  and  C_23
                            x       y       z     vdW  Elec       q    Type
                         _______ _______ _______ _____ _____    ______ ____

>  <TORSDO>
F 6

$$$$
=
 OpenBabel11052414343D

 32 36  0  0  1  0  0  0  0  0999 V2000
  188.5650  177.2360  142.0250 C   0  0  1  0  0  3  0  0  0  0  0  0
  189.1330  177.6950  139.6270 C   0  0  0  0  0  0  0  0  0  0  0  0
  187.7370  177.9450  143.0980 C   0  0  0  0  0  2  0  0  0  0  0  0
  188.2520  177.7730  140.6430 C   0  0  0  0  0  0  0  0  0  0  0  0
  188.7280  178.1110  138.2400 C   0  0  0  0  0  0  0  0  0  0  0  0
  193.2970  173.9210  137.1280 C   0  0  0  0  0  1  0  0  0  0  0  0
  190.5780  177.2720  139.8750 C   0  0  1  0  0  3  0  0  0  0  0  0
  191.4930  175.9090  136.2850 S   0  0  0  0  0  0  0  0  0  0  0  0
  190.7150  176.8830  137.4080 C   0  0  0  0  0  0  0  0  0  0  0  0
  186.9090  178.3210  140.3800 C   0  0  0  0  0  0  0  0  0  0  0  0
  189.7450  177.9860  137.1250 C   0  0  0  0  0  2  0  0  0  0  0  0
  186.6020  178.7780  139.0980 O   0  0  0  0  0  0  0  0  0  0  0  0
  185.9990  178.4120  141.3550 C   0  0  0  0  0  3  0  0  0  0  0  0
  190.8000  176.5220  141.1970 C   0  0  0  0  0  2  0  0  0  0  0  0
  190.0620  177.2040  142.3460 C   0  0  1  0  0  3  0  0  0  0  0  0
  191.1150  176.5300  138.6850 C   0  0  0  0  0  0  0  0  0  0  0  0
  187.4900  178.6330  138.0240 C   0  0  0  0  0  0  0  0  0  0  0  0
  186.2550  177.8680  142.7350 C   0  0  0  0  0  2  0  0  0  0  0  0
  192.3460  175.0210  137.4360 C   0  0  0  0  0  0  0  0  0  0  0  0
  192.0450  175.4790  138.7120 C   0  0  0  0  0  3  0  0  0  0  0  0
  187.0230  179.0610  136.7680 O   0  0  0  0  0  0  0  0  0  0  0  0
  186.5940  178.2090  135.7130 C   0  0  0  0  0  1  0  0  0  0  0  0
  190.6320  178.5900  142.6470 C   0  0  0  0  0  2  0  0  0  0  0  0
  191.2780  178.6020  144.0200 C   0  0  0  0  0  2  0  0  0  0  0  0
  190.2350  178.3640  145.1010 C   0  0  0  0  0  2  0  0  0  0  0  0
  190.7020  177.3440  146.0970 C   0  0  0  0  0  0  0  0  0  0  0  0
  188.2310  177.4510  148.7970 O   0  0  0  0  0  0  0  0  0  0  0  0
  191.7250  176.6500  145.8510 O   0  0  0  0  0  0  0  0  0  0  0  0
  190.0070  177.1390  147.3330 N   0  0  0  0  0  2  0  0  0  0  0  0
  188.6400  177.4740  147.6050 C   0  0  0  0  0  0  0  0  0  0  0  0
  187.6630  177.7440  146.5030 C   0  0  0  0  0  2  0  0  0  0  0  0
  186.4040  178.3910  147.0460 C   0  0  0  0  0  1  0  0  0  0  0  0
  1 15  1  0  0  0  0
  1  3  1  1  0  0  0
  2  7  1  0  0  0  0
  2  4  2  0  0  0  0
  4  1  1  0  0  0  0
  5  2  1  0  0  0  0
  6 19  1  0  0  0  0
  7 14  1  1  0  0  0
  8  9  1  0  0  0  0
  8 19  1  0  0  0  0
  9 16  2  0  0  0  0
 10  4  1  0  0  0  0
 10 13  2  0  0  0  0
 11  9  1  0  0  0  0
 11  5  1  0  0  0  0
 12 10  1  0  0  0  0
 13 18  1  0  0  0  0
 14 15  1  0  0  0  0
 15 23  1  6  0  0  0
 16 20  1  0  0  0  0
 16  7  1  0  0  0  0
 17  5  2  0  0  0  0
 17 12  1  0  0  0  0
 18  3  1  0  0  0  0
 19 20  2  0  0  0  0
 21 17  1  0  0  0  0
 22 21  1  0  0  0  0
 23 24  1  0  0  0  0
 24 25  1  0  0  0  0
 25 26  1  0  0  0  0
 26 29  1  0  0  0  0
 28 26  2  0  0  0  0
 29 30  1  0  0  0  0
 30 27  2  0  0  0  0
 31 32  1  0  0  0  0
 31 30  1  0  0  0  0
M  END
>  <MODEL>
3

>  <REMARK>
 VINA RESULT:      -7.6      2.249      3.013
  Name = 
  6 active torsions:
  status: ('A' for Active; 'I' for Inactive)
    1  A    between atoms: C_3  and  C_22
    2  A    between atoms: O_13  and  C_29
    3  A    between atoms: C_15  and  C_26
    4  A    between atoms: C_16  and  C_23
    5  A    between atoms: C_16  and  C_27
    6  A    between atoms: C_22  and  C_23
                            x       y       z     vdW  Elec       q    Type
                         _______ _______ _______ _____ _____    ______ ____

>  <TORSDO>
F 6

$$$$
=
 OpenBabel11052414343D

 32 36  0  0  1  0  0  0  0  0999 V2000
  186.3330  179.2430  145.6170 C   0  0  1  0  0  3  0  0  0  0  0  0
  187.8930  177.6420  144.4840 C   0  0  0  0  0  0  0  0  0  0  0  0
  185.6390  179.3010  146.9790 C   0  0  0  0  0  2  0  0  0  0  0  0
  187.4610  178.2320  145.6150 C   0  0  0  0  0  0  0  0  0  0  0  0
  189.1070  176.7540  144.5100 C   0  0  0  0  0  0  0  0  0  0  0  0
  189.0570  178.8250  138.5620 C   0  0  0  0  0  1  0  0  0  0  0  0
  187.1150  177.7860  143.1800 C   0  0  1  0  0  3  0  0  0  0  0  0
  190.0320  177.1440  140.5970 S   0  0  0  0  0  0  0  0  0  0  0  0
  189.1950  176.9860  142.0430 C   0  0  0  0  0  0  0  0  0  0  0  0
  188.1650  177.9500  146.8800 C   0  0  0  0  0  0  0  0  0  0  0  0
  189.5700  176.1290  143.2110 C   0  0  0  0  0  2  0  0  0  0  0  0
  189.2320  177.0520  146.8760 O   0  0  0  0  0  0  0  0  0  0  0  0
  187.7760  178.5170  148.0260 C   0  0  0  0  0  3  0  0  0  0  0  0
  186.1430  178.9740  143.1500 C   0  0  0  0  0  2  0  0  0  0  0  0
  185.3530  179.0700  144.4520 C   0  0  1  0  0  3  0  0  0  0  0  0
  188.0560  177.7710  142.0090 C   0  0  0  0  0  0  0  0  0  0  0  0
  189.7290  176.4920  145.6910 C   0  0  0  0  0  0  0  0  0  0  0  0
  186.6770  179.5460  148.0720 C   0  0  0  0  0  2  0  0  0  0  0  0
  188.9370  178.2310  139.9200 C   0  0  0  0  0  0  0  0  0  0  0  0
  187.8960  178.4770  140.8060 C   0  0  0  0  0  3  0  0  0  0  0  0
  190.8620  175.6670  145.8200 O   0  0  0  0  0  0  0  0  0  0  0  0
  192.0470  175.9990  146.5330 C   0  0  0  0  0  1  0  0  0  0  0  0
  184.4170  177.8750  144.6400 C   0  0  0  0  0  2  0  0  0  0  0  0
  182.9800  178.3510  144.7530 C   0  0  0  0  0  2  0  0  0  0  0  0
  182.6050  179.2030  143.5500 C   0  0  0  0  0  2  0  0  0  0  0  0
  181.2170  178.8950  143.0720 C   0  0  0  0  0  0  0  0  0  0  0  0
  181.4350  178.9500  139.4170 O   0  0  0  0  0  0  0  0  0  0  0  0
  180.3090  178.6390  143.9080 O   0  0  0  0  0  0  0  0  0  0  0  0
  180.8950  178.8840  141.6760 N   0  0  0  0  0  2  0  0  0  0  0  0
  181.8190  178.7070  140.5930 C   0  0  0  0  0  0  0  0  0  0  0  0
  183.1870  178.1400  140.8110 C   0  0  0  0  0  2  0  0  0  0  0  0
  184.2390  178.9990  140.1390 C   0  0  0  0  0  1  0  0  0  0  0  0
  1  3  1  1  0  0  0
  2  5  1  0  0  0  0
  2  4  2  0  0  0  0
  3 18  1  0  0  0  0
  4  1  1  0  0  0  0
  4 10  1  0  0  0  0
  5 17  2  0  0  0  0
  6 19  1  0  0  0  0
  7 14  1  1  0  0  0
  7  2  1  0  0  0  0
  8  9  1  0  0  0  0
  9 11  1  0  0  0  0
 10 13  2  0  0  0  0
 11  5  1  0  0  0  0
 12 10  1  0  0  0  0
 13 18  1  0  0  0  0
 14 15  1  0  0  0  0
 15 23  1  1  0  0  0
 15  1  1  0  0  0  0
 16  9  2  0  0  0  0
 16  7  1  0  0  0  0
 17 21  1  0  0  0  0
 17 12  1  0  0  0  0
 19  8  1  0  0  0  0
 19 20  2  0  0  0  0
 20 16  1  0  0  0  0
 21 22  1  0  0  0  0
 23 24  1  0  0  0  0
 25 24  1  0  0  0  0
 26 25  1  0  0  0  0
 26 28  2  0  0  0  0
 27 30  2  0  0  0  0
 29 26  1  0  0  0  0
 30 31  1  0  0  0  0
 30 29  1  0  0  0  0
 32 31  1  0  0  0  0
M  END
>  <MODEL>
4

>  <REMARK>
 VINA RESULT:      -7.4      3.151      7.596
  Name = 
  6 active torsions:
  status: ('A' for Active; 'I' for Inactive)
    1  A    between atoms: C_3  and  C_22
    2  A    between atoms: O_13  and  C_29
    3  A    between atoms: C_15  and  C_26
    4  A    between atoms: C_16  and  C_23
    5  A    between atoms: C_16  and  C_27
    6  A    between atoms: C_22  and  C_23
                            x       y       z     vdW  Elec       q    Type
                         _______ _______ _______ _____ _____    ______ ____

>  <TORSDO>
F 6

$$$$
=
 OpenBabel11052414343D

 32 36  0  0  1  0  0  0  0  0999 V2000
  186.6830  178.8880  141.4030 C   0  0  1  0  0  3  0  0  0  0  0  0
  184.5160  178.0470  140.4660 C   0  0  0  0  0  0  0  0  0  0  0  0
  188.1560  178.5080  141.2400 C   0  0  0  0  0  2  0  0  0  0  0  0
  185.8320  178.2840  140.3050 C   0  0  0  0  0  0  0  0  0  0  0  0
  183.6830  177.5800  139.3040 C   0  0  0  0  0  0  0  0  0  0  0  0
  179.4410  180.4820  142.9450 C   0  0  0  0  0  1  0  0  0  0  0  0
  183.8630  178.1580  141.8410 C   0  0  1  0  0  3  0  0  0  0  0  0
  180.1370  178.8690  140.7460 S   0  0  0  0  0  0  0  0  0  0  0  0
  181.6820  178.2290  140.6180 C   0  0  0  0  0  0  0  0  0  0  0  0
  186.4460  178.0260  138.9890 C   0  0  0  0  0  0  0  0  0  0  0  0
  182.2030  177.3470  139.5260 C   0  0  0  0  0  2  0  0  0  0  0  0
  185.6560  177.5090  137.9620 O   0  0  0  0  0  0  0  0  0  0  0  0
  187.7470  178.2520  138.7810 C   0  0  0  0  0  3  0  0  0  0  0  0
  184.6660  178.9820  142.8580 C   0  0  0  0  0  2  0  0  0  0  0  0
  186.1480  178.6180  142.8130 C   0  0  1  0  0  3  0  0  0  0  0  0
  182.4410  178.6230  141.7060 C   0  0  0  0  0  0  0  0  0  0  0  0
  184.2740  177.3300  138.1040 C   0  0  0  0  0  0  0  0  0  0  0  0
  188.6250  178.8750  139.8330 C   0  0  0  0  0  2  0  0  0  0  0  0
  180.4370  179.6660  142.2010 C   0  0  0  0  0  0  0  0  0  0  0  0
  181.7430  179.4340  142.6130 C   0  0  0  0  0  3  0  0  0  0  0  0
  183.5840  176.8800  136.9640 O   0  0  0  0  0  0  0  0  0  0  0  0
  184.0540  176.9740  135.6250 C   0  0  0  0  0  1  0  0  0  0  0  0
  186.3950  177.1810  143.2740 C   0  0  0  0  0  2  0  0  0  0  0  0
  186.7710  177.1620  144.7430 C   0  0  0  0  0  2  0  0  0  0  0  0
  188.2400  177.5130  144.9220 C   0  0  0  0  0  2  0  0  0  0  0  0
  188.6310  177.5190  146.3700 C   0  0  0  0  0  0  0  0  0  0  0  0
  192.1250  176.4260  146.4180 O   0  0  0  0  0  0  0  0  0  0  0  0
  187.8060  177.9080  147.2400 O   0  0  0  0  0  0  0  0  0  0  0  0
  189.9300  177.0880  146.7930 N   0  0  0  0  0  2  0  0  0  0  0  0
  191.1140  177.0400  145.9840 C   0  0  0  0  0  0  0  0  0  0  0  0
  191.2130  177.7890  144.6910 C   0  0  0  0  0  2  0  0  0  0  0  0
  191.5830  176.8550  143.5560 C   0  0  0  0  0  1  0  0  0  0  0  0
  1  3  1  1  0  0  0
  1 15  1  0  0  0  0
  2  7  1  0  0  0  0
  4  2  2  0  0  0  0
  4  1  1  0  0  0  0
  5 11  1  0  0  0  0
  5  2  1  0  0  0  0
  7 14  1  1  0  0  0
  8 19  1  0  0  0  0
  9  8  1  0  0  0  0
  9 16  2  0  0  0  0
 10  4  1  0  0  0  0
 11  9  1  0  0  0  0
 12 17  1  0  0  0  0
 12 10  1  0  0  0  0
 13 10  2  0  0  0  0
 13 18  1  0  0  0  0
 15 14  1  0  0  0  0
 15 23  1  6  0  0  0
 16  7  1  0  0  0  0
 16 20  1  0  0  0  0
 17  5  2  0  0  0  0
 18  3  1  0  0  0  0
 19 20  2  0  0  0  0
 19  6  1  0  0  0  0
 21 17  1  0  0  0  0
 22 21  1  0  0  0  0
 23 24  1  0  0  0  0
 24 25  1  0  0  0  0
 25 26  1  0  0  0  0
 26 29  1  0  0  0  0
 26 28  2  0  0  0  0
 30 27  2  0  0  0  0
 30 29  1  0  0  0  0
 31 30  1  0  0  0  0
 32 31  1  0  0  0  0
M  END
>  <MODEL>
5

>  <REMARK>
 VINA RESULT:      -7.3      2.797      5.436
  Name = 
  6 active torsions:
  status: ('A' for Active; 'I' for Inactive)
    1  A    between atoms: C_3  and  C_22
    2  A    between atoms: O_13  and  C_29
    3  A    between atoms: C_15  and  C_26
    4  A    between atoms: C_16  and  C_23
    5  A    between atoms: C_16  and  C_27
    6  A    between atoms: C_22  and  C_23
                            x       y       z     vdW  Elec       q    Type
                         _______ _______ _______ _____ _____    ______ ____

>  <TORSDO>
F 6

$$$$
=
 OpenBabel11052414343D

 32 36  0  0  1  0  0  0  0  0999 V2000
  183.9400  177.6160  138.3180 C   0  0  1  0  0  3  0  0  0  0  0  0
  186.2660  178.1790  139.0630 C   0  0  0  0  0  0  0  0  0  0  0  0
  183.1470  177.7830  137.0210 C   0  0  0  0  0  2  0  0  0  0  0  0
  185.4260  177.7960  138.0830 C   0  0  0  0  0  0  0  0  0  0  0  0
  187.7500  178.2070  138.8210 C   0  0  0  0  0  0  0  0  0  0  0  0
  187.4010  177.3400  145.0490 C   0  0  0  0  0  1  0  0  0  0  0  0
  185.7310  178.6770  140.4030 C   0  0  1  0  0  3  0  0  0  0  0  0
  188.8440  177.8810  142.6960 S   0  0  0  0  0  0  0  0  0  0  0  0
  188.0410  178.2950  141.2820 C   0  0  0  0  0  0  0  0  0  0  0  0
  185.9830  177.4580  136.7590 C   0  0  0  0  0  0  0  0  0  0  0  0
  188.6580  178.6240  139.9590 C   0  0  0  0  0  2  0  0  0  0  0  0
  187.3570  177.5820  136.5510 O   0  0  0  0  0  0  0  0  0  0  0  0
  185.1890  177.0670  135.7580 C   0  0  0  0  0  3  0  0  0  0  0  0
  184.2800  178.2680  140.6950 C   0  0  0  0  0  2  0  0  0  0  0  0
  183.3950  178.4670  139.4680 C   0  0  1  0  0  3  0  0  0  0  0  0
  186.6760  178.3090  141.5100 C   0  0  0  0  0  0  0  0  0  0  0  0
  188.2410  177.9110  137.5870 C   0  0  0  0  0  0  0  0  0  0  0  0
  183.7120  176.8490  135.9520 C   0  0  0  0  0  2  0  0  0  0  0  0
  187.4390  177.7110  143.6100 C   0  0  0  0  0  0  0  0  0  0  0  0
  186.3240  177.9850  142.8290 C   0  0  0  0  0  3  0  0  0  0  0  0
  189.6090  177.9200  137.2590 O   0  0  0  0  0  0  0  0  0  0  0  0
  190.4560  176.7790  137.2230 C   0  0  0  0  0  1  0  0  0  0  0  0
  183.2580  179.9440  139.0980 C   0  0  0  0  0  2  0  0  0  0  0  0
  181.7960  180.3490  139.0950 C   0  0  0  0  0  2  0  0  0  0  0  0
  181.0240  179.5600  140.1410 C   0  0  0  0  0  2  0  0  0  0  0  0
  180.0880  180.4430  140.9130 C   0  0  0  0  0  0  0  0  0  0  0  0
  179.8860  178.9340  144.2430 O   0  0  0  0  0  0  0  0  0  0  0  0
  179.6160  181.4790  140.3740 O   0  0  0  0  0  0  0  0  0  0  0  0
  179.7150  180.1340  142.2620 N   0  0  0  0  0  2  0  0  0  0  0  0
  180.4440  179.3030  143.1760 C   0  0  0  0  0  0  0  0  0  0  0  0
  181.8830  178.9560  142.9460 C   0  0  0  0  0  2  0  0  0  0  0  0
  182.6610  179.0040  144.2450 C   0  0  0  0  0  1  0  0  0  0  0  0
  1  3  1  6  0  0  0
  1 15  1  0  0  0  0
  2  7  1  0  0  0  0
  4  1  1  0  0  0  0
  4  2  2  0  0  0  0
  5  2  1  0  0  0  0
  5 11  1  0  0  0  0
  7 14  1  1  0  0  0
  7 16  1  0  0  0  0
  8 19  1  0  0  0  0
  9 16  2  0  0  0  0
  9  8  1  0  0  0  0
 10  4  1  0  0  0  0
 11  9  1  0  0  0  0
 12 10  1  0  0  0  0
 12 17  1  0  0  0  0
 13 18  1  0  0  0  0
 13 10  2  0  0  0  0
 15 23  1  6  0  0  0
 15 14  1  0  0  0  0
 16 20  1  0  0  0  0
 17  5  2  0  0  0  0
 18  3  1  0  0  0  0
 19  6  1  0  0  0  0
 20 19  2  0  0  0  0
 21 17  1  0  0  0  0
 22 21  1  0  0  0  0
 24 23  1  0  0  0  0
 24 25  1  0  0  0  0
 25 26  1  0  0  0  0
 26 29  1  0  0  0  0
 28 26  2  0  0  0  0
 29 30  1  0  0  0  0
 30 27  2  0  0  0  0
 31 30  1  0  0  0  0
 31 32  1  0  0  0  0
M  END
>  <MODEL>
6

>  <REMARK>
 VINA RESULT:      -7.3      4.379      8.281
  Name = 
  6 active torsions:
  status: ('A' for Active; 'I' for Inactive)
    1  A    between atoms: C_3  and  C_22
    2  A    between atoms: O_13  and  C_29
    3  A    between atoms: C_15  and  C_26
    4  A    between atoms: C_16  and  C_23
    5  A    between atoms: C_16  and  C_27
    6  A    between atoms: C_22  and  C_23
                            x       y       z     vdW  Elec       q    Type
                         _______ _______ _______ _____ _____    ______ ____

>  <TORSDO>
F 6

$$$$
=
 OpenBabel11052414343D

 32 36  0  0  1  0  0  0  0  0999 V2000
  188.5500  176.7030  142.3770 C   0  0  1  0  0  3  0  0  0  0  0  0
  187.2440  177.9550  144.1120 C   0  0  0  0  0  0  0  0  0  0  0  0
  190.0330  176.4180  142.1330 C   0  0  0  0  0  2  0  0  0  0  0  0
  188.3090  177.1950  143.7900 C   0  0  0  0  0  0  0  0  0  0  0  0
  186.9680  178.3010  145.5500 C   0  0  0  0  0  0  0  0  0  0  0  0
  181.2360  178.5830  142.9550 C   0  0  0  0  0  1  0  0  0  0  0  0
  186.3510  178.5520  143.0280 C   0  0  1  0  0  3  0  0  0  0  0  0
  183.0170  179.0030  145.0940 S   0  0  0  0  0  0  0  0  0  0  0  0
  184.6750  178.9270  144.8460 C   0  0  0  0  0  0  0  0  0  0  0  0
  189.2230  176.7590  144.8610 C   0  0  0  0  0  0  0  0  0  0  0  0
  185.7480  179.1380  145.8680 C   0  0  0  0  0  2  0  0  0  0  0  0
  188.9810  177.1750  146.1700 O   0  0  0  0  0  0  0  0  0  0  0  0
  190.2890  176.0000  144.5900 C   0  0  0  0  0  3  0  0  0  0  0  0
  186.4670  177.8610  141.6620 C   0  0  0  0  0  2  0  0  0  0  0  0
  187.9270  177.5970  141.3020 C   0  0  1  0  0  3  0  0  0  0  0  0
  184.9340  178.6480  143.5160 C   0  0  0  0  0  0  0  0  0  0  0  0
  187.8360  177.9040  146.5200 C   0  0  0  0  0  0  0  0  0  0  0  0
  190.5550  175.4660  143.2080 C   0  0  0  0  0  2  0  0  0  0  0  0
  182.6210  178.6690  143.4900 C   0  0  0  0  0  0  0  0  0  0  0  0
  183.7760  178.5050  142.7360 C   0  0  0  0  0  3  0  0  0  0  0  0
  187.6720  178.1870  147.8880 O   0  0  0  0  0  0  0  0  0  0  0  0
  188.7200  178.2530  148.8480 C   0  0  0  0  0  1  0  0  0  0  0  0
  188.7050  178.8960  141.0880 C   0  0  0  0  0  2  0  0  0  0  0  0
  189.1360  179.0150  139.6390 C   0  0  0  0  0  2  0  0  0  0  0  0
  188.3780  178.0190  138.7750 C   0  0  0  0  0  2  0  0  0  0  0  0
  188.1990  178.5310  137.3760 C   0  0  0  0  0  0  0  0  0  0  0  0
  185.0030  177.1400  136.2550 O   0  0  0  0  0  0  0  0  0  0  0  0
  189.0520  179.3160  136.8820 O   0  0  0  0  0  0  0  0  0  0  0  0
  187.0710  178.1460  136.5810 N   0  0  0  0  0  2  0  0  0  0  0  0
  185.8150  177.6550  137.0690 C   0  0  0  0  0  0  0  0  0  0  0  0
  185.4020  177.8370  138.4970 C   0  0  0  0  0  2  0  0  0  0  0  0
  184.5580  179.0860  138.6570 C   0  0  0  0  0  1  0  0  0  0  0  0
  1  3  1  6  0  0  0
  1  4  1  0  0  0  0
  2  5  1  0  0  0  0
  3 18  1  0  0  0  0
  4  2  2  0  0  0  0
  4 10  1  0  0  0  0
  5 11  1  0  0  0  0
  5 17  2  0  0  0  0
  6 19  1  0  0  0  0
  7 14  1  6  0  0  0
  7 16  1  0  0  0  0
  7  2  1  0  0  0  0
  9  8  1  0  0  0  0
  9 11  1  0  0  0  0
 10 12  1  0  0  0  0
 12 17  1  0  0  0  0
 13 10  2  0  0  0  0
 15 23  1  1  0  0  0
 15 14  1  0  0  0  0
 15  1  1  0  0  0  0
 16  9  2  0  0  0  0
 17 21  1  0  0  0  0
 18 13  1  0  0  0  0
 19  8  1  0  0  0  0
 20 19  2  0  0  0  0
 20 16  1  0  0  0  0
 21 22  1  0  0  0  0
 24 23  1  0  0  0  0
 25 24  1  0  0  0  0
 26 25  1  0  0  0  0
 27 30  2  0  0  0  0
 28 26  2  0  0  0  0
 29 30  1  0  0  0  0
 29 26  1  0  0  0  0
 30 31  1  0  0  0  0
 31 32  1  0  0  0  0
M  END
>  <MODEL>
7

>  <REMARK>
 VINA RESULT:      -7.2      3.533      7.646
  Name = 
  6 active torsions:
  status: ('A' for Active; 'I' for Inactive)
    1  A    between atoms: C_3  and  C_22
    2  A    between atoms: O_13  and  C_29
    3  A    between atoms: C_15  and  C_26
    4  A    between atoms: C_16  and  C_23
    5  A    between atoms: C_16  and  C_27
    6  A    between atoms: C_22  and  C_23
                            x       y       z     vdW  Elec       q    Type
                         _______ _______ _______ _____ _____    ______ ____

>  <TORSDO>
F 6

$$$$
=
 OpenBabel11052414343D

 32 36  0  0  1  0  0  0  0  0999 V2000
  186.8220  178.8560  141.3420 C   0  0  1  0  0  3  0  0  0  0  0  0
  184.6180  178.0190  140.4920 C   0  0  0  0  0  0  0  0  0  0  0  0
  188.2870  178.4810  141.1100 C   0  0  0  0  0  2  0  0  0  0  0  0
  185.9260  178.2610  140.2760 C   0  0  0  0  0  0  0  0  0  0  0  0
  183.7360  177.5630  139.3630 C   0  0  0  0  0  0  0  0  0  0  0  0
  179.6520  180.4130  143.2180 C   0  0  0  0  0  1  0  0  0  0  0  0
  184.0260  178.1140  141.8950 C   0  0  1  0  0  3  0  0  0  0  0  0
  180.2540  178.8260  140.9740 S   0  0  0  0  0  0  0  0  0  0  0  0
  181.7930  178.1910  140.7700 C   0  0  0  0  0  0  0  0  0  0  0  0
  186.4820  178.0190  138.9320 C   0  0  0  0  0  0  0  0  0  0  0  0
  182.2680  177.3230  139.6470 C   0  0  0  0  0  2  0  0  0  0  0  0
  185.6480  177.5120  137.9350 O   0  0  0  0  0  0  0  0  0  0  0  0
  187.7710  178.2520  138.6690 C   0  0  0  0  0  3  0  0  0  0  0  0
  184.8710  178.9290  142.8850 C   0  0  0  0  0  2  0  0  0  0  0  0
  186.3500  178.5690  142.7710 C   0  0  1  0  0  3  0  0  0  0  0  0
  182.5980  178.5760  141.8280 C   0  0  0  0  0  0  0  0  0  0  0  0
  184.2740  177.3270  138.1360 C   0  0  0  0  0  0  0  0  0  0  0  0
  188.6940  178.8650  139.6880 C   0  0  0  0  0  2  0  0  0  0  0  0
  180.6150  179.6080  142.4220 C   0  0  0  0  0  0  0  0  0  0  0  0
  181.9390  179.3750  142.7740 C   0  0  0  0  0  3  0  0  0  0  0  0
  183.5360  176.8880  137.0220 O   0  0  0  0  0  0  0  0  0  0  0  0
  183.9840  175.9480  136.0540 C   0  0  0  0  0  1  0  0  0  0  0  0
  186.6210  177.1280  143.2050 C   0  0  0  0  0  2  0  0  0  0  0  0
  187.1220  177.1000  144.6370 C   0  0  0  0  0  2  0  0  0  0  0  0
  188.4290  177.8690  144.7580 C   0  0  0  0  0  2  0  0  0  0  0  0
  189.6130  176.9810  144.5120 C   0  0  0  0  0  0  0  0  0  0  0  0
  191.4580  176.9580  147.6740 O   0  0  0  0  0  0  0  0  0  0  0  0
  189.7420  176.4030  143.4000 O   0  0  0  0  0  0  0  0  0  0  0  0
  190.6090  176.7720  145.5200 N   0  0  0  0  0  2  0  0  0  0  0  0
  190.4400  176.9540  146.9330 C   0  0  0  0  0  0  0  0  0  0  0  0
  189.0810  177.0290  147.5580 C   0  0  0  0  0  2  0  0  0  0  0  0
  188.9450  178.2830  148.3980 C   0  0  0  0  0  1  0  0  0  0  0  0
  1  3  1  1  0  0  0
  1 15  1  0  0  0  0
  2  7  1  0  0  0  0
  4  2  2  0  0  0  0
  4  1  1  0  0  0  0
  5 11  1  0  0  0  0
  5  2  1  0  0  0  0
  7 14  1  1  0  0  0
  8 19  1  0  0  0  0
  9  8  1  0  0  0  0
  9 16  2  0  0  0  0
 10  4  1  0  0  0  0
 11  9  1  0  0  0  0
 12 17  1  0  0  0  0
 12 10  1  0  0  0  0
 13 10  2  0  0  0  0
 13 18  1  0  0  0  0
 15 14  1  0  0  0  0
 15 23  1  6  0  0  0
 16  7  1  0  0  0  0
 16 20  1  0  0  0  0
 17  5  2  0  0  0  0
 18  3  1  0  0  0  0
 19 20  2  0  0  0  0
 19  6  1  0  0  0  0
 21 17  1  0  0  0  0
 22 21  1  0  0  0  0
 23 24  1  0  0  0  0
 24 25  1  0  0  0  0
 26 25  1  0  0  0  0
 26 29  1  0  0  0  0
 28 26  2  0  0  0  0
 29 30  1  0  0  0  0
 30 31  1  0  0  0  0
 30 27  2  0  0  0  0
 31 32  1  0  0  0  0
M  END
>  <MODEL>
8

>  <REMARK>
 VINA RESULT:      -7.2      2.665      5.211
  Name = 
  6 active torsions:
  status: ('A' for Active; 'I' for Inactive)
    1  A    between atoms: C_3  and  C_22
    2  A    between atoms: O_13  and  C_29
    3  A    between atoms: C_15  and  C_26
    4  A    between atoms: C_16  and  C_23
    5  A    between atoms: C_16  and  C_27
    6  A    between atoms: C_22  and  C_23
                            x       y       z     vdW  Elec       q    Type
                         _______ _______ _______ _____ _____    ______ ____

>  <TORSDO>
F 6

$$$$
=
 OpenBabel11052414343D

 32 36  0  0  1  0  0  0  0  0999 V2000
  188.5780  176.7230  142.2570 C   0  0  1  0  0  3  0  0  0  0  0  0
  187.1890  177.9620  143.9360 C   0  0  0  0  0  0  0  0  0  0  0  0
  190.0710  176.4410  142.0820 C   0  0  0  0  0  2  0  0  0  0  0  0
  188.2690  177.2050  143.6590 C   0  0  0  0  0  0  0  0  0  0  0  0
  186.8440  178.2970  145.3610 C   0  0  0  0  0  0  0  0  0  0  0  0
  181.2430  178.5950  142.4960 C   0  0  0  0  0  1  0  0  0  0  0  0
  186.3490  178.5660  142.8150 C   0  0  1  0  0  3  0  0  0  0  0  0
  182.9180  179.0010  144.7200 S   0  0  0  0  0  0  0  0  0  0  0  0
  184.5860  178.9270  144.5530 C   0  0  0  0  0  0  0  0  0  0  0  0
  189.1300  176.7610  144.7710 C   0  0  0  0  0  0  0  0  0  0  0  0
  185.6090  179.1320  145.6260 C   0  0  0  0  0  2  0  0  0  0  0  0
  188.8250  177.1680  146.0700 O   0  0  0  0  0  0  0  0  0  0  0  0
  190.2080  176.0040  144.5450 C   0  0  0  0  0  3  0  0  0  0  0  0
  186.5310  177.8860  141.4500 C   0  0  0  0  0  2  0  0  0  0  0  0
  188.0060  177.6250  141.1590 C   0  0  1  0  0  3  0  0  0  0  0  0
  184.9090  178.6580  143.2340 C   0  0  0  0  0  0  0  0  0  0  0  0
  187.6640  177.8930  146.3690 C   0  0  0  0  0  0  0  0  0  0  0  0
  190.5410  175.4810  143.1740 C   0  0  0  0  0  2  0  0  0  0  0  0
  182.6000  178.6790  143.0970 C   0  0  0  0  0  0  0  0  0  0  0  0
  183.7910  178.5210  142.3980 C   0  0  0  0  0  3  0  0  0  0  0  0
  187.4350  178.1670  147.7300 O   0  0  0  0  0  0  0  0  0  0  0  0
  188.4360  178.2390  148.7370 C   0  0  0  0  0  1  0  0  0  0  0  0
  188.7930  178.9260  140.9930 C   0  0  0  0  0  2  0  0  0  0  0  0
  189.3440  179.0260  139.5830 C   0  0  0  0  0  2  0  0  0  0  0  0
  188.9480  177.8040  138.7680 C   0  0  0  0  0  2  0  0  0  0  0  0
  188.4270  178.1920  137.4160 C   0  0  0  0  0  0  0  0  0  0  0  0
  190.4500  176.2850  135.0340 O   0  0  0  0  0  0  0  0  0  0  0  0
  187.4490  178.9820  137.3240 O   0  0  0  0  0  0  0  0  0  0  0  0
  189.0200  177.6830  136.2160 N   0  0  0  0  0  2  0  0  0  0  0  0
  189.8030  176.4870  136.0960 C   0  0  0  0  0  0  0  0  0  0  0  0
  189.7820  175.4260  137.1520 C   0  0  0  0  0  2  0  0  0  0  0  0
  191.1880  175.1080  137.6220 C   0  0  0  0  0  1  0  0  0  0  0  0
  1  3  1  1  0  0  0
  1  4  1  0  0  0  0
  2  5  1  0  0  0  0
  3 18  1  0  0  0  0
  4  2  2  0  0  0  0
  4 10  1  0  0  0  0
  5 11  1  0  0  0  0
  5 17  2  0  0  0  0
  6 19  1  0  0  0  0
  7 14  1  6  0  0  0
  7 16  1  0  0  0  0
  7  2  1  0  0  0  0
  9  8  1  0  0  0  0
  9 11  1  0  0  0  0
 10 12  1  0  0  0  0
 12 17  1  0  0  0  0
 13 10  2  0  0  0  0
 15 23  1  1  0  0  0
 15 14  1  0  0  0  0
 15  1  1  0  0  0  0
 16  9  2  0  0  0  0
 17 21  1  0  0  0  0
 18 13  1  0  0  0  0
 19  8  1  0  0  0  0
 20 19  2  0  0  0  0
 20 16  1  0  0  0  0
 21 22  1  0  0  0  0
 24 23  1  0  0  0  0
 25 24  1  0  0  0  0
 26 25  1  0  0  0  0
 27 30  2  0  0  0  0
 28 26  2  0  0  0  0
 29 26  1  0  0  0  0
 30 29  1  0  0  0  0
 30 31  1  0  0  0  0
 31 32  1  0  0  0  0
M  END
>  <MODEL>
9

>  <REMARK>
 VINA RESULT:      -7.2      3.597      7.439
  Name = 
  6 active torsions:
  status: ('A' for Active; 'I' for Inactive)
    1  A    between atoms: C_3  and  C_22
    2  A    between atoms: O_13  and  C_29
    3  A    between atoms: C_15  and  C_26
    4  A    between atoms: C_16  and  C_23
    5  A    between atoms: C_16  and  C_27
    6  A    between atoms: C_22  and  C_23
                            x       y       z     vdW  Elec       q    Type
                         _______ _______ _______ _____ _____    ______ ____

>  <TORSDO>
F 6

$$$$
