=
 OpenBabel11052413343D

 28 31  0  0  1  0  0  0  0  0999 V2000
  182.0910  176.4170  138.4850 C   0  0  2  0  0  3  0  0  0  0  0  0
  184.0280  179.2800  143.7250 C   0  0  1  0  0  3  0  0  0  0  0  0
  183.3160  180.5950  139.0230 O   0  0  0  0  0  1  0  0  0  0  0  0
  185.7570  177.7900  142.7950 C   0  0  2  0  0  3  0  0  0  0  0  0
  183.7510  178.5270  141.2830 C   0  0  2  0  0  3  0  0  0  0  0  0
  185.0620  179.0840  144.7240 N   0  0  0  0  0  2  0  0  0  0  0  0
  184.2710  178.1860  142.6850 C   0  0  2  0  0  3  0  0  0  0  0  0
  186.1330  178.6430  140.4480 C   0  0  0  0  0  2  0  0  0  0  0  0
  186.0420  178.2190  144.1820 C   0  0  0  0  0  0  0  0  0  0  0  0
  183.7020  178.3320  138.3250 C   0  0  1  0  0  3  0  0  0  0  0  0
  183.3100  177.2520  140.5720 C   0  0  0  0  0  2  0  0  0  0  0  0
  186.6610  178.6100  141.8700 C   0  0  0  0  0  2  0  0  0  0  0  0
  184.3620  175.9940  137.5510 C   0  0  0  0  0  3  0  0  0  0  0  0
  184.2760  179.5820  139.0110 C   0  0  2  0  0  3  0  0  0  0  0  0
  184.8300  177.3930  137.8720 C   0  0  0  0  0  2  0  0  0  0  0  0
  187.0640  177.8660  144.8280 O   0  0  0  0  0  0  0  0  0  0  0  0
  182.6610  179.1080  144.3570 C   0  0  0  0  0  1  0  0  0  0  0  0
  184.7700  179.3220  140.4450 C   0  0  1  0  0  3  0  0  0  0  0  0
  183.1440  175.5360  137.8700 C   0  0  0  0  0  3  0  0  0  0  0  0
  182.6820  177.6220  139.2280 C   0  0  2  0  0  3  0  0  0  0  0  0
  181.1100  175.5940  139.3280 C   0  0  0  0  0  2  0  0  0  0  0  0
  179.6920  175.8300  139.0000 N   0  0  0  0  0  0  0  0  0  0  0  0
  178.9640  176.2730  140.2000 C   0  0  0  0  0  2  0  0  0  0  0  0
  179.2440  175.4580  141.3030 O   0  0  0  0  0  1  0  0  0  0  0  0
  179.8530  173.3970  138.5870 C   0  0  0  0  0  1  0  0  0  0  0  0
  179.0620  174.6740  138.3310 C   0  0  2  0  0  3  0  0  0  0  0  0
  178.9450  174.8820  136.8190 C   0  0  0  0  0  2  0  0  0  0  0  0
  180.0670  174.3710  136.1600 O   0  0  0  0  0  1  0  0  0  0  0  0
  1 20  1  0  0  0  0
  1 21  1  1  0  0  0
  2 17  1  1  0  0  0
  2  6  1  0  0  0  0
  4 12  1  6  0  0  0
  4  9  1  0  0  0  0
  5 11  1  6  0  0  0
  5  7  1  0  0  0  0
  7  4  1  0  0  0  0
  7  2  1  0  0  0  0
  8 12  1  0  0  0  0
  9  6  1  0  0  0  0
  9 16  2  0  0  0  0
 10 14  1  0  0  0  0
 10 20  1  0  0  0  0
 13 19  2  0  0  0  0
 13 15  1  0  0  0  0
 14  3  1  0  0  0  0
 14 18  1  0  0  0  0
 15 10  1  0  0  0  0
 18  8  1  0  0  0  0
 18  5  1  0  0  0  0
 19  1  1  0  0  0  0
 20 11  1  0  0  0  0
 22 21  1  0  0  0  0
 22 23  1  0  0  0  0
 23 24  1  0  0  0  0
 26 25  1  0  0  0  0
 26 22  1  0  0  0  0
 27 26  1  0  0  0  0
 28 27  1  0  0  0  0
M  END
>  <MODEL>
1

>  <REMARK>
 VINA RESULT:      -6.0      0.000      0.000
  Name = 
  5 active torsions:
  status: ('A' for Active; 'I' for Inactive)
    1  A    between atoms: C_1  and  C_2
    2  A    between atoms: C_2  and  N_3
    3  A    between atoms: N_3  and  C_7
    4  A    between atoms: N_3  and  C_11
    5  A    between atoms: C_6  and  C_11
                            x       y       z     vdW  Elec       q    Type
                         _______ _______ _______ _____ _____    ______ ____

>  <TORSDO>
F 5

$$$$
=
 OpenBabel11052413343D

 28 31  0  0  1  0  0  0  0  0999 V2000
  182.5380  178.9740  142.8780 C   0  0  2  0  0  3  0  0  0  0  0  0
  181.9040  175.5620  137.6470 C   0  0  1  0  0  3  0  0  0  0  0  0
  180.9690  180.2210  138.9750 O   0  0  0  0  0  1  0  0  0  0  0  0
  180.1980  174.9920  139.3310 C   0  0  2  0  0  3  0  0  0  0  0  0
  181.5290  177.2350  139.5610 C   0  0  2  0  0  3  0  0  0  0  0  0
  181.2590  174.3220  137.2570 N   0  0  0  0  0  2  0  0  0  0  0  0
  181.5110  175.7700  139.1090 C   0  0  2  0  0  3  0  0  0  0  0  0
  179.0140  177.1740  139.7970 C   0  0  0  0  0  2  0  0  0  0  0  0
  180.2900  174.0000  138.2380 C   0  0  0  0  0  0  0  0  0  0  0  0
  180.7060  179.5240  141.2560 C   0  0  1  0  0  3  0  0  0  0  0  0
  181.9050  177.3150  141.0370 C   0  0  0  0  0  2  0  0  0  0  0  0
  178.9520  175.8430  139.0700 C   0  0  0  0  0  2  0  0  0  0  0  0
  180.1720  178.7600  143.6290 C   0  0  0  0  0  3  0  0  0  0  0  0
  180.1990  179.4080  139.8090 C   0  0  2  0  0  3  0  0  0  0  0  0
  179.6350  179.0460  142.2480 C   0  0  0  0  0  2  0  0  0  0  0  0
  179.5710  172.9700  138.1650 O   0  0  0  0  0  0  0  0  0  0  0  0
  183.4090  175.4220  137.5230 C   0  0  0  0  0  1  0  0  0  0  0  0
  180.2040  177.9660  139.2720 C   0  0  1  0  0  3  0  0  0  0  0  0
  181.4810  178.6790  143.9060 C   0  0  0  0  0  3  0  0  0  0  0  0
  182.0400  178.7840  141.4390 C   0  0  2  0  0  3  0  0  0  0  0  0
  183.8320  178.2130  143.1870 C   0  0  0  0  0  2  0  0  0  0  0  0
  185.0210  179.0750  143.3110 N   0  0  0  0  0  0  0  0  0  0  0  0
  185.8880  178.9120  142.1330 C   0  0  0  0  0  2  0  0  0  0  0  0
  185.4280  179.6640  141.0460 O   0  0  0  0  0  1  0  0  0  0  0  0
  186.5940  177.6240  144.5500 C   0  0  0  0  0  1  0  0  0  0  0  0
  185.7350  178.8820  144.5890 C   0  0  2  0  0  3  0  0  0  0  0  0
  184.7700  178.7780  145.7730 C   0  0  0  0  0  2  0  0  0  0  0  0
  185.3710  179.2470  146.9440 O   0  0  0  0  0  1  0  0  0  0  0  0
  1 21  1  1  0  0  0
  1 19  1  0  0  0  0
  2 17  1  1  0  0  0
  2  7  1  0  0  0  0
  3 14  1  0  0  0  0
  4 12  1  6  0  0  0
  5 11  1  1  0  0  0
  6  2  1  0  0  0  0
  6  9  1  0  0  0  0
  7  4  1  0  0  0  0
  7  5  1  0  0  0  0
  9  4  1  0  0  0  0
 10 20  1  0  0  0  0
 10 15  1  0  0  0  0
 11 20  1  0  0  0  0
 12  8  1  0  0  0  0
 13 19  2  0  0  0  0
 14 10  1  0  0  0  0
 15 13  1  0  0  0  0
 16  9  2  0  0  0  0
 18  5  1  0  0  0  0
 18  8  1  0  0  0  0
 18 14  1  0  0  0  0
 20  1  1  0  0  0  0
 21 22  1  0  0  0  0
 22 26  1  0  0  0  0
 23 22  1  0  0  0  0
 24 23  1  0  0  0  0
 25 26  1  0  0  0  0
 26 27  1  0  0  0  0
 27 28  1  0  0  0  0
M  END
>  <MODEL>
2

>  <REMARK>
 VINA RESULT:      -5.8      1.972      7.546
  Name = 
  5 active torsions:
  status: ('A' for Active; 'I' for Inactive)
    1  A    between atoms: C_1  and  C_2
    2  A    between atoms: C_2  and  N_3
    3  A    between atoms: N_3  and  C_7
    4  A    between atoms: N_3  and  C_11
    5  A    between atoms: C_6  and  C_11
                            x       y       z     vdW  Elec       q    Type
                         _______ _______ _______ _____ _____    ______ ____

>  <TORSDO>
F 5

$$$$
=
 OpenBabel11052413343D

 28 31  0  0  1  0  0  0  0  0999 V2000
  187.6320  177.5140  137.0410 C   0  0  2  0  0  3  0  0  0  0  0  0
  182.4910  178.3880  140.5370 C   0  0  1  0  0  3  0  0  0  0  0  0
  184.3780  174.6910  137.8700 O   0  0  0  0  0  1  0  0  0  0  0  0
  182.3430  179.5550  138.3720 C   0  0  2  0  0  3  0  0  0  0  0  0
  184.1240  177.6630  138.6900 C   0  0  2  0  0  3  0  0  0  0  0  0
  181.3860  179.3270  140.5880 N   0  0  0  0  0  2  0  0  0  0  0  0
  183.3060  178.8010  139.3110 C   0  0  2  0  0  3  0  0  0  0  0  0
  182.6370  177.7330  136.6480 C   0  0  0  0  0  2  0  0  0  0  0  0
  181.3190  179.9980  139.3430 C   0  0  0  0  0  0  0  0  0  0  0  0
  185.5270  176.2720  136.4790 C   0  0  1  0  0  3  0  0  0  0  0  0
  185.4020  178.2230  138.0740 C   0  0  0  0  0  2  0  0  0  0  0  0
  181.6480  178.6320  137.3670 C   0  0  0  0  0  2  0  0  0  0  0  0
  186.5410  177.9440  134.8430 C   0  0  0  0  0  3  0  0  0  0  0  0
  184.1720  175.7530  136.9870 C   0  0  2  0  0  3  0  0  0  0  0  0
  185.3480  177.0870  135.1890 C   0  0  0  0  0  2  0  0  0  0  0  0
  180.4530  180.8780  139.0950 O   0  0  0  0  0  0  0  0  0  0  0  0
  183.3320  178.5140  141.7920 C   0  0  0  0  0  1  0  0  0  0  0  0
  183.3190  176.8350  137.6710 C   0  0  1  0  0  3  0  0  0  0  0  0
  187.5490  178.1780  135.6950 C   0  0  0  0  0  3  0  0  0  0  0  0
  186.2630  177.0650  137.5690 C   0  0  2  0  0  3  0  0  0  0  0  0
  188.4210  178.3780  138.0320 C   0  0  0  0  0  2  0  0  0  0  0  0
  189.4850  177.6510  138.7480 N   0  0  0  0  0  0  0  0  0  0  0  0
  189.9090  176.4780  137.9650 C   0  0  0  0  0  2  0  0  0  0  0  0
  191.1670  176.6730  137.3860 O   0  0  0  0  0  1  0  0  0  0  0  0
  188.2290  178.4030  140.7400 C   0  0  0  0  0  1  0  0  0  0  0  0
  189.1130  177.3190  140.1370 C   0  0  2  0  0  3  0  0  0  0  0  0
  190.3420  177.1380  141.0310 C   0  0  0  0  0  2  0  0  0  0  0  0
  190.2090  176.0030  141.8340 O   0  0  0  0  0  1  0  0  0  0  0  0
  1 20  1  0  0  0  0
  1 21  1  1  0  0  0
  2  6  1  0  0  0  0
  2 17  1  1  0  0  0
  4 12  1  6  0  0  0
  4  7  1  0  0  0  0
  4  9  1  0  0  0  0
  5 11  1  6  0  0  0
  5  7  1  0  0  0  0
  7  2  1  0  0  0  0
  8 12  1  0  0  0  0
  8 18  1  0  0  0  0
  9  6  1  0  0  0  0
 10 14  1  0  0  0  0
 10 20  1  0  0  0  0
 13 15  1  0  0  0  0
 13 19  2  0  0  0  0
 14 18  1  0  0  0  0
 14  3  1  0  0  0  0
 15 10  1  0  0  0  0
 16  9  2  0  0  0  0
 18  5  1  0  0  0  0
 19  1  1  0  0  0  0
 20 11  1  0  0  0  0
 21 22  1  0  0  0  0
 22 26  1  0  0  0  0
 23 22  1  0  0  0  0
 24 23  1  0  0  0  0
 26 25  1  0  0  0  0
 26 27  1  0  0  0  0
 27 28  1  0  0  0  0
M  END
>  <MODEL>
3

>  <REMARK>
 VINA RESULT:      -5.7      3.496      7.221
  Name = 
  5 active torsions:
  status: ('A' for Active; 'I' for Inactive)
    1  A    between atoms: C_1  and  C_2
    2  A    between atoms: C_2  and  N_3
    3  A    between atoms: N_3  and  C_7
    4  A    between atoms: N_3  and  C_11
    5  A    between atoms: C_6  and  C_11
                            x       y       z     vdW  Elec       q    Type
                         _______ _______ _______ _____ _____    ______ ____

>  <TORSDO>
F 5

$$$$
=
 OpenBabel11052413343D

 28 31  0  0  1  0  0  0  0  0999 V2000
  183.0140  179.5720  143.4130 C   0  0  2  0  0  3  0  0  0  0  0  0
  183.6880  177.2510  137.6190 C   0  0  1  0  0  3  0  0  0  0  0  0
  180.7390  180.5550  139.7940 O   0  0  0  0  0  1  0  0  0  0  0  0
  182.6030  175.6400  139.1370 C   0  0  2  0  0  3  0  0  0  0  0  0
  182.7070  178.1680  139.8100 C   0  0  2  0  0  3  0  0  0  0  0  0
  183.6890  175.9430  136.9910 N   0  0  0  0  0  2  0  0  0  0  0  0
  183.3600  176.9830  139.0880 C   0  0  2  0  0  3  0  0  0  0  0  0
  180.5580  176.8520  139.9900 C   0  0  0  0  0  2  0  0  0  0  0  0
  183.0740  175.0260  137.8760 C   0  0  0  0  0  0  0  0  0  0  0  0
  181.0230  179.4340  141.8960 C   0  0  1  0  0  3  0  0  0  0  0  0
  183.1140  178.1630  141.2810 C   0  0  0  0  0  2  0  0  0  0  0  0
  181.0850  175.8090  139.0220 C   0  0  0  0  0  2  0  0  0  0  0  0
  181.1090  178.1070  144.0720 C   0  0  0  0  0  3  0  0  0  0  0  0
  180.5220  179.3390  140.4460 C   0  0  2  0  0  3  0  0  0  0  0  0
  180.3940  178.3310  142.7620 C   0  0  0  0  0  2  0  0  0  0  0  0
  182.9350  173.8060  137.5980 O   0  0  0  0  0  0  0  0  0  0  0  0
  185.0600  177.8830  137.4960 C   0  0  0  0  0  1  0  0  0  0  0  0
  181.1770  178.2000  139.6450 C   0  0  1  0  0  3  0  0  0  0  0  0
  182.3130  178.6260  144.3490 C   0  0  0  0  0  3  0  0  0  0  0  0
  182.5570  179.4160  141.9570 C   0  0  2  0  0  3  0  0  0  0  0  0
  184.5350  179.4950  143.5930 C   0  0  0  0  0  2  0  0  0  0  0  0
  184.9750  178.4640  144.5500 N   0  0  0  0  0  0  0  0  0  0  0  0
  185.3560  179.0900  145.8270 C   0  0  0  0  0  2  0  0  0  0  0  0
  184.6240  178.5650  146.8970 O   0  0  0  0  0  1  0  0  0  0  0  0
  187.2130  177.4910  144.9480 C   0  0  0  0  0  1  0  0  0  0  0  0
  186.0240  177.5840  143.9990 C   0  0  2  0  0  3  0  0  0  0  0  0
  186.5240  178.0730  142.6370 C   0  0  0  0  0  2  0  0  0  0  0  0
  187.8320  177.6400  142.4040 O   0  0  0  0  0  1  0  0  0  0  0  0
  1 21  1  6  0  0  0
  1 19  1  0  0  0  0
  2 17  1  1  0  0  0
  2  7  1  0  0  0  0
  3 14  1  0  0  0  0
  4 12  1  6  0  0  0
  5 11  1  1  0  0  0
  6  2  1  0  0  0  0
  6  9  1  0  0  0  0
  7  4  1  0  0  0  0
  7  5  1  0  0  0  0
  9  4  1  0  0  0  0
 10 20  1  0  0  0  0
 10 15  1  0  0  0  0
 11 20  1  0  0  0  0
 12  8  1  0  0  0  0
 13 19  2  0  0  0  0
 14 10  1  0  0  0  0
 15 13  1  0  0  0  0
 16  9  2  0  0  0  0
 18  5  1  0  0  0  0
 18  8  1  0  0  0  0
 18 14  1  0  0  0  0
 20  1  1  0  0  0  0
 21 22  1  0  0  0  0
 22 23  1  0  0  0  0
 23 24  1  0  0  0  0
 26 22  1  0  0  0  0
 26 25  1  0  0  0  0
 27 26  1  0  0  0  0
 28 27  1  0  0  0  0
M  END
>  <MODEL>
4

>  <REMARK>
 VINA RESULT:      -5.6      2.157      7.005
  Name = 
  5 active torsions:
  status: ('A' for Active; 'I' for Inactive)
    1  A    between atoms: C_1  and  C_2
    2  A    between atoms: C_2  and  N_3
    3  A    between atoms: N_3  and  C_7
    4  A    between atoms: N_3  and  C_11
    5  A    between atoms: C_6  and  C_11
                            x       y       z     vdW  Elec       q    Type
                         _______ _______ _______ _____ _____    ______ ____

>  <TORSDO>
F 5

$$$$
=
 OpenBabel11052413343D

 28 31  0  0  1  0  0  0  0  0999 V2000
  186.8330  179.0050  141.7130 C   0  0  2  0  0  3  0  0  0  0  0  0
  185.9860  177.3080  135.7280 C   0  0  1  0  0  3  0  0  0  0  0  0
  184.1390  180.7620  138.7290 O   0  0  0  0  0  1  0  0  0  0  0  0
  184.9300  175.7240  137.2940 C   0  0  2  0  0  3  0  0  0  0  0  0
  185.6120  178.1050  138.1430 C   0  0  2  0  0  3  0  0  0  0  0  0
  185.6340  176.1000  135.0050 N   0  0  0  0  0  2  0  0  0  0  0  0
  185.8940  176.9250  137.2050 C   0  0  2  0  0  3  0  0  0  0  0  0
  183.3320  177.1400  138.6440 C   0  0  0  0  0  2  0  0  0  0  0  0
  185.0390  175.1960  135.9170 C   0  0  0  0  0  0  0  0  0  0  0  0
  184.6020  179.3700  140.6270 C   0  0  1  0  0  3  0  0  0  0  0  0
  186.2770  177.8610  139.4930 C   0  0  0  0  0  2  0  0  0  0  0  0
  183.4730  176.1470  137.5050 C   0  0  0  0  0  2  0  0  0  0  0  0
  184.8500  177.7980  142.6200 C   0  0  0  0  0  3  0  0  0  0  0  0
  183.8320  179.5280  139.3060 C   0  0  2  0  0  3  0  0  0  0  0  0
  183.9570  178.2870  141.5060 C   0  0  0  0  0  2  0  0  0  0  0  0
  184.6320  174.0560  135.5700 O   0  0  0  0  0  0  0  0  0  0  0  0
  187.4030  177.7220  135.3820 C   0  0  0  0  0  1  0  0  0  0  0  0
  184.1090  178.4020  138.2950 C   0  0  1  0  0  3  0  0  0  0  0  0
  186.1590  178.0800  142.6890 C   0  0  0  0  0  3  0  0  0  0  0  0
  186.0920  179.0980  140.3720 C   0  0  2  0  0  3  0  0  0  0  0  0
  188.3210  178.6650  141.5720 C   0  0  0  0  0  2  0  0  0  0  0  0
  188.7940  177.6400  142.5190 N   0  0  0  0  0  0  0  0  0  0  0  0
  189.6280  178.2610  143.5610 C   0  0  0  0  0  2  0  0  0  0  0  0
  189.0540  178.1240  144.8300 O   0  0  0  0  0  1  0  0  0  0  0  0
  190.2000  175.6330  142.8520 C   0  0  0  0  0  1  0  0  0  0  0  0
  189.4560  176.5040  141.8470 C   0  0  2  0  0  3  0  0  0  0  0  0
  190.4460  176.9700  140.7770 C   0  0  0  0  0  2  0  0  0  0  0  0
  190.5700  176.0140  139.7660 O   0  0  0  0  0  1  0  0  0  0  0  0
  1 21  1  6  0  0  0
  1 19  1  0  0  0  0
  2 17  1  6  0  0  0
  2  7  1  0  0  0  0
  3 14  1  0  0  0  0
  4 12  1  6  0  0  0
  5 18  1  0  0  0  0
  5 11  1  1  0  0  0
  6  2  1  0  0  0  0
  6  9  1  0  0  0  0
  7  4  1  0  0  0  0
  7  5  1  0  0  0  0
  9  4  1  0  0  0  0
 10 15  1  0  0  0  0
 11 20  1  0  0  0  0
 12  8  1  0  0  0  0
 13 19  2  0  0  0  0
 14 10  1  0  0  0  0
 15 13  1  0  0  0  0
 16  9  2  0  0  0  0
 18  8  1  0  0  0  0
 18 14  1  0  0  0  0
 20 10  1  0  0  0  0
 20  1  1  0  0  0  0
 21 22  1  0  0  0  0
 22 23  1  0  0  0  0
 23 24  1  0  0  0  0
 26 22  1  0  0  0  0
 26 25  1  0  0  0  0
 27 26  1  0  0  0  0
 28 27  1  0  0  0  0
M  END
>  <MODEL>
5

>  <REMARK>
 VINA RESULT:      -5.5      3.158      7.793
  Name = 
  5 active torsions:
  status: ('A' for Active; 'I' for Inactive)
    1  A    between atoms: C_1  and  C_2
    2  A    between atoms: C_2  and  N_3
    3  A    between atoms: N_3  and  C_7
    4  A    between atoms: N_3  and  C_11
    5  A    between atoms: C_6  and  C_11
                            x       y       z     vdW  Elec       q    Type
                         _______ _______ _______ _____ _____    ______ ____

>  <TORSDO>
F 5

$$$$
=
 OpenBabel11052413343D

 28 31  0  0  1  0  0  0  0  0999 V2000
  183.5240  178.8040  142.2180 C   0  0  2  0  0  3  0  0  0  0  0  0
  181.8640  175.1560  137.3870 C   0  0  1  0  0  3  0  0  0  0  0  0
  181.7650  179.9880  138.3780 O   0  0  0  0  0  1  0  0  0  0  0  0
  180.2740  174.9830  139.2620 C   0  0  2  0  0  3  0  0  0  0  0  0
  181.9370  177.0030  139.1720 C   0  0  2  0  0  3  0  0  0  0  0  0
  181.0070  174.0050  137.1680 N   0  0  0  0  0  2  0  0  0  0  0  0
  181.6580  175.5290  138.8550 C   0  0  2  0  0  3  0  0  0  0  0  0
  179.4780  177.3500  139.6380 C   0  0  0  0  0  2  0  0  0  0  0  0
  180.1070  173.9110  138.2560 C   0  0  0  0  0  0  0  0  0  0  0  0
  181.6370  179.5100  140.7260 C   0  0  1  0  0  3  0  0  0  0  0  0
  182.4700  177.1320  140.5960 C   0  0  0  0  0  2  0  0  0  0  0  0
  179.1460  175.9950  139.0400 C   0  0  0  0  0  2  0  0  0  0  0  0
  181.2420  179.0150  143.1960 C   0  0  0  0  0  3  0  0  0  0  0  0
  180.9740  179.3680  139.3470 C   0  0  2  0  0  3  0  0  0  0  0  0
  180.6150  179.2780  141.8490 C   0  0  0  0  0  2  0  0  0  0  0  0
  179.2410  173.0010  138.3400 O   0  0  0  0  0  0  0  0  0  0  0  0
  183.3110  174.7750  137.1420 C   0  0  0  0  0  1  0  0  0  0  0  0
  180.7120  177.9070  138.9410 C   0  0  1  0  0  3  0  0  0  0  0  0
  182.5460  178.7530  143.3600 C   0  0  0  0  0  3  0  0  0  0  0  0
  182.8590  178.5880  140.8530 C   0  0  2  0  0  3  0  0  0  0  0  0
  184.7170  177.8760  142.4760 C   0  0  0  0  0  2  0  0  0  0  0  0
  185.8540  178.5320  143.1480 N   0  0  0  0  0  0  0  0  0  0  0  0
  187.0520  178.4620  142.2970 C   0  0  0  0  0  2  0  0  0  0  0  0
  186.8140  178.9990  141.0270 O   0  0  0  0  0  1  0  0  0  0  0  0
  185.5370  178.9880  145.5580 C   0  0  0  0  0  1  0  0  0  0  0  0
  186.0810  178.0200  144.5140 C   0  0  2  0  0  3  0  0  0  0  0  0
  187.5660  177.7810  144.7960 C   0  0  0  0  0  2  0  0  0  0  0  0
  187.8220  177.8120  146.1690 O   0  0  0  0  0  1  0  0  0  0  0  0
  1 21  1  1  0  0  0
  1 19  1  0  0  0  0
  2 17  1  1  0  0  0
  2  7  1  0  0  0  0
  3 14  1  0  0  0  0
  4 12  1  6  0  0  0
  5 11  1  1  0  0  0
  6  2  1  0  0  0  0
  6  9  1  0  0  0  0
  7  5  1  0  0  0  0
  7  4  1  0  0  0  0
  9 16  2  0  0  0  0
  9  4  1  0  0  0  0
 10 20  1  0  0  0  0
 10 15  1  0  0  0  0
 11 20  1  0  0  0  0
 12  8  1  0  0  0  0
 13 19  2  0  0  0  0
 14 10  1  0  0  0  0
 15 13  1  0  0  0  0
 18  5  1  0  0  0  0
 18 14  1  0  0  0  0
 18  8  1  0  0  0  0
 20  1  1  0  0  0  0
 21 22  1  0  0  0  0
 22 26  1  0  0  0  0
 23 22  1  0  0  0  0
 24 23  1  0  0  0  0
 26 27  1  0  0  0  0
 26 25  1  0  0  0  0
 27 28  1  0  0  0  0
M  END
>  <MODEL>
6

>  <REMARK>
 VINA RESULT:      -5.5      1.807      7.609
  Name = 
  5 active torsions:
  status: ('A' for Active; 'I' for Inactive)
    1  A    between atoms: C_1  and  C_2
    2  A    between atoms: C_2  and  N_3
    3  A    between atoms: N_3  and  C_7
    4  A    between atoms: N_3  and  C_11
    5  A    between atoms: C_6  and  C_11
                            x       y       z     vdW  Elec       q    Type
                         _______ _______ _______ _____ _____    ______ ____

>  <TORSDO>
F 5

$$$$
=
 OpenBabel11052413343D

 28 31  0  0  1  0  0  0  0  0999 V2000
  189.5350  177.2250  138.8730 C   0  0  2  0  0  3  0  0  0  0  0  0
  184.9000  173.7370  136.4720 C   0  0  1  0  0  3  0  0  0  0  0  0
  189.4760  174.9780  135.1060 O   0  0  0  0  0  1  0  0  0  0  0  0
  184.4420  176.1500  136.2630 C   0  0  2  0  0  3  0  0  0  0  0  0
  186.8840  175.3460  136.7550 C   0  0  2  0  0  3  0  0  0  0  0  0
  183.5030  173.9190  136.1240 N   0  0  0  0  0  2  0  0  0  0  0  0
  185.3770  175.1170  136.9240 C   0  0  2  0  0  3  0  0  0  0  0  0
  186.4040  177.0570  134.9580 C   0  0  0  0  0  2  0  0  0  0  0  0
  183.2510  175.3070  136.0180 C   0  0  0  0  0  0  0  0  0  0  0  0
  189.3160  177.0010  136.3850 C   0  0  1  0  0  3  0  0  0  0  0  0
  187.3900  176.2820  137.8470 C   0  0  0  0  0  2  0  0  0  0  0  0
  184.9510  176.6260  134.9000 C   0  0  0  0  0  2  0  0  0  0  0  0
  189.0630  179.2670  137.5260 C   0  0  0  0  0  3  0  0  0  0  0  0
  188.7580  176.1700  135.2180 C   0  0  2  0  0  3  0  0  0  0  0  0
  188.8980  178.4730  136.2530 C   0  0  0  0  0  2  0  0  0  0  0  0
  182.1150  175.7680  135.7270 O   0  0  0  0  0  0  0  0  0  0  0  0
  185.0230  172.7420  137.6090 C   0  0  0  0  0  1  0  0  0  0  0  0
  187.2570  175.8580  135.3510 C   0  0  1  0  0  3  0  0  0  0  0  0
  189.3020  178.7030  138.7180 C   0  0  0  0  0  3  0  0  0  0  0  0
  188.9100  176.4010  137.7390 C   0  0  2  0  0  3  0  0  0  0  0  0
  189.1320  176.7500  140.2740 C   0  0  0  0  0  2  0  0  0  0  0  0
  189.6330  177.6050  141.3650 N   0  0  0  0  0  0  0  0  0  0  0  0
  190.9400  177.1150  141.8310 C   0  0  0  0  0  2  0  0  0  0  0  0
  191.4960  177.9660  142.7930 O   0  0  0  0  0  1  0  0  0  0  0  0
  188.3810  176.4430  143.1520 C   0  0  0  0  0  1  0  0  0  0  0  0
  188.6520  177.7710  142.4560 C   0  0  2  0  0  3  0  0  0  0  0  0
  187.3230  178.3370  141.9500 C   0  0  0  0  0  2  0  0  0  0  0  0
  186.2670  177.9300  142.7680 O   0  0  0  0  0  1  0  0  0  0  0  0
  1 21  1  1  0  0  0
  2  7  1  0  0  0  0
  2 17  1  1  0  0  0
  3 14  1  0  0  0  0
  4 12  1  6  0  0  0
  4  7  1  0  0  0  0
  5  7  1  0  0  0  0
  5 11  1  1  0  0  0
  6  2  1  0  0  0  0
  8 18  1  0  0  0  0
  9  6  1  0  0  0  0
  9  4  1  0  0  0  0
 10 20  1  0  0  0  0
 12  8  1  0  0  0  0
 13 19  2  0  0  0  0
 14 18  1  0  0  0  0
 14 10  1  0  0  0  0
 15 10  1  0  0  0  0
 15 13  1  0  0  0  0
 16  9  2  0  0  0  0
 18  5  1  0  0  0  0
 19  1  1  0  0  0  0
 20 11  1  0  0  0  0
 20  1  1  0  0  0  0
 21 22  1  0  0  0  0
 22 23  1  0  0  0  0
 22 26  1  0  0  0  0
 23 24  1  0  0  0  0
 26 25  1  0  0  0  0
 27 26  1  0  0  0  0
 27 28  1  0  0  0  0
M  END
>  <MODEL>
7

>  <REMARK>
 VINA RESULT:      -5.3      3.923      8.525
  Name = 
  5 active torsions:
  status: ('A' for Active; 'I' for Inactive)
    1  A    between atoms: C_1  and  C_2
    2  A    between atoms: C_2  and  N_3
    3  A    between atoms: N_3  and  C_7
    4  A    between atoms: N_3  and  C_11
    5  A    between atoms: C_6  and  C_11
                            x       y       z     vdW  Elec       q    Type
                         _______ _______ _______ _____ _____    ______ ____

>  <TORSDO>
F 5

$$$$
=
 OpenBabel11052413343D

 28 31  0  0  1  0  0  0  0  0999 V2000
  190.5510  176.5200  137.5610 C   0  0  2  0  0  3  0  0  0  0  0  0
  196.1650  173.7710  138.1480 C   0  0  1  0  0  3  0  0  0  0  0  0
  194.0890  176.9560  135.0030 O   0  0  0  0  0  1  0  0  0  0  0  0
  194.4540  172.2040  137.3160 C   0  0  2  0  0  3  0  0  0  0  0  0
  193.9990  174.7800  137.2010 C   0  0  2  0  0  3  0  0  0  0  0  0
  196.6820  172.4180  138.2470 N   0  0  0  0  0  2  0  0  0  0  0  0
  194.6610  173.6040  137.9300 C   0  0  2  0  0  3  0  0  0  0  0  0
  193.5770  173.2850  135.2090 C   0  0  0  0  0  2  0  0  0  0  0  0
  195.6860  171.5290  137.7770 C   0  0  0  0  0  0  0  0  0  0  0  0
  191.9230  176.0580  135.5140 C   0  0  1  0  0  3  0  0  0  0  0  0
  192.5620  174.9440  137.6860 C   0  0  0  0  0  2  0  0  0  0  0  0
  194.4860  172.2150  135.7850 C   0  0  0  0  0  2  0  0  0  0  0  0
  189.6550  174.9430  135.8520 C   0  0  0  0  0  3  0  0  0  0  0  0
  193.3260  175.7880  134.9470 C   0  0  2  0  0  3  0  0  0  0  0  0
  190.9310  174.9810  135.0480 C   0  0  0  0  0  2  0  0  0  0  0  0
  195.8540  170.2810  137.7470 O   0  0  0  0  0  0  0  0  0  0  0  0
  196.4260  174.5190  139.4400 C   0  0  0  0  0  1  0  0  0  0  0  0
  194.0700  174.6500  135.6680 C   0  0  1  0  0  3  0  0  0  0  0  0
  189.4980  175.5970  137.0120 C   0  0  0  0  0  3  0  0  0  0  0  0
  191.9580  176.1930  137.0440 C   0  0  2  0  0  3  0  0  0  0  0  0
  190.4620  176.6050  139.0900 C   0  0  0  0  0  2  0  0  0  0  0  0
  189.1970  177.1760  139.5860 N   0  0  0  0  0  0  0  0  0  0  0  0
  189.0080  178.5310  139.0430 C   0  0  0  0  0  2  0  0  0  0  0  0
  187.8170  178.6330  138.3150 O   0  0  0  0  0  1  0  0  0  0  0  0
  188.6190  178.4550  141.6220 C   0  0  0  0  0  1  0  0  0  0  0  0
  189.0840  177.1180  141.0570 C   0  0  2  0  0  3  0  0  0  0  0  0
  190.4120  176.7430  141.7190 C   0  0  0  0  0  2  0  0  0  0  0  0
  190.2570  175.6260  142.5430 O   0  0  0  0  0  1  0  0  0  0  0  0
  1 21  1  1  0  0  0
  2  6  1  0  0  0  0
  2 17  1  1  0  0  0
  4 12  1  6  0  0  0
  4  9  1  0  0  0  0
  4  7  1  0  0  0  0
  5 11  1  1  0  0  0
  5  7  1  0  0  0  0
  7  2  1  0  0  0  0
  8 18  1  0  0  0  0
  8 12  1  0  0  0  0
  9  6  1  0  0  0  0
 10 20  1  0  0  0  0
 13 19  2  0  0  0  0
 14  3  1  0  0  0  0
 14 10  1  0  0  0  0
 14 18  1  0  0  0  0
 15 10  1  0  0  0  0
 15 13  1  0  0  0  0
 16  9  2  0  0  0  0
 18  5  1  0  0  0  0
 19  1  1  0  0  0  0
 20  1  1  0  0  0  0
 20 11  1  0  0  0  0
 21 22  1  0  0  0  0
 22 26  1  0  0  0  0
 23 22  1  0  0  0  0
 24 23  1  0  0  0  0
 26 25  1  0  0  0  0
 26 27  1  0  0  0  0
 27 28  1  0  0  0  0
M  END
>  <MODEL>
8

>  <REMARK>
 VINA RESULT:      -5.3      8.706     11.138
  Name = 
  5 active torsions:
  status: ('A' for Active; 'I' for Inactive)
    1  A    between atoms: C_1  and  C_2
    2  A    between atoms: C_2  and  N_3
    3  A    between atoms: N_3  and  C_7
    4  A    between atoms: N_3  and  C_11
    5  A    between atoms: C_6  and  C_11
                            x       y       z     vdW  Elec       q    Type
                         _______ _______ _______ _____ _____    ______ ____

>  <TORSDO>
F 5

$$$$
=
 OpenBabel11052413343D

 28 31  0  0  1  0  0  0  0  0999 V2000
  193.5170  174.2430  137.0290 C   0  0  2  0  0  3  0  0  0  0  0  0
  188.4570  177.3870  139.0100 C   0  0  1  0  0  3  0  0  0  0  0  0
  189.3690  172.8440  137.3160 O   0  0  0  0  0  1  0  0  0  0  0  0
  189.1700  178.1080  136.7630 C   0  0  2  0  0  3  0  0  0  0  0  0
  190.0480  175.8350  137.7200 C   0  0  2  0  0  3  0  0  0  0  0  0
  187.7790  178.6270  138.6800 N   0  0  0  0  0  2  0  0  0  0  0  0
  189.5900  177.2740  137.9900 C   0  0  2  0  0  3  0  0  0  0  0  0
  189.1200  175.9990  135.3750 C   0  0  0  0  0  2  0  0  0  0  0  0
  188.2050  179.0350  137.3930 C   0  0  0  0  0  0  0  0  0  0  0  0
  191.2610  173.6720  136.0950 C   0  0  1  0  0  3  0  0  0  0  0  0
  191.5370  175.8220  137.3870 C   0  0  0  0  0  2  0  0  0  0  0  0
  188.4010  177.2890  135.7220 C   0  0  0  0  0  2  0  0  0  0  0  0
  193.1100  174.5820  134.5940 C   0  0  0  0  0  3  0  0  0  0  0  0
  189.7380  173.7280  136.3000 C   0  0  2  0  0  3  0  0  0  0  0  0
  191.6460  174.2410  134.7210 C   0  0  0  0  0  2  0  0  0  0  0  0
  187.7820  180.0860  136.8430 O   0  0  0  0  0  0  0  0  0  0  0  0
  189.0230  177.4670  140.4140 C   0  0  0  0  0  1  0  0  0  0  0  0
  189.2160  175.1380  136.6280 C   0  0  1  0  0  3  0  0  0  0  0  0
  193.9460  174.6310  135.6400 C   0  0  0  0  0  3  0  0  0  0  0  0
  192.0030  174.3730  137.2420 C   0  0  2  0  0  3  0  0  0  0  0  0
  194.3530  174.9730  138.0860 C   0  0  0  0  0  2  0  0  0  0  0  0
  195.4410  174.1600  138.6580 N   0  0  0  0  0  0  0  0  0  0  0  0
  196.0750  174.8780  139.7750 C   0  0  0  0  0  2  0  0  0  0  0  0
  195.3000  175.9650  140.1950 O   0  0  0  0  0  1  0  0  0  0  0  0
  196.6830  172.2090  137.7820 C   0  0  0  0  0  1  0  0  0  0  0  0
  196.4060  173.7010  137.6400 C   0  0  2  0  0  3  0  0  0  0  0  0
  197.7350  174.4550  137.7300 C   0  0  0  0  0  2  0  0  0  0  0  0
  197.6940  175.6270  136.9710 O   0  0  0  0  0  1  0  0  0  0  0  0
  1 20  1  0  0  0  0
  1 21  1  1  0  0  0
  2 17  1  1  0  0  0
  4 12  1  6  0  0  0
  4  9  1  0  0  0  0
  4  7  1  0  0  0  0
  5 11  1  6  0  0  0
  5  7  1  0  0  0  0
  6  2  1  0  0  0  0
  7  2  1  0  0  0  0
  8 12  1  0  0  0  0
  8 18  1  0  0  0  0
  9  6  1  0  0  0  0
 10 14  1  0  0  0  0
 10 20  1  0  0  0  0
 13 15  1  0  0  0  0
 13 19  2  0  0  0  0
 14 18  1  0  0  0  0
 14  3  1  0  0  0  0
 15 10  1  0  0  0  0
 16  9  2  0  0  0  0
 18  5  1  0  0  0  0
 19  1  1  0  0  0  0
 20 11  1  0  0  0  0
 21 22  1  0  0  0  0
 22 23  1  0  0  0  0
 23 24  1  0  0  0  0
 26 27  1  0  0  0  0
 26 25  1  0  0  0  0
 26 22  1  0  0  0  0
 28 27  1  0  0  0  0
M  END
>  <MODEL>
9

>  <REMARK>
 VINA RESULT:      -5.3      8.335     11.418
  Name = 
  5 active torsions:
  status: ('A' for Active; 'I' for Inactive)
    1  A    between atoms: C_1  and  C_2
    2  A    between atoms: C_2  and  N_3
    3  A    between atoms: N_3  and  C_7
    4  A    between atoms: N_3  and  C_11
    5  A    between atoms: C_6  and  C_11
                            x       y       z     vdW  Elec       q    Type
                         _______ _______ _______ _____ _____    ______ ____

>  <TORSDO>
F 5

$$$$
