=
 OpenBabel11052416273D

 43 47  0  0  1  0  0  0  0  0999 V2000
  193.4470  173.3410  136.4360 C   0  0  0  0  0  0  0  0  0  0  0  0
  190.4910  176.7640  138.5660 C   0  0  0  0  0  0  0  0  0  0  0  0
  192.6280  175.4440  137.4500 C   0  0  0  0  0  0  0  0  0  0  0  0
  192.0350  172.9560  136.0650 C   0  0  0  0  0  2  0  0  0  0  0  0
  194.3730  172.4590  136.3640 N   0  0  0  0  0  2  0  0  0  0  0  0
  191.3220  175.1570  137.0080 C   0  0  0  0  0  0  0  0  0  0  0  0
  193.8030  174.7460  136.8350 C   0  0  0  0  0  2  0  0  0  0  0  0
  191.1100  174.1660  135.9050 C   0  0  0  0  0  2  0  0  0  0  0  0
  188.8150  175.7600  137.3140 C   0  0  0  0  0  2  0  0  0  0  0  0
  190.2630  175.8510  137.5910 C   0  0  0  0  0  0  0  0  0  0  0  0
  191.7460  177.0600  138.9960 N   0  0  0  0  0  0  0  0  0  0  0  0
  189.2250  177.3450  139.0480 C   0  0  1  0  0  3  0  0  0  0  0  0
  188.1570  176.7110  138.2370 N   0  0  0  0  0  0  0  0  0  0  0  0
  192.8190  176.4160  138.4510 C   0  0  0  0  0  3  0  0  0  0  0  0
  188.3600  178.8810  137.0130 C   0  0  0  0  0  1  0  0  0  0  0  0
  187.4560  177.7150  137.4190 C   0  0  2  0  0  3  0  0  0  0  0  0
  186.2370  178.2660  138.1630 C   0  0  0  0  0  2  0  0  0  0  0  0
  185.0220  177.3600  137.9960 C   0  0  0  0  0  2  0  0  0  0  0  0
  183.8340  178.0060  138.5350 N   0  0  0  0  0  0  0  0  0  0  0  0
  184.1280  179.4180  138.7200 C   0  0  0  0  0  1  0  0  0  0  0  0
  183.4060  177.4330  139.8250 C   0  0  0  0  0  2  0  0  0  0  0  0
  183.0720  178.4220  140.9660 C   0  0  2  0  0  3  0  0  0  0  0  0
  185.0060  178.8340  142.5560 C   0  0  0  0  0  0  0  0  0  0  0  0
  183.8200  178.1280  142.1830 N   0  0  0  0  0  2  0  0  0  0  0  0
  185.4970  179.6990  141.7800 O   0  0  0  0  0  0  0  0  0  0  0  0
  185.6430  178.5440  143.8490 C   0  0  0  0  0  0  0  0  0  0  0  0
  187.3740  177.4320  145.2270 C   0  0  0  0  0  2  0  0  0  0  0  0
  185.7000  178.8770  146.3580 C   0  0  0  0  0  2  0  0  0  0  0  0
  186.3880  177.5150  146.3890 C   0  0  0  0  0  2  0  0  0  0  0  0
  185.0830  179.0910  145.0520 N   0  0  0  0  0  2  0  0  0  0  0  0
  186.6950  177.7190  143.9180 C   0  0  0  0  0  3  0  0  0  0  0  0
  181.5740  178.4810  141.2560 C   0  0  0  0  0  2  0  0  0  0  0  0
  180.8480  178.4080  143.5320 O   0  0  0  0  0  1  0  0  0  0  0  0
  181.2810  179.2670  142.5230 C   0  0  0  0  0  2  0  0  0  0  0  0
  189.0290  176.9840  140.5140 C   0  0  0  0  0  2  0  0  0  0  0  0
  189.6770  177.9410  141.3420 O   0  0  0  0  0  0  0  0  0  0  0  0
  190.9090  178.2430  144.8370 C   0  0  0  0  0  3  0  0  0  0  0  0
  191.0630  175.9380  144.1150 C   0  0  0  0  0  3  0  0  0  0  0  0
  191.2490  176.9140  145.0990 C   0  0  0  0  0  0  0  0  0  0  0  0
  190.3860  178.5960  143.5910 C   0  0  0  0  0  3  0  0  0  0  0  0
  190.2000  177.6200  142.5980 C   0  0  0  0  0  0  0  0  0  0  0  0
  191.8110  176.5370  146.4220 C   0  0  0  0  0  1  0  0  0  0  0  0
  190.5410  176.2910  142.8660 C   0  0  0  0  0  3  0  0  0  0  0  0
  1  7  1  0  0  0  0
  2 11  1  0  0  0  0
  2 12  1  0  0  0  0
  3 14  1  0  0  0  0
  4  1  1  0  0  0  0
  5  1  2  0  0  0  0
  6  3  2  0  0  0  0
  6 10  1  0  0  0  0
  7  3  1  0  0  0  0
  8  4  1  0  0  0  0
  8  6  1  0  0  0  0
  9 10  1  0  0  0  0
  9 13  1  0  0  0  0
 10  2  2  0  0  0  0
 12 35  1  1  0  0  0
 13 12  1  0  0  0  0
 14 11  2  0  0  0  0
 16 15  1  1  0  0  0
 16 17  1  0  0  0  0
 16 13  1  0  0  0  0
 18 17  1  0  0  0  0
 18 19  1  0  0  0  0
 19 20  1  0  0  0  0
 19 21  1  0  0  0  0
 22 21  1  6  0  0  0
 22 32  1  0  0  0  0
 22 24  1  0  0  0  0
 23 26  1  0  0  0  0
 24 23  1  0  0  0  0
 25 23  2  0  0  0  0
 26 31  2  0  0  0  0
 26 30  1  0  0  0  0
 27 29  1  0  0  0  0
 28 29  1  0  0  0  0
 30 28  1  0  0  0  0
 31 27  1  0  0  0  0
 32 34  1  0  0  0  0
 34 33  1  0  0  0  0
 35 36  1  0  0  0  0
 36 41  1  0  0  0  0
 37 39  1  0  0  0  0
 38 39  2  0  0  0  0
 39 42  1  0  0  0  0
 40 37  2  0  0  0  0
 41 43  2  0  0  0  0
 41 40  1  0  0  0  0
 43 38  1  0  0  0  0
M  END
>  <MODEL>
1

>  <REMARK>
 VINA RESULT:      -8.0      0.000      0.000
  Name = 
  13 active torsions:
  status: ('A' for Active; 'I' for Inactive)
    1  A    between atoms: C_1  and  O_28
    2  A    between atoms: C_1  and  C_34
    3  A    between atoms: C_2  and  C_6
    4  A    between atoms: C_2  and  C_13
    5  A    between atoms: C_3  and  C_4
    6  A    between atoms: C_3  and  N_12
    7  A    between atoms: C_4  and  C_15
    8  A    between atoms: C_4  and  N_22
    9  A    between atoms: C_6  and  N_12
   10  A    between atoms: C_11  and  C_14
   11  A    between atoms: C_13  and  N_38
   12  A    between atoms: C_15  and  C_42
   13  A    between atoms: O_28  and  C_35
                            x       y       z     vdW  Elec       q    Type
                         _______ _______ _______ _____ _____    ______ ____

>  <TORSDO>
F 13

$$$$
=
 OpenBabel11052416273D

 43 47  0  0  1  0  0  0  0  0999 V2000
  186.4590  177.8120  145.7060 C   0  0  0  0  0  0  0  0  0  0  0  0
  182.7890  178.7880  142.4540 C   0  0  0  0  0  0  0  0  0  0  0  0
  184.5290  178.8750  144.5800 C   0  0  0  0  0  0  0  0  0  0  0  0
  186.8740  177.1630  144.4070 C   0  0  0  0  0  2  0  0  0  0  0  0
  186.9960  177.4170  146.7990 N   0  0  0  0  0  2  0  0  0  0  0  0
  184.9680  178.3750  143.3390 C   0  0  0  0  0  0  0  0  0  0  0  0
  185.4740  178.9470  145.7410 C   0  0  0  0  0  2  0  0  0  0  0  0
  186.3900  177.9330  143.1750 C   0  0  0  0  0  2  0  0  0  0  0  0
  184.2530  177.8980  140.8890 C   0  0  0  0  0  2  0  0  0  0  0  0
  184.0600  178.3520  142.2810 C   0  0  0  0  0  0  0  0  0  0  0  0
  182.3530  179.2830  143.6430 N   0  0  0  0  0  0  0  0  0  0  0  0
  182.0110  178.6410  141.2110 C   0  0  1  0  0  3  0  0  0  0  0  0
  182.9520  178.0850  140.2090 N   0  0  0  0  0  0  0  0  0  0  0  0
  183.2050  179.3360  144.7080 C   0  0  0  0  0  3  0  0  0  0  0  0
  182.2590  178.7430  137.8990 C   0  0  0  0  0  1  0  0  0  0  0  0
  183.1580  179.0350  139.1020 C   0  0  2  0  0  3  0  0  0  0  0  0
  184.6190  179.0260  138.6460 C   0  0  0  0  0  2  0  0  0  0  0  0
  184.8680  177.9590  137.5860 C   0  0  0  0  0  2  0  0  0  0  0  0
  186.2910  177.6570  137.5000 N   0  0  0  0  0  0  0  0  0  0  0  0
  186.4470  176.2120  137.4640 C   0  0  0  0  0  1  0  0  0  0  0  0
  187.0590  178.1930  138.6390 C   0  0  0  0  0  2  0  0  0  0  0  0
  188.4460  177.5690  138.9170 C   0  0  2  0  0  3  0  0  0  0  0  0
  189.9210  176.9480  140.8860 C   0  0  0  0  0  0  0  0  0  0  0  0
  188.8180  177.6630  140.3240 N   0  0  0  0  0  2  0  0  0  0  0  0
  190.5710  176.1300  140.1780 O   0  0  0  0  0  0  0  0  0  0  0  0
  190.2910  177.1760  142.2900 C   0  0  0  0  0  0  0  0  0  0  0  0
  191.3010  176.4370  144.4270 C   0  0  0  0  0  2  0  0  0  0  0  0
  190.3170  178.7150  144.3010 C   0  0  0  0  0  2  0  0  0  0  0  0
  190.3670  177.4270  145.1180 C   0  0  0  0  0  2  0  0  0  0  0  0
  189.9340  178.4140  142.9240 N   0  0  0  0  0  2  0  0  0  0  0  0
  190.8930  176.2130  142.9990 C   0  0  0  0  0  3  0  0  0  0  0  0
  189.5350  178.1700  138.0310 C   0  0  0  0  0  2  0  0  0  0  0  0
  189.2660  177.6640  135.7100 O   0  0  0  0  0  1  0  0  0  0  0  0
  189.8950  177.2430  136.8810 C   0  0  0  0  0  2  0  0  0  0  0  0
  180.8740  177.6550  141.4400 C   0  0  0  0  0  2  0  0  0  0  0  0
  180.1490  177.4570  140.2330 O   0  0  0  0  0  0  0  0  0  0  0  0
  179.5320  173.8330  139.6780 C   0  0  0  0  0  3  0  0  0  0  0  0
  180.2430  174.8650  137.6060 C   0  0  0  0  0  3  0  0  0  0  0  0
  179.8390  173.7310  138.3180 C   0  0  0  0  0  0  0  0  0  0  0  0
  179.6330  175.0660  140.3240 C   0  0  0  0  0  3  0  0  0  0  0  0
  180.0410  176.2080  139.6150 C   0  0  0  0  0  0  0  0  0  0  0  0
  179.7370  172.4180  137.6290 C   0  0  0  0  0  1  0  0  0  0  0  0
  180.3450  176.1000  138.2540 C   0  0  0  0  0  3  0  0  0  0  0  0
  1  7  1  0  0  0  0
  1  5  2  0  0  0  0
  2 11  1  0  0  0  0
  3 14  1  0  0  0  0
  3  7  1  0  0  0  0
  4  1  1  0  0  0  0
  6  3  2  0  0  0  0
  8  6  1  0  0  0  0
  8  4  1  0  0  0  0
  9 10  1  0  0  0  0
 10  2  2  0  0  0  0
 10  6  1  0  0  0  0
 11 14  2  0  0  0  0
 12 35  1  1  0  0  0
 12  2  1  0  0  0  0
 13  9  1  0  0  0  0
 13 12  1  0  0  0  0
 16 15  1  6  0  0  0
 16 13  1  0  0  0  0
 17 16  1  0  0  0  0
 18 17  1  0  0  0  0
 19 18  1  0  0  0  0
 19 21  1  0  0  0  0
 20 19  1  0  0  0  0
 21 22  1  0  0  0  0
 22 32  1  6  0  0  0
 22 24  1  0  0  0  0
 23 26  1  0  0  0  0
 24 23  1  0  0  0  0
 25 23  2  0  0  0  0
 26 30  1  0  0  0  0
 26 31  2  0  0  0  0
 27 29  1  0  0  0  0
 28 29  1  0  0  0  0
 30 28  1  0  0  0  0
 31 27  1  0  0  0  0
 33 34  1  0  0  0  0
 34 32  1  0  0  0  0
 36 35  1  0  0  0  0
 37 40  1  0  0  0  0
 38 43  2  0  0  0  0
 38 39  1  0  0  0  0
 39 37  2  0  0  0  0
 41 36  1  0  0  0  0
 41 40  2  0  0  0  0
 42 39  1  0  0  0  0
 43 41  1  0  0  0  0
M  END
>  <MODEL>
2

>  <REMARK>
 VINA RESULT:      -7.7      2.684      8.960
  Name = 
  13 active torsions:
  status: ('A' for Active; 'I' for Inactive)
    1  A    between atoms: C_1  and  O_28
    2  A    between atoms: C_1  and  C_34
    3  A    between atoms: C_2  and  C_6
    4  A    between atoms: C_2  and  C_13
    5  A    between atoms: C_3  and  C_4
    6  A    between atoms: C_3  and  N_12
    7  A    between atoms: C_4  and  C_15
    8  A    between atoms: C_4  and  N_22
    9  A    between atoms: C_6  and  N_12
   10  A    between atoms: C_11  and  C_14
   11  A    between atoms: C_13  and  N_38
   12  A    between atoms: C_15  and  C_42
   13  A    between atoms: O_28  and  C_35
                            x       y       z     vdW  Elec       q    Type
                         _______ _______ _______ _____ _____    ______ ____

>  <TORSDO>
F 13

$$$$
=
 OpenBabel11052416273D

 43 47  0  0  1  0  0  0  0  0999 V2000
  193.8940  172.5690  135.7840 C   0  0  0  0  0  0  0  0  0  0  0  0
  191.6200  176.3520  138.1320 C   0  0  0  0  0  0  0  0  0  0  0  0
  193.4080  174.8010  136.7350 C   0  0  0  0  0  0  0  0  0  0  0  0
  192.4190  172.2490  135.7510 C   0  0  0  0  0  2  0  0  0  0  0  0
  194.7400  171.6240  135.6090 N   0  0  0  0  0  2  0  0  0  0  0  0
  192.0270  174.5660  136.6010 C   0  0  0  0  0  0  0  0  0  0  0  0
  194.3920  173.9760  135.9620 C   0  0  0  0  0  2  0  0  0  0  0  0
  191.5400  173.5000  135.6670 C   0  0  0  0  0  2  0  0  0  0  0  0
  189.6720  175.3580  137.3560 C   0  0  0  0  0  2  0  0  0  0  0  0
  191.1480  175.3760  137.3190 C   0  0  0  0  0  0  0  0  0  0  0  0
  192.9510  176.5980  138.2640 N   0  0  0  0  0  0  0  0  0  0  0  0
  190.5140  177.0540  138.8050 C   0  0  1  0  0  3  0  0  0  0  0  0
  189.2700  176.4260  138.2980 N   0  0  0  0  0  0  0  0  0  0  0  0
  193.8530  175.8400  137.5750 C   0  0  0  0  0  3  0  0  0  0  0  0
  189.2650  178.6310  137.1180 C   0  0  0  0  0  1  0  0  0  0  0  0
  188.4600  177.4020  137.5480 C   0  0  2  0  0  3  0  0  0  0  0  0
  187.2570  177.8590  138.3760 C   0  0  0  0  0  2  0  0  0  0  0  0
  186.0220  178.0620  137.5040 C   0  0  0  0  0  2  0  0  0  0  0  0
  185.3870  176.7810  137.2240 N   0  0  0  0  0  0  0  0  0  0  0  0
  185.0800  176.7270  135.8040 C   0  0  0  0  0  1  0  0  0  0  0  0
  184.1440  176.5790  137.9910 C   0  0  0  0  0  2  0  0  0  0  0  0
  183.4480  177.8370  138.5610 C   0  0  2  0  0  3  0  0  0  0  0  0
  184.2490  178.9050  140.7190 C   0  0  0  0  0  0  0  0  0  0  0  0
  183.5230  177.8930  140.0160 N   0  0  0  0  0  2  0  0  0  0  0  0
  184.9300  179.7530  140.0790 O   0  0  0  0  0  0  0  0  0  0  0  0
  184.1900  178.9500  142.1870 C   0  0  0  0  0  0  0  0  0  0  0  0
  185.2760  179.0220  144.4120 C   0  0  0  0  0  2  0  0  0  0  0  0
  182.7940  179.0030  144.2990 C   0  0  0  0  0  2  0  0  0  0  0  0
  184.0130  178.3650  144.9610 C   0  0  0  0  0  2  0  0  0  0  0  0
  182.9160  178.9130  142.8460 N   0  0  0  0  0  2  0  0  0  0  0  0
  185.3160  178.9520  142.9120 C   0  0  0  0  0  3  0  0  0  0  0  0
  182.0000  177.9550  138.0920 C   0  0  0  0  0  2  0  0  0  0  0  0
  180.4550  179.7120  138.5820 O   0  0  0  0  0  1  0  0  0  0  0  0
  181.6060  179.4040  137.8570 C   0  0  0  0  0  2  0  0  0  0  0  0
  190.6150  176.8340  140.3080 C   0  0  0  0  0  2  0  0  0  0  0  0
  189.3610  177.0970  140.9250 O   0  0  0  0  0  0  0  0  0  0  0  0
  189.9240  178.2390  144.4180 C   0  0  0  0  0  3  0  0  0  0  0  0
  188.0150  176.7530  144.3440 C   0  0  0  0  0  3  0  0  0  0  0  0
  188.8860  177.5700  145.0710 C   0  0  0  0  0  0  0  0  0  0  0  0
  190.0920  178.0890  143.0400 C   0  0  0  0  0  3  0  0  0  0  0  0
  189.2210  177.2660  142.3060 C   0  0  0  0  0  0  0  0  0  0  0  0
  188.7090  177.7250  146.5390 C   0  0  0  0  0  1  0  0  0  0  0  0
  188.1840  176.6000  142.9650 C   0  0  0  0  0  3  0  0  0  0  0  0
  1  7  1  0  0  0  0
  2 11  1  0  0  0  0
  2 12  1  0  0  0  0
  3 14  1  0  0  0  0
  4  1  1  0  0  0  0
  5  1  2  0  0  0  0
  6  3  2  0  0  0  0
  6 10  1  0  0  0  0
  7  3  1  0  0  0  0
  8  4  1  0  0  0  0
  8  6  1  0  0  0  0
  9 13  1  0  0  0  0
 10  9  1  0  0  0  0
 10  2  2  0  0  0  0
 12 35  1  1  0  0  0
 13 12  1  0  0  0  0
 14 11  2  0  0  0  0
 16 15  1  1  0  0  0
 16 13  1  0  0  0  0
 16 17  1  0  0  0  0
 18 17  1  0  0  0  0
 19 18  1  0  0  0  0
 19 21  1  0  0  0  0
 20 19  1  0  0  0  0
 22 21  1  1  0  0  0
 22 24  1  0  0  0  0
 23 26  1  0  0  0  0
 24 23  1  0  0  0  0
 25 23  2  0  0  0  0
 26 30  1  0  0  0  0
 26 31  2  0  0  0  0
 27 29  1  0  0  0  0
 28 29  1  0  0  0  0
 30 28  1  0  0  0  0
 31 27  1  0  0  0  0
 32 22  1  0  0  0  0
 34 32  1  0  0  0  0
 34 33  1  0  0  0  0
 35 36  1  0  0  0  0
 36 41  1  0  0  0  0
 37 39  1  0  0  0  0
 38 39  2  0  0  0  0
 39 42  1  0  0  0  0
 40 37  2  0  0  0  0
 41 43  2  0  0  0  0
 41 40  1  0  0  0  0
 43 38  1  0  0  0  0
M  END
>  <MODEL>
3

>  <REMARK>
 VINA RESULT:      -7.7      1.711      2.238
  Name = 
  13 active torsions:
  status: ('A' for Active; 'I' for Inactive)
    1  A    between atoms: C_1  and  O_28
    2  A    between atoms: C_1  and  C_34
    3  A    between atoms: C_2  and  C_6
    4  A    between atoms: C_2  and  C_13
    5  A    between atoms: C_3  and  C_4
    6  A    between atoms: C_3  and  N_12
    7  A    between atoms: C_4  and  C_15
    8  A    between atoms: C_4  and  N_22
    9  A    between atoms: C_6  and  N_12
   10  A    between atoms: C_11  and  C_14
   11  A    between atoms: C_13  and  N_38
   12  A    between atoms: C_15  and  C_42
   13  A    between atoms: O_28  and  C_35
                            x       y       z     vdW  Elec       q    Type
                         _______ _______ _______ _____ _____    ______ ____

>  <TORSDO>
F 13

$$$$
=
 OpenBabel11052416273D

 43 47  0  0  1  0  0  0  0  0999 V2000
  188.3470  178.0670  147.9320 C   0  0  0  0  0  0  0  0  0  0  0  0
  186.6520  177.7870  143.2380 C   0  0  0  0  0  0  0  0  0  0  0  0
  187.8870  177.2660  145.6370 C   0  0  0  0  0  0  0  0  0  0  0  0
  187.1260  178.9540  147.8800 C   0  0  0  0  0  2  0  0  0  0  0  0
  189.1990  178.2350  148.8740 N   0  0  0  0  0  2  0  0  0  0  0  0
  186.6830  177.9950  145.6160 C   0  0  0  0  0  0  0  0  0  0  0  0
  188.5590  176.9580  146.9410 C   0  0  0  0  0  2  0  0  0  0  0  0
  186.0620  178.4460  146.9030 C   0  0  0  0  0  2  0  0  0  0  0  0
  184.8260  178.9510  144.0730 C   0  0  0  0  0  2  0  0  0  0  0  0
  186.0800  178.2340  144.3820 C   0  0  0  0  0  0  0  0  0  0  0  0
  187.8080  177.0720  143.2430 N   0  0  0  0  0  0  0  0  0  0  0  0
  185.8540  178.1820  142.0640 C   0  0  1  0  0  3  0  0  0  0  0  0
  184.6820  178.9140  142.6000 N   0  0  0  0  0  0  0  0  0  0  0  0
  188.4340  176.8020  144.4250 C   0  0  0  0  0  3  0  0  0  0  0  0
  183.2090  178.0200  140.7880 C   0  0  0  0  0  1  0  0  0  0  0  0
  183.4320  178.1980  142.2920 C   0  0  2  0  0  3  0  0  0  0  0  0
  182.2270  178.9270  142.8910 C   0  0  0  0  0  2  0  0  0  0  0  0
  180.9760  178.7330  142.0420 C   0  0  0  0  0  2  0  0  0  0  0  0
  180.1870  179.9570  142.0210 N   0  0  0  0  0  0  0  0  0  0  0  0
  179.4760  180.0630  143.2840 C   0  0  0  0  0  1  0  0  0  0  0  0
  179.2100  179.9880  140.9170 C   0  0  0  0  0  2  0  0  0  0  0  0
  179.7170  179.6050  139.5070 C   0  0  2  0  0  3  0  0  0  0  0  0
  180.6790  181.5960  138.2640 C   0  0  0  0  0  0  0  0  0  0  0  0
  179.5980  180.7090  138.5620 N   0  0  0  0  0  2  0  0  0  0  0  0
  181.7710  181.4930  138.8870 O   0  0  0  0  0  0  0  0  0  0  0  0
  180.5070  182.6200  137.2240 C   0  0  0  0  0  0  0  0  0  0  0  0
  180.1620  183.2990  134.8670 C   0  0  0  0  0  2  0  0  0  0  0  0
  180.3610  185.0700  136.5990 C   0  0  0  0  0  2  0  0  0  0  0  0
  180.8520  184.6110  135.2280 C   0  0  0  0  0  2  0  0  0  0  0  0
  180.5730  184.0090  137.5800 N   0  0  0  0  0  2  0  0  0  0  0  0
  180.3630  182.2670  135.9400 C   0  0  0  0  0  3  0  0  0  0  0  0
  179.0230  178.3560  138.9670 C   0  0  0  0  0  2  0  0  0  0  0  0
  179.5180  176.2210  138.0120 O   0  0  0  0  0  1  0  0  0  0  0  0
  179.9630  177.1630  138.9400 C   0  0  0  0  0  2  0  0  0  0  0  0
  186.6750  179.1160  141.1860 C   0  0  0  0  0  2  0  0  0  0  0  0
  186.7570  178.5980  139.8640 O   0  0  0  0  0  0  0  0  0  0  0  0
  190.2930  177.5070  139.5100 C   0  0  0  0  0  3  0  0  0  0  0  0
  189.0660  176.9600  137.4970 C   0  0  0  0  0  3  0  0  0  0  0  0
  190.2600  176.9610  138.2250 C   0  0  0  0  0  0  0  0  0  0  0  0
  189.1350  178.0550  140.0650 C   0  0  0  0  0  3  0  0  0  0  0  0
  187.9340  178.0590  139.3360 C   0  0  0  0  0  0  0  0  0  0  0  0
  191.4940  176.3820  137.6310 C   0  0  0  0  0  1  0  0  0  0  0  0
  187.9060  177.5100  138.0510 C   0  0  0  0  0  3  0  0  0  0  0  0
  1  5  2  0  0  0  0
  2 11  2  0  0  0  0
  2 10  1  0  0  0  0
  3  7  1  0  0  0  0
  4  1  1  0  0  0  0
  6  3  1  0  0  0  0
  6  8  1  0  0  0  0
  7  1  1  0  0  0  0
  8  4  1  0  0  0  0
  9 10  1  0  0  0  0
 10  6  2  0  0  0  0
 11 14  1  0  0  0  0
 12 35  1  6  0  0  0
 12 13  1  0  0  0  0
 12  2  1  0  0  0  0
 13  9  1  0  0  0  0
 14  3  2  0  0  0  0
 16 15  1  6  0  0  0
 16 13  1  0  0  0  0
 16 17  1  0  0  0  0
 18 17  1  0  0  0  0
 19 18  1  0  0  0  0
 19 20  1  0  0  0  0
 21 19  1  0  0  0  0
 22 32  1  6  0  0  0
 22 21  1  0  0  0  0
 23 24  1  0  0  0  0
 23 25  2  0  0  0  0
 24 22  1  0  0  0  0
 26 30  1  0  0  0  0
 26 23  1  0  0  0  0
 27 29  1  0  0  0  0
 27 31  1  0  0  0  0
 28 30  1  0  0  0  0
 29 28  1  0  0  0  0
 31 26  2  0  0  0  0
 33 34  1  0  0  0  0
 34 32  1  0  0  0  0
 36 35  1  0  0  0  0
 37 40  1  0  0  0  0
 38 43  2  0  0  0  0
 38 39  1  0  0  0  0
 39 37  2  0  0  0  0
 41 36  1  0  0  0  0
 41 40  2  0  0  0  0
 42 39  1  0  0  0  0
 43 41  1  0  0  0  0
M  END
>  <MODEL>
4

>  <REMARK>
 VINA RESULT:      -7.7      3.435      8.381
  Name = 
  13 active torsions:
  status: ('A' for Active; 'I' for Inactive)
    1  A    between atoms: C_1  and  O_28
    2  A    between atoms: C_1  and  C_34
    3  A    between atoms: C_2  and  C_6
    4  A    between atoms: C_2  and  C_13
    5  A    between atoms: C_3  and  C_4
    6  A    between atoms: C_3  and  N_12
    7  A    between atoms: C_4  and  C_15
    8  A    between atoms: C_4  and  N_22
    9  A    between atoms: C_6  and  N_12
   10  A    between atoms: C_11  and  C_14
   11  A    between atoms: C_13  and  N_38
   12  A    between atoms: C_15  and  C_42
   13  A    between atoms: O_28  and  C_35
                            x       y       z     vdW  Elec       q    Type
                         _______ _______ _______ _____ _____    ______ ____

>  <TORSDO>
F 13

$$$$
=
 OpenBabel11052416273D

 43 47  0  0  1  0  0  0  0  0999 V2000
  192.1120  175.6450  147.4260 C   0  0  0  0  0  0  0  0  0  0  0  0
  188.3730  177.7450  144.8570 C   0  0  0  0  0  0  0  0  0  0  0  0
  190.3640  177.2290  146.6800 C   0  0  0  0  0  0  0  0  0  0  0  0
  192.1650  175.0350  146.0460 C   0  0  0  0  0  2  0  0  0  0  0  0
  192.6840  175.0370  148.3980 N   0  0  0  0  0  2  0  0  0  0  0  0
  190.4850  176.7530  145.3610 C   0  0  0  0  0  0  0  0  0  0  0  0
  191.4520  176.9720  147.6780 C   0  0  0  0  0  2  0  0  0  0  0  0
  191.7160  176.0050  144.9490 C   0  0  0  0  0  2  0  0  0  0  0  0
  189.3350  176.6800  143.0340 C   0  0  0  0  0  2  0  0  0  0  0  0
  189.4600  177.0400  144.4610 C   0  0  0  0  0  0  0  0  0  0  0  0
  188.2460  178.2210  146.1240 N   0  0  0  0  0  0  0  0  0  0  0  0
  187.4150  177.8990  143.7490 C   0  0  1  0  0  3  0  0  0  0  0  0
  188.0370  177.2290  142.5810 N   0  0  0  0  0  0  0  0  0  0  0  0
  189.2270  177.9760  147.0420 C   0  0  0  0  0  3  0  0  0  0  0  0
  187.0370  178.7270  140.8480 C   0  0  0  0  0  1  0  0  0  0  0  0
  188.3130  178.1980  141.5070 C   0  0  2  0  0  3  0  0  0  0  0  0
  189.2080  177.5770  140.4330 C   0  0  0  0  0  2  0  0  0  0  0  0
  189.4590  178.5470  139.2830 C   0  0  0  0  0  2  0  0  0  0  0  0
  189.5160  177.8250  138.0190 N   0  0  0  0  0  0  0  0  0  0  0  0
  189.0800  178.7230  136.9630 C   0  0  0  0  0  1  0  0  0  0  0  0
  188.6640  176.6220  138.0080 C   0  0  0  0  0  2  0  0  0  0  0  0
  187.7700  176.3960  136.7660 C   0  0  2  0  0  3  0  0  0  0  0  0
  185.5300  177.3490  137.4800 C   0  0  0  0  0  0  0  0  0  0  0  0
  186.3640  176.2440  137.1230 N   0  0  0  0  0  2  0  0  0  0  0  0
  186.0210  178.5070  137.5780 O   0  0  0  0  0  0  0  0  0  0  0  0
  184.0980  177.1230  137.7270 C   0  0  0  0  0  0  0  0  0  0  0  0
  181.8110  177.9460  138.2010 C   0  0  0  0  0  2  0  0  0  0  0  0
  182.1730  175.4980  137.9770 C   0  0  0  0  0  2  0  0  0  0  0  0
  181.5410  176.5870  138.8410 C   0  0  0  0  0  2  0  0  0  0  0  0
  183.5920  175.7810  137.7830 N   0  0  0  0  0  2  0  0  0  0  0  0
  183.2800  178.1550  137.9710 C   0  0  0  0  0  3  0  0  0  0  0  0
  188.2430  175.2120  135.9250 C   0  0  0  0  0  2  0  0  0  0  0  0
  190.3000  176.0870  135.0760 O   0  0  0  0  0  1  0  0  0  0  0  0
  189.7590  175.1080  135.9110 C   0  0  0  0  0  2  0  0  0  0  0  0
  186.1140  177.1920  144.1030 C   0  0  0  0  0  2  0  0  0  0  0  0
  185.1320  178.1440  144.4920 O   0  0  0  0  0  0  0  0  0  0  0  0
  182.8780  178.6270  141.5750 C   0  0  0  0  0  3  0  0  0  0  0  0
  181.6560  179.0340  143.6250 C   0  0  0  0  0  3  0  0  0  0  0  0
  181.6920  178.9700  142.2290 C   0  0  0  0  0  0  0  0  0  0  0  0
  184.0280  178.3510  142.3180 C   0  0  0  0  0  3  0  0  0  0  0  0
  183.9980  178.4170  143.7210 C   0  0  0  0  0  0  0  0  0  0  0  0
  180.4680  179.2690  141.4400 C   0  0  0  0  0  1  0  0  0  0  0  0
  182.8080  178.7600  144.3690 C   0  0  0  0  0  3  0  0  0  0  0  0
  1  7  1  0  0  0  0
  1  5  2  0  0  0  0
  2 11  1  0  0  0  0
  3 14  1  0  0  0  0
  3  7  1  0  0  0  0
  4  1  1  0  0  0  0
  6  3  2  0  0  0  0
  8  6  1  0  0  0  0
  8  4  1  0  0  0  0
  9 10  1  0  0  0  0
 10  2  2  0  0  0  0
 10  6  1  0  0  0  0
 11 14  2  0  0  0  0
 12 35  1  1  0  0  0
 12  2  1  0  0  0  0
 13  9  1  0  0  0  0
 13 12  1  0  0  0  0
 16 15  1  6  0  0  0
 16 13  1  0  0  0  0
 17 16  1  0  0  0  0
 18 17  1  0  0  0  0
 19 18  1  0  0  0  0
 20 19  1  0  0  0  0
 21 19  1  0  0  0  0
 22 32  1  1  0  0  0
 22 24  1  0  0  0  0
 22 21  1  0  0  0  0
 23 25  2  0  0  0  0
 23 26  1  0  0  0  0
 24 23  1  0  0  0  0
 26 30  1  0  0  0  0
 26 31  2  0  0  0  0
 27 29  1  0  0  0  0
 28 29  1  0  0  0  0
 30 28  1  0  0  0  0
 31 27  1  0  0  0  0
 33 34  1  0  0  0  0
 34 32  1  0  0  0  0
 35 36  1  0  0  0  0
 37 39  2  0  0  0  0
 37 40  1  0  0  0  0
 38 43  2  0  0  0  0
 39 38  1  0  0  0  0
 40 41  2  0  0  0  0
 41 43  1  0  0  0  0
 41 36  1  0  0  0  0
 42 39  1  0  0  0  0
M  END
>  <MODEL>
5

>  <REMARK>
 VINA RESULT:      -7.6      2.609      8.096
  Name = 
  13 active torsions:
  status: ('A' for Active; 'I' for Inactive)
    1  A    between atoms: C_1  and  O_28
    2  A    between atoms: C_1  and  C_34
    3  A    between atoms: C_2  and  C_6
    4  A    between atoms: C_2  and  C_13
    5  A    between atoms: C_3  and  C_4
    6  A    between atoms: C_3  and  N_12
    7  A    between atoms: C_4  and  C_15
    8  A    between atoms: C_4  and  N_22
    9  A    between atoms: C_6  and  N_12
   10  A    between atoms: C_11  and  C_14
   11  A    between atoms: C_13  and  N_38
   12  A    between atoms: C_15  and  C_42
   13  A    between atoms: O_28  and  C_35
                            x       y       z     vdW  Elec       q    Type
                         _______ _______ _______ _____ _____    ______ ____

>  <TORSDO>
F 13

$$$$
=
 OpenBabel11052416273D

 43 47  0  0  1  0  0  0  0  0999 V2000
  188.4950  178.0420  147.9180 C   0  0  0  0  0  0  0  0  0  0  0  0
  186.5490  177.8350  143.3180 C   0  0  0  0  0  0  0  0  0  0  0  0
  187.9190  177.2810  145.6350 C   0  0  0  0  0  0  0  0  0  0  0  0
  187.2630  178.9150  147.9500 C   0  0  0  0  0  2  0  0  0  0  0  0
  189.3950  178.2020  148.8150 N   0  0  0  0  0  2  0  0  0  0  0  0
  186.7070  177.9960  145.6940 C   0  0  0  0  0  0  0  0  0  0  0  0
  188.6650  176.9550  146.8930 C   0  0  0  0  0  2  0  0  0  0  0  0
  186.1530  178.4130  147.0220 C   0  0  0  0  0  2  0  0  0  0  0  0
  184.7590  178.9600  144.2740 C   0  0  0  0  0  2  0  0  0  0  0  0
  186.0360  178.2530  144.5000 C   0  0  0  0  0  0  0  0  0  0  0  0
  187.7120  177.1350  143.2450 N   0  0  0  0  0  0  0  0  0  0  0  0
  185.6840  178.2440  142.1970 C   0  0  1  0  0  3  0  0  0  0  0  0
  184.5350  178.9510  142.8110 N   0  0  0  0  0  0  0  0  0  0  0  0
  188.4040  176.8490  144.3860 C   0  0  0  0  0  3  0  0  0  0  0  0
  183.1080  177.8380  141.0860 C   0  0  0  0  0  1  0  0  0  0  0  0
  183.2780  178.2260  142.5570 C   0  0  2  0  0  3  0  0  0  0  0  0
  182.0720  179.0610  142.9940 C   0  0  0  0  0  2  0  0  0  0  0  0
  180.8080  178.6560  142.2440 C   0  0  0  0  0  2  0  0  0  0  0  0
  180.1700  179.8290  141.6620 N   0  0  0  0  0  0  0  0  0  0  0  0
  179.4450  180.5210  142.7140 C   0  0  0  0  0  1  0  0  0  0  0  0
  179.2310  179.4900  140.5760 C   0  0  0  0  0  2  0  0  0  0  0  0
  179.6620  179.8330  139.1310 C   0  0  2  0  0  3  0  0  0  0  0  0
  180.7750  177.7540  138.1940 C   0  0  0  0  0  0  0  0  0  0  0  0
  180.8430  179.0820  138.7190 N   0  0  0  0  0  2  0  0  0  0  0  0
  179.6690  177.1480  138.1480 O   0  0  0  0  0  0  0  0  0  0  0  0
  182.0010  177.1050  137.7070 C   0  0  0  0  0  0  0  0  0  0  0  0
  184.0630  177.0920  136.3350 C   0  0  0  0  0  2  0  0  0  0  0  0
  183.5340  175.0900  137.7080 C   0  0  0  0  0  2  0  0  0  0  0  0
  183.9470  175.5710  136.3190 C   0  0  0  0  0  2  0  0  0  0  0  0
  182.3070  175.7660  138.1220 N   0  0  0  0  0  2  0  0  0  0  0  0
  182.7940  177.7280  136.8250 C   0  0  0  0  0  3  0  0  0  0  0  0
  179.8820  181.3310  138.9360 C   0  0  0  0  0  2  0  0  0  0  0  0
  181.3200  182.7350  137.6420 O   0  0  0  0  0  1  0  0  0  0  0  0
  181.3050  181.6340  138.4980 C   0  0  0  0  0  2  0  0  0  0  0  0
  186.4460  179.2050  141.2950 C   0  0  0  0  0  2  0  0  0  0  0  0
  186.4160  178.7400  139.9510 O   0  0  0  0  0  0  0  0  0  0  0  0
  189.9160  177.7080  139.2390 C   0  0  0  0  0  3  0  0  0  0  0  0
  188.4810  177.0420  137.4070 C   0  0  0  0  0  3  0  0  0  0  0  0
  189.7500  177.1020  137.9910 C   0  0  0  0  0  0  0  0  0  0  0  0
  188.8150  178.2570  139.8990 C   0  0  0  0  0  3  0  0  0  0  0  0
  187.5390  178.2020  139.3150 C   0  0  0  0  0  0  0  0  0  0  0  0
  190.9220  176.5220  137.2850 C   0  0  0  0  0  1  0  0  0  0  0  0
  187.3780  177.5930  138.0670 C   0  0  0  0  0  3  0  0  0  0  0  0
  1  4  1  0  0  0  0
  1  5  2  0  0  0  0
  2 10  1  0  0  0  0
  3  6  1  0  0  0  0
  3  7  1  0  0  0  0
  6  8  1  0  0  0  0
  7  1  1  0  0  0  0
  8  4  1  0  0  0  0
  9 10  1  0  0  0  0
 10  6  2  0  0  0  0
 11  2  2  0  0  0  0
 11 14  1  0  0  0  0
 12 35  1  6  0  0  0
 12 13  1  0  0  0  0
 12  2  1  0  0  0  0
 13  9  1  0  0  0  0
 14  3  2  0  0  0  0
 16 15  1  6  0  0  0
 16 13  1  0  0  0  0
 16 17  1  0  0  0  0
 18 17  1  0  0  0  0
 19 18  1  0  0  0  0
 19 20  1  0  0  0  0
 21 19  1  0  0  0  0
 22 32  1  1  0  0  0
 22 21  1  0  0  0  0
 23 24  1  0  0  0  0
 24 22  1  0  0  0  0
 25 23  2  0  0  0  0
 26 30  1  0  0  0  0
 26 23  1  0  0  0  0
 27 31  1  0  0  0  0
 28 30  1  0  0  0  0
 29 27  1  0  0  0  0
 29 28  1  0  0  0  0
 31 26  2  0  0  0  0
 33 34  1  0  0  0  0
 34 32  1  0  0  0  0
 36 35  1  0  0  0  0
 37 40  1  0  0  0  0
 38 39  1  0  0  0  0
 38 43  2  0  0  0  0
 39 37  2  0  0  0  0
 41 40  2  0  0  0  0
 41 36  1  0  0  0  0
 42 39  1  0  0  0  0
 43 41  1  0  0  0  0
M  END
>  <MODEL>
6

>  <REMARK>
 VINA RESULT:      -7.5      3.015      7.924
  Name = 
  13 active torsions:
  status: ('A' for Active; 'I' for Inactive)
    1  A    between atoms: C_1  and  O_28
    2  A    between atoms: C_1  and  C_34
    3  A    between atoms: C_2  and  C_6
    4  A    between atoms: C_2  and  C_13
    5  A    between atoms: C_3  and  C_4
    6  A    between atoms: C_3  and  N_12
    7  A    between atoms: C_4  and  C_15
    8  A    between atoms: C_4  and  N_22
    9  A    between atoms: C_6  and  N_12
   10  A    between atoms: C_11  and  C_14
   11  A    between atoms: C_13  and  N_38
   12  A    between atoms: C_15  and  C_42
   13  A    between atoms: O_28  and  C_35
                            x       y       z     vdW  Elec       q    Type
                         _______ _______ _______ _____ _____    ______ ____

>  <TORSDO>
F 13

$$$$
=
 OpenBabel11052416273D

 43 47  0  0  1  0  0  0  0  0999 V2000
  187.9740  178.1270  147.9160 C   0  0  0  0  0  0  0  0  0  0  0  0
  186.2200  178.0410  143.2360 C   0  0  0  0  0  0  0  0  0  0  0  0
  187.3550  177.3640  145.6450 C   0  0  0  0  0  0  0  0  0  0  0  0
  186.9390  179.2240  147.8420 C   0  0  0  0  0  2  0  0  0  0  0  0
  188.8500  178.1590  148.8500 N   0  0  0  0  0  2  0  0  0  0  0  0
  186.3080  178.3030  145.6070 C   0  0  0  0  0  0  0  0  0  0  0  0
  187.9690  176.9710  146.9550 C   0  0  0  0  0  2  0  0  0  0  0  0
  185.7910  178.8960  146.8820 C   0  0  0  0  0  2  0  0  0  0  0  0
  184.6490  179.5460  144.0420 C   0  0  0  0  0  2  0  0  0  0  0  0
  185.7500  178.6180  144.3680 C   0  0  0  0  0  0  0  0  0  0  0  0
  187.2240  177.1240  143.2570 N   0  0  0  0  0  0  0  0  0  0  0  0
  185.5010  178.5450  142.0530 C   0  0  1  0  0  3  0  0  0  0  0  0
  184.4890  179.4970  142.5720 N   0  0  0  0  0  0  0  0  0  0  0  0
  187.7970  176.7740  144.4450 C   0  0  0  0  0  3  0  0  0  0  0  0
  182.3590  178.6290  143.5530 C   0  0  0  0  0  1  0  0  0  0  0  0
  183.1250  179.0180  142.2870 C   0  0  2  0  0  3  0  0  0  0  0  0
  183.1610  177.8180  141.3370 C   0  0  0  0  0  2  0  0  0  0  0  0
  182.6820  178.1960  139.9400 C   0  0  0  0  0  2  0  0  0  0  0  0
  181.9270  177.0970  139.3520 N   0  0  0  0  0  0  0  0  0  0  0  0
  180.7440  176.8720  140.1660 C   0  0  0  0  0  1  0  0  0  0  0  0
  182.7020  175.8450  139.2770 C   0  0  0  0  0  2  0  0  0  0  0  0
  182.8640  175.1930  137.8840 C   0  0  2  0  0  3  0  0  0  0  0  0
  184.9160  173.7390  137.5450 C   0  0  0  0  0  0  0  0  0  0  0  0
  184.2660  175.0120  137.5230 N   0  0  0  0  0  2  0  0  0  0  0  0
  184.3010  172.7220  137.9670 O   0  0  0  0  0  0  0  0  0  0  0  0
  186.3020  173.6270  137.0680 C   0  0  0  0  0  0  0  0  0  0  0  0
  188.3390  172.3070  136.5750 C   0  0  0  0  0  2  0  0  0  0  0  0
  188.3690  174.7520  136.1330 C   0  0  0  0  0  2  0  0  0  0  0  0
  189.1280  173.5970  136.7820 C   0  0  0  0  0  2  0  0  0  0  0  0
  187.0080  174.8080  136.6600 N   0  0  0  0  0  2  0  0  0  0  0  0
  186.9320  172.4450  137.0810 C   0  0  0  0  0  3  0  0  0  0  0  0
  182.1230  175.9670  136.7960 C   0  0  0  0  0  2  0  0  0  0  0  0
  179.7340  175.9870  136.8920 O   0  0  0  0  0  1  0  0  0  0  0  0
  180.8290  175.2740  136.4020 C   0  0  0  0  0  2  0  0  0  0  0  0
  186.4740  179.2860  141.1470 C   0  0  0  0  0  2  0  0  0  0  0  0
  186.5640  178.6320  139.8880 O   0  0  0  0  0  0  0  0  0  0  0  0
  189.9230  177.0550  139.6710 C   0  0  0  0  0  3  0  0  0  0  0  0
  189.2050  177.7480  137.4660 C   0  0  0  0  0  3  0  0  0  0  0  0
  190.1620  177.1590  138.2990 C   0  0  0  0  0  0  0  0  0  0  0  0
  188.7310  177.5420  140.2110 C   0  0  0  0  0  3  0  0  0  0  0  0
  187.7680  178.1370  139.3790 C   0  0  0  0  0  0  0  0  0  0  0  0
  191.4320  176.6460  137.7240 C   0  0  0  0  0  1  0  0  0  0  0  0
  188.0110  178.2370  138.0060 C   0  0  0  0  0  3  0  0  0  0  0  0
  1  5  2  0  0  0  0
  2 11  2  0  0  0  0
  2 10  1  0  0  0  0
  3  7  1  0  0  0  0
  4  1  1  0  0  0  0
  6  3  1  0  0  0  0
  6  8  1  0  0  0  0
  7  1  1  0  0  0  0
  8  4  1  0  0  0  0
  9 10  1  0  0  0  0
 10  6  2  0  0  0  0
 11 14  1  0  0  0  0
 12 35  1  6  0  0  0
 12 13  1  0  0  0  0
 12  2  1  0  0  0  0
 13  9  1  0  0  0  0
 14  3  2  0  0  0  0
 16 13  1  0  0  0  0
 16 15  1  1  0  0  0
 17 16  1  0  0  0  0
 18 17  1  0  0  0  0
 19 18  1  0  0  0  0
 19 20  1  0  0  0  0
 21 19  1  0  0  0  0
 22 32  1  6  0  0  0
 22 21  1  0  0  0  0
 23 25  2  0  0  0  0
 24 23  1  0  0  0  0
 24 22  1  0  0  0  0
 26 31  2  0  0  0  0
 26 23  1  0  0  0  0
 27 29  1  0  0  0  0
 27 31  1  0  0  0  0
 28 30  1  0  0  0  0
 28 29  1  0  0  0  0
 30 26  1  0  0  0  0
 34 32  1  0  0  0  0
 34 33  1  0  0  0  0
 36 35  1  0  0  0  0
 37 40  1  0  0  0  0
 38 43  2  0  0  0  0
 38 39  1  0  0  0  0
 39 37  2  0  0  0  0
 41 36  1  0  0  0  0
 41 40  2  0  0  0  0
 42 39  1  0  0  0  0
 43 41  1  0  0  0  0
M  END
>  <MODEL>
7

>  <REMARK>
 VINA RESULT:      -7.1      2.832      8.129
  Name = 
  13 active torsions:
  status: ('A' for Active; 'I' for Inactive)
    1  A    between atoms: C_1  and  O_28
    2  A    between atoms: C_1  and  C_34
    3  A    between atoms: C_2  and  C_6
    4  A    between atoms: C_2  and  C_13
    5  A    between atoms: C_3  and  C_4
    6  A    between atoms: C_3  and  N_12
    7  A    between atoms: C_4  and  C_15
    8  A    between atoms: C_4  and  N_22
    9  A    between atoms: C_6  and  N_12
   10  A    between atoms: C_11  and  C_14
   11  A    between atoms: C_13  and  N_38
   12  A    between atoms: C_15  and  C_42
   13  A    between atoms: O_28  and  C_35
                            x       y       z     vdW  Elec       q    Type
                         _______ _______ _______ _____ _____    ______ ____

>  <TORSDO>
F 13

$$$$
=
 OpenBabel11052416273D

 43 47  0  0  1  0  0  0  0  0999 V2000
  192.7240  175.1380  135.8050 C   0  0  0  0  0  0  0  0  0  0  0  0
  191.0550  177.1250  140.0770 C   0  0  0  0  0  0  0  0  0  0  0  0
  192.5750  176.4730  137.8830 C   0  0  0  0  0  0  0  0  0  0  0  0
  191.2180  175.0410  135.7450 C   0  0  0  0  0  2  0  0  0  0  0  0
  193.4270  174.3810  135.0480 N   0  0  0  0  0  2  0  0  0  0  0  0
  191.1720  176.4920  137.7780 C   0  0  0  0  0  0  0  0  0  0  0  0
  193.4160  176.1390  136.6880 C   0  0  0  0  0  2  0  0  0  0  0  0
  190.5180  176.1990  136.4620 C   0  0  0  0  0  2  0  0  0  0  0  0
  188.9690  176.9450  139.0770 C   0  0  0  0  0  2  0  0  0  0  0  0
  190.4320  176.8350  138.9100 C   0  0  0  0  0  0  0  0  0  0  0  0
  192.4100  177.1200  140.1910 N   0  0  0  0  0  0  0  0  0  0  0  0
  190.0740  177.4280  141.1340 C   0  0  1  0  0  3  0  0  0  0  0  0
  188.7420  177.3250  140.4890 N   0  0  0  0  0  0  0  0  0  0  0  0
  193.1800  176.8020  139.1110 C   0  0  0  0  0  3  0  0  0  0  0  0
  188.2230  179.3750  141.8210 C   0  0  0  0  0  1  0  0  0  0  0  0
  188.0560  178.6280  140.4970 C   0  0  2  0  0  3  0  0  0  0  0  0
  186.5630  178.4560  140.2070 C   0  0  0  0  0  2  0  0  0  0  0  0
  185.7050  179.0030  141.3430 C   0  0  0  0  0  2  0  0  0  0  0  0
  184.3860  179.3720  140.8450 N   0  0  0  0  0  0  0  0  0  0  0  0
  183.4120  178.4570  141.4170 C   0  0  0  0  0  1  0  0  0  0  0  0
  184.2930  179.3130  139.3740 C   0  0  0  0  0  2  0  0  0  0  0  0
  183.2580  178.3380  138.7670 C   0  0  2  0  0  3  0  0  0  0  0  0
  183.5590  175.8960  138.1460 C   0  0  0  0  0  0  0  0  0  0  0  0
  183.8920  177.2780  137.9910 N   0  0  0  0  0  2  0  0  0  0  0  0
  182.7420  175.5390  139.0390 O   0  0  0  0  0  0  0  0  0  0  0  0
  184.1710  174.9010  137.2540 C   0  0  0  0  0  0  0  0  0  0  0  0
  184.7880  172.5710  136.6840 C   0  0  0  0  0  2  0  0  0  0  0  0
  185.4040  174.3860  135.1030 C   0  0  0  0  0  2  0  0  0  0  0  0
  185.9230  173.1600  135.8510 C   0  0  0  0  0  2  0  0  0  0  0  0
  184.8210  175.3330  136.0500 N   0  0  0  0  0  2  0  0  0  0  0  0
  184.1890  173.6050  137.5940 C   0  0  0  0  0  3  0  0  0  0  0  0
  182.2080  179.0630  137.9280 C   0  0  0  0  0  2  0  0  0  0  0  0
  180.4600  177.5900  137.2290 O   0  0  0  0  0  1  0  0  0  0  0  0
  180.8110  178.5290  138.1990 C   0  0  0  0  0  2  0  0  0  0  0  0
  190.1830  176.3860  142.2390 C   0  0  0  0  0  2  0  0  0  0  0  0
  188.9480  176.2830  142.9370 O   0  0  0  0  0  0  0  0  0  0  0  0
  189.6610  177.4900  146.3810 C   0  0  0  0  0  3  0  0  0  0  0  0
  187.2720  177.5090  145.9880 C   0  0  0  0  0  3  0  0  0  0  0  0
  188.3630  177.7410  146.8320 C   0  0  0  0  0  0  0  0  0  0  0  0
  189.8670  177.0040  145.0880 C   0  0  0  0  0  3  0  0  0  0  0  0
  188.7750  176.7670  144.2370 C   0  0  0  0  0  0  0  0  0  0  0  0
  188.1410  178.2520  148.2100 C   0  0  0  0  0  1  0  0  0  0  0  0
  187.4780  177.0210  144.6940 C   0  0  0  0  0  3  0  0  0  0  0  0
  1  7  1  0  0  0  0
  2 11  1  0  0  0  0
  2 12  1  0  0  0  0
  3 14  1  0  0  0  0
  4  1  1  0  0  0  0
  4  8  1  0  0  0  0
  5  1  2  0  0  0  0
  6  3  2  0  0  0  0
  6 10  1  0  0  0  0
  7  3  1  0  0  0  0
  8  6  1  0  0  0  0
  9 13  1  0  0  0  0
 10  9  1  0  0  0  0
 10  2  2  0  0  0  0
 12 35  1  1  0  0  0
 13 16  1  0  0  0  0
 13 12  1  0  0  0  0
 14 11  2  0  0  0  0
 16 15  1  1  0  0  0
 17 16  1  0  0  0  0
 17 18  1  0  0  0  0
 19 18  1  0  0  0  0
 19 20  1  0  0  0  0
 21 19  1  0  0  0  0
 22 32  1  6  0  0  0
 22 21  1  0  0  0  0
 23 25  2  0  0  0  0
 24 23  1  0  0  0  0
 24 22  1  0  0  0  0
 26 31  2  0  0  0  0
 26 23  1  0  0  0  0
 27 31  1  0  0  0  0
 28 29  1  0  0  0  0
 28 30  1  0  0  0  0
 29 27  1  0  0  0  0
 30 26  1  0  0  0  0
 32 34  1  0  0  0  0
 33 34  1  0  0  0  0
 35 36  1  0  0  0  0
 36 41  1  0  0  0  0
 37 39  1  0  0  0  0
 38 39  2  0  0  0  0
 39 42  1  0  0  0  0
 40 37  2  0  0  0  0
 41 43  2  0  0  0  0
 41 40  1  0  0  0  0
 43 38  1  0  0  0  0
M  END
>  <MODEL>
8

>  <REMARK>
 VINA RESULT:      -7.1      2.492      4.747
  Name = 
  13 active torsions:
  status: ('A' for Active; 'I' for Inactive)
    1  A    between atoms: C_1  and  O_28
    2  A    between atoms: C_1  and  C_34
    3  A    between atoms: C_2  and  C_6
    4  A    between atoms: C_2  and  C_13
    5  A    between atoms: C_3  and  C_4
    6  A    between atoms: C_3  and  N_12
    7  A    between atoms: C_4  and  C_15
    8  A    between atoms: C_4  and  N_22
    9  A    between atoms: C_6  and  N_12
   10  A    between atoms: C_11  and  C_14
   11  A    between atoms: C_13  and  N_38
   12  A    between atoms: C_15  and  C_42
   13  A    between atoms: O_28  and  C_35
                            x       y       z     vdW  Elec       q    Type
                         _______ _______ _______ _____ _____    ______ ____

>  <TORSDO>
F 13

$$$$
=
 OpenBabel11052416273D

 43 47  0  0  1  0  0  0  0  0999 V2000
  187.3090  178.1460  147.5190 C   0  0  0  0  0  0  0  0  0  0  0  0
  187.4730  177.7520  142.5380 C   0  0  0  0  0  0  0  0  0  0  0  0
  187.6980  177.2760  145.2350 C   0  0  0  0  0  0  0  0  0  0  0  0
  186.2400  179.0760  146.9950 C   0  0  0  0  0  2  0  0  0  0  0  0
  187.7560  178.3180  148.7070 N   0  0  0  0  0  2  0  0  0  0  0  0
  186.6260  178.0490  144.7500 C   0  0  0  0  0  0  0  0  0  0  0  0
  187.8210  176.9930  146.7020 C   0  0  0  0  0  2  0  0  0  0  0  0
  185.5930  178.5710  145.7020 C   0  0  0  0  0  2  0  0  0  0  0  0
  185.5270  179.0150  142.6050 C   0  0  0  0  0  2  0  0  0  0  0  0
  186.5390  178.2640  143.3750 C   0  0  0  0  0  0  0  0  0  0  0  0
  188.5080  176.9950  142.9900 N   0  0  0  0  0  0  0  0  0  0  0  0
  187.1910  178.1320  141.1420 C   0  0  1  0  0  3  0  0  0  0  0  0
  185.9400  178.9280  141.1860 N   0  0  0  0  0  0  0  0  0  0  0  0
  188.6340  176.7470  144.3260 C   0  0  0  0  0  3  0  0  0  0  0  0
  184.8400  178.6150  138.9630 C   0  0  0  0  0  1  0  0  0  0  0  0
  184.8620  178.2470  140.4480 C   0  0  2  0  0  3  0  0  0  0  0  0
  183.4970  178.5710  141.0620 C   0  0  0  0  0  2  0  0  0  0  0  0
  182.4930  179.0000  139.9990 C   0  0  0  0  0  2  0  0  0  0  0  0
  181.3340  178.1170  140.0140 N   0  0  0  0  0  0  0  0  0  0  0  0
  181.8070  176.7460  139.9100 C   0  0  0  0  0  1  0  0  0  0  0  0
  180.3960  178.3850  138.9090 C   0  0  0  0  0  2  0  0  0  0  0  0
  179.3760  179.5310  139.1050 C   0  0  2  0  0  3  0  0  0  0  0  0
  179.9900  181.0950  137.2030 C   0  0  0  0  0  0  0  0  0  0  0  0
  179.8770  180.8040  138.5980 N   0  0  0  0  0  2  0  0  0  0  0  0
  179.7280  180.2040  136.3480 O   0  0  0  0  0  0  0  0  0  0  0  0
  180.4090  182.4380  136.7760 C   0  0  0  0  0  0  0  0  0  0  0  0
  181.5480  184.5990  137.1830 C   0  0  0  0  0  2  0  0  0  0  0  0
  180.4420  184.2310  134.9890 C   0  0  0  0  0  2  0  0  0  0  0  0
  180.5950  185.2030  136.1560 C   0  0  0  0  0  2  0  0  0  0  0  0
  180.0150  182.9250  135.4850 N   0  0  0  0  0  2  0  0  0  0  0  0
  181.0910  183.2330  137.6100 C   0  0  0  0  0  3  0  0  0  0  0  0
  178.9370  179.6670  140.5610 C   0  0  0  0  0  2  0  0  0  0  0  0
  180.0170  180.8670  142.3250 O   0  0  0  0  0  1  0  0  0  0  0  0
  179.3100  181.0250  141.1320 C   0  0  0  0  0  2  0  0  0  0  0  0
  188.3240  179.0000  140.6160 C   0  0  0  0  0  2  0  0  0  0  0  0
  189.3770  178.1820  140.1210 O   0  0  0  0  0  0  0  0  0  0  0  0
  190.4700  176.5180  136.9810 C   0  0  0  0  0  3  0  0  0  0  0  0
  188.8070  178.2020  136.4740 C   0  0  0  0  0  3  0  0  0  0  0  0
  189.6870  177.2020  136.0480 C   0  0  0  0  0  0  0  0  0  0  0  0
  190.3760  176.8360  138.3370 C   0  0  0  0  0  3  0  0  0  0  0  0
  189.4960  177.8420  138.7700 C   0  0  0  0  0  0  0  0  0  0  0  0
  189.7900  176.8680  134.6040 C   0  0  0  0  0  1  0  0  0  0  0  0
  188.7130  178.5220  137.8320 C   0  0  0  0  0  3  0  0  0  0  0  0
  1  5  2  0  0  0  0
  2 11  2  0  0  0  0
  2 10  1  0  0  0  0
  3  7  1  0  0  0  0
  4  1  1  0  0  0  0
  6  3  1  0  0  0  0
  6  8  1  0  0  0  0
  7  1  1  0  0  0  0
  8  4  1  0  0  0  0
  9 10  1  0  0  0  0
 10  6  2  0  0  0  0
 11 14  1  0  0  0  0
 12 35  1  1  0  0  0
 12 13  1  0  0  0  0
 12  2  1  0  0  0  0
 13  9  1  0  0  0  0
 14  3  2  0  0  0  0
 16 15  1  6  0  0  0
 16 17  1  0  0  0  0
 16 13  1  0  0  0  0
 18 19  1  0  0  0  0
 18 17  1  0  0  0  0
 20 19  1  0  0  0  0
 21 19  1  0  0  0  0
 22 21  1  1  0  0  0
 22 32  1  0  0  0  0
 23 24  1  0  0  0  0
 24 22  1  0  0  0  0
 25 23  2  0  0  0  0
 26 23  1  0  0  0  0
 26 31  2  0  0  0  0
 27 31  1  0  0  0  0
 28 30  1  0  0  0  0
 28 29  1  0  0  0  0
 29 27  1  0  0  0  0
 30 26  1  0  0  0  0
 32 34  1  0  0  0  0
 34 33  1  0  0  0  0
 36 35  1  0  0  0  0
 37 40  1  0  0  0  0
 38 43  2  0  0  0  0
 39 38  1  0  0  0  0
 39 37  2  0  0  0  0
 40 41  2  0  0  0  0
 41 36  1  0  0  0  0
 42 39  1  0  0  0  0
 43 41  1  0  0  0  0
M  END
>  <MODEL>
9

>  <REMARK>
 VINA RESULT:      -7.0      3.380      8.219
  Name = 
  13 active torsions:
  status: ('A' for Active; 'I' for Inactive)
    1  A    between atoms: C_1  and  O_28
    2  A    between atoms: C_1  and  C_34
    3  A    between atoms: C_2  and  C_6
    4  A    between atoms: C_2  and  C_13
    5  A    between atoms: C_3  and  C_4
    6  A    between atoms: C_3  and  N_12
    7  A    between atoms: C_4  and  C_15
    8  A    between atoms: C_4  and  N_22
    9  A    between atoms: C_6  and  N_12
   10  A    between atoms: C_11  and  C_14
   11  A    between atoms: C_13  and  N_38
   12  A    between atoms: C_15  and  C_42
   13  A    between atoms: O_28  and  C_35
                            x       y       z     vdW  Elec       q    Type
                         _______ _______ _______ _____ _____    ______ ____

>  <TORSDO>
F 13

$$$$
