=
 OpenBabel11052413323D

 28 32  0  0  0  0  0  0  0  0999 V2000
  190.0770  177.6860  139.9970 N   0  0  0  0  0  0  0  0  0  0  0  0
  191.4680  176.4380  145.1030 S   0  0  0  0  0  0  0  0  0  0  0  0
  185.8270  178.2780  142.4130 C   0  0  0  0  0  1  0  0  0  0  0  0
  189.2940  177.1590  146.1230 C   0  0  0  0  0  0  0  0  0  0  0  0
  189.2270  177.3530  143.6400 C   0  0  0  0  0  0  0  0  0  0  0  0
  189.9080  177.0200  144.8930 C   0  0  0  0  0  0  0  0  0  0  0  0
  187.1090  177.4860  144.9460 C   0  0  0  0  0  2  0  0  0  0  0  0
  190.1050  176.8140  147.2080 C   0  0  0  0  0  3  0  0  0  0  0  0
  188.0060  177.9900  141.1920 C   0  0  0  0  0  0  0  0  0  0  0  0
  189.9370  177.3830  142.4340 O   0  0  0  0  0  0  0  0  0  0  0  0
  187.9250  177.7580  146.2260 C   0  0  0  0  0  2  0  0  0  0  0  0
  188.0520  178.3720  138.7720 C   0  0  0  0  0  3  0  0  0  0  0  0
  187.2520  177.9690  142.4220 N   0  0  0  0  0  0  0  0  0  0  0  0
  187.3490  178.2650  139.9000 C   0  0  0  0  0  3  0  0  0  0  0  0
  191.3610  176.3840  146.7870 C   0  0  0  0  0  0  0  0  0  0  0  0
  187.9110  177.6450  143.6620 C   0  0  0  0  0  0  0  0  0  0  0  0
  189.5540  178.2880  138.7680 C   0  0  0  0  0  2  0  0  0  0  0  0
  189.3170  177.6980  141.2180 C   0  0  0  0  0  0  0  0  0  0  0  0
  192.4380  175.8970  147.6890 C   0  0  0  0  0  2  0  0  0  0  0  0
  192.7180  176.8690  148.6510 O   0  0  0  0  0  1  0  0  0  0  0  0
  191.4570  177.2180  139.9970 C   0  0  0  0  0  2  0  0  0  0  0  0
  191.7390  176.4410  138.7560 C   0  0  0  0  0  0  0  0  0  0  0  0
  192.3010  174.9500  136.4550 C   0  0  0  0  0  0  0  0  0  0  0  0
  190.8610  175.4330  138.3420 C   0  0  0  0  0  3  0  0  0  0  0  0
  192.9030  176.6980  138.0210 C   0  0  0  0  0  3  0  0  0  0  0  0
  193.1820  175.9550  136.8700 C   0  0  0  0  0  3  0  0  0  0  0  0
  192.5980  174.1610  135.2330 C   0  0  0  0  0  1  0  0  0  0  0  0
  191.1410  174.6890  137.1920 C   0  0  0  0  0  3  0  0  0  0  0  0
  1 18  1  0  0  0  0
  2 15  1  0  0  0  0
  3 13  1  0  0  0  0
  4 11  1  0  0  0  0
  4  8  1  0  0  0  0
  5 16  2  0  0  0  0
  5  6  1  0  0  0  0
  6  2  1  0  0  0  0
  6  4  2  0  0  0  0
  7 11  1  0  0  0  0
  9 18  2  0  0  0  0
  9 13  1  0  0  0  0
 10  5  1  0  0  0  0
 12 14  2  0  0  0  0
 13 16  1  0  0  0  0
 14  9  1  0  0  0  0
 15  8  2  0  0  0  0
 15 19  1  0  0  0  0
 16  7  1  0  0  0  0
 17 12  1  0  0  0  0
 17  1  1  0  0  0  0
 18 10  1  0  0  0  0
 19 20  1  0  0  0  0
 21  1  1  0  0  0  0
 22 21  1  0  0  0  0
 23 26  2  0  0  0  0
 23 28  1  0  0  0  0
 24 22  1  0  0  0  0
 25 22  2  0  0  0  0
 26 25  1  0  0  0  0
 27 23  1  0  0  0  0
 28 24  2  0  0  0  0
M  END
>  <MODEL>
1

>  <REMARK>
 VINA RESULT:      -9.1      0.000      0.000
  Name = 
  3 active torsions:
  status: ('A' for Active; 'I' for Inactive)
    1  A    between atoms: N_1  and  C_2
    2  A    between atoms: C_2  and  C_3
    3  A    between atoms: C_12  and  C_24
                            x       y       z     vdW  Elec       q    Type
                         _______ _______ _______ _____ _____    ______ ____

>  <TORSDO>
F 3

$$$$
=
 OpenBabel11052413323D

 28 32  0  0  0  0  0  0  0  0999 V2000
  187.1520  178.2040  140.8720 N   0  0  0  0  0  0  0  0  0  0  0  0
  190.1230  176.9160  145.2400 S   0  0  0  0  0  0  0  0  0  0  0  0
  183.9130  178.7590  144.5400 C   0  0  0  0  0  1  0  0  0  0  0  0
  188.3960  177.6200  146.9160 C   0  0  0  0  0  0  0  0  0  0  0  0
  187.5280  177.8350  144.5910 C   0  0  0  0  0  0  0  0  0  0  0  0
  188.5780  177.4940  145.5520 C   0  0  0  0  0  0  0  0  0  0  0  0
  185.9480  177.9500  146.5140 C   0  0  0  0  0  2  0  0  0  0  0  0
  189.5150  177.2680  147.6760 C   0  0  0  0  0  3  0  0  0  0  0  0
  185.5800  178.4900  142.6770 C   0  0  0  0  0  0  0  0  0  0  0  0
  187.8090  177.8790  143.2200 O   0  0  0  0  0  0  0  0  0  0  0  0
  187.1340  178.2130  147.4630 C   0  0  0  0  0  2  0  0  0  0  0  0
  184.8400  178.8930  140.3760 C   0  0  0  0  0  3  0  0  0  0  0  0
  185.2650  178.4550  144.0840 N   0  0  0  0  0  0  0  0  0  0  0  0
  184.5390  178.7740  141.6700 C   0  0  0  0  0  3  0  0  0  0  0  0
  190.5670  176.8470  146.8670 C   0  0  0  0  0  0  0  0  0  0  0  0
  186.2900  178.1230  145.0400 C   0  0  0  0  0  0  0  0  0  0  0  0
  186.2590  178.8150  139.8840 C   0  0  0  0  0  2  0  0  0  0  0  0
  186.8280  178.2020  142.2730 C   0  0  0  0  0  0  0  0  0  0  0  0
  191.8790  176.3560  147.3670 C   0  0  0  0  0  2  0  0  0  0  0  0
  192.2760  177.1180  148.4660 O   0  0  0  0  0  1  0  0  0  0  0  0
  188.4570  177.7410  140.4210 C   0  0  0  0  0  2  0  0  0  0  0  0
  188.5010  177.6900  138.9310 C   0  0  0  0  0  0  0  0  0  0  0  0
  188.6330  177.5760  136.1380 C   0  0  0  0  0  0  0  0  0  0  0  0
  187.9870  176.5810  138.2500 C   0  0  0  0  0  3  0  0  0  0  0  0
  189.0880  178.7390  138.2130 C   0  0  0  0  0  3  0  0  0  0  0  0
  189.1510  178.6830  136.8180 C   0  0  0  0  0  3  0  0  0  0  0  0
  188.7010  177.5160  134.6550 C   0  0  0  0  0  1  0  0  0  0  0  0
  188.0520  176.5240  136.8550 C   0  0  0  0  0  3  0  0  0  0  0  0
  1 18  1  0  0  0  0
  2  6  1  0  0  0  0
  2 15  1  0  0  0  0
  4 11  1  0  0  0  0
  4  8  1  0  0  0  0
  5 16  2  0  0  0  0
  5  6  1  0  0  0  0
  6  4  2  0  0  0  0
  7 11  1  0  0  0  0
  9 13  1  0  0  0  0
 10  5  1  0  0  0  0
 12 14  2  0  0  0  0
 13  3  1  0  0  0  0
 13 16  1  0  0  0  0
 14  9  1  0  0  0  0
 15 19  1  0  0  0  0
 15  8  2  0  0  0  0
 16  7  1  0  0  0  0
 17 12  1  0  0  0  0
 17  1  1  0  0  0  0
 18  9  2  0  0  0  0
 18 10  1  0  0  0  0
 19 20  1  0  0  0  0
 21  1  1  0  0  0  0
 22 21  1  0  0  0  0
 23 26  2  0  0  0  0
 23 28  1  0  0  0  0
 24 22  1  0  0  0  0
 25 22  2  0  0  0  0
 26 25  1  0  0  0  0
 27 23  1  0  0  0  0
 28 24  2  0  0  0  0
M  END
>  <MODEL>
2

>  <REMARK>
 VINA RESULT:      -9.0      2.465      2.932
  Name = 
  3 active torsions:
  status: ('A' for Active; 'I' for Inactive)
    1  A    between atoms: N_1  and  C_2
    2  A    between atoms: C_2  and  C_3
    3  A    between atoms: C_12  and  C_24
                            x       y       z     vdW  Elec       q    Type
                         _______ _______ _______ _____ _____    ______ ____

>  <TORSDO>
F 3

$$$$
=
 OpenBabel11052413323D

 28 32  0  0  0  0  0  0  0  0999 V2000
  189.7340  176.9570  142.6200 N   0  0  0  0  0  0  0  0  0  0  0  0
  184.5680  178.6370  142.8310 S   0  0  0  0  0  0  0  0  0  0  0  0
  189.0570  177.6520  147.4490 C   0  0  0  0  0  1  0  0  0  0  0  0
  184.3950  178.5570  145.3320 C   0  0  0  0  0  0  0  0  0  0  0  0
  186.7040  178.0090  144.5750 C   0  0  0  0  0  0  0  0  0  0  0  0
  185.3110  178.3750  144.3130 C   0  0  0  0  0  0  0  0  0  0  0  0
  186.2820  178.5270  146.9750 C   0  0  0  0  0  2  0  0  0  0  0  0
  183.1090  178.8820  144.8910 C   0  0  0  0  0  3  0  0  0  0  0  0
  189.3860  177.2830  144.9840 C   0  0  0  0  0  0  0  0  0  0  0  0
  187.5510  177.6470  143.5210 O   0  0  0  0  0  0  0  0  0  0  0  0
  184.7760  178.2850  146.7550 C   0  0  0  0  0  2  0  0  0  0  0  0
  191.5830  176.5390  144.1940 C   0  0  0  0  0  3  0  0  0  0  0  0
  188.5330  177.6490  146.0880 N   0  0  0  0  0  0  0  0  0  0  0  0
  190.8110  176.9620  145.1950 C   0  0  0  0  0  3  0  0  0  0  0  0
  183.0540  178.9670  143.5020 C   0  0  0  0  0  0  0  0  0  0  0  0
  187.1600  178.0090  145.8440 C   0  0  0  0  0  0  0  0  0  0  0  0
  191.0300  176.3010  142.8160 C   0  0  0  0  0  2  0  0  0  0  0  0
  188.8900  177.2910  143.7360 C   0  0  0  0  0  0  0  0  0  0  0  0
  181.8450  179.3440  142.7220 C   0  0  0  0  0  2  0  0  0  0  0  0
  181.7900  178.5890  141.5500 O   0  0  0  0  0  1  0  0  0  0  0  0
  189.2460  177.1150  141.2580 C   0  0  0  0  0  2  0  0  0  0  0  0
  190.3550  176.9030  140.2830 C   0  0  0  0  0  0  0  0  0  0  0  0
  192.4170  176.5450  138.4260 C   0  0  0  0  0  0  0  0  0  0  0  0
  191.6100  177.4800  140.5100 C   0  0  0  0  0  3  0  0  0  0  0  0
  190.1310  176.1530  139.1230 C   0  0  0  0  0  3  0  0  0  0  0  0
  191.1620  175.9720  138.1960 C   0  0  0  0  0  3  0  0  0  0  0  0
  193.5120  176.3530  137.4400 C   0  0  0  0  0  1  0  0  0  0  0  0
  192.6400  177.3000  139.5820 C   0  0  0  0  0  3  0  0  0  0  0  0
  1 17  1  0  0  0  0
  1 18  1  0  0  0  0
  2 15  1  0  0  0  0
  2  6  1  0  0  0  0
  4 11  1  0  0  0  0
  5 16  2  0  0  0  0
  6  5  1  0  0  0  0
  6  4  2  0  0  0  0
  8  4  1  0  0  0  0
  9 14  1  0  0  0  0
  9 13  1  0  0  0  0
 10 18  1  0  0  0  0
 10  5  1  0  0  0  0
 11  7  1  0  0  0  0
 12 14  2  0  0  0  0
 13  3  1  0  0  0  0
 15  8  2  0  0  0  0
 16 13  1  0  0  0  0
 16  7  1  0  0  0  0
 17 12  1  0  0  0  0
 18  9  2  0  0  0  0
 19 15  1  0  0  0  0
 20 19  1  0  0  0  0
 21  1  1  0  0  0  0
 22 24  1  0  0  0  0
 22 21  1  0  0  0  0
 23 28  1  0  0  0  0
 25 22  2  0  0  0  0
 26 23  2  0  0  0  0
 26 25  1  0  0  0  0
 27 23  1  0  0  0  0
 28 24  2  0  0  0  0
M  END
>  <MODEL>
3

>  <REMARK>
 VINA RESULT:      -9.0      2.937      5.573
  Name = 
  3 active torsions:
  status: ('A' for Active; 'I' for Inactive)
    1  A    between atoms: N_1  and  C_2
    2  A    between atoms: C_2  and  C_3
    3  A    between atoms: C_12  and  C_24
                            x       y       z     vdW  Elec       q    Type
                         _______ _______ _______ _____ _____    ______ ____

>  <TORSDO>
F 3

$$$$
=
 OpenBabel11052413323D

 28 32  0  0  0  0  0  0  0  0999 V2000
  184.3640  178.8060  142.7590 N   0  0  0  0  0  0  0  0  0  0  0  0
  189.1460  177.4170  140.5770 S   0  0  0  0  0  0  0  0  0  0  0  0
  187.0800  177.8070  146.7430 C   0  0  0  0  0  1  0  0  0  0  0  0
  190.3830  177.3280  142.7560 C   0  0  0  0  0  0  0  0  0  0  0  0
  187.9630  177.7940  143.1180 C   0  0  0  0  0  0  0  0  0  0  0  0
  189.1130  177.5280  142.2510 C   0  0  0  0  0  0  0  0  0  0  0  0
  189.3940  177.1310  145.0460 C   0  0  0  0  0  2  0  0  0  0  0  0
  191.3580  177.1100  141.7790 C   0  0  0  0  0  3  0  0  0  0  0  0
  185.7080  178.3320  144.7030 C   0  0  0  0  0  0  0  0  0  0  0  0
  186.7350  178.1810  142.5680 O   0  0  0  0  0  0  0  0  0  0  0  0
  190.6500  177.4750  144.2230 C   0  0  0  0  0  2  0  0  0  0  0  0
  183.3700  179.0020  145.0050 C   0  0  0  0  0  3  0  0  0  0  0  0
  186.9630  177.9380  145.2960 N   0  0  0  0  0  0  0  0  0  0  0  0
  184.5090  178.5540  145.5350 C   0  0  0  0  0  3  0  0  0  0  0  0
  190.8080  177.1290  140.4990 C   0  0  0  0  0  0  0  0  0  0  0  0
  188.1020  177.6770  144.4540 C   0  0  0  0  0  0  0  0  0  0  0  0
  183.2670  179.3710  143.5500 C   0  0  0  0  0  2  0  0  0  0  0  0
  185.6150  178.4430  143.3680 C   0  0  0  0  0  0  0  0  0  0  0  0
  191.5660  176.8780  139.2450 C   0  0  0  0  0  2  0  0  0  0  0  0
  191.2040  175.6380  138.7180 O   0  0  0  0  0  1  0  0  0  0  0  0
  184.2170  178.7750  141.3100 C   0  0  0  0  0  2  0  0  0  0  0  0
  182.9380  178.1050  140.9350 C   0  0  0  0  0  0  0  0  0  0  0  0
  180.5450  176.8140  140.2730 C   0  0  0  0  0  0  0  0  0  0  0  0
  181.7160  178.6280  141.3720 C   0  0  0  0  0  3  0  0  0  0  0  0
  182.9620  176.9310  140.1720 C   0  0  0  0  0  3  0  0  0  0  0  0
  181.7670  176.2880  139.8400 C   0  0  0  0  0  3  0  0  0  0  0  0
  179.2750  176.1300  139.9190 C   0  0  0  0  0  1  0  0  0  0  0  0
  180.5200  177.9840  141.0400 C   0  0  0  0  0  3  0  0  0  0  0  0
  1 18  1  0  0  0  0
  1 17  1  0  0  0  0
  2  6  1  0  0  0  0
  4 11  1  0  0  0  0
  5 16  2  0  0  0  0
  6  4  2  0  0  0  0
  6  5  1  0  0  0  0
  8  4  1  0  0  0  0
  9 13  1  0  0  0  0
  9 14  1  0  0  0  0
 10  5  1  0  0  0  0
 10 18  1  0  0  0  0
 11  7  1  0  0  0  0
 12 14  2  0  0  0  0
 13  3  1  0  0  0  0
 15  2  1  0  0  0  0
 15  8  2  0  0  0  0
 16  7  1  0  0  0  0
 16 13  1  0  0  0  0
 17 12  1  0  0  0  0
 18  9  2  0  0  0  0
 19 15  1  0  0  0  0
 20 19  1  0  0  0  0
 21  1  1  0  0  0  0
 22 21  1  0  0  0  0
 22 24  1  0  0  0  0
 23 28  1  0  0  0  0
 25 22  2  0  0  0  0
 26 25  1  0  0  0  0
 26 23  2  0  0  0  0
 27 23  1  0  0  0  0
 28 24  2  0  0  0  0
M  END
>  <MODEL>
4

>  <REMARK>
 VINA RESULT:      -8.5      3.340      7.516
  Name = 
  3 active torsions:
  status: ('A' for Active; 'I' for Inactive)
    1  A    between atoms: N_1  and  C_2
    2  A    between atoms: C_2  and  C_3
    3  A    between atoms: C_12  and  C_24
                            x       y       z     vdW  Elec       q    Type
                         _______ _______ _______ _____ _____    ______ ____

>  <TORSDO>
F 3

$$$$
=
 OpenBabel11052413323D

 28 32  0  0  0  0  0  0  0  0999 V2000
  189.4760  177.8610  139.4390 N   0  0  0  0  0  0  0  0  0  0  0  0
  188.9700  177.2910  144.8220 S   0  0  0  0  0  0  0  0  0  0  0  0
  184.6720  178.6980  140.1320 C   0  0  0  0  0  1  0  0  0  0  0  0
  186.6010  178.1050  144.9240 C   0  0  0  0  0  0  0  0  0  0  0  0
  187.4050  177.9820  142.5700 C   0  0  0  0  0  0  0  0  0  0  0  0
  187.5980  177.8190  144.0120 C   0  0  0  0  0  0  0  0  0  0  0  0
  184.9710  178.2510  143.0310 C   0  0  0  0  0  2  0  0  0  0  0  0
  186.9740  177.9110  146.2570 C   0  0  0  0  0  3  0  0  0  0  0  0
  187.1290  178.2870  139.7920 C   0  0  0  0  0  0  0  0  0  0  0  0
  188.4900  177.8680  141.6930 O   0  0  0  0  0  0  0  0  0  0  0  0
  185.3010  178.6940  144.4700 C   0  0  0  0  0  2  0  0  0  0  0  0
  188.0240  178.3590  137.5120 C   0  0  0  0  0  3  0  0  0  0  0  0
  185.9950  178.4120  140.6750 N   0  0  0  0  0  0  0  0  0  0  0  0
  186.9700  178.3870  138.3280 C   0  0  0  0  0  3  0  0  0  0  0  0
  188.2840  177.4490  146.3570 C   0  0  0  0  0  0  0  0  0  0  0  0
  186.1730  178.2570  142.0960 C   0  0  0  0  0  0  0  0  0  0  0  0
  189.4310  178.2960  138.0400 C   0  0  0  0  0  2  0  0  0  0  0  0
  188.3400  178.0180  140.3070 C   0  0  0  0  0  0  0  0  0  0  0  0
  188.9660  177.0950  147.6300 C   0  0  0  0  0  2  0  0  0  0  0  0
  189.0550  178.2250  148.4430 O   0  0  0  0  0  1  0  0  0  0  0  0
  190.7540  177.4170  139.9760 C   0  0  0  0  0  2  0  0  0  0  0  0
  191.4510  176.5380  138.9930 C   0  0  0  0  0  0  0  0  0  0  0  0
  192.7400  174.9220  137.1070 C   0  0  0  0  0  0  0  0  0  0  0  0
  192.8010  176.7530  138.6920 C   0  0  0  0  0  3  0  0  0  0  0  0
  190.7450  175.5180  138.3450 C   0  0  0  0  0  3  0  0  0  0  0  0
  191.3900  174.7100  137.4040 C   0  0  0  0  0  3  0  0  0  0  0  0
  193.4250  174.0620  136.1080 C   0  0  0  0  0  1  0  0  0  0  0  0
  193.4450  175.9450  137.7510 C   0  0  0  0  0  3  0  0  0  0  0  0
  1 21  1  0  0  0  0
  1 18  1  0  0  0  0
  2 15  1  0  0  0  0
  3 13  1  0  0  0  0
  4  8  1  0  0  0  0
  5  6  1  0  0  0  0
  6  2  1  0  0  0  0
  6  4  2  0  0  0  0
  7 11  1  0  0  0  0
  8 15  2  0  0  0  0
  9 18  2  0  0  0  0
  9 13  1  0  0  0  0
 10  5  1  0  0  0  0
 11  4  1  0  0  0  0
 12 17  1  0  0  0  0
 12 14  2  0  0  0  0
 13 16  1  0  0  0  0
 14  9  1  0  0  0  0
 15 19  1  0  0  0  0
 16  5  2  0  0  0  0
 16  7  1  0  0  0  0
 17  1  1  0  0  0  0
 18 10  1  0  0  0  0
 19 20  1  0  0  0  0
 22 21  1  0  0  0  0
 23 26  2  0  0  0  0
 23 28  1  0  0  0  0
 24 22  1  0  0  0  0
 25 22  2  0  0  0  0
 26 25  1  0  0  0  0
 27 23  1  0  0  0  0
 28 24  2  0  0  0  0
M  END
>  <MODEL>
5

>  <REMARK>
 VINA RESULT:      -8.4      1.606      2.365
  Name = 
  3 active torsions:
  status: ('A' for Active; 'I' for Inactive)
    1  A    between atoms: N_1  and  C_2
    2  A    between atoms: C_2  and  C_3
    3  A    between atoms: C_12  and  C_24
                            x       y       z     vdW  Elec       q    Type
                         _______ _______ _______ _____ _____    ______ ____

>  <TORSDO>
F 3

$$$$
=
 OpenBabel11052413323D

 28 32  0  0  0  0  0  0  0  0999 V2000
  189.7870  177.8810  139.9940 N   0  0  0  0  0  0  0  0  0  0  0  0
  184.9520  178.8250  142.2950 S   0  0  0  0  0  0  0  0  0  0  0  0
  190.7580  177.2220  144.7780 C   0  0  0  0  0  1  0  0  0  0  0  0
  185.6330  178.0830  144.5910 C   0  0  0  0  0  0  0  0  0  0  0  0
  187.5660  178.0270  143.0200 C   0  0  0  0  0  0  0  0  0  0  0  0
  186.1570  178.2800  143.3280 C   0  0  0  0  0  0  0  0  0  0  0  0
  187.9640  177.8540  145.4740 C   0  0  0  0  0  2  0  0  0  0  0  0
  184.2660  178.3560  144.6910 C   0  0  0  0  0  3  0  0  0  0  0  0
  190.2470  177.5440  142.3370 C   0  0  0  0  0  0  0  0  0  0  0  0
  188.0180  178.0520  141.6960 O   0  0  0  0  0  0  0  0  0  0  0  0
  186.4780  177.5000  145.6820 C   0  0  0  0  0  2  0  0  0  0  0  0
  192.0680  177.2940  140.7170 C   0  0  0  0  0  3  0  0  0  0  0  0
  189.8060  177.5090  143.7100 N   0  0  0  0  0  0  0  0  0  0  0  0
  191.6680  177.3500  141.9870 C   0  0  0  0  0  3  0  0  0  0  0  0
  183.7440  178.7880  143.4740 C   0  0  0  0  0  0  0  0  0  0  0  0
  188.4220  177.7540  144.0250 C   0  0  0  0  0  0  0  0  0  0  0  0
  191.0890  177.3550  139.5770 C   0  0  0  0  0  2  0  0  0  0  0  0
  189.3590  177.8140  141.3660 C   0  0  0  0  0  0  0  0  0  0  0  0
  182.3340  179.2080  143.2560 C   0  0  0  0  0  2  0  0  0  0  0  0
  181.5180  178.6280  144.2270 O   0  0  0  0  0  1  0  0  0  0  0  0
  188.8640  178.3270  138.9600 C   0  0  0  0  0  2  0  0  0  0  0  0
  188.8310  177.3430  137.8390 C   0  0  0  0  0  0  0  0  0  0  0  0
  188.7230  175.5210  135.7180 C   0  0  0  0  0  0  0  0  0  0  0  0
  189.5470  177.5940  136.6630 C   0  0  0  0  0  3  0  0  0  0  0  0
  188.0550  176.1840  137.9500 C   0  0  0  0  0  3  0  0  0  0  0  0
  188.0030  175.2720  136.8910 C   0  0  0  0  0  3  0  0  0  0  0  0
  188.6670  174.5520  134.5940 C   0  0  0  0  0  1  0  0  0  0  0  0
  189.4940  176.6820  135.6040 C   0  0  0  0  0  3  0  0  0  0  0  0
  1 18  1  0  0  0  0
  2  6  1  0  0  0  0
  2 15  1  0  0  0  0
  4  8  1  0  0  0  0
  4 11  1  0  0  0  0
  5  6  1  0  0  0  0
  5 16  2  0  0  0  0
  6  4  2  0  0  0  0
  7 11  1  0  0  0  0
  9 13  1  0  0  0  0
 10  5  1  0  0  0  0
 12 14  2  0  0  0  0
 13 16  1  0  0  0  0
 13  3  1  0  0  0  0
 14  9  1  0  0  0  0
 15  8  2  0  0  0  0
 16  7  1  0  0  0  0
 17  1  1  0  0  0  0
 17 12  1  0  0  0  0
 18 10  1  0  0  0  0
 18  9  2  0  0  0  0
 19 15  1  0  0  0  0
 19 20  1  0  0  0  0
 21  1  1  0  0  0  0
 22 25  1  0  0  0  0
 22 21  1  0  0  0  0
 23 26  1  0  0  0  0
 24 22  2  0  0  0  0
 26 25  2  0  0  0  0
 27 23  1  0  0  0  0
 28 23  2  0  0  0  0
 28 24  1  0  0  0  0
M  END
>  <MODEL>
6

>  <REMARK>
 VINA RESULT:      -8.3      2.946      5.052
  Name = 
  3 active torsions:
  status: ('A' for Active; 'I' for Inactive)
    1  A    between atoms: N_1  and  C_2
    2  A    between atoms: C_2  and  C_3
    3  A    between atoms: C_12  and  C_24
                            x       y       z     vdW  Elec       q    Type
                         _______ _______ _______ _____ _____    ______ ____

>  <TORSDO>
F 3

$$$$
=
 OpenBabel11052413323D

 28 32  0  0  0  0  0  0  0  0999 V2000
  189.1520  177.7210  138.5350 N   0  0  0  0  0  0  0  0  0  0  0  0
  185.1550  178.8040  142.0580 S   0  0  0  0  0  0  0  0  0  0  0  0
  191.3110  176.8320  142.8720 C   0  0  0  0  0  1  0  0  0  0  0  0
  186.3750  177.9420  144.0720 C   0  0  0  0  0  0  0  0  0  0  0  0
  187.8190  177.8550  142.0440 C   0  0  0  0  0  0  0  0  0  0  0  0
  186.5570  178.1630  142.7200 C   0  0  0  0  0  0  0  0  0  0  0  0
  188.8390  177.5690  144.2990 C   0  0  0  0  0  2  0  0  0  0  0  0
  185.1000  178.2760  144.5370 C   0  0  0  0  0  3  0  0  0  0  0  0
  190.1940  177.2710  140.6630 C   0  0  0  0  0  0  0  0  0  0  0  0
  187.9060  177.9090  140.6480 O   0  0  0  0  0  0  0  0  0  0  0  0
  187.4430  177.2780  144.8850 C   0  0  0  0  0  2  0  0  0  0  0  0
  191.5060  176.9980  138.6120 C   0  0  0  0  0  3  0  0  0  0  0  0
  190.1290  177.2040  142.1020 N   0  0  0  0  0  0  0  0  0  0  0  0
  191.4590  177.0240  139.9440 C   0  0  0  0  0  3  0  0  0  0  0  0
  184.3000  178.7800  143.5140 C   0  0  0  0  0  0  0  0  0  0  0  0
  188.8930  177.5030  142.7790 C   0  0  0  0  0  0  0  0  0  0  0  0
  190.2670  177.1500  137.7740 C   0  0  0  0  0  2  0  0  0  0  0  0
  189.0980  177.6210  139.9690 C   0  0  0  0  0  0  0  0  0  0  0  0
  182.9090  179.2740  143.6880 C   0  0  0  0  0  2  0  0  0  0  0  0
  182.1270  178.8630  142.6090 O   0  0  0  0  0  1  0  0  0  0  0  0
  188.0160  178.2490  137.7930 C   0  0  0  0  0  2  0  0  0  0  0  0
  187.0130  177.1730  137.5480 C   0  0  0  0  0  0  0  0  0  0  0  0
  185.1290  175.1680  137.0360 C   0  0  0  0  0  0  0  0  0  0  0  0
  187.4360  175.8660  137.2770 C   0  0  0  0  0  3  0  0  0  0  0  0
  185.6470  177.4770  137.5560 C   0  0  0  0  0  3  0  0  0  0  0  0
  184.7060  176.4740  137.3020 C   0  0  0  0  0  3  0  0  0  0  0  0
  184.1290  174.1040  136.7660 C   0  0  0  0  0  1  0  0  0  0  0  0
  186.4950  174.8650  137.0220 C   0  0  0  0  0  3  0  0  0  0  0  0
  1 18  1  0  0  0  0
  2  6  1  0  0  0  0
  2 15  1  0  0  0  0
  4  8  1  0  0  0  0
  4 11  1  0  0  0  0
  5  6  1  0  0  0  0
  5 16  2  0  0  0  0
  6  4  2  0  0  0  0
  7 11  1  0  0  0  0
  9 13  1  0  0  0  0
 10  5  1  0  0  0  0
 12 14  2  0  0  0  0
 13 16  1  0  0  0  0
 13  3  1  0  0  0  0
 14  9  1  0  0  0  0
 15 19  1  0  0  0  0
 15  8  2  0  0  0  0
 16  7  1  0  0  0  0
 17  1  1  0  0  0  0
 17 12  1  0  0  0  0
 18 10  1  0  0  0  0
 18  9  2  0  0  0  0
 20 19  1  0  0  0  0
 21  1  1  0  0  0  0
 22 25  1  0  0  0  0
 22 21  1  0  0  0  0
 23 26  1  0  0  0  0
 24 22  2  0  0  0  0
 26 25  2  0  0  0  0
 27 23  1  0  0  0  0
 28 23  2  0  0  0  0
 28 24  1  0  0  0  0
M  END
>  <MODEL>
7

>  <REMARK>
 VINA RESULT:      -8.3      3.189      5.643
  Name = 
  3 active torsions:
  status: ('A' for Active; 'I' for Inactive)
    1  A    between atoms: N_1  and  C_2
    2  A    between atoms: C_2  and  C_3
    3  A    between atoms: C_12  and  C_24
                            x       y       z     vdW  Elec       q    Type
                         _______ _______ _______ _____ _____    ______ ____

>  <TORSDO>
F 3

$$$$
=
 OpenBabel11052413323D

 28 32  0  0  0  0  0  0  0  0999 V2000
  186.5590  178.5340  140.1560 N   0  0  0  0  0  0  0  0  0  0  0  0
  187.6360  178.1240  145.4700 S   0  0  0  0  0  0  0  0  0  0  0  0
  191.3010  177.2060  140.1620 C   0  0  0  0  0  1  0  0  0  0  0  0
  189.9130  177.1160  145.1720 C   0  0  0  0  0  0  0  0  0  0  0  0
  188.9010  177.7080  142.9750 C   0  0  0  0  0  0  0  0  0  0  0  0
  188.8640  177.6340  144.4360 C   0  0  0  0  0  0  0  0  0  0  0  0
  191.3290  177.1680  143.1100 C   0  0  0  0  0  2  0  0  0  0  0  0
  189.6910  177.1050  146.5520 C   0  0  0  0  0  3  0  0  0  0  0  0
  188.8760  177.8670  140.1710 C   0  0  0  0  0  0  0  0  0  0  0  0
  187.7530  178.0590  142.2540 O   0  0  0  0  0  0  0  0  0  0  0  0
  191.0990  176.5110  144.4850 C   0  0  0  0  0  2  0  0  0  0  0  0
  187.7620  178.2620  138.0240 C   0  0  0  0  0  3  0  0  0  0  0  0
  190.0720  177.5000  140.8890 N   0  0  0  0  0  0  0  0  0  0  0  0
  188.8820  178.0090  138.7010 C   0  0  0  0  0  3  0  0  0  0  0  0
  188.4480  177.6480  146.8720 C   0  0  0  0  0  0  0  0  0  0  0  0
  190.0480  177.4210  142.3270 C   0  0  0  0  0  0  0  0  0  0  0  0
  186.4260  178.3460  138.7090 C   0  0  0  0  0  2  0  0  0  0  0  0
  187.7520  178.1390  140.8550 C   0  0  0  0  0  0  0  0  0  0  0  0
  187.9310  177.8300  148.2540 C   0  0  0  0  0  2  0  0  0  0  0  0
  188.9650  178.2530  149.0890 O   0  0  0  0  0  1  0  0  0  0  0  0
  185.3890  178.9810  140.8990 C   0  0  0  0  0  2  0  0  0  0  0  0
  184.1450  178.6880  140.1300 C   0  0  0  0  0  0  0  0  0  0  0  0
  181.7830  178.1570  138.7260 C   0  0  0  0  0  0  0  0  0  0  0  0
  183.6840  179.5920  139.1660 C   0  0  0  0  0  3  0  0  0  0  0  0
  183.4190  177.5200  140.3950 C   0  0  0  0  0  3  0  0  0  0  0  0
  182.2400  177.2550  139.6920 C   0  0  0  0  0  3  0  0  0  0  0  0
  180.5300  177.8740  137.9800 C   0  0  0  0  0  1  0  0  0  0  0  0
  182.5050  179.3270  138.4650 C   0  0  0  0  0  3  0  0  0  0  0  0
  1 18  1  0  0  0  0
  1 21  1  0  0  0  0
  2 15  1  0  0  0  0
  3 13  1  0  0  0  0
  4  8  1  0  0  0  0
  5  6  1  0  0  0  0
  6  4  2  0  0  0  0
  6  2  1  0  0  0  0
  7 11  1  0  0  0  0
  8 15  2  0  0  0  0
  9 18  2  0  0  0  0
  9 13  1  0  0  0  0
 10  5  1  0  0  0  0
 11  4  1  0  0  0  0
 12 14  2  0  0  0  0
 12 17  1  0  0  0  0
 13 16  1  0  0  0  0
 14  9  1  0  0  0  0
 15 19  1  0  0  0  0
 16  5  2  0  0  0  0
 16  7  1  0  0  0  0
 17  1  1  0  0  0  0
 18 10  1  0  0  0  0
 19 20  1  0  0  0  0
 22 25  1  0  0  0  0
 22 21  1  0  0  0  0
 23 26  1  0  0  0  0
 24 22  2  0  0  0  0
 26 25  2  0  0  0  0
 27 23  1  0  0  0  0
 28 23  2  0  0  0  0
 28 24  1  0  0  0  0
M  END
>  <MODEL>
8

>  <REMARK>
 VINA RESULT:      -8.1      2.861      5.947
  Name = 
  3 active torsions:
  status: ('A' for Active; 'I' for Inactive)
    1  A    between atoms: N_1  and  C_2
    2  A    between atoms: C_2  and  C_3
    3  A    between atoms: C_12  and  C_24
                            x       y       z     vdW  Elec       q    Type
                         _______ _______ _______ _____ _____    ______ ____

>  <TORSDO>
F 3

$$$$
=
 OpenBabel11052413323D

 28 32  0  0  0  0  0  0  0  0999 V2000
  186.2810  178.4520  138.4740 N   0  0  0  0  0  0  0  0  0  0  0  0
  185.6010  178.4670  143.8680 S   0  0  0  0  0  0  0  0  0  0  0  0
  190.7750  177.2600  140.0980 C   0  0  0  0  0  1  0  0  0  0  0  0
  187.8560  177.5030  144.3930 C   0  0  0  0  0  0  0  0  0  0  0  0
  187.5990  177.9020  141.9490 C   0  0  0  0  0  0  0  0  0  0  0  0
  187.0970  177.9360  143.3230 C   0  0  0  0  0  0  0  0  0  0  0  0
  189.8580  177.4420  142.8940 C   0  0  0  0  0  2  0  0  0  0  0  0
  187.2040  177.5890  145.6270 C   0  0  0  0  0  3  0  0  0  0  0  0
  188.4730  177.8510  139.2800 C   0  0  0  0  0  0  0  0  0  0  0  0
  186.7420  178.1660  140.8740 O   0  0  0  0  0  0  0  0  0  0  0  0
  189.2010  176.8830  144.1710 C   0  0  0  0  0  2  0  0  0  0  0  0
  188.1040  178.0550  136.8660 C   0  0  0  0  0  3  0  0  0  0  0  0
  189.3770  177.5730  140.3690 N   0  0  0  0  0  0  0  0  0  0  0  0
  188.9490  177.8840  137.8830 C   0  0  0  0  0  3  0  0  0  0  0  0
  185.9230  178.1190  145.4890 C   0  0  0  0  0  0  0  0  0  0  0  0
  188.8940  177.6000  141.7260 C   0  0  0  0  0  0  0  0  0  0  0  0
  186.6190  178.1520  137.0800 C   0  0  0  0  0  2  0  0  0  0  0  0
  187.1890  178.1420  139.5460 C   0  0  0  0  0  0  0  0  0  0  0  0
  184.9900  178.3890  146.6150 C   0  0  0  0  0  2  0  0  0  0  0  0
  183.8300  178.9920  146.1270 O   0  0  0  0  0  1  0  0  0  0  0  0
  184.9330  178.9200  138.7670 C   0  0  0  0  0  2  0  0  0  0  0  0
  183.9530  177.8090  138.5990 C   0  0  0  0  0  0  0  0  0  0  0  0
  182.0730  175.7590  138.2930 C   0  0  0  0  0  0  0  0  0  0  0  0
  183.5110  177.4480  137.3210 C   0  0  0  0  0  3  0  0  0  0  0  0
  183.4470  177.1480  139.7250 C   0  0  0  0  0  3  0  0  0  0  0  0
  182.5100  176.1220  139.5710 C   0  0  0  0  0  3  0  0  0  0  0  0
  181.0760  174.6690  138.1310 C   0  0  0  0  0  1  0  0  0  0  0  0
  182.5730  176.4230  137.1680 C   0  0  0  0  0  3  0  0  0  0  0  0
  1 21  1  0  0  0  0
  1 18  1  0  0  0  0
  2 15  1  0  0  0  0
  3 13  1  0  0  0  0
  4  8  1  0  0  0  0
  5  6  1  0  0  0  0
  6  2  1  0  0  0  0
  6  4  2  0  0  0  0
  7 11  1  0  0  0  0
  9 18  2  0  0  0  0
  9 13  1  0  0  0  0
 10  5  1  0  0  0  0
 11  4  1  0  0  0  0
 12 17  1  0  0  0  0
 12 14  2  0  0  0  0
 13 16  1  0  0  0  0
 14  9  1  0  0  0  0
 15  8  2  0  0  0  0
 15 19  1  0  0  0  0
 16  5  2  0  0  0  0
 16  7  1  0  0  0  0
 17  1  1  0  0  0  0
 18 10  1  0  0  0  0
 20 19  1  0  0  0  0
 22 21  1  0  0  0  0
 22 25  1  0  0  0  0
 23 26  1  0  0  0  0
 24 22  2  0  0  0  0
 26 25  2  0  0  0  0
 27 23  1  0  0  0  0
 28 24  1  0  0  0  0
 28 23  2  0  0  0  0
M  END
>  <MODEL>
9

>  <REMARK>
 VINA RESULT:      -8.0      3.563      6.258
  Name = 
  3 active torsions:
  status: ('A' for Active; 'I' for Inactive)
    1  A    between atoms: N_1  and  C_2
    2  A    between atoms: C_2  and  C_3
    3  A    between atoms: C_12  and  C_24
                            x       y       z     vdW  Elec       q    Type
                         _______ _______ _______ _____ _____    ______ ____

>  <TORSDO>
F 3

$$$$
