=
 OpenBabel11052413423D

 27 31  0  0  1  0  0  0  0  0999 V2000
  188.9280  176.8530  140.9340 C   0  0  2  0  0  3  0  0  0  0  0  0
  188.0030  178.5850  142.9740 C   0  0  2  0  0  3  0  0  0  0  0  0
  188.1400  178.0780  140.4290 C   0  0  1  0  0  3  0  0  0  0  0  0
  183.7990  178.0350  142.3540 C   0  0  0  0  0  3  0  0  0  0  0  0
  181.7530  178.3970  141.0710 N   0  0  0  0  0  1  0  0  0  0  0  0
  187.2930  177.3940  143.6200 C   0  0  0  0  0  2  0  0  0  0  0  0
  191.6680  176.6960  144.6350 O   0  0  0  0  0  0  0  0  0  0  0  0
  185.2980  179.2340  140.3230 C   0  0  0  0  0  3  0  0  0  0  0  0
  189.9570  177.1840  142.0340 C   0  0  1  0  0  3  0  0  0  0  0  0
  189.1230  179.5380  137.2630 O   0  0  0  0  0  1  0  0  0  0  0  0
  190.1380  178.4930  144.3270 C   0  0  0  0  0  2  0  0  0  0  0  0
  183.9130  179.1160  140.1920 C   0  0  0  0  0  3  0  0  0  0  0  0
  190.1310  176.8020  136.8370 F   0  0  0  0  0  0  0  0  0  0  0  0
  187.4510  178.8650  141.5590 C   0  0  1  0  0  3  0  0  0  0  0  0
  189.5200  178.3800  142.9270 C   0  0  2  0  0  3  0  0  0  0  0  0
  183.1650  178.5130  141.2040 C   0  0  0  0  0  0  0  0  0  0  0  0
  185.1870  178.1390  142.4900 C   0  0  0  0  0  0  0  0  0  0  0  0
  189.5260  176.0120  139.7990 C   0  0  0  0  0  2  0  0  0  0  0  0
  185.9480  178.7500  141.4670 C   0  0  0  0  0  0  0  0  0  0  0  0
  189.0910  178.4790  138.1700 C   0  0  1  0  0  3  0  0  0  0  0  0
  185.8120  177.7010  143.7820 C   0  0  0  0  0  2  0  0  0  0  0  0
  190.3210  177.5900  137.9560 C   0  0  1  0  0  3  0  0  0  0  0  0
  191.5990  178.0670  144.3610 C   0  0  0  0  0  2  0  0  0  0  0  0
  190.7150  176.7120  139.1460 C   0  0  0  0  0  2  0  0  0  0  0  0
  191.7130  176.0490  143.3950 C   0  0  0  0  0  2  0  0  0  0  0  0
  188.9830  179.0270  139.5850 C   0  0  0  0  0  2  0  0  0  0  0  0
  190.3110  175.9170  142.8110 C   0  0  0  0  0  2  0  0  0  0  0  0
  1 18  1  6  0  0  0
  1  9  1  0  0  0  0
  2  6  1  6  0  0  0
  3 26  1  1  0  0  0
  3  1  1  0  0  0  0
  3 14  1  0  0  0  0
  4 17  1  0  0  0  0
  5 16  1  0  0  0  0
  6 21  1  0  0  0  0
  8 19  1  0  0  0  0
  9 27  1  1  0  0  0
  9 15  1  0  0  0  0
 11 23  1  0  0  0  0
 12  8  2  0  0  0  0
 12 16  1  0  0  0  0
 14 19  1  1  0  0  0
 14  2  1  0  0  0  0
 15  2  1  0  0  0  0
 15 11  1  1  0  0  0
 16  4  2  0  0  0  0
 17 21  1  0  0  0  0
 19 17  2  0  0  0  0
 20 10  1  6  0  0  0
 20 26  1  0  0  0  0
 22 13  1  6  0  0  0
 22 20  1  0  0  0  0
 22 24  1  0  0  0  0
 23  7  1  0  0  0  0
 24 18  1  0  0  0  0
 25  7  1  0  0  0  0
 27 25  1  0  0  0  0
M  END
>  <MODEL>
1

>  <REMARK>
 VINA RESULT:      -7.5      0.000      0.000
  Name = 
  0 active torsions:
  status: ('A' for Active; 'I' for Inactive)
                            x       y       z     vdW  Elec       q    Type
                         _______ _______ _______ _____ _____    ______ ____

>  <TORSDO>
F 0

$$$$
=
 OpenBabel11052413423D

 27 31  0  0  1  0  0  0  0  0999 V2000
  189.0880  176.2900  138.2280 C   0  0  2  0  0  3  0  0  0  0  0  0
  190.5580  177.4710  140.3400 C   0  0  2  0  0  3  0  0  0  0  0  0
  188.5120  177.6230  138.7460 C   0  0  1  0  0  3  0  0  0  0  0  0
  187.5460  177.2070  143.3760 C   0  0  0  0  0  3  0  0  0  0  0  0
  185.4450  177.9360  144.3850 N   0  0  0  0  0  1  0  0  0  0  0  0
  190.3980  176.1740  141.1350 C   0  0  0  0  0  2  0  0  0  0  0  0
  193.5410  175.1270  138.0240 O   0  0  0  0  0  0  0  0  0  0  0  0
  187.0640  178.8420  141.1620 C   0  0  0  0  0  3  0  0  0  0  0  0
  190.6180  176.3030  138.0380 C   0  0  1  0  0  3  0  0  0  0  0  0
  186.8970  179.8120  136.3540 O   0  0  0  0  0  1  0  0  0  0  0  0
  192.8260  176.9820  139.3310 C   0  0  0  0  0  2  0  0  0  0  0  0
  186.1430  178.7980  142.2110 C   0  0  0  0  0  3  0  0  0  0  0  0
  186.5260  177.2480  134.9500 F   0  0  0  0  0  0  0  0  0  0  0  0
  189.1870  178.1160  140.0390 C   0  0  1  0  0  3  0  0  0  0  0  0
  191.3410  177.2450  139.0440 C   0  0  2  0  0  3  0  0  0  0  0  0
  186.3810  177.9770  143.3150 C   0  0  0  0  0  0  0  0  0  0  0  0
  188.4690  177.2360  142.3250 C   0  0  0  0  0  0  0  0  0  0  0  0
  188.3450  175.7490  137.0000 C   0  0  0  0  0  2  0  0  0  0  0  0
  188.2310  178.0670  141.2070 C   0  0  0  0  0  0  0  0  0  0  0  0
  187.3590  178.5590  136.7550 C   0  0  1  0  0  3  0  0  0  0  0  0
  189.7480  176.4690  142.4790 C   0  0  0  0  0  2  0  0  0  0  0  0
  187.6940  177.7220  135.5160 C   0  0  1  0  0  3  0  0  0  0  0  0
  193.5910  176.5230  138.0980 C   0  0  0  0  0  2  0  0  0  0  0  0
  188.6640  176.5600  135.7470 C   0  0  0  0  0  2  0  0  0  0  0  0
  192.4420  174.8140  137.2150 C   0  0  0  0  0  2  0  0  0  0  0  0
  188.5380  178.7330  137.7000 C   0  0  0  0  0  2  0  0  0  0  0  0
  191.1510  174.8720  138.0230 C   0  0  0  0  0  2  0  0  0  0  0  0
  1 18  1  6  0  0  0
  1  3  1  0  0  0  0
  2  6  1  6  0  0  0
  3 26  1  6  0  0  0
  3 14  1  0  0  0  0
  6 21  1  0  0  0  0
  7 23  1  0  0  0  0
  8 19  2  0  0  0  0
  8 12  1  0  0  0  0
  9 27  1  1  0  0  0
  9  1  1  0  0  0  0
  9 15  1  0  0  0  0
 12 16  2  0  0  0  0
 14  2  1  0  0  0  0
 14 19  1  1  0  0  0
 15 11  1  1  0  0  0
 15  2  1  0  0  0  0
 16  4  1  0  0  0  0
 16  5  1  0  0  0  0
 17 21  1  0  0  0  0
 17  4  2  0  0  0  0
 19 17  1  0  0  0  0
 20 10  1  6  0  0  0
 20 26  1  0  0  0  0
 22 13  1  1  0  0  0
 22 24  1  0  0  0  0
 22 20  1  0  0  0  0
 23 11  1  0  0  0  0
 24 18  1  0  0  0  0
 25 27  1  0  0  0  0
 25  7  1  0  0  0  0
M  END
>  <MODEL>
2

>  <REMARK>
 VINA RESULT:      -7.1      2.489      4.103
  Name = 
  0 active torsions:
  status: ('A' for Active; 'I' for Inactive)
                            x       y       z     vdW  Elec       q    Type
                         _______ _______ _______ _____ _____    ______ ____

>  <TORSDO>
F 0

$$$$
=
 OpenBabel11052413423D

 27 31  0  0  1  0  0  0  0  0999 V2000
  186.7220  177.2170  143.6190 C   0  0  2  0  0  3  0  0  0  0  0  0
  184.9910  179.3290  144.3680 C   0  0  2  0  0  3  0  0  0  0  0  0
  186.4270  178.2350  142.4990 C   0  0  1  0  0  3  0  0  0  0  0  0
  181.7420  178.3930  141.7350 C   0  0  0  0  0  3  0  0  0  0  0  0
  180.7370  178.3110  139.5110 N   0  0  0  0  0  1  0  0  0  0  0  0
  183.9530  178.2880  144.7890 C   0  0  0  0  0  2  0  0  0  0  0  0
  187.0340  178.1190  148.1260 O   0  0  0  0  0  0  0  0  0  0  0  0
  184.1860  179.1570  140.6150 C   0  0  0  0  0  3  0  0  0  0  0  0
  187.0240  177.8640  144.9860 C   0  0  1  0  0  3  0  0  0  0  0  0
  189.0640  178.9480  140.1220 O   0  0  0  0  0  1  0  0  0  0  0  0
  186.0550  179.6940  146.6340 C   0  0  0  0  0  2  0  0  0  0  0  0
  183.0820  178.9280  139.7910 C   0  0  0  0  0  3  0  0  0  0  0  0
  189.9210  176.2560  140.9600 F   0  0  0  0  0  0  0  0  0  0  0  0
  185.3050  179.2270  142.8600 C   0  0  1  0  0  3  0  0  0  0  0  0
  186.2750  179.2110  145.1940 C   0  0  2  0  0  3  0  0  0  0  0  0
  181.8620  178.5410  140.3510 C   0  0  0  0  0  0  0  0  0  0  0  0
  182.8460  178.6100  142.5670 C   0  0  0  0  0  0  0  0  0  0  0  0
  187.7640  176.1650  143.2190 C   0  0  0  0  0  2  0  0  0  0  0  0
  184.0810  179.0030  142.0040 C   0  0  0  0  0  0  0  0  0  0  0  0
  188.4670  178.1380  141.0870 C   0  0  1  0  0  3  0  0  0  0  0  0
  182.6450  178.5340  144.0510 C   0  0  0  0  0  2  0  0  0  0  0  0
  189.5450  177.3000  141.7830 C   0  0  1  0  0  3  0  0  0  0  0  0
  187.2310  179.3780  147.5460 C   0  0  0  0  0  2  0  0  0  0  0  0
  189.1700  176.7590  143.1650 C   0  0  0  0  0  2  0  0  0  0  0  0
  187.6820  177.1970  147.2980 C   0  0  0  0  0  2  0  0  0  0  0  0
  187.6640  179.0030  142.0470 C   0  0  0  0  0  2  0  0  0  0  0  0
  186.8060  176.8440  146.1020 C   0  0  0  0  0  2  0  0  0  0  0  0
  1 18  1  6  0  0  0
  1  9  1  0  0  0  0
  2  6  1  1  0  0  0
  2 15  1  0  0  0  0
  3 26  1  1  0  0  0
  3 14  1  0  0  0  0
  3  1  1  0  0  0  0
  4 17  1  0  0  0  0
  5 16  1  0  0  0  0
  8 19  1  0  0  0  0
  9 15  1  0  0  0  0
  9 27  1  1  0  0  0
 11 23  1  0  0  0  0
 12 16  1  0  0  0  0
 12  8  2  0  0  0  0
 14 19  1  6  0  0  0
 14  2  1  0  0  0  0
 15 11  1  1  0  0  0
 16  4  2  0  0  0  0
 17 21  1  0  0  0  0
 19 17  2  0  0  0  0
 20 10  1  6  0  0  0
 20 22  1  0  0  0  0
 20 26  1  0  0  0  0
 21  6  1  0  0  0  0
 22 13  1  6  0  0  0
 22 24  1  0  0  0  0
 23  7  1  0  0  0  0
 24 18  1  0  0  0  0
 25  7  1  0  0  0  0
 27 25  1  0  0  0  0
M  END
>  <MODEL>
3

>  <REMARK>
 VINA RESULT:      -6.9      2.379      3.633
  Name = 
  0 active torsions:
  status: ('A' for Active; 'I' for Inactive)
                            x       y       z     vdW  Elec       q    Type
                         _______ _______ _______ _____ _____    ______ ____

>  <TORSDO>
F 0

$$$$
=
 OpenBabel11052413423D

 27 31  0  0  1  0  0  0  0  0999 V2000
  187.6260  178.5670  142.6170 C   0  0  2  0  0  3  0  0  0  0  0  0
  185.4590  177.6980  144.2200 C   0  0  2  0  0  3  0  0  0  0  0  0
  187.9730  177.4440  143.6160 C   0  0  1  0  0  3  0  0  0  0  0  0
  187.0070  178.9260  148.0230 C   0  0  0  0  0  3  0  0  0  0  0  0
  188.5460  178.6640  149.9000 N   0  0  0  0  0  1  0  0  0  0  0  0
  185.2630  179.1420  144.6850 C   0  0  0  0  0  2  0  0  0  0  0  0
  183.6000  179.1570  140.4550 O   0  0  0  0  0  0  0  0  0  0  0  0
  188.3620  176.9280  146.6160 C   0  0  0  0  0  3  0  0  0  0  0  0
  186.2980  178.3440  141.8660 C   0  0  1  0  0  3  0  0  0  0  0  0
  190.4500  174.9980  142.6160 O   0  0  0  0  0  1  0  0  0  0  0  0
  183.7720  177.7080  142.3350 C   0  0  0  0  0  2  0  0  0  0  0  0
  188.7880  177.2930  147.8950 C   0  0  0  0  0  3  0  0  0  0  0  0
  191.3000  177.2360  140.8980 F   0  0  0  0  0  0  0  0  0  0  0  0
  186.8490  177.1620  144.6290 C   0  0  1  0  0  3  0  0  0  0  0  0
  185.2530  177.5590  142.7090 C   0  0  2  0  0  3  0  0  0  0  0  0
  188.1140  178.2950  148.5950 C   0  0  0  0  0  0  0  0  0  0  0  0
  186.5790  178.5750  146.7380 C   0  0  0  0  0  0  0  0  0  0  0  0
  188.7860  178.9190  141.6780 C   0  0  0  0  0  2  0  0  0  0  0  0
  187.2590  177.5600  146.0260 C   0  0  0  0  0  0  0  0  0  0  0  0
  189.8420  176.2470  142.5010 C   0  0  1  0  0  3  0  0  0  0  0  0
  185.3300  179.2100  146.2030 C   0  0  0  0  0  2  0  0  0  0  0  0
  190.0120  176.7640  141.0680 C   0  0  1  0  0  3  0  0  0  0  0  0
  183.5520  177.8100  140.8330 C   0  0  0  0  0  2  0  0  0  0  0  0
  189.0080  177.8320  140.6280 C   0  0  0  0  0  2  0  0  0  0  0  0
  184.9240  179.4140  140.0800 C   0  0  0  0  0  2  0  0  0  0  0  0
  188.3870  176.1450  142.9350 C   0  0  0  0  0  2  0  0  0  0  0  0
  185.7870  179.6710  141.3100 C   0  0  0  0  0  2  0  0  0  0  0  0
  1 18  1  6  0  0  0
  1  3  1  0  0  0  0
  2 14  1  0  0  0  0
  2  6  1  6  0  0  0
  3 26  1  6  0  0  0
  3 14  1  0  0  0  0
  4 16  1  0  0  0  0
  6 21  1  0  0  0  0
  7 23  1  0  0  0  0
  8 12  1  0  0  0  0
  9 27  1  1  0  0  0
  9  1  1  0  0  0  0
  9 15  1  0  0  0  0
 12 16  2  0  0  0  0
 14 19  1  1  0  0  0
 15 11  1  1  0  0  0
 15  2  1  0  0  0  0
 16  5  1  0  0  0  0
 17  4  2  0  0  0  0
 19  8  2  0  0  0  0
 19 17  1  0  0  0  0
 20 10  1  6  0  0  0
 20 26  1  0  0  0  0
 21 17  1  0  0  0  0
 22 13  1  1  0  0  0
 22 20  1  0  0  0  0
 23 11  1  0  0  0  0
 24 22  1  0  0  0  0
 24 18  1  0  0  0  0
 25  7  1  0  0  0  0
 25 27  1  0  0  0  0
M  END
>  <MODEL>
4

>  <REMARK>
 VINA RESULT:      -6.8      3.340      6.025
  Name = 
  0 active torsions:
  status: ('A' for Active; 'I' for Inactive)
                            x       y       z     vdW  Elec       q    Type
                         _______ _______ _______ _____ _____    ______ ____

>  <TORSDO>
F 0

$$$$
=
 OpenBabel11052413423D

 27 31  0  0  1  0  0  0  0  0999 V2000
  186.8220  177.1140  143.2710 C   0  0  2  0  0  3  0  0  0  0  0  0
  185.0780  179.3340  143.0470 C   0  0  2  0  0  3  0  0  0  0  0  0
  187.0060  177.9510  141.9880 C   0  0  1  0  0  3  0  0  0  0  0  0
  182.9110  178.0380  139.5850 C   0  0  0  0  0  3  0  0  0  0  0  0
  182.7490  177.6250  137.1840 N   0  0  0  0  0  1  0  0  0  0  0  0
  183.8930  178.3810  143.2110 C   0  0  0  0  0  2  0  0  0  0  0  0
  185.5850  178.6970  147.4170 O   0  0  0  0  0  0  0  0  0  0  0  0
  185.6360  178.5950  139.3180 C   0  0  0  0  0  3  0  0  0  0  0  0
  186.6650  177.9600  144.5500 C   0  0  1  0  0  3  0  0  0  0  0  0
  190.3520  178.2610  140.6360 O   0  0  0  0  0  1  0  0  0  0  0  0
  185.2990  180.0330  145.4680 C   0  0  0  0  0  2  0  0  0  0  0  0
  184.8800  178.2530  138.1950 C   0  0  0  0  0  3  0  0  0  0  0  0
  190.6820  175.7220  142.0940 F   0  0  0  0  0  0  0  0  0  0  0  0
  185.8970  178.9980  141.7810 C   0  0  1  0  0  3  0  0  0  0  0  0
  185.9800  179.3320  144.2850 C   0  0  2  0  0  3  0  0  0  0  0  0
  183.5200  177.9690  138.3290 C   0  0  0  0  0  0  0  0  0  0  0  0
  183.6630  178.3690  140.7180 C   0  0  0  0  0  0  0  0  0  0  0  0
  187.8680  176.0030  143.4210 C   0  0  0  0  0  2  0  0  0  0  0  0
  185.0400  178.6580  140.5850 C   0  0  0  0  0  0  0  0  0  0  0  0
  189.4020  177.6160  141.4270 C   0  0  1  0  0  3  0  0  0  0  0  0
  182.9480  178.5250  142.0270 C   0  0  0  0  0  2  0  0  0  0  0  0
  190.1090  176.8840  142.5730 C   0  0  1  0  0  3  0  0  0  0  0  0
  186.0560  179.8490  146.7760 C   0  0  0  0  0  2  0  0  0  0  0  0
  189.2380  176.5660  143.7910 C   0  0  0  0  0  2  0  0  0  0  0  0
  186.4230  177.6510  147.0130 C   0  0  0  0  0  2  0  0  0  0  0  0
  188.3700  178.6270  141.9050 C   0  0  0  0  0  2  0  0  0  0  0  0
  186.0020  177.1280  145.6450 C   0  0  0  0  0  2  0  0  0  0  0  0
  1 18  1  1  0  0  0
  1  9  1  0  0  0  0
  2  6  1  1  0  0  0
  2 15  1  0  0  0  0
  3 26  1  1  0  0  0
  3  1  1  0  0  0  0
  4 17  1  0  0  0  0
  5 16  1  0  0  0  0
  8 19  1  0  0  0  0
  9 27  1  1  0  0  0
 11 23  1  0  0  0  0
 12 16  1  0  0  0  0
 12  8  2  0  0  0  0
 14 19  1  6  0  0  0
 14  3  1  0  0  0  0
 14  2  1  0  0  0  0
 15  9  1  0  0  0  0
 15 11  1  1  0  0  0
 16  4  2  0  0  0  0
 17 21  1  0  0  0  0
 18 24  1  0  0  0  0
 19 17  2  0  0  0  0
 20 10  1  1  0  0  0
 20 26  1  0  0  0  0
 20 22  1  0  0  0  0
 21  6  1  0  0  0  0
 22 13  1  6  0  0  0
 22 24  1  0  0  0  0
 23  7  1  0  0  0  0
 25  7  1  0  0  0  0
 27 25  1  0  0  0  0
M  END
>  <MODEL>
5

>  <REMARK>
 VINA RESULT:      -6.6      2.569      4.041
  Name = 
  0 active torsions:
  status: ('A' for Active; 'I' for Inactive)
                            x       y       z     vdW  Elec       q    Type
                         _______ _______ _______ _____ _____    ______ ____

>  <TORSDO>
F 0

$$$$
=
 OpenBabel11052413423D

 27 31  0  0  1  0  0  0  0  0999 V2000
  187.2530  177.0920  142.9110 C   0  0  2  0  0  3  0  0  0  0  0  0
  185.6730  179.2300  141.9350 C   0  0  2  0  0  3  0  0  0  0  0  0
  187.8600  177.8440  141.7090 C   0  0  1  0  0  3  0  0  0  0  0  0
  184.8390  177.6220  138.0510 C   0  0  0  0  0  3  0  0  0  0  0  0
  185.5160  177.0400  135.7790 N   0  0  0  0  0  1  0  0  0  0  0  0
  184.5130  178.2490  141.7570 C   0  0  0  0  0  2  0  0  0  0  0  0
  184.6540  178.9130  146.2500 O   0  0  0  0  0  0  0  0  0  0  0  0
  187.4850  178.2540  138.6910 C   0  0  0  0  0  3  0  0  0  0  0  0
  186.6590  178.0190  143.9910 C   0  0  1  0  0  3  0  0  0  0  0  0
  191.4630  178.1760  141.5630 O   0  0  0  0  0  1  0  0  0  0  0  0
  185.0420  180.1010  144.2250 C   0  0  0  0  0  2  0  0  0  0  0  0
  187.1640  177.8090  137.4060 C   0  0  0  0  0  3  0  0  0  0  0  0
  191.2960  175.7560  143.2360 F   0  0  0  0  0  0  0  0  0  0  0  0
  186.8800  178.8350  141.0550 C   0  0  1  0  0  3  0  0  0  0  0  0
  186.0940  179.3440  143.4030 C   0  0  2  0  0  3  0  0  0  0  0  0
  185.8430  177.4890  137.0890 C   0  0  0  0  0  0  0  0  0  0  0  0
  185.1530  178.0570  139.3440 C   0  0  0  0  0  0  0  0  0  0  0  0
  188.1940  176.0310  143.4950 C   0  0  0  0  0  2  0  0  0  0  0  0
  186.4890  178.3830  139.6680 C   0  0  0  0  0  0  0  0  0  0  0  0
  190.3060  177.5550  142.0290 C   0  0  1  0  0  3  0  0  0  0  0  0
  184.0300  178.2780  140.3140 C   0  0  0  0  0  2  0  0  0  0  0  0
  190.5820  176.9290  143.4000 C   0  0  1  0  0  3  0  0  0  0  0  0
  185.3050  180.0340  145.7220 C   0  0  0  0  0  2  0  0  0  0  0  0
  189.3480  176.6660  144.2670 C   0  0  0  0  0  2  0  0  0  0  0  0
  185.5880  177.8720  146.2390 C   0  0  0  0  0  2  0  0  0  0  0  0
  189.1630  178.5590  142.0460 C   0  0  0  0  0  2  0  0  0  0  0  0
  185.6680  177.2410  144.8540 C   0  0  0  0  0  2  0  0  0  0  0  0
  1 18  1  1  0  0  0
  1  9  1  0  0  0  0
  2  6  1  1  0  0  0
  2 15  1  0  0  0  0
  3 26  1  1  0  0  0
  3  1  1  0  0  0  0
  4 17  1  0  0  0  0
  5 16  1  0  0  0  0
  8 19  1  0  0  0  0
  9 27  1  6  0  0  0
 11 23  1  0  0  0  0
 12  8  2  0  0  0  0
 14 19  1  6  0  0  0
 14  3  1  0  0  0  0
 14  2  1  0  0  0  0
 15  9  1  0  0  0  0
 15 11  1  1  0  0  0
 16 12  1  0  0  0  0
 16  4  2  0  0  0  0
 17 19  2  0  0  0  0
 17 21  1  0  0  0  0
 18 24  1  0  0  0  0
 20 10  1  1  0  0  0
 20 26  1  0  0  0  0
 20 22  1  0  0  0  0
 21  6  1  0  0  0  0
 22 13  1  6  0  0  0
 22 24  1  0  0  0  0
 23  7  1  0  0  0  0
 25  7  1  0  0  0  0
 27 25  1  0  0  0  0
M  END
>  <MODEL>
6

>  <REMARK>
 VINA RESULT:      -5.9      2.916      4.620
  Name = 
  0 active torsions:
  status: ('A' for Active; 'I' for Inactive)
                            x       y       z     vdW  Elec       q    Type
                         _______ _______ _______ _____ _____    ______ ____

>  <TORSDO>
F 0

$$$$
=
 OpenBabel11052413423D

 27 31  0  0  1  0  0  0  0  0999 V2000
  186.8800  175.2590  137.1210 C   0  0  2  0  0  3  0  0  0  0  0  0
  188.3210  177.6720  137.4630 C   0  0  2  0  0  3  0  0  0  0  0  0
  186.0040  176.5250  137.2140 C   0  0  1  0  0  3  0  0  0  0  0  0
  186.8420  178.6980  141.3520 C   0  0  0  0  0  3  0  0  0  0  0  0
  185.0760  179.5030  142.8330 N   0  0  0  0  0  1  0  0  0  0  0  0
  188.9780  177.0680  138.7050 C   0  0  0  0  0  2  0  0  0  0  0  0
  191.0880  174.9740  135.2670 O   0  0  0  0  0  0  0  0  0  0  0  0
  185.0430  178.6440  139.2150 C   0  0  0  0  0  3  0  0  0  0  0  0
  188.1160  175.4220  136.2140 C   0  0  1  0  0  3  0  0  0  0  0  0
  182.9520  176.6180  135.2640 O   0  0  0  0  0  1  0  0  0  0  0  0
  190.1300  177.0880  135.7940 C   0  0  0  0  0  2  0  0  0  0  0  0
  184.6140  179.0570  140.4780 C   0  0  0  0  0  3  0  0  0  0  0  0
  183.2470  173.6960  135.5120 F   0  0  0  0  0  0  0  0  0  0  0  0
  186.7900  177.7790  137.6360 C   0  0  1  0  0  3  0  0  0  0  0  0
  188.6650  176.8780  136.2000 C   0  0  2  0  0  3  0  0  0  0  0  0
  185.5120  179.0780  141.5470 C   0  0  0  0  0  0  0  0  0  0  0  0
  187.2780  178.2730  140.0920 C   0  0  0  0  0  0  0  0  0  0  0  0
  186.0760  173.9920  136.8030 C   0  0  0  0  0  2  0  0  0  0  0  0
  186.3720  178.2510  139.0080 C   0  0  0  0  0  0  0  0  0  0  0  0
  183.9930  175.9270  135.8820 C   0  0  1  0  0  3  0  0  0  0  0  0
  188.7350  177.9670  139.9080 C   0  0  0  0  0  2  0  0  0  0  0  0
  184.2280  174.6010  135.1510 C   0  0  1  0  0  3  0  0  0  0  0  0
  190.5750  176.1410  134.6890 C   0  0  0  0  0  2  0  0  0  0  0  0
  185.6090  173.9720  135.3500 C   0  0  0  0  0  2  0  0  0  0  0  0
  190.0210  174.0700  135.3410 C   0  0  0  0  0  2  0  0  0  0  0  0
  185.2300  176.8130  135.9320 C   0  0  0  0  0  2  0  0  0  0  0  0
  189.1580  174.3620  136.5630 C   0  0  0  0  0  2  0  0  0  0  0  0
  1 18  1  6  0  0  0
  1  3  1  0  0  0  0
  2 14  1  0  0  0  0
  2  6  1  1  0  0  0
  3 26  1  6  0  0  0
  3 14  1  0  0  0  0
  4 16  1  0  0  0  0
  6 21  1  0  0  0  0
  7 25  1  0  0  0  0
  8 12  1  0  0  0  0
  9 27  1  1  0  0  0
  9  1  1  0  0  0  0
 12 16  2  0  0  0  0
 14 19  1  1  0  0  0
 15 11  1  1  0  0  0
 15  9  1  0  0  0  0
 15  2  1  0  0  0  0
 16  5  1  0  0  0  0
 17  4  2  0  0  0  0
 19  8  2  0  0  0  0
 19 17  1  0  0  0  0
 20 10  1  6  0  0  0
 20 26  1  0  0  0  0
 21 17  1  0  0  0  0
 22 24  1  0  0  0  0
 22 13  1  1  0  0  0
 22 20  1  0  0  0  0
 23  7  1  0  0  0  0
 23 11  1  0  0  0  0
 24 18  1  0  0  0  0
 25 27  1  0  0  0  0
M  END
>  <MODEL>
7

>  <REMARK>
 VINA RESULT:      -5.9      3.999      5.969
  Name = 
  0 active torsions:
  status: ('A' for Active; 'I' for Inactive)
                            x       y       z     vdW  Elec       q    Type
                         _______ _______ _______ _____ _____    ______ ____

>  <TORSDO>
F 0

$$$$
=
 OpenBabel11052413423D

 27 31  0  0  1  0  0  0  0  0999 V2000
  189.0960  174.8610  137.2460 C   0  0  2  0  0  3  0  0  0  0  0  0
  190.5650  177.0880  138.1930 C   0  0  2  0  0  3  0  0  0  0  0  0
  188.3200  176.1930  137.2410 C   0  0  1  0  0  3  0  0  0  0  0  0
  188.1880  177.9350  141.6570 C   0  0  0  0  0  3  0  0  0  0  0  0
  186.1560  178.7850  142.7090 N   0  0  0  0  0  1  0  0  0  0  0  0
  190.8250  176.3250  139.4930 C   0  0  0  0  0  2  0  0  0  0  0  0
  193.6120  174.3200  136.5150 O   0  0  0  0  0  0  0  0  0  0  0  0
  187.0190  178.2280  139.1350 C   0  0  0  0  0  3  0  0  0  0  0  0
  190.5360  174.9760  136.7090 C   0  0  1  0  0  3  0  0  0  0  0  0
  185.9080  176.7370  134.5940 O   0  0  0  0  0  1  0  0  0  0  0  0
  192.7040  176.4670  136.9940 C   0  0  0  0  0  2  0  0  0  0  0  0
  186.3020  178.5770  140.2820 C   0  0  0  0  0  3  0  0  0  0  0  0
  185.9150  173.7910  134.6060 F   0  0  0  0  0  0  0  0  0  0  0  0
  189.0550  177.3280  137.9780 C   0  0  1  0  0  3  0  0  0  0  0  0
  191.1730  176.3680  136.9860 C   0  0  2  0  0  3  0  0  0  0  0  0
  186.8850  178.4250  141.5420 C   0  0  0  0  0  0  0  0  0  0  0  0
  188.9100  177.5730  140.5140 C   0  0  0  0  0  0  0  0  0  0  0  0
  188.3160  173.7070  136.6040 C   0  0  0  0  0  2  0  0  0  0  0  0
  188.3240  177.7260  139.2380 C   0  0  0  0  0  0  0  0  0  0  0  0
  186.6960  175.9020  135.3840 C   0  0  1  0  0  3  0  0  0  0  0  0
  190.3380  177.1440  140.6800 C   0  0  0  0  0  2  0  0  0  0  0  0
  187.0190  174.6220  134.6050 C   0  0  1  0  0  3  0  0  0  0  0  0
  193.3570  175.5740  135.9490 C   0  0  0  0  0  2  0  0  0  0  0  0
  188.2490  173.8490  135.0860 C   0  0  0  0  0  2  0  0  0  0  0  0
  192.5020  173.5200  136.2200 C   0  0  0  0  0  2  0  0  0  0  0  0
  187.9360  176.6570  135.8400 C   0  0  0  0  0  2  0  0  0  0  0  0
  191.3700  173.7950  137.2020 C   0  0  0  0  0  2  0  0  0  0  0  0
  1 18  1  6  0  0  0
  2  6  1  1  0  0  0
  3 26  1  6  0  0  0
  3  1  1  0  0  0  0
  3 14  1  0  0  0  0
  6 21  1  0  0  0  0
  8 19  2  0  0  0  0
  8 12  1  0  0  0  0
  9 15  1  0  0  0  0
  9 27  1  1  0  0  0
  9  1  1  0  0  0  0
 12 16  2  0  0  0  0
 14  2  1  0  0  0  0
 14 19  1  1  0  0  0
 15 11  1  1  0  0  0
 15  2  1  0  0  0  0
 16  4  1  0  0  0  0
 16  5  1  0  0  0  0
 17 21  1  0  0  0  0
 17  4  2  0  0  0  0
 19 17  1  0  0  0  0
 20 10  1  6  0  0  0
 20 26  1  0  0  0  0
 22 13  1  1  0  0  0
 22 24  1  0  0  0  0
 22 20  1  0  0  0  0
 23  7  1  0  0  0  0
 23 11  1  0  0  0  0
 24 18  1  0  0  0  0
 25  7  1  0  0  0  0
 25 27  1  0  0  0  0
M  END
>  <MODEL>
8

>  <REMARK>
 VINA RESULT:      -5.8      3.499      5.466
  Name = 
  0 active torsions:
  status: ('A' for Active; 'I' for Inactive)
                            x       y       z     vdW  Elec       q    Type
                         _______ _______ _______ _____ _____    ______ ____

>  <TORSDO>
F 0

$$$$
=
 OpenBabel11052413423D

 27 31  0  0  1  0  0  0  0  0999 V2000
  187.2900  176.8590  144.2600 C   0  0  2  0  0  3  0  0  0  0  0  0
  185.8090  179.0220  145.3310 C   0  0  2  0  0  3  0  0  0  0  0  0
  186.9130  177.9500  143.2370 C   0  0  1  0  0  3  0  0  0  0  0  0
  182.1880  178.4100  143.1220 C   0  0  0  0  0  3  0  0  0  0  0  0
  180.8940  178.5030  141.0540 N   0  0  0  0  0  1  0  0  0  0  0  0
  184.7730  178.0190  145.8410 C   0  0  0  0  0  2  0  0  0  0  0  0
  188.2520  177.5020  148.7190 O   0  0  0  0  0  0  0  0  0  0  0  0
  184.5050  179.0950  141.7180 C   0  0  0  0  0  3  0  0  0  0  0  0
  187.8110  177.4140  145.6000 C   0  0  1  0  0  3  0  0  0  0  0  0
  189.2520  178.6400  140.5590 O   0  0  0  0  0  1  0  0  0  0  0  0
  187.1850  179.2060  147.4460 C   0  0  0  0  0  2  0  0  0  0  0  0
  183.2890  178.9710  141.0420 C   0  0  0  0  0  3  0  0  0  0  0  0
  190.0420  175.8640  141.1510 F   0  0  0  0  0  0  0  0  0  0  0  0
  185.9140  178.9830  143.7910 C   0  0  1  0  0  3  0  0  0  0  0  0
  187.1820  178.7890  145.9690 C   0  0  2  0  0  3  0  0  0  0  0  0
  182.1330  178.6240  141.7430 C   0  0  0  0  0  0  0  0  0  0  0  0
  183.4030  178.5200  143.8060 C   0  0  0  0  0  0  0  0  0  0  0  0
  188.2020  175.7740  143.6740 C   0  0  0  0  0  2  0  0  0  0  0  0
  184.5760  178.8730  143.1000 C   0  0  0  0  0  0  0  0  0  0  0  0
  188.7390  177.8150  141.5580 C   0  0  1  0  0  3  0  0  0  0  0  0
  183.3970  178.3770  145.2990 C   0  0  0  0  0  2  0  0  0  0  0  0
  189.8440  176.8820  142.0640 C   0  0  1  0  0  3  0  0  0  0  0  0
  188.4500  178.7760  148.1750 C   0  0  0  0  0  2  0  0  0  0  0  0
  189.6230  176.2900  143.4580 C   0  0  0  0  0  2  0  0  0  0  0  0
  188.7270  176.5900  147.7690 C   0  0  0  0  0  2  0  0  0  0  0  0
  188.1250  178.6710  142.6560 C   0  0  0  0  0  2  0  0  0  0  0  0
  187.6790  176.3510  146.6890 C   0  0  0  0  0  2  0  0  0  0  0  0
  1 18  1  6  0  0  0
  1  9  1  0  0  0  0
  2  6  1  1  0  0  0
  2 15  1  0  0  0  0
  3 26  1  1  0  0  0
  3 14  1  0  0  0  0
  3  1  1  0  0  0  0
  4 17  1  0  0  0  0
  5 16  1  0  0  0  0
  8 19  1  0  0  0  0
  9 15  1  0  0  0  0
  9 27  1  1  0  0  0
 11 23  1  0  0  0  0
 12  8  2  0  0  0  0
 12 16  1  0  0  0  0
 14 19  1  6  0  0  0
 14  2  1  0  0  0  0
 15 11  1  1  0  0  0
 16  4  2  0  0  0  0
 17 21  1  0  0  0  0
 19 17  2  0  0  0  0
 20 10  1  6  0  0  0
 20 22  1  0  0  0  0
 20 26  1  0  0  0  0
 21  6  1  0  0  0  0
 22 13  1  6  0  0  0
 22 24  1  0  0  0  0
 23  7  1  0  0  0  0
 24 18  1  0  0  0  0
 25  7  1  0  0  0  0
 27 25  1  0  0  0  0
M  END
>  <MODEL>
9

>  <REMARK>
 VINA RESULT:      -5.8      2.538      3.568
  Name = 
  0 active torsions:
  status: ('A' for Active; 'I' for Inactive)
                            x       y       z     vdW  Elec       q    Type
                         _______ _______ _______ _____ _____    ______ ____

>  <TORSDO>
F 0

$$$$
