=
 OpenBabel11052414003D

 34 38  0  0  1  0  0  0  0  0999 V2000
  180.7930  178.7590  138.4610 C   0  0  2  0  0  3  0  0  0  0  0  0
  179.6550  180.1090  140.4980 C   0  0  1  0  0  3  0  0  0  0  0  0
  181.3000  178.2230  140.9720 C   0  0  0  0  0  2  0  0  0  0  0  0
  183.0830  178.4380  142.7270 C   0  0  2  0  0  3  0  0  0  0  0  0
  180.9420  180.5250  140.1060 O   0  0  0  0  0  0  0  0  0  0  0  0
  180.7030  179.5490  142.9130 C   0  0  0  0  0  2  0  0  0  0  0  0
  180.6590  179.1450  139.9470 C   0  0  1  0  0  0  0  0  0  0  0  0
  183.6770  179.3740  139.5280 C   0  0  0  0  0  2  0  0  0  0  0  0
  182.0620  177.9720  138.1660 C   0  0  0  0  0  3  0  0  0  0  0  0
  179.5800  180.2110  142.0570 C   0  0  0  0  0  2  0  0  0  0  0  0
  184.0860  177.9230  141.6680 C   0  0  0  0  0  2  0  0  0  0  0  0
  184.6220  178.9940  140.6910 C   0  0  1  0  0  3  0  0  0  0  0  0
  181.8750  179.0880  142.0550 C   0  0  2  0  0  3  0  0  0  0  0  0
  183.3090  178.2260  138.6230 C   0  0  0  0  0  3  0  0  0  0  0  0
  187.6030  178.0480  138.4900 C   0  0  0  0  0  0  0  0  0  0  0  0
  188.7170  178.0980  139.4410 C   0  0  0  0  0  3  0  0  0  0  0  0
  186.0130  178.6810  140.2280 C   0  0  0  0  0  0  0  0  0  0  0  0
  188.4950  178.4040  140.7190 C   0  0  0  0  0  3  0  0  0  0  0  0
  186.2470  178.3630  138.9470 C   0  0  0  0  0  3  0  0  0  0  0  0
  187.1160  178.6980  141.2610 C   0  0  0  0  0  2  0  0  0  0  0  0
  187.8110  177.7430  137.2870 O   0  0  0  0  0  0  0  0  0  0  0  0
  180.6030  179.3390  136.3310 C   0  0  0  0  0  1  0  0  0  0  0  0
  180.7100  179.8720  137.6160 O   0  0  0  0  0  0  0  0  0  0  0  0
  183.7830  179.4100  143.6650 C   0  0  0  0  0  2  0  0  0  0  0  0
  183.6270  178.9580  145.1070 C   0  0  0  0  0  2  0  0  0  0  0  0
  184.9870  178.7920  145.7600 C   0  0  0  0  0  2  0  0  0  0  0  0
  186.0010  178.2780  144.7500 C   0  0  0  0  0  2  0  0  0  0  0  0
  187.8060  176.2380  143.3670 O   0  0  0  0  0  0  0  0  0  0  0  0
  186.8520  177.1760  145.3620 C   0  0  1  0  0  3  0  0  0  0  0  0
  188.0120  176.8390  144.4530 C   0  0  0  0  0  0  0  0  0  0  0  0
  189.6450  177.7270  146.0210 C   0  0  0  0  0  3  0  0  0  0  0  0
  188.5790  177.8880  147.0240 C   0  0  0  0  0  3  0  0  0  0  0  0
  187.3030  177.6170  146.7310 C   0  0  0  0  0  3  0  0  0  0  0  0
  189.3840  177.2250  144.8140 C   0  0  0  0  0  3  0  0  0  0  0  0
  1 23  1  6  0  0  0
  1  7  1  0  0  0  0
  2 10  1  1  0  0  0
  4 24  1  1  0  0  0
  5  2  1  0  0  0  0
  7  5  1  0  0  0  0
  7  2  1  0  0  0  0
  7  3  1  1  0  0  0
  8 12  1  0  0  0  0
  9  1  1  0  0  0  0
  9 14  2  0  0  0  0
 10  6  1  0  0  0  0
 11  4  1  0  0  0  0
 12 17  1  6  0  0  0
 12 11  1  0  0  0  0
 13  3  1  6  0  0  0
 13  4  1  0  0  0  0
 13  6  1  0  0  0  0
 14  8  1  0  0  0  0
 15 19  1  0  0  0  0
 15 16  1  0  0  0  0
 16 18  2  0  0  0  0
 17 20  1  0  0  0  0
 18 20  1  0  0  0  0
 19 17  2  0  0  0  0
 21 15  2  0  0  0  0
 22 23  1  0  0  0  0
 24 25  1  0  0  0  0
 25 26  1  0  0  0  0
 27 26  1  0  0  0  0
 28 30  2  0  0  0  0
 29 27  1  6  0  0  0
 29 33  1  0  0  0  0
 30 34  1  0  0  0  0
 30 29  1  0  0  0  0
 31 32  1  0  0  0  0
 33 32  2  0  0  0  0
 34 31  2  0  0  0  0
M  END
>  <MODEL>
1

>  <REMARK>
 VINA RESULT:      -8.9      0.000      0.000
  Name = 
  7 active torsions:
  status: ('A' for Active; 'I' for Inactive)
    1  A    between atoms: C_1  and  O_19
    2  A    between atoms: C_3  and  C_13
    3  A    between atoms: C_3  and  C_17
    4  A    between atoms: C_5  and  C_18
    5  A    between atoms: C_12  and  C_28
    6  A    between atoms: C_17  and  C_29
    7  A    between atoms: C_18  and  C_29
                            x       y       z     vdW  Elec       q    Type
                         _______ _______ _______ _____ _____    ______ ____

>  <TORSDO>
F 7

$$$$
=
 OpenBabel11052414003D

 34 38  0  0  1  0  0  0  0  0999 V2000
  188.9940  177.1040  146.6910 C   0  0  2  0  0  3  0  0  0  0  0  0
  191.1030  177.9480  145.2410 C   0  0  1  0  0  3  0  0  0  0  0  0
  189.2010  176.6800  144.1160 C   0  0  0  0  0  2  0  0  0  0  0  0
  188.2600  177.4050  141.9040 C   0  0  2  0  0  3  0  0  0  0  0  0
  189.9600  178.7690  145.2290 O   0  0  0  0  0  0  0  0  0  0  0  0
  190.7900  177.6790  142.5810 C   0  0  0  0  0  2  0  0  0  0  0  0
  189.7250  177.3780  145.3620 C   0  0  1  0  0  0  0  0  0  0  0  0
  186.9730  178.5830  144.8040 C   0  0  0  0  0  2  0  0  0  0  0  0
  187.5190  176.7780  146.4990 C   0  0  0  0  0  3  0  0  0  0  0  0
  191.7170  177.9700  143.8010 C   0  0  0  0  0  2  0  0  0  0  0  0
  186.8570  177.2750  142.5400 C   0  0  0  0  0  2  0  0  0  0  0  0
  186.3960  178.4930  143.3730 C   0  0  1  0  0  3  0  0  0  0  0  0
  189.3200  177.6500  142.9770 C   0  0  2  0  0  3  0  0  0  0  0  0
  186.6400  177.4070  145.6870 C   0  0  0  0  0  3  0  0  0  0  0  0
  182.7780  178.6970  142.1470 C   0  0  0  0  0  0  0  0  0  0  0  0
  182.0510  179.0050  143.3810 C   0  0  0  0  0  3  0  0  0  0  0  0
  184.9060  178.6610  143.3390 C   0  0  0  0  0  0  0  0  0  0  0  0
  182.7110  179.1510  144.5290 C   0  0  0  0  0  3  0  0  0  0  0  0
  184.2330  178.5250  142.1880 C   0  0  0  0  0  3  0  0  0  0  0  0
  184.2140  179.0280  144.6310 C   0  0  0  0  0  2  0  0  0  0  0  0
  182.1570  178.5730  141.0600 O   0  0  0  0  0  0  0  0  0  0  0  0
  188.3040  177.8240  148.6700 C   0  0  0  0  0  1  0  0  0  0  0  0
  189.1400  178.1560  147.6020 O   0  0  0  0  0  0  0  0  0  0  0  0
  188.2530  178.5210  140.8690 C   0  0  0  0  0  2  0  0  0  0  0  0
  188.0750  177.9470  139.4740 C   0  0  0  0  0  2  0  0  0  0  0  0
  189.3050  178.2230  138.6280 C   0  0  0  0  0  2  0  0  0  0  0  0
  189.7000  176.9810  137.8450 C   0  0  0  0  0  2  0  0  0  0  0  0
  190.2920  173.9990  137.5510 O   0  0  0  0  0  0  0  0  0  0  0  0
  190.6170  176.0950  138.6760 C   0  0  1  0  0  3  0  0  0  0  0  0
  191.0950  174.9180  137.8590 C   0  0  0  0  0  0  0  0  0  0  0  0
  193.3900  175.7220  137.8340 C   0  0  0  0  0  3  0  0  0  0  0  0
  193.0200  176.7750  138.7960 C   0  0  0  0  0  3  0  0  0  0  0  0
  191.7560  176.9340  139.1990 C   0  0  0  0  0  3  0  0  0  0  0  0
  192.4900  174.8410  137.3990 C   0  0  0  0  0  3  0  0  0  0  0  0
  1 23  1  1  0  0  0
  2 10  1  6  0  0  0
  2  7  1  0  0  0  0
  4 24  1  6  0  0  0
  4 11  1  0  0  0  0
  4 13  1  0  0  0  0
  5  2  1  0  0  0  0
  5  7  1  0  0  0  0
  6 10  1  0  0  0  0
  7  3  1  6  0  0  0
  7  1  1  0  0  0  0
  8 14  1  0  0  0  0
  9  1  1  0  0  0  0
 11 12  1  0  0  0  0
 12 17  1  1  0  0  0
 12  8  1  0  0  0  0
 13  6  1  6  0  0  0
 13  3  1  0  0  0  0
 14  9  2  0  0  0  0
 15 19  1  0  0  0  0
 15 16  1  0  0  0  0
 16 18  2  0  0  0  0
 17 20  1  0  0  0  0
 18 20  1  0  0  0  0
 19 17  2  0  0  0  0
 21 15  2  0  0  0  0
 23 22  1  0  0  0  0
 25 24  1  0  0  0  0
 26 25  1  0  0  0  0
 27 26  1  0  0  0  0
 28 30  2  0  0  0  0
 29 27  1  6  0  0  0
 29 33  1  0  0  0  0
 30 29  1  0  0  0  0
 31 32  1  0  0  0  0
 32 33  2  0  0  0  0
 34 31  2  0  0  0  0
 34 30  1  0  0  0  0
M  END
>  <MODEL>
2

>  <REMARK>
 VINA RESULT:      -8.9      2.601      8.554
  Name = 
  7 active torsions:
  status: ('A' for Active; 'I' for Inactive)
    1  A    between atoms: C_1  and  O_19
    2  A    between atoms: C_3  and  C_13
    3  A    between atoms: C_3  and  C_17
    4  A    between atoms: C_5  and  C_18
    5  A    between atoms: C_12  and  C_28
    6  A    between atoms: C_17  and  C_29
    7  A    between atoms: C_18  and  C_29
                            x       y       z     vdW  Elec       q    Type
                         _______ _______ _______ _____ _____    ______ ____

>  <TORSDO>
F 7

$$$$
=
 OpenBabel11052414003D

 34 38  0  0  1  0  0  0  0  0999 V2000
  183.6860  179.3550  143.5830 C   0  0  2  0  0  3  0  0  0  0  0  0
  183.5970  178.4640  141.0410 C   0  0  1  0  0  3  0  0  0  0  0  0
  185.7230  179.5330  141.9500 C   0  0  0  0  0  2  0  0  0  0  0  0
  187.9890  178.5560  141.4910 C   0  0  2  0  0  3  0  0  0  0  0  0
  184.1640  177.5970  141.9950 O   0  0  0  0  0  0  0  0  0  0  0  0
  185.9810  178.4570  139.7920 C   0  0  0  0  0  2  0  0  0  0  0  0
  184.3340  178.9830  142.2360 C   0  0  1  0  0  0  0  0  0  0  0  0
  186.2150  177.6130  144.2150 C   0  0  0  0  0  2  0  0  0  0  0  0
  184.7080  179.5970  144.6850 C   0  0  0  0  0  3  0  0  0  0  0  0
  184.4280  178.3270  139.7230 C   0  0  0  0  0  2  0  0  0  0  0  0
  188.2730  178.6870  143.0050 C   0  0  0  0  0  2  0  0  0  0  0  0
  187.7230  177.5380  143.8810 C   0  0  1  0  0  3  0  0  0  0  0  0
  186.4880  178.4620  141.2280 C   0  0  2  0  0  3  0  0  0  0  0  0
  185.8030  178.8550  144.9640 C   0  0  0  0  0  3  0  0  0  0  0  0
  190.7320  176.9060  146.1560 C   0  0  0  0  0  0  0  0  0  0  0  0
  190.1120  176.8600  147.4820 C   0  0  0  0  0  3  0  0  0  0  0  0
  188.5730  177.3040  145.0940 C   0  0  0  0  0  0  0  0  0  0  0  0
  188.7940  177.0090  147.6120 C   0  0  0  0  0  3  0  0  0  0  0  0
  189.8980  177.1430  144.9750 C   0  0  0  0  0  3  0  0  0  0  0  0
  187.8740  177.2160  146.4310 C   0  0  0  0  0  2  0  0  0  0  0  0
  191.9750  176.7490  146.0310 O   0  0  0  0  0  0  0  0  0  0  0  0
  181.5090  179.0320  143.8470 C   0  0  0  0  0  1  0  0  0  0  0  0
  182.7460  178.4050  143.9990 O   0  0  0  0  0  0  0  0  0  0  0  0
  188.7240  177.3450  140.9350 C   0  0  0  0  0  2  0  0  0  0  0  0
  190.2260  177.5420  141.0430 C   0  0  0  0  0  2  0  0  0  0  0  0
  190.9050  177.1710  139.7370 C   0  0  0  0  0  2  0  0  0  0  0  0
  189.8880  176.6220  138.7490 C   0  0  0  0  0  2  0  0  0  0  0  0
  190.2390  175.4910  135.9330 O   0  0  0  0  0  0  0  0  0  0  0  0
  189.9820  177.3580  137.4210 C   0  0  1  0  0  3  0  0  0  0  0  0
  189.5270  176.4660  136.2900 C   0  0  0  0  0  0  0  0  0  0  0  0
  187.5490  177.8170  135.8670 C   0  0  0  0  0  3  0  0  0  0  0  0
  188.0490  178.8250  136.8180 C   0  0  0  0  0  3  0  0  0  0  0  0
  189.1730  178.6270  137.5140 C   0  0  0  0  0  3  0  0  0  0  0  0
  188.2460  176.7100  135.6100 C   0  0  0  0  0  3  0  0  0  0  0  0
  1 23  1  1  0  0  0
  1  9  1  0  0  0  0
  2 10  1  6  0  0  0
  2  5  1  0  0  0  0
  2  7  1  0  0  0  0
  4 24  1  1  0  0  0
  4 11  1  0  0  0  0
  5  7  1  0  0  0  0
  7  3  1  6  0  0  0
  7  1  1  0  0  0  0
  8 14  1  0  0  0  0
  9 14  2  0  0  0  0
 10  6  1  0  0  0  0
 11 12  1  0  0  0  0
 12  8  1  0  0  0  0
 12 17  1  1  0  0  0
 13  6  1  6  0  0  0
 13  4  1  0  0  0  0
 13  3  1  0  0  0  0
 15 16  1  0  0  0  0
 16 18  2  0  0  0  0
 17 20  1  0  0  0  0
 19 17  2  0  0  0  0
 19 15  1  0  0  0  0
 20 18  1  0  0  0  0
 21 15  2  0  0  0  0
 22 23  1  0  0  0  0
 24 25  1  0  0  0  0
 26 25  1  0  0  0  0
 27 26  1  0  0  0  0
 28 30  2  0  0  0  0
 29 33  1  0  0  0  0
 29 27  1  1  0  0  0
 30 29  1  0  0  0  0
 31 32  1  0  0  0  0
 32 33  2  0  0  0  0
 34 31  2  0  0  0  0
 34 30  1  0  0  0  0
M  END
>  <MODEL>
3

>  <REMARK>
 VINA RESULT:      -8.8      2.488      7.126
  Name = 
  7 active torsions:
  status: ('A' for Active; 'I' for Inactive)
    1  A    between atoms: C_1  and  O_19
    2  A    between atoms: C_3  and  C_13
    3  A    between atoms: C_3  and  C_17
    4  A    between atoms: C_5  and  C_18
    5  A    between atoms: C_12  and  C_28
    6  A    between atoms: C_17  and  C_29
    7  A    between atoms: C_18  and  C_29
                            x       y       z     vdW  Elec       q    Type
                         _______ _______ _______ _____ _____    ______ ____

>  <TORSDO>
F 7

$$$$
=
 OpenBabel11052414003D

 34 38  0  0  1  0  0  0  0  0999 V2000
  189.0340  177.0910  146.7760 C   0  0  2  0  0  3  0  0  0  0  0  0
  191.1420  177.9420  145.3280 C   0  0  1  0  0  3  0  0  0  0  0  0
  189.2490  176.6610  144.2040 C   0  0  0  0  0  2  0  0  0  0  0  0
  188.3100  177.3730  141.9870 C   0  0  2  0  0  3  0  0  0  0  0  0
  189.9940  178.7570  145.3120 O   0  0  0  0  0  0  0  0  0  0  0  0
  190.8360  177.6640  142.6690 C   0  0  0  0  0  2  0  0  0  0  0  0
  189.7660  177.3650  145.4480 C   0  0  1  0  0  0  0  0  0  0  0  0
  187.0090  178.5530  144.8810 C   0  0  0  0  0  2  0  0  0  0  0  0
  187.5610  176.7570  146.5830 C   0  0  0  0  0  3  0  0  0  0  0  0
  191.7580  177.9640  143.8900 C   0  0  0  0  0  2  0  0  0  0  0  0
  186.9050  177.2380  142.6200 C   0  0  0  0  0  2  0  0  0  0  0  0
  186.4350  178.4560  143.4490 C   0  0  1  0  0  3  0  0  0  0  0  0
  189.3650  177.6280  143.0620 C   0  0  2  0  0  3  0  0  0  0  0  0
  186.6810  177.3780  145.7670 C   0  0  0  0  0  3  0  0  0  0  0  0
  182.8190  178.6300  142.2150 C   0  0  0  0  0  0  0  0  0  0  0  0
  182.0880  178.9440  143.4450 C   0  0  0  0  0  3  0  0  0  0  0  0
  184.9450  178.6150  143.4100 C   0  0  0  0  0  0  0  0  0  0  0  0
  182.7450  179.1030  144.5940 C   0  0  0  0  0  3  0  0  0  0  0  0
  184.2750  178.4670  142.2600 C   0  0  0  0  0  3  0  0  0  0  0  0
  184.2480  178.9890  144.6990 C   0  0  0  0  0  2  0  0  0  0  0  0
  182.2000  178.4950  141.1280 O   0  0  0  0  0  0  0  0  0  0  0  0
  188.2520  177.8710  148.6980 C   0  0  0  0  0  1  0  0  0  0  0  0
  189.1720  178.1470  147.6850 O   0  0  0  0  0  0  0  0  0  0  0  0
  188.2990  178.4860  140.9490 C   0  0  0  0  0  2  0  0  0  0  0  0
  188.1140  177.9080  139.5570 C   0  0  0  0  0  2  0  0  0  0  0  0
  189.3080  178.2420  138.6820 C   0  0  0  0  0  2  0  0  0  0  0  0
  190.4270  177.2360  138.9040 C   0  0  0  0  0  2  0  0  0  0  0  0
  193.3470  176.6820  138.2020 O   0  0  0  0  0  0  0  0  0  0  0  0
  191.0320  176.8080  137.5760 C   0  0  1  0  0  3  0  0  0  0  0  0
  192.3270  176.0630  137.8020 C   0  0  0  0  0  0  0  0  0  0  0  0
  191.3850  173.9610  137.0180 C   0  0  0  0  0  3  0  0  0  0  0  0
  190.1720  174.6780  136.5900 C   0  0  0  0  0  3  0  0  0  0  0  0
  190.0170  175.9840  136.8250 C   0  0  0  0  0  3  0  0  0  0  0  0
  192.4050  174.6110  137.5800 C   0  0  0  0  0  3  0  0  0  0  0  0
  1 23  1  1  0  0  0
  2 10  1  6  0  0  0
  2  7  1  0  0  0  0
  4 24  1  6  0  0  0
  4 11  1  0  0  0  0
  4 13  1  0  0  0  0
  5  2  1  0  0  0  0
  5  7  1  0  0  0  0
  6 10  1  0  0  0  0
  7  3  1  6  0  0  0
  7  1  1  0  0  0  0
  8 14  1  0  0  0  0
  9  1  1  0  0  0  0
 11 12  1  0  0  0  0
 12 17  1  1  0  0  0
 12  8  1  0  0  0  0
 13  6  1  6  0  0  0
 13  3  1  0  0  0  0
 14  9  2  0  0  0  0
 15 19  1  0  0  0  0
 15 16  1  0  0  0  0
 16 18  2  0  0  0  0
 17 20  1  0  0  0  0
 18 20  1  0  0  0  0
 19 17  2  0  0  0  0
 21 15  2  0  0  0  0
 23 22  1  0  0  0  0
 25 24  1  0  0  0  0
 26 27  1  0  0  0  0
 26 25  1  0  0  0  0
 29 30  1  0  0  0  0
 29 27  1  1  0  0  0
 30 28  2  0  0  0  0
 31 34  2  0  0  0  0
 32 33  2  0  0  0  0
 32 31  1  0  0  0  0
 33 29  1  0  0  0  0
 34 30  1  0  0  0  0
M  END
>  <MODEL>
4

>  <REMARK>
 VINA RESULT:      -8.6      2.713      8.764
  Name = 
  7 active torsions:
  status: ('A' for Active; 'I' for Inactive)
    1  A    between atoms: C_1  and  O_19
    2  A    between atoms: C_3  and  C_13
    3  A    between atoms: C_3  and  C_17
    4  A    between atoms: C_5  and  C_18
    5  A    between atoms: C_12  and  C_28
    6  A    between atoms: C_17  and  C_29
    7  A    between atoms: C_18  and  C_29
                            x       y       z     vdW  Elec       q    Type
                         _______ _______ _______ _____ _____    ______ ____

>  <TORSDO>
F 7

$$$$
=
 OpenBabel11052414003D

 34 38  0  0  1  0  0  0  0  0999 V2000
  188.9880  177.1600  146.7820 C   0  0  2  0  0  3  0  0  0  0  0  0
  191.1050  177.9650  145.3210 C   0  0  1  0  0  3  0  0  0  0  0  0
  189.2070  176.6690  144.2210 C   0  0  0  0  0  2  0  0  0  0  0  0
  188.2780  177.3370  141.9860 C   0  0  2  0  0  3  0  0  0  0  0  0
  189.9620  178.7860  145.2830 O   0  0  0  0  0  0  0  0  0  0  0  0
  190.8050  177.6270  142.6670 C   0  0  0  0  0  2  0  0  0  0  0  0
  189.7250  177.3990  145.4500 C   0  0  1  0  0  0  0  0  0  0  0  0
  186.9770  178.5910  144.8480 C   0  0  0  0  0  2  0  0  0  0  0  0
  187.5130  176.8310  146.5920 C   0  0  0  0  0  3  0  0  0  0  0  0
  191.7250  177.9490  143.8850 C   0  0  0  0  0  2  0  0  0  0  0  0
  186.8710  177.2250  142.6170 C   0  0  0  0  0  2  0  0  0  0  0  0
  186.4070  178.4640  143.4160 C   0  0  1  0  0  3  0  0  0  0  0  0
  189.3320  177.6090  143.0570 C   0  0  2  0  0  3  0  0  0  0  0  0
  186.6390  177.4390  145.7590 C   0  0  0  0  0  3  0  0  0  0  0  0
  182.7950  178.6280  142.1700 C   0  0  0  0  0  0  0  0  0  0  0  0
  182.0630  178.9800  143.3890 C   0  0  0  0  0  3  0  0  0  0  0  0
  184.9180  178.6320  143.3700 C   0  0  0  0  0  0  0  0  0  0  0  0
  182.7180  179.1650  144.5340 C   0  0  0  0  0  3  0  0  0  0  0  0
  184.2490  178.4570  142.2220 C   0  0  0  0  0  3  0  0  0  0  0  0
  184.2200  179.0450  144.6460 C   0  0  0  0  0  2  0  0  0  0  0  0
  182.1780  178.4680  141.0840 O   0  0  0  0  0  0  0  0  0  0  0  0
  188.3780  177.8800  148.7870 C   0  0  0  0  0  1  0  0  0  0  0  0
  189.1290  178.2350  147.6670 O   0  0  0  0  0  0  0  0  0  0  0  0
  188.2770  178.4250  140.9220 C   0  0  0  0  0  2  0  0  0  0  0  0
  187.1390  178.2050  139.9410 C   0  0  0  0  0  2  0  0  0  0  0  0
  187.6440  178.3080  138.5130 C   0  0  0  0  0  2  0  0  0  0  0  0
  189.1320  178.6180  138.4970 C   0  0  0  0  0  2  0  0  0  0  0  0
  190.5500  176.0020  139.1890 O   0  0  0  0  0  0  0  0  0  0  0  0
  189.8700  177.6530  137.5820 C   0  0  1  0  0  3  0  0  0  0  0  0
  189.8610  176.2600  138.1680 C   0  0  0  0  0  0  0  0  0  0  0  0
  188.4170  175.4060  136.4060 C   0  0  0  0  0  3  0  0  0  0  0  0
  188.5570  176.6840  135.6880 C   0  0  0  0  0  3  0  0  0  0  0  0
  189.2390  177.7060  136.2140 C   0  0  0  0  0  3  0  0  0  0  0  0
  189.0360  175.2000  137.5680 C   0  0  0  0  0  3  0  0  0  0  0  0
  1 23  1  1  0  0  0
  2 10  1  6  0  0  0
  2  7  1  0  0  0  0
  4 24  1  6  0  0  0
  4 11  1  0  0  0  0
  4 13  1  0  0  0  0
  5  2  1  0  0  0  0
  5  7  1  0  0  0  0
  6 10  1  0  0  0  0
  7  3  1  6  0  0  0
  7  1  1  0  0  0  0
  8 14  1  0  0  0  0
  9  1  1  0  0  0  0
 11 12  1  0  0  0  0
 12 17  1  1  0  0  0
 12  8  1  0  0  0  0
 13  6  1  6  0  0  0
 13  3  1  0  0  0  0
 14  9  2  0  0  0  0
 15 19  1  0  0  0  0
 15 16  1  0  0  0  0
 16 18  2  0  0  0  0
 17 20  1  0  0  0  0
 18 20  1  0  0  0  0
 19 17  2  0  0  0  0
 21 15  2  0  0  0  0
 23 22  1  0  0  0  0
 25 24  1  0  0  0  0
 26 25  1  0  0  0  0
 27 26  1  0  0  0  0
 29 30  1  0  0  0  0
 29 27  1  1  0  0  0
 30 28  2  0  0  0  0
 31 34  2  0  0  0  0
 32 33  2  0  0  0  0
 32 31  1  0  0  0  0
 33 29  1  0  0  0  0
 34 30  1  0  0  0  0
M  END
>  <MODEL>
5

>  <REMARK>
 VINA RESULT:      -8.4      2.473      8.610
  Name = 
  7 active torsions:
  status: ('A' for Active; 'I' for Inactive)
    1  A    between atoms: C_1  and  O_19
    2  A    between atoms: C_3  and  C_13
    3  A    between atoms: C_3  and  C_17
    4  A    between atoms: C_5  and  C_18
    5  A    between atoms: C_12  and  C_28
    6  A    between atoms: C_17  and  C_29
    7  A    between atoms: C_18  and  C_29
                            x       y       z     vdW  Elec       q    Type
                         _______ _______ _______ _____ _____    ______ ____

>  <TORSDO>
F 7

$$$$
=
 OpenBabel11052414003D

 34 38  0  0  1  0  0  0  0  0999 V2000
  188.9180  177.1340  146.8620 C   0  0  2  0  0  3  0  0  0  0  0  0
  191.0780  177.8570  145.4220 C   0  0  1  0  0  3  0  0  0  0  0  0
  189.1770  176.5700  144.3190 C   0  0  0  0  0  2  0  0  0  0  0  0
  188.3050  177.1930  142.0490 C   0  0  2  0  0  3  0  0  0  0  0  0
  189.9540  178.6990  145.3390 O   0  0  0  0  0  0  0  0  0  0  0  0
  190.8230  177.4530  142.7730 C   0  0  0  0  0  2  0  0  0  0  0  0
  189.6850  177.3220  145.5390 C   0  0  1  0  0  0  0  0  0  0  0  0
  186.9740  178.5520  144.8500 C   0  0  0  0  0  2  0  0  0  0  0  0
  187.4410  176.8300  146.6510 C   0  0  0  0  0  3  0  0  0  0  0  0
  191.7270  177.7890  143.9990 C   0  0  0  0  0  2  0  0  0  0  0  0
  186.8840  177.1270  142.6560 C   0  0  0  0  0  2  0  0  0  0  0  0
  186.4300  178.3970  143.4110 C   0  0  1  0  0  3  0  0  0  0  0  0
  189.3430  177.4740  143.1340 C   0  0  2  0  0  3  0  0  0  0  0  0
  186.5960  177.4320  145.7850 C   0  0  0  0  0  3  0  0  0  0  0  0
  182.8500  178.6260  142.0830 C   0  0  0  0  0  0  0  0  0  0  0  0
  182.0980  178.9950  143.2840 C   0  0  0  0  0  3  0  0  0  0  0  0
  184.9460  178.5930  143.3310 C   0  0  0  0  0  0  0  0  0  0  0  0
  182.7310  179.1720  144.4430 C   0  0  0  0  0  3  0  0  0  0  0  0
  184.2990  178.4270  142.1690 C   0  0  0  0  0  3  0  0  0  0  0  0
  184.2270  179.0230  144.5900 C   0  0  0  0  0  2  0  0  0  0  0  0
  182.2550  178.4740  140.9840 O   0  0  0  0  0  0  0  0  0  0  0  0
  188.3020  177.9110  148.8440 C   0  0  0  0  0  1  0  0  0  0  0  0
  189.0640  178.2310  147.7190 O   0  0  0  0  0  0  0  0  0  0  0  0
  188.3470  178.2520  140.9570 C   0  0  0  0  0  2  0  0  0  0  0  0
  189.2840  177.8240  139.8410 C   0  0  0  0  0  2  0  0  0  0  0  0
  188.8470  178.4310  138.5200 C   0  0  0  0  0  2  0  0  0  0  0  0
  187.9050  177.4880  137.7890 C   0  0  0  0  0  2  0  0  0  0  0  0
  186.7300  177.4370  134.9700 O   0  0  0  0  0  0  0  0  0  0  0  0
  186.7140  178.2500  137.2300 C   0  0  1  0  0  3  0  0  0  0  0  0
  186.1100  177.5030  136.0630 C   0  0  0  0  0  0  0  0  0  0  0  0
  184.0680  177.0110  137.2890 C   0  0  0  0  0  3  0  0  0  0  0  0
  184.5200  177.8950  138.3760 C   0  0  0  0  0  3  0  0  0  0  0  0
  185.7210  178.4810  138.3420 C   0  0  0  0  0  3  0  0  0  0  0  0
  184.8090  176.8310  136.1960 C   0  0  0  0  0  3  0  0  0  0  0  0
  1 23  1  1  0  0  0
  2 10  1  6  0  0  0
  2  7  1  0  0  0  0
  4 24  1  6  0  0  0
  4 11  1  0  0  0  0
  4 13  1  0  0  0  0
  5  2  1  0  0  0  0
  5  7  1  0  0  0  0
  6 10  1  0  0  0  0
  7  3  1  6  0  0  0
  7  1  1  0  0  0  0
  8 14  1  0  0  0  0
  9  1  1  0  0  0  0
 11 12  1  0  0  0  0
 12 17  1  1  0  0  0
 12  8  1  0  0  0  0
 13  6  1  6  0  0  0
 13  3  1  0  0  0  0
 14  9  2  0  0  0  0
 15 19  1  0  0  0  0
 15 16  1  0  0  0  0
 16 18  2  0  0  0  0
 17 20  1  0  0  0  0
 18 20  1  0  0  0  0
 19 17  2  0  0  0  0
 21 15  2  0  0  0  0
 23 22  1  0  0  0  0
 25 24  1  0  0  0  0
 26 25  1  0  0  0  0
 27 26  1  0  0  0  0
 28 30  2  0  0  0  0
 29 27  1  1  0  0  0
 29 33  1  0  0  0  0
 30 34  1  0  0  0  0
 30 29  1  0  0  0  0
 31 32  1  0  0  0  0
 33 32  2  0  0  0  0
 34 31  2  0  0  0  0
M  END
>  <MODEL>
6

>  <REMARK>
 VINA RESULT:      -8.4      2.099      8.744
  Name = 
  7 active torsions:
  status: ('A' for Active; 'I' for Inactive)
    1  A    between atoms: C_1  and  O_19
    2  A    between atoms: C_3  and  C_13
    3  A    between atoms: C_3  and  C_17
    4  A    between atoms: C_5  and  C_18
    5  A    between atoms: C_12  and  C_28
    6  A    between atoms: C_17  and  C_29
    7  A    between atoms: C_18  and  C_29
                            x       y       z     vdW  Elec       q    Type
                         _______ _______ _______ _____ _____    ______ ____

>  <TORSDO>
F 7

$$$$
=
 OpenBabel11052414003D

 34 38  0  0  1  0  0  0  0  0999 V2000
  191.4630  177.2480  145.9190 C   0  0  2  0  0  3  0  0  0  0  0  0
  189.3530  176.6840  147.4980 C   0  0  1  0  0  3  0  0  0  0  0  0
  189.1390  178.4220  145.6490 C   0  0  0  0  0  2  0  0  0  0  0  0
  187.1250  178.5150  144.1530 C   0  0  2  0  0  3  0  0  0  0  0  0
  189.4050  176.0260  146.2550 O   0  0  0  0  0  0  0  0  0  0  0  0
  187.0380  177.7900  146.6830 C   0  0  0  0  0  2  0  0  0  0  0  0
  189.9700  177.3250  146.2950 C   0  0  1  0  0  0  0  0  0  0  0  0
  189.8150  176.6360  143.3220 C   0  0  0  0  0  2  0  0  0  0  0  0
  191.7470  177.7650  144.5150 C   0  0  0  0  0  3  0  0  0  0  0  0
  187.8570  177.0440  147.7820 C   0  0  0  0  0  2  0  0  0  0  0  0
  188.1040  178.5830  142.9580 C   0  0  0  0  0  2  0  0  0  0  0  0
  188.6580  177.2220  142.4810 C   0  0  1  0  0  3  0  0  0  0  0  0
  187.7850  177.8450  145.3560 C   0  0  2  0  0  3  0  0  0  0  0  0
  191.0420  177.5090  143.3910 C   0  0  0  0  0  3  0  0  0  0  0  0
  190.2270  176.4510  139.0790 C   0  0  0  0  0  0  0  0  0  0  0  0
  189.4460  177.3030  138.1790 C   0  0  0  0  0  3  0  0  0  0  0  0
  188.9560  177.2240  141.0120 C   0  0  0  0  0  0  0  0  0  0  0  0
  188.4840  178.0870  138.6640 C   0  0  0  0  0  3  0  0  0  0  0  0
  189.9260  176.4470  140.5130 C   0  0  0  0  0  3  0  0  0  0  0  0
  188.1530  178.1600  140.1370 C   0  0  0  0  0  2  0  0  0  0  0  0
  191.1460  175.7220  138.6230 O   0  0  0  0  0  0  0  0  0  0  0  0
  192.4720  175.9180  147.3760 C   0  0  0  0  0  1  0  0  0  0  0  0
  191.9820  175.9570  146.0710 O   0  0  0  0  0  0  0  0  0  0  0  0
  185.8590  177.7800  143.7360 C   0  0  0  0  0  2  0  0  0  0  0  0
  184.6300  178.5890  144.1120 C   0  0  0  0  0  2  0  0  0  0  0  0
  183.6810  178.6880  142.9320 C   0  0  0  0  0  2  0  0  0  0  0  0
  184.4270  178.4470  141.6290 C   0  0  0  0  0  2  0  0  0  0  0  0
  184.6730  180.1500  139.1050 O   0  0  0  0  0  0  0  0  0  0  0  0
  183.4800  178.5520  140.4430 C   0  0  1  0  0  3  0  0  0  0  0  0
  184.2330  178.9750  139.2030 C   0  0  0  0  0  0  0  0  0  0  0  0
  183.8950  176.8200  138.1260 C   0  0  0  0  0  3  0  0  0  0  0  0
  182.9860  176.4300  139.2160 C   0  0  0  0  0  3  0  0  0  0  0  0
  182.7770  177.2290  140.2670 C   0  0  0  0  0  3  0  0  0  0  0  0
  184.4760  178.0200  138.1120 C   0  0  0  0  0  3  0  0  0  0  0  0
  1 23  1  6  0  0  0
  1  7  1  0  0  0  0
  2 10  1  6  0  0  0
  4 24  1  6  0  0  0
  4 13  1  0  0  0  0
  5  7  1  0  0  0  0
  5  2  1  0  0  0  0
  6 10  1  0  0  0  0
  7  3  1  6  0  0  0
  7  2  1  0  0  0  0
  8 14  1  0  0  0  0
  9  1  1  0  0  0  0
 11  4  1  0  0  0  0
 12 17  1  6  0  0  0
 12 11  1  0  0  0  0
 12  8  1  0  0  0  0
 13  3  1  1  0  0  0
 13  6  1  0  0  0  0
 14  9  2  0  0  0  0
 15 19  1  0  0  0  0
 16 18  2  0  0  0  0
 16 15  1  0  0  0  0
 18 20  1  0  0  0  0
 19 17  2  0  0  0  0
 20 17  1  0  0  0  0
 21 15  2  0  0  0  0
 23 22  1  0  0  0  0
 24 25  1  0  0  0  0
 26 25  1  0  0  0  0
 27 26  1  0  0  0  0
 28 30  2  0  0  0  0
 29 27  1  1  0  0  0
 30 29  1  0  0  0  0
 31 32  1  0  0  0  0
 32 33  2  0  0  0  0
 33 29  1  0  0  0  0
 34 31  2  0  0  0  0
 34 30  1  0  0  0  0
M  END
>  <MODEL>
7

>  <REMARK>
 VINA RESULT:      -8.3      2.362      8.151
  Name = 
  7 active torsions:
  status: ('A' for Active; 'I' for Inactive)
    1  A    between atoms: C_1  and  O_19
    2  A    between atoms: C_3  and  C_13
    3  A    between atoms: C_3  and  C_17
    4  A    between atoms: C_5  and  C_18
    5  A    between atoms: C_12  and  C_28
    6  A    between atoms: C_17  and  C_29
    7  A    between atoms: C_18  and  C_29
                            x       y       z     vdW  Elec       q    Type
                         _______ _______ _______ _____ _____    ______ ____

>  <TORSDO>
F 7

$$$$
=
 OpenBabel11052414003D

 34 38  0  0  1  0  0  0  0  0999 V2000
  181.4800  178.1150  138.7560 C   0  0  2  0  0  3  0  0  0  0  0  0
  180.2710  179.6680  140.5970 C   0  0  1  0  0  3  0  0  0  0  0  0
  181.9930  177.9350  141.3160 C   0  0  0  0  0  2  0  0  0  0  0  0
  183.7540  178.4570  143.0280 C   0  0  2  0  0  3  0  0  0  0  0  0
  181.5400  180.0850  140.1540 O   0  0  0  0  0  0  0  0  0  0  0  0
  181.3260  179.4760  143.0650 C   0  0  0  0  0  2  0  0  0  0  0  0
  181.3190  178.6860  140.1780 C   0  0  1  0  0  0  0  0  0  0  0  0
  184.3270  178.9910  139.7350 C   0  0  0  0  0  2  0  0  0  0  0  0
  182.7840  177.3520  138.5680 C   0  0  0  0  0  3  0  0  0  0  0  0
  180.1800  179.9710  142.1290 C   0  0  0  0  0  2  0  0  0  0  0  0
  184.7850  177.8530  142.0470 C   0  0  0  0  0  2  0  0  0  0  0  0
  185.2800  178.8090  140.9390 C   0  0  1  0  0  3  0  0  0  0  0  0
  182.5220  178.9600  142.2770 C   0  0  2  0  0  3  0  0  0  0  0  0
  184.0150  177.7190  138.9880 C   0  0  0  0  0  3  0  0  0  0  0  0
  189.0170  178.0010  141.0380 C   0  0  0  0  0  0  0  0  0  0  0  0
  189.3520  177.9140  139.6150 C   0  0  0  0  0  3  0  0  0  0  0  0
  186.6860  178.5000  140.5210 C   0  0  0  0  0  0  0  0  0  0  0  0
  188.4150  178.1250  138.6910 C   0  0  0  0  0  3  0  0  0  0  0  0
  187.6390  178.2950  141.4410 C   0  0  0  0  0  3  0  0  0  0  0  0
  186.9870  178.4730  139.0400 C   0  0  0  0  0  2  0  0  0  0  0  0
  189.9050  177.8170  141.9110 O   0  0  0  0  0  0  0  0  0  0  0  0
  180.3940  178.6070  136.8880 C   0  0  0  0  0  1  0  0  0  0  0  0
  181.3540  179.1020  137.7710 O   0  0  0  0  0  0  0  0  0  0  0  0
  184.4040  179.5740  143.8320 C   0  0  0  0  0  2  0  0  0  0  0  0
  184.9190  179.0410  145.1570 C   0  0  0  0  0  2  0  0  0  0  0  0
  185.9010  177.9080  144.9260 C   0  0  0  0  0  2  0  0  0  0  0  0
  186.5770  177.5170  146.2310 C   0  0  0  0  0  2  0  0  0  0  0  0
  188.0470  178.2970  148.7930 O   0  0  0  0  0  0  0  0  0  0  0  0
  187.8920  178.2620  146.3960 C   0  0  1  0  0  3  0  0  0  0  0  0
  188.5450  177.8960  147.7090 C   0  0  0  0  0  0  0  0  0  0  0  0
  190.3800  176.7430  146.6040 C   0  0  0  0  0  3  0  0  0  0  0  0
  189.8990  177.2450  145.3060 C   0  0  0  0  0  3  0  0  0  0  0  0
  188.7730  177.9580  145.2100 C   0  0  0  0  0  3  0  0  0  0  0  0
  189.7510  177.0550  147.7380 C   0  0  0  0  0  3  0  0  0  0  0  0
  1 23  1  6  0  0  0
  1  7  1  0  0  0  0
  2 10  1  1  0  0  0
  4 24  1  6  0  0  0
  5  7  1  0  0  0  0
  5  2  1  0  0  0  0
  7  2  1  0  0  0  0
  7  3  1  1  0  0  0
  8 12  1  0  0  0  0
  9  1  1  0  0  0  0
  9 14  2  0  0  0  0
 10  6  1  0  0  0  0
 11  4  1  0  0  0  0
 12 17  1  6  0  0  0
 12 11  1  0  0  0  0
 13  3  1  1  0  0  0
 13  4  1  0  0  0  0
 13  6  1  0  0  0  0
 14  8  1  0  0  0  0
 15 19  1  0  0  0  0
 15 21  2  0  0  0  0
 16 15  1  0  0  0  0
 17 19  2  0  0  0  0
 18 20  1  0  0  0  0
 18 16  2  0  0  0  0
 20 17  1  0  0  0  0
 22 23  1  0  0  0  0
 24 25  1  0  0  0  0
 26 25  1  0  0  0  0
 26 27  1  0  0  0  0
 29 27  1  6  0  0  0
 29 30  1  0  0  0  0
 30 34  1  0  0  0  0
 30 28  2  0  0  0  0
 31 34  2  0  0  0  0
 32 31  1  0  0  0  0
 33 32  2  0  0  0  0
 33 29  1  0  0  0  0
M  END
>  <MODEL>
8

>  <REMARK>
 VINA RESULT:      -8.2      1.393      2.033
  Name = 
  7 active torsions:
  status: ('A' for Active; 'I' for Inactive)
    1  A    between atoms: C_1  and  O_19
    2  A    between atoms: C_3  and  C_13
    3  A    between atoms: C_3  and  C_17
    4  A    between atoms: C_5  and  C_18
    5  A    between atoms: C_12  and  C_28
    6  A    between atoms: C_17  and  C_29
    7  A    between atoms: C_18  and  C_29
                            x       y       z     vdW  Elec       q    Type
                         _______ _______ _______ _____ _____    ______ ____

>  <TORSDO>
F 7

$$$$
=
 OpenBabel11052414003D

 34 38  0  0  1  0  0  0  0  0999 V2000
  181.1250  178.8060  140.9030 C   0  0  2  0  0  3  0  0  0  0  0  0
  182.0330  177.7050  138.6160 C   0  0  1  0  0  3  0  0  0  0  0  0
  183.4720  179.3740  139.8930 C   0  0  0  0  0  2  0  0  0  0  0  0
  185.9290  178.9970  140.2470 C   0  0  2  0  0  3  0  0  0  0  0  0
  182.4580  177.1060  139.8180 O   0  0  0  0  0  0  0  0  0  0  0  0
  184.6230  178.2210  138.0960 C   0  0  0  0  0  2  0  0  0  0  0  0
  182.2260  178.5030  139.8670 C   0  0  1  0  0  0  0  0  0  0  0  0
  183.6610  177.8590  142.4870 C   0  0  0  0  0  2  0  0  0  0  0  0
  181.6730  179.4050  142.1910 C   0  0  0  0  0  3  0  0  0  0  0  0
  183.2400  177.6780  137.6210 C   0  0  0  0  0  2  0  0  0  0  0  0
  185.6920  179.3300  141.7380 C   0  0  0  0  0  2  0  0  0  0  0  0
  185.1730  178.1580  142.6010 C   0  0  1  0  0  3  0  0  0  0  0  0
  184.6450  178.4860  139.5960 C   0  0  2  0  0  3  0  0  0  0  0  0
  182.7660  179.0070  142.8800 C   0  0  0  0  0  3  0  0  0  0  0  0
  187.2770  177.8610  145.7820 C   0  0  0  0  0  0  0  0  0  0  0  0
  186.4280  178.5190  146.7770 C   0  0  0  0  0  3  0  0  0  0  0  0
  185.6350  178.2640  144.0240 C   0  0  0  0  0  0  0  0  0  0  0  0
  185.2400  179.0090  146.4240 C   0  0  0  0  0  3  0  0  0  0  0  0
  186.8240  177.7670  144.3910 C   0  0  0  0  0  3  0  0  0  0  0  0
  184.6970  178.9080  145.0180 C   0  0  0  0  0  2  0  0  0  0  0  0
  188.3930  177.3840  146.1170 O   0  0  0  0  0  0  0  0  0  0  0  0
  179.2400  178.1770  141.8840 C   0  0  0  0  0  1  0  0  0  0  0  0
  180.3450  177.6800  141.1910 O   0  0  0  0  0  0  0  0  0  0  0  0
  187.0550  177.9810  140.1210 C   0  0  0  0  0  2  0  0  0  0  0  0
  188.3340  178.5320  140.7250 C   0  0  0  0  0  2  0  0  0  0  0  0
  189.5350  177.7460  140.2290 C   0  0  0  0  0  2  0  0  0  0  0  0
  190.6240  177.7160  141.2900 C   0  0  0  0  0  2  0  0  0  0  0  0
  189.7270  175.2460  142.8470 O   0  0  0  0  0  0  0  0  0  0  0  0
  190.0140  177.6250  142.6800 C   0  0  1  0  0  3  0  0  0  0  0  0
  190.3000  176.2740  143.2940 C   0  0  0  0  0  0  0  0  0  0  0  0
  191.7660  177.2270  144.9850 C   0  0  0  0  0  3  0  0  0  0  0  0
  191.3640  178.5780  144.5570 C   0  0  0  0  0  3  0  0  0  0  0  0
  190.5450  178.7620  143.5170 C   0  0  0  0  0  3  0  0  0  0  0  0
  191.2610  176.1410  144.4000 C   0  0  0  0  0  3  0  0  0  0  0  0
  1 23  1  1  0  0  0
  1  9  1  0  0  0  0
  2 10  1  6  0  0  0
  2  5  1  0  0  0  0
  2  7  1  0  0  0  0
  4 24  1  1  0  0  0
  4 11  1  0  0  0  0
  5  7  1  0  0  0  0
  7  3  1  1  0  0  0
  7  1  1  0  0  0  0
  8 12  1  0  0  0  0
  8 14  1  0  0  0  0
  9 14  2  0  0  0  0
 10  6  1  0  0  0  0
 11 12  1  0  0  0  0
 12 17  1  1  0  0  0
 13  6  1  6  0  0  0
 13  3  1  0  0  0  0
 13  4  1  0  0  0  0
 15 21  2  0  0  0  0
 15 16  1  0  0  0  0
 17 19  2  0  0  0  0
 17 20  1  0  0  0  0
 18 16  2  0  0  0  0
 19 15  1  0  0  0  0
 20 18  1  0  0  0  0
 23 22  1  0  0  0  0
 24 25  1  0  0  0  0
 26 25  1  0  0  0  0
 26 27  1  0  0  0  0
 28 30  2  0  0  0  0
 29 27  1  6  0  0  0
 29 30  1  0  0  0  0
 29 33  1  0  0  0  0
 30 34  1  0  0  0  0
 32 31  1  0  0  0  0
 33 32  2  0  0  0  0
 34 31  2  0  0  0  0
M  END
>  <MODEL>
9

>  <REMARK>
 VINA RESULT:      -8.1      1.910      4.826
  Name = 
  7 active torsions:
  status: ('A' for Active; 'I' for Inactive)
    1  A    between atoms: C_1  and  O_19
    2  A    between atoms: C_3  and  C_13
    3  A    between atoms: C_3  and  C_17
    4  A    between atoms: C_5  and  C_18
    5  A    between atoms: C_12  and  C_28
    6  A    between atoms: C_17  and  C_29
    7  A    between atoms: C_18  and  C_29
                            x       y       z     vdW  Elec       q    Type
                         _______ _______ _______ _____ _____    ______ ____

>  <TORSDO>
F 7

$$$$
