=
 OpenBabel11052412393D

 25 28  0  0  1  0  0  0  0  0999 V2000
  187.1150  177.8670  145.3520 C   0  0  0  0  0  0  0  0  0  0  0  0
  188.3800  177.4250  144.9200 C   0  0  0  0  0  0  0  0  0  0  0  0
  187.8630  177.8070  147.6570 C   0  0  0  0  0  3  0  0  0  0  0  0
  185.9770  178.1700  144.5800 C   0  0  0  0  0  0  0  0  0  0  0  0
  190.4940  176.8270  141.9210 C   0  0  0  0  0  0  0  0  0  0  0  0
  183.5390  178.8610  143.3980 C   0  0  0  0  0  3  0  0  0  0  0  0
  189.0830  177.3780  147.2310 N   0  0  0  0  0  0  0  0  0  0  0  0
  184.8930  178.5800  145.3560 C   0  0  0  0  0  0  0  0  0  0  0  0
  183.6690  178.9300  144.7920 C   0  0  0  0  0  3  0  0  0  0  0  0
  190.7230  176.7330  145.5180 C   0  0  0  0  0  0  0  0  0  0  0  0
  191.9280  176.3700  146.7410 Cl  0  0  0  0  0  0  0  0  0  0  0  0
  190.8730  176.7420  140.6750 C   0  0  0  0  0  3  0  0  0  0  0  0
  188.6590  177.1610  143.4600 C   0  0  0  0  0  2  0  0  0  0  0  0
  184.6230  178.4500  142.6000 C   0  0  0  0  0  3  0  0  0  0  0  0
  186.8790  178.0520  146.7110 C   0  0  0  0  0  0  0  0  0  0  0  0
  185.3020  178.5800  146.9900 S   0  0  0  0  0  0  0  0  0  0  0  0
  191.0660  176.6210  144.2360 C   0  0  0  0  0  3  0  0  0  0  0  0
  185.8490  178.1020  143.1890 C   0  0  0  0  0  3  0  0  0  0  0  0
  190.1080  176.9130  143.1620 C   0  0  0  0  0  0  0  0  0  0  0  0
  189.3700  177.1810  145.9080 C   0  0  0  0  0  0  0  0  0  0  0  0
  190.1720  177.5140  139.6060 C   0  0  2  0  0  3  0  0  0  0  0  0
  188.7270  177.7910  139.9910 C   0  0  0  0  0  1  0  0  0  0  0  0
  190.2330  176.7790  138.3070 C   0  0  0  0  0  0  0  0  0  0  0  0
  190.4950  175.4160  138.3030 O   0  0  0  0  0  1  0  0  0  0  0  0
  190.0450  177.3820  137.2160 O   0  0  0  0  0  0  0  0  0  0  0  0
  1 15  1  0  0  0  0
  2  1  2  0  0  0  0
  2 20  1  0  0  0  0
  4  1  1  0  0  0  0
  4  8  1  0  0  0  0
  5 19  2  0  0  0  0
  6  9  1  0  0  0  0
  7  3  1  0  0  0  0
  8 16  1  0  0  0  0
  9  8  2  0  0  0  0
 10 20  1  0  0  0  0
 10 11  1  0  0  0  0
 12  5  2  0  0  0  0
 13  2  1  0  0  0  0
 14 18  1  0  0  0  0
 14  6  2  0  0  0  0
 15 16  1  0  0  0  0
 15  3  2  0  0  0  0
 17 10  2  0  0  0  0
 18  4  2  0  0  0  0
 19 13  1  0  0  0  0
 19 17  1  0  0  0  0
 20  7  2  0  0  0  0
 21 22  1  1  0  0  0
 21 12  1  0  0  0  0
 23 21  1  0  0  0  0
 24 23  1  0  0  0  0
 25 23  2  0  0  0  0
M  END
>  <MODEL>
1

>  <REMARK>
 VINA RESULT:     -10.8      0.000      0.000
  Name = 
  2 active torsions:
  status: ('A' for Active; 'I' for Inactive)
    1  A    between atoms: C_2  and  C_21
    2  A    between atoms: C_15  and  C_21
                            x       y       z     vdW  Elec       q    Type
                         _______ _______ _______ _____ _____    ______ ____

>  <TORSDO>
F 2

$$$$
=
 OpenBabel11052412393D

 25 28  0  0  1  0  0  0  0  0999 V2000
  189.3240  177.4630  144.0070 C   0  0  0  0  0  0  0  0  0  0  0  0
  188.3180  177.7860  144.9390 C   0  0  0  0  0  0  0  0  0  0  0  0
  190.8540  176.9440  145.8140 C   0  0  0  0  0  3  0  0  0  0  0  0
  189.2650  177.4980  142.6010 C   0  0  0  0  0  0  0  0  0  0  0  0
  184.7210  178.6470  145.3040 C   0  0  0  0  0  0  0  0  0  0  0  0
  189.5300  177.4380  139.8180 C   0  0  0  0  0  3  0  0  0  0  0  0
  189.8780  177.2590  146.7070 N   0  0  0  0  0  0  0  0  0  0  0  0
  190.4630  177.1100  142.0020 C   0  0  0  0  0  0  0  0  0  0  0  0
  190.6210  177.0710  140.6180 C   0  0  0  0  0  3  0  0  0  0  0  0
  187.6160  177.9790  147.3460 C   0  0  0  0  0  0  0  0  0  0  0  0
  188.0220  177.9010  149.0510 Cl  0  0  0  0  0  0  0  0  0  0  0  0
  183.4810  178.9220  145.0040 C   0  0  0  0  0  3  0  0  0  0  0  0
  186.9700  178.2930  144.4890 C   0  0  0  0  0  2  0  0  0  0  0  0
  188.3140  177.8320  140.4060 C   0  0  0  0  0  3  0  0  0  0  0  0
  190.5720  177.0460  144.4590 C   0  0  0  0  0  0  0  0  0  0  0  0
  191.6090  176.7190  143.1710 S   0  0  0  0  0  0  0  0  0  0  0  0
  186.3680  178.2920  147.0040 C   0  0  0  0  0  3  0  0  0  0  0  0
  188.1760  177.8630  141.8030 C   0  0  0  0  0  3  0  0  0  0  0  0
  185.9600  178.3720  145.5960 C   0  0  0  0  0  0  0  0  0  0  0  0
  188.6330  177.6720  146.3180 C   0  0  0  0  0  0  0  0  0  0  0  0
  182.8950  178.4960  143.6980 C   0  0  2  0  0  3  0  0  0  0  0  0
  183.7590  178.9610  142.5350 C   0  0  0  0  0  1  0  0  0  0  0  0
  181.5040  179.0210  143.5540 C   0  0  0  0  0  0  0  0  0  0  0  0
  180.4720  178.4320  144.2710 O   0  0  0  0  0  1  0  0  0  0  0  0
  181.2590  179.9940  142.7920 O   0  0  0  0  0  0  0  0  0  0  0  0
  1 15  1  0  0  0  0
  1  2  2  0  0  0  0
  2 20  1  0  0  0  0
  3  7  1  0  0  0  0
  4  1  1  0  0  0  0
  5 19  2  0  0  0  0
  6 14  2  0  0  0  0
  6  9  1  0  0  0  0
  8  4  1  0  0  0  0
  8 16  1  0  0  0  0
  9  8  2  0  0  0  0
 10 11  1  0  0  0  0
 12  5  2  0  0  0  0
 13  2  1  0  0  0  0
 13 19  1  0  0  0  0
 14 18  1  0  0  0  0
 15  3  2  0  0  0  0
 16 15  1  0  0  0  0
 17 10  2  0  0  0  0
 18  4  2  0  0  0  0
 19 17  1  0  0  0  0
 20  7  2  0  0  0  0
 20 10  1  0  0  0  0
 21 22  1  6  0  0  0
 21 12  1  0  0  0  0
 23 21  1  0  0  0  0
 23 24  1  0  0  0  0
 25 23  2  0  0  0  0
M  END
>  <MODEL>
2

>  <REMARK>
 VINA RESULT:     -10.3      3.773      6.338
  Name = 
  2 active torsions:
  status: ('A' for Active; 'I' for Inactive)
    1  A    between atoms: C_2  and  C_21
    2  A    between atoms: C_15  and  C_21
                            x       y       z     vdW  Elec       q    Type
                         _______ _______ _______ _____ _____    ______ ____

>  <TORSDO>
F 2

$$$$
=
 OpenBabel11052412393D

 25 28  0  0  1  0  0  0  0  0999 V2000
  186.7960  177.8590  144.7870 C   0  0  0  0  0  0  0  0  0  0  0  0
  187.8990  177.4320  144.0220 C   0  0  0  0  0  0  0  0  0  0  0  0
  188.0950  177.6220  146.8200 C   0  0  0  0  0  3  0  0  0  0  0  0
  185.5120  178.2320  144.3480 C   0  0  0  0  0  0  0  0  0  0  0  0
  189.1760  177.0240  140.5540 C   0  0  0  0  0  0  0  0  0  0  0  0
  182.8780  179.0400  143.8660 C   0  0  0  0  0  3  0  0  0  0  0  0
  189.1550  177.2090  146.0730 N   0  0  0  0  0  0  0  0  0  0  0  0
  184.6700  178.6000  145.3980 C   0  0  0  0  0  0  0  0  0  0  0  0
  183.3550  179.0060  145.1850 C   0  0  0  0  0  3  0  0  0  0  0  0
  190.2940  176.6670  143.9640 C   0  0  0  0  0  0  0  0  0  0  0  0
  191.7540  176.2010  144.8170 Cl  0  0  0  0  0  0  0  0  0  0  0  0
  189.2280  177.0250  139.2510 C   0  0  0  0  0  3  0  0  0  0  0  0
  187.7950  177.2710  142.5250 C   0  0  0  0  0  2  0  0  0  0  0  0
  183.7150  178.6730  142.7960 C   0  0  0  0  0  3  0  0  0  0  0  0
  186.9140  177.9490  146.1710 C   0  0  0  0  0  0  0  0  0  0  0  0
  185.4740  178.4760  146.8720 S   0  0  0  0  0  0  0  0  0  0  0  0
  190.3020  176.6440  142.6330 C   0  0  0  0  0  3  0  0  0  0  0  0
  185.0380  178.2670  143.0330 C   0  0  0  0  0  3  0  0  0  0  0  0
  189.1160  177.0260  141.8560 C   0  0  0  0  0  0  0  0  0  0  0  0
  189.0960  177.1040  144.7100 C   0  0  0  0  0  0  0  0  0  0  0  0
  188.3070  177.8820  138.4460 C   0  0  2  0  0  3  0  0  0  0  0  0
  187.1790  177.0570  137.8470 C   0  0  0  0  0  1  0  0  0  0  0  0
  189.0610  178.5910  137.3690 C   0  0  0  0  0  0  0  0  0  0  0  0
  189.7170  177.8540  136.3930 O   0  0  0  0  0  0  0  0  0  0  0  0
  189.1060  179.8500  137.3360 O   0  0  0  0  0  1  0  0  0  0  0  0
  1 15  2  0  0  0  0
  2 20  2  0  0  0  0
  2  1  1  0  0  0  0
  4  1  1  0  0  0  0
  4  8  1  0  0  0  0
  5 19  2  0  0  0  0
  6  9  1  0  0  0  0
  7  3  2  0  0  0  0
  8 16  1  0  0  0  0
  9  8  2  0  0  0  0
 10 20  1  0  0  0  0
 10 11  1  0  0  0  0
 12  5  2  0  0  0  0
 13  2  1  0  0  0  0
 14 18  1  0  0  0  0
 14  6  2  0  0  0  0
 15  3  1  0  0  0  0
 15 16  1  0  0  0  0
 17 10  2  0  0  0  0
 18  4  2  0  0  0  0
 19 13  1  0  0  0  0
 19 17  1  0  0  0  0
 20  7  1  0  0  0  0
 21 22  1  6  0  0  0
 21 12  1  0  0  0  0
 23 21  1  0  0  0  0
 24 23  2  0  0  0  0
 25 23  1  0  0  0  0
M  END
>  <MODEL>
3

>  <REMARK>
 VINA RESULT:     -10.1      1.281      1.624
  Name = 
  2 active torsions:
  status: ('A' for Active; 'I' for Inactive)
    1  A    between atoms: C_2  and  C_21
    2  A    between atoms: C_15  and  C_21
                            x       y       z     vdW  Elec       q    Type
                         _______ _______ _______ _____ _____    ______ ____

>  <TORSDO>
F 2

$$$$
=
 OpenBabel11052412393D

 25 28  0  0  1  0  0  0  0  0999 V2000
  187.6750  177.8130  145.6410 C   0  0  0  0  0  0  0  0  0  0  0  0
  186.9200  178.1600  144.5040 C   0  0  0  0  0  0  0  0  0  0  0  0
  185.7200  178.0960  147.0450 C   0  0  0  0  0  3  0  0  0  0  0  0
  189.0380  177.4690  145.7210 C   0  0  0  0  0  0  0  0  0  0  0  0
  186.9880  178.3540  140.7920 C   0  0  0  0  0  0  0  0  0  0  0  0
  191.6800  176.7410  146.2760 C   0  0  0  0  0  3  0  0  0  0  0  0
  184.9980  178.4320  145.9420 N   0  0  0  0  0  0  0  0  0  0  0  0
  189.4450  177.1850  147.0240 C   0  0  0  0  0  0  0  0  0  0  0  0
  190.7550  176.8200  147.3270 C   0  0  0  0  0  3  0  0  0  0  0  0
  184.6970  178.8290  143.5360 C   0  0  0  0  0  0  0  0  0  0  0  0
  183.0180  179.2790  143.7720 Cl  0  0  0  0  0  0  0  0  0  0  0  0
  187.4150  178.2880  139.5610 C   0  0  0  0  0  3  0  0  0  0  0  0
  187.5590  178.2540  143.1400 C   0  0  0  0  0  2  0  0  0  0  0  0
  191.2850  177.0240  144.9560 C   0  0  0  0  0  3  0  0  0  0  0  0
  187.0630  177.7850  146.8900 C   0  0  0  0  0  0  0  0  0  0  0  0
  188.1570  177.3470  148.0960 S   0  0  0  0  0  0  0  0  0  0  0  0
  185.1750  178.7880  142.2930 C   0  0  0  0  0  3  0  0  0  0  0  0
  189.9590  177.3900  144.6720 C   0  0  0  0  0  3  0  0  0  0  0  0
  186.5690  178.4160  142.0240 C   0  0  0  0  0  0  0  0  0  0  0  0
  185.5480  178.4740  144.6900 C   0  0  0  0  0  0  0  0  0  0  0  0
  188.5820  177.4300  139.1970 C   0  0  2  0  0  3  0  0  0  0  0  0
  189.5340  177.2790  140.3720 C   0  0  0  0  0  1  0  0  0  0  0  0
  189.2990  177.9990  138.0170 C   0  0  0  0  0  0  0  0  0  0  0  0
  189.0520  179.3090  137.6300 O   0  0  0  0  0  1  0  0  0  0  0  0
  190.1280  177.3030  137.3710 O   0  0  0  0  0  0  0  0  0  0  0  0
  1  4  1  0  0  0  0
  1 15  2  0  0  0  0
  2 20  2  0  0  0  0
  2  1  1  0  0  0  0
  4  8  1  0  0  0  0
  5 19  2  0  0  0  0
  6  9  1  0  0  0  0
  7  3  2  0  0  0  0
  8  9  2  0  0  0  0
  8 16  1  0  0  0  0
 10 11  1  0  0  0  0
 10 20  1  0  0  0  0
 12  5  2  0  0  0  0
 13  2  1  0  0  0  0
 14  6  2  0  0  0  0
 15  3  1  0  0  0  0
 15 16  1  0  0  0  0
 17 10  2  0  0  0  0
 18 14  1  0  0  0  0
 18  4  2  0  0  0  0
 19 17  1  0  0  0  0
 19 13  1  0  0  0  0
 20  7  1  0  0  0  0
 21 12  1  0  0  0  0
 21 22  1  1  0  0  0
 23 21  1  0  0  0  0
 24 23  1  0  0  0  0
 25 23  2  0  0  0  0
M  END
>  <MODEL>
4

>  <REMARK>
 VINA RESULT:     -10.0      2.531      4.747
  Name = 
  2 active torsions:
  status: ('A' for Active; 'I' for Inactive)
    1  A    between atoms: C_2  and  C_21
    2  A    between atoms: C_15  and  C_21
                            x       y       z     vdW  Elec       q    Type
                         _______ _______ _______ _____ _____    ______ ____

>  <TORSDO>
F 2

$$$$
=
 OpenBabel11052412393D

 25 28  0  0  1  0  0  0  0  0999 V2000
  186.2800  178.4180  142.2460 C   0  0  0  0  0  0  0  0  0  0  0  0
  187.6550  178.1370  142.1350 C   0  0  0  0  0  0  0  0  0  0  0  0
  186.0890  178.5240  139.8320 C   0  0  0  0  0  3  0  0  0  0  0  0
  185.5000  178.5510  143.4110 C   0  0  0  0  0  0  0  0  0  0  0  0
  190.6870  177.1480  144.0440 C   0  0  0  0  0  0  0  0  0  0  0  0
  183.6420  178.8810  145.4740 C   0  0  0  0  0  3  0  0  0  0  0  0
  187.4190  178.2540  139.7330 N   0  0  0  0  0  0  0  0  0  0  0  0
  184.1630  178.8360  143.1340 C   0  0  0  0  0  0  0  0  0  0  0  0
  183.2180  179.0040  144.1430 C   0  0  0  0  0  3  0  0  0  0  0  0
  189.6450  177.7510  140.6450 C   0  0  0  0  0  0  0  0  0  0  0  0
  190.3480  177.7180  139.0380 Cl  0  0  0  0  0  0  0  0  0  0  0  0
  191.4700  176.8280  145.0380 C   0  0  0  0  0  3  0  0  0  0  0  0
  188.5230  177.9820  143.3600 C   0  0  0  0  0  2  0  0  0  0  0  0
  184.9870  178.5940  145.7710 C   0  0  0  0  0  3  0  0  0  0  0  0
  185.5210  178.6050  141.0950 C   0  0  0  0  0  0  0  0  0  0  0  0
  183.9100  178.9300  141.4720 S   0  0  0  0  0  0  0  0  0  0  0  0
  190.4250  177.4640  141.6860 C   0  0  0  0  0  3  0  0  0  0  0  0
  185.9240  178.4270  144.7380 C   0  0  0  0  0  3  0  0  0  0  0  0
  189.9000  177.4700  143.0570 C   0  0  0  0  0  0  0  0  0  0  0  0
  188.2120  178.0600  140.8310 C   0  0  0  0  0  0  0  0  0  0  0  0
  190.9090  176.2980  146.3170 C   0  0  2  0  0  3  0  0  0  0  0  0
  189.7650  177.1680  146.8120 C   0  0  0  0  0  1  0  0  0  0  0  0
  191.9770  176.2030  147.3560 C   0  0  0  0  0  0  0  0  0  0  0  0
  192.0560  177.1700  148.3480 O   0  0  0  0  0  1  0  0  0  0  0  0
  192.8060  175.2530  147.3420 O   0  0  0  0  0  0  0  0  0  0  0  0
  1  4  1  0  0  0  0
  2  1  1  0  0  0  0
  2 13  1  0  0  0  0
  3 15  1  0  0  0  0
  4 18  1  0  0  0  0
  5 12  2  0  0  0  0
  6 14  1  0  0  0  0
  7  3  2  0  0  0  0
  7 20  1  0  0  0  0
  8  4  2  0  0  0  0
  8  9  1  0  0  0  0
  9  6  2  0  0  0  0
 10 20  1  0  0  0  0
 10 17  2  0  0  0  0
 11 10  1  0  0  0  0
 12 21  1  0  0  0  0
 15 16  1  0  0  0  0
 15  1  2  0  0  0  0
 16  8  1  0  0  0  0
 17 19  1  0  0  0  0
 18 14  2  0  0  0  0
 19 13  1  0  0  0  0
 19  5  2  0  0  0  0
 20  2  2  0  0  0  0
 21 22  1  1  0  0  0
 21 23  1  0  0  0  0
 23 24  1  0  0  0  0
 25 23  2  0  0  0  0
M  END
>  <MODEL>
5

>  <REMARK>
 VINA RESULT:      -9.9      3.944      5.610
  Name = 
  2 active torsions:
  status: ('A' for Active; 'I' for Inactive)
    1  A    between atoms: C_2  and  C_21
    2  A    between atoms: C_15  and  C_21
                            x       y       z     vdW  Elec       q    Type
                         _______ _______ _______ _____ _____    ______ ____

>  <TORSDO>
F 2

$$$$
=
 OpenBabel11052412393D

 25 28  0  0  1  0  0  0  0  0999 V2000
  189.0970  177.6170  144.1610 C   0  0  0  0  0  0  0  0  0  0  0  0
  188.2250  177.7980  143.0700 C   0  0  0  0  0  0  0  0  0  0  0  0
  190.9940  177.5490  142.6540 C   0  0  0  0  0  3  0  0  0  0  0  0
  188.7860  177.5300  145.5310 C   0  0  0  0  0  0  0  0  0  0  0  0
  184.7090  178.5450  142.1210 C   0  0  0  0  0  0  0  0  0  0  0  0
  188.5650  177.3150  148.3100 C   0  0  0  0  0  3  0  0  0  0  0  0
  190.1450  177.7240  141.6050 N   0  0  0  0  0  0  0  0  0  0  0  0
  189.9150  177.3460  146.3290 C   0  0  0  0  0  0  0  0  0  0  0  0
  189.8320  177.2370  147.7150 C   0  0  0  0  0  3  0  0  0  0  0  0
  187.9340  178.0540  140.5850 C   0  0  0  0  0  0  0  0  0  0  0  0
  188.6260  178.0520  138.9720 Cl  0  0  0  0  0  0  0  0  0  0  0  0
  183.4320  178.7980  142.2150 C   0  0  0  0  0  3  0  0  0  0  0  0
  186.7310  177.8780  143.2680 C   0  0  0  0  0  2  0  0  0  0  0  0
  187.4150  177.5010  147.5200 C   0  0  0  0  0  3  0  0  0  0  0  0
  190.4650  177.4980  143.9350 C   0  0  0  0  0  0  0  0  0  0  0  0
  191.3050  177.2870  145.3810 S   0  0  0  0  0  0  0  0  0  0  0  0
  186.6270  178.2730  140.7140 C   0  0  0  0  0  3  0  0  0  0  0  0
  187.5210  177.6100  146.1240 C   0  0  0  0  0  3  0  0  0  0  0  0
  185.9840  178.2920  142.0340 C   0  0  0  0  0  0  0  0  0  0  0  0
  188.7930  177.8480  141.7700 C   0  0  0  0  0  0  0  0  0  0  0  0
  182.8510  179.3550  143.4740 C   0  0  2  0  0  3  0  0  0  0  0  0
  183.4310  178.6590  144.6960 C   0  0  0  0  0  1  0  0  0  0  0  0
  181.3630  179.2290  143.4610 C   0  0  0  0  0  0  0  0  0  0  0  0
  180.5990  180.1970  142.8240 O   0  0  0  0  0  0  0  0  0  0  0  0
  180.7950  178.2530  144.0190 O   0  0  0  0  0  1  0  0  0  0  0  0
  1  4  1  0  0  0  0
  2 13  1  0  0  0  0
  2  1  1  0  0  0  0
  3 15  1  0  0  0  0
  4 18  2  0  0  0  0
  4  8  1  0  0  0  0
  5 12  2  0  0  0  0
  7 20  1  0  0  0  0
  7  3  2  0  0  0  0
  8  9  2  0  0  0  0
  9  6  1  0  0  0  0
 10 17  2  0  0  0  0
 10 20  1  0  0  0  0
 11 10  1  0  0  0  0
 12 21  1  0  0  0  0
 14  6  2  0  0  0  0
 15  1  2  0  0  0  0
 15 16  1  0  0  0  0
 16  8  1  0  0  0  0
 17 19  1  0  0  0  0
 18 14  1  0  0  0  0
 19  5  2  0  0  0  0
 19 13  1  0  0  0  0
 20  2  2  0  0  0  0
 21 22  1  1  0  0  0
 23 21  1  0  0  0  0
 23 25  1  0  0  0  0
 24 23  2  0  0  0  0
M  END
>  <MODEL>
6

>  <REMARK>
 VINA RESULT:      -9.8      4.246      6.669
  Name = 
  2 active torsions:
  status: ('A' for Active; 'I' for Inactive)
    1  A    between atoms: C_2  and  C_21
    2  A    between atoms: C_15  and  C_21
                            x       y       z     vdW  Elec       q    Type
                         _______ _______ _______ _____ _____    ______ ____

>  <TORSDO>
F 2

$$$$
=
 OpenBabel11052412393D

 25 28  0  0  1  0  0  0  0  0999 V2000
  187.2210  178.0730  141.6630 C   0  0  0  0  0  0  0  0  0  0  0  0
  187.1110  177.9450  143.0620 C   0  0  0  0  0  0  0  0  0  0  0  0
  184.9710  178.9670  141.5510 C   0  0  0  0  0  3  0  0  0  0  0  0
  188.3100  177.7450  140.8330 C   0  0  0  0  0  0  0  0  0  0  0  0
  188.9940  177.1570  146.1680 C   0  0  0  0  0  0  0  0  0  0  0  0
  190.2420  177.2250  138.8800 C   0  0  0  0  0  3  0  0  0  0  0  0
  184.8720  178.8390  142.9020 N   0  0  0  0  0  0  0  0  0  0  0  0
  188.0580  178.0070  139.4870 C   0  0  0  0  0  0  0  0  0  0  0  0
  189.0030  177.7580  138.4940 C   0  0  0  0  0  3  0  0  0  0  0  0
  185.7190  178.2540  145.1330 C   0  0  0  0  0  0  0  0  0  0  0  0
  184.1910  178.6880  145.8790 Cl  0  0  0  0  0  0  0  0  0  0  0  0
  189.9670  176.8180  146.9690 C   0  0  0  0  0  3  0  0  0  0  0  0
  188.2270  177.3470  143.8820 C   0  0  0  0  0  2  0  0  0  0  0  0
  190.5130  176.9550  140.2340 C   0  0  0  0  0  3  0  0  0  0  0  0
  186.1520  178.5830  140.9330 C   0  0  0  0  0  0  0  0  0  0  0  0
  186.5110  178.6400  139.2870 S   0  0  0  0  0  0  0  0  0  0  0  0
  186.7220  177.8680  145.9200 C   0  0  0  0  0  3  0  0  0  0  0  0
  189.5460  177.2150  141.2180 C   0  0  0  0  0  3  0  0  0  0  0  0
  188.0280  177.4940  145.3620 C   0  0  0  0  0  0  0  0  0  0  0  0
  185.8920  178.3460  143.6690 C   0  0  0  0  0  0  0  0  0  0  0  0
  191.3920  176.9580  146.5480 C   0  0  2  0  0  3  0  0  0  0  0  0
  191.5340  176.7980  145.0420 C   0  0  0  0  0  1  0  0  0  0  0  0
  192.2470  175.9610  147.2590 C   0  0  0  0  0  0  0  0  0  0  0  0
  192.8070  176.2890  148.4850 O   0  0  0  0  0  1  0  0  0  0  0  0
  192.4620  174.8240  146.7580 O   0  0  0  0  0  0  0  0  0  0  0  0
  1  2  2  0  0  0  0
  2 20  1  0  0  0  0
  2 13  1  0  0  0  0
  3  7  1  0  0  0  0
  4 18  1  0  0  0  0
  4  1  1  0  0  0  0
  5 12  2  0  0  0  0
  6 14  1  0  0  0  0
  7 20  2  0  0  0  0
  8  4  2  0  0  0  0
  9  6  2  0  0  0  0
  9  8  1  0  0  0  0
 10 11  1  0  0  0  0
 10 17  2  0  0  0  0
 13 19  1  0  0  0  0
 14 18  2  0  0  0  0
 15  3  2  0  0  0  0
 15  1  1  0  0  0  0
 16  8  1  0  0  0  0
 16 15  1  0  0  0  0
 19 17  1  0  0  0  0
 19  5  2  0  0  0  0
 20 10  1  0  0  0  0
 21 22  1  6  0  0  0
 21 12  1  0  0  0  0
 21 23  1  0  0  0  0
 23 24  1  0  0  0  0
 25 23  2  0  0  0  0
M  END
>  <MODEL>
7

>  <REMARK>
 VINA RESULT:      -9.7      3.908      6.483
  Name = 
  2 active torsions:
  status: ('A' for Active; 'I' for Inactive)
    1  A    between atoms: C_2  and  C_21
    2  A    between atoms: C_15  and  C_21
                            x       y       z     vdW  Elec       q    Type
                         _______ _______ _______ _____ _____    ______ ____

>  <TORSDO>
F 2

$$$$
=
 OpenBabel11052412393D

 25 28  0  0  1  0  0  0  0  0999 V2000
  185.6550  178.2530  144.4060 C   0  0  0  0  0  0  0  0  0  0  0  0
  187.0060  177.8780  144.5420 C   0  0  0  0  0  0  0  0  0  0  0  0
  185.4850  178.5690  146.8030 C   0  0  0  0  0  3  0  0  0  0  0  0
  184.8800  178.3420  143.2340 C   0  0  0  0  0  0  0  0  0  0  0  0
  190.1120  177.0880  142.6580 C   0  0  0  0  0  0  0  0  0  0  0  0
  183.0410  178.6390  141.1490 C   0  0  0  0  0  3  0  0  0  0  0  0
  186.7900  178.2040  146.9260 N   0  0  0  0  0  0  0  0  0  0  0  0
  183.5700  178.7480  143.4850 C   0  0  0  0  0  0  0  0  0  0  0  0
  182.6340  178.9040  142.4640 C   0  0  0  0  0  3  0  0  0  0  0  0
  188.9770  177.4940  146.0560 C   0  0  0  0  0  0  0  0  0  0  0  0
  189.6470  177.4110  147.6760 Cl  0  0  0  0  0  0  0  0  0  0  0  0
  190.9340  176.8760  141.6670 C   0  0  0  0  0  3  0  0  0  0  0  0
  187.8220  177.4500  143.3460 C   0  0  0  0  0  2  0  0  0  0  0  0
  184.3590  178.2290  140.8780 C   0  0  0  0  0  3  0  0  0  0  0  0
  184.9190  178.5930  145.5370 C   0  0  0  0  0  0  0  0  0  0  0  0
  183.3350  179.0030  145.1320 S   0  0  0  0  0  0  0  0  0  0  0  0
  189.7800  177.2470  145.0240 C   0  0  0  0  0  3  0  0  0  0  0  0
  185.2870  178.0790  141.9220 C   0  0  0  0  0  3  0  0  0  0  0  0
  189.2860  177.3020  143.6420 C   0  0  0  0  0  0  0  0  0  0  0  0
  187.5600  177.8610  145.8480 C   0  0  0  0  0  0  0  0  0  0  0  0
  190.6580  177.4300  140.3080 C   0  0  2  0  0  3  0  0  0  0  0  0
  189.1620  177.5430  140.0590 C   0  0  0  0  0  1  0  0  0  0  0  0
  191.2970  176.5810  139.2590 C   0  0  0  0  0  0  0  0  0  0  0  0
  190.5550  175.5860  138.6370 O   0  0  0  0  0  0  0  0  0  0  0  0
  192.5010  176.7590  138.9310 O   0  0  0  0  0  1  0  0  0  0  0  0
  1  2  2  0  0  0  0
  1 15  1  0  0  0  0
  2 20  1  0  0  0  0
  3  7  1  0  0  0  0
  4  8  1  0  0  0  0
  4  1  1  0  0  0  0
  5 19  2  0  0  0  0
  6  9  1  0  0  0  0
  8 16  1  0  0  0  0
  9  8  2  0  0  0  0
 10 11  1  0  0  0  0
 12  5  2  0  0  0  0
 13 19  1  0  0  0  0
 13  2  1  0  0  0  0
 14  6  2  0  0  0  0
 14 18  1  0  0  0  0
 15  3  2  0  0  0  0
 16 15  1  0  0  0  0
 17 10  2  0  0  0  0
 18  4  2  0  0  0  0
 19 17  1  0  0  0  0
 20 10  1  0  0  0  0
 20  7  2  0  0  0  0
 21 22  1  6  0  0  0
 21 12  1  0  0  0  0
 23 21  1  0  0  0  0
 24 23  2  0  0  0  0
 25 23  1  0  0  0  0
M  END
>  <MODEL>
8

>  <REMARK>
 VINA RESULT:      -9.6      1.379      1.900
  Name = 
  2 active torsions:
  status: ('A' for Active; 'I' for Inactive)
    1  A    between atoms: C_2  and  C_21
    2  A    between atoms: C_15  and  C_21
                            x       y       z     vdW  Elec       q    Type
                         _______ _______ _______ _____ _____    ______ ____

>  <TORSDO>
F 2

$$$$
=
 OpenBabel11052412393D

 25 28  0  0  1  0  0  0  0  0999 V2000
  188.4070  177.6230  143.1000 C   0  0  0  0  0  0  0  0  0  0  0  0
  187.0810  177.9400  143.4520 C   0  0  0  0  0  0  0  0  0  0  0  0
  188.9620  177.2810  145.4340 C   0  0  0  0  0  3  0  0  0  0  0  0
  188.9920  177.5820  141.8200 C   0  0  0  0  0  0  0  0  0  0  0  0
  183.6900  178.6270  142.0920 C   0  0  0  0  0  0  0  0  0  0  0  0
  190.4930  177.3920  139.4690 C   0  0  0  0  0  3  0  0  0  0  0  0
  187.6790  177.5900  145.7660 N   0  0  0  0  0  0  0  0  0  0  0  0
  190.3400  177.2280  141.8560 C   0  0  0  0  0  0  0  0  0  0  0  0
  191.1100  177.1260  140.6990 C   0  0  0  0  0  3  0  0  0  0  0  0
  185.3580  178.2200  145.2630 C   0  0  0  0  0  0  0  0  0  0  0  0
  184.9470  178.2530  146.9680 Cl  0  0  0  0  0  0  0  0  0  0  0  0
  182.7150  178.8190  141.2460 C   0  0  0  0  0  3  0  0  0  0  0  0
  186.0720  178.3510  142.4080 C   0  0  0  0  0  2  0  0  0  0  0  0
  189.1330  177.7510  139.4150 C   0  0  0  0  0  3  0  0  0  0  0  0
  189.3230  177.2980  144.0950 C   0  0  0  0  0  0  0  0  0  0  0  0
  190.8400  176.9600  143.4410 S   0  0  0  0  0  0  0  0  0  0  0  0
  184.3940  178.4490  144.3730 C   0  0  0  0  0  3  0  0  0  0  0  0
  188.3750  177.8470  140.5930 C   0  0  0  0  0  3  0  0  0  0  0  0
  184.6670  178.4340  142.9310 C   0  0  0  0  0  0  0  0  0  0  0  0
  186.7370  177.9160  144.8290 C   0  0  0  0  0  0  0  0  0  0  0  0
  182.7960  178.2960  139.8500 C   0  0  2  0  0  3  0  0  0  0  0  0
  182.7320  176.7770  139.8320 C   0  0  0  0  0  1  0  0  0  0  0  0
  184.0470  178.7710  139.1870 C   0  0  0  0  0  0  0  0  0  0  0  0
  184.2990  180.1330  139.0940 O   0  0  0  0  0  1  0  0  0  0  0  0
  184.8780  177.9490  138.7140 O   0  0  0  0  0  0  0  0  0  0  0  0
  1  2  2  0  0  0  0
  1 15  1  0  0  0  0
  2 20  1  0  0  0  0
  3  7  1  0  0  0  0
  4  8  1  0  0  0  0
  4  1  1  0  0  0  0
  5 19  2  0  0  0  0
  6  9  1  0  0  0  0
  8 16  1  0  0  0  0
  9  8  2  0  0  0  0
 10 11  1  0  0  0  0
 12  5  2  0  0  0  0
 13 19  1  0  0  0  0
 13  2  1  0  0  0  0
 14  6  2  0  0  0  0
 14 18  1  0  0  0  0
 15  3  2  0  0  0  0
 16 15  1  0  0  0  0
 17 10  2  0  0  0  0
 18  4  2  0  0  0  0
 19 17  1  0  0  0  0
 20 10  1  0  0  0  0
 20  7  2  0  0  0  0
 21 22  1  1  0  0  0
 21 12  1  0  0  0  0
 23 21  1  0  0  0  0
 24 23  1  0  0  0  0
 25 23  2  0  0  0  0
M  END
>  <MODEL>
9

>  <REMARK>
 VINA RESULT:      -9.5      3.029      5.846
  Name = 
  2 active torsions:
  status: ('A' for Active; 'I' for Inactive)
    1  A    between atoms: C_2  and  C_21
    2  A    between atoms: C_15  and  C_21
                            x       y       z     vdW  Elec       q    Type
                         _______ _______ _______ _____ _____    ______ ____

>  <TORSDO>
F 2

$$$$
