=
 OpenBabel11052414383D

 32 37  0  0  1  0  0  0  0  0999 V2000
  186.3200  178.2530  139.9190 C   0  0  1  0  0  3  0  0  0  0  0  0
  187.2730  178.2340  142.2950 C   0  0  2  0  0  3  0  0  0  0  0  0
  186.6530  178.5070  138.4480 C   0  0  0  0  0  2  0  0  0  0  0  0
  187.5630  178.4730  140.7970 C   0  0  1  0  0  3  0  0  0  0  0  0
  187.9160  176.9610  142.8810 C   0  0  2  0  0  3  0  0  0  0  0  0
  184.6480  178.8640  146.2030 O   0  0  0  0  0  0  0  0  0  0  0  0
  185.7880  178.1880  142.6360 C   0  0  2  0  0  3  0  0  0  0  0  0
  186.7030  177.5840  146.3470 C   0  0  0  0  0  2  0  0  0  0  0  0
  186.9300  177.7920  144.8590 C   0  0  1  0  0  3  0  0  0  0  0  0
  188.7650  177.7180  140.2620 C   0  0  0  0  0  0  0  0  0  0  0  0
  187.6580  176.7280  144.2710 O   0  0  0  0  0  0  0  0  0  0  0  0
  189.6040  177.0380  141.0600 C   0  0  0  0  0  3  0  0  0  0  0  0
  189.0460  177.7980  138.7920 C   0  0  0  0  0  2  0  0  0  0  0  0
  185.0140  179.2880  141.9140 C   0  0  0  0  0  2  0  0  0  0  0  0
  185.1350  179.1350  140.3820 C   0  0  2  0  0  3  0  0  0  0  0  0
  185.5820  178.0340  144.1540 C   0  0  1  0  0  3  0  0  0  0  0  0
  189.4080  176.9530  142.5530 C   0  0  2  0  0  3  0  0  0  0  0  0
  187.7620  177.5580  137.9950 C   0  0  0  0  0  2  0  0  0  0  0  0
  185.8930  178.7800  146.8640 C   0  0  0  0  0  2  0  0  0  0  0  0
  184.8970  179.2090  144.8580 C   0  0  0  0  0  2  0  0  0  0  0  0
  181.8500  178.9820  138.4400 C   0  0  0  0  0  0  0  0  0  0  0  0
  181.1590  179.7480  137.7210 O   0  0  0  0  0  0  0  0  0  0  0  0
  183.8430  178.6380  139.8050 C   0  0  0  0  0  0  0  0  0  0  0  0
  181.4010  177.6100  138.6870 C   0  0  0  0  0  3  0  0  0  0  0  0
  183.4020  177.2210  140.1150 C   0  0  0  0  0  2  0  0  0  0  0  0
  183.1080  179.4540  139.0330 C   0  0  0  0  0  0  0  0  0  0  0  0
  183.5240  180.7220  138.7850 F   0  0  0  0  0  0  0  0  0  0  0  0
  182.1100  176.7910  139.4660 C   0  0  0  0  0  0  0  0  0  0  0  0
  180.2980  175.4070  140.0970 O   0  0  0  0  0  1  0  0  0  0  0  0
  181.6330  175.3960  139.6880 C   0  0  0  0  0  2  0  0  0  0  0  0
  190.1100  175.7180  143.1080 C   0  0  0  0  0  2  0  0  0  0  0  0
  191.4180  176.0190  143.4960 O   0  0  0  0  0  1  0  0  0  0  0  0
  1  3  1  6  0  0  0
  1 15  1  0  0  0  0
  1  4  1  0  0  0  0
  2  7  1  0  0  0  0
  2  5  1  0  0  0  0
  4  2  1  0  0  0  0
  5 11  1  0  0  0  0
  6 19  1  0  0  0  0
  7 16  1  0  0  0  0
  8 19  1  0  0  0  0
  9  8  1  0  0  0  0
 10  4  1  0  0  0  0
 10 12  2  0  0  0  0
 11  9  1  0  0  0  0
 12 17  1  0  0  0  0
 13 10  1  0  0  0  0
 14  7  1  0  0  0  0
 15 14  1  0  0  0  0
 16 20  1  0  0  0  0
 16  9  1  0  0  0  0
 17  5  1  0  0  0  0
 17 31  1  0  0  0  0
 18  3  1  0  0  0  0
 18 13  1  0  0  0  0
 20  6  1  0  0  0  0
 21 24  1  0  0  0  0
 21 26  1  0  0  0  0
 22 21  2  0  0  0  0
 23 25  1  0  0  0  0
 23 15  1  0  0  0  0
 24 28  2  0  0  0  0
 26 23  2  0  0  0  0
 27 26  1  0  0  0  0
 28 30  1  0  0  0  0
 28 25  1  0  0  0  0
 30 29  1  0  0  0  0
 31 32  1  0  0  0  0
M  END
>  <MODEL>
1

>  <REMARK>
 VINA RESULT:      -9.3      0.000      0.000
  Name = 
  3 active torsions:
  status: ('A' for Active; 'I' for Inactive)
    1  A    between atoms: C_13  and  C_29
    2  A    between atoms: C_15  and  C_26
    3  A    between atoms: C_16  and  C_27
                            x       y       z     vdW  Elec       q    Type
                         _______ _______ _______ _____ _____    ______ ____

>  <TORSDO>
F 3

$$$$
=
 OpenBabel11052414383D

 32 37  0  0  1  0  0  0  0  0999 V2000
  185.4330  178.2530  140.4490 C   0  0  1  0  0  3  0  0  0  0  0  0
  186.8700  178.3750  142.5650 C   0  0  2  0  0  3  0  0  0  0  0  0
  185.3920  178.5760  138.9550 C   0  0  0  0  0  2  0  0  0  0  0  0
  186.7840  178.6750  141.0530 C   0  0  1  0  0  3  0  0  0  0  0  0
  187.8270  177.2250  142.9400 C   0  0  2  0  0  3  0  0  0  0  0  0
  185.0900  178.5030  146.9670 O   0  0  0  0  0  0  0  0  0  0  0  0
  185.5230  178.0700  143.2110 C   0  0  2  0  0  3  0  0  0  0  0  0
  187.3100  177.5950  146.6100 C   0  0  0  0  0  2  0  0  0  0  0  0
  187.1710  177.8540  145.1190 C   0  0  1  0  0  3  0  0  0  0  0  0
  187.9480  178.1440  140.2390 C   0  0  0  0  0  0  0  0  0  0  0  0
  187.9190  176.9370  144.3410 O   0  0  0  0  0  0  0  0  0  0  0  0
  189.0420  177.6100  140.8080 C   0  0  0  0  0  3  0  0  0  0  0  0
  187.8860  178.2860  138.7490 C   0  0  0  0  0  2  0  0  0  0  0  0
  184.4390  179.0280  142.7230 C   0  0  0  0  0  2  0  0  0  0  0  0
  184.2480  178.9130  141.1940 C   0  0  2  0  0  3  0  0  0  0  0  0
  185.6810  177.8680  144.7300 C   0  0  1  0  0  3  0  0  0  0  0  0
  189.1920  177.4770  142.3030 C   0  0  2  0  0  3  0  0  0  0  0  0
  186.5180  177.8360  138.2320 C   0  0  0  0  0  2  0  0  0  0  0  0
  186.4450  178.6280  147.3430 C   0  0  0  0  0  2  0  0  0  0  0  0
  184.9800  178.9000  145.6170 C   0  0  0  0  0  2  0  0  0  0  0  0
  180.5470  177.9740  141.1370 C   0  0  0  0  0  0  0  0  0  0  0  0
  179.4790  178.3730  141.6670 O   0  0  0  0  0  0  0  0  0  0  0  0
  182.9620  178.2080  140.8820 C   0  0  0  0  0  0  0  0  0  0  0  0
  180.5220  176.8450  140.2040 C   0  0  0  0  0  3  0  0  0  0  0  0
  182.9910  177.0230  139.9360 C   0  0  0  0  0  2  0  0  0  0  0  0
  181.8220  178.6360  141.4440 C   0  0  0  0  0  0  0  0  0  0  0  0
  181.8320  179.6920  142.2970 F   0  0  0  0  0  0  0  0  0  0  0  0
  181.6500  176.3950  139.6480 C   0  0  0  0  0  0  0  0  0  0  0  0
  182.8710  174.9530  138.2250 O   0  0  0  0  0  1  0  0  0  0  0  0
  181.5900  175.2530  138.6930 C   0  0  0  0  0  2  0  0  0  0  0  0
  190.1930  176.3760  142.6370 C   0  0  0  0  0  2  0  0  0  0  0  0
  191.4420  176.9150  142.9560 O   0  0  0  0  0  1  0  0  0  0  0  0
  1  3  1  6  0  0  0
  1  4  1  0  0  0  0
  1 15  1  0  0  0  0
  2  5  1  0  0  0  0
  2  7  1  0  0  0  0
  4  2  1  0  0  0  0
  5 11  1  0  0  0  0
  6 19  1  0  0  0  0
  7 16  1  0  0  0  0
  8 19  1  0  0  0  0
  9  8  1  0  0  0  0
 10 12  2  0  0  0  0
 10  4  1  0  0  0  0
 11  9  1  0  0  0  0
 12 17  1  0  0  0  0
 13 10  1  0  0  0  0
 14  7  1  0  0  0  0
 15 14  1  0  0  0  0
 16  9  1  0  0  0  0
 16 20  1  0  0  0  0
 17 31  1  0  0  0  0
 17  5  1  0  0  0  0
 18 13  1  0  0  0  0
 18  3  1  0  0  0  0
 20  6  1  0  0  0  0
 21 26  1  0  0  0  0
 21 22  2  0  0  0  0
 23 15  1  0  0  0  0
 23 26  2  0  0  0  0
 24 21  1  0  0  0  0
 25 23  1  0  0  0  0
 26 27  1  0  0  0  0
 28 25  1  0  0  0  0
 28 24  2  0  0  0  0
 29 30  1  0  0  0  0
 30 28  1  0  0  0  0
 31 32  1  0  0  0  0
M  END
>  <MODEL>
2

>  <REMARK>
 VINA RESULT:      -8.6      1.576      1.673
  Name = 
  3 active torsions:
  status: ('A' for Active; 'I' for Inactive)
    1  A    between atoms: C_13  and  C_29
    2  A    between atoms: C_15  and  C_26
    3  A    between atoms: C_16  and  C_27
                            x       y       z     vdW  Elec       q    Type
                         _______ _______ _______ _____ _____    ______ ____

>  <TORSDO>
F 3

$$$$
=
 OpenBabel11052414383D

 32 37  0  0  1  0  0  0  0  0999 V2000
  186.5200  178.2420  139.6930 C   0  0  1  0  0  3  0  0  0  0  0  0
  187.1150  178.4240  142.1760 C   0  0  2  0  0  3  0  0  0  0  0  0
  187.0350  178.4720  138.2710 C   0  0  0  0  0  2  0  0  0  0  0  0
  187.5930  178.6330  140.7230 C   0  0  1  0  0  3  0  0  0  0  0  0
  187.7940  177.2540  142.9160 C   0  0  2  0  0  3  0  0  0  0  0  0
  183.8980  178.9170  145.6370 O   0  0  0  0  0  0  0  0  0  0  0  0
  185.6080  178.2280  142.3080 C   0  0  2  0  0  3  0  0  0  0  0  0
  186.0320  177.8780  146.1380 C   0  0  0  0  0  2  0  0  0  0  0  0
  186.4500  178.0500  144.6870 C   0  0  1  0  0  3  0  0  0  0  0  0
  188.9310  177.9940  140.4040 C   0  0  0  0  0  0  0  0  0  0  0  0
  187.3610  177.0500  144.2670 O   0  0  0  0  0  0  0  0  0  0  0  0
  189.7110  177.4430  141.3490 C   0  0  0  0  0  3  0  0  0  0  0  0
  189.4130  178.0460  138.9860 C   0  0  0  0  0  2  0  0  0  0  0  0
  184.8380  179.2070  141.4240 C   0  0  0  0  0  2  0  0  0  0  0  0
  185.1960  179.0060  139.9350 C   0  0  2  0  0  3  0  0  0  0  0  0
  185.2010  178.1130  143.7880 C   0  0  1  0  0  3  0  0  0  0  0  0
  189.3100  177.3970  142.8020 C   0  0  2  0  0  3  0  0  0  0  0  0
  188.2910  177.6330  138.0310 C   0  0  0  0  0  2  0  0  0  0  0  0
  185.0360  178.9970  146.4690 C   0  0  0  0  0  2  0  0  0  0  0  0
  184.3040  179.2330  144.3220 C   0  0  0  0  0  2  0  0  0  0  0  0
  181.9340  178.4770  138.0200 C   0  0  0  0  0  0  0  0  0  0  0  0
  180.9830  179.1800  137.5920 O   0  0  0  0  0  0  0  0  0  0  0  0
  184.0590  178.3470  139.2110 C   0  0  0  0  0  0  0  0  0  0  0  0
  181.9360  177.0310  137.7870 C   0  0  0  0  0  3  0  0  0  0  0  0
  184.0890  176.8430  139.0230 C   0  0  0  0  0  2  0  0  0  0  0  0
  183.0480  179.0970  138.7500 C   0  0  0  0  0  0  0  0  0  0  0  0
  183.0450  180.4410  138.9470 F   0  0  0  0  0  0  0  0  0  0  0  0
  182.9260  176.2670  138.2530 C   0  0  0  0  0  0  0  0  0  0  0  0
  184.2080  174.2990  137.9690 O   0  0  0  0  0  1  0  0  0  0  0  0
  182.9050  174.8000  137.9880 C   0  0  0  0  0  2  0  0  0  0  0  0
  190.0480  176.2700  143.5170 C   0  0  0  0  0  2  0  0  0  0  0  0
  190.0890  175.1190  142.7270 O   0  0  0  0  0  1  0  0  0  0  0  0
  1  3  1  6  0  0  0
  1 15  1  0  0  0  0
  1  4  1  0  0  0  0
  2  7  1  0  0  0  0
  2  5  1  0  0  0  0
  4  2  1  0  0  0  0
  5 11  1  0  0  0  0
  6 19  1  0  0  0  0
  7 16  1  0  0  0  0
  8 19  1  0  0  0  0
  9  8  1  0  0  0  0
 10  4  1  0  0  0  0
 10 12  2  0  0  0  0
 11  9  1  0  0  0  0
 12 17  1  0  0  0  0
 13 10  1  0  0  0  0
 14  7  1  0  0  0  0
 15 14  1  0  0  0  0
 16 20  1  0  0  0  0
 16  9  1  0  0  0  0
 17  5  1  0  0  0  0
 17 31  1  0  0  0  0
 18  3  1  0  0  0  0
 18 13  1  0  0  0  0
 20  6  1  0  0  0  0
 21 26  1  0  0  0  0
 22 21  2  0  0  0  0
 23 15  1  0  0  0  0
 24 21  1  0  0  0  0
 24 28  2  0  0  0  0
 25 23  1  0  0  0  0
 26 27  1  0  0  0  0
 26 23  2  0  0  0  0
 28 25  1  0  0  0  0
 29 30  1  0  0  0  0
 30 28  1  0  0  0  0
 32 31  1  0  0  0  0
M  END
>  <MODEL>
3

>  <REMARK>
 VINA RESULT:      -8.3      1.162      1.162
  Name = 
  3 active torsions:
  status: ('A' for Active; 'I' for Inactive)
    1  A    between atoms: C_13  and  C_29
    2  A    between atoms: C_15  and  C_26
    3  A    between atoms: C_16  and  C_27
                            x       y       z     vdW  Elec       q    Type
                         _______ _______ _______ _____ _____    ______ ____

>  <TORSDO>
F 3

$$$$
=
 OpenBabel11052414383D

 32 37  0  0  1  0  0  0  0  0999 V2000
  181.2390  179.4250  140.2760 C   0  0  1  0  0  3  0  0  0  0  0  0
  183.5010  178.5620  141.1070 C   0  0  2  0  0  3  0  0  0  0  0  0
  179.7260  179.3520  140.4890 C   0  0  0  0  0  2  0  0  0  0  0  0
  181.9680  178.5260  141.2880 C   0  0  1  0  0  3  0  0  0  0  0  0
  184.2650  179.2950  142.2280 C   0  0  2  0  0  3  0  0  0  0  0  0
  187.4040  178.3470  138.4080 O   0  0  0  0  0  0  0  0  0  0  0  0
  183.9520  179.1680  139.7820 C   0  0  2  0  0  3  0  0  0  0  0  0
  187.6330  178.5720  140.8120 C   0  0  0  0  0  2  0  0  0  0  0  0
  186.1200  178.5880  140.9500 C   0  0  1  0  0  3  0  0  0  0  0  0
  181.4970  178.7870  142.7060 C   0  0  0  0  0  0  0  0  0  0  0  0
  185.6900  179.3340  142.0740 O   0  0  0  0  0  0  0  0  0  0  0  0
  182.3450  178.8700  143.7450 C   0  0  0  0  0  3  0  0  0  0  0  0
  180.0210  178.8890  142.9470 C   0  0  0  0  0  2  0  0  0  0  0  0
  183.0950  178.6700  138.6200 C   0  0  0  0  0  2  0  0  0  0  0  0
  181.6140  179.0600  138.8200 C   0  0  2  0  0  3  0  0  0  0  0  0
  185.4830  179.0890  139.6400 C   0  0  1  0  0  3  0  0  0  0  0  0
  183.8380  178.7320  143.5820 C   0  0  2  0  0  3  0  0  0  0  0  0
  179.3780  179.8070  141.9060 C   0  0  0  0  0  2  0  0  0  0  0  0
  187.9770  177.7590  139.5570 C   0  0  0  0  0  2  0  0  0  0  0  0
  186.0030  178.2040  138.5050 C   0  0  0  0  0  2  0  0  0  0  0  0
  180.3530  180.9220  135.7330 C   0  0  0  0  0  0  0  0  0  0  0  0
  179.9040  180.6360  134.5940 O   0  0  0  0  0  0  0  0  0  0  0  0
  181.2350  180.1630  137.8770 C   0  0  0  0  0  0  0  0  0  0  0  0
  180.4780  182.3240  136.1370 C   0  0  0  0  0  3  0  0  0  0  0  0
  181.4130  181.6010  138.3280 C   0  0  0  0  0  2  0  0  0  0  0  0
  180.7510  179.8580  136.6640 C   0  0  0  0  0  0  0  0  0  0  0  0
  180.6150  178.5610  136.2860 F   0  0  0  0  0  0  0  0  0  0  0  0
  180.9740  182.6470  137.3340 C   0  0  0  0  0  0  0  0  0  0  0  0
  182.3910  184.5270  137.5630 O   0  0  0  0  0  1  0  0  0  0  0  0
  181.0760  184.0820  137.7210 C   0  0  0  0  0  2  0  0  0  0  0  0
  184.5600  179.4120  144.7400 C   0  0  0  0  0  2  0  0  0  0  0  0
  184.0510  178.9820  145.9680 O   0  0  0  0  0  1  0  0  0  0  0  0
  1  3  1  6  0  0  0
  1  4  1  0  0  0  0
  2  4  1  0  0  0  0
  2  5  1  0  0  0  0
  3 18  1  0  0  0  0
  4 10  1  0  0  0  0
  5 17  1  0  0  0  0
  6 20  1  0  0  0  0
  6 19  1  0  0  0  0
  7  2  1  0  0  0  0
  8  9  1  0  0  0  0
  9 11  1  0  0  0  0
 10 13  1  0  0  0  0
 10 12  2  0  0  0  0
 11  5  1  0  0  0  0
 14 15  1  0  0  0  0
 14  7  1  0  0  0  0
 15  1  1  0  0  0  0
 16  7  1  0  0  0  0
 16  9  1  0  0  0  0
 17 12  1  0  0  0  0
 17 31  1  0  0  0  0
 18 13  1  0  0  0  0
 19  8  1  0  0  0  0
 20 16  1  0  0  0  0
 21 24  1  0  0  0  0
 21 26  1  0  0  0  0
 22 21  2  0  0  0  0
 23 25  1  0  0  0  0
 23 15  1  0  0  0  0
 24 28  2  0  0  0  0
 26 23  2  0  0  0  0
 27 26  1  0  0  0  0
 28 30  1  0  0  0  0
 28 25  1  0  0  0  0
 29 30  1  0  0  0  0
 31 32  1  0  0  0  0
M  END
>  <MODEL>
4

>  <REMARK>
 VINA RESULT:      -8.2      2.990      6.247
  Name = 
  3 active torsions:
  status: ('A' for Active; 'I' for Inactive)
    1  A    between atoms: C_13  and  C_29
    2  A    between atoms: C_15  and  C_26
    3  A    between atoms: C_16  and  C_27
                            x       y       z     vdW  Elec       q    Type
                         _______ _______ _______ _____ _____    ______ ____

>  <TORSDO>
F 3

$$$$
=
 OpenBabel11052414383D

 32 37  0  0  1  0  0  0  0  0999 V2000
  186.0790  178.3660  139.8600 C   0  0  1  0  0  3  0  0  0  0  0  0
  187.0610  178.3040  142.2230 C   0  0  2  0  0  3  0  0  0  0  0  0
  186.3980  178.6350  138.3890 C   0  0  0  0  0  2  0  0  0  0  0  0
  187.3350  178.5590  140.7260 C   0  0  1  0  0  3  0  0  0  0  0  0
  187.6950  177.0160  142.7850 C   0  0  2  0  0  3  0  0  0  0  0  0
  184.4910  178.9140  146.1720 O   0  0  0  0  0  0  0  0  0  0  0  0
  185.5790  178.2720  142.5820 C   0  0  2  0  0  3  0  0  0  0  0  0
  186.5320  177.6080  146.2730 C   0  0  0  0  0  2  0  0  0  0  0  0
  186.7430  177.8330  144.7850 C   0  0  1  0  0  3  0  0  0  0  0  0
  188.5210  177.7970  140.1660 C   0  0  0  0  0  0  0  0  0  0  0  0
  187.4510  176.7670  144.1750 O   0  0  0  0  0  0  0  0  0  0  0  0
  189.3620  177.0960  140.9450 C   0  0  0  0  0  3  0  0  0  0  0  0
  188.7860  177.8930  138.6940 C   0  0  0  0  0  2  0  0  0  0  0  0
  184.8100  179.3910  141.8840 C   0  0  0  0  0  2  0  0  0  0  0  0
  184.9110  179.2560  140.3490 C   0  0  2  0  0  3  0  0  0  0  0  0
  185.3900  178.1000  144.1010 C   0  0  1  0  0  3  0  0  0  0  0  0
  189.1820  176.9940  142.4390 C   0  0  2  0  0  3  0  0  0  0  0  0
  187.4900  177.6790  137.9090 C   0  0  0  0  0  2  0  0  0  0  0  0
  185.7420  178.8060  146.8160 C   0  0  0  0  0  2  0  0  0  0  0  0
  184.7280  179.2740  144.8280 C   0  0  0  0  0  2  0  0  0  0  0  0
  181.8270  177.1200  139.6340 C   0  0  0  0  0  0  0  0  0  0  0  0
  181.3670  176.0040  139.9870 O   0  0  0  0  0  0  0  0  0  0  0  0
  183.6060  178.7830  139.7810 C   0  0  0  0  0  0  0  0  0  0  0  0
  181.0740  177.9560  138.6960 C   0  0  0  0  0  3  0  0  0  0  0  0
  182.8790  179.6680  138.7870 C   0  0  0  0  0  2  0  0  0  0  0  0
  183.1130  177.5950  140.1610 C   0  0  0  0  0  0  0  0  0  0  0  0
  183.7950  176.8200  141.0430 F   0  0  0  0  0  0  0  0  0  0  0  0
  181.5580  179.1340  138.2940 C   0  0  0  0  0  0  0  0  0  0  0  0
  181.2140  181.2880  137.3770 O   0  0  0  0  0  1  0  0  0  0  0  0
  180.7620  179.9670  137.3480 C   0  0  0  0  0  2  0  0  0  0  0  0
  189.8760  175.7430  142.9690 C   0  0  0  0  0  2  0  0  0  0  0  0
  191.1340  176.0530  143.4930 O   0  0  0  0  0  1  0  0  0  0  0  0
  1  3  1  6  0  0  0
  1 15  1  0  0  0  0
  1  4  1  0  0  0  0
  2  7  1  0  0  0  0
  2  5  1  0  0  0  0
  4  2  1  0  0  0  0
  5 11  1  0  0  0  0
  6 19  1  0  0  0  0
  7 16  1  0  0  0  0
  8 19  1  0  0  0  0
  9  8  1  0  0  0  0
 10  4  1  0  0  0  0
 10 12  2  0  0  0  0
 11  9  1  0  0  0  0
 12 17  1  0  0  0  0
 13 10  1  0  0  0  0
 14  7  1  0  0  0  0
 15 14  1  0  0  0  0
 16  9  1  0  0  0  0
 16 20  1  0  0  0  0
 17  5  1  0  0  0  0
 17 31  1  0  0  0  0
 18  3  1  0  0  0  0
 18 13  1  0  0  0  0
 20  6  1  0  0  0  0
 21 22  2  0  0  0  0
 21 26  1  0  0  0  0
 23 26  2  0  0  0  0
 23 15  1  0  0  0  0
 24 21  1  0  0  0  0
 25 23  1  0  0  0  0
 26 27  1  0  0  0  0
 28 24  2  0  0  0  0
 28 25  1  0  0  0  0
 30 29  1  0  0  0  0
 30 28  1  0  0  0  0
 31 32  1  0  0  0  0
M  END
>  <MODEL>
5

>  <REMARK>
 VINA RESULT:      -8.1      0.970      2.061
  Name = 
  3 active torsions:
  status: ('A' for Active; 'I' for Inactive)
    1  A    between atoms: C_13  and  C_29
    2  A    between atoms: C_15  and  C_26
    3  A    between atoms: C_16  and  C_27
                            x       y       z     vdW  Elec       q    Type
                         _______ _______ _______ _____ _____    ______ ____

>  <TORSDO>
F 3

$$$$
=
 OpenBabel11052414383D

 32 37  0  0  1  0  0  0  0  0999 V2000
  189.6980  177.7010  141.8770 C   0  0  1  0  0  3  0  0  0  0  0  0
  187.9320  178.3360  143.6190 C   0  0  2  0  0  3  0  0  0  0  0  0
  191.1870  177.7680  141.5370 C   0  0  0  0  0  2  0  0  0  0  0  0
  189.4270  178.3720  143.2350 C   0  0  1  0  0  3  0  0  0  0  0  0
  187.5880  177.3830  144.7820 C   0  0  2  0  0  3  0  0  0  0  0  0
  183.3340  178.9750  142.6130 O   0  0  0  0  0  0  0  0  0  0  0  0
  187.0050  177.9860  142.4600 C   0  0  2  0  0  3  0  0  0  0  0  0
  183.9760  178.2870  144.8480 C   0  0  0  0  0  2  0  0  0  0  0  0
  185.4340  178.2800  144.4210 C   0  0  1  0  0  3  0  0  0  0  0  0
  190.3640  177.8540  144.3090 C   0  0  0  0  0  0  0  0  0  0  0  0
  186.2040  177.3410  145.1520 O   0  0  0  0  0  0  0  0  0  0  0  0
  189.9440  177.5520  145.5490 C   0  0  0  0  0  3  0  0  0  0  0  0
  191.8210  177.7420  143.9740 C   0  0  0  0  0  2  0  0  0  0  0  0
  187.4080  178.7180  141.1820 C   0  0  0  0  0  2  0  0  0  0  0  0
  188.8410  178.3320  140.7530 C   0  0  2  0  0  3  0  0  0  0  0  0
  185.5310  178.0550  142.9010 C   0  0  1  0  0  3  0  0  0  0  0  0
  188.5020  177.6850  145.9680 C   0  0  2  0  0  3  0  0  0  0  0  0
  192.0000  177.0560  142.6180 C   0  0  0  0  0  2  0  0  0  0  0  0
  183.2430  179.3180  143.9790 C   0  0  0  0  0  2  0  0  0  0  0  0
  184.6810  179.1300  142.2190 C   0  0  0  0  0  2  0  0  0  0  0  0
  187.6640  176.5950  137.5620 C   0  0  0  0  0  0  0  0  0  0  0  0
  186.6450  176.5970  136.8240 O   0  0  0  0  0  0  0  0  0  0  0  0
  188.8010  177.4390  139.5480 C   0  0  0  0  0  0  0  0  0  0  0  0
  188.8070  175.7430  137.2260 C   0  0  0  0  0  3  0  0  0  0  0  0
  189.9950  176.5500  139.2590 C   0  0  0  0  0  2  0  0  0  0  0  0
  187.7170  177.4450  138.7590 C   0  0  0  0  0  0  0  0  0  0  0  0
  186.6580  178.2430  139.0520 F   0  0  0  0  0  0  0  0  0  0  0  0
  189.8870  175.7120  138.0100 C   0  0  0  0  0  0  0  0  0  0  0  0
  190.5900  173.5580  137.3290 O   0  0  0  0  0  1  0  0  0  0  0  0
  191.0390  174.8450  137.6330 C   0  0  0  0  0  2  0  0  0  0  0  0
  188.2140  176.7780  147.1600 C   0  0  0  0  0  2  0  0  0  0  0  0
  187.8270  177.5250  148.2750 O   0  0  0  0  0  1  0  0  0  0  0  0
  1  3  1  6  0  0  0
  1  4  1  0  0  0  0
  2  5  1  0  0  0  0
  3 18  1  0  0  0  0
  4  2  1  0  0  0  0
  4 10  1  0  0  0  0
  5 11  1  0  0  0  0
  5 17  1  0  0  0  0
  6 19  1  0  0  0  0
  7 16  1  0  0  0  0
  7  2  1  0  0  0  0
  9  8  1  0  0  0  0
  9 11  1  0  0  0  0
 10 12  2  0  0  0  0
 12 17  1  0  0  0  0
 13 10  1  0  0  0  0
 14  7  1  0  0  0  0
 15 14  1  0  0  0  0
 15  1  1  0  0  0  0
 16  9  1  0  0  0  0
 17 31  1  0  0  0  0
 18 13  1  0  0  0  0
 19  8  1  0  0  0  0
 20  6  1  0  0  0  0
 20 16  1  0  0  0  0
 21 26  1  0  0  0  0
 22 21  2  0  0  0  0
 23 15  1  0  0  0  0
 24 21  1  0  0  0  0
 24 28  2  0  0  0  0
 25 23  1  0  0  0  0
 26 27  1  0  0  0  0
 26 23  2  0  0  0  0
 28 25  1  0  0  0  0
 29 30  1  0  0  0  0
 30 28  1  0  0  0  0
 31 32  1  0  0  0  0
M  END
>  <MODEL>
6

>  <REMARK>
 VINA RESULT:      -8.0      2.926      5.162
  Name = 
  3 active torsions:
  status: ('A' for Active; 'I' for Inactive)
    1  A    between atoms: C_13  and  C_29
    2  A    between atoms: C_15  and  C_26
    3  A    between atoms: C_16  and  C_27
                            x       y       z     vdW  Elec       q    Type
                         _______ _______ _______ _____ _____    ______ ____

>  <TORSDO>
F 3

$$$$
=
 OpenBabel11052414383D

 32 37  0  0  1  0  0  0  0  0999 V2000
  189.7870  177.3770  139.7450 C   0  0  1  0  0  3  0  0  0  0  0  0
  189.2490  177.8930  142.1940 C   0  0  2  0  0  3  0  0  0  0  0  0
  190.8430  177.5220  138.6480 C   0  0  0  0  0  2  0  0  0  0  0  0
  190.2850  178.0090  141.0560 C   0  0  1  0  0  3  0  0  0  0  0  0
  189.6290  176.9040  143.3140 C   0  0  2  0  0  3  0  0  0  0  0  0
  184.8350  178.3270  143.8960 O   0  0  0  0  0  0  0  0  0  0  0  0
  187.8490  177.5200  141.7180 C   0  0  2  0  0  3  0  0  0  0  0  0
  186.6190  177.6300  145.3840 C   0  0  0  0  0  2  0  0  0  0  0  0
  187.6030  177.7010  144.2290 C   0  0  1  0  0  3  0  0  0  0  0  0
  191.6740  177.5170  141.4190 C   0  0  0  0  0  0  0  0  0  0  0  0
  188.6760  176.7880  144.3790 O   0  0  0  0  0  0  0  0  0  0  0  0
  192.0130  177.1730  142.6730 C   0  0  0  0  0  3  0  0  0  0  0  0
  192.7110  177.4820  140.3370 C   0  0  0  0  0  2  0  0  0  0  0  0
  187.4620  178.2930  140.4600 C   0  0  0  0  0  2  0  0  0  0  0  0
  188.4360  177.9850  139.3000 C   0  0  2  0  0  3  0  0  0  0  0  0
  186.8570  177.5090  142.8960 C   0  0  1  0  0  3  0  0  0  0  0  0
  191.0330  177.2280  143.8180 C   0  0  2  0  0  3  0  0  0  0  0  0
  192.1370  176.8310  139.0770 C   0  0  0  0  0  2  0  0  0  0  0  0
  185.4990  178.6390  145.1030 C   0  0  0  0  0  2  0  0  0  0  0  0
  185.7400  178.5540  142.8370 C   0  0  0  0  0  2  0  0  0  0  0  0
  186.0250  176.7390  136.6130 C   0  0  0  0  0  0  0  0  0  0  0  0
  185.0040  177.1610  136.0120 O   0  0  0  0  0  0  0  0  0  0  0  0
  187.7680  177.1140  138.2780 C   0  0  0  0  0  0  0  0  0  0  0  0
  186.5660  175.4160  136.2930 C   0  0  0  0  0  3  0  0  0  0  0  0
  188.3450  175.7380  138.0040 C   0  0  0  0  0  2  0  0  0  0  0  0
  186.6820  177.5660  137.6340 C   0  0  0  0  0  0  0  0  0  0  0  0
  186.1830  178.7980  137.9110 F   0  0  0  0  0  0  0  0  0  0  0  0
  187.6350  174.9430  136.9370 C   0  0  0  0  0  0  0  0  0  0  0  0
  189.3320  173.3360  137.3070 O   0  0  0  0  0  1  0  0  0  0  0  0
  188.1690  173.5980  136.5800 C   0  0  0  0  0  2  0  0  0  0  0  0
  191.4740  176.2870  144.9340 C   0  0  0  0  0  2  0  0  0  0  0  0
  191.8380  177.0020  146.0780 O   0  0  0  0  0  1  0  0  0  0  0  0
  1  3  1  6  0  0  0
  1  4  1  0  0  0  0
  2  5  1  0  0  0  0
  3 18  1  0  0  0  0
  4 10  1  0  0  0  0
  4  2  1  0  0  0  0
  5 17  1  0  0  0  0
  5 11  1  0  0  0  0
  6 19  1  0  0  0  0
  7  2  1  0  0  0  0
  7 16  1  0  0  0  0
  9 11  1  0  0  0  0
  9  8  1  0  0  0  0
 10 12  2  0  0  0  0
 12 17  1  0  0  0  0
 13 10  1  0  0  0  0
 14  7  1  0  0  0  0
 15  1  1  0  0  0  0
 15 14  1  0  0  0  0
 16  9  1  0  0  0  0
 17 31  1  0  0  0  0
 18 13  1  0  0  0  0
 19  8  1  0  0  0  0
 20 16  1  0  0  0  0
 20  6  1  0  0  0  0
 21 26  1  0  0  0  0
 22 21  2  0  0  0  0
 23 15  1  0  0  0  0
 24 21  1  0  0  0  0
 24 28  2  0  0  0  0
 25 23  1  0  0  0  0
 26 27  1  0  0  0  0
 26 23  2  0  0  0  0
 28 25  1  0  0  0  0
 30 28  1  0  0  0  0
 30 29  1  0  0  0  0
 31 32  1  0  0  0  0
M  END
>  <MODEL>
7

>  <REMARK>
 VINA RESULT:      -7.8      2.909      4.052
  Name = 
  3 active torsions:
  status: ('A' for Active; 'I' for Inactive)
    1  A    between atoms: C_13  and  C_29
    2  A    between atoms: C_15  and  C_26
    3  A    between atoms: C_16  and  C_27
                            x       y       z     vdW  Elec       q    Type
                         _______ _______ _______ _____ _____    ______ ____

>  <TORSDO>
F 3

$$$$
=
 OpenBabel11052414383D

 32 37  0  0  1  0  0  0  0  0999 V2000
  182.4760  178.4830  142.4330 C   0  0  1  0  0  3  0  0  0  0  0  0
  182.2530  177.9490  139.9390 C   0  0  2  0  0  3  0  0  0  0  0  0
  181.7650  179.0940  143.6410 C   0  0  0  0  0  2  0  0  0  0  0  0
  181.5750  178.5500  141.1880 C   0  0  1  0  0  3  0  0  0  0  0  0
  181.6610  176.6070  139.4650 C   0  0  2  0  0  3  0  0  0  0  0  0
  185.9500  177.5060  136.9880 O   0  0  0  0  0  0  0  0  0  0  0  0
  183.7580  177.7510  140.0890 C   0  0  2  0  0  3  0  0  0  0  0  0
  183.8870  176.3310  136.4920 C   0  0  0  0  0  2  0  0  0  0  0  0
  183.2670  176.8970  137.7590 C   0  0  1  0  0  3  0  0  0  0  0  0
  180.1890  178.0030  141.4740 C   0  0  0  0  0  0  0  0  0  0  0  0
  182.2800  176.0380  138.3040 O   0  0  0  0  0  0  0  0  0  0  0  0
  179.5410  177.1940  140.6180 C   0  0  0  0  0  3  0  0  0  0  0  0
  179.5070  178.4420  142.7340 C   0  0  0  0  0  2  0  0  0  0  0  0
  184.4150  178.9520  140.7660 C   0  0  0  0  0  2  0  0  0  0  0  0
  183.8390  179.1710  142.1820 C   0  0  2  0  0  3  0  0  0  0  0  0
  184.3730  177.2320  138.7760 C   0  0  1  0  0  3  0  0  0  0  0  0
  180.1480  176.7490  139.3120 C   0  0  2  0  0  3  0  0  0  0  0  0
  180.4680  178.3350  143.9200 C   0  0  0  0  0  2  0  0  0  0  0  0
  184.9480  177.3290  136.0100 C   0  0  0  0  0  2  0  0  0  0  0  0
  185.3650  178.1720  138.0870 C   0  0  0  0  0  2  0  0  0  0  0  0
  185.7150  178.8720  145.4960 C   0  0  0  0  0  0  0  0  0  0  0  0
  185.6370  179.3550  146.6550 O   0  0  0  0  0  0  0  0  0  0  0  0
  184.8420  178.7630  143.2200 C   0  0  0  0  0  0  0  0  0  0  0  0
  186.7640  177.9010  145.1780 C   0  0  0  0  0  3  0  0  0  0  0  0
  185.9310  177.7790  142.8350 C   0  0  0  0  0  2  0  0  0  0  0  0
  184.7570  179.2740  144.4570 C   0  0  0  0  0  0  0  0  0  0  0  0
  183.7780  180.1620  144.7670 F   0  0  0  0  0  0  0  0  0  0  0  0
  186.8750  177.3950  143.9470 C   0  0  0  0  0  0  0  0  0  0  0  0
  189.1150  176.7440  144.3400 O   0  0  0  0  0  1  0  0  0  0  0  0
  187.9450  176.3990  143.6590 C   0  0  0  0  0  2  0  0  0  0  0  0
  179.4940  175.4540  138.8410 C   0  0  0  0  0  2  0  0  0  0  0  0
  179.6600  174.4380  139.7860 O   0  0  0  0  0  1  0  0  0  0  0  0
  1  3  1  1  0  0  0
  2  7  1  0  0  0  0
  2  4  1  0  0  0  0
  3 18  1  0  0  0  0
  4 10  1  0  0  0  0
  4  1  1  0  0  0  0
  5  2  1  0  0  0  0
  6 20  1  0  0  0  0
  7 14  1  0  0  0  0
  8  9  1  0  0  0  0
  9 11  1  0  0  0  0
  9 16  1  0  0  0  0
 10 13  1  0  0  0  0
 11  5  1  0  0  0  0
 12 10  2  0  0  0  0
 13 18  1  0  0  0  0
 14 15  1  0  0  0  0
 15  1  1  0  0  0  0
 15 23  1  0  0  0  0
 16  7  1  0  0  0  0
 17  5  1  0  0  0  0
 17 12  1  0  0  0  0
 19  8  1  0  0  0  0
 19  6  1  0  0  0  0
 20 16  1  0  0  0  0
 21 22  2  0  0  0  0
 23 26  2  0  0  0  0
 24 21  1  0  0  0  0
 25 23  1  0  0  0  0
 25 28  1  0  0  0  0
 26 27  1  0  0  0  0
 26 21  1  0  0  0  0
 28 24  2  0  0  0  0
 30 28  1  0  0  0  0
 30 29  1  0  0  0  0
 31 17  1  0  0  0  0
 31 32  1  0  0  0  0
M  END
>  <MODEL>
8

>  <REMARK>
 VINA RESULT:      -7.2      2.556      7.933
  Name = 
  3 active torsions:
  status: ('A' for Active; 'I' for Inactive)
    1  A    between atoms: C_13  and  C_29
    2  A    between atoms: C_15  and  C_26
    3  A    between atoms: C_16  and  C_27
                            x       y       z     vdW  Elec       q    Type
                         _______ _______ _______ _____ _____    ______ ____

>  <TORSDO>
F 3

$$$$
=
 OpenBabel11052414383D

 32 37  0  0  1  0  0  0  0  0999 V2000
  183.5340  178.6040  142.2850 C   0  0  1  0  0  3  0  0  0  0  0  0
  182.4040  178.0560  140.0540 C   0  0  2  0  0  3  0  0  0  0  0  0
  183.3870  179.3800  143.5950 C   0  0  0  0  0  2  0  0  0  0  0  0
  182.2980  178.8150  141.3940 C   0  0  1  0  0  3  0  0  0  0  0  0
  181.4570  176.8460  139.9220 C   0  0  2  0  0  3  0  0  0  0  0  0
  184.7680  176.7990  136.1300 O   0  0  0  0  0  0  0  0  0  0  0  0
  183.8120  177.5650  139.7320 C   0  0  2  0  0  3  0  0  0  0  0  0
  182.4820  176.0470  136.4310 C   0  0  0  0  0  2  0  0  0  0  0  0
  182.4300  176.7610  137.7720 C   0  0  1  0  0  3  0  0  0  0  0  0
  181.0120  178.5640  142.1580 C   0  0  0  0  0  0  0  0  0  0  0  0
  181.5430  176.1330  138.6810 O   0  0  0  0  0  0  0  0  0  0  0  0
  179.9820  177.8780  141.6330 C   0  0  0  0  0  3  0  0  0  0  0  0
  180.8780  179.1670  143.5230 C   0  0  0  0  0  2  0  0  0  0  0  0
  184.8600  178.6290  140.0490 C   0  0  0  0  0  2  0  0  0  0  0  0
  184.8370  178.9990  141.5480 C   0  0  2  0  0  3  0  0  0  0  0  0
  183.8520  176.8970  138.3460 C   0  0  1  0  0  3  0  0  0  0  0  0
  180.0310  177.2840  140.2480 C   0  0  2  0  0  3  0  0  0  0  0  0
  182.1420  178.9030  144.3440 C   0  0  0  0  0  2  0  0  0  0  0  0
  183.4830  176.7980  135.5440 C   0  0  0  0  0  2  0  0  0  0  0  0
  184.7110  177.5990  137.2910 C   0  0  0  0  0  2  0  0  0  0  0  0
  188.3770  177.7400  142.2300 C   0  0  0  0  0  0  0  0  0  0  0  0
  189.4520  177.5950  141.5910 O   0  0  0  0  0  0  0  0  0  0  0  0
  186.0370  178.4280  142.2440 C   0  0  0  0  0  0  0  0  0  0  0  0
  188.3160  177.3750  143.6470 C   0  0  0  0  0  3  0  0  0  0  0  0
  185.9160  178.0340  143.7030 C   0  0  0  0  0  2  0  0  0  0  0  0
  187.1840  178.2770  141.5640 C   0  0  0  0  0  0  0  0  0  0  0  0
  187.2560  178.6280  140.2540 F   0  0  0  0  0  0  0  0  0  0  0  0
  187.1780  177.5030  144.3340 C   0  0  0  0  0  0  0  0  0  0  0  0
  188.3690  177.4640  146.3790 O   0  0  0  0  0  1  0  0  0  0  0  0
  187.1510  177.1350  145.7780 C   0  0  0  0  0  2  0  0  0  0  0  0
  179.0370  176.1320  140.1340 C   0  0  0  0  0  2  0  0  0  0  0  0
  178.9310  175.4420  141.3430 O   0  0  0  0  0  1  0  0  0  0  0  0
  1  3  1  1  0  0  0
  2  4  1  0  0  0  0
  3 18  1  0  0  0  0
  4 10  1  0  0  0  0
  4  1  1  0  0  0  0
  5  2  1  0  0  0  0
  5 17  1  0  0  0  0
  6 20  1  0  0  0  0
  7 14  1  0  0  0  0
  7  2  1  0  0  0  0
  8  9  1  0  0  0  0
  9 16  1  0  0  0  0
  9 11  1  0  0  0  0
 10 13  1  0  0  0  0
 11  5  1  0  0  0  0
 12 10  2  0  0  0  0
 13 18  1  0  0  0  0
 14 15  1  0  0  0  0
 15 23  1  0  0  0  0
 15  1  1  0  0  0  0
 16  7  1  0  0  0  0
 17 12  1  0  0  0  0
 19  6  1  0  0  0  0
 19  8  1  0  0  0  0
 20 16  1  0  0  0  0
 21 24  1  0  0  0  0
 22 21  2  0  0  0  0
 23 25  1  0  0  0  0
 24 28  2  0  0  0  0
 25 28  1  0  0  0  0
 26 21  1  0  0  0  0
 26 23  2  0  0  0  0
 27 26  1  0  0  0  0
 28 30  1  0  0  0  0
 30 29  1  0  0  0  0
 31 17  1  0  0  0  0
 31 32  1  0  0  0  0
M  END
>  <MODEL>
9

>  <REMARK>
 VINA RESULT:      -7.0      2.389      7.926
  Name = 
  3 active torsions:
  status: ('A' for Active; 'I' for Inactive)
    1  A    between atoms: C_13  and  C_29
    2  A    between atoms: C_15  and  C_26
    3  A    between atoms: C_16  and  C_27
                            x       y       z     vdW  Elec       q    Type
                         _______ _______ _______ _____ _____    ______ ____

>  <TORSDO>
F 3

$$$$
