=
 OpenBabel11052415473D

 34 39  0  0  1  0  0  0  0  0999 V2000
  188.6600  177.3760  141.6900 C   0  0  0  0  0  0  0  0  0  0  0  0
  188.3940  177.2150  145.4760 N   0  0  0  0  0  0  0  0  0  0  0  0
  190.2560  177.1160  144.0780 N   0  0  0  0  0  2  0  0  0  0  0  0
  188.9130  177.8350  139.2660 C   0  0  0  0  0  0  0  0  0  0  0  0
  188.1450  177.8750  140.5450 C   0  0  0  0  0  3  0  0  0  0  0  0
  190.8200  177.1110  140.5310 C   0  0  2  0  0  3  0  0  0  0  0  0
  191.9700  177.5350  140.9460 N   0  0  0  0  0  0  0  0  0  0  0  0
  190.2180  177.5150  139.2580 C   0  0  0  0  0  3  0  0  0  0  0  0
  190.7990  176.9510  142.7730 C   0  0  1  0  0  3  0  0  0  0  0  0
  189.9500  176.6160  141.6250 C   0  0  1  0  0  3  0  0  0  0  0  0
  191.9640  177.4360  142.3710 C   0  0  0  0  0  3  0  0  0  0  0  0
  187.0290  177.2990  145.9630 C   0  0  0  0  0  2  0  0  0  0  0  0
  186.3340  178.5070  145.3850 C   0  0  1  0  0  3  0  0  0  0  0  0
  185.6970  178.0100  144.1100 C   0  0  0  0  0  2  0  0  0  0  0  0
  188.8330  177.2440  144.2490 C   0  0  0  0  0  0  0  0  0  0  0  0
  186.6760  177.8500  142.9930 C   0  0  0  0  0  3  0  0  0  0  0  0
  187.9720  177.4790  143.0140 C   0  0  0  0  0  0  0  0  0  0  0  0
  185.3090  178.9970  146.3070 N   0  0  0  0  0  0  0  0  0  0  0  0
  185.6790  179.7420  147.4030 O   0  0  0  0  0  0  0  0  0  0  0  0
  184.1160  179.0320  145.9390 O   0  0  0  0  0  0  0  0  0  0  0  0
  188.2480  178.2370  137.9930 C   0  0  0  0  0  2  0  0  0  0  0  0
  184.8300  176.9040  137.3860 C   0  0  0  0  0  3  0  0  0  0  0  0
  187.5100  175.9210  137.4250 C   0  0  0  0  0  3  0  0  0  0  0  0
  184.4370  173.1960  136.6150 C   0  0  0  0  0  0  0  0  0  0  0  0
  184.1590  174.6240  136.8740 C   0  0  0  0  0  3  0  0  0  0  0  0
  185.1380  175.4890  137.1310 C   0  0  0  0  0  0  0  0  0  0  0  0
  186.8980  173.5970  136.9180 C   0  0  0  0  0  2  0  0  0  0  0  0
  186.5460  175.0360  137.1650 C   0  0  0  0  0  0  0  0  0  0  0  0
  185.6960  172.7330  136.6360 C   0  0  0  0  0  3  0  0  0  0  0  0
  187.1870  177.3000  137.6650 N   0  0  0  0  0  0  0  0  0  0  0  0
  185.8240  177.7570  137.6400 C   0  0  0  0  0  3  0  0  0  0  0  0
  183.3180  172.2790  136.3310 C   0  0  0  0  0  0  0  0  0  0  0  0
  182.2880  172.6900  135.7320 O   0  0  0  0  0  0  0  0  0  0  0  0
  183.3890  170.9140  136.7340 N   0  0  0  0  0  1  0  0  0  0  0  0
  1 17  1  0  0  0  0
  2 12  1  0  0  0  0
  3 15  1  0  0  0  0
  4  5  1  0  0  0  0
  5  1  2  0  0  0  0
  6  8  1  1  0  0  0
  6  7  1  0  0  0  0
  6 10  1  0  0  0  0
  7 11  2  0  0  0  0
  8  4  2  0  0  0  0
  9 11  1  6  0  0  0
  9  3  1  0  0  0  0
 10  1  1  1  0  0  0
 10  9  1  0  0  0  0
 13 12  1  0  0  0  0
 13 18  1  1  0  0  0
 14 13  1  0  0  0  0
 15  2  2  0  0  0  0
 16 17  2  0  0  0  0
 16 14  1  0  0  0  0
 17 15  1  0  0  0  0
 18 19  2  0  0  0  0
 20 18  2  0  0  0  0
 21  4  1  0  0  0  0
 22 31  2  0  0  0  0
 23 30  1  0  0  0  0
 24 29  2  0  0  0  0
 24 25  1  0  0  0  0
 25 26  2  0  0  0  0
 26 28  1  0  0  0  0
 26 22  1  0  0  0  0
 27 28  1  0  0  0  0
 28 23  2  0  0  0  0
 29 27  1  0  0  0  0
 30 21  1  0  0  0  0
 31 30  1  0  0  0  0
 32 24  1  0  0  0  0
 32 34  1  0  0  0  0
 33 32  2  0  0  0  0
M  END
>  <MODEL>
1

>  <REMARK>
 VINA RESULT:      -9.5      0.000      0.000
  Name = 
  4 active torsions:
  status: ('A' for Active; 'I' for Inactive)
    1  A    between atoms: N_3  and  C_25
    2  A    between atoms: C_7  and  C_11
    3  A    between atoms: C_8  and  C_18
    4  A    between atoms: C_18  and  N_30
                            x       y       z     vdW  Elec       q    Type
                         _______ _______ _______ _____ _____    ______ ____

>  <TORSDO>
F 4

$$$$
=
 OpenBabel11052415473D

 34 39  0  0  1  0  0  0  0  0999 V2000
  183.4790  177.2210  138.9990 C   0  0  0  0  0  0  0  0  0  0  0  0
  183.5440  174.9130  135.9830 N   0  0  0  0  0  0  0  0  0  0  0  0
  185.1200  176.4440  136.7580 N   0  0  0  0  0  2  0  0  0  0  0  0
  183.6350  178.4700  141.1360 C   0  0  0  0  0  0  0  0  0  0  0  0
  183.0520  177.4060  140.2680 C   0  0  0  0  0  3  0  0  0  0  0  0
  185.3030  178.8210  139.4450 C   0  0  2  0  0  3  0  0  0  0  0  0
  186.5620  178.6280  139.2230 N   0  0  0  0  0  0  0  0  0  0  0  0
  184.7500  179.1240  140.7680 C   0  0  0  0  0  3  0  0  0  0  0  0
  185.4470  177.5440  137.6010 C   0  0  1  0  0  3  0  0  0  0  0  0
  184.4280  178.2210  138.4090 C   0  0  1  0  0  3  0  0  0  0  0  0
  186.6630  177.8170  138.0520 C   0  0  0  0  0  3  0  0  0  0  0  0
  182.3390  174.1150  135.8420 C   0  0  0  0  0  2  0  0  0  0  0  0
  182.0360  173.3820  137.1250 C   0  0  1  0  0  3  0  0  0  0  0  0
  181.1500  174.3220  137.9030 C   0  0  0  0  0  2  0  0  0  0  0  0
  183.8450  175.7910  136.8980 C   0  0  0  0  0  0  0  0  0  0  0  0
  181.9050  175.4400  138.5440 C   0  0  0  0  0  3  0  0  0  0  0  0
  182.9970  176.1100  138.1230 C   0  0  0  0  0  0  0  0  0  0  0  0
  181.3290  172.1320  136.8450 N   0  0  0  0  0  0  0  0  0  0  0  0
  181.9350  171.1650  136.0750 O   0  0  0  0  0  0  0  0  0  0  0  0
  180.3540  171.8050  137.5520 O   0  0  0  0  0  0  0  0  0  0  0  0
  183.0230  178.7550  142.4660 C   0  0  0  0  0  2  0  0  0  0  0  0
  184.5680  178.7750  145.8490 C   0  0  0  0  0  3  0  0  0  0  0  0
  185.2910  178.0070  143.1940 C   0  0  0  0  0  3  0  0  0  0  0  0
  188.1450  177.5230  146.2190 C   0  0  0  0  0  0  0  0  0  0  0  0
  186.8030  178.0720  146.5000 C   0  0  0  0  0  3  0  0  0  0  0  0
  185.8960  178.2250  145.5370 C   0  0  0  0  0  0  0  0  0  0  0  0
  187.5630  177.2880  143.7860 C   0  0  0  0  0  2  0  0  0  0  0  0
  186.2150  177.8450  144.1430 C   0  0  0  0  0  0  0  0  0  0  0  0
  188.4860  177.1640  144.9710 C   0  0  0  0  0  3  0  0  0  0  0  0
  183.9970  178.5410  143.5220 N   0  0  0  0  0  0  0  0  0  0  0  0
  183.6720  178.9200  144.8710 C   0  0  0  0  0  3  0  0  0  0  0  0
  189.1130  177.3690  147.3200 C   0  0  0  0  0  0  0  0  0  0  0  0
  189.9800  176.4550  147.2880 O   0  0  0  0  0  0  0  0  0  0  0  0
  189.0770  178.2550  148.4360 N   0  0  0  0  0  1  0  0  0  0  0  0
  1  5  2  0  0  0  0
  2 15  2  0  0  0  0
  3 15  1  0  0  0  0
  3  9  1  0  0  0  0
  4 21  1  0  0  0  0
  5  4  1  0  0  0  0
  6  8  1  1  0  0  0
  7  6  1  0  0  0  0
  8  4  2  0  0  0  0
  9 11  1  1  0  0  0
  9 10  1  0  0  0  0
 10  1  1  1  0  0  0
 10  6  1  0  0  0  0
 11  7  2  0  0  0  0
 12  2  1  0  0  0  0
 12 13  1  0  0  0  0
 13 18  1  6  0  0  0
 13 14  1  0  0  0  0
 14 16  1  0  0  0  0
 15 17  1  0  0  0  0
 17 16  2  0  0  0  0
 17  1  1  0  0  0  0
 18 20  2  0  0  0  0
 19 18  2  0  0  0  0
 21 30  1  0  0  0  0
 23 30  1  0  0  0  0
 23 28  2  0  0  0  0
 24 25  1  0  0  0  0
 24 32  1  0  0  0  0
 26 22  1  0  0  0  0
 26 25  2  0  0  0  0
 27 28  1  0  0  0  0
 27 29  1  0  0  0  0
 28 26  1  0  0  0  0
 29 24  2  0  0  0  0
 30 31  1  0  0  0  0
 31 22  2  0  0  0  0
 32 34  1  0  0  0  0
 33 32  2  0  0  0  0
M  END
>  <MODEL>
2

>  <REMARK>
 VINA RESULT:      -9.3      3.050      9.323
  Name = 
  4 active torsions:
  status: ('A' for Active; 'I' for Inactive)
    1  A    between atoms: N_3  and  C_25
    2  A    between atoms: C_7  and  C_11
    3  A    between atoms: C_8  and  C_18
    4  A    between atoms: C_18  and  N_30
                            x       y       z     vdW  Elec       q    Type
                         _______ _______ _______ _____ _____    ______ ____

>  <TORSDO>
F 4

$$$$
=
 OpenBabel11052415473D

 34 39  0  0  1  0  0  0  0  0999 V2000
  188.9880  177.8850  144.6370 C   0  0  0  0  0  0  0  0  0  0  0  0
  191.8680  177.0530  142.3040 N   0  0  0  0  0  0  0  0  0  0  0  0
  191.6640  176.8120  144.6120 N   0  0  0  0  0  2  0  0  0  0  0  0
  187.0210  178.0740  146.1360 C   0  0  0  0  0  0  0  0  0  0  0  0
  187.6480  177.9750  144.7860 C   0  0  0  0  0  3  0  0  0  0  0  0
  189.1790  177.6060  147.0800 C   0  0  2  0  0  3  0  0  0  0  0  0
  189.8220  176.6690  147.6960 N   0  0  0  0  0  0  0  0  0  0  0  0
  187.7430  177.8490  147.2470 C   0  0  0  0  0  3  0  0  0  0  0  0
  190.9730  177.1170  145.8190 C   0  0  1  0  0  3  0  0  0  0  0  0
  189.8570  178.0670  145.8450 C   0  0  1  0  0  3  0  0  0  0  0  0
  190.9650  176.3520  146.9010 C   0  0  0  0  0  3  0  0  0  0  0  0
  191.5940  177.3730  140.9140 C   0  0  0  0  0  2  0  0  0  0  0  0
  190.2930  176.7500  140.4720 C   0  0  1  0  0  3  0  0  0  0  0  0
  189.2480  177.7960  140.7690 C   0  0  0  0  0  2  0  0  0  0  0  0
  191.1020  177.2060  143.3470 C   0  0  0  0  0  0  0  0  0  0  0  0
  188.8940  177.8720  142.2190 C   0  0  0  0  0  3  0  0  0  0  0  0
  189.6570  177.6870  143.3150 C   0  0  0  0  0  0  0  0  0  0  0  0
  190.3270  176.4580  139.0390 N   0  0  0  0  0  0  0  0  0  0  0  0
  190.1310  177.4740  138.1320 O   0  0  0  0  0  0  0  0  0  0  0  0
  190.8490  175.3960  138.6400 O   0  0  0  0  0  0  0  0  0  0  0  0
  185.5590  178.3430  146.2530 C   0  0  0  0  0  2  0  0  0  0  0  0
  185.2250  178.1600  142.5530 C   0  0  0  0  0  3  0  0  0  0  0  0
  183.5570  178.7090  144.8060 C   0  0  0  0  0  3  0  0  0  0  0  0
  181.8310  178.9090  140.9970 C   0  0  0  0  0  0  0  0  0  0  0  0
  183.2560  178.5670  141.1850 C   0  0  0  0  0  3  0  0  0  0  0  0
  183.8030  178.5030  142.3980 C   0  0  2  0  0  3  0  0  0  0  0  0
  181.5350  179.1400  143.4810 C   0  0  0  0  0  3  0  0  0  0  0  0
  182.9880  178.7780  143.6010 C   0  0  0  0  0  0  0  0  0  0  0  0
  181.0480  179.1690  142.0560 C   0  0  0  0  0  3  0  0  0  0  0  0
  184.9470  178.3660  144.9350 N   0  0  0  0  0  0  0  0  0  0  0  0
  185.7550  178.1000  143.7760 C   0  0  0  0  0  3  0  0  0  0  0  0
  181.2720  178.9630  139.6340 C   0  0  0  0  0  0  0  0  0  0  0  0
  180.1360  178.4750  139.3890 O   0  0  0  0  0  0  0  0  0  0  0  0
  182.0120  179.5680  138.5780 N   0  0  0  0  0  1  0  0  0  0  0  0
  1  5  2  0  0  0  0
  2 15  2  0  0  0  0
  3  9  1  0  0  0  0
  4 21  1  0  0  0  0
  4  8  2  0  0  0  0
  5  4  1  0  0  0  0
  6  8  1  6  0  0  0
  6  7  1  0  0  0  0
  9 10  1  0  0  0  0
  9 11  1  6  0  0  0
 10  1  1  6  0  0  0
 10  6  1  0  0  0  0
 11  7  2  0  0  0  0
 12  2  1  0  0  0  0
 13 18  1  6  0  0  0
 13 14  1  0  0  0  0
 13 12  1  0  0  0  0
 14 16  1  0  0  0  0
 15  3  1  0  0  0  0
 16 17  2  0  0  0  0
 17 15  1  0  0  0  0
 17  1  1  0  0  0  0
 19 18  2  0  0  0  0
 20 18  2  0  0  0  0
 22 31  2  0  0  0  0
 23 30  1  0  0  0  0
 24 25  2  0  0  0  0
 24 29  1  0  0  0  0
 26 25  1  6  0  0  0
 26 22  1  0  0  0  0
 26 28  1  0  0  0  0
 27 28  1  0  0  0  0
 28 23  2  0  0  0  0
 29 27  2  0  0  0  0
 30 21  1  0  0  0  0
 31 30  1  0  0  0  0
 32 24  1  0  0  0  0
 33 32  2  0  0  0  0
 34 32  1  0  0  0  0
M  END
>  <MODEL>
3

>  <REMARK>
 VINA RESULT:      -9.3      4.489      6.906
  Name = 
  4 active torsions:
  status: ('A' for Active; 'I' for Inactive)
    1  A    between atoms: N_3  and  C_25
    2  A    between atoms: C_7  and  C_11
    3  A    between atoms: C_8  and  C_18
    4  A    between atoms: C_18  and  N_30
                            x       y       z     vdW  Elec       q    Type
                         _______ _______ _______ _____ _____    ______ ____

>  <TORSDO>
F 4

$$$$
=
 OpenBabel11052415473D

 34 39  0  0  1  0  0  0  0  0999 V2000
  188.1200  178.0390  139.1590 C   0  0  0  0  0  0  0  0  0  0  0  0
  184.4500  178.6560  138.4000 N   0  0  0  0  0  0  0  0  0  0  0  0
  186.1480  177.7680  137.0740 N   0  0  0  0  0  2  0  0  0  0  0  0
  190.4170  177.2910  139.7230 C   0  0  0  0  0  0  0  0  0  0  0  0
  189.0400  177.7240  140.0990 C   0  0  0  0  0  3  0  0  0  0  0  0
  189.6720  177.1860  137.4430 C   0  0  2  0  0  3  0  0  0  0  0  0
  189.3940  176.3260  136.5170 N   0  0  0  0  0  0  0  0  0  0  0  0
  190.7170  176.9810  138.4500 C   0  0  0  0  0  3  0  0  0  0  0  0
  187.5350  177.5470  136.8470 C   0  0  1  0  0  3  0  0  0  0  0  0
  188.5570  178.1210  137.7270 C   0  0  1  0  0  3  0  0  0  0  0  0
  188.0360  176.5500  136.1330 C   0  0  0  0  0  3  0  0  0  0  0  0
  183.7230  179.2470  139.5090 C   0  0  0  0  0  2  0  0  0  0  0  0
  183.9260  178.4390  140.7660 C   0  0  1  0  0  3  0  0  0  0  0  0
  185.1390  179.0490  141.4230 C   0  0  0  0  0  2  0  0  0  0  0  0
  185.7060  178.3170  138.3280 C   0  0  0  0  0  0  0  0  0  0  0  0
  186.4220  178.6410  140.7740 C   0  0  0  0  0  3  0  0  0  0  0  0
  186.7020  178.3850  139.4810 C   0  0  0  0  0  0  0  0  0  0  0  0
  182.7600  178.5560  141.6430 N   0  0  0  0  0  0  0  0  0  0  0  0
  182.9370  178.8700  142.9710 O   0  0  0  0  0  0  0  0  0  0  0  0
  181.6260  178.7030  141.1430 O   0  0  0  0  0  0  0  0  0  0  0  0
  191.4510  177.1180  140.7840 C   0  0  0  0  0  2  0  0  0  0  0  0
  191.2140  178.2580  144.3160 C   0  0  0  0  0  3  0  0  0  0  0  0
  189.5280  177.0190  142.3730 C   0  0  0  0  0  3  0  0  0  0  0  0
  187.9370  177.7280  146.1800 C   0  0  0  0  0  0  0  0  0  0  0  0
  189.3250  178.1020  145.8380 C   0  0  0  0  0  3  0  0  0  0  0  0
  189.8290  177.8760  144.6260 C   0  0  0  0  0  0  0  0  0  0  0  0
  187.5850  176.8240  143.8620 C   0  0  0  0  0  2  0  0  0  0  0  0
  189.0010  177.2360  143.5800 C   0  0  0  0  0  0  0  0  0  0  0  0
  187.1450  177.1440  145.2680 C   0  0  0  0  0  3  0  0  0  0  0  0
  190.8820  177.4070  142.0890 N   0  0  0  0  0  0  0  0  0  0  0  0
  191.7020  178.0250  143.0960 C   0  0  0  0  0  3  0  0  0  0  0  0
  187.4240  178.0030  147.5350 C   0  0  0  0  0  0  0  0  0  0  0  0
  186.2810  178.5080  147.6960 O   0  0  0  0  0  0  0  0  0  0  0  0
  188.2180  177.6990  148.6780 N   0  0  0  0  0  1  0  0  0  0  0  0
  1 17  1  0  0  0  0
  1  5  2  0  0  0  0
  2 12  1  0  0  0  0
  3 15  1  0  0  0  0
  4  5  1  0  0  0  0
  4 21  1  0  0  0  0
  6 10  1  0  0  0  0
  6  8  1  1  0  0  0
  7  6  1  0  0  0  0
  8  4  2  0  0  0  0
  9 11  1  1  0  0  0
  9  3  1  0  0  0  0
  9 10  1  0  0  0  0
 10  1  1  1  0  0  0
 11  7  2  0  0  0  0
 12 13  1  0  0  0  0
 13 14  1  0  0  0  0
 13 18  1  1  0  0  0
 15  2  2  0  0  0  0
 15 17  1  0  0  0  0
 16 14  1  0  0  0  0
 17 16  2  0  0  0  0
 18 19  2  0  0  0  0
 20 18  2  0  0  0  0
 21 30  1  0  0  0  0
 22 26  1  0  0  0  0
 23 28  2  0  0  0  0
 24 32  1  0  0  0  0
 25 24  1  0  0  0  0
 26 25  2  0  0  0  0
 27 29  1  0  0  0  0
 28 27  1  0  0  0  0
 28 26  1  0  0  0  0
 29 24  2  0  0  0  0
 30 23  1  0  0  0  0
 30 31  1  0  0  0  0
 31 22  2  0  0  0  0
 32 33  2  0  0  0  0
 32 34  1  0  0  0  0
M  END
>  <MODEL>
4

>  <REMARK>
 VINA RESULT:      -9.3      3.072      7.479
  Name = 
  4 active torsions:
  status: ('A' for Active; 'I' for Inactive)
    1  A    between atoms: N_3  and  C_25
    2  A    between atoms: C_7  and  C_11
    3  A    between atoms: C_8  and  C_18
    4  A    between atoms: C_18  and  N_30
                            x       y       z     vdW  Elec       q    Type
                         _______ _______ _______ _____ _____    ______ ____

>  <TORSDO>
F 4

$$$$
=
 OpenBabel11052415473D

 34 39  0  0  1  0  0  0  0  0999 V2000
  188.7300  177.3910  141.6750 C   0  0  0  0  0  0  0  0  0  0  0  0
  188.3890  177.1640  145.4510 N   0  0  0  0  0  0  0  0  0  0  0  0
  190.2750  177.0570  144.0860 N   0  0  0  0  0  2  0  0  0  0  0  0
  189.0370  177.8920  139.2640 C   0  0  0  0  0  0  0  0  0  0  0  0
  188.2460  177.9210  140.5290 C   0  0  0  0  0  3  0  0  0  0  0  0
  190.9070  177.1070  140.5510 C   0  0  2  0  0  3  0  0  0  0  0  0
  192.0550  177.5030  140.9950 N   0  0  0  0  0  0  0  0  0  0  0  0
  190.3370  177.5470  139.2750 C   0  0  0  0  0  3  0  0  0  0  0  0
  190.8400  176.9050  142.7880 C   0  0  1  0  0  3  0  0  0  0  0  0
  190.0070  176.6080  141.6190 C   0  0  1  0  0  3  0  0  0  0  0  0
  192.0210  177.3770  142.4170 C   0  0  0  0  0  3  0  0  0  0  0  0
  187.0160  177.2640  145.9130 C   0  0  0  0  0  2  0  0  0  0  0  0
  186.3550  178.4950  145.3460 C   0  0  1  0  0  3  0  0  0  0  0  0
  185.7340  178.0340  144.0510 C   0  0  0  0  0  2  0  0  0  0  0  0
  188.8510  177.2070  144.2330 C   0  0  0  0  0  0  0  0  0  0  0  0
  186.7310  177.8780  142.9490 C   0  0  0  0  0  3  0  0  0  0  0  0
  188.0180  177.4820  142.9860 C   0  0  0  0  0  0  0  0  0  0  0  0
  185.3210  178.9860  146.2580 N   0  0  0  0  0  0  0  0  0  0  0  0
  185.6810  179.7510  147.3440 O   0  0  0  0  0  0  0  0  0  0  0  0
  184.1300  179.0030  145.8860 O   0  0  0  0  0  0  0  0  0  0  0  0
  188.4040  178.3300  137.9880 C   0  0  0  0  0  2  0  0  0  0  0  0
  186.1760  175.5400  136.9460 C   0  0  0  0  0  3  0  0  0  0  0  0
  185.9110  178.1880  137.9830 C   0  0  0  0  0  3  0  0  0  0  0  0
  182.4090  176.0500  137.1520 C   0  0  0  0  0  0  0  0  0  0  0  0
  183.7460  175.4660  136.9210 C   0  0  0  0  0  3  0  0  0  0  0  0
  184.8590  176.1480  137.1870 C   0  0  2  0  0  3  0  0  0  0  0  0
  183.4560  178.1800  137.9760 C   0  0  0  0  0  3  0  0  0  0  0  0
  184.7830  177.5240  137.7250 C   0  0  0  0  0  0  0  0  0  0  0  0
  182.2840  177.2950  137.6370 C   0  0  0  0  0  3  0  0  0  0  0  0
  187.1880  177.5720  137.7450 N   0  0  0  0  0  0  0  0  0  0  0  0
  187.2810  176.2380  137.2190 C   0  0  0  0  0  3  0  0  0  0  0  0
  181.2070  175.2530  136.8460 C   0  0  0  0  0  0  0  0  0  0  0  0
  180.2320  175.2320  137.6460 O   0  0  0  0  0  0  0  0  0  0  0  0
  181.1340  174.4980  135.6410 N   0  0  0  0  0  1  0  0  0  0  0  0
  1 17  1  0  0  0  0
  2 12  1  0  0  0  0
  3 15  1  0  0  0  0
  4  8  2  0  0  0  0
  4  5  1  0  0  0  0
  5  1  2  0  0  0  0
  6  8  1  1  0  0  0
  6  7  1  0  0  0  0
  6 10  1  0  0  0  0
  7 11  2  0  0  0  0
  9 11  1  6  0  0  0
  9  3  1  0  0  0  0
 10  1  1  1  0  0  0
 10  9  1  0  0  0  0
 13 12  1  0  0  0  0
 13 18  1  1  0  0  0
 14 13  1  0  0  0  0
 15  2  2  0  0  0  0
 16 17  2  0  0  0  0
 16 14  1  0  0  0  0
 17 15  1  0  0  0  0
 18 19  2  0  0  0  0
 20 18  2  0  0  0  0
 21  4  1  0  0  0  0
 22 26  1  0  0  0  0
 22 31  2  0  0  0  0
 24 29  1  0  0  0  0
 25 24  2  0  0  0  0
 26 25  1  6  0  0  0
 26 28  1  0  0  0  0
 28 27  1  0  0  0  0
 28 23  2  0  0  0  0
 29 27  2  0  0  0  0
 30 23  1  0  0  0  0
 30 21  1  0  0  0  0
 31 30  1  0  0  0  0
 32 24  1  0  0  0  0
 32 33  2  0  0  0  0
 34 32  1  0  0  0  0
M  END
>  <MODEL>
5

>  <REMARK>
 VINA RESULT:      -9.1      1.388      2.133
  Name = 
  4 active torsions:
  status: ('A' for Active; 'I' for Inactive)
    1  A    between atoms: N_3  and  C_25
    2  A    between atoms: C_7  and  C_11
    3  A    between atoms: C_8  and  C_18
    4  A    between atoms: C_18  and  N_30
                            x       y       z     vdW  Elec       q    Type
                         _______ _______ _______ _____ _____    ______ ____

>  <TORSDO>
F 4

$$$$
=
 OpenBabel11052415473D

 34 39  0  0  1  0  0  0  0  0999 V2000
  189.3750  177.7990  143.6030 C   0  0  0  0  0  0  0  0  0  0  0  0
  190.6800  177.5040  140.0480 N   0  0  0  0  0  0  0  0  0  0  0  0
  191.5980  176.7910  142.0670 N   0  0  0  0  0  2  0  0  0  0  0  0
  188.4050  177.6470  145.8810 C   0  0  0  0  0  0  0  0  0  0  0  0
  188.2880  177.8370  144.4060 C   0  0  0  0  0  3  0  0  0  0  0  0
  190.6980  177.0260  145.5360 C   0  0  2  0  0  3  0  0  0  0  0  0
  191.4730  175.9910  145.5700 N   0  0  0  0  0  0  0  0  0  0  0  0
  189.5510  177.2080  146.4290 C   0  0  0  0  0  3  0  0  0  0  0  0
  191.6070  176.8320  143.4900 C   0  0  1  0  0  3  0  0  0  0  0  0
  190.7330  177.7410  144.2370 C   0  0  1  0  0  3  0  0  0  0  0  0
  192.0560  175.8610  144.2720 C   0  0  0  0  0  3  0  0  0  0  0  0
  189.7980  178.1000  139.0590 C   0  0  0  0  0  2  0  0  0  0  0  0
  188.3960  177.5630  139.2080 C   0  0  1  0  0  3  0  0  0  0  0  0
  187.7230  178.5100  140.1690 C   0  0  0  0  0  2  0  0  0  0  0  0
  190.5320  177.4290  141.3400 C   0  0  0  0  0  0  0  0  0  0  0  0
  188.1230  178.2810  141.5900 C   0  0  0  0  0  3  0  0  0  0  0  0
  189.3000  177.8860  142.1130 C   0  0  0  0  0  0  0  0  0  0  0  0
  187.7060  177.5720  137.9170 N   0  0  0  0  0  0  0  0  0  0  0  0
  187.1290  176.4150  137.4460 O   0  0  0  0  0  0  0  0  0  0  0  0
  187.3560  178.6600  137.4150 O   0  0  0  0  0  0  0  0  0  0  0  0
  187.2120  177.8660  146.7490 C   0  0  0  0  0  2  0  0  0  0  0  0
  183.7890  179.0030  145.8440 C   0  0  0  0  0  3  0  0  0  0  0  0
  186.0790  177.9190  144.5250 C   0  0  0  0  0  3  0  0  0  0  0  0
  182.6890  178.7370  142.2080 C   0  0  0  0  0  0  0  0  0  0  0  0
  182.7150  178.9960  143.6630 C   0  0  0  0  0  3  0  0  0  0  0  0
  183.7940  178.7350  144.3980 C   0  0  0  0  0  0  0  0  0  0  0  0
  185.0480  177.8780  142.2960 C   0  0  0  0  0  2  0  0  0  0  0  0
  185.0090  178.1720  143.7690 C   0  0  0  0  0  0  0  0  0  0  0  0
  183.7640  178.2250  141.5890 C   0  0  0  0  0  3  0  0  0  0  0  0
  186.0540  178.1940  145.9360 N   0  0  0  0  0  0  0  0  0  0  0  0
  184.8800  178.7360  146.5640 C   0  0  0  0  0  3  0  0  0  0  0  0
  181.4710  179.0460  141.4370 C   0  0  0  0  0  0  0  0  0  0  0  0
  181.3070  178.5700  140.2820 O   0  0  0  0  0  0  0  0  0  0  0  0
  180.4640  179.8880  141.9920 N   0  0  0  0  0  1  0  0  0  0  0  0
  1  5  2  0  0  0  0
  2 15  2  0  0  0  0
  3  9  1  0  0  0  0
  4  8  2  0  0  0  0
  4 21  1  0  0  0  0
  5  4  1  0  0  0  0
  6  7  1  0  0  0  0
  6  8  1  6  0  0  0
  9 10  1  0  0  0  0
  9 11  1  1  0  0  0
 10  1  1  6  0  0  0
 10  6  1  0  0  0  0
 11  7  2  0  0  0  0
 12 13  1  0  0  0  0
 12  2  1  0  0  0  0
 13 18  1  6  0  0  0
 13 14  1  0  0  0  0
 14 16  1  0  0  0  0
 15  3  1  0  0  0  0
 15 17  1  0  0  0  0
 16 17  2  0  0  0  0
 17  1  1  0  0  0  0
 19 18  2  0  0  0  0
 20 18  2  0  0  0  0
 22 31  2  0  0  0  0
 23 30  1  0  0  0  0
 24 25  1  0  0  0  0
 25 26  2  0  0  0  0
 26 22  1  0  0  0  0
 27 28  1  0  0  0  0
 28 26  1  0  0  0  0
 28 23  2  0  0  0  0
 29 24  2  0  0  0  0
 29 27  1  0  0  0  0
 30 31  1  0  0  0  0
 30 21  1  0  0  0  0
 32 34  1  0  0  0  0
 32 24  1  0  0  0  0
 33 32  2  0  0  0  0
M  END
>  <MODEL>
6

>  <REMARK>
 VINA RESULT:      -9.1      3.873      6.874
  Name = 
  4 active torsions:
  status: ('A' for Active; 'I' for Inactive)
    1  A    between atoms: N_3  and  C_25
    2  A    between atoms: C_7  and  C_11
    3  A    between atoms: C_8  and  C_18
    4  A    between atoms: C_18  and  N_30
                            x       y       z     vdW  Elec       q    Type
                         _______ _______ _______ _____ _____    ______ ____

>  <TORSDO>
F 4

$$$$
=
 OpenBabel11052415473D

 34 39  0  0  1  0  0  0  0  0999 V2000
  189.1280  177.7610  144.4400 C   0  0  0  0  0  0  0  0  0  0  0  0
  191.9070  177.2150  141.9080 N   0  0  0  0  0  0  0  0  0  0  0  0
  191.8900  176.9620  144.2240 N   0  0  0  0  0  2  0  0  0  0  0  0
  187.2620  177.7560  146.0740 C   0  0  0  0  0  0  0  0  0  0  0  0
  187.7990  177.7170  144.6820 C   0  0  0  0  0  3  0  0  0  0  0  0
  189.5160  177.5100  146.8620 C   0  0  2  0  0  3  0  0  0  0  0  0
  190.2920  176.6430  147.4280 N   0  0  0  0  0  0  0  0  0  0  0  0
  188.0790  177.6070  147.1310 C   0  0  0  0  0  3  0  0  0  0  0  0
  191.2590  177.1990  145.4770 C   0  0  1  0  0  3  0  0  0  0  0  0
  190.0570  178.0330  145.5850 C   0  0  1  0  0  3  0  0  0  0  0  0
  191.4030  176.4400  146.5540 C   0  0  0  0  0  3  0  0  0  0  0  0
  191.5060  177.5020  140.5420 C   0  0  0  0  0  2  0  0  0  0  0  0
  190.2470  176.7510  140.1900 C   0  0  1  0  0  3  0  0  0  0  0  0
  189.1250  177.6880  140.5630 C   0  0  0  0  0  2  0  0  0  0  0  0
  191.2050  177.2940  143.0030 C   0  0  0  0  0  0  0  0  0  0  0  0
  188.8670  177.7320  142.0340 C   0  0  0  0  0  3  0  0  0  0  0  0
  189.7190  177.6280  143.0730 C   0  0  0  0  0  0  0  0  0  0  0  0
  190.2090  176.4600  138.7560 N   0  0  0  0  0  0  0  0  0  0  0  0
  190.0850  177.4920  137.8550 O   0  0  0  0  0  0  0  0  0  0  0  0
  190.6140  175.3540  138.3420 O   0  0  0  0  0  0  0  0  0  0  0  0
  185.7920  177.8780  146.2930 C   0  0  0  0  0  2  0  0  0  0  0  0
  183.1210  179.0010  143.9620 C   0  0  0  0  0  3  0  0  0  0  0  0
  185.8310  178.1120  143.8080 C   0  0  0  0  0  3  0  0  0  0  0  0
  183.8720  179.0530  140.2290 C   0  0  0  0  0  0  0  0  0  0  0  0
  183.1960  179.1730  141.5380 C   0  0  0  0  0  3  0  0  0  0  0  0
  183.8210  178.8730  142.6750 C   0  0  0  0  0  0  0  0  0  0  0  0
  185.9690  178.2550  141.3600 C   0  0  0  0  0  2  0  0  0  0  0  0
  185.2250  178.4070  142.6560 C   0  0  0  0  0  0  0  0  0  0  0  0
  185.1450  178.6330  140.1570 C   0  0  0  0  0  3  0  0  0  0  0  0
  185.1300  178.2500  145.0550 N   0  0  0  0  0  0  0  0  0  0  0  0
  183.7640  178.6980  145.0910 C   0  0  0  0  0  3  0  0  0  0  0  0
  183.1380  179.4010  138.9990 C   0  0  0  0  0  0  0  0  0  0  0  0
  182.8430  180.6000  138.7460 O   0  0  0  0  0  0  0  0  0  0  0  0
  182.7540  178.3820  138.0800 N   0  0  0  0  0  1  0  0  0  0  0  0
  1  5  2  0  0  0  0
  2 15  2  0  0  0  0
  3  9  1  0  0  0  0
  4 21  1  0  0  0  0
  4  8  2  0  0  0  0
  5  4  1  0  0  0  0
  6  8  1  6  0  0  0
  6  7  1  0  0  0  0
  9 10  1  0  0  0  0
  9 11  1  6  0  0  0
 10  1  1  6  0  0  0
 10  6  1  0  0  0  0
 11  7  2  0  0  0  0
 12  2  1  0  0  0  0
 13 18  1  6  0  0  0
 13 12  1  0  0  0  0
 13 14  1  0  0  0  0
 14 16  1  0  0  0  0
 15 17  1  0  0  0  0
 15  3  1  0  0  0  0
 16 17  2  0  0  0  0
 17  1  1  0  0  0  0
 19 18  2  0  0  0  0
 20 18  2  0  0  0  0
 22 31  2  0  0  0  0
 23 30  1  0  0  0  0
 24 25  1  0  0  0  0
 25 26  2  0  0  0  0
 26 22  1  0  0  0  0
 27 28  1  0  0  0  0
 28 26  1  0  0  0  0
 28 23  2  0  0  0  0
 29 24  2  0  0  0  0
 29 27  1  0  0  0  0
 30 31  1  0  0  0  0
 30 21  1  0  0  0  0
 32 24  1  0  0  0  0
 33 32  2  0  0  0  0
 34 32  1  0  0  0  0
M  END
>  <MODEL>
7

>  <REMARK>
 VINA RESULT:      -9.0      4.202      6.647
  Name = 
  4 active torsions:
  status: ('A' for Active; 'I' for Inactive)
    1  A    between atoms: N_3  and  C_25
    2  A    between atoms: C_7  and  C_11
    3  A    between atoms: C_8  and  C_18
    4  A    between atoms: C_18  and  N_30
                            x       y       z     vdW  Elec       q    Type
                         _______ _______ _______ _____ _____    ______ ____

>  <TORSDO>
F 4

$$$$
=
 OpenBabel11052415473D

 34 39  0  0  1  0  0  0  0  0999 V2000
  184.2000  178.4260  141.6880 C   0  0  0  0  0  0  0  0  0  0  0  0
  185.2830  178.3090  138.0490 N   0  0  0  0  0  0  0  0  0  0  0  0
  183.2210  178.8210  139.0040 N   0  0  0  0  0  2  0  0  0  0  0  0
  183.5490  178.8640  144.0410 C   0  0  0  0  0  0  0  0  0  0  0  0
  184.5660  178.6750  142.9650 C   0  0  0  0  0  3  0  0  0  0  0  0
  181.8660  178.8940  142.3290 C   0  0  2  0  0  3  0  0  0  0  0  0
  181.0560  179.7080  141.7340 N   0  0  0  0  0  0  0  0  0  0  0  0
  182.2490  179.0200  143.7380 C   0  0  0  0  0  3  0  0  0  0  0  0
  182.3610  178.8120  140.1390 C   0  0  1  0  0  3  0  0  0  0  0  0
  182.7540  178.1630  141.3940 C   0  0  1  0  0  3  0  0  0  0  0  0
  181.3640  179.6610  140.3400 C   0  0  0  0  0  3  0  0  0  0  0  0
  186.6730  177.9260  137.8730 C   0  0  0  0  0  2  0  0  0  0  0  0
  187.5730  178.7940  138.7170 C   0  0  1  0  0  3  0  0  0  0  0  0
  187.6870  178.0640  140.0320 C   0  0  0  0  0  2  0  0  0  0  0  0
  184.6030  178.4480  139.1510 C   0  0  0  0  0  0  0  0  0  0  0  0
  186.4770  178.2200  140.8930 C   0  0  0  0  0  3  0  0  0  0  0  0
  185.1750  178.3260  140.5590 C   0  0  0  0  0  0  0  0  0  0  0  0
  188.8900  178.9260  138.0920 N   0  0  0  0  0  0  0  0  0  0  0  0
  189.8170  177.9210  138.2430 O   0  0  0  0  0  0  0  0  0  0  0  0
  189.0550  179.7560  137.1740 O   0  0  0  0  0  0  0  0  0  0  0  0
  183.9890  178.9650  145.4620 C   0  0  0  0  0  2  0  0  0  0  0  0
  187.2540  177.4060  144.5970 C   0  0  0  0  0  3  0  0  0  0  0  0
  186.0490  178.6890  146.8460 C   0  0  0  0  0  3  0  0  0  0  0  0
  189.9690  177.2780  147.2630 C   0  0  0  0  0  0  0  0  0  0  0  0
  189.2200  177.1250  145.9980 C   0  0  0  0  0  3  0  0  0  0  0  0
  187.9730  177.5750  145.8680 C   0  0  2  0  0  3  0  0  0  0  0  0
  187.9990  178.4280  148.3160 C   0  0  0  0  0  3  0  0  0  0  0  0
  187.2980  178.2460  147.0000 C   0  0  0  0  0  0  0  0  0  0  0  0
  189.4020  177.8780  148.3210 C   0  0  0  0  0  3  0  0  0  0  0  0
  185.3660  178.5190  145.5930 N   0  0  0  0  0  0  0  0  0  0  0  0
  186.0050  177.8650  144.4840 C   0  0  0  0  0  3  0  0  0  0  0  0
  191.3480  176.7660  147.3560 C   0  0  0  0  0  0  0  0  0  0  0  0
  192.0480  176.9950  148.3790 O   0  0  0  0  0  0  0  0  0  0  0  0
  191.9060  176.0070  146.2880 N   0  0  0  0  0  1  0  0  0  0  0  0
  1  5  2  0  0  0  0
  2 15  2  0  0  0  0
  3 15  1  0  0  0  0
  3  9  1  0  0  0  0
  4 21  1  0  0  0  0
  5  4  1  0  0  0  0
  6  8  1  1  0  0  0
  7  6  1  0  0  0  0
  8  4  2  0  0  0  0
  9 11  1  1  0  0  0
  9 10  1  0  0  0  0
 10  1  1  1  0  0  0
 10  6  1  0  0  0  0
 11  7  2  0  0  0  0
 12  2  1  0  0  0  0
 12 13  1  0  0  0  0
 13 18  1  6  0  0  0
 13 14  1  0  0  0  0
 14 16  1  0  0  0  0
 15 17  1  0  0  0  0
 17 16  2  0  0  0  0
 17  1  1  0  0  0  0
 18 19  2  0  0  0  0
 20 18  2  0  0  0  0
 21 30  1  0  0  0  0
 23 28  2  0  0  0  0
 24 32  1  0  0  0  0
 24 29  1  0  0  0  0
 25 24  2  0  0  0  0
 26 22  1  1  0  0  0
 26 25  1  0  0  0  0
 26 28  1  0  0  0  0
 27 29  2  0  0  0  0
 28 27  1  0  0  0  0
 30 23  1  0  0  0  0
 31 22  2  0  0  0  0
 31 30  1  0  0  0  0
 32 33  2  0  0  0  0
 34 32  1  0  0  0  0
M  END
>  <MODEL>
8

>  <REMARK>
 VINA RESULT:      -9.0      4.087      9.538
  Name = 
  4 active torsions:
  status: ('A' for Active; 'I' for Inactive)
    1  A    between atoms: N_3  and  C_25
    2  A    between atoms: C_7  and  C_11
    3  A    between atoms: C_8  and  C_18
    4  A    between atoms: C_18  and  N_30
                            x       y       z     vdW  Elec       q    Type
                         _______ _______ _______ _____ _____    ______ ____

>  <TORSDO>
F 4

$$$$
=
 OpenBabel11052415473D

 34 39  0  0  1  0  0  0  0  0999 V2000
  188.6070  177.3760  142.0040 C   0  0  0  0  0  0  0  0  0  0  0  0
  188.5850  177.0970  145.7920 N   0  0  0  0  0  0  0  0  0  0  0  0
  190.3490  177.0070  144.2720 N   0  0  0  0  0  2  0  0  0  0  0  0
  188.7120  177.9090  139.5840 C   0  0  0  0  0  0  0  0  0  0  0  0
  188.0300  177.9220  140.9110 C   0  0  0  0  0  3  0  0  0  0  0  0
  190.6810  177.1060  140.6980 C   0  0  2  0  0  3  0  0  0  0  0  0
  191.8640  177.4940  141.0490 N   0  0  0  0  0  0  0  0  0  0  0  0
  190.0070  177.5640  139.4800 C   0  0  0  0  0  3  0  0  0  0  0  0
  190.8020  176.8740  142.9300 C   0  0  1  0  0  3  0  0  0  0  0  0
  189.8740  176.5930  141.8310 C   0  0  1  0  0  3  0  0  0  0  0  0
  191.9490  177.3490  142.4670 C   0  0  0  0  0  3  0  0  0  0  0  0
  187.2560  177.1920  146.3690 C   0  0  0  0  0  2  0  0  0  0  0  0
  186.5510  178.4320  145.8760 C   0  0  1  0  0  3  0  0  0  0  0  0
  185.8230  177.9890  144.6320 C   0  0  0  0  0  2  0  0  0  0  0  0
  188.9430  177.1570  144.5410 C   0  0  0  0  0  0  0  0  0  0  0  0
  186.7230  177.8470  143.4480 C   0  0  0  0  0  3  0  0  0  0  0  0
  188.0090  177.4490  143.3720 C   0  0  0  0  0  0  0  0  0  0  0  0
  185.5990  178.9120  146.8790 N   0  0  0  0  0  0  0  0  0  0  0  0
  185.9030  180.0250  147.6280 O   0  0  0  0  0  0  0  0  0  0  0  0
  184.4100  178.5350  146.8280 O   0  0  0  0  0  0  0  0  0  0  0  0
  187.9750  178.3660  138.3710 C   0  0  0  0  0  2  0  0  0  0  0  0
  184.5460  177.1780  137.5550 C   0  0  0  0  0  3  0  0  0  0  0  0
  185.8580  178.5660  139.6790 C   0  0  0  0  0  3  0  0  0  0  0  0
  181.7390  177.8970  140.0260 C   0  0  0  0  0  0  0  0  0  0  0  0
  182.5030  177.4360  138.8480 C   0  0  0  0  0  3  0  0  0  0  0  0
  183.8130  177.6490  138.7400 C   0  0  2  0  0  3  0  0  0  0  0  0
  183.8290  178.8660  141.0300 C   0  0  0  0  0  3  0  0  0  0  0  0
  184.5450  178.3630  139.8090 C   0  0  0  0  0  0  0  0  0  0  0  0
  182.3550  178.5520  141.0230 C   0  0  0  0  0  3  0  0  0  0  0  0
  186.5550  178.0920  138.5150 N   0  0  0  0  0  0  0  0  0  0  0  0
  185.8590  177.4000  137.4650 C   0  0  0  0  0  3  0  0  0  0  0  0
  180.2910  177.6330  140.1010 C   0  0  0  0  0  0  0  0  0  0  0  0
  179.7210  176.9360  139.2190 O   0  0  0  0  0  0  0  0  0  0  0  0
  179.5190  178.1650  141.1730 N   0  0  0  0  0  1  0  0  0  0  0  0
  1 17  1  0  0  0  0
  2 12  1  0  0  0  0
  3 15  1  0  0  0  0
  4  5  1  0  0  0  0
  5  1  2  0  0  0  0
  6  8  1  1  0  0  0
  6  7  1  0  0  0  0
  6 10  1  0  0  0  0
  7 11  2  0  0  0  0
  8  4  2  0  0  0  0
  9 11  1  6  0  0  0
  9  3  1  0  0  0  0
 10  1  1  1  0  0  0
 10  9  1  0  0  0  0
 13 12  1  0  0  0  0
 13 18  1  1  0  0  0
 14 13  1  0  0  0  0
 15  2  2  0  0  0  0
 16 14  1  0  0  0  0
 17 16  2  0  0  0  0
 17 15  1  0  0  0  0
 18 19  2  0  0  0  0
 20 18  2  0  0  0  0
 21 30  1  0  0  0  0
 21  4  1  0  0  0  0
 23 28  2  0  0  0  0
 24 32  1  0  0  0  0
 24 29  1  0  0  0  0
 25 24  2  0  0  0  0
 26 22  1  6  0  0  0
 26 25  1  0  0  0  0
 26 28  1  0  0  0  0
 28 27  1  0  0  0  0
 29 27  2  0  0  0  0
 30 23  1  0  0  0  0
 31 22  2  0  0  0  0
 31 30  1  0  0  0  0
 32 34  1  0  0  0  0
 33 32  2  0  0  0  0
M  END
>  <MODEL>
9

>  <REMARK>
 VINA RESULT:      -8.9      2.490      3.439
  Name = 
  4 active torsions:
  status: ('A' for Active; 'I' for Inactive)
    1  A    between atoms: N_3  and  C_25
    2  A    between atoms: C_7  and  C_11
    3  A    between atoms: C_8  and  C_18
    4  A    between atoms: C_18  and  N_30
                            x       y       z     vdW  Elec       q    Type
                         _______ _______ _______ _____ _____    ______ ____

>  <TORSDO>
F 4

$$$$
