=
 OpenBabel11052414403D

 32 37  0  0  1  0  0  0  0  0999 V2000
  189.8020  177.1400  142.9950 C   0  0  0  0  0  0  0  0  0  0  0  0
  187.9640  178.0170  144.4200 C   0  0  2  0  0  3  0  0  0  0  0  0
  191.0960  176.6250  142.8500 C   0  0  0  0  0  3  0  0  0  0  0  0
  189.2890  177.3490  144.2850 C   0  0  0  0  0  0  0  0  0  0  0  0
  187.3470  177.8560  145.7800 C   0  0  0  0  0  0  0  0  0  0  0  0
  183.5430  178.8490  142.6100 C   0  0  0  0  0  3  0  0  0  0  0  0
  187.0330  177.4900  143.3340 C   0  0  2  0  0  3  0  0  0  0  0  0
  183.9180  178.8360  145.0080 C   0  0  0  0  0  3  0  0  0  0  0  0
  185.2140  178.3540  144.8050 C   0  0  0  0  0  0  0  0  0  0  0  0
  190.0360  177.0200  145.4250 C   0  0  0  0  0  0  0  0  0  0  0  0
  186.0710  178.0850  145.9340 N   0  0  0  0  0  0  0  0  0  0  0  0
  189.4610  177.1750  146.7360 N   0  0  0  0  0  0  0  0  0  0  0  0
  191.3250  176.5010  145.2700 C   0  0  0  0  0  3  0  0  0  0  0  0
  187.6510  177.6830  142.0160 N   0  0  0  0  0  0  0  0  0  0  0  0
  188.9280  177.4580  141.8300 C   0  0  0  0  0  0  0  0  0  0  0  0
  185.6790  178.1230  143.4890 C   0  0  0  0  0  0  0  0  0  0  0  0
  188.2250  177.5510  146.9310 C   0  0  0  0  0  0  0  0  0  0  0  0
  191.8550  176.3110  143.9860 C   0  0  0  0  0  3  0  0  0  0  0  0
  183.0860  179.0890  143.9110 C   0  0  0  0  0  3  0  0  0  0  0  0
  184.8330  178.3560  142.3980 C   0  0  0  0  0  3  0  0  0  0  0  0
  187.8020  177.2670  138.5960 C   0  0  1  0  0  3  0  0  0  0  0  0
  190.5310  175.9310  136.5160 O   0  0  0  0  0  0  0  0  0  0  0  0
  186.4940  177.8440  138.0930 C   0  0  0  0  0  1  0  0  0  0  0  0
  190.8110  176.5550  138.7890 C   0  0  0  0  0  2  0  0  0  0  0  0
  189.5190  177.6160  140.4630 C   0  0  1  0  0  3  0  0  0  0  0  0
  188.6400  176.8910  137.4580 N   0  0  0  0  0  2  0  0  0  0  0  0
  190.0030  176.3230  139.9750 N   0  0  0  0  0  2  0  0  0  0  0  0
  188.4980  178.2710  139.5200 C   0  0  1  0  0  3  0  0  0  0  0  0
  189.1040  179.2970  138.7880 O   0  0  0  0  0  1  0  0  0  0  0  0
  189.9890  176.4130  137.5430 C   0  0  0  0  0  0  0  0  0  0  0  0
  187.7090  177.6490  148.2610 N   0  0  0  0  0  2  0  0  0  0  0  0
  188.3740  178.1790  149.1750 O   0  0  0  0  0  1  0  0  0  0  0  0
  1  4  1  0  0  0  0
  2  4  1  1  0  0  0
  2  5  1  0  0  0  0
  3  1  2  0  0  0  0
  3 18  1  0  0  0  0
  4 10  2  0  0  0  0
  5 11  2  0  0  0  0
  5 17  1  0  0  0  0
  6 19  1  0  0  0  0
  7 14  1  6  0  0  0
  7 16  1  0  0  0  0
  7  2  1  0  0  0  0
  9  8  1  0  0  0  0
  9 11  1  0  0  0  0
 10 12  1  0  0  0  0
 12 17  2  0  0  0  0
 13 10  1  0  0  0  0
 15 14  2  0  0  0  0
 15  1  1  0  0  0  0
 16  9  2  0  0  0  0
 17 31  1  0  0  0  0
 18 13  2  0  0  0  0
 19  8  2  0  0  0  0
 20  6  2  0  0  0  0
 20 16  1  0  0  0  0
 21 23  1  6  0  0  0
 21 28  1  0  0  0  0
 22 30  2  0  0  0  0
 24 27  1  0  0  0  0
 25 15  1  1  0  0  0
 26 30  1  0  0  0  0
 26 21  1  0  0  0  0
 27 25  1  0  0  0  0
 28 29  1  6  0  0  0
 28 25  1  0  0  0  0
 30 24  1  0  0  0  0
 31 32  1  0  0  0  0
M  END
>  <MODEL>
1

>  <REMARK>
 VINA RESULT:     -11.8      0.000      0.000
  Name = 
  2 active torsions:
  status: ('A' for Active; 'I' for Inactive)
    1  A    between atoms: N_13  and  C_29
    2  A    between atoms: C_16  and  C_27
                            x       y       z     vdW  Elec       q    Type
                         _______ _______ _______ _____ _____    ______ ____

>  <TORSDO>
F 2

$$$$
=
 OpenBabel11052414403D

 32 37  0  0  1  0  0  0  0  0999 V2000
  184.6760  178.7390  142.9260 C   0  0  0  0  0  0  0  0  0  0  0  0
  186.9320  177.7050  142.7940 C   0  0  2  0  0  3  0  0  0  0  0  0
  183.5550  179.1380  143.6650 C   0  0  0  0  0  3  0  0  0  0  0  0
  185.8010  178.2430  143.6020 C   0  0  0  0  0  0  0  0  0  0  0  0
  188.2080  177.5550  143.5740 C   0  0  0  0  0  0  0  0  0  0  0  0
  189.5450  177.8540  138.7130 C   0  0  0  0  0  3  0  0  0  0  0  0
  187.1380  178.5990  141.5780 C   0  0  2  0  0  3  0  0  0  0  0  0
  190.5610  177.1790  140.8110 C   0  0  0  0  0  3  0  0  0  0  0  0
  189.4050  177.5620  141.4970 C   0  0  0  0  0  0  0  0  0  0  0  0
  185.8340  178.1740  145.0020 C   0  0  0  0  0  0  0  0  0  0  0  0
  189.3360  177.4260  142.9320 N   0  0  0  0  0  0  0  0  0  0  0  0
  187.0260  177.7300  145.6760 N   0  0  0  0  0  0  0  0  0  0  0  0
  184.7120  178.5790  145.7320 C   0  0  0  0  0  3  0  0  0  0  0  0
  185.8830  178.7060  140.8230 N   0  0  0  0  0  0  0  0  0  0  0  0
  184.7350  178.8400  141.4390 C   0  0  0  0  0  0  0  0  0  0  0  0
  188.3060  178.0910  140.7800 C   0  0  0  0  0  0  0  0  0  0  0  0
  188.1360  177.4450  145.0470 C   0  0  0  0  0  0  0  0  0  0  0  0
  183.5750  179.0530  145.0650 C   0  0  0  0  0  3  0  0  0  0  0  0
  190.6280  177.3200  139.4200 C   0  0  0  0  0  3  0  0  0  0  0  0
  188.3900  178.2500  139.3920 C   0  0  0  0  0  3  0  0  0  0  0  0
  183.1430  177.1140  138.9400 C   0  0  1  0  0  3  0  0  0  0  0  0
  181.4510  179.5590  136.7670 O   0  0  0  0  0  0  0  0  0  0  0  0
  182.9850  175.6080  138.8840 C   0  0  0  0  0  1  0  0  0  0  0  0
  182.4770  180.1390  138.8260 C   0  0  0  0  0  2  0  0  0  0  0  0
  183.4770  178.9980  140.6420 C   0  0  1  0  0  3  0  0  0  0  0  0
  182.2670  177.7340  137.9460 N   0  0  0  0  0  2  0  0  0  0  0  0
  183.7490  179.7660  139.4270 N   0  0  0  0  0  2  0  0  0  0  0  0
  182.8580  177.6200  140.3580 C   0  0  1  0  0  3  0  0  0  0  0  0
  181.4850  177.6430  140.6210 O   0  0  0  0  0  1  0  0  0  0  0  0
  182.0660  179.1450  137.7830 C   0  0  0  0  0  0  0  0  0  0  0  0
  189.2930  177.0440  145.7850 N   0  0  0  0  0  2  0  0  0  0  0  0
  189.2160  176.7360  146.9920 O   0  0  0  0  0  1  0  0  0  0  0  0
  1  4  2  0  0  0  0
  1  3  1  0  0  0  0
  2  5  1  1  0  0  0
  2  4  1  0  0  0  0
  3 18  2  0  0  0  0
  4 10  1  0  0  0  0
  5 17  1  0  0  0  0
  6 20  2  0  0  0  0
  6 19  1  0  0  0  0
  7 16  1  6  0  0  0
  7  2  1  0  0  0  0
  8  9  1  0  0  0  0
  9 11  1  0  0  0  0
 10 12  1  0  0  0  0
 10 13  2  0  0  0  0
 11  5  2  0  0  0  0
 14 15  2  0  0  0  0
 14  7  1  0  0  0  0
 15  1  1  0  0  0  0
 16  9  2  0  0  0  0
 17 12  2  0  0  0  0
 17 31  1  0  0  0  0
 18 13  1  0  0  0  0
 19  8  2  0  0  0  0
 20 16  1  0  0  0  0
 21 23  1  1  0  0  0
 21 28  1  0  0  0  0
 22 30  2  0  0  0  0
 24 27  1  0  0  0  0
 25 15  1  6  0  0  0
 26 21  1  0  0  0  0
 27 25  1  0  0  0  0
 28 29  1  6  0  0  0
 28 25  1  0  0  0  0
 30 26  1  0  0  0  0
 30 24  1  0  0  0  0
 31 32  1  0  0  0  0
M  END
>  <MODEL>
2

>  <REMARK>
 VINA RESULT:     -11.3      3.113      5.905
  Name = 
  2 active torsions:
  status: ('A' for Active; 'I' for Inactive)
    1  A    between atoms: N_13  and  C_29
    2  A    between atoms: C_16  and  C_27
                            x       y       z     vdW  Elec       q    Type
                         _______ _______ _______ _____ _____    ______ ____

>  <TORSDO>
F 2

$$$$
=
 OpenBabel11052414403D

 32 37  0  0  1  0  0  0  0  0999 V2000
  185.8180  178.0980  144.2140 C   0  0  0  0  0  0  0  0  0  0  0  0
  188.0640  177.3720  143.4350 C   0  0  2  0  0  3  0  0  0  0  0  0
  184.9180  178.3920  145.2470 C   0  0  0  0  0  3  0  0  0  0  0  0
  187.1540  177.8070  144.5320 C   0  0  0  0  0  0  0  0  0  0  0  0
  189.5190  177.4500  143.7960 C   0  0  0  0  0  0  0  0  0  0  0  0
  189.3050  177.5920  138.7520 C   0  0  0  0  0  3  0  0  0  0  0  0
  187.7660  178.2000  142.1900 C   0  0  2  0  0  3  0  0  0  0  0  0
  190.9830  177.2070  140.4630 C   0  0  0  0  0  3  0  0  0  0  0  0
  190.0370  177.4760  141.4560 C   0  0  0  0  0  0  0  0  0  0  0  0
  187.6070  177.8390  145.8580 C   0  0  0  0  0  0  0  0  0  0  0  0
  190.4150  177.4310  142.8470 N   0  0  0  0  0  0  0  0  0  0  0  0
  188.9980  177.6080  146.1520 N   0  0  0  0  0  0  0  0  0  0  0  0
  186.7030  178.1380  146.8820 C   0  0  0  0  0  3  0  0  0  0  0  0
  186.3430  178.0840  141.8460 N   0  0  0  0  0  0  0  0  0  0  0  0
  185.4210  178.1040  142.7770 C   0  0  0  0  0  0  0  0  0  0  0  0
  188.7090  177.8010  141.0910 C   0  0  0  0  0  0  0  0  0  0  0  0
  189.9030  177.4330  145.2250 C   0  0  0  0  0  0  0  0  0  0  0  0
  185.3620  178.4060  146.5770 C   0  0  0  0  0  3  0  0  0  0  0  0
  190.6160  177.2590  139.1140 C   0  0  0  0  0  3  0  0  0  0  0  0
  188.3550  177.8740  139.7380 C   0  0  0  0  0  3  0  0  0  0  0  0
  183.4990  179.1410  140.1320 C   0  0  1  0  0  3  0  0  0  0  0  0
  180.1740  180.0490  141.4270 O   0  0  0  0  0  0  0  0  0  0  0  0
  183.8900  179.0250  138.6730 C   0  0  0  0  0  1  0  0  0  0  0  0
  181.8400  178.9900  142.7450 C   0  0  0  0  0  2  0  0  0  0  0  0
  183.9750  178.0350  142.3920 C   0  0  1  0  0  3  0  0  0  0  0  0
  182.0790  179.4730  140.2330 N   0  0  0  0  0  2  0  0  0  0  0  0
  183.2690  179.2180  142.8850 N   0  0  0  0  0  2  0  0  0  0  0  0
  183.8430  177.8450  140.8730 C   0  0  1  0  0  3  0  0  0  0  0  0
  182.9150  176.8380  140.5900 O   0  0  0  0  0  1  0  0  0  0  0  0
  181.3310  179.5570  141.4540 C   0  0  0  0  0  0  0  0  0  0  0  0
  191.2710  177.2440  145.5890 N   0  0  0  0  0  2  0  0  0  0  0  0
  191.6080  177.0820  146.7800 O   0  0  0  0  0  1  0  0  0  0  0  0
  1  4  2  0  0  0  0
  1  3  1  0  0  0  0
  2  5  1  1  0  0  0
  2  4  1  0  0  0  0
  3 18  2  0  0  0  0
  4 10  1  0  0  0  0
  5 17  1  0  0  0  0
  6 19  2  0  0  0  0
  6 20  1  0  0  0  0
  7 16  1  6  0  0  0
  7  2  1  0  0  0  0
  8  9  2  0  0  0  0
  9 11  1  0  0  0  0
 10 12  1  0  0  0  0
 10 13  2  0  0  0  0
 11  5  2  0  0  0  0
 14  7  1  0  0  0  0
 14 15  2  0  0  0  0
 15  1  1  0  0  0  0
 16  9  1  0  0  0  0
 17 31  1  0  0  0  0
 17 12  2  0  0  0  0
 18 13  1  0  0  0  0
 19  8  1  0  0  0  0
 20 16  2  0  0  0  0
 21 23  1  6  0  0  0
 21 26  1  0  0  0  0
 21 28  1  0  0  0  0
 22 30  2  0  0  0  0
 24 27  1  0  0  0  0
 25 15  1  6  0  0  0
 25 27  1  0  0  0  0
 26 30  1  0  0  0  0
 28 29  1  1  0  0  0
 28 25  1  0  0  0  0
 30 24  1  0  0  0  0
 31 32  1  0  0  0  0
M  END
>  <MODEL>
3

>  <REMARK>
 VINA RESULT:     -10.5      2.905      5.975
  Name = 
  2 active torsions:
  status: ('A' for Active; 'I' for Inactive)
    1  A    between atoms: N_13  and  C_29
    2  A    between atoms: C_16  and  C_27
                            x       y       z     vdW  Elec       q    Type
                         _______ _______ _______ _____ _____    ______ ____

>  <TORSDO>
F 2

$$$$
=
 OpenBabel11052414403D

 32 37  0  0  1  0  0  0  0  0999 V2000
  188.6030  177.8550  140.7650 C   0  0  0  0  0  0  0  0  0  0  0  0
  188.6890  178.2380  143.2200 C   0  0  2  0  0  3  0  0  0  0  0  0
  189.2390  177.5880  139.5460 C   0  0  0  0  0  3  0  0  0  0  0  0
  189.3540  177.8260  141.9510 C   0  0  0  0  0  0  0  0  0  0  0  0
  189.4390  177.8210  144.4520 C   0  0  0  0  0  0  0  0  0  0  0  0
  184.6430  178.5030  145.8790 C   0  0  0  0  0  3  0  0  0  0  0  0
  187.2680  177.6860  143.2330 C   0  0  2  0  0  3  0  0  0  0  0  0
  186.8130  178.2830  146.9430 C   0  0  0  0  0  3  0  0  0  0  0  0
  187.4040  178.0560  145.6970 C   0  0  0  0  0  0  0  0  0  0  0  0
  190.7170  177.5020  141.9380 C   0  0  0  0  0  0  0  0  0  0  0  0
  188.8220  177.8100  145.6020 N   0  0  0  0  0  0  0  0  0  0  0  0
  191.4490  177.4080  143.1740 N   0  0  0  0  0  0  0  0  0  0  0  0
  191.3430  177.2320  140.7170 C   0  0  0  0  0  3  0  0  0  0  0  0
  186.5520  178.1310  142.0310 N   0  0  0  0  0  0  0  0  0  0  0  0
  187.1440  178.1490  140.8620 C   0  0  0  0  0  0  0  0  0  0  0  0
  186.6040  178.0570  144.5290 C   0  0  0  0  0  0  0  0  0  0  0  0
  190.8880  177.5420  144.3460 C   0  0  0  0  0  0  0  0  0  0  0  0
  190.6070  177.2820  139.5250 C   0  0  0  0  0  3  0  0  0  0  0  0
  185.4360  178.5130  147.0320 C   0  0  0  0  0  3  0  0  0  0  0  0
  185.2230  178.2650  144.6300 C   0  0  0  0  0  3  0  0  0  0  0  0
  183.9260  177.8100  139.7260 C   0  0  1  0  0  3  0  0  0  0  0  0
  184.0390  177.4970  136.0580 O   0  0  0  0  0  0  0  0  0  0  0  0
  182.6800  177.9870  140.5700 C   0  0  0  0  0  1  0  0  0  0  0  0
  185.9350  178.0440  137.3780 C   0  0  0  0  0  2  0  0  0  0  0  0
  186.3730  178.5590  139.6450 C   0  0  1  0  0  3  0  0  0  0  0  0
  183.5560  177.7750  138.3110 N   0  0  0  0  0  2  0  0  0  0  0  0
  186.4450  177.5070  138.6300 N   0  0  0  0  0  2  0  0  0  0  0  0
  184.9320  178.9240  140.0330 C   0  0  1  0  0  3  0  0  0  0  0  0
  184.5570  180.1260  139.4270 O   0  0  0  0  0  1  0  0  0  0  0  0
  184.4780  177.7290  137.2140 C   0  0  0  0  0  0  0  0  0  0  0  0
  191.6710  177.4000  145.5340 N   0  0  0  0  0  2  0  0  0  0  0  0
  191.8520  176.2830  146.0590 O   0  0  0  0  0  1  0  0  0  0  0  0
  1 15  1  0  0  0  0
  1  4  1  0  0  0  0
  2  4  1  6  0  0  0
  2  7  1  0  0  0  0
  2  5  1  0  0  0  0
  3  1  2  0  0  0  0
  5 11  2  0  0  0  0
  6 19  1  0  0  0  0
  7 14  1  6  0  0  0
  7 16  1  0  0  0  0
  8 19  2  0  0  0  0
  9  8  1  0  0  0  0
 10  4  2  0  0  0  0
 10 12  1  0  0  0  0
 11  9  1  0  0  0  0
 12 17  2  0  0  0  0
 13 10  1  0  0  0  0
 15 14  2  0  0  0  0
 16 20  1  0  0  0  0
 16  9  2  0  0  0  0
 17  5  1  0  0  0  0
 17 31  1  0  0  0  0
 18  3  1  0  0  0  0
 18 13  2  0  0  0  0
 20  6  2  0  0  0  0
 21 28  1  0  0  0  0
 21 23  1  1  0  0  0
 22 30  2  0  0  0  0
 24 27  1  0  0  0  0
 25 28  1  0  0  0  0
 25 15  1  1  0  0  0
 26 21  1  0  0  0  0
 27 25  1  0  0  0  0
 28 29  1  6  0  0  0
 30 24  1  0  0  0  0
 30 26  1  0  0  0  0
 31 32  1  0  0  0  0
M  END
>  <MODEL>
4

>  <REMARK>
 VINA RESULT:     -10.2      2.477      3.834
  Name = 
  2 active torsions:
  status: ('A' for Active; 'I' for Inactive)
    1  A    between atoms: N_13  and  C_29
    2  A    between atoms: C_16  and  C_27
                            x       y       z     vdW  Elec       q    Type
                         _______ _______ _______ _____ _____    ______ ____

>  <TORSDO>
F 2

$$$$
=
 OpenBabel11052414403D

 32 37  0  0  1  0  0  0  0  0999 V2000
  187.3820  178.2490  140.9830 C   0  0  0  0  0  0  0  0  0  0  0  0
  189.5260  177.9450  142.2030 C   0  0  2  0  0  3  0  0  0  0  0  0
  186.6670  178.4090  139.7890 C   0  0  0  0  0  3  0  0  0  0  0  0
  188.7600  177.9850  140.9250 C   0  0  0  0  0  0  0  0  0  0  0  0
  190.8760  177.2980  142.0720 C   0  0  0  0  0  0  0  0  0  0  0  0
  189.6130  176.9660  146.9510 C   0  0  0  0  0  3  0  0  0  0  0  0
  188.6840  177.2410  143.2610 C   0  0  2  0  0  3  0  0  0  0  0  0
  191.6150  176.7270  145.6000 C   0  0  0  0  0  3  0  0  0  0  0  0
  190.8600  176.9270  144.4410 C   0  0  0  0  0  0  0  0  0  0  0  0
  189.4210  177.8460  139.6980 C   0  0  0  0  0  0  0  0  0  0  0  0
  191.4960  176.8930  143.1470 N   0  0  0  0  0  0  0  0  0  0  0  0
  190.8190  177.5040  139.6640 N   0  0  0  0  0  0  0  0  0  0  0  0
  188.6980  178.0030  138.5110 C   0  0  0  0  0  3  0  0  0  0  0  0
  187.3830  177.9090  143.3840 N   0  0  0  0  0  0  0  0  0  0  0  0
  186.7340  178.3230  142.3240 C   0  0  0  0  0  0  0  0  0  0  0  0
  189.4660  177.1540  144.5410 C   0  0  0  0  0  0  0  0  0  0  0  0
  191.5140  177.2390  140.7390 C   0  0  0  0  0  0  0  0  0  0  0  0
  187.3270  178.2910  138.5580 C   0  0  0  0  0  3  0  0  0  0  0  0
  190.9930  176.7530  146.8530 C   0  0  0  0  0  3  0  0  0  0  0  0
  188.8480  177.1550  145.7970 C   0  0  0  0  0  3  0  0  0  0  0  0
  184.3030  178.4410  144.7390 C   0  0  1  0  0  3  0  0  0  0  0  0
  181.0310  178.5870  143.0570 O   0  0  0  0  0  0  0  0  0  0  0  0
  184.5560  178.6280  146.2220 C   0  0  0  0  0  1  0  0  0  0  0  0
  183.0970  178.7780  141.9050 C   0  0  0  0  0  2  0  0  0  0  0  0
  185.3860  178.9570  142.4770 C   0  0  1  0  0  3  0  0  0  0  0  0
  182.8790  178.6220  144.4600 N   0  0  0  0  0  2  0  0  0  0  0  0
  184.3470  178.0400  142.0050 N   0  0  0  0  0  2  0  0  0  0  0  0
  185.1780  179.4060  143.9320 C   0  0  1  0  0  3  0  0  0  0  0  0
  184.6650  180.7060  143.9680 O   0  0  0  0  0  1  0  0  0  0  0  0
  182.2840  178.6280  143.1550 C   0  0  0  0  0  0  0  0  0  0  0  0
  192.8900  176.8700  140.6280 N   0  0  0  0  0  2  0  0  0  0  0  0
  193.5550  177.1520  139.6100 O   0  0  0  0  0  1  0  0  0  0  0  0
  1 15  1  0  0  0  0
  2  4  1  6  0  0  0
  2  7  1  0  0  0  0
  3  1  2  0  0  0  0
  4  1  1  0  0  0  0
  5  2  1  0  0  0  0
  5 11  2  0  0  0  0
  7 14  1  1  0  0  0
  7 16  1  0  0  0  0
  8 19  2  0  0  0  0
  9 16  2  0  0  0  0
  9  8  1  0  0  0  0
 10  4  2  0  0  0  0
 11  9  1  0  0  0  0
 12 10  1  0  0  0  0
 12 17  2  0  0  0  0
 13 18  2  0  0  0  0
 13 10  1  0  0  0  0
 15 14  2  0  0  0  0
 16 20  1  0  0  0  0
 17  5  1  0  0  0  0
 18  3  1  0  0  0  0
 19  6  1  0  0  0  0
 20  6  2  0  0  0  0
 21 23  1  1  0  0  0
 22 30  2  0  0  0  0
 24 27  1  0  0  0  0
 24 30  1  0  0  0  0
 25 15  1  1  0  0  0
 25 28  1  0  0  0  0
 26 21  1  0  0  0  0
 27 25  1  0  0  0  0
 28 29  1  6  0  0  0
 28 21  1  0  0  0  0
 30 26  1  0  0  0  0
 31 17  1  0  0  0  0
 32 31  1  0  0  0  0
M  END
>  <MODEL>
5

>  <REMARK>
 VINA RESULT:     -10.0      2.713      6.906
  Name = 
  2 active torsions:
  status: ('A' for Active; 'I' for Inactive)
    1  A    between atoms: N_13  and  C_29
    2  A    between atoms: C_16  and  C_27
                            x       y       z     vdW  Elec       q    Type
                         _______ _______ _______ _____ _____    ______ ____

>  <TORSDO>
F 2

$$$$
=
 OpenBabel11052414403D

 32 37  0  0  1  0  0  0  0  0999 V2000
  186.3210  178.3650  143.4880 C   0  0  0  0  0  0  0  0  0  0  0  0
  185.9950  178.8740  141.0770 C   0  0  2  0  0  3  0  0  0  0  0  0
  185.8240  178.2610  144.7930 C   0  0  0  0  0  3  0  0  0  0  0  0
  185.4320  178.6390  142.4360 C   0  0  0  0  0  0  0  0  0  0  0  0
  184.9720  178.7830  139.9800 C   0  0  0  0  0  0  0  0  0  0  0  0
  189.4530  177.9400  137.8080 C   0  0  0  0  0  3  0  0  0  0  0  0
  187.1370  177.8920  140.8400 C   0  0  2  0  0  3  0  0  0  0  0  0
  187.1960  178.4880  137.1030 C   0  0  0  0  0  3  0  0  0  0  0  0
  186.7590  178.4040  138.4280 C   0  0  0  0  0  0  0  0  0  0  0  0
  184.0560  178.7740  142.6670 C   0  0  0  0  0  0  0  0  0  0  0  0
  185.3700  178.6280  138.7470 N   0  0  0  0  0  0  0  0  0  0  0  0
  183.1550  178.9830  141.5630 N   0  0  0  0  0  0  0  0  0  0  0  0
  183.5680  178.6630  143.9730 C   0  0  0  0  0  3  0  0  0  0  0  0
  188.1320  178.0210  141.9110 N   0  0  0  0  0  0  0  0  0  0  0  0
  187.7630  178.1750  143.1590 C   0  0  0  0  0  0  0  0  0  0  0  0
  187.6820  178.0900  139.4530 C   0  0  0  0  0  0  0  0  0  0  0  0
  183.5450  178.9850  140.3150 C   0  0  0  0  0  0  0  0  0  0  0  0
  184.4510  178.4140  145.0320 C   0  0  0  0  0  3  0  0  0  0  0  0
  188.5430  178.2630  136.7950 C   0  0  0  0  0  3  0  0  0  0  0  0
  189.0220  177.8420  139.1350 C   0  0  0  0  0  3  0  0  0  0  0  0
  190.9810  177.0720  143.5990 C   0  0  1  0  0  3  0  0  0  0  0  0
  191.4320  176.2660  147.1630 O   0  0  0  0  0  0  0  0  0  0  0  0
  192.0720  177.1280  142.5490 C   0  0  0  0  0  1  0  0  0  0  0  0
  189.5000  177.3450  146.3070 C   0  0  0  0  0  2  0  0  0  0  0  0
  188.8000  178.2530  144.2370 C   0  0  1  0  0  3  0  0  0  0  0  0
  191.5710  176.7660  144.9010 N   0  0  0  0  0  2  0  0  0  0  0  0
  188.6800  177.1000  145.1310 N   0  0  0  0  0  2  0  0  0  0  0  0
  190.1980  178.3890  143.6130 C   0  0  1  0  0  3  0  0  0  0  0  0
  190.9190  179.3990  144.2570 O   0  0  0  0  0  1  0  0  0  0  0  0
  190.8620  176.7400  146.1480 C   0  0  0  0  0  0  0  0  0  0  0  0
  182.5900  179.1620  139.2680 N   0  0  0  0  0  2  0  0  0  0  0  0
  182.4300  180.2710  138.7180 O   0  0  0  0  0  1  0  0  0  0  0  0
  1  3  1  0  0  0  0
  2  5  1  6  0  0  0
  2  4  1  0  0  0  0
  3 18  2  0  0  0  0
  4 10  1  0  0  0  0
  4  1  2  0  0  0  0
  5 17  1  0  0  0  0
  6 20  1  0  0  0  0
  7 16  1  6  0  0  0
  7  2  1  0  0  0  0
  7 14  1  0  0  0  0
  8  9  2  0  0  0  0
  9 11  1  0  0  0  0
  9 16  1  0  0  0  0
 10 13  2  0  0  0  0
 11  5  2  0  0  0  0
 12 10  1  0  0  0  0
 13 18  1  0  0  0  0
 14 15  2  0  0  0  0
 15  1  1  0  0  0  0
 17 12  2  0  0  0  0
 19  8  1  0  0  0  0
 19  6  2  0  0  0  0
 20 16  2  0  0  0  0
 21 23  1  6  0  0  0
 21 28  1  0  0  0  0
 21 26  1  0  0  0  0
 25 15  1  6  0  0  0
 25 27  1  0  0  0  0
 26 30  1  0  0  0  0
 27 24  1  0  0  0  0
 28 25  1  0  0  0  0
 28 29  1  1  0  0  0
 30 24  1  0  0  0  0
 30 22  2  0  0  0  0
 31 17  1  0  0  0  0
 32 31  1  0  0  0  0
M  END
>  <MODEL>
6

>  <REMARK>
 VINA RESULT:      -9.7      2.618      6.975
  Name = 
  2 active torsions:
  status: ('A' for Active; 'I' for Inactive)
    1  A    between atoms: N_13  and  C_29
    2  A    between atoms: C_16  and  C_27
                            x       y       z     vdW  Elec       q    Type
                         _______ _______ _______ _____ _____    ______ ____

>  <TORSDO>
F 2

$$$$
=
 OpenBabel11052414403D

 32 37  0  0  1  0  0  0  0  0999 V2000
  187.6610  178.1710  141.2380 C   0  0  0  0  0  0  0  0  0  0  0  0
  187.6770  177.4290  143.6100 C   0  0  2  0  0  3  0  0  0  0  0  0
  186.9780  178.6380  140.1070 C   0  0  0  0  0  3  0  0  0  0  0  0
  186.9690  178.0460  142.4530 C   0  0  0  0  0  0  0  0  0  0  0  0
  187.0030  177.6800  144.9280 C   0  0  0  0  0  0  0  0  0  0  0  0
  191.8330  176.6420  145.9820 C   0  0  0  0  0  3  0  0  0  0  0  0
  189.1180  177.9280  143.6290 C   0  0  2  0  0  3  0  0  0  0  0  0
  189.7260  176.7690  147.1810 C   0  0  0  0  0  3  0  0  0  0  0  0
  189.0860  177.1990  146.0150 C   0  0  0  0  0  0  0  0  0  0  0  0
  185.6210  178.4120  142.5600 C   0  0  0  0  0  0  0  0  0  0  0  0
  187.6750  177.5000  146.0330 N   0  0  0  0  0  0  0  0  0  0  0  0
  184.9530  178.3430  143.8340 N   0  0  0  0  0  0  0  0  0  0  0  0
  184.9480  178.8810  141.4270 C   0  0  0  0  0  3  0  0  0  0  0  0
  189.7580  177.6460  142.3390 N   0  0  0  0  0  0  0  0  0  0  0  0
  189.1100  177.8200  141.2130 C   0  0  0  0  0  0  0  0  0  0  0  0
  189.8280  177.3460  144.8200 C   0  0  0  0  0  0  0  0  0  0  0  0
  185.5630  178.0170  144.9420 C   0  0  0  0  0  0  0  0  0  0  0  0
  185.6240  178.9860  140.2040 C   0  0  0  0  0  3  0  0  0  0  0  0
  191.0960  176.4850  147.1620 C   0  0  0  0  0  3  0  0  0  0  0  0
  191.2030  177.0830  144.8150 C   0  0  0  0  0  3  0  0  0  0  0  0
  188.3770  176.2250  138.2670 C   0  0  1  0  0  3  0  0  0  0  0  0
  191.4950  174.7790  136.9460 O   0  0  0  0  0  0  0  0  0  0  0  0
  187.0490  176.3040  137.5400 C   0  0  0  0  0  1  0  0  0  0  0  0
  191.4270  176.2440  138.8130 C   0  0  0  0  0  2  0  0  0  0  0  0
  189.8050  177.5730  139.9100 C   0  0  1  0  0  3  0  0  0  0  0  0
  189.3800  175.6270  137.3870 N   0  0  0  0  0  2  0  0  0  0  0  0
  190.5500  176.3150  139.9710 N   0  0  0  0  0  2  0  0  0  0  0  0
  188.7920  177.6160  138.7560 C   0  0  1  0  0  3  0  0  0  0  0  0
  189.2870  178.3950  137.7050 O   0  0  0  0  0  1  0  0  0  0  0  0
  190.7750  175.4910  137.6920 C   0  0  0  0  0  0  0  0  0  0  0  0
  184.8440  178.0050  146.1770 N   0  0  0  0  0  2  0  0  0  0  0  0
  184.8280  179.0030  146.9260 O   0  0  0  0  0  1  0  0  0  0  0  0
  1  4  1  0  0  0  0
  2  4  1  6  0  0  0
  2  7  1  0  0  0  0
  2  5  1  0  0  0  0
  3 18  1  0  0  0  0
  3  1  2  0  0  0  0
  4 10  2  0  0  0  0
  5 17  1  0  0  0  0
  5 11  2  0  0  0  0
  6 19  1  0  0  0  0
  7 14  1  6  0  0  0
  7 16  1  0  0  0  0
  9 11  1  0  0  0  0
  9  8  1  0  0  0  0
 10 12  1  0  0  0  0
 12 17  2  0  0  0  0
 13 10  1  0  0  0  0
 15  1  1  0  0  0  0
 15 14  2  0  0  0  0
 16  9  2  0  0  0  0
 17 31  1  0  0  0  0
 18 13  2  0  0  0  0
 19  8  2  0  0  0  0
 20 16  1  0  0  0  0
 20  6  2  0  0  0  0
 21 23  1  6  0  0  0
 21 28  1  0  0  0  0
 22 30  2  0  0  0  0
 24 27  1  0  0  0  0
 25 27  1  0  0  0  0
 25 15  1  1  0  0  0
 26 30  1  0  0  0  0
 26 21  1  0  0  0  0
 28 29  1  6  0  0  0
 28 25  1  0  0  0  0
 30 24  1  0  0  0  0
 31 32  1  0  0  0  0
M  END
>  <MODEL>
7

>  <REMARK>
 VINA RESULT:      -9.6      1.564      4.308
  Name = 
  2 active torsions:
  status: ('A' for Active; 'I' for Inactive)
    1  A    between atoms: N_13  and  C_29
    2  A    between atoms: C_16  and  C_27
                            x       y       z     vdW  Elec       q    Type
                         _______ _______ _______ _____ _____    ______ ____

>  <TORSDO>
F 2

$$$$
=
 OpenBabel11052414403D

 32 37  0  0  1  0  0  0  0  0999 V2000
  189.3360  177.7610  141.2830 C   0  0  0  0  0  0  0  0  0  0  0  0
  188.1670  178.2650  143.4180 C   0  0  2  0  0  3  0  0  0  0  0  0
  190.4880  177.3890  140.5780 C   0  0  0  0  0  3  0  0  0  0  0  0
  189.3570  177.7440  142.6870 C   0  0  0  0  0  0  0  0  0  0  0  0
  188.1300  177.8640  144.8650 C   0  0  0  0  0  0  0  0  0  0  0  0
  183.3670  178.9350  143.5720 C   0  0  0  0  0  3  0  0  0  0  0  0
  186.9050  177.8090  142.6940 C   0  0  2  0  0  3  0  0  0  0  0  0
  184.6420  178.6280  145.6140 C   0  0  0  0  0  3  0  0  0  0  0  0
  185.7720  178.2970  144.8620 C   0  0  0  0  0  0  0  0  0  0  0  0
  190.4960  177.3300  143.3910 C   0  0  0  0  0  0  0  0  0  0  0  0
  187.0070  177.9540  145.5240 N   0  0  0  0  0  0  0  0  0  0  0  0
  190.4690  177.2520  144.8280 N   0  0  0  0  0  0  0  0  0  0  0  0
  191.6400  176.9560  142.6780 C   0  0  0  0  0  3  0  0  0  0  0  0
  186.9580  178.2370  141.2900 N   0  0  0  0  0  0  0  0  0  0  0  0
  188.0700  178.1550  140.6020 C   0  0  0  0  0  0  0  0  0  0  0  0
  185.6980  178.2910  143.4490 C   0  0  0  0  0  0  0  0  0  0  0  0
  189.3940  177.4850  145.5340 C   0  0  0  0  0  0  0  0  0  0  0  0
  191.6370  176.9920  141.2770 C   0  0  0  0  0  3  0  0  0  0  0  0
  183.4430  178.9530  144.9690 C   0  0  0  0  0  3  0  0  0  0  0  0
  184.4890  178.5940  142.8120 C   0  0  0  0  0  3  0  0  0  0  0  0
  187.1050  176.7430  137.6290 C   0  0  1  0  0  3  0  0  0  0  0  0
  189.4400  177.8780  135.0170 O   0  0  0  0  0  0  0  0  0  0  0  0
  185.8170  175.9760  137.4060 C   0  0  0  0  0  1  0  0  0  0  0  0
  189.4300  178.7510  137.2250 C   0  0  0  0  0  2  0  0  0  0  0  0
  188.0810  178.5510  139.1580 C   0  0  1  0  0  3  0  0  0  0  0  0
  187.7210  177.0500  136.3390 N   0  0  0  0  0  2  0  0  0  0  0  0
  189.3290  178.1160  138.5290 N   0  0  0  0  0  2  0  0  0  0  0  0
  186.8290  178.0050  138.4530 C   0  0  1  0  0  3  0  0  0  0  0  0
  186.2410  179.0020  137.6690 O   0  0  0  0  0  1  0  0  0  0  0  0
  188.8920  177.8560  136.1490 C   0  0  0  0  0  0  0  0  0  0  0  0
  189.4310  177.3530  146.9570 N   0  0  0  0  0  2  0  0  0  0  0  0
  190.3480  176.7250  147.5240 O   0  0  0  0  0  1  0  0  0  0  0  0
  1  4  1  0  0  0  0
  2  4  1  6  0  0  0
  2  5  1  0  0  0  0
  3 18  1  0  0  0  0
  3  1  2  0  0  0  0
  4 10  2  0  0  0  0
  5 11  2  0  0  0  0
  5 17  1  0  0  0  0
  6 19  1  0  0  0  0
  7 14  1  6  0  0  0
  7  2  1  0  0  0  0
  7 16  1  0  0  0  0
  9 11  1  0  0  0  0
  9  8  1  0  0  0  0
 10 12  1  0  0  0  0
 12 17  2  0  0  0  0
 13 10  1  0  0  0  0
 15  1  1  0  0  0  0
 15 14  2  0  0  0  0
 16  9  2  0  0  0  0
 17 31  1  0  0  0  0
 18 13  2  0  0  0  0
 19  8  2  0  0  0  0
 20 16  1  0  0  0  0
 20  6  2  0  0  0  0
 21 23  1  6  0  0  0
 21 28  1  0  0  0  0
 22 30  2  0  0  0  0
 24 27  1  0  0  0  0
 25 15  1  1  0  0  0
 26 21  1  0  0  0  0
 27 25  1  0  0  0  0
 28 29  1  6  0  0  0
 28 25  1  0  0  0  0
 30 26  1  0  0  0  0
 30 24  1  0  0  0  0
 31 32  1  0  0  0  0
M  END
>  <MODEL>
8

>  <REMARK>
 VINA RESULT:      -9.4      1.492      1.928
  Name = 
  2 active torsions:
  status: ('A' for Active; 'I' for Inactive)
    1  A    between atoms: N_13  and  C_29
    2  A    between atoms: C_16  and  C_27
                            x       y       z     vdW  Elec       q    Type
                         _______ _______ _______ _____ _____    ______ ____

>  <TORSDO>
F 2

$$$$
=
 OpenBabel11052414403D

 32 37  0  0  1  0  0  0  0  0999 V2000
  186.7440  178.1740  141.8310 C   0  0  0  0  0  0  0  0  0  0  0  0
  187.3260  177.6020  144.1790 C   0  0  2  0  0  3  0  0  0  0  0  0
  185.8330  178.6470  140.8780 C   0  0  0  0  0  3  0  0  0  0  0  0
  186.4000  178.2260  143.1910 C   0  0  0  0  0  0  0  0  0  0  0  0
  187.0680  178.0300  145.5950 C   0  0  0  0  0  0  0  0  0  0  0  0
  191.8600  176.4410  145.4460 C   0  0  0  0  0  3  0  0  0  0  0  0
  188.7620  177.9070  143.7690 C   0  0  2  0  0  3  0  0  0  0  0  0
  190.1870  176.9260  147.1350 C   0  0  0  0  0  3  0  0  0  0  0  0
  189.3030  177.3550  146.1410 C   0  0  0  0  0  0  0  0  0  0  0  0
  185.1800  178.7720  143.6110 C   0  0  0  0  0  0  0  0  0  0  0  0
  187.9920  177.8400  146.4970 N   0  0  0  0  0  0  0  0  0  0  0  0
  184.8810  178.8800  145.0150 N   0  0  0  0  0  0  0  0  0  0  0  0
  184.2780  179.2460  142.6520 C   0  0  0  0  0  3  0  0  0  0  0  0
  188.9910  177.4550  142.3910 N   0  0  0  0  0  0  0  0  0  0  0  0
  188.0840  177.6350  141.4630 C   0  0  0  0  0  0  0  0  0  0  0  0
  189.7030  177.3210  144.7840 C   0  0  0  0  0  0  0  0  0  0  0  0
  185.7310  178.5530  145.9520 C   0  0  0  0  0  0  0  0  0  0  0  0
  184.6020  179.1770  141.2900 C   0  0  0  0  0  3  0  0  0  0  0  0
  191.4610  176.4640  146.7870 C   0  0  0  0  0  3  0  0  0  0  0  0
  190.9870  176.8790  144.4460 C   0  0  0  0  0  3  0  0  0  0  0  0
  190.7810  177.6820  139.3440 C   0  0  1  0  0  3  0  0  0  0  0  0
  189.5310  178.2000  135.9190 O   0  0  0  0  0  0  0  0  0  0  0  0
  192.2010  177.3260  139.7330 C   0  0  0  0  0  1  0  0  0  0  0  0
  188.1100  177.7940  137.7770 C   0  0  0  0  0  2  0  0  0  0  0  0
  188.3670  177.2090  140.0550 C   0  0  1  0  0  3  0  0  0  0  0  0
  190.6760  177.7510  137.8870 N   0  0  0  0  0  2  0  0  0  0  0  0
  188.0990  178.3150  139.1350 N   0  0  0  0  0  2  0  0  0  0  0  0
  189.8010  176.6690  139.9460 C   0  0  1  0  0  3  0  0  0  0  0  0
  189.8130  175.4670  139.2330 O   0  0  0  0  0  1  0  0  0  0  0  0
  189.4620  177.9560  137.1510 C   0  0  0  0  0  0  0  0  0  0  0  0
  185.3800  178.7210  147.3270 N   0  0  0  0  0  2  0  0  0  0  0  0
  185.7440  179.7270  147.9700 O   0  0  0  0  0  1  0  0  0  0  0  0
  1  4  1  0  0  0  0
  2  4  1  6  0  0  0
  2  5  1  0  0  0  0
  3 18  1  0  0  0  0
  3  1  2  0  0  0  0
  4 10  2  0  0  0  0
  5 17  1  0  0  0  0
  5 11  2  0  0  0  0
  6 19  1  0  0  0  0
  7 14  1  6  0  0  0
  7  2  1  0  0  0  0
  7 16  1  0  0  0  0
  9 11  1  0  0  0  0
  9  8  1  0  0  0  0
 10 12  1  0  0  0  0
 12 17  2  0  0  0  0
 13 10  1  0  0  0  0
 15  1  1  0  0  0  0
 15 14  2  0  0  0  0
 16  9  2  0  0  0  0
 17 31  1  0  0  0  0
 18 13  2  0  0  0  0
 19  8  2  0  0  0  0
 20 16  1  0  0  0  0
 20  6  2  0  0  0  0
 21 23  1  6  0  0  0
 21 28  1  0  0  0  0
 22 30  2  0  0  0  0
 24 27  1  0  0  0  0
 25 15  1  1  0  0  0
 26 21  1  0  0  0  0
 27 25  1  0  0  0  0
 28 29  1  6  0  0  0
 28 25  1  0  0  0  0
 30 24  1  0  0  0  0
 30 26  1  0  0  0  0
 31 32  1  0  0  0  0
M  END
>  <MODEL>
9

>  <REMARK>
 VINA RESULT:      -9.3      1.609      4.614
  Name = 
  2 active torsions:
  status: ('A' for Active; 'I' for Inactive)
    1  A    between atoms: N_13  and  C_29
    2  A    between atoms: C_16  and  C_27
                            x       y       z     vdW  Elec       q    Type
                         _______ _______ _______ _____ _____    ______ ____

>  <TORSDO>
F 2

$$$$
