=
 OpenBabel11052416143D

 43 48  0  0  1  0  0  0  0  0999 V2000
  186.4730  178.6320  137.0670 N   0  0  0  0  0  0  0  0  0  0  0  0
  186.4180  177.3760  137.3470 C   0  0  0  0  0  0  0  0  0  0  0  0
  187.6650  179.2200  136.4980 C   0  0  0  0  0  2  0  0  0  0  0  0
  187.6070  176.4840  137.0960 C   0  0  0  0  0  2  0  0  0  0  0  0
  188.9470  177.2030  137.3390 C   0  0  1  0  0  3  0  0  0  0  0  0
  188.8860  178.7420  137.2800 C   0  0  0  0  0  2  0  0  0  0  0  0
  185.1740  176.8070  137.9470 C   0  0  0  0  0  2  0  0  0  0  0  0
  182.8800  177.3070  137.9810 C   0  0  0  0  0  2  0  0  0  0  0  0
  183.3930  177.4210  139.3410 C   0  0  1  0  0  3  0  0  0  0  0  0
  184.2190  177.8700  138.2090 N   0  0  0  0  0  0  0  0  0  0  0  0
  182.7960  178.6380  140.0290 C   0  0  2  0  0  3  0  0  0  0  0  0
  183.1530  178.6520  141.4830 C   0  0  0  0  0  0  0  0  0  0  0  0
  182.5440  178.9210  143.8200 C   0  0  0  0  0  3  0  0  0  0  0  0
  184.8300  178.3990  143.2170 C   0  0  0  0  0  3  0  0  0  0  0  0
  183.8660  178.6650  144.1930 C   0  0  0  0  0  3  0  0  0  0  0  0
  184.4740  178.3910  141.8650 C   0  0  0  0  0  3  0  0  0  0  0  0
  182.1870  178.9120  142.4680 C   0  0  0  0  0  3  0  0  0  0  0  0
  180.9890  178.6750  139.7900 S   0  0  0  0  0  0  0  0  0  0  0  0
  180.9780  180.4520  139.4210 C   0  0  1  0  0  3  0  0  0  0  0  0
  180.2410  182.0060  137.6570 C   0  0  0  0  0  1  0  0  0  0  0  0
  182.1860  180.7930  138.5760 C   0  0  0  0  0  2  0  0  0  0  0  0
  180.8280  180.6370  137.9260 C   0  0  1  0  0  3  0  0  0  0  0  0
  189.6460  176.6560  138.5910 C   0  0  1  0  0  3  0  0  0  0  0  0
  193.5830  175.1080  137.7480 C   0  0  0  0  0  0  0  0  0  0  0  0
  191.1750  174.8080  137.6490 C   0  0  0  0  0  0  0  0  0  0  0  0
  193.4070  176.3450  138.3700 C   0  0  0  0  0  3  0  0  0  0  0  0
  194.9520  174.6050  137.4670 C   0  0  0  0  0  1  0  0  0  0  0  0
  190.9950  176.0650  138.2760 C   0  0  0  0  0  0  0  0  0  0  0  0
  192.4700  174.3430  137.3890 C   0  0  0  0  0  3  0  0  0  0  0  0
  192.1200  176.8190  138.6320 C   0  0  0  0  0  3  0  0  0  0  0  0
  189.8780  173.9750  135.8550 O   0  0  0  0  0  1  0  0  0  0  0  0
  190.0240  173.9470  137.2420 C   0  0  0  0  0  2  0  0  0  0  0  0
  189.6330  177.5640  139.8370 C   0  0  1  0  0  3  0  0  0  0  0  0
  188.3680  178.1130  140.0500 O   0  0  0  0  0  1  0  0  0  0  0  0
  190.0970  176.8230  141.0930 C   0  0  0  0  0  2  0  0  0  0  0  0
  187.9130  176.7610  144.2350 C   0  0  0  0  0  3  0  0  0  0  0  0
  188.7460  177.3370  145.1100 C   0  0  0  0  0  0  0  0  0  0  0  0
  190.4760  177.6450  143.4170 C   0  0  0  0  0  3  0  0  0  0  0  0
  188.4010  176.3590  142.8710 C   0  0  0  0  0  2  0  0  0  0  0  0
  189.4410  177.3600  142.3580 C   0  0  2  0  0  3  0  0  0  0  0  0
  190.1270  177.6700  144.7070 C   0  0  0  0  0  3  0  0  0  0  0  0
  187.8880  177.9290  147.5370 C   0  0  0  0  0  3  0  0  0  0  0  0
  188.2830  177.6600  146.4300 C   0  0  0  0  0  0  0  0  0  0  0  0
  1  2  2  0  0  0  0
  2  7  1  0  0  0  0
  3  1  1  0  0  0  0
  3  6  1  0  0  0  0
  4  5  1  0  0  0  0
  4  2  1  0  0  0  0
  5 23  1  1  0  0  0
  6  5  1  0  0  0  0
  7 10  1  0  0  0  0
  8 10  1  0  0  0  0
  8  9  1  0  0  0  0
  9 11  1  1  0  0  0
 10  9  1  0  0  0  0
 11 18  1  1  0  0  0
 11 12  1  0  0  0  0
 12 16  2  0  0  0  0
 12 17  1  0  0  0  0
 13 15  1  0  0  0  0
 14 15  2  0  0  0  0
 16 14  1  0  0  0  0
 17 13  2  0  0  0  0
 19 18  1  6  0  0  0
 21 19  1  0  0  0  0
 22 20  1  1  0  0  0
 22 21  1  0  0  0  0
 22 19  1  0  0  0  0
 23 33  1  1  0  0  0
 24 26  1  0  0  0  0
 25 28  2  0  0  0  0
 26 30  2  0  0  0  0
 27 24  1  0  0  0  0
 28 23  1  0  0  0  0
 28 30  1  0  0  0  0
 29 25  1  0  0  0  0
 29 24  2  0  0  0  0
 31 32  1  0  0  0  0
 32 25  1  0  0  0  0
 33 34  1  1  0  0  0
 33 35  1  0  0  0  0
 36 37  2  0  0  0  0
 37 43  1  0  0  0  0
 38 41  2  0  0  0  0
 39 36  1  0  0  0  0
 40 35  1  6  0  0  0
 40 39  1  0  0  0  0
 40 38  1  0  0  0  0
 41 37  1  0  0  0  0
 43 42  3  0  0  0  0
M  END
>  <MODEL>
1

>  <REMARK>
 VINA RESULT:      -8.3      0.000      0.000
  Name = 
  13 active torsions:
  status: ('A' for Active; 'I' for Inactive)
    1  A    between atoms: C_1  and  C_8
    2  A    between atoms: C_1  and  C_35
    3  A    between atoms: C_4  and  C_14
    4  A    between atoms: C_6  and  C_17
    5  A    between atoms: C_8  and  C_30
    6  A    between atoms: C_10  and  S_41
    7  A    between atoms: C_11  and  C_14
    8  A    between atoms: N_12  and  C_17
    9  A    between atoms: C_14  and  S_41
   10  A    between atoms: C_16  and  C_43
   11  A    between atoms: C_19  and  C_37
   12  A    between atoms: C_21  and  C_30
   13  A    between atoms: C_27  and  C_30
                            x       y       z     vdW  Elec       q    Type
                         _______ _______ _______ _____ _____    ______ ____

>  <TORSDO>
F 13

$$$$
=
 OpenBabel11052416143D

 43 48  0  0  1  0  0  0  0  0999 V2000
  186.6370  178.9400  137.1550 N   0  0  0  0  0  0  0  0  0  0  0  0
  186.4670  177.6950  137.4380 C   0  0  0  0  0  0  0  0  0  0  0  0
  187.8580  179.4060  136.5370 C   0  0  0  0  0  2  0  0  0  0  0  0
  187.5470  176.6880  137.1380 C   0  0  0  0  0  2  0  0  0  0  0  0
  188.9630  177.2670  137.3250 C   0  0  1  0  0  3  0  0  0  0  0  0
  189.0550  178.8050  137.2680 C   0  0  0  0  0  2  0  0  0  0  0  0
  185.1980  177.2530  138.0890 C   0  0  0  0  0  2  0  0  0  0  0  0
  183.0690  178.2460  138.1170 C   0  0  0  0  0  2  0  0  0  0  0  0
  183.4280  177.8940  139.4860 C   0  0  1  0  0  3  0  0  0  0  0  0
  184.4590  178.4080  138.5710 N   0  0  0  0  0  0  0  0  0  0  0  0
  183.0180  179.0040  140.4400 C   0  0  2  0  0  3  0  0  0  0  0  0
  183.6490  178.8060  141.7840 C   0  0  0  0  0  0  0  0  0  0  0  0
  183.5240  178.7860  144.2100 C   0  0  0  0  0  3  0  0  0  0  0  0
  185.6080  178.2490  143.1010 C   0  0  0  0  0  3  0  0  0  0  0  0
  184.8710  178.4240  144.2770 C   0  0  0  0  0  3  0  0  0  0  0  0
  184.9970  178.4380  141.8580 C   0  0  0  0  0  3  0  0  0  0  0  0
  182.9120  178.9750  142.9670 C   0  0  0  0  0  3  0  0  0  0  0  0
  181.2000  179.0870  140.5680 S   0  0  0  0  0  0  0  0  0  0  0  0
  181.0230  177.2820  140.5720 C   0  0  1  0  0  3  0  0  0  0  0  0
  180.0770  175.4780  139.1850 C   0  0  0  0  0  1  0  0  0  0  0  0
  179.6760  176.9130  141.1540 C   0  0  0  0  0  2  0  0  0  0  0  0
  179.8800  176.9040  139.6550 C   0  0  1  0  0  3  0  0  0  0  0  0
  189.6530  176.6470  138.5470 C   0  0  1  0  0  3  0  0  0  0  0  0
  193.5250  175.0010  137.5940 C   0  0  0  0  0  0  0  0  0  0  0  0
  191.1090  174.7550  137.5760 C   0  0  0  0  0  0  0  0  0  0  0  0
  193.3970  176.2480  138.2070 C   0  0  0  0  0  3  0  0  0  0  0  0
  194.8720  174.4630  137.2740 C   0  0  0  0  0  1  0  0  0  0  0  0
  190.9780  176.0220  138.1950 C   0  0  0  0  0  0  0  0  0  0  0  0
  192.3840  174.2580  137.2800 C   0  0  0  0  0  3  0  0  0  0  0  0
  192.1310  176.7540  138.5050 C   0  0  0  0  0  3  0  0  0  0  0  0
  189.6510  174.0430  135.8550 O   0  0  0  0  0  1  0  0  0  0  0  0
  189.9260  173.9160  137.2170 C   0  0  0  0  0  2  0  0  0  0  0  0
  189.6850  177.5050  139.8280 C   0  0  1  0  0  3  0  0  0  0  0  0
  188.4120  177.9780  140.1500 O   0  0  0  0  0  1  0  0  0  0  0  0
  190.2740  176.7430  141.0170 C   0  0  0  0  0  2  0  0  0  0  0  0
  188.5380  176.7480  144.4280 C   0  0  0  0  0  3  0  0  0  0  0  0
  189.4930  177.3150  145.1740 C   0  0  0  0  0  0  0  0  0  0  0  0
  190.9810  177.5780  143.2580 C   0  0  0  0  0  3  0  0  0  0  0  0
  188.8290  176.3250  143.0140 C   0  0  0  0  0  2  0  0  0  0  0  0
  189.8060  177.3020  142.3530 C   0  0  2  0  0  3  0  0  0  0  0  0
  190.8120  177.6200  144.5830 C   0  0  0  0  0  3  0  0  0  0  0  0
  188.9890  177.9410  147.6900 C   0  0  0  0  0  3  0  0  0  0  0  0
  189.2200  177.6590  146.5410 C   0  0  0  0  0  0  0  0  0  0  0  0
  1  2  2  0  0  0  0
  2  7  1  0  0  0  0
  3  1  1  0  0  0  0
  3  6  1  0  0  0  0
  4  5  1  0  0  0  0
  4  2  1  0  0  0  0
  5 23  1  1  0  0  0
  6  5  1  0  0  0  0
  7 10  1  0  0  0  0
  8 10  1  0  0  0  0
  8  9  1  0  0  0  0
  9 11  1  1  0  0  0
 10  9  1  0  0  0  0
 11 18  1  1  0  0  0
 11 12  1  0  0  0  0
 12 16  2  0  0  0  0
 12 17  1  0  0  0  0
 13 15  1  0  0  0  0
 14 15  2  0  0  0  0
 16 14  1  0  0  0  0
 17 13  2  0  0  0  0
 19 18  1  6  0  0  0
 19 21  1  0  0  0  0
 22 20  1  1  0  0  0
 22 19  1  0  0  0  0
 22 21  1  0  0  0  0
 23 33  1  1  0  0  0
 24 26  1  0  0  0  0
 25 28  2  0  0  0  0
 26 30  2  0  0  0  0
 27 24  1  0  0  0  0
 28 30  1  0  0  0  0
 28 23  1  0  0  0  0
 29 25  1  0  0  0  0
 29 24  2  0  0  0  0
 31 32  1  0  0  0  0
 32 25  1  0  0  0  0
 33 34  1  1  0  0  0
 33 35  1  0  0  0  0
 36 37  2  0  0  0  0
 37 43  1  0  0  0  0
 38 41  2  0  0  0  0
 39 36  1  0  0  0  0
 40 35  1  6  0  0  0
 40 39  1  0  0  0  0
 40 38  1  0  0  0  0
 41 37  1  0  0  0  0
 43 42  3  0  0  0  0
M  END
>  <MODEL>
2

>  <REMARK>
 VINA RESULT:      -8.2      1.170      1.632
  Name = 
  13 active torsions:
  status: ('A' for Active; 'I' for Inactive)
    1  A    between atoms: C_1  and  C_8
    2  A    between atoms: C_1  and  C_35
    3  A    between atoms: C_4  and  C_14
    4  A    between atoms: C_6  and  C_17
    5  A    between atoms: C_8  and  C_30
    6  A    between atoms: C_10  and  S_41
    7  A    between atoms: C_11  and  C_14
    8  A    between atoms: N_12  and  C_17
    9  A    between atoms: C_14  and  S_41
   10  A    between atoms: C_16  and  C_43
   11  A    between atoms: C_19  and  C_37
   12  A    between atoms: C_21  and  C_30
   13  A    between atoms: C_27  and  C_30
                            x       y       z     vdW  Elec       q    Type
                         _______ _______ _______ _____ _____    ______ ____

>  <TORSDO>
F 13

$$$$
=
 OpenBabel11052416143D

 43 48  0  0  1  0  0  0  0  0999 V2000
  181.6460  179.0240  140.2690 N   0  0  0  0  0  0  0  0  0  0  0  0
  182.4500  178.1800  140.8180 C   0  0  0  0  0  0  0  0  0  0  0  0
  180.7970  178.6370  139.1640 C   0  0  0  0  0  2  0  0  0  0  0  0
  182.5320  176.7620  140.3150 C   0  0  0  0  0  2  0  0  0  0  0  0
  182.3430  176.6650  138.7890 C   0  0  1  0  0  3  0  0  0  0  0  0
  181.6230  177.8630  138.1400 C   0  0  0  0  0  2  0  0  0  0  0  0
  183.3220  178.6210  141.9480 C   0  0  0  0  0  2  0  0  0  0  0  0
  185.5320  179.0300  141.2660 C   0  0  0  0  0  2  0  0  0  0  0  0
  185.5360  178.7770  142.7030 C   0  0  1  0  0  3  0  0  0  0  0  0
  184.6350  178.0100  141.8280 N   0  0  0  0  0  0  0  0  0  0  0  0
  186.7200  177.9020  143.0800 C   0  0  2  0  0  3  0  0  0  0  0  0
  186.9210  177.8960  144.5640 C   0  0  0  0  0  0  0  0  0  0  0  0
  188.2940  177.4680  146.5220 C   0  0  0  0  0  3  0  0  0  0  0  0
  186.0500  178.3370  146.7840 C   0  0  0  0  0  3  0  0  0  0  0  0
  187.2540  177.9030  147.3460 C   0  0  0  0  0  3  0  0  0  0  0  0
  185.8860  178.3360  145.3950 C   0  0  0  0  0  3  0  0  0  0  0  0
  188.1310  177.4660  145.1330 C   0  0  0  0  0  3  0  0  0  0  0  0
  188.2220  178.4630  142.2100 S   0  0  0  0  0  0  0  0  0  0  0  0
  188.9670  176.8090  142.2310 C   0  0  1  0  0  3  0  0  0  0  0  0
  190.9260  175.6350  143.1540 C   0  0  0  0  0  1  0  0  0  0  0  0
  190.0050  176.7140  141.1340 C   0  0  0  0  0  2  0  0  0  0  0  0
  190.4370  176.9420  142.5660 C   0  0  1  0  0  3  0  0  0  0  0  0
  183.6570  176.2800  138.0960 C   0  0  1  0  0  3  0  0  0  0  0  0
  183.5690  172.3380  136.3460 C   0  0  0  0  0  0  0  0  0  0  0  0
  182.6980  174.6040  136.3890 C   0  0  0  0  0  0  0  0  0  0  0  0
  184.4380  172.6480  137.3940 C   0  0  0  0  0  3  0  0  0  0  0  0
  183.5670  170.9720  135.7620 C   0  0  0  0  0  1  0  0  0  0  0  0
  183.5810  174.9210  137.4500 C   0  0  0  0  0  0  0  0  0  0  0  0
  182.7030  173.3130  135.8460 C   0  0  0  0  0  3  0  0  0  0  0  0
  184.4420  173.9320  137.9410 C   0  0  0  0  0  3  0  0  0  0  0  0
  182.2750  176.1300  134.6320 O   0  0  0  0  0  1  0  0  0  0  0  0
  181.7500  175.6050  135.8140 C   0  0  0  0  0  2  0  0  0  0  0  0
  184.3110  177.3600  137.2110 C   0  0  1  0  0  3  0  0  0  0  0  0
  184.8080  178.4110  137.9830 O   0  0  0  0  0  1  0  0  0  0  0  0
  185.4240  176.7870  136.3310 C   0  0  0  0  0  2  0  0  0  0  0  0
  188.8320  175.4990  137.5050 C   0  0  0  0  0  3  0  0  0  0  0  0
  189.6030  176.5390  137.1660 C   0  0  0  0  0  0  0  0  0  0  0  0
  187.7010  177.8050  136.3090 C   0  0  0  0  0  3  0  0  0  0  0  0
  187.4000  175.4340  137.0480 C   0  0  0  0  0  2  0  0  0  0  0  0
  186.7840  176.8360  137.0130 C   0  0  2  0  0  3  0  0  0  0  0  0
  189.0260  177.6770  136.4210 C   0  0  0  0  0  3  0  0  0  0  0  0
  192.1440  176.5710  137.8860 C   0  0  0  0  0  3  0  0  0  0  0  0
  190.9840  176.5600  137.5570 C   0  0  0  0  0  0  0  0  0  0  0  0
  1  2  2  0  0  0  0
  2  7  1  0  0  0  0
  3  1  1  0  0  0  0
  4  2  1  0  0  0  0
  5 23  1  6  0  0  0
  5  4  1  0  0  0  0
  6  5  1  0  0  0  0
  6  3  1  0  0  0  0
  8 10  1  0  0  0  0
  8  9  1  0  0  0  0
  9 11  1  6  0  0  0
 10  7  1  0  0  0  0
 10  9  1  0  0  0  0
 11 18  1  6  0  0  0
 11 12  1  0  0  0  0
 12 17  2  0  0  0  0
 12 16  1  0  0  0  0
 13 15  2  0  0  0  0
 14 15  1  0  0  0  0
 16 14  2  0  0  0  0
 17 13  1  0  0  0  0
 19 18  1  6  0  0  0
 19 22  1  0  0  0  0
 21 19  1  0  0  0  0
 21 22  1  0  0  0  0
 22 20  1  1  0  0  0
 23 33  1  6  0  0  0
 24 26  1  0  0  0  0
 25 28  2  0  0  0  0
 26 30  2  0  0  0  0
 27 24  1  0  0  0  0
 28 30  1  0  0  0  0
 28 23  1  0  0  0  0
 29 24  2  0  0  0  0
 29 25  1  0  0  0  0
 31 32  1  0  0  0  0
 32 25  1  0  0  0  0
 33 34  1  1  0  0  0
 35 33  1  0  0  0  0
 37 36  2  0  0  0  0
 37 43  1  0  0  0  0
 38 41  2  0  0  0  0
 38 40  1  0  0  0  0
 39 36  1  0  0  0  0
 40 35  1  6  0  0  0
 40 39  1  0  0  0  0
 41 37  1  0  0  0  0
 43 42  3  0  0  0  0
M  END
>  <MODEL>
3

>  <REMARK>
 VINA RESULT:      -7.4      2.873      7.602
  Name = 
  13 active torsions:
  status: ('A' for Active; 'I' for Inactive)
    1  A    between atoms: C_1  and  C_8
    2  A    between atoms: C_1  and  C_35
    3  A    between atoms: C_4  and  C_14
    4  A    between atoms: C_6  and  C_17
    5  A    between atoms: C_8  and  C_30
    6  A    between atoms: C_10  and  S_41
    7  A    between atoms: C_11  and  C_14
    8  A    between atoms: N_12  and  C_17
    9  A    between atoms: C_14  and  S_41
   10  A    between atoms: C_16  and  C_43
   11  A    between atoms: C_19  and  C_37
   12  A    between atoms: C_21  and  C_30
   13  A    between atoms: C_27  and  C_30
                            x       y       z     vdW  Elec       q    Type
                         _______ _______ _______ _____ _____    ______ ____

>  <TORSDO>
F 13

$$$$
=
 OpenBabel11052416143D

 43 48  0  0  1  0  0  0  0  0999 V2000
  186.6260  176.1730  137.4980 N   0  0  0  0  0  0  0  0  0  0  0  0
  186.6530  177.4500  137.6600 C   0  0  0  0  0  0  0  0  0  0  0  0
  185.4880  175.5200  136.8900 C   0  0  0  0  0  2  0  0  0  0  0  0
  185.4880  178.3010  137.2260 C   0  0  0  0  0  2  0  0  0  0  0  0
  184.1340  177.5940  137.4220 C   0  0  1  0  0  3  0  0  0  0  0  0
  184.2040  176.0570  137.5170 C   0  0  0  0  0  2  0  0  0  0  0  0
  187.8400  178.0870  138.3050 C   0  0  0  0  0  2  0  0  0  0  0  0
  190.0270  177.5360  137.6460 C   0  0  0  0  0  2  0  0  0  0  0  0
  190.0370  177.8160  139.0770 C   0  0  1  0  0  3  0  0  0  0  0  0
  188.8960  177.1040  138.4820 N   0  0  0  0  0  0  0  0  0  0  0  0
  190.9190  176.8140  139.8030 C   0  0  2  0  0  3  0  0  0  0  0  0
  190.7380  176.9260  141.2860 C   0  0  0  0  0  0  0  0  0  0  0  0
  189.4070  176.6180  143.2950 C   0  0  0  0  0  3  0  0  0  0  0  0
  191.6270  177.5720  143.4480 C   0  0  0  0  0  3  0  0  0  0  0  0
  190.4430  177.1530  144.0630 C   0  0  0  0  0  3  0  0  0  0  0  0
  191.7740  177.4560  142.0620 C   0  0  0  0  0  3  0  0  0  0  0  0
  189.5530  176.5020  141.9090 C   0  0  0  0  0  3  0  0  0  0  0  0
  192.6650  177.0510  139.3310 S   0  0  0  0  0  0  0  0  0  0  0  0
  192.6530  175.6250  138.2090 C   0  0  1  0  0  3  0  0  0  0  0  0
  194.1140  173.7710  137.5010 C   0  0  0  0  0  1  0  0  0  0  0  0
  193.2910  176.0180  136.8940 C   0  0  0  0  0  2  0  0  0  0  0  0
  194.0840  175.2280  137.9120 C   0  0  1  0  0  3  0  0  0  0  0  0
  183.3300  178.2510  138.5530 C   0  0  1  0  0  3  0  0  0  0  0  0
  180.0410  175.7370  139.7660 C   0  0  0  0  0  0  0  0  0  0  0  0
  180.8020  177.8560  138.8570 C   0  0  0  0  0  0  0  0  0  0  0  0
  181.3640  175.3050  139.8750 C   0  0  0  0  0  3  0  0  0  0  0  0
  178.9310  174.8450  140.1870 C   0  0  0  0  0  1  0  0  0  0  0  0
  182.1440  177.4180  138.9640 C   0  0  0  0  0  0  0  0  0  0  0  0
  179.7620  177.0080  139.2580 C   0  0  0  0  0  3  0  0  0  0  0  0
  182.4080  176.1420  139.4760 C   0  0  0  0  0  3  0  0  0  0  0  0
  179.0920  179.4630  138.5560 O   0  0  0  0  0  1  0  0  0  0  0  0
  180.4430  179.2050  138.3220 C   0  0  0  0  0  2  0  0  0  0  0  0
  184.1420  178.8140  139.7370 C   0  0  1  0  0  3  0  0  0  0  0  0
  184.5730  180.1160  139.4790 O   0  0  0  0  0  1  0  0  0  0  0  0
  183.3510  178.7760  141.0460 C   0  0  0  0  0  2  0  0  0  0  0  0
  184.3960  178.5890  144.7230 C   0  0  0  0  0  3  0  0  0  0  0  0
  185.6580  178.1680  144.5860 C   0  0  0  0  0  0  0  0  0  0  0  0
  185.5020  178.1610  142.1510 C   0  0  0  0  0  3  0  0  0  0  0  0
  183.4700  178.6160  143.5390 C   0  0  0  0  0  2  0  0  0  0  0  0
  184.2400  178.9800  142.2660 C   0  0  2  0  0  3  0  0  0  0  0  0
  186.1810  177.8180  143.2490 C   0  0  0  0  0  3  0  0  0  0  0  0
  187.2290  178.0180  146.7050 C   0  0  0  0  0  3  0  0  0  0  0  0
  186.5130  178.0890  145.7370 C   0  0  0  0  0  0  0  0  0  0  0  0
  1  2  2  0  0  0  0
  2  7  1  0  0  0  0
  3  1  1  0  0  0  0
  3  6  1  0  0  0  0
  4  5  1  0  0  0  0
  4  2  1  0  0  0  0
  5  6  1  0  0  0  0
  5 23  1  1  0  0  0
  7 10  1  0  0  0  0
  8 10  1  0  0  0  0
  8  9  1  0  0  0  0
  9 11  1  1  0  0  0
 10  9  1  0  0  0  0
 11 18  1  1  0  0  0
 11 12  1  0  0  0  0
 12 17  2  0  0  0  0
 12 16  1  0  0  0  0
 13 15  2  0  0  0  0
 14 15  1  0  0  0  0
 16 14  2  0  0  0  0
 17 13  1  0  0  0  0
 19 18  1  1  0  0  0
 21 22  1  0  0  0  0
 21 19  1  0  0  0  0
 22 20  1  6  0  0  0
 22 19  1  0  0  0  0
 23 28  1  0  0  0  0
 23 33  1  1  0  0  0
 24 26  1  0  0  0  0
 24 27  1  0  0  0  0
 25 28  2  0  0  0  0
 25 29  1  0  0  0  0
 28 30  1  0  0  0  0
 29 24  2  0  0  0  0
 30 26  2  0  0  0  0
 32 31  1  0  0  0  0
 32 25  1  0  0  0  0
 33 34  1  6  0  0  0
 33 35  1  0  0  0  0
 37 36  2  0  0  0  0
 37 43  1  0  0  0  0
 38 40  1  0  0  0  0
 38 41  2  0  0  0  0
 39 36  1  0  0  0  0
 40 35  1  6  0  0  0
 40 39  1  0  0  0  0
 41 37  1  0  0  0  0
 43 42  3  0  0  0  0
M  END
>  <MODEL>
4

>  <REMARK>
 VINA RESULT:      -7.3      2.977      8.539
  Name = 
  13 active torsions:
  status: ('A' for Active; 'I' for Inactive)
    1  A    between atoms: C_1  and  C_8
    2  A    between atoms: C_1  and  C_35
    3  A    between atoms: C_4  and  C_14
    4  A    between atoms: C_6  and  C_17
    5  A    between atoms: C_8  and  C_30
    6  A    between atoms: C_10  and  S_41
    7  A    between atoms: C_11  and  C_14
    8  A    between atoms: N_12  and  C_17
    9  A    between atoms: C_14  and  S_41
   10  A    between atoms: C_16  and  C_43
   11  A    between atoms: C_19  and  C_37
   12  A    between atoms: C_21  and  C_30
   13  A    between atoms: C_27  and  C_30
                            x       y       z     vdW  Elec       q    Type
                         _______ _______ _______ _____ _____    ______ ____

>  <TORSDO>
F 13

$$$$
=
 OpenBabel11052416143D

 43 48  0  0  1  0  0  0  0  0999 V2000
  180.7840  177.5630  140.1580 N   0  0  0  0  0  0  0  0  0  0  0  0
  182.0550  177.3550  140.1780 C   0  0  0  0  0  0  0  0  0  0  0  0
  179.8590  176.5080  139.8090 C   0  0  0  0  0  2  0  0  0  0  0  0
  182.6140  176.0000  139.8270 C   0  0  0  0  0  2  0  0  0  0  0  0
  181.8000  175.2920  138.7280 C   0  0  1  0  0  3  0  0  0  0  0  0
  180.3540  175.7970  138.5530 C   0  0  0  0  0  2  0  0  0  0  0  0
  182.9800  178.4730  140.5290 C   0  0  0  0  0  2  0  0  0  0  0  0
  185.2530  179.0030  140.2630 C   0  0  0  0  0  2  0  0  0  0  0  0
  184.9800  178.8610  141.6890 C   0  0  1  0  0  3  0  0  0  0  0  0
  184.3260  177.9600  140.7270 N   0  0  0  0  0  0  0  0  0  0  0  0
  186.1150  178.1140  142.3700 C   0  0  2  0  0  3  0  0  0  0  0  0
  185.9840  178.1970  143.8590 C   0  0  0  0  0  0  0  0  0  0  0  0
  184.8540  179.0030  145.8530 C   0  0  0  0  0  3  0  0  0  0  0  0
  186.7980  177.5750  146.0580 C   0  0  0  0  0  3  0  0  0  0  0  0
  185.7760  178.3210  146.6510 C   0  0  0  0  0  3  0  0  0  0  0  0
  186.9000  177.5120  144.6650 C   0  0  0  0  0  3  0  0  0  0  0  0
  184.9550  178.9400  144.4600 C   0  0  0  0  0  3  0  0  0  0  0  0
  187.7250  178.7640  141.8110 S   0  0  0  0  0  0  0  0  0  0  0  0
  188.5010  177.1250  141.8310 C   0  0  1  0  0  3  0  0  0  0  0  0
  190.2240  175.8700  143.0670 C   0  0  0  0  0  1  0  0  0  0  0  0
  189.7740  177.1640  141.0140 C   0  0  0  0  0  2  0  0  0  0  0  0
  189.8430  177.2310  142.5240 C   0  0  1  0  0  3  0  0  0  0  0  0
  182.5960  175.2180  137.4170 C   0  0  1  0  0  3  0  0  0  0  0  0
  182.6730  171.2140  135.8130 C   0  0  0  0  0  0  0  0  0  0  0  0
  183.7600  172.9360  137.1350 C   0  0  0  0  0  0  0  0  0  0  0  0
  181.6070  172.0780  135.5580 C   0  0  0  0  0  3  0  0  0  0  0  0
  182.6670  169.8400  135.2500 C   0  0  0  0  0  1  0  0  0  0  0  0
  182.6780  173.8120  136.8810 C   0  0  0  0  0  0  0  0  0  0  0  0
  183.7450  171.6430  136.6000 C   0  0  0  0  0  3  0  0  0  0  0  0
  181.6110  173.3690  136.0890 C   0  0  0  0  0  3  0  0  0  0  0  0
  186.1020  172.7970  137.4350 O   0  0  0  0  0  1  0  0  0  0  0  0
  184.9330  173.3390  137.9690 C   0  0  0  0  0  2  0  0  0  0  0  0
  182.2620  176.2790  136.3490 C   0  0  1  0  0  3  0  0  0  0  0  0
  181.8320  177.4690  136.9370 O   0  0  0  0  0  1  0  0  0  0  0  0
  183.4480  176.5540  135.4220 C   0  0  0  0  0  2  0  0  0  0  0  0
  187.1640  175.6750  135.6700 C   0  0  0  0  0  3  0  0  0  0  0  0
  187.5730  176.6260  136.5160 C   0  0  0  0  0  0  0  0  0  0  0  0
  185.3240  177.5510  136.7280 C   0  0  0  0  0  3  0  0  0  0  0  0
  185.7810  175.7240  135.0810 C   0  0  0  0  0  2  0  0  0  0  0  0
  184.7860  176.2900  136.0980 C   0  0  2  0  0  3  0  0  0  0  0  0
  186.6350  177.6800  136.9550 C   0  0  0  0  0  3  0  0  0  0  0  0
  190.0460  176.5830  137.4440 C   0  0  0  0  0  3  0  0  0  0  0  0
  188.9160  176.6010  137.0240 C   0  0  0  0  0  0  0  0  0  0  0  0
  1  2  2  0  0  0  0
  2  7  1  0  0  0  0
  3  1  1  0  0  0  0
  4  2  1  0  0  0  0
  5 23  1  6  0  0  0
  5  4  1  0  0  0  0
  6  5  1  0  0  0  0
  6  3  1  0  0  0  0
  7 10  1  0  0  0  0
  8 10  1  0  0  0  0
  8  9  1  0  0  0  0
  9 11  1  1  0  0  0
 10  9  1  0  0  0  0
 11 18  1  1  0  0  0
 11 12  1  0  0  0  0
 12 17  2  0  0  0  0
 12 16  1  0  0  0  0
 13 15  2  0  0  0  0
 14 15  1  0  0  0  0
 16 14  2  0  0  0  0
 17 13  1  0  0  0  0
 19 18  1  6  0  0  0
 19 22  1  0  0  0  0
 21 19  1  0  0  0  0
 21 22  1  0  0  0  0
 22 20  1  1  0  0  0
 23 33  1  6  0  0  0
 24 29  1  0  0  0  0
 25 32  1  0  0  0  0
 26 24  2  0  0  0  0
 26 30  1  0  0  0  0
 27 24  1  0  0  0  0
 28 25  1  0  0  0  0
 28 23  1  0  0  0  0
 29 25  2  0  0  0  0
 30 28  2  0  0  0  0
 31 32  1  0  0  0  0
 33 34  1  1  0  0  0
 35 33  1  0  0  0  0
 36 37  2  0  0  0  0
 37 41  1  0  0  0  0
 37 43  1  0  0  0  0
 38 41  2  0  0  0  0
 39 36  1  0  0  0  0
 39 40  1  0  0  0  0
 40 35  1  6  0  0  0
 40 38  1  0  0  0  0
 43 42  3  0  0  0  0
M  END
>  <MODEL>
5

>  <REMARK>
 VINA RESULT:      -7.3      3.314      7.899
  Name = 
  13 active torsions:
  status: ('A' for Active; 'I' for Inactive)
    1  A    between atoms: C_1  and  C_8
    2  A    between atoms: C_1  and  C_35
    3  A    between atoms: C_4  and  C_14
    4  A    between atoms: C_6  and  C_17
    5  A    between atoms: C_8  and  C_30
    6  A    between atoms: C_10  and  S_41
    7  A    between atoms: C_11  and  C_14
    8  A    between atoms: N_12  and  C_17
    9  A    between atoms: C_14  and  S_41
   10  A    between atoms: C_16  and  C_43
   11  A    between atoms: C_19  and  C_37
   12  A    between atoms: C_21  and  C_30
   13  A    between atoms: C_27  and  C_30
                            x       y       z     vdW  Elec       q    Type
                         _______ _______ _______ _____ _____    ______ ____

>  <TORSDO>
F 13

$$$$
=
 OpenBabel11052416143D

 43 48  0  0  1  0  0  0  0  0999 V2000
  185.2960  176.7340  136.6770 N   0  0  0  0  0  0  0  0  0  0  0  0
  185.9710  177.2440  137.6490 C   0  0  0  0  0  0  0  0  0  0  0  0
  184.1450  177.4150  136.1290 C   0  0  0  0  0  2  0  0  0  0  0  0
  185.5690  178.5670  138.2480 C   0  0  0  0  0  2  0  0  0  0  0  0
  184.0420  178.7670  138.2690 C   0  0  1  0  0  3  0  0  0  0  0  0
  183.2530  177.8980  137.2690 C   0  0  0  0  0  2  0  0  0  0  0  0
  187.1460  176.5040  138.1990 C   0  0  0  0  0  2  0  0  0  0  0  0
  188.2800  177.8970  139.7130 C   0  0  0  0  0  2  0  0  0  0  0  0
  189.1730  176.8080  139.3350 C   0  0  1  0  0  3  0  0  0  0  0  0
  188.2810  177.4020  138.3280 N   0  0  0  0  0  0  0  0  0  0  0  0
  190.5820  177.3340  139.1180 C   0  0  2  0  0  3  0  0  0  0  0  0
  191.4340  176.3030  138.4440 C   0  0  0  0  0  0  0  0  0  0  0  0
  191.6810  174.2260  137.2090 C   0  0  0  0  0  3  0  0  0  0  0  0
  193.6380  175.5250  137.7960 C   0  0  0  0  0  3  0  0  0  0  0  0
  193.0670  174.4010  137.1920 C   0  0  0  0  0  3  0  0  0  0  0  0
  192.8230  176.4750  138.4180 C   0  0  0  0  0  3  0  0  0  0  0  0
  190.8650  175.1750  137.8310 C   0  0  0  0  0  3  0  0  0  0  0  0
  191.3120  177.8600  140.7050 S   0  0  0  0  0  0  0  0  0  0  0  0
  190.6470  176.4250  141.5950 C   0  0  1  0  0  3  0  0  0  0  0  0
  188.8790  175.8680  143.2170 C   0  0  0  0  0  1  0  0  0  0  0  0
  191.2870  176.3450  142.9630 C   0  0  0  0  0  2  0  0  0  0  0  0
  189.8940  176.9150  142.8140 C   0  0  1  0  0  3  0  0  0  0  0  0
  183.4990  178.7110  139.7040 C   0  0  1  0  0  3  0  0  0  0  0  0
  180.2870  175.8530  140.0460 C   0  0  0  0  0  0  0  0  0  0  0  0
  181.0080  178.1710  140.0810 C   0  0  0  0  0  0  0  0  0  0  0  0
  181.6000  175.4440  139.8090 C   0  0  0  0  0  3  0  0  0  0  0  0
  179.2020  174.8440  140.1540 C   0  0  0  0  0  1  0  0  0  0  0  0
  182.3400  177.7580  139.8360 C   0  0  0  0  0  0  0  0  0  0  0  0
  179.9930  177.2120  140.1810 C   0  0  0  0  0  3  0  0  0  0  0  0
  182.6190  176.3920  139.7050 C   0  0  0  0  0  3  0  0  0  0  0  0
  180.1840  179.8480  141.5320 O   0  0  0  0  0  1  0  0  0  0  0  0
  180.6340  179.6100  140.2330 C   0  0  0  0  0  2  0  0  0  0  0  0
  184.5450  178.5870  140.8300 C   0  0  1  0  0  3  0  0  0  0  0  0
  185.3070  179.7510  140.9420 O   0  0  0  0  0  1  0  0  0  0  0  0
  183.9030  178.2530  142.1780 C   0  0  0  0  0  2  0  0  0  0  0  0
  184.8820  178.7700  145.8420 C   0  0  0  0  0  3  0  0  0  0  0  0
  186.0900  178.1960  145.8430 C   0  0  0  0  0  0  0  0  0  0  0  0
  185.9590  177.6700  143.4640 C   0  0  0  0  0  3  0  0  0  0  0  0
  183.9770  178.6340  144.6480 C   0  0  0  0  0  2  0  0  0  0  0  0
  184.7960  178.6250  143.3540 C   0  0  2  0  0  3  0  0  0  0  0  0
  186.5840  177.5070  144.6330 C   0  0  0  0  0  3  0  0  0  0  0  0
  187.6190  178.3480  147.9920 C   0  0  0  0  0  3  0  0  0  0  0  0
  186.9200  178.2820  147.0120 C   0  0  0  0  0  0  0  0  0  0  0  0
  1  2  2  0  0  0  0
  2  7  1  0  0  0  0
  2  4  1  0  0  0  0
  3  1  1  0  0  0  0
  3  6  1  0  0  0  0
  4  5  1  0  0  0  0
  5 23  1  1  0  0  0
  6  5  1  0  0  0  0
  7 10  1  0  0  0  0
  9 11  1  6  0  0  0
  9  8  1  0  0  0  0
 10  9  1  0  0  0  0
 10  8  1  0  0  0  0
 11 18  1  1  0  0  0
 12 11  1  0  0  0  0
 13 17  1  0  0  0  0
 14 16  2  0  0  0  0
 15 13  2  0  0  0  0
 15 14  1  0  0  0  0
 16 12  1  0  0  0  0
 17 12  2  0  0  0  0
 19 18  1  6  0  0  0
 19 22  1  0  0  0  0
 19 21  1  0  0  0  0
 22 21  1  0  0  0  0
 22 20  1  1  0  0  0
 23 28  1  0  0  0  0
 23 33  1  1  0  0  0
 24 27  1  0  0  0  0
 24 29  1  0  0  0  0
 25 29  2  0  0  0  0
 25 32  1  0  0  0  0
 26 24  2  0  0  0  0
 28 25  1  0  0  0  0
 30 26  1  0  0  0  0
 30 28  2  0  0  0  0
 32 31  1  0  0  0  0
 33 34  1  1  0  0  0
 33 35  1  0  0  0  0
 36 37  2  0  0  0  0
 37 43  1  0  0  0  0
 38 41  2  0  0  0  0
 39 36  1  0  0  0  0
 40 35  1  6  0  0  0
 40 38  1  0  0  0  0
 40 39  1  0  0  0  0
 41 37  1  0  0  0  0
 43 42  3  0  0  0  0
M  END
>  <MODEL>
6

>  <REMARK>
 VINA RESULT:      -7.1      2.679      8.513
  Name = 
  13 active torsions:
  status: ('A' for Active; 'I' for Inactive)
    1  A    between atoms: C_1  and  C_8
    2  A    between atoms: C_1  and  C_35
    3  A    between atoms: C_4  and  C_14
    4  A    between atoms: C_6  and  C_17
    5  A    between atoms: C_8  and  C_30
    6  A    between atoms: C_10  and  S_41
    7  A    between atoms: C_11  and  C_14
    8  A    between atoms: N_12  and  C_17
    9  A    between atoms: C_14  and  S_41
   10  A    between atoms: C_16  and  C_43
   11  A    between atoms: C_19  and  C_37
   12  A    between atoms: C_21  and  C_30
   13  A    between atoms: C_27  and  C_30
                            x       y       z     vdW  Elec       q    Type
                         _______ _______ _______ _____ _____    ______ ____

>  <TORSDO>
F 13

$$$$
=
 OpenBabel11052416143D

 43 48  0  0  1  0  0  0  0  0999 V2000
  184.0610  178.4080  145.7940 N   0  0  0  0  0  0  0  0  0  0  0  0
  184.6190  179.2390  144.9840 C   0  0  0  0  0  0  0  0  0  0  0  0
  184.7550  177.9280  146.9680 C   0  0  0  0  0  2  0  0  0  0  0  0
  186.0210  179.7300  145.2360 C   0  0  0  0  0  2  0  0  0  0  0  0
  186.9200  178.6500  145.8680 C   0  0  1  0  0  3  0  0  0  0  0  0
  186.1700  177.5070  146.5810 C   0  0  0  0  0  2  0  0  0  0  0  0
  183.8750  179.7010  143.7730 C   0  0  0  0  0  2  0  0  0  0  0  0
  181.7010  179.0260  143.1950 C   0  0  0  0  0  2  0  0  0  0  0  0
  182.4950  179.1070  141.9750 C   0  0  1  0  0  3  0  0  0  0  0  0
  183.1090  178.6010  143.2120 N   0  0  0  0  0  0  0  0  0  0  0  0
  182.1810  177.9310  141.0640 C   0  0  2  0  0  3  0  0  0  0  0  0
  183.1850  177.8380  139.9560 C   0  0  0  0  0  0  0  0  0  0  0  0
  185.1860  178.6280  138.8270 C   0  0  0  0  0  3  0  0  0  0  0  0
  183.9720  176.7270  137.9490 C   0  0  0  0  0  3  0  0  0  0  0  0
  185.0400  177.6240  137.8660 C   0  0  0  0  0  3  0  0  0  0  0  0
  183.0480  176.8320  138.9930 C   0  0  0  0  0  3  0  0  0  0  0  0
  184.2630  178.7340  139.8720 C   0  0  0  0  0  3  0  0  0  0  0  0
  180.4850  178.0740  140.4090 S   0  0  0  0  0  0  0  0  0  0  0  0
  180.7730  179.7450  139.7640 C   0  0  1  0  0  3  0  0  0  0  0  0
  179.5110  181.7590  139.1160 C   0  0  0  0  0  1  0  0  0  0  0  0
  180.6280  179.7320  138.2580 C   0  0  0  0  0  2  0  0  0  0  0  0
  179.4970  180.2460  139.1220 C   0  0  1  0  0  3  0  0  0  0  0  0
  187.9840  178.1690  144.8710 C   0  0  1  0  0  3  0  0  0  0  0  0
  191.3100  176.3980  146.9700 C   0  0  0  0  0  0  0  0  0  0  0  0
  190.5190  177.8060  145.1570 C   0  0  0  0  0  0  0  0  0  0  0  0
  189.9930  176.1660  147.3700 C   0  0  0  0  0  3  0  0  0  0  0  0
  192.4340  175.7770  147.7170 C   0  0  0  0  0  1  0  0  0  0  0  0
  189.1830  177.5750  145.5640 C   0  0  0  0  0  0  0  0  0  0  0  0
  191.5710  177.2150  145.8680 C   0  0  0  0  0  3  0  0  0  0  0  0
  188.9370  176.7520  146.6700 C   0  0  0  0  0  3  0  0  0  0  0  0
  192.0550  179.3450  144.2270 O   0  0  0  0  0  1  0  0  0  0  0  0
  190.8590  178.6700  143.9860 C   0  0  0  0  0  2  0  0  0  0  0  0
  187.4780  177.3440  143.6710 C   0  0  1  0  0  3  0  0  0  0  0  0
  186.2450  176.7530  143.9480 O   0  0  0  0  0  1  0  0  0  0  0  0
  187.3780  178.1840  142.3960 C   0  0  0  0  0  2  0  0  0  0  0  0
  189.3760  178.0850  139.1330 C   0  0  0  0  0  3  0  0  0  0  0  0
  190.3350  177.2170  139.4740 C   0  0  0  0  0  0  0  0  0  0  0  0
  189.4030  176.9020  141.7060 C   0  0  0  0  0  3  0  0  0  0  0  0
  188.4370  178.6280  140.1750 C   0  0  0  0  0  2  0  0  0  0  0  0
  188.1330  177.5600  141.2300 C   0  0  2  0  0  3  0  0  0  0  0  0
  190.4190  176.7110  140.8590 C   0  0  0  0  0  3  0  0  0  0  0  0
  192.0400  176.3690  137.6430 C   0  0  0  0  0  3  0  0  0  0  0  0
  191.2630  176.7530  138.4800 C   0  0  0  0  0  0  0  0  0  0  0  0
  1  3  1  0  0  0  0
  2  4  1  0  0  0  0
  2  1  2  0  0  0  0
  4  5  1  0  0  0  0
  5 23  1  6  0  0  0
  5  6  1  0  0  0  0
  6  3  1  0  0  0  0
  7  2  1  0  0  0  0
  8 10  1  0  0  0  0
  9 11  1  6  0  0  0
  9  8  1  0  0  0  0
  9 10  1  0  0  0  0
 10  7  1  0  0  0  0
 11 18  1  6  0  0  0
 12 11  1  0  0  0  0
 13 17  2  0  0  0  0
 14 16  1  0  0  0  0
 15 14  2  0  0  0  0
 15 13  1  0  0  0  0
 16 12  2  0  0  0  0
 17 12  1  0  0  0  0
 19 18  1  1  0  0  0
 21 22  1  0  0  0  0
 21 19  1  0  0  0  0
 22 20  1  6  0  0  0
 22 19  1  0  0  0  0
 23 33  1  6  0  0  0
 23 28  1  0  0  0  0
 24 26  1  0  0  0  0
 24 27  1  0  0  0  0
 25 28  2  0  0  0  0
 25 29  1  0  0  0  0
 28 30  1  0  0  0  0
 29 24  2  0  0  0  0
 30 26  2  0  0  0  0
 32 31  1  0  0  0  0
 32 25  1  0  0  0  0
 33 34  1  1  0  0  0
 35 33  1  0  0  0  0
 36 37  2  0  0  0  0
 36 39  1  0  0  0  0
 37 41  1  0  0  0  0
 39 40  1  0  0  0  0
 40 38  1  0  0  0  0
 40 35  1  1  0  0  0
 41 38  2  0  0  0  0
 42 43  3  0  0  0  0
 43 37  1  0  0  0  0
M  END
>  <MODEL>
7

>  <REMARK>
 VINA RESULT:      -7.0      2.585      6.675
  Name = 
  13 active torsions:
  status: ('A' for Active; 'I' for Inactive)
    1  A    between atoms: C_1  and  C_8
    2  A    between atoms: C_1  and  C_35
    3  A    between atoms: C_4  and  C_14
    4  A    between atoms: C_6  and  C_17
    5  A    between atoms: C_8  and  C_30
    6  A    between atoms: C_10  and  S_41
    7  A    between atoms: C_11  and  C_14
    8  A    between atoms: N_12  and  C_17
    9  A    between atoms: C_14  and  S_41
   10  A    between atoms: C_16  and  C_43
   11  A    between atoms: C_19  and  C_37
   12  A    between atoms: C_21  and  C_30
   13  A    between atoms: C_27  and  C_30
                            x       y       z     vdW  Elec       q    Type
                         _______ _______ _______ _____ _____    ______ ____

>  <TORSDO>
F 13

$$$$
=
 OpenBabel11052416143D

 43 48  0  0  1  0  0  0  0  0999 V2000
  186.6720  179.2010  137.2290 N   0  0  0  0  0  0  0  0  0  0  0  0
  186.3520  178.1410  137.8860 C   0  0  0  0  0  0  0  0  0  0  0  0
  187.7590  179.1890  136.2740 C   0  0  0  0  0  2  0  0  0  0  0  0
  187.1120  176.8560  137.6830 C   0  0  0  0  0  2  0  0  0  0  0  0
  188.6100  177.0920  137.4120 C   0  0  1  0  0  3  0  0  0  0  0  0
  188.9700  178.5000  136.8970 C   0  0  0  0  0  2  0  0  0  0  0  0
  185.2330  178.1960  138.8740 C   0  0  0  0  0  2  0  0  0  0  0  0
  183.3090  176.8830  139.1770 C   0  0  0  0  0  2  0  0  0  0  0  0
  182.9010  178.2820  139.0960 C   0  0  1  0  0  3  0  0  0  0  0  0
  183.9910  177.7880  138.2390 N   0  0  0  0  0  0  0  0  0  0  0  0
  181.6390  178.4140  138.2600 C   0  0  2  0  0  3  0  0  0  0  0  0
  181.3270  179.8560  137.9990 C   0  0  0  0  0  0  0  0  0  0  0  0
  179.9660  181.5840  136.9690 C   0  0  0  0  0  3  0  0  0  0  0  0
  181.8630  182.1960  138.3430 C   0  0  0  0  0  3  0  0  0  0  0  0
  180.7800  182.5660  137.5400 C   0  0  0  0  0  3  0  0  0  0  0  0
  182.1340  180.8440  138.5730 C   0  0  0  0  0  3  0  0  0  0  0  0
  180.2360  180.2320  137.1990 C   0  0  0  0  0  3  0  0  0  0  0  0
  180.2450  177.5740  139.0830 S   0  0  0  0  0  0  0  0  0  0  0  0
  180.5290  178.4360  140.6540 C   0  0  1  0  0  3  0  0  0  0  0  0
  180.0240  178.1970  143.0540 C   0  0  0  0  0  1  0  0  0  0  0  0
  179.3390  179.3170  140.9640 C   0  0  0  0  0  2  0  0  0  0  0  0
  179.4890  177.9800  141.6550 C   0  0  1  0  0  3  0  0  0  0  0  0
  189.4640  176.6280  138.6000 C   0  0  1  0  0  3  0  0  0  0  0  0
  193.1570  174.7620  137.3830 C   0  0  0  0  0  0  0  0  0  0  0  0
  190.7340  174.6690  137.5100 C   0  0  0  0  0  0  0  0  0  0  0  0
  193.1470  176.0010  138.0240 C   0  0  0  0  0  3  0  0  0  0  0  0
  194.4460  174.1480  136.9720 C   0  0  0  0  0  1  0  0  0  0  0  0
  190.7220  175.9280  138.1570 C   0  0  0  0  0  0  0  0  0  0  0  0
  191.9540  174.0990  137.1270 C   0  0  0  0  0  3  0  0  0  0  0  0
  191.9360  176.5800  138.4080 C   0  0  0  0  0  3  0  0  0  0  0  0
  189.7610  172.8490  136.3530 O   0  0  0  0  0  1  0  0  0  0  0  0
  189.4800  173.9140  137.2090 C   0  0  0  0  0  2  0  0  0  0  0  0
  189.6800  177.6510  139.7330 C   0  0  1  0  0  3  0  0  0  0  0  0
  188.5250  178.4000  139.9640 O   0  0  0  0  0  1  0  0  0  0  0  0
  190.1370  176.9840  141.0320 C   0  0  0  0  0  2  0  0  0  0  0  0
  188.0510  176.6090  144.2190 C   0  0  0  0  0  3  0  0  0  0  0  0
  188.6230  177.5460  144.9830 C   0  0  0  0  0  0  0  0  0  0  0  0
  190.1730  178.1930  143.2130 C   0  0  0  0  0  3  0  0  0  0  0  0
  188.6710  176.2160  142.9060 C   0  0  0  0  0  2  0  0  0  0  0  0
  189.3160  177.4320  142.2330 C   0  0  2  0  0  3  0  0  0  0  0  0
  189.8150  178.2710  144.4980 C   0  0  0  0  0  3  0  0  0  0  0  0
  187.5730  178.1350  147.3340 C   0  0  0  0  0  3  0  0  0  0  0  0
  188.0550  177.8690  146.2620 C   0  0  0  0  0  0  0  0  0  0  0  0
  1  2  2  0  0  0  0
  2  7  1  0  0  0  0
  3  6  1  0  0  0  0
  3  1  1  0  0  0  0
  4  2  1  0  0  0  0
  5  4  1  0  0  0  0
  5 23  1  1  0  0  0
  6  5  1  0  0  0  0
  9 11  1  6  0  0  0
  9  8  1  0  0  0  0
 10  7  1  0  0  0  0
 10  9  1  0  0  0  0
 10  8  1  0  0  0  0
 11 18  1  1  0  0  0
 12 11  1  0  0  0  0
 12 16  1  0  0  0  0
 13 17  1  0  0  0  0
 13 15  2  0  0  0  0
 14 16  2  0  0  0  0
 15 14  1  0  0  0  0
 17 12  2  0  0  0  0
 19 18  1  6  0  0  0
 19 21  1  0  0  0  0
 19 22  1  0  0  0  0
 21 22  1  0  0  0  0
 22 20  1  1  0  0  0
 23 33  1  6  0  0  0
 24 26  1  0  0  0  0
 25 28  2  0  0  0  0
 26 30  2  0  0  0  0
 27 24  1  0  0  0  0
 28 30  1  0  0  0  0
 28 23  1  0  0  0  0
 29 24  2  0  0  0  0
 29 25  1  0  0  0  0
 31 32  1  0  0  0  0
 32 25  1  0  0  0  0
 33 34  1  1  0  0  0
 33 35  1  0  0  0  0
 36 37  2  0  0  0  0
 37 43  1  0  0  0  0
 38 41  2  0  0  0  0
 39 36  1  0  0  0  0
 40 35  1  6  0  0  0
 40 39  1  0  0  0  0
 40 38  1  0  0  0  0
 41 37  1  0  0  0  0
 43 42  3  0  0  0  0
M  END
>  <MODEL>
8

>  <REMARK>
 VINA RESULT:      -6.9      1.360      2.886
  Name = 
  13 active torsions:
  status: ('A' for Active; 'I' for Inactive)
    1  A    between atoms: C_1  and  C_8
    2  A    between atoms: C_1  and  C_35
    3  A    between atoms: C_4  and  C_14
    4  A    between atoms: C_6  and  C_17
    5  A    between atoms: C_8  and  C_30
    6  A    between atoms: C_10  and  S_41
    7  A    between atoms: C_11  and  C_14
    8  A    between atoms: N_12  and  C_17
    9  A    between atoms: C_14  and  S_41
   10  A    between atoms: C_16  and  C_43
   11  A    between atoms: C_19  and  C_37
   12  A    between atoms: C_21  and  C_30
   13  A    between atoms: C_27  and  C_30
                            x       y       z     vdW  Elec       q    Type
                         _______ _______ _______ _____ _____    ______ ____

>  <TORSDO>
F 13

$$$$
=
 OpenBabel11052416143D

 43 48  0  0  1  0  0  0  0  0999 V2000
  191.2730  177.6070  140.7550 N   0  0  0  0  0  0  0  0  0  0  0  0
  190.1430  177.2660  140.2390 C   0  0  0  0  0  0  0  0  0  0  0  0
  191.6580  177.1580  142.0750 C   0  0  0  0  0  2  0  0  0  0  0  0
  189.1850  176.3910  141.0050 C   0  0  0  0  0  2  0  0  0  0  0  0
  189.2120  176.6710  142.5200 C   0  0  1  0  0  3  0  0  0  0  0  0
  190.4910  177.3590  143.0370 C   0  0  0  0  0  2  0  0  0  0  0  0
  189.7740  177.7610  138.8790 C   0  0  0  0  0  2  0  0  0  0  0  0
  188.0170  178.2020  137.3840 C   0  0  0  0  0  2  0  0  0  0  0  0
  188.3400  176.7820  137.3050 C   0  0  1  0  0  3  0  0  0  0  0  0
  188.3770  177.4670  138.6060 N   0  0  0  0  0  0  0  0  0  0  0  0
  187.0660  175.9560  137.2190 C   0  0  2  0  0  3  0  0  0  0  0  0
  187.3760  174.5460  136.8230 C   0  0  0  0  0  0  0  0  0  0  0  0
  188.9210  172.8560  136.0090 C   0  0  0  0  0  3  0  0  0  0  0  0
  186.6370  172.2530  136.5430 C   0  0  0  0  0  3  0  0  0  0  0  0
  187.9110  171.8930  136.0930 C   0  0  0  0  0  3  0  0  0  0  0  0
  186.3720  173.5760  136.9090 C   0  0  0  0  0  3  0  0  0  0  0  0
  188.6560  174.1790  136.3750 C   0  0  0  0  0  3  0  0  0  0  0  0
  185.8910  176.7270  136.0570 S   0  0  0  0  0  0  0  0  0  0  0  0
  184.6070  176.9060  137.3260 C   0  0  1  0  0  3  0  0  0  0  0  0
  182.7510  175.6270  138.3230 C   0  0  0  0  0  1  0  0  0  0  0  0
  183.3230  177.3750  136.6750 C   0  0  0  0  0  2  0  0  0  0  0  0
  183.4980  175.9160  137.0380 C   0  0  1  0  0  3  0  0  0  0  0  0
  187.9120  177.3480  142.9770 C   0  0  1  0  0  3  0  0  0  0  0  0
  187.9020  177.7510  147.2720 C   0  0  0  0  0  0  0  0  0  0  0  0
  186.6700  177.8360  145.1810 C   0  0  0  0  0  0  0  0  0  0  0  0
  189.0680  177.4290  146.5760 C   0  0  0  0  0  3  0  0  0  0  0  0
  187.9310  177.8780  148.7510 C   0  0  0  0  0  1  0  0  0  0  0  0
  187.8510  177.5050  144.4740 C   0  0  0  0  0  0  0  0  0  0  0  0
  186.7080  177.9540  146.5760 C   0  0  0  0  0  3  0  0  0  0  0  0
  189.0410  177.3070  145.1850 C   0  0  0  0  0  3  0  0  0  0  0  0
  184.9430  179.3780  144.6940 O   0  0  0  0  0  1  0  0  0  0  0  0
  185.3640  178.0630  144.4910 C   0  0  0  0  0  2  0  0  0  0  0  0
  187.4800  178.6040  142.1950 C   0  0  1  0  0  3  0  0  0  0  0  0
  188.5810  179.3920  141.8560 O   0  0  0  0  0  1  0  0  0  0  0  0
  186.6840  178.2530  140.9370 C   0  0  0  0  0  2  0  0  0  0  0  0
  183.4820  179.7510  139.4690 C   0  0  0  0  0  3  0  0  0  0  0  0
  182.5660  179.0830  140.1790 C   0  0  0  0  0  0  0  0  0  0  0  0
  184.2700  177.8780  141.4420 C   0  0  0  0  0  3  0  0  0  0  0  0
  184.9310  179.3540  139.5340 C   0  0  0  0  0  2  0  0  0  0  0  0
  185.2910  178.8690  140.9410 C   0  0  2  0  0  3  0  0  0  0  0  0
  182.9830  178.0130  141.1070 C   0  0  0  0  0  3  0  0  0  0  0  0
  180.0150  179.7320  139.9580 C   0  0  0  0  0  3  0  0  0  0  0  0
  181.1780  179.4330  140.0610 C   0  0  0  0  0  0  0  0  0  0  0  0
  1  3  1  0  0  0  0
  2  1  2  0  0  0  0
  2  4  1  0  0  0  0
  3  6  1  0  0  0  0
  4  5  1  0  0  0  0
  5 23  1  6  0  0  0
  5  6  1  0  0  0  0
  7  2  1  0  0  0  0
  8 10  1  0  0  0  0
  9 11  1  1  0  0  0
  9  8  1  0  0  0  0
  9 10  1  0  0  0  0
 10  7  1  0  0  0  0
 11 18  1  6  0  0  0
 12 16  1  0  0  0  0
 12 11  1  0  0  0  0
 13 15  2  0  0  0  0
 13 17  1  0  0  0  0
 14 16  2  0  0  0  0
 15 14  1  0  0  0  0
 17 12  2  0  0  0  0
 19 18  1  6  0  0  0
 21 22  1  0  0  0  0
 21 19  1  0  0  0  0
 22 19  1  0  0  0  0
 22 20  1  1  0  0  0
 23 33  1  6  0  0  0
 23 28  1  0  0  0  0
 24 27  1  0  0  0  0
 25 29  1  0  0  0  0
 26 24  1  0  0  0  0
 28 25  2  0  0  0  0
 28 30  1  0  0  0  0
 29 24  2  0  0  0  0
 30 26  2  0  0  0  0
 32 31  1  0  0  0  0
 32 25  1  0  0  0  0
 33 34  1  6  0  0  0
 35 33  1  0  0  0  0
 36 39  1  0  0  0  0
 36 37  2  0  0  0  0
 37 41  1  0  0  0  0
 39 40  1  0  0  0  0
 40 35  1  6  0  0  0
 40 38  1  0  0  0  0
 41 38  2  0  0  0  0
 42 43  3  0  0  0  0
 43 37  1  0  0  0  0
M  END
>  <MODEL>
9

>  <REMARK>
 VINA RESULT:      -6.6      2.691      7.694
  Name = 
  13 active torsions:
  status: ('A' for Active; 'I' for Inactive)
    1  A    between atoms: C_1  and  C_8
    2  A    between atoms: C_1  and  C_35
    3  A    between atoms: C_4  and  C_14
    4  A    between atoms: C_6  and  C_17
    5  A    between atoms: C_8  and  C_30
    6  A    between atoms: C_10  and  S_41
    7  A    between atoms: C_11  and  C_14
    8  A    between atoms: N_12  and  C_17
    9  A    between atoms: C_14  and  S_41
   10  A    between atoms: C_16  and  C_43
   11  A    between atoms: C_19  and  C_37
   12  A    between atoms: C_21  and  C_30
   13  A    between atoms: C_27  and  C_30
                            x       y       z     vdW  Elec       q    Type
                         _______ _______ _______ _____ _____    ______ ____

>  <TORSDO>
F 13

$$$$
