=
 OpenBabel11052413463D

 27 29  0  0  1  0  0  0  0  0999 V2000
  188.8690  177.8920  143.8330 C   0  0  2  0  0  3  0  0  0  0  0  0
  191.2950  176.5510  147.1240 C   0  0  0  0  0  3  0  0  0  0  0  0
  189.7380  177.4380  144.9690 C   0  0  0  0  0  0  0  0  0  0  0  0
  191.0050  176.8760  144.7430 C   0  0  0  0  0  3  0  0  0  0  0  0
  191.7810  176.4370  145.8190 C   0  0  0  0  0  3  0  0  0  0  0  0
  190.0330  177.1040  147.3530 C   0  0  0  0  0  3  0  0  0  0  0  0
  189.2550  177.5440  146.2780 C   0  0  0  0  0  3  0  0  0  0  0  0
  187.3910  176.8350  143.6210 S   0  0  0  0  0  0  0  0  0  0  0  0
  184.2020  178.9440  145.3140 C   0  0  0  0  0  2  0  0  0  0  0  0
  183.2940  178.8240  144.0940 C   0  0  0  0  0  2  0  0  0  0  0  0
  186.1740  178.1850  143.8270 C   0  0  1  0  0  3  0  0  0  0  0  0
  186.0990  177.7920  146.2620 C   0  0  0  0  0  2  0  0  0  0  0  0
  184.0730  179.1480  142.8260 C   0  0  0  0  0  2  0  0  0  0  0  0
  185.1990  178.1340  142.6520 C   0  0  0  0  0  2  0  0  0  0  0  0
  185.4370  178.1070  145.1490 C   0  0  0  0  0  0  0  0  0  0  0  0
  189.6150  178.0000  142.5880 N   0  0  0  0  0  2  0  0  0  0  0  0
  188.6540  177.8580  141.5070 C   0  0  0  0  0  2  0  0  0  0  0  0
  191.2550  176.4820  139.1360 C   0  0  0  0  0  3  0  0  0  0  0  0
  191.4180  176.4960  136.7350 O   0  0  0  0  0  1  0  0  0  0  0  0
  189.5220  177.5460  137.8120 C   0  0  0  0  0  0  0  0  0  0  0  0
  189.0470  177.8810  136.5840 F   0  0  0  0  0  0  0  0  0  0  0  0
  188.8270  177.9000  138.9940 C   0  0  0  0  0  0  0  0  0  0  0  0
  190.7310  176.8420  137.8930 C   0  0  0  0  0  0  0  0  0  0  0  0
  189.3710  177.5320  140.2390 C   0  0  0  0  0  0  0  0  0  0  0  0
  190.5760  176.8240  140.3050 C   0  0  0  0  0  3  0  0  0  0  0  0
  186.4080  178.1300  138.3960 C   0  0  0  0  0  1  0  0  0  0  0  0
  187.6120  178.6070  138.9800 O   0  0  0  0  0  0  0  0  0  0  0  0
  1 16  1  6  0  0  0
  1  3  1  0  0  0  0
  2  6  1  0  0  0  0
  3  7  1  0  0  0  0
  4  3  2  0  0  0  0
  4  5  1  0  0  0  0
  5  2  2  0  0  0  0
  7  6  2  0  0  0  0
  8  1  1  0  0  0  0
 10  9  1  0  0  0  0
 11  8  1  6  0  0  0
 11 15  1  0  0  0  0
 13 10  1  0  0  0  0
 14 13  1  0  0  0  0
 14 11  1  0  0  0  0
 15  9  1  0  0  0  0
 15 12  2  0  0  0  0
 17 16  1  0  0  0  0
 18 25  1  0  0  0  0
 19 23  1  0  0  0  0
 20 23  1  0  0  0  0
 20 22  2  0  0  0  0
 21 20  1  0  0  0  0
 22 24  1  0  0  0  0
 23 18  2  0  0  0  0
 24 25  2  0  0  0  0
 24 17  1  0  0  0  0
 26 27  1  0  0  0  0
 27 22  1  0  0  0  0
M  END
>  <MODEL>
1

>  <REMARK>
 VINA RESULT:      -8.8      0.000      0.000
  Name = 
  7 active torsions:
  status: ('A' for Active; 'I' for Inactive)
    1  A    between atoms: S_1  and  C_15
    2  A    between atoms: S_1  and  C_18
    3  A    between atoms: N_2  and  C_6
    4  A    between atoms: N_2  and  C_15
    5  A    between atoms: C_6  and  C_17
    6  A    between atoms: C_9  and  C_15
    7  A    between atoms: C_14  and  O_19
                            x       y       z     vdW  Elec       q    Type
                         _______ _______ _______ _____ _____    ______ ____

>  <TORSDO>
F 7

$$$$
=
 OpenBabel11052413463D

 27 29  0  0  1  0  0  0  0  0999 V2000
  187.6270  177.2710  143.7950 C   0  0  2  0  0  3  0  0  0  0  0  0
  183.8830  178.9640  145.0710 C   0  0  0  0  0  3  0  0  0  0  0  0
  186.3070  177.8430  144.2220 C   0  0  0  0  0  0  0  0  0  0  0  0
  185.3180  178.1830  143.2860 C   0  0  0  0  0  3  0  0  0  0  0  0
  184.1090  178.7400  143.7110 C   0  0  0  0  0  3  0  0  0  0  0  0
  184.8670  178.6330  146.0070 C   0  0  0  0  0  3  0  0  0  0  0  0
  186.0770  178.0760  145.5830 C   0  0  0  0  0  3  0  0  0  0  0  0
  189.0440  178.2390  144.4300 S   0  0  0  0  0  0  0  0  0  0  0  0
  190.9530  176.2100  147.5490 C   0  0  0  0  0  2  0  0  0  0  0  0
  192.2520  175.9740  146.7840 C   0  0  0  0  0  2  0  0  0  0  0  0
  189.8360  176.8420  145.3060 C   0  0  1  0  0  3  0  0  0  0  0  0
  189.0790  177.7310  147.4800 C   0  0  0  0  0  2  0  0  0  0  0  0
  191.9500  175.4740  145.3780 C   0  0  0  0  0  2  0  0  0  0  0  0
  191.1690  176.5400  144.6190 C   0  0  0  0  0  2  0  0  0  0  0  0
  190.0360  177.1200  146.7820 C   0  0  0  0  0  0  0  0  0  0  0  0
  187.7080  177.1150  142.3510 N   0  0  0  0  0  2  0  0  0  0  0  0
  188.4890  178.2330  141.8500 C   0  0  0  0  0  2  0  0  0  0  0  0
  191.1620  176.7550  139.6240 C   0  0  0  0  0  3  0  0  0  0  0  0
  191.3360  176.5440  137.2330 O   0  0  0  0  0  1  0  0  0  0  0  0
  189.3880  177.6040  138.2020 C   0  0  0  0  0  0  0  0  0  0  0  0
  188.9040  177.7970  136.9480 F   0  0  0  0  0  0  0  0  0  0  0  0
  188.6720  178.0380  139.3440 C   0  0  0  0  0  0  0  0  0  0  0  0
  190.6280  176.9680  138.3520 C   0  0  0  0  0  0  0  0  0  0  0  0
  189.2260  177.8190  140.6190 C   0  0  0  0  0  0  0  0  0  0  0  0
  190.4630  177.1780  140.7540 C   0  0  0  0  0  3  0  0  0  0  0  0
  186.2850  178.1530  138.6000 C   0  0  0  0  0  1  0  0  0  0  0  0
  187.4260  178.6830  139.2610 O   0  0  0  0  0  0  0  0  0  0  0  0
  1 16  1  6  0  0  0
  1  3  1  0  0  0  0
  1  8  1  0  0  0  0
  2  6  1  0  0  0  0
  3  7  1  0  0  0  0
  4  5  1  0  0  0  0
  4  3  2  0  0  0  0
  5  2  2  0  0  0  0
  7  6  2  0  0  0  0
 10  9  1  0  0  0  0
 11  8  1  6  0  0  0
 11 15  1  0  0  0  0
 13 10  1  0  0  0  0
 14 11  1  0  0  0  0
 14 13  1  0  0  0  0
 15 12  2  0  0  0  0
 15  9  1  0  0  0  0
 17 16  1  0  0  0  0
 18 25  1  0  0  0  0
 19 23  1  0  0  0  0
 20 23  1  0  0  0  0
 20 22  2  0  0  0  0
 21 20  1  0  0  0  0
 22 24  1  0  0  0  0
 23 18  2  0  0  0  0
 24 25  2  0  0  0  0
 24 17  1  0  0  0  0
 26 27  1  0  0  0  0
 27 22  1  0  0  0  0
M  END
>  <MODEL>
2

>  <REMARK>
 VINA RESULT:      -8.6      0.914      4.588
  Name = 
  7 active torsions:
  status: ('A' for Active; 'I' for Inactive)
    1  A    between atoms: S_1  and  C_15
    2  A    between atoms: S_1  and  C_18
    3  A    between atoms: N_2  and  C_6
    4  A    between atoms: N_2  and  C_15
    5  A    between atoms: C_6  and  C_17
    6  A    between atoms: C_9  and  C_15
    7  A    between atoms: C_14  and  O_19
                            x       y       z     vdW  Elec       q    Type
                         _______ _______ _______ _____ _____    ______ ____

>  <TORSDO>
F 7

$$$$
=
 OpenBabel11052413463D

 27 29  0  0  1  0  0  0  0  0999 V2000
  187.9060  177.8400  142.4800 C   0  0  2  0  0  3  0  0  0  0  0  0
  191.2080  177.3840  139.7580 C   0  0  0  0  0  3  0  0  0  0  0  0
  189.0470  177.7040  141.5150 C   0  0  0  0  0  0  0  0  0  0  0  0
  188.8450  177.7570  140.1260 C   0  0  0  0  0  3  0  0  0  0  0  0
  189.9240  177.6000  139.2520 C   0  0  0  0  0  3  0  0  0  0  0  0
  191.4140  177.3240  141.1400 C   0  0  0  0  0  3  0  0  0  0  0  0
  190.3350  177.4810  142.0150 C   0  0  0  0  0  3  0  0  0  0  0  0
  187.9110  176.5290  143.7550 S   0  0  0  0  0  0  0  0  0  0  0  0
  189.0670  178.0350  147.4810 C   0  0  0  0  0  2  0  0  0  0  0  0
  187.6980  177.8610  148.1300 C   0  0  0  0  0  2  0  0  0  0  0  0
  187.9400  177.6700  145.1840 C   0  0  1  0  0  3  0  0  0  0  0  0
  190.3040  177.1140  145.6230 C   0  0  0  0  0  2  0  0  0  0  0  0
  186.6060  178.3760  147.2010 C   0  0  0  0  0  2  0  0  0  0  0  0
  186.6050  177.5520  145.9190 C   0  0  0  0  0  2  0  0  0  0  0  0
  189.1010  177.4000  146.1200 C   0  0  0  0  0  0  0  0  0  0  0  0
  186.6220  177.8960  141.7960 N   0  0  0  0  0  2  0  0  0  0  0  0
  186.0580  179.2070  142.0670 C   0  0  0  0  0  2  0  0  0  0  0  0
  183.0900  179.0860  144.4030 C   0  0  0  0  0  3  0  0  0  0  0  0
  180.7410  178.7380  144.0110 O   0  0  0  0  0  1  0  0  0  0  0  0
  182.2820  178.7130  142.1460 C   0  0  0  0  0  0  0  0  0  0  0  0
  181.2310  178.4750  141.3180 F   0  0  0  0  0  0  0  0  0  0  0  0
  183.6030  178.8190  141.6480 C   0  0  0  0  0  0  0  0  0  0  0  0
  182.0360  178.8450  143.5190 C   0  0  0  0  0  0  0  0  0  0  0  0
  184.6540  179.0580  142.5530 C   0  0  0  0  0  0  0  0  0  0  0  0
  184.3950  179.1940  143.9210 C   0  0  0  0  0  3  0  0  0  0  0  0
  183.5870  179.6540  139.2890 C   0  0  0  0  0  1  0  0  0  0  0  0
  183.9150  178.6940  140.2830 O   0  0  0  0  0  0  0  0  0  0  0  0
  1 16  1  6  0  0  0
  1  8  1  0  0  0  0
  2  6  1  0  0  0  0
  3  7  1  0  0  0  0
  3  1  1  0  0  0  0
  4  3  2  0  0  0  0
  5  2  2  0  0  0  0
  5  4  1  0  0  0  0
  6  7  2  0  0  0  0
  9 10  1  0  0  0  0
 11  8  1  6  0  0  0
 11 14  1  0  0  0  0
 11 15  1  0  0  0  0
 12 15  2  0  0  0  0
 13 10  1  0  0  0  0
 14 13  1  0  0  0  0
 15  9  1  0  0  0  0
 16 17  1  0  0  0  0
 17 24  1  0  0  0  0
 20 23  1  0  0  0  0
 21 20  1  0  0  0  0
 22 20  2  0  0  0  0
 22 24  1  0  0  0  0
 23 19  1  0  0  0  0
 23 18  2  0  0  0  0
 24 25  2  0  0  0  0
 25 18  1  0  0  0  0
 26 27  1  0  0  0  0
 27 22  1  0  0  0  0
M  END
>  <MODEL>
3

>  <REMARK>
 VINA RESULT:      -8.6      2.899      6.255
  Name = 
  7 active torsions:
  status: ('A' for Active; 'I' for Inactive)
    1  A    between atoms: S_1  and  C_15
    2  A    between atoms: S_1  and  C_18
    3  A    between atoms: N_2  and  C_6
    4  A    between atoms: N_2  and  C_15
    5  A    between atoms: C_6  and  C_17
    6  A    between atoms: C_9  and  C_15
    7  A    between atoms: C_14  and  O_19
                            x       y       z     vdW  Elec       q    Type
                         _______ _______ _______ _____ _____    ______ ____

>  <TORSDO>
F 7

$$$$
=
 OpenBabel11052413463D

 27 29  0  0  1  0  0  0  0  0999 V2000
  188.5510  178.0020  144.2550 C   0  0  2  0  0  3  0  0  0  0  0  0
  191.2940  176.6610  147.2870 C   0  0  0  0  0  3  0  0  0  0  0  0
  189.5290  177.5490  145.2990 C   0  0  0  0  0  0  0  0  0  0  0  0
  190.8010  177.0660  144.9530 C   0  0  0  0  0  3  0  0  0  0  0  0
  191.6810  176.6260  145.9450 C   0  0  0  0  0  3  0  0  0  0  0  0
  190.0270  177.1360  147.6370 C   0  0  0  0  0  3  0  0  0  0  0  0
  189.1460  177.5760  146.6450 C   0  0  0  0  0  3  0  0  0  0  0  0
  187.0810  176.9160  144.1600 S   0  0  0  0  0  0  0  0  0  0  0  0
  183.7770  179.3020  145.0920 C   0  0  0  0  0  2  0  0  0  0  0  0
  182.9840  178.9330  143.8420 C   0  0  0  0  0  2  0  0  0  0  0  0
  185.8680  178.2720  143.9780 C   0  0  1  0  0  3  0  0  0  0  0  0
  185.5630  178.3740  146.4250 C   0  0  0  0  0  2  0  0  0  0  0  0
  183.8810  179.0020  142.6130 C   0  0  0  0  0  2  0  0  0  0  0  0
  185.0050  177.9810  142.7500 C   0  0  0  0  0  2  0  0  0  0  0  0
  185.0110  178.4560  145.2140 C   0  0  0  0  0  0  0  0  0  0  0  0
  189.1790  178.1440  142.9500 N   0  0  0  0  0  2  0  0  0  0  0  0
  188.7370  177.0180  142.1450 C   0  0  0  0  0  2  0  0  0  0  0  0
  187.5050  178.3810  138.8430 C   0  0  0  0  0  3  0  0  0  0  0  0
  188.5690  178.6180  136.6970 O   0  0  0  0  0  1  0  0  0  0  0  0
  189.8000  177.6510  138.5420 C   0  0  0  0  0  0  0  0  0  0  0  0
  190.8670  177.5040  137.7150 F   0  0  0  0  0  0  0  0  0  0  0  0
  189.8530  177.2400  139.8960 C   0  0  0  0  0  0  0  0  0  0  0  0
  188.6260  178.2160  138.0260 C   0  0  0  0  0  0  0  0  0  0  0  0
  188.7130  177.4090  140.7050 C   0  0  0  0  0  0  0  0  0  0  0  0
  187.5490  177.9800  140.1780 C   0  0  0  0  0  3  0  0  0  0  0  0
  192.1400  177.3950  140.9010 C   0  0  0  0  0  1  0  0  0  0  0  0
  190.9990  176.6650  140.4730 O   0  0  0  0  0  0  0  0  0  0  0  0
  1 16  1  6  0  0  0
  1  3  1  0  0  0  0
  2  6  1  0  0  0  0
  3  7  1  0  0  0  0
  4  3  2  0  0  0  0
  4  5  1  0  0  0  0
  5  2  2  0  0  0  0
  7  6  2  0  0  0  0
  8  1  1  0  0  0  0
  9 15  1  0  0  0  0
 10  9  1  0  0  0  0
 11  8  1  1  0  0  0
 11 15  1  0  0  0  0
 13 14  1  0  0  0  0
 13 10  1  0  0  0  0
 14 11  1  0  0  0  0
 15 12  2  0  0  0  0
 17 16  1  0  0  0  0
 18 25  1  0  0  0  0
 19 23  1  0  0  0  0
 20 22  2  0  0  0  0
 21 20  1  0  0  0  0
 22 27  1  0  0  0  0
 22 24  1  0  0  0  0
 23 20  1  0  0  0  0
 23 18  2  0  0  0  0
 24 17  1  0  0  0  0
 25 24  2  0  0  0  0
 27 26  1  0  0  0  0
M  END
>  <MODEL>
4

>  <REMARK>
 VINA RESULT:      -8.5      1.217      2.084
  Name = 
  7 active torsions:
  status: ('A' for Active; 'I' for Inactive)
    1  A    between atoms: S_1  and  C_15
    2  A    between atoms: S_1  and  C_18
    3  A    between atoms: N_2  and  C_6
    4  A    between atoms: N_2  and  C_15
    5  A    between atoms: C_6  and  C_17
    6  A    between atoms: C_9  and  C_15
    7  A    between atoms: C_14  and  O_19
                            x       y       z     vdW  Elec       q    Type
                         _______ _______ _______ _____ _____    ______ ____

>  <TORSDO>
F 7

$$$$
=
 OpenBabel11052413463D

 27 29  0  0  1  0  0  0  0  0999 V2000
  187.6890  177.2290  143.8900 C   0  0  2  0  0  3  0  0  0  0  0  0
  183.9130  178.9460  145.0340 C   0  0  0  0  0  3  0  0  0  0  0  0
  186.3860  177.8450  144.3090 C   0  0  0  0  0  0  0  0  0  0  0  0
  186.0590  178.0210  145.6630 C   0  0  0  0  0  3  0  0  0  0  0  0
  184.8260  178.5720  146.0230 C   0  0  0  0  0  3  0  0  0  0  0  0
  184.2310  178.7670  143.6850 C   0  0  0  0  0  3  0  0  0  0  0  0
  185.4640  178.2160  143.3240 C   0  0  0  0  0  3  0  0  0  0  0  0
  189.1330  178.1750  144.4950 S   0  0  0  0  0  0  0  0  0  0  0  0
  191.0010  176.1130  147.6170 C   0  0  0  0  0  2  0  0  0  0  0  0
  192.3110  175.8890  146.8680 C   0  0  0  0  0  2  0  0  0  0  0  0
  189.9160  176.7700  145.3650 C   0  0  1  0  0  3  0  0  0  0  0  0
  189.1250  177.6310  147.5390 C   0  0  0  0  0  2  0  0  0  0  0  0
  192.0310  175.4050  145.4520 C   0  0  0  0  0  2  0  0  0  0  0  0
  191.2580  176.4790  144.6950 C   0  0  0  0  0  2  0  0  0  0  0  0
  190.0930  177.0300  146.8470 C   0  0  0  0  0  0  0  0  0  0  0  0
  187.7590  177.0360  142.4490 N   0  0  0  0  0  2  0  0  0  0  0  0
  188.8860  177.8200  141.9740 C   0  0  0  0  0  2  0  0  0  0  0  0
  187.8430  178.2310  138.3650 C   0  0  0  0  0  3  0  0  0  0  0  0
  188.9850  177.7860  136.2940 O   0  0  0  0  0  1  0  0  0  0  0  0
  190.0970  177.3340  138.3950 C   0  0  0  0  0  0  0  0  0  0  0  0
  191.1790  176.9030  137.6970 F   0  0  0  0  0  0  0  0  0  0  0  0
  190.0830  177.3290  139.8110 C   0  0  0  0  0  0  0  0  0  0  0  0
  188.9760  177.7830  137.6840 C   0  0  0  0  0  0  0  0  0  0  0  0
  188.9310  177.7800  140.4820 C   0  0  0  0  0  0  0  0  0  0  0  0
  187.8200  178.2310  139.7590 C   0  0  0  0  0  3  0  0  0  0  0  0
  192.4230  177.5590  140.6670 C   0  0  0  0  0  1  0  0  0  0  0  0
  191.1730  176.8890  140.5820 O   0  0  0  0  0  0  0  0  0  0  0  0
  1 16  1  6  0  0  0
  1  3  1  0  0  0  0
  1  8  1  0  0  0  0
  2  5  1  0  0  0  0
  3  4  1  0  0  0  0
  4  5  2  0  0  0  0
  6  2  2  0  0  0  0
  7  6  1  0  0  0  0
  7  3  2  0  0  0  0
 10  9  1  0  0  0  0
 11  8  1  6  0  0  0
 11 15  1  0  0  0  0
 13 10  1  0  0  0  0
 14 11  1  0  0  0  0
 14 13  1  0  0  0  0
 15 12  2  0  0  0  0
 15  9  1  0  0  0  0
 17 16  1  0  0  0  0
 18 25  1  0  0  0  0
 19 23  1  0  0  0  0
 20 22  2  0  0  0  0
 21 20  1  0  0  0  0
 22 24  1  0  0  0  0
 22 27  1  0  0  0  0
 23 18  2  0  0  0  0
 23 20  1  0  0  0  0
 24 17  1  0  0  0  0
 25 24  2  0  0  0  0
 27 26  1  0  0  0  0
M  END
>  <MODEL>
5

>  <REMARK>
 VINA RESULT:      -8.5      1.491      5.050
  Name = 
  7 active torsions:
  status: ('A' for Active; 'I' for Inactive)
    1  A    between atoms: S_1  and  C_15
    2  A    between atoms: S_1  and  C_18
    3  A    between atoms: N_2  and  C_6
    4  A    between atoms: N_2  and  C_15
    5  A    between atoms: C_6  and  C_17
    6  A    between atoms: C_9  and  C_15
    7  A    between atoms: C_14  and  O_19
                            x       y       z     vdW  Elec       q    Type
                         _______ _______ _______ _____ _____    ______ ____

>  <TORSDO>
F 7

$$$$
=
 OpenBabel11052413463D

 27 29  0  0  1  0  0  0  0  0999 V2000
  188.7520  177.9100  142.0480 C   0  0  2  0  0  3  0  0  0  0  0  0
  190.1080  177.3410  138.0040 C   0  0  0  0  0  3  0  0  0  0  0  0
  189.2320  177.6840  140.6440 C   0  0  0  0  0  0  0  0  0  0  0  0
  190.4640  177.0640  140.3810 C   0  0  0  0  0  3  0  0  0  0  0  0
  190.8980  176.8920  139.0640 C   0  0  0  0  0  3  0  0  0  0  0  0
  188.8830  177.9640  138.2600 C   0  0  0  0  0  3  0  0  0  0  0  0
  188.4480  178.1370  139.5780 C   0  0  0  0  0  3  0  0  0  0  0  0
  188.8170  176.3880  143.0610 S   0  0  0  0  0  0  0  0  0  0  0  0
  191.5870  176.7390  146.1740 C   0  0  0  0  0  2  0  0  0  0  0  0
  190.5420  176.7570  147.2850 C   0  0  0  0  0  2  0  0  0  0  0  0
  189.6800  177.1540  144.4790 C   0  0  1  0  0  3  0  0  0  0  0  0
  191.7670  175.9760  143.8910 C   0  0  0  0  0  2  0  0  0  0  0  0
  189.4050  177.7020  146.9230 C   0  0  0  0  0  2  0  0  0  0  0  0
  188.7120  177.1980  145.6620 C   0  0  0  0  0  2  0  0  0  0  0  0
  190.9550  176.4230  144.8480 C   0  0  0  0  0  0  0  0  0  0  0  0
  187.4210  178.4980  142.0770 N   0  0  0  0  0  2  0  0  0  0  0  0
  186.5900  177.6210  142.8850 C   0  0  0  0  0  2  0  0  0  0  0  0
  183.1950  178.6390  141.5750 C   0  0  0  0  0  3  0  0  0  0  0  0
  181.1900  179.3730  142.6850 O   0  0  0  0  0  1  0  0  0  0  0  0
  183.1550  178.8380  143.9920 C   0  0  0  0  0  0  0  0  0  0  0  0
  182.4590  179.1540  145.1150 F   0  0  0  0  0  0  0  0  0  0  0  0
  184.5040  178.4110  144.0560 C   0  0  0  0  0  0  0  0  0  0  0  0
  182.5130  178.9510  142.7520 C   0  0  0  0  0  0  0  0  0  0  0  0
  185.1780  178.1040  142.8590 C   0  0  0  0  0  0  0  0  0  0  0  0
  184.5230  178.2160  141.6280 C   0  0  0  0  0  3  0  0  0  0  0  0
  185.5960  179.3660  146.0950 C   0  0  0  0  0  1  0  0  0  0  0  0
  185.2040  178.2790  145.2680 O   0  0  0  0  0  0  0  0  0  0  0  0
  1 16  1  6  0  0  0
  1  8  1  0  0  0  0
  2  6  2  0  0  0  0
  2  5  1  0  0  0  0
  3  1  1  0  0  0  0
  4  3  1  0  0  0  0
  5  4  2  0  0  0  0
  6  7  1  0  0  0  0
  7  3  2  0  0  0  0
  9 10  1  0  0  0  0
 11  8  1  6  0  0  0
 11 15  1  0  0  0  0
 11 14  1  0  0  0  0
 12 15  2  0  0  0  0
 13 10  1  0  0  0  0
 14 13  1  0  0  0  0
 15  9  1  0  0  0  0
 16 17  1  0  0  0  0
 18 25  2  0  0  0  0
 18 23  1  0  0  0  0
 19 23  1  0  0  0  0
 20 22  1  0  0  0  0
 20 21  1  0  0  0  0
 22 27  1  0  0  0  0
 23 20  2  0  0  0  0
 24 17  1  0  0  0  0
 24 22  2  0  0  0  0
 25 24  1  0  0  0  0
 27 26  1  0  0  0  0
M  END
>  <MODEL>
6

>  <REMARK>
 VINA RESULT:      -8.4      3.379      7.038
  Name = 
  7 active torsions:
  status: ('A' for Active; 'I' for Inactive)
    1  A    between atoms: S_1  and  C_15
    2  A    between atoms: S_1  and  C_18
    3  A    between atoms: N_2  and  C_6
    4  A    between atoms: N_2  and  C_15
    5  A    between atoms: C_6  and  C_17
    6  A    between atoms: C_9  and  C_15
    7  A    between atoms: C_14  and  O_19
                            x       y       z     vdW  Elec       q    Type
                         _______ _______ _______ _____ _____    ______ ____

>  <TORSDO>
F 7

$$$$
=
 OpenBabel11052413463D

 27 29  0  0  1  0  0  0  0  0999 V2000
  188.5100  177.0410  143.3810 C   0  0  2  0  0  3  0  0  0  0  0  0
  190.6250  177.0020  147.1280 C   0  0  0  0  0  3  0  0  0  0  0  0
  189.2690  177.0440  144.6760 C   0  0  0  0  0  0  0  0  0  0  0  0
  190.6460  176.7710  144.7200 C   0  0  0  0  0  3  0  0  0  0  0  0
  191.3210  176.7540  145.9420 C   0  0  0  0  0  3  0  0  0  0  0  0
  189.2540  177.2680  147.0910 C   0  0  0  0  0  3  0  0  0  0  0  0
  188.5770  177.2860  145.8680 C   0  0  0  0  0  3  0  0  0  0  0  0
  189.0650  178.3620  142.2450 S   0  0  0  0  0  0  0  0  0  0  0  0
  191.2960  176.7540  139.0950 C   0  0  0  0  0  2  0  0  0  0  0  0
  190.2880  177.1230  138.0110 C   0  0  0  0  0  2  0  0  0  0  0  0
  189.4680  177.2450  140.8540 C   0  0  1  0  0  3  0  0  0  0  0  0
  191.8800  177.4740  141.3240 C   0  0  0  0  0  2  0  0  0  0  0  0
  188.8790  176.7530  138.4550 C   0  0  0  0  0  2  0  0  0  0  0  0
  188.5150  177.5550  139.6990 C   0  0  0  0  0  2  0  0  0  0  0  0
  190.9130  177.3630  140.4130 C   0  0  0  0  0  0  0  0  0  0  0  0
  187.0720  177.1090  143.5960 N   0  0  0  0  0  2  0  0  0  0  0  0
  186.5840  178.2400  142.8260 C   0  0  0  0  0  2  0  0  0  0  0  0
  183.3790  178.9470  144.6990 C   0  0  0  0  0  3  0  0  0  0  0  0
  181.0910  179.1210  143.9740 O   0  0  0  0  0  1  0  0  0  0  0  0
  182.8240  178.6270  142.3590 C   0  0  0  0  0  0  0  0  0  0  0  0
  181.8710  178.5850  141.3920 F   0  0  0  0  0  0  0  0  0  0  0  0
  184.1890  178.3970  142.0600 C   0  0  0  0  0  0  0  0  0  0  0  0
  182.4300  178.8980  143.6760 C   0  0  0  0  0  0  0  0  0  0  0  0
  185.1320  178.4470  143.1040 C   0  0  0  0  0  0  0  0  0  0  0  0
  184.7260  178.7230  144.4140 C   0  0  0  0  0  3  0  0  0  0  0  0
  184.5780  179.0260  139.6690 C   0  0  0  0  0  1  0  0  0  0  0  0
  184.6480  178.1200  140.7600 O   0  0  0  0  0  0  0  0  0  0  0  0
  1  8  1  6  0  0  0
  1 16  1  0  0  0  0
  1  3  1  0  0  0  0
  3  4  2  0  0  0  0
  3  7  1  0  0  0  0
  4  5  1  0  0  0  0
  5  2  2  0  0  0  0
  6  2  1  0  0  0  0
  7  6  2  0  0  0  0
  9 15  1  0  0  0  0
 10 13  1  0  0  0  0
 10  9  1  0  0  0  0
 11  8  1  1  0  0  0
 13 14  1  0  0  0  0
 14 11  1  0  0  0  0
 15 11  1  0  0  0  0
 15 12  2  0  0  0  0
 17 24  1  0  0  0  0
 17 16  1  0  0  0  0
 20 23  1  0  0  0  0
 21 20  1  0  0  0  0
 22 20  2  0  0  0  0
 22 24  1  0  0  0  0
 23 19  1  0  0  0  0
 23 18  2  0  0  0  0
 24 25  2  0  0  0  0
 25 18  1  0  0  0  0
 26 27  1  0  0  0  0
 27 22  1  0  0  0  0
M  END
>  <MODEL>
7

>  <REMARK>
 VINA RESULT:      -8.4      2.678      6.241
  Name = 
  7 active torsions:
  status: ('A' for Active; 'I' for Inactive)
    1  A    between atoms: S_1  and  C_15
    2  A    between atoms: S_1  and  C_18
    3  A    between atoms: N_2  and  C_6
    4  A    between atoms: N_2  and  C_15
    5  A    between atoms: C_6  and  C_17
    6  A    between atoms: C_9  and  C_15
    7  A    between atoms: C_14  and  O_19
                            x       y       z     vdW  Elec       q    Type
                         _______ _______ _______ _____ _____    ______ ____

>  <TORSDO>
F 7

$$$$
=
 OpenBabel11052413463D

 27 29  0  0  1  0  0  0  0  0999 V2000
  188.2420  177.8710  142.2940 C   0  0  2  0  0  3  0  0  0  0  0  0
  191.8590  177.2640  140.0430 C   0  0  0  0  0  3  0  0  0  0  0  0
  189.5130  177.6410  141.5290 C   0  0  0  0  0  0  0  0  0  0  0  0
  190.7660  177.6640  142.1640 C   0  0  0  0  0  3  0  0  0  0  0  0
  191.9340  177.4730  141.4220 C   0  0  0  0  0  3  0  0  0  0  0  0
  190.6150  177.2460  139.4050 C   0  0  0  0  0  3  0  0  0  0  0  0
  189.4460  177.4360  140.1470 C   0  0  0  0  0  3  0  0  0  0  0  0
  187.9290  176.5650  143.5350 S   0  0  0  0  0  0  0  0  0  0  0  0
  188.9350  177.9440  147.3520 C   0  0  0  0  0  2  0  0  0  0  0  0
  187.5170  177.8590  147.9070 C   0  0  0  0  0  2  0  0  0  0  0  0
  187.9420  177.6840  144.9810 C   0  0  1  0  0  3  0  0  0  0  0  0
  190.2270  176.9590  145.5660 C   0  0  0  0  0  2  0  0  0  0  0  0
  186.5280  178.4600  146.9160 C   0  0  0  0  0  2  0  0  0  0  0  0
  186.5550  177.6530  145.6230 C   0  0  0  0  0  2  0  0  0  0  0  0
  189.0150  177.3230  145.9870 C   0  0  0  0  0  0  0  0  0  0  0  0
  187.0990  178.0340  141.4080 N   0  0  0  0  0  2  0  0  0  0  0  0
  186.2050  178.9870  142.0430 C   0  0  0  0  0  2  0  0  0  0  0  0
  183.5670  179.1380  139.3420 C   0  0  0  0  0  3  0  0  0  0  0  0
  181.1880  178.7780  139.3880 O   0  0  0  0  0  1  0  0  0  0  0  0
  182.4690  178.5740  141.4310 C   0  0  0  0  0  0  0  0  0  0  0  0
  181.3180  178.2810  142.0890 F   0  0  0  0  0  0  0  0  0  0  0  0
  183.7120  178.6310  142.1070 C   0  0  0  0  0  0  0  0  0  0  0  0
  182.4070  178.8300  140.0540 C   0  0  0  0  0  0  0  0  0  0  0  0
  184.8720  178.9460  141.3750 C   0  0  0  0  0  0  0  0  0  0  0  0
  184.7960  179.1950  140.0000 C   0  0  0  0  0  3  0  0  0  0  0  0
  183.3170  179.2240  144.5060 C   0  0  0  0  0  1  0  0  0  0  0  0
  183.8400  178.3860  143.4860 O   0  0  0  0  0  0  0  0  0  0  0  0
  1 16  1  6  0  0  0
  1  8  1  0  0  0  0
  2  5  1  0  0  0  0
  3  4  1  0  0  0  0
  3  1  1  0  0  0  0
  5  4  2  0  0  0  0
  6  2  2  0  0  0  0
  6  7  1  0  0  0  0
  7  3  2  0  0  0  0
  9 10  1  0  0  0  0
 11  8  1  6  0  0  0
 11 14  1  0  0  0  0
 11 15  1  0  0  0  0
 12 15  2  0  0  0  0
 13 10  1  0  0  0  0
 14 13  1  0  0  0  0
 15  9  1  0  0  0  0
 16 17  1  0  0  0  0
 18 25  2  0  0  0  0
 18 23  1  0  0  0  0
 19 23  1  0  0  0  0
 20 21  1  0  0  0  0
 20 22  1  0  0  0  0
 22 27  1  0  0  0  0
 23 20  2  0  0  0  0
 24 17  1  0  0  0  0
 24 22  2  0  0  0  0
 25 24  1  0  0  0  0
 27 26  1  0  0  0  0
M  END
>  <MODEL>
8

>  <REMARK>
 VINA RESULT:      -8.2      3.224      5.898
  Name = 
  7 active torsions:
  status: ('A' for Active; 'I' for Inactive)
    1  A    between atoms: S_1  and  C_15
    2  A    between atoms: S_1  and  C_18
    3  A    between atoms: N_2  and  C_6
    4  A    between atoms: N_2  and  C_15
    5  A    between atoms: C_6  and  C_17
    6  A    between atoms: C_9  and  C_15
    7  A    between atoms: C_14  and  O_19
                            x       y       z     vdW  Elec       q    Type
                         _______ _______ _______ _____ _____    ______ ____

>  <TORSDO>
F 7

$$$$
=
 OpenBabel11052413463D

 27 29  0  0  1  0  0  0  0  0999 V2000
  187.4820  177.8740  141.6300 C   0  0  2  0  0  3  0  0  0  0  0  0
  190.1900  177.4510  138.3120 C   0  0  0  0  0  3  0  0  0  0  0  0
  188.4330  177.6990  140.4820 C   0  0  0  0  0  0  0  0  0  0  0  0
  189.7260  177.1850  140.6720 C   0  0  0  0  0  3  0  0  0  0  0  0
  190.5990  177.0590  139.5890 C   0  0  0  0  0  3  0  0  0  0  0  0
  188.9060  177.9690  138.1180 C   0  0  0  0  0  3  0  0  0  0  0  0
  188.0320  178.0950  139.2020 C   0  0  0  0  0  3  0  0  0  0  0  0
  186.2740  179.2160  141.3360 S   0  0  0  0  0  0  0  0  0  0  0  0
  182.4060  178.2600  142.6040 C   0  0  0  0  0  2  0  0  0  0  0  0
  182.4560  179.1240  143.8610 C   0  0  0  0  0  2  0  0  0  0  0  0
  184.9700  178.5220  142.4130 C   0  0  1  0  0  3  0  0  0  0  0  0
  183.5090  178.1430  140.4600 C   0  0  0  0  0  2  0  0  0  0  0  0
  183.7720  178.9040  144.5960 C   0  0  0  0  0  2  0  0  0  0  0  0
  184.9280  179.3410  143.7030 C   0  0  0  0  0  2  0  0  0  0  0  0
  183.6120  178.4980  141.7410 C   0  0  0  0  0  0  0  0  0  0  0  0
  188.1830  178.0710  142.8900 N   0  0  0  0  0  2  0  0  0  0  0  0
  187.9620  176.8760  143.6860 C   0  0  0  0  0  2  0  0  0  0  0  0
  187.0140  177.8690  147.2070 C   0  0  0  0  0  3  0  0  0  0  0  0
  188.3060  178.0890  149.2250 O   0  0  0  0  0  1  0  0  0  0  0  0
  189.3980  177.4220  147.1720 C   0  0  0  0  0  0  0  0  0  0  0  0
  190.5740  177.3620  147.8500 F   0  0  0  0  0  0  0  0  0  0  0  0
  189.3290  177.1250  145.7890 C   0  0  0  0  0  0  0  0  0  0  0  0
  188.2410  177.7930  147.8690 C   0  0  0  0  0  0  0  0  0  0  0  0
  188.0850  177.2100  145.1360 C   0  0  0  0  0  0  0  0  0  0  0  0
  186.9360  177.5780  145.8450 C   0  0  0  0  0  3  0  0  0  0  0  0
  191.4440  177.6480  144.5570 C   0  0  0  0  0  1  0  0  0  0  0  0
  190.4530  176.7480  145.0330 O   0  0  0  0  0  0  0  0  0  0  0  0
  1  8  1  6  0  0  0
  1 16  1  0  0  0  0
  2  5  1  0  0  0  0
  3  4  1  0  0  0  0
  3  1  1  0  0  0  0
  5  4  2  0  0  0  0
  6  2  2  0  0  0  0
  6  7  1  0  0  0  0
  7  3  2  0  0  0  0
  9 10  1  0  0  0  0
 10 13  1  0  0  0  0
 11  8  1  6  0  0  0
 11 14  1  0  0  0  0
 12 15  2  0  0  0  0
 14 13  1  0  0  0  0
 15 11  1  0  0  0  0
 15  9  1  0  0  0  0
 16 17  1  0  0  0  0
 17 24  1  0  0  0  0
 18 23  1  0  0  0  0
 20 21  1  0  0  0  0
 20 23  2  0  0  0  0
 22 20  1  0  0  0  0
 23 19  1  0  0  0  0
 24 22  2  0  0  0  0
 24 25  1  0  0  0  0
 25 18  2  0  0  0  0
 26 27  1  0  0  0  0
 27 22  1  0  0  0  0
M  END
>  <MODEL>
9

>  <REMARK>
 VINA RESULT:      -8.2      3.501      6.694
  Name = 
  7 active torsions:
  status: ('A' for Active; 'I' for Inactive)
    1  A    between atoms: S_1  and  C_15
    2  A    between atoms: S_1  and  C_18
    3  A    between atoms: N_2  and  C_6
    4  A    between atoms: N_2  and  C_15
    5  A    between atoms: C_6  and  C_17
    6  A    between atoms: C_9  and  C_15
    7  A    between atoms: C_14  and  O_19
                            x       y       z     vdW  Elec       q    Type
                         _______ _______ _______ _____ _____    ______ ____

>  <TORSDO>
F 7

$$$$
