=
 OpenBabel11052415373D

 34 39  0  0  1  0  0  0  0  0999 V2000
  182.4540  178.5410  141.4770 C   0  0  0  0  0  0  0  0  0  0  0  0
  180.3500  177.0250  138.5000 C   0  0  0  0  0  2  0  0  0  0  0  0
  179.7880  177.6730  140.7890 C   0  0  0  0  0  3  0  0  0  0  0  0
  183.8930  178.8240  143.3250 C   0  0  0  0  0  0  0  0  0  0  0  0
  183.6810  178.6650  141.9990 O   0  0  0  0  0  0  0  0  0  0  0  0
  181.5390  178.7440  143.7090 C   0  0  0  0  0  0  0  0  0  0  0  0
  180.3740  178.3690  144.2770 N   0  0  0  0  0  2  0  0  0  0  0  0
  182.8130  178.8140  144.2550 C   0  0  0  0  0  3  0  0  0  0  0  0
  180.1420  178.2380  142.0970 C   0  0  0  0  0  0  0  0  0  0  0  0
  181.3900  178.6760  142.3190 C   0  0  0  0  0  0  0  0  0  0  0  0
  179.5230  178.0580  143.2900 N   0  0  0  0  0  0  0  0  0  0  0  0
  181.5290  176.9600  137.5260 C   0  0  0  0  0  2  0  0  0  0  0  0
  181.9050  178.3190  136.9170 C   0  0  2  0  0  3  0  0  0  0  0  0
  181.6950  179.5170  137.8500 C   0  0  0  0  0  2  0  0  0  0  0  0
  180.7280  177.6470  139.8140 C   0  0  0  0  0  0  0  0  0  0  0  0
  182.4890  179.4240  139.1550 C   0  0  0  0  0  2  0  0  0  0  0  0
  182.1640  178.2040  140.0310 C   0  0  0  0  0  0  0  0  0  0  0  0
  187.3730  178.1230  143.7090 C   0  0  0  0  0  2  0  0  0  0  0  0
  185.6160  178.2100  146.2190 C   0  0  0  0  0  2  0  0  0  0  0  0
  189.7700  177.0500  146.4340 C   0  0  0  0  0  0  0  0  0  0  0  0
  189.2130  177.3590  145.1870 C   0  0  0  0  0  3  0  0  0  0  0  0
  187.8730  177.7440  145.0750 C   0  0  0  0  0  0  0  0  0  0  0  0
  185.2980  178.9720  143.8100 C   0  0  1  0  0  3  0  0  0  0  0  0
  187.6380  177.5350  147.4850 C   0  0  0  0  0  3  0  0  0  0  0  0
  187.0780  177.8560  146.2440 C   0  0  0  0  0  0  0  0  0  0  0  0
  188.9730  177.1400  147.5820 C   0  0  0  0  0  3  0  0  0  0  0  0
  185.3180  179.3850  145.2930 C   0  0  0  0  0  2  0  0  0  0  0  0
  186.0210  177.7900  143.5650 O   0  0  0  0  0  0  0  0  0  0  0  0
  191.1450  176.6490  146.5310 N   0  0  0  0  0  0  0  0  0  0  0  0
  191.7390  176.1780  145.5400 O   0  0  0  0  0  0  0  0  0  0  0  0
  191.8230  176.7800  147.7200 O   0  0  0  0  0  0  0  0  0  0  0  0
  181.1660  178.5360  135.6390 C   0  0  0  0  0  0  0  0  0  0  0  0
  180.8800  179.8230  135.1980 O   0  0  0  0  0  1  0  0  0  0  0  0
  180.7970  177.5460  134.9560 O   0  0  0  0  0  0  0  0  0  0  0  0
  1  5  1  0  0  0  0
  1 10  1  0  0  0  0
  2 15  1  0  0  0  0
  3  9  1  0  0  0  0
  4  8  2  0  0  0  0
  5  4  1  0  0  0  0
  6  8  1  0  0  0  0
  6  7  1  0  0  0  0
  9 10  1  0  0  0  0
  9 11  2  0  0  0  0
 10  6  2  0  0  0  0
 11  7  1  0  0  0  0
 12  2  1  0  0  0  0
 13 32  1  6  0  0  0
 13 12  1  0  0  0  0
 13 14  1  0  0  0  0
 14 16  1  0  0  0  0
 15 17  1  0  0  0  0
 15  3  2  0  0  0  0
 16 17  1  0  0  0  0
 17  1  2  0  0  0  0
 18 22  1  0  0  0  0
 19 25  1  0  0  0  0
 20 29  1  0  0  0  0
 20 26  1  0  0  0  0
 21 20  2  0  0  0  0
 22 21  1  0  0  0  0
 22 25  2  0  0  0  0
 23  4  1  1  0  0  0
 23 27  1  0  0  0  0
 24 26  2  0  0  0  0
 25 24  1  0  0  0  0
 27 19  1  0  0  0  0
 28 18  1  0  0  0  0
 28 23  1  0  0  0  0
 29 31  2  0  0  0  0
 30 29  2  0  0  0  0
 33 32  1  0  0  0  0
 34 32  2  0  0  0  0
M  END
>  <MODEL>
1

>  <REMARK>
 VINA RESULT:     -10.7      0.000      0.000
  Name = 
  3 active torsions:
  status: ('A' for Active; 'I' for Inactive)
    1  A    between atoms: C_3  and  C_25
    2  A    between atoms: C_7  and  N_11
    3  A    between atoms: C_8  and  C_18
                            x       y       z     vdW  Elec       q    Type
                         _______ _______ _______ _____ _____    ______ ____

>  <TORSDO>
F 3

$$$$
=
 OpenBabel11052415373D

 34 39  0  0  1  0  0  0  0  0999 V2000
  190.4870  176.3840  138.4360 C   0  0  0  0  0  0  0  0  0  0  0  0
  192.3590  173.5940  136.3610 C   0  0  0  0  0  2  0  0  0  0  0  0
  190.2450  174.7800  136.0470 C   0  0  0  0  0  3  0  0  0  0  0  0
  189.1920  177.5360  140.0350 C   0  0  0  0  0  0  0  0  0  0  0  0
  190.3370  176.9320  139.6480 O   0  0  0  0  0  0  0  0  0  0  0  0
  188.2250  177.0630  137.9050 C   0  0  0  0  0  0  0  0  0  0  0  0
  187.3080  176.6350  137.0120 N   0  0  0  0  0  0  0  0  0  0  0  0
  188.0510  177.5780  139.1820 C   0  0  0  0  0  3  0  0  0  0  0  0
  189.2540  175.7870  136.4490 C   0  0  0  0  0  0  0  0  0  0  0  0
  189.4700  176.5350  137.5410 C   0  0  0  0  0  0  0  0  0  0  0  0
  187.9390  175.8540  136.1250 N   0  0  0  0  0  0  0  0  0  0  0  0
  193.5470  173.4920  137.3200 C   0  0  0  0  0  2  0  0  0  0  0  0
  194.5560  174.6430  137.1840 C   0  0  2  0  0  3  0  0  0  0  0  0
  193.9350  175.9930  136.8090 C   0  0  0  0  0  2  0  0  0  0  0  0
  191.3830  174.6610  136.7710 C   0  0  0  0  0  0  0  0  0  0  0  0
  192.8910  176.4880  137.8120 C   0  0  0  0  0  2  0  0  0  0  0  0
  191.6810  175.5600  138.0040 C   0  0  1  0  0  3  0  0  0  0  0  0
  189.9480  178.0360  143.4890 C   0  0  0  0  0  2  0  0  0  0  0  0
  187.0450  177.4500  142.7000 C   0  0  0  0  0  2  0  0  0  0  0  0
  188.2230  177.7500  146.8450 C   0  0  0  0  0  0  0  0  0  0  0  0
  189.1960  177.8910  145.8480 C   0  0  0  0  0  3  0  0  0  0  0  0
  188.8550  177.8070  144.4940 C   0  0  0  0  0  0  0  0  0  0  0  0
  189.1270  178.1330  141.4030 C   0  0  1  0  0  3  0  0  0  0  0  0
  186.5350  177.4570  145.1260 C   0  0  0  0  0  3  0  0  0  0  0  0
  187.5000  177.6090  144.1260 C   0  0  0  0  0  0  0  0  0  0  0  0
  186.8900  177.5310  146.4740 C   0  0  0  0  0  3  0  0  0  0  0  0
  187.6740  178.4850  141.7710 C   0  0  0  0  0  2  0  0  0  0  0  0
  189.7320  177.2720  142.3360 O   0  0  0  0  0  0  0  0  0  0  0  0
  188.5900  177.8320  148.2290 N   0  0  0  0  0  0  0  0  0  0  0  0
  187.7820  177.5040  149.1210 O   0  0  0  0  0  0  0  0  0  0  0  0
  189.8420  178.2750  148.5890 O   0  0  0  0  0  0  0  0  0  0  0  0
  195.6210  174.2840  136.2020 C   0  0  0  0  0  0  0  0  0  0  0  0
  195.7890  172.9670  135.7930 O   0  0  0  0  0  1  0  0  0  0  0  0
  196.3740  175.1820  135.7440 O   0  0  0  0  0  0  0  0  0  0  0  0
  1  5  1  0  0  0  0
  2 15  1  0  0  0  0
  2 12  1  0  0  0  0
  3  9  1  0  0  0  0
  3 15  2  0  0  0  0
  5  4  1  0  0  0  0
  6  8  1  0  0  0  0
  7  6  2  0  0  0  0
  8  4  2  0  0  0  0
  9 10  1  0  0  0  0
 10  6  1  0  0  0  0
 10  1  2  0  0  0  0
 11  9  2  0  0  0  0
 11  7  1  0  0  0  0
 13 32  1  6  0  0  0
 13 12  1  0  0  0  0
 14 13  1  0  0  0  0
 14 16  1  0  0  0  0
 15 17  1  0  0  0  0
 17 16  1  6  0  0  0
 17  1  1  0  0  0  0
 18 22  1  0  0  0  0
 19 25  1  0  0  0  0
 20 29  1  0  0  0  0
 21 20  2  0  0  0  0
 22 21  1  0  0  0  0
 23  4  1  6  0  0  0
 23 27  1  0  0  0  0
 23 28  1  0  0  0  0
 24 26  2  0  0  0  0
 25 22  2  0  0  0  0
 25 24  1  0  0  0  0
 26 20  1  0  0  0  0
 27 19  1  0  0  0  0
 28 18  1  0  0  0  0
 29 31  2  0  0  0  0
 29 30  2  0  0  0  0
 33 32  1  0  0  0  0
 34 32  2  0  0  0  0
M  END
>  <MODEL>
2

>  <REMARK>
 VINA RESULT:      -9.6      6.841      9.062
  Name = 
  3 active torsions:
  status: ('A' for Active; 'I' for Inactive)
    1  A    between atoms: C_3  and  C_25
    2  A    between atoms: C_7  and  N_11
    3  A    between atoms: C_8  and  C_18
                            x       y       z     vdW  Elec       q    Type
                         _______ _______ _______ _____ _____    ______ ____

>  <TORSDO>
F 3

$$$$
=
 OpenBabel11052415373D

 34 39  0  0  1  0  0  0  0  0999 V2000
  190.2720  176.7810  138.5670 C   0  0  0  0  0  0  0  0  0  0  0  0
  191.9290  175.2960  135.3050 C   0  0  0  0  0  2  0  0  0  0  0  0
  190.2620  177.0420  135.6920 C   0  0  0  0  0  3  0  0  0  0  0  0
  188.9170  177.1310  140.4660 C   0  0  0  0  0  0  0  0  0  0  0  0
  189.9610  176.5370  139.8460 O   0  0  0  0  0  0  0  0  0  0  0  0
  188.4060  178.3200  138.4600 C   0  0  0  0  0  0  0  0  0  0  0  0
  187.6580  178.8090  137.4500 N   0  0  0  0  0  0  0  0  0  0  0  0
  188.0490  178.0210  139.7680 C   0  0  0  0  0  3  0  0  0  0  0  0
  189.4480  177.8790  136.5820 C   0  0  0  0  0  0  0  0  0  0  0  0
  189.5560  177.7380  137.9120 C   0  0  2  0  0  3  0  0  0  0  0  0
  188.2950  178.5370  136.3030 N   0  0  0  0  0  0  0  0  0  0  0  0
  192.8020  174.2840  136.0500 C   0  0  0  0  0  2  0  0  0  0  0  0
  194.0400  174.9050  136.7150 C   0  0  2  0  0  3  0  0  0  0  0  0
  193.8370  176.3320  137.2350 C   0  0  0  0  0  2  0  0  0  0  0  0
  191.1410  176.1700  136.2400 C   0  0  0  0  0  0  0  0  0  0  0  0
  192.7180  176.4550  138.2710 C   0  0  0  0  0  2  0  0  0  0  0  0
  191.3250  176.0330  137.7780 C   0  0  0  0  0  0  0  0  0  0  0  0
  187.8970  177.6040  143.8550 C   0  0  0  0  0  2  0  0  0  0  0  0
  190.7790  176.7160  143.3090 C   0  0  0  0  0  2  0  0  0  0  0  0
  189.4480  177.6680  147.3060 C   0  0  0  0  0  0  0  0  0  0  0  0
  188.5510  177.8020  146.2390 C   0  0  0  0  0  3  0  0  0  0  0  0
  188.9400  177.4980  144.9310 C   0  0  0  0  0  0  0  0  0  0  0  0
  188.6590  176.8060  141.9010 C   0  0  1  0  0  3  0  0  0  0  0  0
  191.1460  176.8960  145.7540 C   0  0  0  0  0  3  0  0  0  0  0  0
  190.2520  177.0170  144.6850 C   0  0  0  0  0  0  0  0  0  0  0  0
  190.7490  177.2140  147.0530 C   0  0  0  0  0  3  0  0  0  0  0  0
  189.7850  175.9220  142.4660 C   0  0  0  0  0  2  0  0  0  0  0  0
  188.4730  177.9900  142.6390 O   0  0  0  0  0  0  0  0  0  0  0  0
  189.0350  177.9910  148.6410 N   0  0  0  0  0  0  0  0  0  0  0  0
  189.8400  178.4950  149.4500 O   0  0  0  0  0  0  0  0  0  0  0  0
  187.7420  177.7470  149.0450 O   0  0  0  0  0  0  0  0  0  0  0  0
  195.2040  174.8650  135.7820 C   0  0  0  0  0  0  0  0  0  0  0  0
  196.1180  175.9110  135.7490 O   0  0  0  0  0  1  0  0  0  0  0  0
  195.3560  173.8780  135.0170 O   0  0  0  0  0  0  0  0  0  0  0  0
  1  5  1  0  0  0  0
  2 12  1  0  0  0  0
  2 15  1  0  0  0  0
  3 15  2  0  0  0  0
  3  9  1  0  0  0  0
  5  4  1  0  0  0  0
  6  8  1  0  0  0  0
  7  6  2  0  0  0  0
  8  4  2  0  0  0  0
 10  9  1  6  0  0  0
 10  6  1  0  0  0  0
 10  1  1  0  0  0  0
 11  9  2  0  0  0  0
 11  7  1  0  0  0  0
 12 13  1  0  0  0  0
 13 32  1  6  0  0  0
 13 14  1  0  0  0  0
 14 16  1  0  0  0  0
 15 17  1  0  0  0  0
 17 16  1  0  0  0  0
 17  1  2  0  0  0  0
 18 22  1  0  0  0  0
 19 25  1  0  0  0  0
 20 29  1  0  0  0  0
 21 20  2  0  0  0  0
 22 21  1  0  0  0  0
 23  4  1  6  0  0  0
 23 27  1  0  0  0  0
 23 28  1  0  0  0  0
 24 26  2  0  0  0  0
 25 22  2  0  0  0  0
 25 24  1  0  0  0  0
 26 20  1  0  0  0  0
 27 19  1  0  0  0  0
 28 18  1  0  0  0  0
 29 31  2  0  0  0  0
 29 30  2  0  0  0  0
 33 32  1  0  0  0  0
 34 32  2  0  0  0  0
M  END
>  <MODEL>
3

>  <REMARK>
 VINA RESULT:      -9.1      6.730      8.841
  Name = 
  3 active torsions:
  status: ('A' for Active; 'I' for Inactive)
    1  A    between atoms: C_3  and  C_25
    2  A    between atoms: C_7  and  N_11
    3  A    between atoms: C_8  and  C_18
                            x       y       z     vdW  Elec       q    Type
                         _______ _______ _______ _____ _____    ______ ____

>  <TORSDO>
F 3

$$$$
=
 OpenBabel11052415373D

 34 39  0  0  1  0  0  0  0  0999 V2000
  186.0900  178.2690  143.4690 C   0  0  0  0  0  0  0  0  0  0  0  0
  189.3390  178.1230  145.7080 C   0  0  0  0  0  2  0  0  0  0  0  0
  186.9500  178.1830  146.2240 C   0  0  0  0  0  3  0  0  0  0  0  0
  184.3050  178.9890  142.1060 C   0  0  0  0  0  0  0  0  0  0  0  0
  185.5960  178.6280  142.2780 O   0  0  0  0  0  0  0  0  0  0  0  0
  183.8970  178.6290  144.4300 C   0  0  0  0  0  0  0  0  0  0  0  0
  183.4570  178.8860  145.6790 N   0  0  0  0  0  2  0  0  0  0  0  0
  183.4010  179.0580  143.2060 C   0  0  0  0  0  3  0  0  0  0  0  0
  185.5390  178.2030  145.8180 C   0  0  0  0  0  0  0  0  0  0  0  0
  185.2200  178.1800  144.5160 C   0  0  0  0  0  0  0  0  0  0  0  0
  184.4630  178.6270  146.5260 N   0  0  0  0  0  0  0  0  0  0  0  0
  190.3120  178.1300  144.5270 C   0  0  0  0  0  2  0  0  0  0  0  0
  190.4260  176.7770  143.8090 C   0  0  2  0  0  3  0  0  0  0  0  0
  189.1310  175.9580  143.7820 C   0  0  0  0  0  2  0  0  0  0  0  0
  187.9030  178.0980  145.2650 C   0  0  0  0  0  0  0  0  0  0  0  0
  187.9640  176.6790  143.1030 C   0  0  0  0  0  2  0  0  0  0  0  0
  187.5540  178.0100  143.7530 C   0  0  0  0  0  0  0  0  0  0  0  0
  182.0470  179.7090  139.4350 C   0  0  0  0  0  2  0  0  0  0  0  0
  184.1050  177.4720  139.0430 C   0  0  0  0  0  2  0  0  0  0  0  0
  181.0730  178.2700  136.0730 C   0  0  0  0  0  0  0  0  0  0  0  0
  181.0910  179.0280  137.2490 C   0  0  0  0  0  3  0  0  0  0  0  0
  182.0590  178.8060  138.2340 C   0  0  0  0  0  0  0  0  0  0  0  0
  183.8430  179.3570  140.7340 C   0  0  1  0  0  3  0  0  0  0  0  0
  183.0270  177.0590  136.8490 C   0  0  0  0  0  3  0  0  0  0  0  0
  183.0570  177.8200  138.0220 C   0  0  0  0  0  0  0  0  0  0  0  0
  182.0480  177.2830  135.8800 C   0  0  0  0  0  3  0  0  0  0  0  0
  184.7440  178.7090  139.6670 C   0  0  0  0  0  2  0  0  0  0  0  0
  182.4850  179.0250  140.5750 O   0  0  0  0  0  0  0  0  0  0  0  0
  180.0690  178.5070  135.0760 N   0  0  0  0  0  0  0  0  0  0  0  0
  179.9110  179.6460  134.5940 O   0  0  0  0  0  0  0  0  0  0  0  0
  179.2670  177.4770  134.6410 O   0  0  0  0  0  0  0  0  0  0  0  0
  191.5270  175.9650  144.4060 C   0  0  0  0  0  0  0  0  0  0  0  0
  191.9840  176.2330  145.6910 O   0  0  0  0  0  1  0  0  0  0  0  0
  192.0460  175.0330  143.7400 O   0  0  0  0  0  0  0  0  0  0  0  0
  1 17  2  0  0  0  0
  1 10  1  0  0  0  0
  4  5  1  0  0  0  0
  4  8  2  0  0  0  0
  5  1  1  0  0  0  0
  6 10  2  0  0  0  0
  6  7  1  0  0  0  0
  7 11  1  0  0  0  0
  8  6  1  0  0  0  0
  9  3  1  0  0  0  0
  9 11  2  0  0  0  0
 10  9  1  0  0  0  0
 12  2  1  0  0  0  0
 13 32  1  1  0  0  0
 13 12  1  0  0  0  0
 14 13  1  0  0  0  0
 15  2  1  0  0  0  0
 15  3  2  0  0  0  0
 16 17  1  0  0  0  0
 16 14  1  0  0  0  0
 17 15  1  0  0  0  0
 18 28  1  0  0  0  0
 19 27  1  0  0  0  0
 20 21  1  0  0  0  0
 21 22  2  0  0  0  0
 22 18  1  0  0  0  0
 23  4  1  1  0  0  0
 24 25  2  0  0  0  0
 25 22  1  0  0  0  0
 25 19  1  0  0  0  0
 26 20  2  0  0  0  0
 26 24  1  0  0  0  0
 27 23  1  0  0  0  0
 28 23  1  0  0  0  0
 29 20  1  0  0  0  0
 30 29  2  0  0  0  0
 31 29  2  0  0  0  0
 32 33  1  0  0  0  0
 34 32  2  0  0  0  0
M  END
>  <MODEL>
4

>  <REMARK>
 VINA RESULT:      -9.1      2.224      9.945
  Name = 
  3 active torsions:
  status: ('A' for Active; 'I' for Inactive)
    1  A    between atoms: C_3  and  C_25
    2  A    between atoms: C_7  and  N_11
    3  A    between atoms: C_8  and  C_18
                            x       y       z     vdW  Elec       q    Type
                         _______ _______ _______ _____ _____    ______ ____

>  <TORSDO>
F 3

$$$$
=
 OpenBabel11052415373D

 34 39  0  0  1  0  0  0  0  0999 V2000
  186.1570  178.0550  143.2660 C   0  0  0  0  0  0  0  0  0  0  0  0
  189.4190  178.2600  145.4820 C   0  0  0  0  0  2  0  0  0  0  0  0
  187.0320  178.3840  145.9970 C   0  0  0  0  0  3  0  0  0  0  0  0
  184.3600  178.5550  141.8210 C   0  0  0  0  0  0  0  0  0  0  0  0
  185.6550  178.2310  142.0370 O   0  0  0  0  0  0  0  0  0  0  0  0
  183.9670  178.5420  144.1750 C   0  0  0  0  0  0  0  0  0  0  0  0
  183.5310  178.9790  145.3750 N   0  0  0  0  0  2  0  0  0  0  0  0
  183.4620  178.7820  142.9050 C   0  0  0  0  0  3  0  0  0  0  0  0
  185.6190  178.3350  145.6010 C   0  0  0  0  0  0  0  0  0  0  0  0
  185.2930  178.1170  144.3190 C   0  0  0  0  0  0  0  0  0  0  0  0
  184.5430  178.8540  146.2450 N   0  0  0  0  0  0  0  0  0  0  0  0
  190.3850  178.0980  144.3070 C   0  0  0  0  0  2  0  0  0  0  0  0
  190.5040  176.6530  143.7970 C   0  0  2  0  0  3  0  0  0  0  0  0
  189.2140  175.8330  143.8990 C   0  0  0  0  0  2  0  0  0  0  0  0
  187.9800  178.1620  145.0560 C   0  0  0  0  0  0  0  0  0  0  0  0
  188.0390  176.4390  143.1280 C   0  0  0  0  0  2  0  0  0  0  0  0
  187.6240  177.8490  143.5760 C   0  0  0  0  0  0  0  0  0  0  0  0
  183.0480  180.1520  138.9100 C   0  0  0  0  0  2  0  0  0  0  0  0
  181.6010  177.6780  139.9940 C   0  0  0  0  0  2  0  0  0  0  0  0
  179.9880  179.9480  136.6930 C   0  0  0  0  0  0  0  0  0  0  0  0
  181.1770  180.3740  137.2960 C   0  0  0  0  0  3  0  0  0  0  0  0
  181.7360  179.6640  138.3640 C   0  0  0  0  0  0  0  0  0  0  0  0
  183.8890  178.7140  140.4120 C   0  0  1  0  0  3  0  0  0  0  0  0
  179.9130  178.0640  138.2200 C   0  0  0  0  0  3  0  0  0  0  0  0
  181.1070  178.4780  138.8200 C   0  0  0  0  0  0  0  0  0  0  0  0
  179.3590  178.7880  137.1630 C   0  0  0  0  0  3  0  0  0  0  0  0
  183.1120  177.4650  139.9580 C   0  0  0  0  0  2  0  0  0  0  0  0
  183.1410  179.8980  140.2830 O   0  0  0  0  0  0  0  0  0  0  0  0
  179.4250  180.6920  135.6030 N   0  0  0  0  0  0  0  0  0  0  0  0
  178.9790  180.1030  134.5970 O   0  0  0  0  0  0  0  0  0  0  0  0
  179.3690  182.0650  135.6560 O   0  0  0  0  0  0  0  0  0  0  0  0
  191.6130  175.9450  144.5010 C   0  0  0  0  0  0  0  0  0  0  0  0
  192.0590  176.3890  145.7400 O   0  0  0  0  0  1  0  0  0  0  0  0
  192.1490  174.9400  143.9670 O   0  0  0  0  0  0  0  0  0  0  0  0
  1 17  2  0  0  0  0
  1 10  1  0  0  0  0
  4  5  1  0  0  0  0
  4  8  2  0  0  0  0
  5  1  1  0  0  0  0
  6 10  2  0  0  0  0
  6  7  1  0  0  0  0
  7 11  1  0  0  0  0
  8  6  1  0  0  0  0
  9  3  1  0  0  0  0
  9 11  2  0  0  0  0
 10  9  1  0  0  0  0
 12  2  1  0  0  0  0
 13 14  1  0  0  0  0
 13 12  1  0  0  0  0
 13 32  1  1  0  0  0
 15  2  1  0  0  0  0
 15  3  2  0  0  0  0
 16 17  1  0  0  0  0
 16 14  1  0  0  0  0
 17 15  1  0  0  0  0
 18 28  1  0  0  0  0
 20 26  2  0  0  0  0
 20 21  1  0  0  0  0
 21 22  2  0  0  0  0
 22 25  1  0  0  0  0
 22 18  1  0  0  0  0
 23  4  1  1  0  0  0
 24 25  2  0  0  0  0
 25 19  1  0  0  0  0
 26 24  1  0  0  0  0
 27 19  1  0  0  0  0
 27 23  1  0  0  0  0
 28 23  1  0  0  0  0
 29 31  2  0  0  0  0
 29 20  1  0  0  0  0
 30 29  2  0  0  0  0
 32 33  1  0  0  0  0
 34 32  2  0  0  0  0
M  END
>  <MODEL>
5

>  <REMARK>
 VINA RESULT:      -9.0      2.266     10.122
  Name = 
  3 active torsions:
  status: ('A' for Active; 'I' for Inactive)
    1  A    between atoms: C_3  and  C_25
    2  A    between atoms: C_7  and  N_11
    3  A    between atoms: C_8  and  C_18
                            x       y       z     vdW  Elec       q    Type
                         _______ _______ _______ _____ _____    ______ ____

>  <TORSDO>
F 3

$$$$
=
 OpenBabel11052415373D

 34 39  0  0  1  0  0  0  0  0999 V2000
  190.0740  176.8530  140.4790 C   0  0  0  0  0  0  0  0  0  0  0  0
  190.1810  178.8050  143.9110 C   0  0  0  0  0  2  0  0  0  0  0  0
  188.5680  178.7310  142.0750 C   0  0  0  0  0  3  0  0  0  0  0  0
  190.4120  176.1680  138.2480 C   0  0  0  0  0  0  0  0  0  0  0  0
  190.8130  176.2570  139.5360 O   0  0  0  0  0  0  0  0  0  0  0  0
  188.3980  177.3250  138.7980 C   0  0  0  0  0  0  0  0  0  0  0  0
  187.4090  178.2380  138.6970 N   0  0  0  0  0  0  0  0  0  0  0  0
  189.1910  176.7580  137.8100 C   0  0  0  0  0  3  0  0  0  0  0  0
  188.1050  178.2160  140.7800 C   0  0  0  0  0  0  0  0  0  0  0  0
  188.8340  177.2980  140.1280 C   0  0  0  0  0  0  0  0  0  0  0  0
  187.2340  178.7830  139.9080 N   0  0  0  0  0  0  0  0  0  0  0  0
  191.5320  178.2330  144.3450 C   0  0  0  0  0  2  0  0  0  0  0  0
  191.4550  176.7890  144.8660 C   0  0  2  0  0  3  0  0  0  0  0  0
  190.3930  175.9200  144.1830 C   0  0  0  0  0  2  0  0  0  0  0  0
  189.7090  178.2290  142.6050 C   0  0  0  0  0  0  0  0  0  0  0  0
  190.5830  175.7950  142.6700 C   0  0  0  0  0  2  0  0  0  0  0  0
  190.5380  177.1210  141.8950 C   0  0  1  0  0  3  0  0  0  0  0  0
  191.9470  173.4670  136.4880 C   0  0  0  0  0  2  0  0  0  0  0  0
  193.7500  175.4620  137.9590 C   0  0  0  0  0  2  0  0  0  0  0  0
  195.3850  171.9450  136.0590 C   0  0  0  0  0  0  0  0  0  0  0  0
  194.0010  172.1550  136.0280 C   0  0  0  0  0  3  0  0  0  0  0  0
  193.4320  173.2840  136.6250 C   0  0  0  0  0  0  0  0  0  0  0  0
  191.2980  175.4680  137.2710 C   0  0  1  0  0  3  0  0  0  0  0  0
  195.6520  174.0250  137.2810 C   0  0  0  0  0  3  0  0  0  0  0  0
  194.2720  174.2460  137.2430 C   0  0  0  0  0  0  0  0  0  0  0  0
  196.2060  172.8880  136.6910 C   0  0  0  0  0  3  0  0  0  0  0  0
  192.6590  176.1790  137.1680 C   0  0  0  0  0  2  0  0  0  0  0  0
  191.4180  174.1080  137.6140 O   0  0  0  0  0  0  0  0  0  0  0  0
  195.9520  170.7780  135.4460 N   0  0  0  0  0  0  0  0  0  0  0  0
  197.1830  170.5780  135.4810 O   0  0  0  0  0  0  0  0  0  0  0  0
  195.1420  169.8650  134.8120 O   0  0  0  0  0  0  0  0  0  0  0  0
  191.2430  176.7820  146.3430 C   0  0  0  0  0  0  0  0  0  0  0  0
  189.9620  176.8840  146.8730 O   0  0  0  0  0  0  0  0  0  0  0  0
  192.2330  176.6850  147.1140 O   0  0  0  0  0  1  0  0  0  0  0  0
  1 17  1  0  0  0  0
  2 12  1  0  0  0  0
  3 15  2  0  0  0  0
  4  5  1  0  0  0  0
  5  1  1  0  0  0  0
  6 10  1  0  0  0  0
  7  6  2  0  0  0  0
  7 11  1  0  0  0  0
  8  4  2  0  0  0  0
  8  6  1  0  0  0  0
  9  3  1  0  0  0  0
 10  1  2  0  0  0  0
 10  9  1  0  0  0  0
 11  9  2  0  0  0  0
 12 13  1  0  0  0  0
 13 32  1  1  0  0  0
 14 13  1  0  0  0  0
 15  2  1  0  0  0  0
 16 14  1  0  0  0  0
 17 15  1  0  0  0  0
 17 16  1  1  0  0  0
 18 22  1  0  0  0  0
 18 28  1  0  0  0  0
 20 26  1  0  0  0  0
 21 20  2  0  0  0  0
 21 22  1  0  0  0  0
 22 25  2  0  0  0  0
 23 28  1  0  0  0  0
 23  4  1  1  0  0  0
 25 24  1  0  0  0  0
 25 19  1  0  0  0  0
 26 24  2  0  0  0  0
 27 23  1  0  0  0  0
 27 19  1  0  0  0  0
 29 30  2  0  0  0  0
 29 20  1  0  0  0  0
 31 29  2  0  0  0  0
 32 33  2  0  0  0  0
 32 34  1  0  0  0  0
M  END
>  <MODEL>
6

>  <REMARK>
 VINA RESULT:      -8.9      7.721     11.250
  Name = 
  3 active torsions:
  status: ('A' for Active; 'I' for Inactive)
    1  A    between atoms: C_3  and  C_25
    2  A    between atoms: C_7  and  N_11
    3  A    between atoms: C_8  and  C_18
                            x       y       z     vdW  Elec       q    Type
                         _______ _______ _______ _____ _____    ______ ____

>  <TORSDO>
F 3

$$$$
=
 OpenBabel11052415373D

 34 39  0  0  1  0  0  0  0  0999 V2000
  186.3320  177.3860  137.7220 C   0  0  0  0  0  0  0  0  0  0  0  0
  183.5360  177.3880  134.9340 C   0  0  0  0  0  2  0  0  0  0  0  0
  185.9660  177.1310  134.8700 C   0  0  0  0  0  3  0  0  0  0  0  0
  187.9260  178.0300  139.3370 C   0  0  0  0  0  0  0  0  0  0  0  0
  186.6500  177.8000  138.9550 O   0  0  0  0  0  0  0  0  0  0  0  0
  188.6870  177.4050  137.1630 C   0  0  0  0  0  0  0  0  0  0  0  0
  189.3700  177.4900  136.0020 N   0  0  0  0  0  0  0  0  0  0  0  0
  189.0100  177.8910  138.4220 C   0  0  0  0  0  3  0  0  0  0  0  0
  187.2740  177.0330  135.5290 C   0  0  0  0  0  0  0  0  0  0  0  0
  187.3540  177.0990  136.8660 C   0  0  0  0  0  0  0  0  0  0  0  0
  188.5040  177.2640  135.0040 N   0  0  0  0  0  0  0  0  0  0  0  0
  182.3790  177.6170  135.9090 C   0  0  0  0  0  2  0  0  0  0  0  0
  181.9690  176.3600  136.6920 C   0  0  2  0  0  3  0  0  0  0  0  0
  183.1240  175.4090  137.0210 C   0  0  0  0  0  2  0  0  0  0  0  0
  184.8560  177.2460  135.6380 C   0  0  0  0  0  0  0  0  0  0  0  0
  184.2360  176.0570  137.8500 C   0  0  0  0  0  2  0  0  0  0  0  0
  184.9200  177.2650  137.1910 C   0  0  1  0  0  3  0  0  0  0  0  0
  189.3650  178.0750  142.6050 C   0  0  0  0  0  2  0  0  0  0  0  0
  186.3190  177.8370  142.3540 C   0  0  0  0  0  2  0  0  0  0  0  0
  188.2780  177.5700  146.1940 C   0  0  0  0  0  0  0  0  0  0  0  0
  189.0560  177.7350  145.0420 C   0  0  0  0  0  3  0  0  0  0  0  0
  188.4610  177.8320  143.7810 C   0  0  0  0  0  0  0  0  0  0  0  0
  188.1820  178.4750  140.7400 C   0  0  1  0  0  3  0  0  0  0  0  0
  186.2770  177.6190  144.8230 C   0  0  0  0  0  3  0  0  0  0  0  0
  187.0480  177.7950  143.6700 C   0  0  0  0  0  0  0  0  0  0  0  0
  186.8840  177.5120  146.0760 C   0  0  0  0  0  3  0  0  0  0  0  0
  186.8710  178.9090  141.4180 C   0  0  0  0  0  2  0  0  0  0  0  0
  188.8560  177.4650  141.4520 O   0  0  0  0  0  0  0  0  0  0  0  0
  188.9050  177.4660  147.4810 N   0  0  0  0  0  0  0  0  0  0  0  0
  190.0800  177.0580  147.5820 O   0  0  0  0  0  0  0  0  0  0  0  0
  188.2160  177.8150  148.6190 O   0  0  0  0  0  0  0  0  0  0  0  0
  180.8970  175.6230  135.9630 C   0  0  0  0  0  0  0  0  0  0  0  0
  180.1360  176.2620  134.9910 O   0  0  0  0  0  0  0  0  0  0  0  0
  180.6780  174.4130  136.2320 O   0  0  0  0  0  1  0  0  0  0  0  0
  1  5  1  0  0  0  0
  2 15  1  0  0  0  0
  2 12  1  0  0  0  0
  3  9  1  0  0  0  0
  3 15  2  0  0  0  0
  5  4  1  0  0  0  0
  6  8  1  0  0  0  0
  7  6  2  0  0  0  0
  8  4  2  0  0  0  0
  9 10  1  0  0  0  0
 10  6  1  0  0  0  0
 10  1  2  0  0  0  0
 11  9  2  0  0  0  0
 11  7  1  0  0  0  0
 12 13  1  0  0  0  0
 13 32  1  6  0  0  0
 13 14  1  0  0  0  0
 14 16  1  0  0  0  0
 15 17  1  0  0  0  0
 17  1  1  0  0  0  0
 17 16  1  1  0  0  0
 18 22  1  0  0  0  0
 19 25  1  0  0  0  0
 20 29  1  0  0  0  0
 21 20  2  0  0  0  0
 22 21  1  0  0  0  0
 23  4  1  6  0  0  0
 23 27  1  0  0  0  0
 23 28  1  0  0  0  0
 24 26  2  0  0  0  0
 25 22  2  0  0  0  0
 25 24  1  0  0  0  0
 26 20  1  0  0  0  0
 27 19  1  0  0  0  0
 28 18  1  0  0  0  0
 29 30  2  0  0  0  0
 29 31  2  0  0  0  0
 32 34  1  0  0  0  0
 33 32  2  0  0  0  0
M  END
>  <MODEL>
7

>  <REMARK>
 VINA RESULT:      -8.6      4.224      5.595
  Name = 
  3 active torsions:
  status: ('A' for Active; 'I' for Inactive)
    1  A    between atoms: C_3  and  C_25
    2  A    between atoms: C_7  and  N_11
    3  A    between atoms: C_8  and  C_18
                            x       y       z     vdW  Elec       q    Type
                         _______ _______ _______ _____ _____    ______ ____

>  <TORSDO>
F 3

$$$$
=
 OpenBabel11052415373D

 34 39  0  0  1  0  0  0  0  0999 V2000
  188.4490  176.6060  137.9630 C   0  0  0  0  0  0  0  0  0  0  0  0
  186.3880  176.6140  134.5940 C   0  0  0  0  0  2  0  0  0  0  0  0
  188.7150  176.0940  135.1340 C   0  0  0  0  0  3  0  0  0  0  0  0
  189.7000  177.2420  139.8580 C   0  0  0  0  0  0  0  0  0  0  0  0
  188.5270  177.1120  139.1990 O   0  0  0  0  0  0  0  0  0  0  0  0
  190.8520  176.3140  137.9840 C   0  0  0  0  0  0  0  0  0  0  0  0
  191.7870  176.2030  137.0180 N   0  0  0  0  0  0  0  0  0  0  0  0
  190.9380  176.8930  139.2430 C   0  0  0  0  0  3  0  0  0  0  0  0
  189.8140  175.9250  136.0930 C   0  0  0  0  0  0  0  0  0  0  0  0
  189.5940  176.1240  137.4010 C   0  0  2  0  0  3  0  0  0  0  0  0
  191.1500  175.9670  135.8620 N   0  0  0  0  0  0  0  0  0  0  0  0
  185.0790  177.0680  135.2430 C   0  0  0  0  0  2  0  0  0  0  0  0
  184.3420  175.9520  135.9990 C   0  0  2  0  0  3  0  0  0  0  0  0
  185.2590  174.9220  136.6680 C   0  0  0  0  0  2  0  0  0  0  0  0
  187.4840  176.4070  135.6020 C   0  0  0  0  0  0  0  0  0  0  0  0
  186.2250  175.5310  137.6860 C   0  0  0  0  0  2  0  0  0  0  0  0
  187.1920  176.5820  137.1200 C   0  0  0  0  0  0  0  0  0  0  0  0
  190.2610  177.4310  143.3790 C   0  0  0  0  0  2  0  0  0  0  0  0
  187.3900  177.7020  142.3420 C   0  0  0  0  0  2  0  0  0  0  0  0
  188.2380  177.5640  146.5750 C   0  0  0  0  0  0  0  0  0  0  0  0
  189.2950  177.4490  145.6640 C   0  0  0  0  0  3  0  0  0  0  0  0
  189.0640  177.4950  144.2850 C   0  0  0  0  0  0  0  0  0  0  0  0
  189.6840  177.8030  141.2430 C   0  0  1  0  0  3  0  0  0  0  0  0
  186.6920  177.7970  144.7190 C   0  0  0  0  0  3  0  0  0  0  0  0
  187.7450  177.6940  143.8040 C   0  0  0  0  0  0  0  0  0  0  0  0
  186.9350  177.7370  146.0920 C   0  0  0  0  0  3  0  0  0  0  0  0
  188.3600  178.5390  141.5130 C   0  0  0  0  0  2  0  0  0  0  0  0
  189.9430  176.7850  142.1790 O   0  0  0  0  0  0  0  0  0  0  0  0
  188.4920  177.5090  147.9860 N   0  0  0  0  0  0  0  0  0  0  0  0
  187.8680  176.7080  148.7110 O   0  0  0  0  0  0  0  0  0  0  0  0
  189.4300  178.3390  148.5550 O   0  0  0  0  0  0  0  0  0  0  0  0
  183.3790  175.2600  135.0930 C   0  0  0  0  0  0  0  0  0  0  0  0
  182.1500  175.8370  134.7960 O   0  0  0  0  0  1  0  0  0  0  0  0
  183.6820  174.1450  134.5950 O   0  0  0  0  0  0  0  0  0  0  0  0
  1  5  1  0  0  0  0
  2 12  1  0  0  0  0
  2 15  1  0  0  0  0
  3 15  2  0  0  0  0
  3  9  1  0  0  0  0
  5  4  1  0  0  0  0
  6  8  1  0  0  0  0
  7  6  2  0  0  0  0
  8  4  2  0  0  0  0
 10  9  1  6  0  0  0
 10  1  1  0  0  0  0
 10  6  1  0  0  0  0
 11  9  2  0  0  0  0
 11  7  1  0  0  0  0
 12 13  1  0  0  0  0
 13 32  1  6  0  0  0
 13 14  1  0  0  0  0
 14 16  1  0  0  0  0
 15 17  1  0  0  0  0
 17 16  1  0  0  0  0
 17  1  2  0  0  0  0
 18 22  1  0  0  0  0
 19 25  1  0  0  0  0
 20 29  1  0  0  0  0
 21 20  2  0  0  0  0
 22 21  1  0  0  0  0
 23  4  1  6  0  0  0
 23 27  1  0  0  0  0
 23 28  1  0  0  0  0
 24 26  2  0  0  0  0
 25 22  2  0  0  0  0
 25 24  1  0  0  0  0
 26 20  1  0  0  0  0
 27 19  1  0  0  0  0
 28 18  1  0  0  0  0
 29 31  2  0  0  0  0
 29 30  2  0  0  0  0
 33 32  1  0  0  0  0
 34 32  2  0  0  0  0
M  END
>  <MODEL>
8

>  <REMARK>
 VINA RESULT:      -8.4      4.920      6.763
  Name = 
  3 active torsions:
  status: ('A' for Active; 'I' for Inactive)
    1  A    between atoms: C_3  and  C_25
    2  A    between atoms: C_7  and  N_11
    3  A    between atoms: C_8  and  C_18
                            x       y       z     vdW  Elec       q    Type
                         _______ _______ _______ _____ _____    ______ ____

>  <TORSDO>
F 3

$$$$
=
 OpenBabel11052415373D

 34 39  0  0  1  0  0  0  0  0999 V2000
  182.6630  177.1250  139.9730 C   0  0  0  0  0  0  0  0  0  0  0  0
  180.7930  174.2010  138.0900 C   0  0  0  0  0  2  0  0  0  0  0  0
  180.0190  176.1490  139.3480 C   0  0  0  0  0  3  0  0  0  0  0  0
  183.8360  178.4160  141.5600 C   0  0  0  0  0  0  0  0  0  0  0  0
  183.8000  177.4850  140.5810 O   0  0  0  0  0  0  0  0  0  0  0  0
  181.4750  178.7050  141.3700 C   0  0  0  0  0  0  0  0  0  0  0  0
  180.1900  178.8170  141.7660 N   0  0  0  0  0  2  0  0  0  0  0  0
  182.6450  179.0340  142.0400 C   0  0  0  0  0  3  0  0  0  0  0  0
  180.2680  177.3820  140.1060 C   0  0  0  0  0  0  0  0  0  0  0  0
  181.5260  177.8020  140.3010 C   0  0  0  0  0  0  0  0  0  0  0  0
  179.4540  178.0060  140.9940 N   0  0  0  0  0  0  0  0  0  0  0  0
  182.0740  173.4930  137.6430 C   0  0  0  0  0  2  0  0  0  0  0  0
  182.7730  174.1670  136.4530 C   0  0  2  0  0  3  0  0  0  0  0  0
  182.6410  175.6940  136.4170 C   0  0  0  0  0  2  0  0  0  0  0  0
  181.0750  175.4820  138.8240 C   0  0  0  0  0  0  0  0  0  0  0  0
  183.2020  176.3870  137.6620 C   0  0  0  0  0  2  0  0  0  0  0  0
  182.5380  175.9830  138.9870 C   0  0  0  0  0  0  0  0  0  0  0  0
  187.3410  178.2530  142.2240 C   0  0  0  0  0  2  0  0  0  0  0  0
  185.3960  177.9700  144.5760 C   0  0  0  0  0  2  0  0  0  0  0  0
  189.6510  177.4650  145.1170 C   0  0  0  0  0  0  0  0  0  0  0  0
  189.1530  177.7300  143.8350 C   0  0  0  0  0  3  0  0  0  0  0  0
  187.7830  177.9060  143.6180 C   0  0  0  0  0  0  0  0  0  0  0  0
  185.1570  178.7630  142.1680 C   0  0  1  0  0  3  0  0  0  0  0  0
  187.3900  177.5720  145.9930 C   0  0  0  0  0  3  0  0  0  0  0  0
  186.8880  177.8480  144.7170 C   0  0  0  0  0  0  0  0  0  0  0  0
  188.7590  177.3870  146.1940 C   0  0  0  0  0  3  0  0  0  0  0  0
  184.9910  179.1190  143.6560 C   0  0  0  0  0  2  0  0  0  0  0  0
  186.0750  177.7180  141.9570 O   0  0  0  0  0  0  0  0  0  0  0  0
  191.0590  177.2800  145.3210 N   0  0  0  0  0  0  0  0  0  0  0  0
  191.8860  177.8380  144.5720 O   0  0  0  0  0  0  0  0  0  0  0  0
  191.5120  176.4840  146.3480 O   0  0  0  0  0  0  0  0  0  0  0  0
  182.2840  173.5860  135.1680 C   0  0  0  0  0  0  0  0  0  0  0  0
  182.9310  172.4980  134.5940 O   0  0  0  0  0  0  0  0  0  0  0  0
  181.2800  174.0880  134.5990 O   0  0  0  0  0  1  0  0  0  0  0  0
  1 10  1  0  0  0  0
  1  5  1  0  0  0  0
  2 15  1  0  0  0  0
  3  9  1  0  0  0  0
  4  8  2  0  0  0  0
  5  4  1  0  0  0  0
  6  7  1  0  0  0  0
  6  8  1  0  0  0  0
  9 10  1  0  0  0  0
  9 11  2  0  0  0  0
 10  6  2  0  0  0  0
 11  7  1  0  0  0  0
 12  2  1  0  0  0  0
 13 32  1  6  0  0  0
 13 12  1  0  0  0  0
 14 13  1  0  0  0  0
 14 16  1  0  0  0  0
 15 17  1  0  0  0  0
 15  3  2  0  0  0  0
 16 17  1  0  0  0  0
 17  1  2  0  0  0  0
 18 22  1  0  0  0  0
 19 25  1  0  0  0  0
 20 29  1  0  0  0  0
 20 26  1  0  0  0  0
 21 20  2  0  0  0  0
 22 21  1  0  0  0  0
 22 25  2  0  0  0  0
 23  4  1  1  0  0  0
 23 27  1  0  0  0  0
 24 26  2  0  0  0  0
 25 24  1  0  0  0  0
 27 19  1  0  0  0  0
 28 23  1  0  0  0  0
 28 18  1  0  0  0  0
 29 31  2  0  0  0  0
 30 29  2  0  0  0  0
 33 32  2  0  0  0  0
 34 32  1  0  0  0  0
M  END
>  <MODEL>
9

>  <REMARK>
 VINA RESULT:      -8.3      2.070      2.754
  Name = 
  3 active torsions:
  status: ('A' for Active; 'I' for Inactive)
    1  A    between atoms: C_3  and  C_25
    2  A    between atoms: C_7  and  N_11
    3  A    between atoms: C_8  and  C_18
                            x       y       z     vdW  Elec       q    Type
                         _______ _______ _______ _____ _____    ______ ____

>  <TORSDO>
F 3

$$$$
