=
 OpenBabel11052417053D

 32 37  0  0  0  0  0  0  0  0999 V2000
  181.6080  178.5520  142.1410 C   0  0  0  0  0  0  0  0  0  0  0  0
  186.6270  178.4460  143.1490 N   0  0  0  0  0  0  0  0  0  0  0  0
  187.4330  178.2750  139.4220 C   0  0  0  0  0  2  0  0  0  0  0  0
  189.7040  177.2940  139.2210 C   0  0  0  0  0  2  0  0  0  0  0  0
  187.9660  177.6840  145.0500 N   0  0  0  0  0  0  0  0  0  0  0  0
  189.1110  177.2070  145.6000 C   0  0  0  0  0  0  0  0  0  0  0  0
  184.1380  178.7330  143.3490 C   0  0  0  0  0  0  0  0  0  0  0  0
  185.2190  179.0040  141.0820 C   0  0  0  0  0  2  0  0  0  0  0  0
  191.4880  176.2200  146.8150 C   0  0  0  0  0  3  0  0  0  0  0  0
  182.7610  178.6820  141.3530 C   0  0  0  0  0  3  0  0  0  0  0  0
  188.7770  178.3870  138.7160 C   0  0  0  0  0  2  0  0  0  0  0  0
  186.5080  178.5280  141.7090 C   0  0  0  0  0  0  0  0  0  0  0  0
  187.5700  178.2480  140.9270 C   0  0  0  0  0  0  0  0  0  0  0  0
  188.9430  177.6200  142.8750 C   0  0  0  0  0  0  0  0  0  0  0  0
  190.4040  176.4880  147.5470 C   0  0  0  0  0  3  0  0  0  0  0  0
  181.7260  178.5200  143.5330 C   0  0  0  0  0  3  0  0  0  0  0  0
  184.0230  178.7590  141.9490 C   0  0  0  0  0  0  0  0  0  0  0  0
  189.1770  177.0010  146.9170 C   0  0  0  0  0  3  0  0  0  0  0  0
  182.9830  178.6110  144.1360 C   0  0  0  0  0  3  0  0  0  0  0  0
  190.0640  177.5670  140.6760 C   0  0  0  0  0  2  0  0  0  0  0  0
  188.8460  177.7790  141.5430 C   0  0  0  0  0  0  0  0  0  0  0  0
  190.0960  177.1540  143.4330 N   0  0  0  0  0  0  0  0  0  0  0  0
  185.4790  178.7880  143.9620 C   0  0  0  0  0  0  0  0  0  0  0  0
  185.6570  179.4710  145.4490 S   0  0  0  0  0  0  0  0  0  0  0  0
  191.5170  176.4240  145.3220 C   0  0  0  0  0  2  0  0  0  0  0  0
  187.8500  177.9170  143.7130 C   0  0  0  0  0  0  0  0  0  0  0  0
  190.2140  176.9430  144.7680 C   0  0  0  0  0  0  0  0  0  0  0  0
  180.3120  178.4620  141.5480 N   0  0  0  0  0  2  0  0  0  0  0  0
  180.0630  177.7740  140.2890 C   0  0  0  0  0  2  0  0  0  0  0  0
  179.9360  176.2780  140.5240 C   0  0  0  0  0  2  0  0  0  0  0  0
  180.7400  175.4930  139.5010 C   0  0  0  0  0  2  0  0  0  0  0  0
  182.1070  175.6690  139.7220 O   0  0  0  0  0  1  0  0  0  0  0  0
  1 16  1  0  0  0  0
  2 26  1  0  0  0  0
  2 23  1  0  0  0  0
  3 13  1  0  0  0  0
  4 20  1  0  0  0  0
  5  6  1  0  0  0  0
  6 18  2  0  0  0  0
  7 23  1  0  0  0  0
  7 19  1  0  0  0  0
  8 12  1  0  0  0  0
  8 17  1  0  0  0  0
  9 15  2  0  0  0  0
 10 17  1  0  0  0  0
 10  1  2  0  0  0  0
 11  4  1  0  0  0  0
 11  3  1  0  0  0  0
 12  2  1  0  0  0  0
 13 21  1  0  0  0  0
 13 12  2  0  0  0  0
 14 22  1  0  0  0  0
 14 26  1  0  0  0  0
 16 19  2  0  0  0  0
 17  7  2  0  0  0  0
 18 15  1  0  0  0  0
 20 21  1  0  0  0  0
 21 14  2  0  0  0  0
 22 27  2  0  0  0  0
 23 24  2  0  0  0  0
 25  9  1  0  0  0  0
 26  5  2  0  0  0  0
 27 25  1  0  0  0  0
 27  6  1  0  0  0  0
 28  1  1  0  0  0  0
 29 30  1  0  0  0  0
 29 28  1  0  0  0  0
 31 32  1  0  0  0  0
 31 30  1  0  0  0  0
M  END
>  <MODEL>
1

>  <REMARK>
 VINA RESULT:      -9.2      0.000      0.000
  Name = 
  4 active torsions:
  status: ('A' for Active; 'I' for Inactive)
    1  A    between atoms: C_1  and  C_20
    2  A    between atoms: C_2  and  N_24
    3  A    between atoms: C_10  and  C_20
    4  A    between atoms: C_10  and  N_24
                            x       y       z     vdW  Elec       q    Type
                         _______ _______ _______ _____ _____    ______ ____

>  <TORSDO>
F 4

$$$$
=
 OpenBabel11052417053D

 32 37  0  0  0  0  0  0  0  0999 V2000
  181.5670  178.6000  142.4720 C   0  0  0  0  0  0  0  0  0  0  0  0
  186.6170  178.4520  143.3020 N   0  0  0  0  0  0  0  0  0  0  0  0
  187.2890  178.2740  139.5480 C   0  0  0  0  0  2  0  0  0  0  0  0
  189.5440  177.2730  139.2670 C   0  0  0  0  0  2  0  0  0  0  0  0
  188.0160  177.6780  145.1540 N   0  0  0  0  0  0  0  0  0  0  0  0
  189.1760  177.1920  145.6640 C   0  0  0  0  0  0  0  0  0  0  0  0
  184.1400  178.7600  143.5900 C   0  0  0  0  0  0  0  0  0  0  0  0
  185.1410  179.0220  141.2860 C   0  0  0  0  0  2  0  0  0  0  0  0
  191.5860  176.1850  146.7940 C   0  0  0  0  0  3  0  0  0  0  0  0
  182.6930  178.7210  141.6430 C   0  0  0  0  0  3  0  0  0  0  0  0
  188.6090  178.3730  138.7950 C   0  0  0  0  0  2  0  0  0  0  0  0
  186.4480  178.5340  141.8670 C   0  0  0  0  0  0  0  0  0  0  0  0
  187.4790  178.2460  141.0480 C   0  0  0  0  0  0  0  0  0  0  0  0
  188.9150  177.6060  142.9460 C   0  0  0  0  0  0  0  0  0  0  0  0
  190.5310  176.4620  147.5640 C   0  0  0  0  0  3  0  0  0  0  0  0
  181.7330  178.5680  143.8590 C   0  0  0  0  0  3  0  0  0  0  0  0
  183.9760  178.7870  142.1950 C   0  0  0  0  0  0  0  0  0  0  0  0
  189.2860  176.9860  146.9780 C   0  0  0  0  0  3  0  0  0  0  0  0
  183.0120  178.6480  144.4160 C   0  0  0  0  0  3  0  0  0  0  0  0
  189.9570  177.5430  140.7090 C   0  0  0  0  0  2  0  0  0  0  0  0
  188.7720  177.7660  141.6180 C   0  0  0  0  0  0  0  0  0  0  0  0
  190.0830  177.1300  143.4630 N   0  0  0  0  0  0  0  0  0  0  0  0
  185.5020  178.8040  144.1540 C   0  0  0  0  0  0  0  0  0  0  0  0
  185.7380  179.4850  145.6340 S   0  0  0  0  0  0  0  0  0  0  0  0
  191.5640  176.3880  145.3010 C   0  0  0  0  0  2  0  0  0  0  0  0
  187.8550  177.9130  143.8220 C   0  0  0  0  0  0  0  0  0  0  0  0
  190.2470  176.9180  144.7940 C   0  0  0  0  0  0  0  0  0  0  0  0
  180.2500  178.5210  141.9250 N   0  0  0  0  0  2  0  0  0  0  0  0
  179.1780  179.4300  142.3060 C   0  0  0  0  0  2  0  0  0  0  0  0
  179.3160  180.7470  141.5630 C   0  0  0  0  0  2  0  0  0  0  0  0
  179.6180  180.5160  140.0910 C   0  0  0  0  0  2  0  0  0  0  0  0
  180.2600  181.6300  139.5490 O   0  0  0  0  0  1  0  0  0  0  0  0
  1 16  1  0  0  0  0
  2 26  1  0  0  0  0
  2 23  1  0  0  0  0
  3 13  1  0  0  0  0
  4 20  1  0  0  0  0
  5  6  1  0  0  0  0
  6 18  2  0  0  0  0
  7 23  1  0  0  0  0
  7 19  1  0  0  0  0
  8 12  1  0  0  0  0
  8 17  1  0  0  0  0
  9 15  2  0  0  0  0
 10 17  1  0  0  0  0
 10  1  2  0  0  0  0
 11  4  1  0  0  0  0
 11  3  1  0  0  0  0
 12  2  1  0  0  0  0
 13 21  1  0  0  0  0
 13 12  2  0  0  0  0
 14 22  1  0  0  0  0
 14 26  1  0  0  0  0
 16 19  2  0  0  0  0
 17  7  2  0  0  0  0
 18 15  1  0  0  0  0
 20 21  1  0  0  0  0
 21 14  2  0  0  0  0
 22 27  2  0  0  0  0
 23 24  2  0  0  0  0
 25  9  1  0  0  0  0
 26  5  2  0  0  0  0
 27 25  1  0  0  0  0
 27  6  1  0  0  0  0
 28 29  1  0  0  0  0
 28  1  1  0  0  0  0
 30 29  1  0  0  0  0
 31 30  1  0  0  0  0
 32 31  1  0  0  0  0
M  END
>  <MODEL>
2

>  <REMARK>
 VINA RESULT:      -9.1      1.564      1.731
  Name = 
  4 active torsions:
  status: ('A' for Active; 'I' for Inactive)
    1  A    between atoms: C_1  and  C_20
    2  A    between atoms: C_2  and  N_24
    3  A    between atoms: C_10  and  C_20
    4  A    between atoms: C_10  and  N_24
                            x       y       z     vdW  Elec       q    Type
                         _______ _______ _______ _____ _____    ______ ____

>  <TORSDO>
F 4

$$$$
=
 OpenBabel11052417053D

 32 37  0  0  1  0  0  0  0  0999 V2000
  190.9350  175.6180  137.6820 C   0  0  0  0  0  0  0  0  0  0  0  0
  188.5020  177.7870  141.6300 N   0  0  0  0  0  0  0  0  0  0  0  0
  191.3940  176.9210  143.9650 C   0  0  0  0  0  2  0  0  0  0  0  0
  190.4770  176.9020  146.2720 C   0  0  0  0  0  2  0  0  0  0  0  0
  186.1480  178.1740  142.1740 N   0  0  0  0  0  0  0  0  0  0  0  0
  185.1310  178.3620  143.0540 C   0  0  0  0  0  0  0  0  0  0  0  0
  189.2020  177.1110  139.3130 C   0  0  0  0  0  0  0  0  0  0  0  0
  190.9360  177.1460  141.1490 C   0  0  0  0  0  2  0  0  0  0  0  0
  182.9610  178.7720  144.8480 C   0  0  0  0  0  3  0  0  0  0  0  0
  191.3170  175.9690  138.9850 C   0  0  0  0  0  3  0  0  0  0  0  0
  191.6390  177.3530  145.4050 C   0  0  0  0  0  2  0  0  0  0  0  0
  189.8100  177.4110  142.1210 C   0  0  0  0  0  0  0  0  0  0  0  0
  190.0460  177.3690  143.4480 C   0  0  0  0  0  0  0  0  0  0  0  0
  187.6960  177.9010  143.9670 C   0  0  0  0  0  0  0  0  0  0  0  0
  182.7690  178.7830  143.5270 C   0  0  0  0  0  3  0  0  0  0  0  0
  189.6890  176.0230  137.1970 C   0  0  0  0  0  3  0  0  0  0  0  0
  190.4520  176.7000  139.8050 C   0  0  0  0  0  0  0  0  0  0  0  0
  183.8940  178.5730  142.6000 C   0  0  0  0  0  3  0  0  0  0  0  0
  188.8250  176.7660  138.0060 C   0  0  0  0  0  3  0  0  0  0  0  0
  189.2270  177.6860  145.8920 C   0  0  0  0  0  2  0  0  0  0  0  0
  188.9370  177.6320  144.4110 C   0  0  0  0  0  0  0  0  0  0  0  0
  186.6760  178.1030  144.8480 N   0  0  0  0  0  0  0  0  0  0  0  0
  188.2910  177.8580  140.2000 C   0  0  0  0  0  0  0  0  0  0  0  0
  187.2360  178.9400  139.5440 S   0  0  0  0  0  0  0  0  0  0  0  0
  184.3200  178.5480  145.4590 C   0  0  0  0  0  3  0  0  0  0  0  0
  187.4280  177.9630  142.5850 C   0  0  1  0  0  3  0  0  0  0  0  0
  185.4040  178.3350  144.4330 C   0  0  0  0  0  0  0  0  0  0  0  0
  191.8020  174.8640  136.8340 N   0  0  0  0  0  2  0  0  0  0  0  0
  193.2460  175.0490  136.8100 C   0  0  0  0  0  2  0  0  0  0  0  0
  193.9410  173.8450  137.4210 C   0  0  0  0  0  2  0  0  0  0  0  0
  195.0700  174.2740  138.3440 C   0  0  0  0  0  2  0  0  0  0  0  0
  195.5240  173.1850  139.0900 O   0  0  0  0  0  1  0  0  0  0  0  0
  1 10  1  0  0  0  0
  2 12  1  0  0  0  0
  2 26  1  0  0  0  0
  3 11  1  0  0  0  0
  5  6  2  0  0  0  0
  6 27  1  0  0  0  0
  7 17  1  0  0  0  0
  7 23  1  0  0  0  0
  8 12  1  0  0  0  0
  9 25  2  0  0  0  0
 10 17  2  0  0  0  0
 11  4  1  0  0  0  0
 12 13  2  0  0  0  0
 13  3  1  0  0  0  0
 13 21  1  0  0  0  0
 14 21  2  0  0  0  0
 14 22  1  0  0  0  0
 15  9  1  0  0  0  0
 16  1  2  0  0  0  0
 16 19  1  0  0  0  0
 17  8  1  0  0  0  0
 18  6  1  0  0  0  0
 18 15  2  0  0  0  0
 19  7  2  0  0  0  0
 20  4  1  0  0  0  0
 21 20  1  0  0  0  0
 23  2  1  0  0  0  0
 24 23  2  0  0  0  0
 26  5  1  6  0  0  0
 26 14  1  0  0  0  0
 27 22  2  0  0  0  0
 27 25  1  0  0  0  0
 28  1  1  0  0  0  0
 29 28  1  0  0  0  0
 29 30  1  0  0  0  0
 30 31  1  0  0  0  0
 31 32  1  0  0  0  0
M  END
>  <MODEL>
3

>  <REMARK>
 VINA RESULT:      -8.7      3.629      8.107
  Name = 
  4 active torsions:
  status: ('A' for Active; 'I' for Inactive)
    1  A    between atoms: C_1  and  C_20
    2  A    between atoms: C_2  and  N_24
    3  A    between atoms: C_10  and  C_20
    4  A    between atoms: C_10  and  N_24
                            x       y       z     vdW  Elec       q    Type
                         _______ _______ _______ _____ _____    ______ ____

>  <TORSDO>
F 4

$$$$
=
 OpenBabel11052417053D

 32 37  0  0  1  0  0  0  0  0999 V2000
  181.4650  178.2300  139.7960 C   0  0  0  0  0  0  0  0  0  0  0  0
  185.9430  178.5280  142.2590 N   0  0  0  0  0  0  0  0  0  0  0  0
  187.8450  178.1220  138.9740 C   0  0  0  0  0  2  0  0  0  0  0  0
  190.1070  177.2770  139.5510 C   0  0  0  0  0  2  0  0  0  0  0  0
  186.6730  178.0020  144.5340 N   0  0  0  0  0  0  0  0  0  0  0  0
  187.6160  177.6440  145.4430 C   0  0  0  0  0  0  0  0  0  0  0  0
  183.5020  178.6680  141.6810 C   0  0  0  0  0  0  0  0  0  0  0  0
  185.2060  178.8320  139.8240 C   0  0  0  0  0  2  0  0  0  0  0  0
  189.5490  176.9100  147.3970 C   0  0  0  0  0  3  0  0  0  0  0  0
  182.7970  178.3740  139.3780 C   0  0  0  0  0  3  0  0  0  0  0  0
  189.3350  178.2650  138.6940 C   0  0  0  0  0  2  0  0  0  0  0  0
  186.2620  178.4900  140.8480 C   0  0  0  0  0  0  0  0  0  0  0  0
  187.5210  178.2200  140.4470 C   0  0  0  0  0  0  0  0  0  0  0  0
  188.2640  177.8340  142.7660 C   0  0  0  0  0  0  0  0  0  0  0  0
  188.2860  177.1640  147.7450 C   0  0  0  0  0  3  0  0  0  0  0  0
  181.1570  178.3140  141.1560 C   0  0  0  0  0  3  0  0  0  0  0  0
  183.8150  178.5780  140.3140 C   0  0  0  0  0  0  0  0  0  0  0  0
  187.2870  177.5460  146.7330 C   0  0  0  0  0  3  0  0  0  0  0  0
  182.1680  178.5320  142.0950 C   0  0  0  0  0  3  0  0  0  0  0  0
  189.9980  177.6840  141.0160 C   0  0  0  0  0  2  0  0  0  0  0  0
  188.5680  177.8830  141.4570 C   0  0  0  0  0  0  0  0  0  0  0  0
  189.2110  177.4880  143.6820 N   0  0  0  0  0  0  0  0  0  0  0  0
  184.5910  178.8560  142.6570 C   0  0  0  0  0  0  0  0  0  0  0  0
  184.2840  179.6620  144.0600 S   0  0  0  0  0  0  0  0  0  0  0  0
  190.0210  176.9990  145.9690 C   0  0  0  0  0  3  0  0  0  0  0  0
  186.9580  178.1240  143.2090 C   0  0  1  0  0  3  0  0  0  0  0  0
  188.9280  177.3890  145.0060 C   0  0  0  0  0  0  0  0  0  0  0  0
  180.4130  178.0110  138.8540 N   0  0  0  0  0  2  0  0  0  0  0  0
  180.3320  176.8200  138.0210 C   0  0  0  0  0  2  0  0  0  0  0  0
  180.8420  175.6090  138.7830 C   0  0  0  0  0  2  0  0  0  0  0  0
  181.7320  174.7440  137.9050 C   0  0  0  0  0  2  0  0  0  0  0  0
  182.6440  175.5400  137.2110 O   0  0  0  0  0  1  0  0  0  0  0  0
  1 16  1  0  0  0  0
  2 23  1  0  0  0  0
  2 26  1  0  0  0  0
  3 13  1  0  0  0  0
  4 20  1  0  0  0  0
  5  6  2  0  0  0  0
  6 18  1  0  0  0  0
  7 19  1  0  0  0  0
  7 23  1  0  0  0  0
  8 17  1  0  0  0  0
  8 12  1  0  0  0  0
  9 15  1  0  0  0  0
 10  1  2  0  0  0  0
 10 17  1  0  0  0  0
 11  3  1  0  0  0  0
 11  4  1  0  0  0  0
 12  2  1  0  0  0  0
 13 12  2  0  0  0  0
 13 21  1  0  0  0  0
 14 22  1  0  0  0  0
 16 19  2  0  0  0  0
 17  7  2  0  0  0  0
 18 15  2  0  0  0  0
 20 21  1  0  0  0  0
 21 14  2  0  0  0  0
 22 27  2  0  0  0  0
 23 24  2  0  0  0  0
 25  9  2  0  0  0  0
 26 14  1  6  0  0  0
 26  5  1  0  0  0  0
 27  6  1  0  0  0  0
 27 25  1  0  0  0  0
 28  1  1  0  0  0  0
 29 30  1  0  0  0  0
 29 28  1  0  0  0  0
 31 30  1  0  0  0  0
 32 31  1  0  0  0  0
M  END
>  <MODEL>
4

>  <REMARK>
 VINA RESULT:      -8.6      1.338      1.695
  Name = 
  4 active torsions:
  status: ('A' for Active; 'I' for Inactive)
    1  A    between atoms: C_1  and  C_20
    2  A    between atoms: C_2  and  N_24
    3  A    between atoms: C_10  and  C_20
    4  A    between atoms: C_10  and  N_24
                            x       y       z     vdW  Elec       q    Type
                         _______ _______ _______ _____ _____    ______ ____

>  <TORSDO>
F 4

$$$$
=
 OpenBabel11052417053D

 32 37  0  0  0  0  0  0  0  0999 V2000
  186.8800  177.7700  146.1250 C   0  0  0  0  0  0  0  0  0  0  0  0
  184.0660  178.5660  141.9230 N   0  0  0  0  0  0  0  0  0  0  0  0
  180.9470  179.1370  144.0480 C   0  0  0  0  0  2  0  0  0  0  0  0
  178.9890  178.6960  142.5870 C   0  0  0  0  0  2  0  0  0  0  0  0
  184.2290  177.8210  139.5980 N   0  0  0  0  0  0  0  0  0  0  0  0
  183.6860  177.5170  138.3910 C   0  0  0  0  0  0  0  0  0  0  0  0
  185.9950  178.2910  143.5100 C   0  0  0  0  0  0  0  0  0  0  0  0
  183.7860  179.1250  144.4080 C   0  0  0  0  0  2  0  0  0  0  0  0
  182.6110  176.8770  135.8360 C   0  0  0  0  0  3  0  0  0  0  0  0
  185.5840  178.2580  145.9010 C   0  0  0  0  0  3  0  0  0  0  0  0
  179.5690  179.6340  143.6310 C   0  0  0  0  0  2  0  0  0  0  0  0
  183.1960  178.8390  143.0470 C   0  0  0  0  0  0  0  0  0  0  0  0
  181.8620  178.9110  142.8660 C   0  0  0  0  0  0  0  0  0  0  0  0
  182.0680  178.2950  140.4890 C   0  0  0  0  0  0  0  0  0  0  0  0
  183.9240  176.7970  136.0660 C   0  0  0  0  0  3  0  0  0  0  0  0
  187.7320  177.5520  145.0380 C   0  0  0  0  0  3  0  0  0  0  0  0
  185.1350  178.5060  144.6000 C   0  0  0  0  0  0  0  0  0  0  0  0
  184.4780  177.1310  137.3890 C   0  0  0  0  0  3  0  0  0  0  0  0
  187.2930  177.8110  143.7370 C   0  0  0  0  0  3  0  0  0  0  0  0
  179.7940  178.8130  141.2980 C   0  0  0  0  0  2  0  0  0  0  0  0
  181.2760  178.6310  141.5220 C   0  0  0  0  0  0  0  0  0  0  0  0
  181.5280  178.0020  139.2720 N   0  0  0  0  0  0  0  0  0  0  0  0
  185.4960  178.5320  142.1430 C   0  0  0  0  0  0  0  0  0  0  0  0
  186.5530  179.0030  140.9720 S   0  0  0  0  0  0  0  0  0  0  0  0
  181.6350  177.3070  136.8990 C   0  0  0  0  0  2  0  0  0  0  0  0
  183.4650  178.2260  140.6500 C   0  0  0  0  0  0  0  0  0  0  0  0
  182.2950  177.6200  138.2190 C   0  0  0  0  0  0  0  0  0  0  0  0
  187.3520  177.5020  147.4460 N   0  0  0  0  0  2  0  0  0  0  0  0
  188.5080  176.6590  147.7180 C   0  0  0  0  0  2  0  0  0  0  0  0
  189.7790  177.4900  147.7090 C   0  0  0  0  0  2  0  0  0  0  0  0
  190.9010  176.7660  146.9820 C   0  0  0  0  0  2  0  0  0  0  0  0
  192.0540  176.7520  147.7680 O   0  0  0  0  0  1  0  0  0  0  0  0
  1 28  1  0  0  0  0
  2 23  1  0  0  0  0
  2 12  1  0  0  0  0
  4 11  1  0  0  0  0
  5 26  2  0  0  0  0
  6  5  1  0  0  0  0
  7 19  2  0  0  0  0
  7 17  1  0  0  0  0
  8 17  1  0  0  0  0
  9 15  2  0  0  0  0
  9 25  1  0  0  0  0
 10  1  1  0  0  0  0
 11  3  1  0  0  0  0
 12  8  1  0  0  0  0
 13 12  2  0  0  0  0
 13  3  1  0  0  0  0
 14 26  1  0  0  0  0
 14 21  2  0  0  0  0
 15 18  1  0  0  0  0
 16  1  2  0  0  0  0
 17 10  2  0  0  0  0
 18  6  2  0  0  0  0
 19 16  1  0  0  0  0
 20 21  1  0  0  0  0
 20  4  1  0  0  0  0
 21 13  1  0  0  0  0
 22 14  1  0  0  0  0
 23  7  1  0  0  0  0
 24 23  2  0  0  0  0
 25 27  1  0  0  0  0
 26  2  1  0  0  0  0
 27  6  1  0  0  0  0
 27 22  2  0  0  0  0
 28 29  1  0  0  0  0
 30 29  1  0  0  0  0
 31 30  1  0  0  0  0
 31 32  1  0  0  0  0
M  END
>  <MODEL>
5

>  <REMARK>
 VINA RESULT:      -8.5      3.378      8.762
  Name = 
  4 active torsions:
  status: ('A' for Active; 'I' for Inactive)
    1  A    between atoms: C_1  and  C_20
    2  A    between atoms: C_2  and  N_24
    3  A    between atoms: C_10  and  C_20
    4  A    between atoms: C_10  and  N_24
                            x       y       z     vdW  Elec       q    Type
                         _______ _______ _______ _____ _____    ______ ____

>  <TORSDO>
F 4

$$$$
=
 OpenBabel11052417053D

 32 37  0  0  0  0  0  0  0  0999 V2000
  187.6580  177.2290  143.9830 C   0  0  0  0  0  0  0  0  0  0  0  0
  190.1770  177.2490  139.5270 N   0  0  0  0  0  0  0  0  0  0  0  0
  186.9870  178.2020  137.6590 C   0  0  0  0  0  2  0  0  0  0  0  0
  187.3000  177.5050  135.2970 C   0  0  0  0  0  2  0  0  0  0  0  0
  192.1640  176.0920  138.6890 N   0  0  0  0  0  0  0  0  0  0  0  0
  192.9220  175.5740  137.6890 C   0  0  0  0  0  0  0  0  0  0  0  0
  189.6250  177.2660  141.9780 C   0  0  0  0  0  0  0  0  0  0  0  0
  187.9670  178.2520  140.3480 C   0  0  0  0  0  2  0  0  0  0  0  0
  194.5620  174.4800  135.6370 C   0  0  0  0  0  3  0  0  0  0  0  0
  187.3410  177.6690  142.6890 C   0  0  0  0  0  3  0  0  0  0  0  0
  186.8040  178.6170  136.2050 C   0  0  0  0  0  2  0  0  0  0  0  0
  188.8410  177.7240  139.2350 C   0  0  0  0  0  0  0  0  0  0  0  0
  188.4020  177.7630  137.9620 C   0  0  0  0  0  0  0  0  0  0  0  0
  190.4750  176.7240  137.1270 C   0  0  0  0  0  0  0  0  0  0  0  0
  194.9470  174.4420  136.9150 C   0  0  0  0  0  3  0  0  0  0  0  0
  188.9610  176.8150  144.2710 C   0  0  0  0  0  3  0  0  0  0  0  0
  188.3140  177.6770  141.6850 C   0  0  0  0  0  0  0  0  0  0  0  0
  194.0980  175.0110  137.9750 C   0  0  0  0  0  3  0  0  0  0  0  0
  189.9410  176.8340  143.2750 C   0  0  0  0  0  3  0  0  0  0  0  0
  188.8130  177.3840  135.4250 C   0  0  0  0  0  2  0  0  0  0  0  0
  189.2640  177.2440  136.8590 C   0  0  0  0  0  0  0  0  0  0  0  0
  191.2450  176.2150  136.1240 N   0  0  0  0  0  0  0  0  0  0  0  0
  190.6320  177.2540  140.9000 C   0  0  0  0  0  0  0  0  0  0  0  0
  192.2160  177.5020  141.2760 S   0  0  0  0  0  0  0  0  0  0  0  0
  193.2560  175.0980  135.2110 C   0  0  0  0  0  2  0  0  0  0  0  0
  190.9610  176.6830  138.4490 C   0  0  0  0  0  0  0  0  0  0  0  0
  192.4540  175.6460  136.3650 C   0  0  0  0  0  0  0  0  0  0  0  0
  186.6740  177.2060  145.0190 N   0  0  0  0  0  2  0  0  0  0  0  0
  186.8580  177.8700  146.3010 C   0  0  0  0  0  2  0  0  0  0  0  0
  185.7620  178.8970  146.5230 C   0  0  0  0  0  2  0  0  0  0  0  0
  184.8600  179.0080  145.3040 C   0  0  0  0  0  2  0  0  0  0  0  0
  183.5200  179.0020  145.6930 O   0  0  0  0  0  1  0  0  0  0  0  0
  1 16  1  0  0  0  0
  1 28  1  0  0  0  0
  2 23  1  0  0  0  0
  3 13  1  0  0  0  0
  4 20  1  0  0  0  0
  4 11  1  0  0  0  0
  6 18  2  0  0  0  0
  6  5  1  0  0  0  0
  7 19  1  0  0  0  0
  8 17  1  0  0  0  0
  9 15  2  0  0  0  0
 10  1  2  0  0  0  0
 11  3  1  0  0  0  0
 12  2  1  0  0  0  0
 12  8  1  0  0  0  0
 13 12  2  0  0  0  0
 14 26  1  0  0  0  0
 15 18  1  0  0  0  0
 17  7  2  0  0  0  0
 17 10  1  0  0  0  0
 19 16  2  0  0  0  0
 20 21  1  0  0  0  0
 21 14  2  0  0  0  0
 21 13  1  0  0  0  0
 22 27  2  0  0  0  0
 22 14  1  0  0  0  0
 23 24  2  0  0  0  0
 23  7  1  0  0  0  0
 25  9  1  0  0  0  0
 25 27  1  0  0  0  0
 26  5  2  0  0  0  0
 26  2  1  0  0  0  0
 27  6  1  0  0  0  0
 28 29  1  0  0  0  0
 29 30  1  0  0  0  0
 31 32  1  0  0  0  0
 31 30  1  0  0  0  0
M  END
>  <MODEL>
6

>  <REMARK>
 VINA RESULT:      -8.3      3.875      7.155
  Name = 
  4 active torsions:
  status: ('A' for Active; 'I' for Inactive)
    1  A    between atoms: C_1  and  C_20
    2  A    between atoms: C_2  and  N_24
    3  A    between atoms: C_10  and  C_20
    4  A    between atoms: C_10  and  N_24
                            x       y       z     vdW  Elec       q    Type
                         _______ _______ _______ _____ _____    ______ ____

>  <TORSDO>
F 4

$$$$
=
 OpenBabel11052417053D

 32 37  0  0  1  0  0  0  0  0999 V2000
  192.7450  175.5740  136.8220 C   0  0  0  0  0  0  0  0  0  0  0  0
  189.3850  177.8890  139.9150 N   0  0  0  0  0  0  0  0  0  0  0  0
  191.5290  177.0610  142.9630 C   0  0  0  0  0  2  0  0  0  0  0  0
  190.0270  177.1220  144.9380 C   0  0  0  0  0  2  0  0  0  0  0  0
  186.9790  178.3190  139.7970 N   0  0  0  0  0  0  0  0  0  0  0  0
  185.7680  178.5450  140.3670 C   0  0  0  0  0  0  0  0  0  0  0  0
  190.6670  177.1350  137.8890 C   0  0  0  0  0  0  0  0  0  0  0  0
  191.8460  177.2060  140.1220 C   0  0  0  0  0  2  0  0  0  0  0  0
  183.2050  179.0340  141.5010 C   0  0  0  0  0  3  0  0  0  0  0  0
  192.7700  175.9600  138.1710 C   0  0  0  0  0  3  0  0  0  0  0  0
  191.3870  177.5340  144.4030 C   0  0  0  0  0  2  0  0  0  0  0  0
  190.5060  177.5130  140.7490 C   0  0  0  0  0  0  0  0  0  0  0  0
  190.3780  177.5080  142.0910 C   0  0  0  0  0  0  0  0  0  0  0  0
  187.9850  178.0830  141.9460 C   0  0  0  0  0  0  0  0  0  0  0  0
  183.3740  179.0070  140.1770 C   0  0  0  0  0  3  0  0  0  0  0  0
  191.6820  175.9780  136.0100 C   0  0  0  0  0  3  0  0  0  0  0  0
  191.7320  176.7250  138.7090 C   0  0  0  0  0  0  0  0  0  0  0  0
  184.7020  178.7560  139.5920 C   0  0  0  0  0  3  0  0  0  0  0  0
  190.6480  176.7550  136.5390 C   0  0  0  0  0  3  0  0  0  0  0  0
  188.9390  177.9090  144.2160 C   0  0  0  0  0  2  0  0  0  0  0  0
  189.0560  177.8140  142.7140 C   0  0  0  0  0  0  0  0  0  0  0  0
  186.7700  178.3230  142.5150 N   0  0  0  0  0  0  0  0  0  0  0  0
  189.5660  177.9190  138.4790 C   0  0  0  0  0  0  0  0  0  0  0  0
  188.7470  178.9920  137.5370 S   0  0  0  0  0  0  0  0  0  0  0  0
  184.3450  178.8130  142.4600 C   0  0  0  0  0  3  0  0  0  0  0  0
  188.0980  178.1060  140.5420 C   0  0  1  0  0  3  0  0  0  0  0  0
  185.6610  178.5570  141.7690 C   0  0  0  0  0  0  0  0  0  0  0  0
  193.7930  174.7840  136.2580 N   0  0  0  0  0  2  0  0  0  0  0  0
  195.1530  175.2760  136.0900 C   0  0  0  0  0  2  0  0  0  0  0  0
  196.1420  174.3160  136.7270 C   0  0  0  0  0  2  0  0  0  0  0  0
  197.5700  174.8130  136.5650 C   0  0  0  0  0  2  0  0  0  0  0  0
  197.9720  175.5060  137.7080 O   0  0  0  0  0  1  0  0  0  0  0  0
  1 10  1  0  0  0  0
  2 26  1  0  0  0  0
  2 12  1  0  0  0  0
  3 11  1  0  0  0  0
  5  6  2  0  0  0  0
  6 27  1  0  0  0  0
  7 23  1  0  0  0  0
  7 17  1  0  0  0  0
  8 12  1  0  0  0  0
  9 25  2  0  0  0  0
 10 17  2  0  0  0  0
 11  4  1  0  0  0  0
 12 13  2  0  0  0  0
 13 21  1  0  0  0  0
 13  3  1  0  0  0  0
 14 22  1  0  0  0  0
 14 21  2  0  0  0  0
 15  9  1  0  0  0  0
 16 19  1  0  0  0  0
 16  1  2  0  0  0  0
 17  8  1  0  0  0  0
 18 15  2  0  0  0  0
 18  6  1  0  0  0  0
 19  7  2  0  0  0  0
 20  4  1  0  0  0  0
 21 20  1  0  0  0  0
 23  2  1  0  0  0  0
 24 23  2  0  0  0  0
 26  5  1  6  0  0  0
 26 14  1  0  0  0  0
 27 25  1  0  0  0  0
 27 22  2  0  0  0  0
 28  1  1  0  0  0  0
 29 28  1  0  0  0  0
 29 30  1  0  0  0  0
 31 30  1  0  0  0  0
 31 32  1  0  0  0  0
M  END
>  <MODEL>
7

>  <REMARK>
 VINA RESULT:      -8.3      4.626      9.405
  Name = 
  4 active torsions:
  status: ('A' for Active; 'I' for Inactive)
    1  A    between atoms: C_1  and  C_20
    2  A    between atoms: C_2  and  N_24
    3  A    between atoms: C_10  and  C_20
    4  A    between atoms: C_10  and  N_24
                            x       y       z     vdW  Elec       q    Type
                         _______ _______ _______ _____ _____    ______ ____

>  <TORSDO>
F 4

$$$$
=
 OpenBabel11052417053D

 32 37  0  0  0  0  0  0  0  0999 V2000
  189.9530  177.2540  145.5840 C   0  0  0  0  0  0  0  0  0  0  0  0
  189.4630  177.5120  140.4940 N   0  0  0  0  0  0  0  0  0  0  0  0
  185.8840  178.7940  140.8440 C   0  0  0  0  0  2  0  0  0  0  0  0
  184.7240  178.2820  138.7100 C   0  0  0  0  0  2  0  0  0  0  0  0
  190.4950  176.3220  138.6220 N   0  0  0  0  0  0  0  0  0  0  0  0
  190.4930  175.8490  137.3490 C   0  0  0  0  0  0  0  0  0  0  0  0
  190.4150  177.3520  142.8140 C   0  0  0  0  0  0  0  0  0  0  0  0
  188.2240  178.5620  142.4760 C   0  0  0  0  0  2  0  0  0  0  0  0
  190.5550  174.8440  134.6880 C   0  0  0  0  0  3  0  0  0  0  0  0
  188.9970  177.8190  144.7260 C   0  0  0  0  0  3  0  0  0  0  0  0
  184.9420  179.3390  139.7790 C   0  0  0  0  0  2  0  0  0  0  0  0
  188.2510  178.0820  141.0440 C   0  0  0  0  0  0  0  0  0  0  0  0
  187.1690  178.2530  140.2590 C   0  0  0  0  0  0  0  0  0  0  0  0
  188.2850  177.1750  138.3440 C   0  0  0  0  0  0  0  0  0  0  0  0
  191.5960  174.6770  135.5080 C   0  0  0  0  0  3  0  0  0  0  0  0
  191.1410  176.7460  145.0510 C   0  0  0  0  0  3  0  0  0  0  0  0
  189.2170  177.8570  143.3460 C   0  0  0  0  0  0  0  0  0  0  0  0
  191.5620  175.2000  136.8840 C   0  0  0  0  0  3  0  0  0  0  0  0
  191.3730  176.7940  143.6740 C   0  0  0  0  0  3  0  0  0  0  0  0
  186.0190  178.0680  137.9370 C   0  0  0  0  0  2  0  0  0  0  0  0
  187.1930  177.7820  138.8430 C   0  0  0  0  0  0  0  0  0  0  0  0
  188.2920  176.7110  137.0630 N   0  0  0  0  0  0  0  0  0  0  0  0
  190.6190  177.3750  141.3540 C   0  0  0  0  0  0  0  0  0  0  0  0
  192.1480  177.5030  140.7570 S   0  0  0  0  0  0  0  0  0  0  0  0
  189.3050  175.5670  135.1160 C   0  0  0  0  0  2  0  0  0  0  0  0
  189.4320  176.9970  139.1420 C   0  0  0  0  0  0  0  0  0  0  0  0
  189.3620  176.0580  136.5410 C   0  0  0  0  0  0  0  0  0  0  0  0
  189.7410  177.1970  146.9950 N   0  0  0  0  0  2  0  0  0  0  0  0
  188.4470  176.8920  147.5900 C   0  0  0  0  0  2  0  0  0  0  0  0
  187.6790  178.1730  147.8630 C   0  0  0  0  0  2  0  0  0  0  0  0
  186.4210  178.2490  147.0120 C   0  0  0  0  0  2  0  0  0  0  0  0
  185.6820  179.3850  147.3440 O   0  0  0  0  0  1  0  0  0  0  0  0
  1 28  1  0  0  0  0
  2 12  1  0  0  0  0
  2 23  1  0  0  0  0
  4 11  1  0  0  0  0
  5 26  2  0  0  0  0
  6  5  1  0  0  0  0
  7 17  2  0  0  0  0
  7 19  1  0  0  0  0
  8 17  1  0  0  0  0
  9 25  1  0  0  0  0
  9 15  2  0  0  0  0
 10  1  2  0  0  0  0
 11  3  1  0  0  0  0
 12  8  1  0  0  0  0
 13  3  1  0  0  0  0
 13 12  2  0  0  0  0
 14 21  2  0  0  0  0
 14 26  1  0  0  0  0
 15 18  1  0  0  0  0
 16  1  1  0  0  0  0
 17 10  1  0  0  0  0
 18  6  2  0  0  0  0
 19 16  2  0  0  0  0
 20  4  1  0  0  0  0
 20 21  1  0  0  0  0
 21 13  1  0  0  0  0
 22 14  1  0  0  0  0
 23  7  1  0  0  0  0
 24 23  2  0  0  0  0
 25 27  1  0  0  0  0
 26  2  1  0  0  0  0
 27 22  2  0  0  0  0
 27  6  1  0  0  0  0
 28 29  1  0  0  0  0
 29 30  1  0  0  0  0
 31 32  1  0  0  0  0
 31 30  1  0  0  0  0
M  END
>  <MODEL>
8

>  <REMARK>
 VINA RESULT:      -8.3      3.798      7.769
  Name = 
  4 active torsions:
  status: ('A' for Active; 'I' for Inactive)
    1  A    between atoms: C_1  and  C_20
    2  A    between atoms: C_2  and  N_24
    3  A    between atoms: C_10  and  C_20
    4  A    between atoms: C_10  and  N_24
                            x       y       z     vdW  Elec       q    Type
                         _______ _______ _______ _____ _____    ______ ____

>  <TORSDO>
F 4

$$$$
=
 OpenBabel11052417053D

 32 37  0  0  1  0  0  0  0  0999 V2000
  188.4360  177.0020  137.7830 C   0  0  0  0  0  0  0  0  0  0  0  0
  185.1370  178.6830  141.3180 N   0  0  0  0  0  0  0  0  0  0  0  0
  187.6180  177.8750  144.1040 C   0  0  0  0  0  2  0  0  0  0  0  0
  186.2990  177.6180  146.1920 C   0  0  0  0  0  2  0  0  0  0  0  0
  182.6980  178.8480  141.4290 N   0  0  0  0  0  0  0  0  0  0  0  0
  181.5250  178.8920  142.1110 C   0  0  0  0  0  0  0  0  0  0  0  0
  186.3070  178.2340  139.1400 C   0  0  0  0  0  0  0  0  0  0  0  0
  187.6650  178.2690  141.2700 C   0  0  0  0  0  2  0  0  0  0  0  0
  179.0350  179.0030  143.4840 C   0  0  0  0  0  3  0  0  0  0  0  0
  188.5390  177.2850  139.1530 C   0  0  0  0  0  3  0  0  0  0  0  0
  187.5550  178.2200  145.5860 C   0  0  0  0  0  2  0  0  0  0  0  0
  186.3610  178.3750  142.0250 C   0  0  0  0  0  0  0  0  0  0  0  0
  186.3530  178.2550  143.3680 C   0  0  0  0  0  0  0  0  0  0  0  0
  183.9100  178.5650  143.4640 C   0  0  0  0  0  0  0  0  0  0  0  0
  179.0880  179.0940  142.1530 C   0  0  0  0  0  3  0  0  0  0  0  0
  187.2680  177.3430  137.0950 C   0  0  0  0  0  3  0  0  0  0  0  0
  187.4770  177.8860  139.8350 C   0  0  0  0  0  0  0  0  0  0  0  0
  180.3780  179.0390  141.4450 C   0  0  0  0  0  3  0  0  0  0  0  0
  186.2090  177.9570  137.7690 C   0  0  0  0  0  3  0  0  0  0  0  0
  185.0750  178.3300  145.6280 C   0  0  0  0  0  2  0  0  0  0  0  0
  185.0670  178.3610  144.1180 C   0  0  0  0  0  0  0  0  0  0  0  0
  182.7320  178.6230  144.1470 N   0  0  0  0  0  0  0  0  0  0  0  0
  185.1860  178.8420  139.8810 C   0  0  0  0  0  0  0  0  0  0  0  0
  184.1770  179.8840  139.1000 S   0  0  0  0  0  0  0  0  0  0  0  0
  180.2730  178.8400  144.3270 C   0  0  0  0  0  3  0  0  0  0  0  0
  183.8950  178.7060  142.0630 C   0  0  1  0  0  3  0  0  0  0  0  0
  181.5420  178.7860  143.5140 C   0  0  0  0  0  0  0  0  0  0  0  0
  189.5070  176.3790  137.0720 N   0  0  0  0  0  2  0  0  0  0  0  0
  189.9370  175.0110  137.3260 C   0  0  0  0  0  2  0  0  0  0  0  0
  191.4180  174.9790  137.6610 C   0  0  0  0  0  2  0  0  0  0  0  0
  192.0340  176.3650  137.5530 C   0  0  0  0  0  2  0  0  0  0  0  0
  192.5540  176.7590  138.7870 O   0  0  0  0  0  1  0  0  0  0  0  0
  1 10  1  0  0  0  0
  2 12  1  0  0  0  0
  2 26  1  0  0  0  0
  3 11  1  0  0  0  0
  5  6  2  0  0  0  0
  6 27  1  0  0  0  0
  7 17  1  0  0  0  0
  7 23  1  0  0  0  0
  8 12  1  0  0  0  0
  9 25  2  0  0  0  0
 10 17  2  0  0  0  0
 11  4  1  0  0  0  0
 12 13  2  0  0  0  0
 13  3  1  0  0  0  0
 13 21  1  0  0  0  0
 14 21  2  0  0  0  0
 14 22  1  0  0  0  0
 15  9  1  0  0  0  0
 16 19  1  0  0  0  0
 16  1  2  0  0  0  0
 17  8  1  0  0  0  0
 18  6  1  0  0  0  0
 18 15  2  0  0  0  0
 19  7  2  0  0  0  0
 20  4  1  0  0  0  0
 21 20  1  0  0  0  0
 23  2  1  0  0  0  0
 24 23  2  0  0  0  0
 26  5  1  6  0  0  0
 26 14  1  0  0  0  0
 27 22  2  0  0  0  0
 27 25  1  0  0  0  0
 28 29  1  0  0  0  0
 28  1  1  0  0  0  0
 29 30  1  0  0  0  0
 31 30  1  0  0  0  0
 31 32  1  0  0  0  0
M  END
>  <MODEL>
9

>  <REMARK>
 VINA RESULT:      -8.1      3.253      7.989
  Name = 
  4 active torsions:
  status: ('A' for Active; 'I' for Inactive)
    1  A    between atoms: C_1  and  C_20
    2  A    between atoms: C_2  and  N_24
    3  A    between atoms: C_10  and  C_20
    4  A    between atoms: C_10  and  N_24
                            x       y       z     vdW  Elec       q    Type
                         _______ _______ _______ _____ _____    ______ ____

>  <TORSDO>
F 4

$$$$
