=
 OpenBabel11052412463D

 25 28  0  0  1  0  0  0  0  0999 V2000
  187.3790  177.9050  145.5370 C   0  0  0  0  0  0  0  0  0  0  0  0
  188.7200  177.5550  145.2710 C   0  0  0  0  0  0  0  0  0  0  0  0
  187.8110  177.9200  147.9400 C   0  0  0  0  0  3  0  0  0  0  0  0
  186.3310  178.1190  144.6210 C   0  0  0  0  0  0  0  0  0  0  0  0
  184.0500  178.6140  143.1470 N   0  0  0  0  0  0  0  0  0  0  0  0
  189.1420  177.5740  147.6850 C   0  0  0  0  0  3  0  0  0  0  0  0
  185.1330  178.4500  145.2430 C   0  0  0  0  0  0  0  0  0  0  0  0
  183.9820  178.7000  144.5050 C   0  0  0  0  0  3  0  0  0  0  0  0
  191.0020  177.0430  146.1040 C   0  0  0  0  0  0  0  0  0  0  0  0
  191.8080  176.8610  147.0550 O   0  0  0  0  0  0  0  0  0  0  0  0
  189.2030  177.3250  143.8610 C   0  0  0  0  0  2  0  0  0  0  0  0
  185.2110  178.2910  142.5010 C   0  0  0  0  0  3  0  0  0  0  0  0
  186.9550  178.0790  146.8560 C   0  0  0  0  0  0  0  0  0  0  0  0
  185.3200  178.4900  146.9160 S   0  0  0  0  0  0  0  0  0  0  0  0
  191.4620  176.9240  144.7570 N   0  0  0  0  0  0  0  0  0  0  0  0
  186.3850  178.0350  143.2270 C   0  0  0  0  0  3  0  0  0  0  0  0
  190.6830  177.0670  143.7270 C   0  0  0  0  0  0  0  0  0  0  0  0
  189.5990  177.3910  146.3660 C   0  0  0  0  0  0  0  0  0  0  0  0
  191.3720  176.9000  142.0880 S   0  0  0  0  0  0  0  0  0  0  0  0
  189.7940  177.3410  141.2990 C   0  0  0  0  0  2  0  0  0  0  0  0
  190.0200  177.7420  139.8500 C   0  0  1  0  0  3  0  0  0  0  0  0
  190.2580  176.5140  138.9890 C   0  0  0  0  0  1  0  0  0  0  0  0
  188.8480  178.5120  139.3380 C   0  0  0  0  0  0  0  0  0  0  0  0
  188.9730  179.2540  138.1710 O   0  0  0  0  0  0  0  0  0  0  0  0
  187.7480  178.4950  139.9520 O   0  0  0  0  0  1  0  0  0  0  0  0
  1 13  1  0  0  0  0
  2  1  2  0  0  0  0
  2 18  1  0  0  0  0
  4  7  1  0  0  0  0
  4  1  1  0  0  0  0
  5  8  1  0  0  0  0
  6  3  1  0  0  0  0
  7 14  1  0  0  0  0
  8  7  2  0  0  0  0
  9 18  1  0  0  0  0
  9 10  2  0  0  0  0
 11  2  1  0  0  0  0
 12  5  2  0  0  0  0
 12 16  1  0  0  0  0
 13 14  1  0  0  0  0
 13  3  2  0  0  0  0
 15  9  1  0  0  0  0
 16  4  2  0  0  0  0
 17 11  1  0  0  0  0
 17 15  2  0  0  0  0
 18  6  2  0  0  0  0
 19 17  1  0  0  0  0
 20 19  1  0  0  0  0
 21 22  1  6  0  0  0
 21 20  1  0  0  0  0
 23 21  1  0  0  0  0
 23 25  1  0  0  0  0
 24 23  2  0  0  0  0
M  END
>  <MODEL>
1

>  <REMARK>
 VINA RESULT:     -10.0      0.000      0.000
  Name = 
  4 active torsions:
  status: ('A' for Active; 'I' for Inactive)
    1  A    between atoms: C_2  and  C_21
    2  A    between atoms: S_6  and  C_15
    3  A    between atoms: S_6  and  C_23
    4  A    between atoms: C_15  and  C_21
                            x       y       z     vdW  Elec       q    Type
                         _______ _______ _______ _____ _____    ______ ____

>  <TORSDO>
F 4

$$$$
=
 OpenBabel11052412463D

 25 28  0  0  1  0  0  0  0  0999 V2000
  187.9880  177.6840  145.3950 C   0  0  0  0  0  0  0  0  0  0  0  0
  187.3770  177.9900  144.1610 C   0  0  0  0  0  0  0  0  0  0  0  0
  185.8820  178.0370  146.5780 C   0  0  0  0  0  3  0  0  0  0  0  0
  189.3290  177.3300  145.6460 C   0  0  0  0  0  0  0  0  0  0  0  0
  191.8460  176.6130  146.5230 N   0  0  0  0  0  0  0  0  0  0  0  0
  185.2680  178.3410  145.3590 C   0  0  0  0  0  3  0  0  0  0  0  0
  189.5790  177.0970  146.9940 C   0  0  0  0  0  0  0  0  0  0  0  0
  190.8450  176.7360  147.4390 C   0  0  0  0  0  3  0  0  0  0  0  0
  185.3490  178.6260  142.8780 C   0  0  0  0  0  0  0  0  0  0  0  0
  184.1330  178.9520  142.8380 O   0  0  0  0  0  0  0  0  0  0  0  0
  188.1710  178.0010  142.8780 C   0  0  0  0  0  2  0  0  0  0  0  0
  191.6360  176.8340  145.1900 C   0  0  0  0  0  3  0  0  0  0  0  0
  187.2340  177.7120  146.5700 C   0  0  0  0  0  0  0  0  0  0  0  0
  188.1820  177.3130  147.9070 S   0  0  0  0  0  0  0  0  0  0  0  0
  186.0950  178.5380  141.6630 N   0  0  0  0  0  0  0  0  0  0  0  0
  190.3660  177.2000  144.7180 C   0  0  0  0  0  3  0  0  0  0  0  0
  187.3600  178.2380  141.6290 C   0  0  0  0  0  0  0  0  0  0  0  0
  186.0030  178.3200  144.1570 C   0  0  0  0  0  0  0  0  0  0  0  0
  188.1880  178.1540  140.0490 S   0  0  0  0  0  0  0  0  0  0  0  0
  189.4810  177.0530  140.7020 C   0  0  0  0  0  2  0  0  0  0  0  0
  190.8410  177.4510  140.1530 C   0  0  1  0  0  3  0  0  0  0  0  0
  191.8800  177.4630  141.2610 C   0  0  0  0  0  1  0  0  0  0  0  0
  191.2550  176.5130  139.0680 C   0  0  0  0  0  0  0  0  0  0  0  0
  192.4910  176.6750  138.4570 O   0  0  0  0  0  0  0  0  0  0  0  0
  190.4950  175.5760  138.7020 O   0  0  0  0  0  1  0  0  0  0  0  0
  1  4  1  0  0  0  0
  1 13  2  0  0  0  0
  2  1  1  0  0  0  0
  4  7  1  0  0  0  0
  5  8  1  0  0  0  0
  6  3  2  0  0  0  0
  7  8  2  0  0  0  0
  7 14  1  0  0  0  0
  9 18  1  0  0  0  0
 10  9  2  0  0  0  0
 11  2  1  0  0  0  0
 12  5  2  0  0  0  0
 13  3  1  0  0  0  0
 13 14  1  0  0  0  0
 15  9  1  0  0  0  0
 16 12  1  0  0  0  0
 16  4  2  0  0  0  0
 17 15  2  0  0  0  0
 17 11  1  0  0  0  0
 18  2  2  0  0  0  0
 18  6  1  0  0  0  0
 19 20  1  0  0  0  0
 19 17  1  0  0  0  0
 21 20  1  0  0  0  0
 21 22  1  1  0  0  0
 23 21  1  0  0  0  0
 24 23  2  0  0  0  0
 25 23  1  0  0  0  0
M  END
>  <MODEL>
2

>  <REMARK>
 VINA RESULT:      -9.5      2.558      4.729
  Name = 
  4 active torsions:
  status: ('A' for Active; 'I' for Inactive)
    1  A    between atoms: C_2  and  C_21
    2  A    between atoms: S_6  and  C_15
    3  A    between atoms: S_6  and  C_23
    4  A    between atoms: C_15  and  C_21
                            x       y       z     vdW  Elec       q    Type
                         _______ _______ _______ _____ _____    ______ ____

>  <TORSDO>
F 4

$$$$
=
 OpenBabel11052412463D

 25 28  0  0  1  0  0  0  0  0999 V2000
  189.4050  177.3920  144.3230 C   0  0  0  0  0  0  0  0  0  0  0  0
  188.4290  177.6850  145.2990 C   0  0  0  0  0  0  0  0  0  0  0  0
  191.0290  176.8130  146.0510 C   0  0  0  0  0  3  0  0  0  0  0  0
  189.2920  177.4680  142.9200 C   0  0  0  0  0  0  0  0  0  0  0  0
  189.4520  177.4900  140.1640 N   0  0  0  0  0  0  0  0  0  0  0  0
  190.0670  177.1020  147.0260 C   0  0  0  0  0  3  0  0  0  0  0  0
  190.4640  177.1030  142.2670 C   0  0  0  0  0  0  0  0  0  0  0  0
  190.5480  177.1130  140.8800 C   0  0  0  0  0  3  0  0  0  0  0  0
  187.7680  177.8200  147.6870 C   0  0  0  0  0  0  0  0  0  0  0  0
  188.0500  177.7240  148.9120 O   0  0  0  0  0  0  0  0  0  0  0  0
  187.0590  178.1810  144.9100 C   0  0  0  0  0  2  0  0  0  0  0  0
  188.2830  177.8550  140.7730 C   0  0  0  0  0  3  0  0  0  0  0  0
  190.6750  176.9650  144.7160 C   0  0  0  0  0  0  0  0  0  0  0  0
  191.6580  176.6800  143.3750 S   0  0  0  0  0  0  0  0  0  0  0  0
  186.4470  178.1960  147.2960 N   0  0  0  0  0  0  0  0  0  0  0  0
  188.1760  177.8520  142.1730 C   0  0  0  0  0  3  0  0  0  0  0  0
  186.0910  178.3450  146.0550 C   0  0  0  0  0  0  0  0  0  0  0  0
  188.7780  177.5340  146.6600 C   0  0  0  0  0  0  0  0  0  0  0  0
  184.4090  178.8160  145.6850 S   0  0  0  0  0  0  0  0  0  0  0  0
  184.8250  179.2350  143.9650 C   0  0  0  0  0  2  0  0  0  0  0  0
  183.9000  178.5080  143.0040 C   0  0  1  0  0  3  0  0  0  0  0  0
  182.4670  178.9780  143.1840 C   0  0  0  0  0  1  0  0  0  0  0  0
  184.3410  178.7290  141.5950 C   0  0  0  0  0  0  0  0  0  0  0  0
  183.7520  178.0010  140.5700 O   0  0  0  0  0  0  0  0  0  0  0  0
  185.2420  179.5690  141.3270 O   0  0  0  0  0  1  0  0  0  0  0  0
  1 13  1  0  0  0  0
  1  2  2  0  0  0  0
  2 18  1  0  0  0  0
  3  6  1  0  0  0  0
  4  1  1  0  0  0  0
  5 12  2  0  0  0  0
  5  8  1  0  0  0  0
  7  4  1  0  0  0  0
  7 14  1  0  0  0  0
  8  7  2  0  0  0  0
  9 10  2  0  0  0  0
 11  2  1  0  0  0  0
 11 17  1  0  0  0  0
 12 16  1  0  0  0  0
 13  3  2  0  0  0  0
 14 13  1  0  0  0  0
 15  9  1  0  0  0  0
 16  4  2  0  0  0  0
 17 15  2  0  0  0  0
 18  6  2  0  0  0  0
 18  9  1  0  0  0  0
 19 17  1  0  0  0  0
 20 19  1  0  0  0  0
 21 22  1  6  0  0  0
 21 20  1  0  0  0  0
 23 21  1  0  0  0  0
 24 23  2  0  0  0  0
 25 23  1  0  0  0  0
M  END
>  <MODEL>
3

>  <REMARK>
 VINA RESULT:      -9.4      2.261      5.166
  Name = 
  4 active torsions:
  status: ('A' for Active; 'I' for Inactive)
    1  A    between atoms: C_2  and  C_21
    2  A    between atoms: S_6  and  C_15
    3  A    between atoms: S_6  and  C_23
    4  A    between atoms: C_15  and  C_21
                            x       y       z     vdW  Elec       q    Type
                         _______ _______ _______ _____ _____    ______ ____

>  <TORSDO>
F 4

$$$$
=
 OpenBabel11052412463D

 25 28  0  0  1  0  0  0  0  0999 V2000
  186.6730  177.9520  144.7720 C   0  0  0  0  0  0  0  0  0  0  0  0
  187.9200  177.5550  144.2440 C   0  0  0  0  0  0  0  0  0  0  0  0
  187.5520  177.8500  147.0480 C   0  0  0  0  0  3  0  0  0  0  0  0
  185.4820  178.2500  144.0800 C   0  0  0  0  0  0  0  0  0  0  0  0
  182.9920  178.9050  143.0860 N   0  0  0  0  0  0  0  0  0  0  0  0
  188.7910  177.4560  146.5320 C   0  0  0  0  0  3  0  0  0  0  0  0
  184.4420  178.6080  144.9300 C   0  0  0  0  0  0  0  0  0  0  0  0
  183.1870  178.9380  144.4340 C   0  0  0  0  0  3  0  0  0  0  0  0
  190.2880  176.9090  144.6090 C   0  0  0  0  0  0  0  0  0  0  0  0
  191.2500  176.6530  145.3810 O   0  0  0  0  0  0  0  0  0  0  0  0
  188.1140  177.3620  142.7600 C   0  0  0  0  0  2  0  0  0  0  0  0
  183.9910  178.5580  142.2200 C   0  0  0  0  0  3  0  0  0  0  0  0
  186.5160  178.0910  146.1530 C   0  0  0  0  0  0  0  0  0  0  0  0
  184.9440  178.5710  146.5360 S   0  0  0  0  0  0  0  0  0  0  0  0
  190.4790  176.8250  143.1950 N   0  0  0  0  0  0  0  0  0  0  0  0
  185.2670  178.2210  142.7000 C   0  0  0  0  0  3  0  0  0  0  0  0
  189.5260  177.0450  142.3380 C   0  0  0  0  0  0  0  0  0  0  0  0
  188.9800  177.3080  145.1450 C   0  0  0  0  0  0  0  0  0  0  0  0
  189.8830  176.9140  140.5940 S   0  0  0  0  0  0  0  0  0  0  0  0
  188.5640  178.0890  140.1600 C   0  0  0  0  0  2  0  0  0  0  0  0
  188.0880  177.8490  138.7370 C   0  0  1  0  0  3  0  0  0  0  0  0
  186.6280  178.2430  138.5900 C   0  0  0  0  0  1  0  0  0  0  0  0
  188.9290  178.6180  137.7730 C   0  0  0  0  0  0  0  0  0  0  0  0
  189.7440  177.9360  136.8790 O   0  0  0  0  0  0  0  0  0  0  0  0
  188.9070  179.8780  137.7620 O   0  0  0  0  0  1  0  0  0  0  0  0
  1 13  1  0  0  0  0
  2  1  2  0  0  0  0
  2 18  1  0  0  0  0
  4  1  1  0  0  0  0
  4  7  1  0  0  0  0
  5  8  1  0  0  0  0
  6  3  1  0  0  0  0
  7 14  1  0  0  0  0
  8  7  2  0  0  0  0
  9 18  1  0  0  0  0
  9 10  2  0  0  0  0
 11  2  1  0  0  0  0
 12 16  1  0  0  0  0
 12  5  2  0  0  0  0
 13 14  1  0  0  0  0
 13  3  2  0  0  0  0
 15  9  1  0  0  0  0
 16  4  2  0  0  0  0
 17 11  1  0  0  0  0
 17 15  2  0  0  0  0
 18  6  2  0  0  0  0
 19 17  1  0  0  0  0
 20 19  1  0  0  0  0
 21 22  1  1  0  0  0
 21 20  1  0  0  0  0
 23 21  1  0  0  0  0
 24 23  2  0  0  0  0
 25 23  1  0  0  0  0
M  END
>  <MODEL>
4

>  <REMARK>
 VINA RESULT:      -9.2      1.343      1.713
  Name = 
  4 active torsions:
  status: ('A' for Active; 'I' for Inactive)
    1  A    between atoms: C_2  and  C_21
    2  A    between atoms: S_6  and  C_15
    3  A    between atoms: S_6  and  C_23
    4  A    between atoms: C_15  and  C_21
                            x       y       z     vdW  Elec       q    Type
                         _______ _______ _______ _____ _____    ______ ____

>  <TORSDO>
F 4

$$$$
=
 OpenBabel11052412463D

 25 28  0  0  1  0  0  0  0  0999 V2000
  186.2340  178.3330  144.2630 C   0  0  0  0  0  0  0  0  0  0  0  0
  187.2170  178.0140  145.2240 C   0  0  0  0  0  0  0  0  0  0  0  0
  184.5550  178.6290  146.0090 C   0  0  0  0  0  3  0  0  0  0  0  0
  186.3680  178.4000  142.8620 C   0  0  0  0  0  0  0  0  0  0  0  0
  186.2420  178.6320  140.1140 N   0  0  0  0  0  0  0  0  0  0  0  0
  185.5230  178.3150  146.9690 C   0  0  0  0  0  3  0  0  0  0  0  0
  185.1810  178.7450  142.2250 C   0  0  0  0  0  0  0  0  0  0  0  0
  185.1130  178.8630  140.8420 C   0  0  0  0  0  3  0  0  0  0  0  0
  187.8590  177.6950  147.6000 C   0  0  0  0  0  0  0  0  0  0  0  0
  187.5570  177.6530  148.8230 O   0  0  0  0  0  0  0  0  0  0  0  0
  188.6230  177.6520  144.8140 C   0  0  0  0  0  2  0  0  0  0  0  0
  187.4260  178.2910  140.7060 C   0  0  0  0  0  3  0  0  0  0  0  0
  184.9330  178.6320  144.6720 C   0  0  0  0  0  0  0  0  0  0  0  0
  183.9480  178.9760  143.3460 S   0  0  0  0  0  0  0  0  0  0  0  0
  189.2080  177.4490  147.1990 N   0  0  0  0  0  0  0  0  0  0  0  0
  187.5170  178.1660  142.1010 C   0  0  0  0  0  3  0  0  0  0  0  0
  189.5870  177.4450  145.9550 C   0  0  0  0  0  0  0  0  0  0  0  0
  186.8430  178.0090  146.5870 C   0  0  0  0  0  0  0  0  0  0  0  0
  191.3020  177.1290  145.5730 S   0  0  0  0  0  0  0  0  0  0  0  0
  191.0910  177.6560  143.8450 C   0  0  0  0  0  2  0  0  0  0  0  0
  191.4790  176.5330  142.8970 C   0  0  1  0  0  3  0  0  0  0  0  0
  190.6440  175.2940  143.1690 C   0  0  0  0  0  1  0  0  0  0  0  0
  191.3080  176.9700  141.4800 C   0  0  0  0  0  0  0  0  0  0  0  0
  190.3250  176.3820  140.6960 O   0  0  0  0  0  0  0  0  0  0  0  0
  192.0460  177.8660  140.9890 O   0  0  0  0  0  1  0  0  0  0  0  0
  1 13  1  0  0  0  0
  1  2  2  0  0  0  0
  2 18  1  0  0  0  0
  3  6  1  0  0  0  0
  4  1  1  0  0  0  0
  5 12  2  0  0  0  0
  5  8  1  0  0  0  0
  7  4  1  0  0  0  0
  7 14  1  0  0  0  0
  8  7  2  0  0  0  0
  9 10  2  0  0  0  0
 11  2  1  0  0  0  0
 11 17  1  0  0  0  0
 12 16  1  0  0  0  0
 13  3  2  0  0  0  0
 14 13  1  0  0  0  0
 15  9  1  0  0  0  0
 16  4  2  0  0  0  0
 17 15  2  0  0  0  0
 18  6  2  0  0  0  0
 18  9  1  0  0  0  0
 19 17  1  0  0  0  0
 20 19  1  0  0  0  0
 21 22  1  1  0  0  0
 21 20  1  0  0  0  0
 23 21  1  0  0  0  0
 24 23  2  0  0  0  0
 25 23  1  0  0  0  0
M  END
>  <MODEL>
5

>  <REMARK>
 VINA RESULT:      -9.2      2.278      3.308
  Name = 
  4 active torsions:
  status: ('A' for Active; 'I' for Inactive)
    1  A    between atoms: C_2  and  C_21
    2  A    between atoms: S_6  and  C_15
    3  A    between atoms: S_6  and  C_23
    4  A    between atoms: C_15  and  C_21
                            x       y       z     vdW  Elec       q    Type
                         _______ _______ _______ _____ _____    ______ ____

>  <TORSDO>
F 4

$$$$
=
 OpenBabel11052412463D

 25 28  0  0  1  0  0  0  0  0999 V2000
  185.7370  178.4720  142.6960 C   0  0  0  0  0  0  0  0  0  0  0  0
  186.0860  178.2810  144.0490 C   0  0  0  0  0  0  0  0  0  0  0  0
  183.4250  178.9580  143.3130 C   0  0  0  0  0  3  0  0  0  0  0  0
  186.5580  178.3730  141.5560 C   0  0  0  0  0  0  0  0  0  0  0  0
  187.8410  178.2750  139.1130 N   0  0  0  0  0  0  0  0  0  0  0  0
  183.7630  178.7700  144.6570 C   0  0  0  0  0  3  0  0  0  0  0  0
  185.8710  178.6280  140.3740 C   0  0  0  0  0  0  0  0  0  0  0  0
  186.5120  178.5790  139.1420 C   0  0  0  0  0  3  0  0  0  0  0  0
  185.4310  178.2550  146.4430 C   0  0  0  0  0  0  0  0  0  0  0  0
  184.5550  178.3550  147.3430 O   0  0  0  0  0  0  0  0  0  0  0  0
  187.4880  177.8880  144.4460 C   0  0  0  0  0  2  0  0  0  0  0  0
  188.5480  178.0190  140.2540 C   0  0  0  0  0  3  0  0  0  0  0  0
  184.4230  178.8050  142.3570 C   0  0  0  0  0  0  0  0  0  0  0  0
  184.2550  178.9780  140.6880 S   0  0  0  0  0  0  0  0  0  0  0  0
  186.7850  177.9770  146.8060 N   0  0  0  0  0  0  0  0  0  0  0  0
  187.9200  178.0630  141.5090 C   0  0  0  0  0  3  0  0  0  0  0  0
  187.7360  177.8280  145.9330 C   0  0  0  0  0  0  0  0  0  0  0  0
  185.0790  178.4350  145.0290 C   0  0  0  0  0  0  0  0  0  0  0  0
  189.3930  177.4860  146.5040 S   0  0  0  0  0  0  0  0  0  0  0  0
  190.1390  178.2510  145.0320 C   0  0  0  0  0  2  0  0  0  0  0  0
  191.3650  177.4690  144.5930 C   0  0  1  0  0  3  0  0  0  0  0  0
  191.6810  176.3670  145.5900 C   0  0  0  0  0  1  0  0  0  0  0  0
  191.1500  176.8890  143.2340 C   0  0  0  0  0  0  0  0  0  0  0  0
  190.4130  175.7210  143.0970 O   0  0  0  0  0  1  0  0  0  0  0  0
  191.6300  177.4490  142.2120 O   0  0  0  0  0  0  0  0  0  0  0  0
  1  2  2  0  0  0  0
  2 11  1  0  0  0  0
  2 18  1  0  0  0  0
  3  6  1  0  0  0  0
  4  1  1  0  0  0  0
  5  8  2  0  0  0  0
  5 12  1  0  0  0  0
  6 18  2  0  0  0  0
  7 14  1  0  0  0  0
  7  4  2  0  0  0  0
  8  7  1  0  0  0  0
  9 15  1  0  0  0  0
  9 10  2  0  0  0  0
 11 17  1  0  0  0  0
 12 16  2  0  0  0  0
 13  1  1  0  0  0  0
 13  3  2  0  0  0  0
 14 13  1  0  0  0  0
 16  4  1  0  0  0  0
 17 19  1  0  0  0  0
 17 15  2  0  0  0  0
 18  9  1  0  0  0  0
 20 19  1  0  0  0  0
 21 20  1  0  0  0  0
 21 22  1  1  0  0  0
 23 21  1  0  0  0  0
 24 23  1  0  0  0  0
 25 23  2  0  0  0  0
M  END
>  <MODEL>
6

>  <REMARK>
 VINA RESULT:      -9.1      3.071      5.050
  Name = 
  4 active torsions:
  status: ('A' for Active; 'I' for Inactive)
    1  A    between atoms: C_2  and  C_21
    2  A    between atoms: S_6  and  C_15
    3  A    between atoms: S_6  and  C_23
    4  A    between atoms: C_15  and  C_21
                            x       y       z     vdW  Elec       q    Type
                         _______ _______ _______ _____ _____    ______ ____

>  <TORSDO>
F 4

$$$$
=
 OpenBabel11052412463D

 25 28  0  0  1  0  0  0  0  0999 V2000
  187.9860  177.7080  145.4460 C   0  0  0  0  0  0  0  0  0  0  0  0
  186.8220  178.0900  144.7460 C   0  0  0  0  0  0  0  0  0  0  0  0
  186.8710  178.0660  147.5880 C   0  0  0  0  0  3  0  0  0  0  0  0
  189.2300  177.3040  144.9230 C   0  0  0  0  0  0  0  0  0  0  0  0
  191.7830  176.4720  144.2810 N   0  0  0  0  0  0  0  0  0  0  0  0
  185.7130  178.4460  146.9020 C   0  0  0  0  0  3  0  0  0  0  0  0
  190.1560  176.9990  145.9150 C   0  0  0  0  0  0  0  0  0  0  0  0
  191.4420  176.5800  145.5960 C   0  0  0  0  0  3  0  0  0  0  0  0
  184.4580  178.8460  144.7800 C   0  0  0  0  0  0  0  0  0  0  0  0
  183.4310  179.2100  145.4120 O   0  0  0  0  0  0  0  0  0  0  0  0
  186.7970  178.1400  143.2380 C   0  0  0  0  0  2  0  0  0  0  0  0
  190.8990  176.7630  143.2800 C   0  0  0  0  0  3  0  0  0  0  0  0
  187.9870  177.7030  146.8420 C   0  0  0  0  0  0  0  0  0  0  0  0
  189.4850  177.2130  147.4430 S   0  0  0  0  0  0  0  0  0  0  0  0
  184.4250  178.7940  143.3530 N   0  0  0  0  0  0  0  0  0  0  0  0
  189.5950  177.1880  143.5790 C   0  0  0  0  0  3  0  0  0  0  0  0
  185.4540  178.4600  142.6320 C   0  0  0  0  0  0  0  0  0  0  0  0
  185.6820  178.4610  145.4950 C   0  0  0  0  0  0  0  0  0  0  0  0
  185.2940  178.4270  140.8540 S   0  0  0  0  0  0  0  0  0  0  0  0
  187.0850  178.6320  140.6150 C   0  0  0  0  0  2  0  0  0  0  0  0
  187.5320  177.9400  139.3380 C   0  0  1  0  0  3  0  0  0  0  0  0
  186.5120  178.1490  138.2330 C   0  0  0  0  0  1  0  0  0  0  0  0
  188.8670  178.4530  138.9110 C   0  0  0  0  0  0  0  0  0  0  0  0
  190.0190  177.9100  139.4660 O   0  0  0  0  0  1  0  0  0  0  0  0
  188.9600  179.3720  138.0540 O   0  0  0  0  0  0  0  0  0  0  0  0
  1 13  1  0  0  0  0
  2  1  2  0  0  0  0
  2 18  1  0  0  0  0
  4  1  1  0  0  0  0
  4  7  1  0  0  0  0
  5  8  1  0  0  0  0
  6  3  1  0  0  0  0
  7 14  1  0  0  0  0
  8  7  2  0  0  0  0
  9 10  2  0  0  0  0
  9 18  1  0  0  0  0
 11  2  1  0  0  0  0
 12 16  1  0  0  0  0
 12  5  2  0  0  0  0
 13 14  1  0  0  0  0
 13  3  2  0  0  0  0
 15  9  1  0  0  0  0
 16  4  2  0  0  0  0
 17 11  1  0  0  0  0
 17 15  2  0  0  0  0
 18  6  2  0  0  0  0
 19 17  1  0  0  0  0
 20 19  1  0  0  0  0
 21 22  1  6  0  0  0
 21 20  1  0  0  0  0
 23 21  1  0  0  0  0
 23 24  1  0  0  0  0
 25 23  2  0  0  0  0
M  END
>  <MODEL>
7

>  <REMARK>
 VINA RESULT:      -9.1      2.379      4.775
  Name = 
  4 active torsions:
  status: ('A' for Active; 'I' for Inactive)
    1  A    between atoms: C_2  and  C_21
    2  A    between atoms: S_6  and  C_15
    3  A    between atoms: S_6  and  C_23
    4  A    between atoms: C_15  and  C_21
                            x       y       z     vdW  Elec       q    Type
                         _______ _______ _______ _____ _____    ______ ____

>  <TORSDO>
F 4

$$$$
=
 OpenBabel11052412463D

 25 28  0  0  1  0  0  0  0  0999 V2000
  186.3690  178.2930  144.6790 C   0  0  0  0  0  0  0  0  0  0  0  0
  186.4970  178.4260  143.2800 C   0  0  0  0  0  0  0  0  0  0  0  0
  184.0410  179.0200  144.5830 C   0  0  0  0  0  3  0  0  0  0  0  0
  187.3410  177.8820  145.6130 C   0  0  0  0  0  0  0  0  0  0  0  0
  188.9580  177.1270  147.7190 N   0  0  0  0  0  0  0  0  0  0  0  0
  184.1590  179.1540  143.1950 C   0  0  0  0  0  3  0  0  0  0  0  0
  186.8600  177.8700  146.9180 C   0  0  0  0  0  0  0  0  0  0  0  0
  187.6710  177.4900  147.9810 C   0  0  0  0  0  3  0  0  0  0  0  0
  185.4850  178.9900  141.0850 C   0  0  0  0  0  0  0  0  0  0  0  0
  184.5140  179.4020  140.3980 O   0  0  0  0  0  0  0  0  0  0  0  0
  187.8070  178.1470  142.5850 C   0  0  0  0  0  2  0  0  0  0  0  0
  189.4640  177.1260  146.4500 C   0  0  0  0  0  3  0  0  0  0  0  0
  185.1530  178.5900  145.2970 C   0  0  0  0  0  0  0  0  0  0  0  0
  185.2500  178.3570  146.9650 S   0  0  0  0  0  0  0  0  0  0  0  0
  186.7050  178.6280  140.4350 N   0  0  0  0  0  0  0  0  0  0  0  0
  188.6630  177.5060  145.3610 C   0  0  0  0  0  3  0  0  0  0  0  0
  187.7590  178.2250  141.0800 C   0  0  0  0  0  0  0  0  0  0  0  0
  185.3720  178.8620  142.5440 C   0  0  0  0  0  0  0  0  0  0  0  0
  189.2280  177.7970  140.1600 S   0  0  0  0  0  0  0  0  0  0  0  0
  189.7350  176.5650  141.3980 C   0  0  0  0  0  2  0  0  0  0  0  0
  191.2280  176.6630  141.6630 C   0  0  1  0  0  3  0  0  0  0  0  0
  191.9050  177.5030  140.5940 C   0  0  0  0  0  1  0  0  0  0  0  0
  191.4760  177.2500  143.0130 C   0  0  0  0  0  0  0  0  0  0  0  0
  191.3070  178.6140  143.2090 O   0  0  0  0  0  0  0  0  0  0  0  0
  191.8360  176.5210  143.9760 O   0  0  0  0  0  1  0  0  0  0  0  0
  1 13  2  0  0  0  0
  1  4  1  0  0  0  0
  2  1  1  0  0  0  0
  3 13  1  0  0  0  0
  4  7  1  0  0  0  0
  5  8  1  0  0  0  0
  6  3  2  0  0  0  0
  7 14  1  0  0  0  0
  7  8  2  0  0  0  0
  9 18  1  0  0  0  0
 10  9  2  0  0  0  0
 11  2  1  0  0  0  0
 12  5  2  0  0  0  0
 13 14  1  0  0  0  0
 15 17  2  0  0  0  0
 15  9  1  0  0  0  0
 16  4  2  0  0  0  0
 16 12  1  0  0  0  0
 17 11  1  0  0  0  0
 18  6  1  0  0  0  0
 18  2  2  0  0  0  0
 19 17  1  0  0  0  0
 19 20  1  0  0  0  0
 20 21  1  0  0  0  0
 21 22  1  6  0  0  0
 21 23  1  0  0  0  0
 23 24  2  0  0  0  0
 23 25  1  0  0  0  0
M  END
>  <MODEL>
8

>  <REMARK>
 VINA RESULT:      -9.0      2.084      4.877
  Name = 
  4 active torsions:
  status: ('A' for Active; 'I' for Inactive)
    1  A    between atoms: C_2  and  C_21
    2  A    between atoms: S_6  and  C_15
    3  A    between atoms: S_6  and  C_23
    4  A    between atoms: C_15  and  C_21
                            x       y       z     vdW  Elec       q    Type
                         _______ _______ _______ _____ _____    ______ ____

>  <TORSDO>
F 4

$$$$
=
 OpenBabel11052412463D

 25 28  0  0  1  0  0  0  0  0999 V2000
  187.0650  177.8790  144.6410 C   0  0  0  0  0  0  0  0  0  0  0  0
  188.1660  177.5000  143.8430 C   0  0  0  0  0  0  0  0  0  0  0  0
  188.3550  177.5050  146.6800 C   0  0  0  0  0  3  0  0  0  0  0  0
  185.7820  178.2870  144.2280 C   0  0  0  0  0  0  0  0  0  0  0  0
  183.1850  179.1250  143.8080 N   0  0  0  0  0  0  0  0  0  0  0  0
  189.4510  177.1290  145.8960 C   0  0  0  0  0  3  0  0  0  0  0  0
  184.9430  178.5850  145.2950 C   0  0  0  0  0  0  0  0  0  0  0  0
  183.6350  179.0070  145.0890 C   0  0  0  0  0  3  0  0  0  0  0  0
  190.5230  176.7430  143.6730 C   0  0  0  0  0  0  0  0  0  0  0  0
  191.5990  176.3740  144.2140 O   0  0  0  0  0  0  0  0  0  0  0  0
  188.0630  177.4610  142.3380 C   0  0  0  0  0  2  0  0  0  0  0  0
  183.9810  178.8410  142.7340 C   0  0  0  0  0  3  0  0  0  0  0  0
  187.1820  177.8740  146.0330 C   0  0  0  0  0  0  0  0  0  0  0  0
  185.7400  178.3610  146.7610 S   0  0  0  0  0  0  0  0  0  0  0  0
  190.4360  176.8040  142.2480 N   0  0  0  0  0  0  0  0  0  0  0  0
  185.3060  178.4130  142.9190 C   0  0  0  0  0  3  0  0  0  0  0  0
  189.3510  177.1450  141.6190 C   0  0  0  0  0  0  0  0  0  0  0  0
  189.3640  177.1240  144.4900 C   0  0  0  0  0  0  0  0  0  0  0  0
  189.3610  177.1900  139.8350 S   0  0  0  0  0  0  0  0  0  0  0  0
  191.1770  177.1250  139.7690 C   0  0  0  0  0  2  0  0  0  0  0  0
  191.6360  176.3370  138.5530 C   0  0  1  0  0  3  0  0  0  0  0  0
  190.8500  176.7520  137.3220 C   0  0  0  0  0  1  0  0  0  0  0  0
  193.0970  176.5410  138.3260 C   0  0  0  0  0  0  0  0  0  0  0  0
  193.9300  176.7990  139.4060 O   0  0  0  0  0  1  0  0  0  0  0  0
  193.5820  176.4810  137.1640 O   0  0  0  0  0  0  0  0  0  0  0  0
  1 13  2  0  0  0  0
  2 18  2  0  0  0  0
  2  1  1  0  0  0  0
  4  1  1  0  0  0  0
  4  7  1  0  0  0  0
  5  8  1  0  0  0  0
  6  3  2  0  0  0  0
  7 14  1  0  0  0  0
  8  7  2  0  0  0  0
  9 10  2  0  0  0  0
  9 18  1  0  0  0  0
 11  2  1  0  0  0  0
 12 16  1  0  0  0  0
 12  5  2  0  0  0  0
 13  3  1  0  0  0  0
 13 14  1  0  0  0  0
 15  9  1  0  0  0  0
 16  4  2  0  0  0  0
 17 15  2  0  0  0  0
 17 11  1  0  0  0  0
 18  6  1  0  0  0  0
 19 17  1  0  0  0  0
 20 19  1  0  0  0  0
 21 22  1  6  0  0  0
 21 20  1  0  0  0  0
 23 21  1  0  0  0  0
 23 24  1  0  0  0  0
 25 23  2  0  0  0  0
M  END
>  <MODEL>
9

>  <REMARK>
 VINA RESULT:      -8.9      2.165      2.645
  Name = 
  4 active torsions:
  status: ('A' for Active; 'I' for Inactive)
    1  A    between atoms: C_2  and  C_21
    2  A    between atoms: S_6  and  C_15
    3  A    between atoms: S_6  and  C_23
    4  A    between atoms: C_15  and  C_21
                            x       y       z     vdW  Elec       q    Type
                         _______ _______ _______ _____ _____    ______ ____

>  <TORSDO>
F 4

$$$$
