=
 OpenBabel11052415313D

 37 45  0  0  1  0  0  0  0  0999 V2000
  185.4140  178.9340  145.5800 C   0  0  2  0  0  0  0  0  0  0  0  0
  191.5640  177.1360  147.2300 O   0  0  0  0  0  0  0  0  0  0  0  0
  189.6840  177.1780  143.1980 C   0  0  2  0  0  0  0  0  0  0  0  0
  186.9280  178.3990  140.8840 C   0  0  0  0  0  3  0  0  0  0  0  0
  190.1530  177.6920  145.3840 C   0  0  2  0  0  3  0  0  0  0  0  0
  188.4840  177.9110  142.6910 C   0  0  1  0  0  3  0  0  0  0  0  0
  185.8000  179.9600  146.4430 O   0  0  0  0  0  1  0  0  0  0  0  0
  189.4180  176.6590  144.5870 C   0  0  1  0  0  3  0  0  0  0  0  0
  188.1910  177.6390  141.2450 C   0  0  2  0  0  3  0  0  0  0  0  0
  191.3050  177.9930  144.6610 O   0  0  0  0  0  0  0  0  0  0  0  0
  187.8840  176.7590  144.7830 C   0  0  1  0  0  3  0  0  0  0  0  0
  187.9750  176.7330  147.2730 C   0  0  0  0  0  2  0  0  0  0  0  0
  192.0200  177.9740  142.4790 C   0  0  0  0  0  2  0  0  0  0  0  0
  185.9460  177.6080  146.1460 C   0  0  0  0  0  2  0  0  0  0  0  0
  190.8230  178.1750  143.3480 C   0  0  2  0  0  0  0  0  0  0  0  0
  187.4630  177.5140  146.0610 C   0  0  2  0  0  3  0  0  0  0  0  0
  185.9330  178.5560  141.7950 C   0  0  0  0  0  3  0  0  0  0  0  0
  190.9500  176.9250  142.3900 C   0  0  2  0  0  0  0  0  0  0  0  0
  187.3490  177.2930  143.4460 C   0  0  1  0  0  3  0  0  0  0  0  0
  190.3880  177.2640  146.7950 C   0  0  0  0  0  0  0  0  0  0  0  0
  189.4450  177.9640  140.4410 C   0  0  1  0  0  3  0  0  0  0  0  0
  189.3060  177.0910  147.6700 O   0  0  0  0  0  0  0  0  0  0  0  0
  186.0370  178.0690  143.2430 C   0  0  1  0  0  3  0  0  0  0  0  0
  185.9640  179.2690  144.1830 C   0  0  0  0  0  2  0  0  0  0  0  0
  190.5780  177.0040  140.8820 C   0  0  0  0  0  2  0  0  0  0  0  0
  189.1060  178.9700  138.1440 C   0  0  0  0  0  3  0  0  0  0  0  0
  189.2020  177.8360  138.9670 C   0  0  0  0  0  0  0  0  0  0  0  0
  189.1120  176.5600  138.3970 C   0  0  0  0  0  3  0  0  0  0  0  0
  188.8260  175.1800  136.4730 F   0  0  0  0  0  0  0  0  0  0  0  0
  188.8080  177.5490  136.2070 C   0  0  0  0  0  3  0  0  0  0  0  0
  188.9120  176.4160  137.0200 C   0  0  0  0  0  0  0  0  0  0  0  0
  188.9040  178.8260  136.7690 C   0  0  0  0  0  3  0  0  0  0  0  0
  183.8820  178.9110  145.5580 C   0  0  0  0  0  2  0  0  0  0  0  0
  183.2810  179.5890  144.3350 C   0  0  0  0  0  2  0  0  0  0  0  0
  182.1250  178.7630  143.8150 C   0  0  0  0  0  2  0  0  0  0  0  0
  182.1720  178.7180  142.3540 C   0  0  0  0  0  0  0  0  0  0  0  0
  182.2150  178.6840  141.1490 C   0  0  0  0  0  3  0  0  0  0  0  0
  1 14  1  0  0  0  0
  1  7  1  1  0  0  0
  3 15  1  0  0  0  0
  3  8  1  0  0  0  0
  4  9  1  0  0  0  0
  4 17  2  0  0  0  0
  5 20  1  0  0  0  0
  6  3  1  0  0  0  0
  6 19  1  0  0  0  0
  8 11  1  0  0  0  0
  8  5  1  0  0  0  0
  9  6  1  0  0  0  0
 10  5  1  0  0  0  0
 11 16  1  0  0  0  0
 12 22  1  0  0  0  0
 13 15  1  0  0  0  0
 15 10  1  0  0  0  0
 16 14  1  0  0  0  0
 16 12  1  0  0  0  0
 17 23  1  0  0  0  0
 18 13  1  0  0  0  0
 18  3  1  0  0  0  0
 18 15  1  0  0  0  0
 19 11  1  0  0  0  0
 20  2  2  0  0  0  0
 20 22  1  0  0  0  0
 21 25  1  0  0  0  0
 21  9  1  0  0  0  0
 23 19  1  0  0  0  0
 23 24  1  0  0  0  0
 24  1  1  0  0  0  0
 25 18  1  0  0  0  0
 26 27  1  0  0  0  0
 27 21  1  0  0  0  0
 28 27  2  0  0  0  0
 29 31  1  0  0  0  0
 30 32  1  0  0  0  0
 30 31  2  0  0  0  0
 31 28  1  0  0  0  0
 32 26  2  0  0  0  0
 33  1  1  0  0  0  0
 34 33  1  0  0  0  0
 35 34  1  0  0  0  0
 36 35  1  0  0  0  0
 37 36  3  0  0  0  0
M  END
>  <MODEL>
1

>  <REMARK>
 VINA RESULT:     -10.6      0.000      0.000
  Name = 
  5 active torsions:
  status: ('A' for Active; 'I' for Inactive)
    1  A    between atoms: C_1  and  C_5
    2  A    between atoms: C_5  and  C_17
    3  A    between atoms: C_6  and  C_31
    4  A    between atoms: C_11  and  C_26
    5  A    between atoms: C_17  and  C_26
                            x       y       z     vdW  Elec       q    Type
                         _______ _______ _______ _____ _____    ______ ____

>  <TORSDO>
F 5

$$$$
=
 OpenBabel11052415313D

 37 45  0  0  1  0  0  0  0  0999 V2000
  184.6230  179.3960  143.5830 C   0  0  2  0  0  0  0  0  0  0  0  0
  188.9600  178.0510  148.3960 O   0  0  0  0  0  0  0  0  0  0  0  0
  189.3440  177.2740  144.0330 C   0  0  2  0  0  0  0  0  0  0  0  0
  188.2190  177.9770  140.4720 C   0  0  0  0  0  3  0  0  0  0  0  0
  188.7070  178.2130  146.0260 C   0  0  2  0  0  3  0  0  0  0  0  0
  188.6230  177.8750  142.8700 C   0  0  1  0  0  3  0  0  0  0  0  0
  184.6160  180.5770  144.3260 O   0  0  0  0  0  1  0  0  0  0  0  0
  188.3800  177.0330  145.1640 C   0  0  1  0  0  3  0  0  0  0  0  0
  189.0650  177.3210  141.5480 C   0  0  2  0  0  3  0  0  0  0  0  0
  190.0870  178.3850  145.9420 O   0  0  0  0  0  0  0  0  0  0  0  0
  186.9670  177.1460  144.5390 C   0  0  1  0  0  3  0  0  0  0  0  0
  185.8050  177.6090  146.6950 C   0  0  0  0  0  2  0  0  0  0  0  0
  191.7870  177.9500  144.4620 C   0  0  0  0  0  2  0  0  0  0  0  0
  184.6880  178.2150  144.5650 C   0  0  0  0  0  2  0  0  0  0  0  0
  190.3380  178.2990  144.5570 C   0  0  2  0  0  0  0  0  0  0  0  0
  186.0320  178.1290  145.2740 C   0  0  2  0  0  3  0  0  0  0  0  0
  186.9210  178.2930  140.7120 C   0  0  0  0  0  3  0  0  0  0  0  0
  190.8180  176.8880  144.0330 C   0  0  2  0  0  0  0  0  0  0  0  0
  187.2150  177.3990  143.0450 C   0  0  1  0  0  3  0  0  0  0  0  0
  188.1720  178.0730  147.4130 C   0  0  0  0  0  0  0  0  0  0  0  0
  190.5750  177.5020  141.4430 C   0  0  1  0  0  3  0  0  0  0  0  0
  186.7880  178.0580  147.6380 O   0  0  0  0  0  0  0  0  0  0  0  0
  186.2490  178.1010  142.0750 C   0  0  1  0  0  3  0  0  0  0  0  0
  185.8210  179.4600  142.6200 C   0  0  0  0  0  2  0  0  0  0  0  0
  191.2530  176.6640  142.5560 C   0  0  0  0  0  2  0  0  0  0  0  0
  192.4420  177.2330  139.7550 C   0  0  0  0  0  3  0  0  0  0  0  0
  191.0880  177.0840  140.0960 C   0  0  0  0  0  0  0  0  0  0  0  0
  190.2050  176.4980  139.1810 C   0  0  0  0  0  3  0  0  0  0  0  0
  189.8090  175.5090  137.0480 F   0  0  0  0  0  0  0  0  0  0  0  0
  192.0140  176.2360  137.5920 C   0  0  0  0  0  3  0  0  0  0  0  0
  190.6660  176.0770  137.9300 C   0  0  0  0  0  0  0  0  0  0  0  0
  192.9010  176.8140  138.5040 C   0  0  0  0  0  3  0  0  0  0  0  0
  183.3100  179.3450  142.7970 C   0  0  0  0  0  2  0  0  0  0  0  0
  182.1140  178.9150  143.6350 C   0  0  0  0  0  2  0  0  0  0  0  0
  180.8380  179.1620  142.8610 C   0  0  0  0  0  2  0  0  0  0  0  0
  180.9030  178.4670  141.5760 C   0  0  0  0  0  0  0  0  0  0  0  0
  180.9590  177.8970  140.5140 C   0  0  0  0  0  3  0  0  0  0  0  0
  1  7  1  1  0  0  0
  1 14  1  0  0  0  0
  3 15  1  0  0  0  0
  3  8  1  0  0  0  0
  4 17  2  0  0  0  0
  4  9  1  0  0  0  0
  5 20  1  0  0  0  0
  6 19  1  0  0  0  0
  6  3  1  0  0  0  0
  8  5  1  0  0  0  0
  9  6  1  0  0  0  0
 10  5  1  0  0  0  0
 11  8  1  0  0  0  0
 11 16  1  0  0  0  0
 12 22  1  0  0  0  0
 13 15  1  0  0  0  0
 14 16  1  0  0  0  0
 15 10  1  0  0  0  0
 16 12  1  0  0  0  0
 17 23  1  0  0  0  0
 18  3  1  0  0  0  0
 18 13  1  0  0  0  0
 18 15  1  0  0  0  0
 19 11  1  0  0  0  0
 20 22  1  0  0  0  0
 20  2  2  0  0  0  0
 21  9  1  0  0  0  0
 21 25  1  0  0  0  0
 23 24  1  0  0  0  0
 23 19  1  0  0  0  0
 24  1  1  0  0  0  0
 25 18  1  0  0  0  0
 26 27  1  0  0  0  0
 27 21  1  0  0  0  0
 28 27  2  0  0  0  0
 29 31  1  0  0  0  0
 30 31  2  0  0  0  0
 30 32  1  0  0  0  0
 31 28  1  0  0  0  0
 32 26  2  0  0  0  0
 33  1  1  0  0  0  0
 33 34  1  0  0  0  0
 35 34  1  0  0  0  0
 36 35  1  0  0  0  0
 37 36  3  0  0  0  0
M  END
>  <MODEL>
2

>  <REMARK>
 VINA RESULT:      -8.9      1.525      2.106
  Name = 
  5 active torsions:
  status: ('A' for Active; 'I' for Inactive)
    1  A    between atoms: C_1  and  C_5
    2  A    between atoms: C_5  and  C_17
    3  A    between atoms: C_6  and  C_31
    4  A    between atoms: C_11  and  C_26
    5  A    between atoms: C_17  and  C_26
                            x       y       z     vdW  Elec       q    Type
                         _______ _______ _______ _____ _____    ______ ____

>  <TORSDO>
F 5

$$$$
=
 OpenBabel11052415313D

 37 45  0  0  1  0  0  0  0  0999 V2000
  183.6810  177.9840  139.5410 C   0  0  2  0  0  0  0  0  0  0  0  0
  189.8790  176.9460  137.4690 O   0  0  0  0  0  0  0  0  0  0  0  0
  188.4640  177.9320  141.5690 C   0  0  2  0  0  0  0  0  0  0  0  0
  185.6360  178.1140  144.1000 C   0  0  0  0  0  3  0  0  0  0  0  0
  188.5100  177.1410  139.4170 C   0  0  2  0  0  3  0  0  0  0  0  0
  187.1110  177.8000  142.1910 C   0  0  1  0  0  3  0  0  0  0  0  0
  183.5420  176.8410  138.7520 O   0  0  0  0  0  1  0  0  0  0  0  0
  188.3310  178.4320  140.1550 C   0  0  1  0  0  3  0  0  0  0  0  0
  187.0680  178.2540  143.6190 C   0  0  2  0  0  3  0  0  0  0  0  0
  189.4860  176.4300  140.1110 O   0  0  0  0  0  0  0  0  0  0  0  0
  186.8830  178.9710  140.0370 C   0  0  1  0  0  3  0  0  0  0  0  0
  186.7850  178.8080  137.5520 C   0  0  0  0  0  2  0  0  0  0  0  0
  190.3100  176.2780  142.2490 C   0  0  0  0  0  2  0  0  0  0  0  0
  184.6690  178.9300  138.8390 C   0  0  0  0  0  2  0  0  0  0  0  0
  189.0740  176.5440  141.4550 C   0  0  2  0  0  0  0  0  0  0  0  0
  186.0910  178.3870  138.8480 C   0  0  2  0  0  3  0  0  0  0  0  0
  184.5980  178.3340  143.2520 C   0  0  0  0  0  3  0  0  0  0  0  0
  189.7790  177.6800  142.2950 C   0  0  2  0  0  0  0  0  0  0  0  0
  186.2790  178.7900  141.4370 C   0  0  1  0  0  3  0  0  0  0  0  0
  188.7930  177.3470  137.9650 C   0  0  0  0  0  0  0  0  0  0  0  0
  188.1330  177.4840  144.3910 C   0  0  1  0  0  3  0  0  0  0  0  0
  187.8160  177.9040  137.1280 O   0  0  0  0  0  0  0  0  0  0  0  0
  184.7830  178.6460  141.7640 C   0  0  1  0  0  3  0  0  0  0  0  0
  184.1490  177.5330  140.9350 C   0  0  0  0  0  2  0  0  0  0  0  0
  189.5240  177.8540  143.8200 C   0  0  0  0  0  2  0  0  0  0  0  0
  186.8610  178.0780  146.4970 C   0  0  0  0  0  3  0  0  0  0  0  0
  188.0780  177.7880  145.8590 C   0  0  0  0  0  0  0  0  0  0  0  0
  189.2590  177.7420  146.6110 C   0  0  0  0  0  3  0  0  0  0  0  0
  190.3720  177.9500  148.7090 F   0  0  0  0  0  0  0  0  0  0  0  0
  188.0150  178.2930  148.6140 C   0  0  0  0  0  3  0  0  0  0  0  0
  189.2280  177.9960  147.9850 C   0  0  0  0  0  0  0  0  0  0  0  0
  186.8320  178.3340  147.8710 C   0  0  0  0  0  3  0  0  0  0  0  0
  182.3030  178.6460  139.6290 C   0  0  0  0  0  2  0  0  0  0  0  0
  181.3420  177.9290  140.5660 C   0  0  0  0  0  2  0  0  0  0  0  0
  180.5360  178.9460  141.3420 C   0  0  0  0  0  2  0  0  0  0  0  0
  180.7900  178.7840  142.7730 C   0  0  0  0  0  0  0  0  0  0  0  0
  181.0010  178.6550  143.9540 C   0  0  0  0  0  3  0  0  0  0  0  0
  1  7  1  6  0  0  0
  1 33  1  0  0  0  0
  1 24  1  0  0  0  0
  2 20  2  0  0  0  0
  3  6  1  0  0  0  0
  3 18  1  0  0  0  0
  5 10  1  0  0  0  0
  5  8  1  0  0  0  0
  6  9  1  0  0  0  0
  8  3  1  0  0  0  0
  9  4  1  0  0  0  0
  9 21  1  0  0  0  0
 10 15  1  0  0  0  0
 11  8  1  0  0  0  0
 11 19  1  0  0  0  0
 12 16  1  0  0  0  0
 13 18  1  0  0  0  0
 14 16  1  0  0  0  0
 14  1  1  0  0  0  0
 15  3  1  0  0  0  0
 15 13  1  0  0  0  0
 15 18  1  0  0  0  0
 16 11  1  0  0  0  0
 17  4  2  0  0  0  0
 18 25  1  0  0  0  0
 19 23  1  0  0  0  0
 19  6  1  0  0  0  0
 20  5  1  0  0  0  0
 21 27  1  0  0  0  0
 22 12  1  0  0  0  0
 22 20  1  0  0  0  0
 23 17  1  0  0  0  0
 24 23  1  0  0  0  0
 25 21  1  0  0  0  0
 26 32  1  0  0  0  0
 27 26  2  0  0  0  0
 27 28  1  0  0  0  0
 28 31  2  0  0  0  0
 31 30  1  0  0  0  0
 31 29  1  0  0  0  0
 32 30  2  0  0  0  0
 33 34  1  0  0  0  0
 34 35  1  0  0  0  0
 35 36  1  0  0  0  0
 36 37  3  0  0  0  0
M  END
>  <MODEL>
3

>  <REMARK>
 VINA RESULT:      -8.6      3.513      6.732
  Name = 
  5 active torsions:
  status: ('A' for Active; 'I' for Inactive)
    1  A    between atoms: C_1  and  C_5
    2  A    between atoms: C_5  and  C_17
    3  A    between atoms: C_6  and  C_31
    4  A    between atoms: C_11  and  C_26
    5  A    between atoms: C_17  and  C_26
                            x       y       z     vdW  Elec       q    Type
                         _______ _______ _______ _____ _____    ______ ____

>  <TORSDO>
F 5

$$$$
=
 OpenBabel11052415313D

 37 45  0  0  1  0  0  0  0  0999 V2000
  183.8090  177.9450  139.3830 C   0  0  2  0  0  0  0  0  0  0  0  0
  190.0530  176.8170  137.5060 O   0  0  0  0  0  0  0  0  0  0  0  0
  188.5300  177.8760  141.5490 C   0  0  2  0  0  0  0  0  0  0  0  0
  185.6320  178.1210  143.9950 C   0  0  0  0  0  3  0  0  0  0  0  0
  188.6300  177.0530  139.4110 C   0  0  2  0  0  3  0  0  0  0  0  0
  187.1590  177.7650  142.1330 C   0  0  1  0  0  3  0  0  0  0  0  0
  183.6800  176.7930  138.6070 O   0  0  0  0  0  1  0  0  0  0  0  0
  188.4430  178.3560  140.1250 C   0  0  1  0  0  3  0  0  0  0  0  0
  187.0790  178.2410  143.5540 C   0  0  2  0  0  3  0  0  0  0  0  0
  189.5790  176.3420  140.1420 O   0  0  0  0  0  0  0  0  0  0  0  0
  187.0040  178.9080  139.9580 C   0  0  1  0  0  3  0  0  0  0  0  0
  186.9770  178.7110  137.4740 C   0  0  0  0  0  2  0  0  0  0  0  0
  190.3390  176.2130  142.3050 C   0  0  0  0  0  2  0  0  0  0  0  0
  184.8250  178.8710  138.6980 C   0  0  0  0  0  2  0  0  0  0  0  0
  189.1290  176.4800  141.4720 C   0  0  2  0  0  0  0  0  0  0  0  0
  186.2420  178.3140  138.7550 C   0  0  2  0  0  3  0  0  0  0  0  0
  184.6220  178.3390  143.1140 C   0  0  0  0  0  3  0  0  0  0  0  0
  189.8210  177.6210  142.3160 C   0  0  2  0  0  0  0  0  0  0  0  0
  186.3590  178.7520  141.3430 C   0  0  1  0  0  3  0  0  0  0  0  0
  188.9560  177.2360  137.9650 C   0  0  0  0  0  0  0  0  0  0  0  0
  188.1140  177.4700  144.3670 C   0  0  1  0  0  3  0  0  0  0  0  0
  188.0100  177.7910  137.0920 O   0  0  0  0  0  0  0  0  0  0  0  0
  184.8530  178.6280  141.6280 C   0  0  1  0  0  3  0  0  0  0  0  0
  184.2310  177.5100  140.7970 C   0  0  0  0  0  2  0  0  0  0  0  0
  189.5250  177.8190  143.8300 C   0  0  0  0  0  2  0  0  0  0  0  0
  186.7850  178.0840  146.4310 C   0  0  0  0  0  3  0  0  0  0  0  0
  188.0200  177.7960  145.8280 C   0  0  0  0  0  0  0  0  0  0  0  0
  189.1820  177.7730  146.6090 C   0  0  0  0  0  3  0  0  0  0  0  0
  190.2400  178.0220  148.7310 F   0  0  0  0  0  0  0  0  0  0  0  0
  187.8830  178.3420  148.5730 C   0  0  0  0  0  3  0  0  0  0  0  0
  189.1150  178.0470  147.9790 C   0  0  0  0  0  0  0  0  0  0  0  0
  186.7190  178.3600  147.8000 C   0  0  0  0  0  3  0  0  0  0  0  0
  182.4350  178.6220  139.4230 C   0  0  0  0  0  2  0  0  0  0  0  0
  182.4050  179.9770  138.7300 C   0  0  0  0  0  2  0  0  0  0  0  0
  181.2380  180.0290  137.7690 C   0  0  0  0  0  2  0  0  0  0  0  0
  179.9870  180.1140  138.5220 C   0  0  0  0  0  0  0  0  0  0  0  0
  178.9530  180.1870  139.1390 C   0  0  0  0  0  3  0  0  0  0  0  0
  1  7  1  6  0  0  0
  1 33  1  0  0  0  0
  1 24  1  0  0  0  0
  2 20  2  0  0  0  0
  3  6  1  0  0  0  0
  3 18  1  0  0  0  0
  5  8  1  0  0  0  0
  5 10  1  0  0  0  0
  6  9  1  0  0  0  0
  8  3  1  0  0  0  0
  9  4  1  0  0  0  0
  9 21  1  0  0  0  0
 10 15  1  0  0  0  0
 11  8  1  0  0  0  0
 11 19  1  0  0  0  0
 12 16  1  0  0  0  0
 13 18  1  0  0  0  0
 14 16  1  0  0  0  0
 14  1  1  0  0  0  0
 15  3  1  0  0  0  0
 15 13  1  0  0  0  0
 15 18  1  0  0  0  0
 16 11  1  0  0  0  0
 17  4  2  0  0  0  0
 18 25  1  0  0  0  0
 19 23  1  0  0  0  0
 19  6  1  0  0  0  0
 20  5  1  0  0  0  0
 21 27  1  0  0  0  0
 22 12  1  0  0  0  0
 22 20  1  0  0  0  0
 23 17  1  0  0  0  0
 24 23  1  0  0  0  0
 25 21  1  0  0  0  0
 26 32  1  0  0  0  0
 27 26  2  0  0  0  0
 27 28  1  0  0  0  0
 28 31  2  0  0  0  0
 31 30  1  0  0  0  0
 31 29  1  0  0  0  0
 32 30  2  0  0  0  0
 34 33  1  0  0  0  0
 35 36  1  0  0  0  0
 35 34  1  0  0  0  0
 36 37  3  0  0  0  0
M  END
>  <MODEL>
4

>  <REMARK>
 VINA RESULT:      -7.8      3.685      6.876
  Name = 
  5 active torsions:
  status: ('A' for Active; 'I' for Inactive)
    1  A    between atoms: C_1  and  C_5
    2  A    between atoms: C_5  and  C_17
    3  A    between atoms: C_6  and  C_31
    4  A    between atoms: C_11  and  C_26
    5  A    between atoms: C_17  and  C_26
                            x       y       z     vdW  Elec       q    Type
                         _______ _______ _______ _____ _____    ______ ____

>  <TORSDO>
F 5

$$$$
=
 OpenBabel11052415313D

 37 45  0  0  1  0  0  0  0  0999 V2000
  189.2110  177.5200  141.8540 C   0  0  2  0  0  0  0  0  0  0  0  0
  185.5510  176.4850  136.4390 O   0  0  0  0  0  0  0  0  0  0  0  0
  189.9820  176.6760  136.7860 C   0  0  2  0  0  0  0  0  0  0  0  0
  193.1060  176.5260  138.9440 C   0  0  0  0  0  3  0  0  0  0  0  0
  187.7720  176.3620  137.3120 C   0  0  2  0  0  3  0  0  0  0  0  0
  190.8740  176.5160  137.9750 C   0  0  1  0  0  3  0  0  0  0  0  0
  188.2770  176.5860  142.3030 O   0  0  0  0  0  1  0  0  0  0  0  0
  188.7620  177.4750  137.1640 C   0  0  1  0  0  3  0  0  0  0  0  0
  192.3300  176.6570  137.6460 C   0  0  2  0  0  3  0  0  0  0  0  0
  188.0620  175.4470  136.3020 O   0  0  0  0  0  0  0  0  0  0  0  0
  189.1010  178.1340  138.5250 C   0  0  1  0  0  3  0  0  0  0  0  0
  186.7280  178.5140  139.1860 C   0  0  0  0  0  2  0  0  0  0  0  0
  189.8700  174.7800  135.0540 C   0  0  0  0  0  2  0  0  0  0  0  0
  188.4860  178.5170  140.9360 C   0  0  0  0  0  2  0  0  0  0  0  0
  189.4630  175.3030  136.3920 C   0  0  2  0  0  0  0  0  0  0  0  0
  188.0490  177.8790  139.6240 C   0  0  2  0  0  3  0  0  0  0  0  0
  192.5900  176.9990  140.1070 C   0  0  0  0  0  3  0  0  0  0  0  0
  190.3080  176.1770  135.3840 C   0  0  2  0  0  0  0  0  0  0  0  0
  190.5450  177.7040  138.8230 C   0  0  1  0  0  3  0  0  0  0  0  0
  186.3610  176.8510  137.3320 C   0  0  0  0  0  0  0  0  0  0  0  0
  192.6620  175.6610  136.5410 C   0  0  1  0  0  3  0  0  0  0  0  0
  185.9050  177.6460  138.3940 O   0  0  0  0  0  0  0  0  0  0  0  0
  191.1880  177.6070  140.2170 C   0  0  1  0  0  3  0  0  0  0  0  0
  190.3400  176.7480  141.1510 C   0  0  0  0  0  2  0  0  0  0  0  0
  191.8540  176.0390  135.2740 C   0  0  0  0  0  2  0  0  0  0  0  0
  194.9340  174.5470  136.5690 C   0  0  0  0  0  3  0  0  0  0  0  0
  194.1300  175.6490  136.2330 C   0  0  0  0  0  0  0  0  0  0  0  0
  194.6980  176.7400  135.5630 C   0  0  0  0  0  3  0  0  0  0  0  0
  196.6030  177.7950  134.5940 F   0  0  0  0  0  0  0  0  0  0  0  0
  196.8570  175.6420  135.5870 C   0  0  0  0  0  3  0  0  0  0  0  0
  196.0590  176.7380  135.2430 C   0  0  0  0  0  0  0  0  0  0  0  0
  196.2950  174.5470  136.2500 C   0  0  0  0  0  3  0  0  0  0  0  0
  189.7530  178.2500  143.0870 C   0  0  0  0  0  2  0  0  0  0  0  0
  190.0540  177.3260  144.2580 C   0  0  0  0  0  2  0  0  0  0  0  0
  189.4380  177.8900  145.5190 C   0  0  0  0  0  2  0  0  0  0  0  0
  187.9910  177.6800  145.4940 C   0  0  0  0  0  0  0  0  0  0  0  0
  186.7980  177.5030  145.4710 C   0  0  0  0  0  3  0  0  0  0  0  0
  1  7  1  1  0  0  0
  1 33  1  0  0  0  0
  2 20  2  0  0  0  0
  3  8  1  0  0  0  0
  3  6  1  0  0  0  0
  4 17  2  0  0  0  0
  5 20  1  0  0  0  0
  6 19  1  0  0  0  0
  8  5  1  0  0  0  0
  8 11  1  0  0  0  0
  9  6  1  0  0  0  0
  9  4  1  0  0  0  0
 10 15  1  0  0  0  0
 10  5  1  0  0  0  0
 11 19  1  0  0  0  0
 11 16  1  0  0  0  0
 12 16  1  0  0  0  0
 13 18  1  0  0  0  0
 13 15  1  0  0  0  0
 14  1  1  0  0  0  0
 15  3  1  0  0  0  0
 16 14  1  0  0  0  0
 17 23  1  0  0  0  0
 18 15  1  0  0  0  0
 18  3  1  0  0  0  0
 19 23  1  0  0  0  0
 20 22  1  0  0  0  0
 21  9  1  0  0  0  0
 22 12  1  0  0  0  0
 23 24  1  0  0  0  0
 24  1  1  0  0  0  0
 25 18  1  0  0  0  0
 25 21  1  0  0  0  0
 27 21  1  0  0  0  0
 27 26  2  0  0  0  0
 28 27  1  0  0  0  0
 29 31  1  0  0  0  0
 30 32  2  0  0  0  0
 31 28  2  0  0  0  0
 31 30  1  0  0  0  0
 32 26  1  0  0  0  0
 33 34  1  0  0  0  0
 34 35  1  0  0  0  0
 36 35  1  0  0  0  0
 37 36  3  0  0  0  0
M  END
>  <MODEL>
5

>  <REMARK>
 VINA RESULT:      -7.7      4.422      7.359
  Name = 
  5 active torsions:
  status: ('A' for Active; 'I' for Inactive)
    1  A    between atoms: C_1  and  C_5
    2  A    between atoms: C_5  and  C_17
    3  A    between atoms: C_6  and  C_31
    4  A    between atoms: C_11  and  C_26
    5  A    between atoms: C_17  and  C_26
                            x       y       z     vdW  Elec       q    Type
                         _______ _______ _______ _____ _____    ______ ____

>  <TORSDO>
F 5

$$$$
=
 OpenBabel11052415313D

 37 45  0  0  1  0  0  0  0  0999 V2000
  188.2630  178.4810  140.9520 C   0  0  2  0  0  0  0  0  0  0  0  0
  183.3130  179.3760  145.2510 O   0  0  0  0  0  0  0  0  0  0  0  0
  187.3630  177.7010  146.0090 C   0  0  2  0  0  0  0  0  0  0  0  0
  190.9770  177.2540  144.9210 C   0  0  0  0  0  3  0  0  0  0  0  0
  185.6500  178.9080  145.0790 C   0  0  2  0  0  3  0  0  0  0  0  0
  188.6300  177.8220  145.2240 C   0  0  1  0  0  3  0  0  0  0  0  0
  187.8270  179.7680  140.6360 O   0  0  0  0  0  1  0  0  0  0  0  0
  186.1970  177.5150  145.0750 C   0  0  1  0  0  3  0  0  0  0  0  0
  189.7830  177.0910  145.8440 C   0  0  2  0  0  3  0  0  0  0  0  0
  185.7860  179.3750  146.3840 O   0  0  0  0  0  0  0  0  0  0  0  0
  186.8170  177.1390  143.7050 C   0  0  1  0  0  3  0  0  0  0  0  0
  184.8250  177.8130  142.3670 C   0  0  0  0  0  2  0  0  0  0  0  0
  187.1360  179.0160  148.2060 C   0  0  0  0  0  2  0  0  0  0  0  0
  187.0260  177.6150  141.2420 C   0  0  0  0  0  2  0  0  0  0  0  0
  187.1120  179.0250  146.7140 C   0  0  2  0  0  0  0  0  0  0  0  0
  186.3310  178.0200  142.5350 C   0  0  2  0  0  3  0  0  0  0  0  0
  190.8070  177.3030  143.5750 C   0  0  0  0  0  3  0  0  0  0  0  0
  187.2860  177.6850  147.5310 C   0  0  2  0  0  0  0  0  0  0  0  0
  188.3300  177.0820  143.9580 C   0  0  1  0  0  3  0  0  0  0  0  0
  184.2640  178.9790  144.5260 C   0  0  0  0  0  0  0  0  0  0  0  0
  189.9450  177.5920  147.2750 C   0  0  1  0  0  3  0  0  0  0  0  0
  184.0270  178.6910  143.1740 O   0  0  0  0  0  0  0  0  0  0  0  0
  189.4310  177.2860  142.9030 C   0  0  1  0  0  3  0  0  0  0  0  0
  189.2250  178.5950  142.1470 C   0  0  0  0  0  2  0  0  0  0  0  0
  188.6690  177.2270  148.0750 C   0  0  0  0  0  2  0  0  0  0  0  0
  191.6820  175.7680  147.5150 C   0  0  0  0  0  3  0  0  0  0  0  0
  191.1560  177.0010  147.9330 C   0  0  0  0  0  0  0  0  0  0  0  0
  191.7950  177.7140  148.9550 C   0  0  0  0  0  3  0  0  0  0  0  0
  193.5560  177.8870  150.5520 F   0  0  0  0  0  0  0  0  0  0  0  0
  193.4550  175.9610  149.1510 C   0  0  0  0  0  3  0  0  0  0  0  0
  192.9410  177.1940  149.5650 C   0  0  0  0  0  0  0  0  0  0  0  0
  192.8260  175.2480  148.1260 C   0  0  0  0  0  3  0  0  0  0  0  0
  189.0000  177.9370  139.7250 C   0  0  0  0  0  2  0  0  0  0  0  0
  189.0540  178.9180  138.5620 C   0  0  0  0  0  2  0  0  0  0  0  0
  188.4870  178.2650  137.3220 C   0  0  0  0  0  2  0  0  0  0  0  0
  187.0500  178.0500  137.4950 C   0  0  0  0  0  0  0  0  0  0  0  0
  185.8660  177.8700  137.6340 C   0  0  0  0  0  3  0  0  0  0  0  0
  1  7  1  6  0  0  0
  1 14  1  0  0  0  0
  1 24  1  0  0  0  0
  3 15  1  0  0  0  0
  3 18  1  0  0  0  0
  4  9  1  0  0  0  0
  5 10  1  0  0  0  0
  6  9  1  0  0  0  0
  6  3  1  0  0  0  0
  8  5  1  0  0  0  0
  8  3  1  0  0  0  0
  9 21  1  0  0  0  0
 10 15  1  0  0  0  0
 11 19  1  0  0  0  0
 11  8  1  0  0  0  0
 12 16  1  0  0  0  0
 12 22  1  0  0  0  0
 14 16  1  0  0  0  0
 15 18  1  0  0  0  0
 15 13  1  0  0  0  0
 16 11  1  0  0  0  0
 17  4  2  0  0  0  0
 18 25  1  0  0  0  0
 18 13  1  0  0  0  0
 19  6  1  0  0  0  0
 20  5  1  0  0  0  0
 20  2  2  0  0  0  0
 21 27  1  0  0  0  0
 21 25  1  0  0  0  0
 22 20  1  0  0  0  0
 23 17  1  0  0  0  0
 23 19  1  0  0  0  0
 24 23  1  0  0  0  0
 26 27  2  0  0  0  0
 26 32  1  0  0  0  0
 27 28  1  0  0  0  0
 28 31  2  0  0  0  0
 30 31  1  0  0  0  0
 31 29  1  0  0  0  0
 32 30  2  0  0  0  0
 33  1  1  0  0  0  0
 34 33  1  0  0  0  0
 35 36  1  0  0  0  0
 35 34  1  0  0  0  0
 36 37  3  0  0  0  0
M  END
>  <MODEL>
6

>  <REMARK>
 VINA RESULT:      -7.6      3.218      7.523
  Name = 
  5 active torsions:
  status: ('A' for Active; 'I' for Inactive)
    1  A    between atoms: C_1  and  C_5
    2  A    between atoms: C_5  and  C_17
    3  A    between atoms: C_6  and  C_31
    4  A    between atoms: C_11  and  C_26
    5  A    between atoms: C_17  and  C_26
                            x       y       z     vdW  Elec       q    Type
                         _______ _______ _______ _____ _____    ______ ____

>  <TORSDO>
F 5

$$$$
