=
 OpenBabel11052413023D

 31 35  0  0  1  0  0  0  0  0999 V2000
  185.4290  178.2260  145.0800 C   0  0  0  0  0  0  0  0  0  0  0  0
  188.9450  177.7550  143.8480 C   0  0  0  0  0  0  0  0  0  0  0  0
  189.7820  177.5340  145.0770 C   0  0  0  0  0  0  0  0  0  0  0  0
  189.6690  176.7080  147.3980 C   0  0  0  0  0  2  0  0  0  0  0  0
  187.5400  177.9780  143.8780 C   0  0  0  0  0  0  0  0  0  0  0  0
  184.7510  178.4110  143.8760 C   0  0  0  0  0  3  0  0  0  0  0  0
  189.2810  177.8380  146.4580 C   0  0  0  0  0  2  0  0  0  0  0  0
  188.8740  177.8770  141.3960 C   0  0  0  0  0  0  0  0  0  0  0  0
  184.6860  178.2580  146.3660 C   0  0  0  0  0  1  0  0  0  0  0  0
  191.5680  176.8240  143.6780 O   0  0  0  0  0  0  0  0  0  0  0  0
  191.1890  176.5490  147.4520 C   0  0  1  0  0  3  0  0  0  0  0  0
  187.4990  178.1110  141.4460 C   0  0  0  0  0  3  0  0  0  0  0  0
  189.5920  177.6890  142.5880 C   0  0  0  0  0  0  0  0  0  0  0  0
  186.8090  178.0090  145.0770 C   0  0  0  0  0  3  0  0  0  0  0  0
  191.5680  175.4610  146.6420 O   0  0  0  0  0  0  0  0  0  0  0  0
  186.8310  178.1570  142.6620 C   0  0  0  0  0  0  0  0  0  0  0  0
  185.4500  178.3760  142.6700 C   0  0  0  0  0  3  0  0  0  0  0  0
  191.0810  177.5050  142.5240 C   0  0  0  0  0  2  0  0  0  0  0  0
  191.0350  177.0530  144.9480 C   0  0  0  0  0  0  0  0  0  0  0  0
  191.9020  176.7340  146.1440 C   0  0  1  0  0  3  0  0  0  0  0  0
  189.5560  177.8390  140.1350 N   0  0  0  0  0  2  0  0  0  0  0  0
  190.7410  176.0910  138.4910 S   0  0  0  0  0  1  0  0  0  0  0  0
  189.2170  176.9120  139.0590 C   0  0  2  0  0  3  0  0  0  0  0  0
  188.5340  179.0270  138.1420 O   0  0  0  0  0  1  0  0  0  0  0  0
  188.5460  177.6510  137.8920 C   0  0  2  0  0  3  0  0  0  0  0  0
  187.0040  176.4100  136.4340 N   0  0  0  0  0  1  0  0  0  0  0  0
  187.1070  177.1540  137.6780 C   0  0  2  0  0  3  0  0  0  0  0  0
  186.1190  178.3140  137.6240 C   0  0  0  0  0  2  0  0  0  0  0  0
  184.8770  178.0200  138.4500 C   0  0  0  0  0  3  0  0  0  0  0  0
  184.4700  179.2680  139.2030 C   0  0  0  0  0  1  0  0  0  0  0  0
  183.7360  177.5890  137.5490 C   0  0  0  0  0  1  0  0  0  0  0  0
  1  9  1  0  0  0  0
  2  5  1  0  0  0  0
  2  3  1  0  0  0  0
  3  7  1  0  0  0  0
  5 14  2  0  0  0  0
  6  1  2  0  0  0  0
  7  4  1  0  0  0  0
  8 12  2  0  0  0  0
  8 13  1  0  0  0  0
 10 19  1  0  0  0  0
 11  4  1  6  0  0  0
 12 16  1  0  0  0  0
 13  2  2  0  0  0  0
 14  1  1  0  0  0  0
 15 11  1  0  0  0  0
 16 17  2  0  0  0  0
 16  5  1  0  0  0  0
 17  6  1  0  0  0  0
 18 13  1  0  0  0  0
 18 10  1  0  0  0  0
 19  3  2  0  0  0  0
 20 19  1  6  0  0  0
 20 15  1  0  0  0  0
 20 11  1  0  0  0  0
 21  8  1  0  0  0  0
 23 22  1  6  0  0  0
 23 21  1  0  0  0  0
 25 24  1  1  0  0  0
 25 23  1  0  0  0  0
 27 26  1  6  0  0  0
 27 25  1  0  0  0  0
 28 27  1  0  0  0  0
 28 29  1  0  0  0  0
 29 30  1  0  0  0  0
 31 29  1  0  0  0  0
M  END
>  <MODEL>
1

>  <REMARK>
 VINA RESULT:      -9.5      0.000      0.000
  Name = 
  6 active torsions:
  status: ('A' for Active; 'I' for Inactive)
    1  A    between atoms: C_1  and  C_24
    2  A    between atoms: C_9  and  C_22
    3  A    between atoms: C_9  and  N_23
    4  A    between atoms: C_15  and  N_23
    5  A    between atoms: C_19  and  C_22
    6  A    between atoms: C_19  and  C_24
                            x       y       z     vdW  Elec       q    Type
                         _______ _______ _______ _____ _____    ______ ____

>  <TORSDO>
F 6

$$$$
=
 OpenBabel11052413023D

 31 35  0  0  1  0  0  0  0  0999 V2000
  189.9550  177.1440  146.2270 C   0  0  0  0  0  0  0  0  0  0  0  0
  187.7690  177.8700  143.2610 C   0  0  0  0  0  0  0  0  0  0  0  0
  186.3790  178.0380  143.8100 C   0  0  0  0  0  0  0  0  0  0  0  0
  185.1450  178.6820  145.8460 C   0  0  0  0  0  2  0  0  0  0  0  0
  188.9060  177.5800  144.0660 C   0  0  0  0  0  0  0  0  0  0  0  0
  191.2000  177.0180  145.6110 C   0  0  0  0  0  3  0  0  0  0  0  0
  186.0040  177.6090  145.1980 C   0  0  0  0  0  2  0  0  0  0  0  0
  189.2270  177.9280  141.2860 C   0  0  0  0  0  0  0  0  0  0  0  0
  189.8320  176.9810  147.6980 C   0  0  0  0  0  1  0  0  0  0  0  0
  185.7080  178.9330  141.7130 O   0  0  0  0  0  0  0  0  0  0  0  0
  183.8650  178.9070  145.0400 C   0  0  1  0  0  3  0  0  0  0  0  0
  190.3280  177.6270  142.0880 C   0  0  0  0  0  3  0  0  0  0  0  0
  187.9560  178.0600  141.8690 C   0  0  0  0  0  0  0  0  0  0  0  0
  188.8230  177.4250  145.4600 C   0  0  0  0  0  3  0  0  0  0  0  0
  184.0110  180.0700  144.2580 O   0  0  0  0  0  0  0  0  0  0  0  0
  190.1830  177.4590  143.4590 C   0  0  0  0  0  0  0  0  0  0  0  0
  191.3140  177.1760  144.2310 C   0  0  0  0  0  3  0  0  0  0  0  0
  186.7680  178.3180  140.9860 C   0  0  0  0  0  2  0  0  0  0  0  0
  185.4220  178.5850  143.0350 C   0  0  0  0  0  0  0  0  0  0  0  0
  184.0260  178.8540  143.5480 C   0  0  1  0  0  3  0  0  0  0  0  0
  189.3850  178.0930  139.8700 N   0  0  0  0  0  2  0  0  0  0  0  0
  190.8450  176.2950  138.5310 S   0  0  0  0  0  1  0  0  0  0  0  0
  189.2130  177.0110  138.9040 C   0  0  2  0  0  3  0  0  0  0  0  0
  188.3340  178.9050  137.7120 O   0  0  0  0  0  1  0  0  0  0  0  0
  188.5520  177.5270  137.6180 C   0  0  2  0  0  3  0  0  0  0  0  0
  187.3340  175.9160  136.2180 N   0  0  0  0  0  1  0  0  0  0  0  0
  187.2180  176.8110  137.3560 C   0  0  2  0  0  3  0  0  0  0  0  0
  186.0980  177.8060  137.0710 C   0  0  0  0  0  2  0  0  0  0  0  0
  184.7500  177.2650  137.5230 C   0  0  0  0  0  3  0  0  0  0  0  0
  184.1080  178.2530  138.4720 C   0  0  0  0  0  1  0  0  0  0  0  0
  183.8400  177.0580  136.3270 C   0  0  0  0  0  1  0  0  0  0  0  0
  1  9  1  0  0  0  0
  2  3  1  0  0  0  0
  2  5  1  0  0  0  0
  3  7  1  0  0  0  0
  5 14  1  0  0  0  0
  6  1  1  0  0  0  0
  7  4  1  0  0  0  0
  8 13  1  0  0  0  0
  8 12  2  0  0  0  0
 10 19  1  0  0  0  0
 11  4  1  1  0  0  0
 12 16  1  0  0  0  0
 13  2  2  0  0  0  0
 14  1  2  0  0  0  0
 15 11  1  0  0  0  0
 16  5  2  0  0  0  0
 16 17  1  0  0  0  0
 17  6  2  0  0  0  0
 18 10  1  0  0  0  0
 18 13  1  0  0  0  0
 19  3  2  0  0  0  0
 20 19  1  1  0  0  0
 20 15  1  0  0  0  0
 20 11  1  0  0  0  0
 21  8  1  0  0  0  0
 23 22  1  6  0  0  0
 23 21  1  0  0  0  0
 25 24  1  1  0  0  0
 25 23  1  0  0  0  0
 27 26  1  6  0  0  0
 27 25  1  0  0  0  0
 28 27  1  0  0  0  0
 28 29  1  0  0  0  0
 29 30  1  0  0  0  0
 31 29  1  0  0  0  0
M  END
>  <MODEL>
2

>  <REMARK>
 VINA RESULT:      -8.9      2.059      4.227
  Name = 
  6 active torsions:
  status: ('A' for Active; 'I' for Inactive)
    1  A    between atoms: C_1  and  C_24
    2  A    between atoms: C_9  and  C_22
    3  A    between atoms: C_9  and  N_23
    4  A    between atoms: C_15  and  N_23
    5  A    between atoms: C_19  and  C_22
    6  A    between atoms: C_19  and  C_24
                            x       y       z     vdW  Elec       q    Type
                         _______ _______ _______ _____ _____    ______ ____

>  <TORSDO>
F 6

$$$$
=
 OpenBabel11052413023D

 31 35  0  0  1  0  0  0  0  0999 V2000
  189.8000  177.1160  146.0740 C   0  0  0  0  0  0  0  0  0  0  0  0
  187.6040  177.9830  143.1530 C   0  0  0  0  0  0  0  0  0  0  0  0
  186.2130  178.1080  143.7110 C   0  0  0  0  0  0  0  0  0  0  0  0
  184.9750  178.6290  145.7790 C   0  0  0  0  0  2  0  0  0  0  0  0
  188.7450  177.6600  143.9400 C   0  0  0  0  0  0  0  0  0  0  0  0
  191.0450  177.0350  145.4520 C   0  0  0  0  0  3  0  0  0  0  0  0
  185.8430  177.6010  145.0730 C   0  0  0  0  0  2  0  0  0  0  0  0
  189.0600  178.1620  141.1830 C   0  0  0  0  0  0  0  0  0  0  0  0
  189.6790  176.8720  147.5340 C   0  0  0  0  0  1  0  0  0  0  0  0
  185.5320  179.1100  141.6660 O   0  0  0  0  0  0  0  0  0  0  0  0
  183.6920  178.8870  144.9870 C   0  0  1  0  0  3  0  0  0  0  0  0
  190.1640  177.8280  141.9670 C   0  0  0  0  0  3  0  0  0  0  0  0
  187.7880  178.2510  141.7740 C   0  0  0  0  0  0  0  0  0  0  0  0
  188.6640  177.4280  145.3230 C   0  0  0  0  0  3  0  0  0  0  0  0
  183.8280  180.0920  144.2690 O   0  0  0  0  0  0  0  0  0  0  0  0
  190.0220  177.5840  143.3270 C   0  0  0  0  0  0  0  0  0  0  0  0
  191.1560  177.2690  144.0820 C   0  0  0  0  0  3  0  0  0  0  0  0
  186.5980  178.5460  140.9060 C   0  0  0  0  0  2  0  0  0  0  0  0
  185.2510  178.6890  142.9670 C   0  0  0  0  0  0  0  0  0  0  0  0
  183.8530  178.9170  143.4950 C   0  0  1  0  0  3  0  0  0  0  0  0
  189.2160  178.4050  139.7780 N   0  0  0  0  0  2  0  0  0  0  0  0
  190.6260  176.3900  138.7250 S   0  0  0  0  0  1  0  0  0  0  0  0
  189.0900  177.3680  138.7580 C   0  0  2  0  0  3  0  0  0  0  0  0
  188.9740  179.3780  137.4430 O   0  0  0  0  0  1  0  0  0  0  0  0
  188.8260  177.9890  137.3790 C   0  0  2  0  0  3  0  0  0  0  0  0
  186.4400  178.5790  137.4140 N   0  0  0  0  0  1  0  0  0  0  0  0
  187.4140  177.6440  136.8780 C   0  0  2  0  0  3  0  0  0  0  0  0
  187.0040  176.2350  137.2940 C   0  0  0  0  0  2  0  0  0  0  0  0
  187.0920  175.2660  136.1250 C   0  0  0  0  0  3  0  0  0  0  0  0
  187.1330  176.0480  134.8300 C   0  0  0  0  0  1  0  0  0  0  0  0
  188.3480  174.4230  136.2370 C   0  0  0  0  0  1  0  0  0  0  0  0
  1  9  1  0  0  0  0
  2  3  1  0  0  0  0
  2  5  1  0  0  0  0
  3  7  1  0  0  0  0
  5 14  1  0  0  0  0
  6  1  1  0  0  0  0
  7  4  1  0  0  0  0
  8 13  1  0  0  0  0
  8 12  2  0  0  0  0
 10 19  1  0  0  0  0
 11  4  1  1  0  0  0
 12 16  1  0  0  0  0
 13  2  2  0  0  0  0
 14  1  2  0  0  0  0
 15 11  1  0  0  0  0
 16  5  2  0  0  0  0
 16 17  1  0  0  0  0
 17  6  2  0  0  0  0
 18 10  1  0  0  0  0
 18 13  1  0  0  0  0
 19  3  2  0  0  0  0
 20 19  1  1  0  0  0
 20 15  1  0  0  0  0
 20 11  1  0  0  0  0
 21  8  1  0  0  0  0
 23 22  1  6  0  0  0
 23 21  1  0  0  0  0
 25 24  1  1  0  0  0
 25 23  1  0  0  0  0
 27 28  1  0  0  0  0
 27 25  1  0  0  0  0
 27 26  1  1  0  0  0
 29 31  1  0  0  0  0
 29 28  1  0  0  0  0
 30 29  1  0  0  0  0
M  END
>  <MODEL>
3

>  <REMARK>
 VINA RESULT:      -8.8      2.377      4.613
  Name = 
  6 active torsions:
  status: ('A' for Active; 'I' for Inactive)
    1  A    between atoms: C_1  and  C_24
    2  A    between atoms: C_9  and  C_22
    3  A    between atoms: C_9  and  N_23
    4  A    between atoms: C_15  and  N_23
    5  A    between atoms: C_19  and  C_22
    6  A    between atoms: C_19  and  C_24
                            x       y       z     vdW  Elec       q    Type
                         _______ _______ _______ _____ _____    ______ ____

>  <TORSDO>
F 6

$$$$
=
 OpenBabel11052413023D

 31 35  0  0  1  0  0  0  0  0999 V2000
  185.1430  178.4800  145.8380 C   0  0  0  0  0  0  0  0  0  0  0  0
  186.9760  178.2330  142.5690 C   0  0  0  0  0  0  0  0  0  0  0  0
  188.3760  177.8100  142.9170 C   0  0  0  0  0  0  0  0  0  0  0  0
  189.6880  176.6040  144.6220 C   0  0  0  0  0  2  0  0  0  0  0  0
  185.9510  178.4430  143.5340 C   0  0  0  0  0  0  0  0  0  0  0  0
  183.8760  178.8630  145.4010 C   0  0  0  0  0  3  0  0  0  0  0  0
  188.9120  177.8750  144.3170 C   0  0  0  0  0  2  0  0  0  0  0  0
  185.3630  178.7670  140.7950 C   0  0  0  0  0  0  0  0  0  0  0  0
  185.4050  178.2920  147.2880 C   0  0  0  0  0  1  0  0  0  0  0  0
  188.7600  177.3520  140.6170 O   0  0  0  0  0  0  0  0  0  0  0  0
  190.8610  176.4430  143.6550 C   0  0  1  0  0  3  0  0  0  0  0  0
  184.3760  178.9850  141.7560 C   0  0  0  0  0  3  0  0  0  0  0  0
  186.6530  178.3820  141.1980 C   0  0  0  0  0  0  0  0  0  0  0  0
  186.1670  178.2700  144.9120 C   0  0  0  0  0  3  0  0  0  0  0  0
  190.5130  175.5070  142.6600 O   0  0  0  0  0  0  0  0  0  0  0  0
  184.6520  178.8240  143.1080 C   0  0  0  0  0  0  0  0  0  0  0  0
  183.6310  179.0340  144.0390 C   0  0  0  0  0  3  0  0  0  0  0  0
  187.7250  178.2160  140.1580 C   0  0  0  0  0  2  0  0  0  0  0  0
  189.1940  177.3610  141.9450 C   0  0  0  0  0  0  0  0  0  0  0  0
  190.5850  176.8480  142.2360 C   0  0  1  0  0  3  0  0  0  0  0  0
  185.0700  178.9440  139.4020 N   0  0  0  0  0  2  0  0  0  0  0  0
  185.1250  177.5250  137.1350 S   0  0  0  0  0  1  0  0  0  0  0  0
  184.2230  178.0380  138.6320 C   0  0  2  0  0  3  0  0  0  0  0  0
  182.9130  180.0540  138.6670 O   0  0  0  0  0  1  0  0  0  0  0  0
  182.9010  178.7190  138.2490 C   0  0  2  0  0  3  0  0  0  0  0  0
  180.8330  177.4540  137.8460 N   0  0  0  0  0  1  0  0  0  0  0  0
  181.7020  177.9920  138.8780 C   0  0  2  0  0  3  0  0  0  0  0  0
  180.8800  178.9300  139.7550 C   0  0  0  0  0  2  0  0  0  0  0  0
  180.7700  178.4020  141.1770 C   0  0  0  0  0  3  0  0  0  0  0  0
  180.5580  179.5620  142.1260 C   0  0  0  0  0  1  0  0  0  0  0  0
  179.6010  177.4440  141.2930 C   0  0  0  0  0  1  0  0  0  0  0  0
  1  9  1  0  0  0  0
  2  3  1  0  0  0  0
  2  5  1  0  0  0  0
  3  7  1  0  0  0  0
  5 14  1  0  0  0  0
  6  1  1  0  0  0  0
  7  4  1  0  0  0  0
  8 13  1  0  0  0  0
  8 12  2  0  0  0  0
 10 19  1  0  0  0  0
 11  4  1  1  0  0  0
 12 16  1  0  0  0  0
 13  2  2  0  0  0  0
 14  1  2  0  0  0  0
 15 11  1  0  0  0  0
 16  5  2  0  0  0  0
 16 17  1  0  0  0  0
 17  6  2  0  0  0  0
 18 10  1  0  0  0  0
 18 13  1  0  0  0  0
 19  3  2  0  0  0  0
 20 19  1  1  0  0  0
 20 15  1  0  0  0  0
 20 11  1  0  0  0  0
 21  8  1  0  0  0  0
 23 22  1  6  0  0  0
 23 21  1  0  0  0  0
 25 23  1  0  0  0  0
 25 24  1  1  0  0  0
 25 27  1  0  0  0  0
 27 26  1  6  0  0  0
 27 28  1  0  0  0  0
 28 29  1  0  0  0  0
 29 31  1  0  0  0  0
 29 30  1  0  0  0  0
M  END
>  <MODEL>
4

>  <REMARK>
 VINA RESULT:      -8.8      2.882      4.056
  Name = 
  6 active torsions:
  status: ('A' for Active; 'I' for Inactive)
    1  A    between atoms: C_1  and  C_24
    2  A    between atoms: C_9  and  C_22
    3  A    between atoms: C_9  and  N_23
    4  A    between atoms: C_15  and  N_23
    5  A    between atoms: C_19  and  C_22
    6  A    between atoms: C_19  and  C_24
                            x       y       z     vdW  Elec       q    Type
                         _______ _______ _______ _____ _____    ______ ____

>  <TORSDO>
F 6

$$$$
=
 OpenBabel11052413023D

 31 35  0  0  1  0  0  0  0  0999 V2000
  185.6180  178.3640  145.4620 C   0  0  0  0  0  0  0  0  0  0  0  0
  188.9550  177.4380  144.0090 C   0  0  0  0  0  0  0  0  0  0  0  0
  189.8830  177.2840  145.1820 C   0  0  0  0  0  0  0  0  0  0  0  0
  189.9190  176.7430  147.5890 C   0  0  0  0  0  2  0  0  0  0  0  0
  187.5810  177.7900  144.1290 C   0  0  0  0  0  0  0  0  0  0  0  0
  184.8480  178.4720  144.3050 C   0  0  0  0  0  3  0  0  0  0  0  0
  189.5380  177.7880  146.5530 C   0  0  0  0  0  2  0  0  0  0  0  0
  188.6660  177.2860  141.5750 C   0  0  0  0  0  0  0  0  0  0  0  0
  185.0030  178.6110  146.7920 C   0  0  0  0  0  1  0  0  0  0  0  0
  191.4670  176.2600  143.7370 O   0  0  0  0  0  0  0  0  0  0  0  0
  191.4200  176.4530  147.5350 C   0  0  1  0  0  3  0  0  0  0  0  0
  187.3250  177.6470  141.7110 C   0  0  0  0  0  3  0  0  0  0  0  0
  189.4740  177.1700  142.7180 C   0  0  0  0  0  0  0  0  0  0  0  0
  186.9700  178.0240  145.3720 C   0  0  0  0  0  3  0  0  0  0  0  0
  191.6340  175.2490  146.8350 O   0  0  0  0  0  0  0  0  0  0  0  0
  186.7790  177.8930  142.9630 C   0  0  0  0  0  0  0  0  0  0  0  0
  185.4260  178.2350  143.0590 C   0  0  0  0  0  3  0  0  0  0  0  0
  190.9320  176.8460  142.5540 C   0  0  0  0  0  2  0  0  0  0  0  0
  191.0750  176.6790  145.0100 C   0  0  0  0  0  0  0  0  0  0  0  0
  192.0210  176.4220  146.1600 C   0  0  1  0  0  3  0  0  0  0  0  0
  189.2220  177.0410  140.2760 N   0  0  0  0  0  2  0  0  0  0  0  0
  187.6090  177.9520  138.3460 S   0  0  0  0  0  1  0  0  0  0  0  0
  189.2180  178.0230  139.1960 C   0  0  2  0  0  3  0  0  0  0  0  0
  189.8400  177.6120  136.9090 O   0  0  0  0  0  1  0  0  0  0  0  0
  190.3560  177.7470  138.2020 C   0  0  2  0  0  3  0  0  0  0  0  0
  192.5350  176.7700  138.7820 N   0  0  0  0  0  1  0  0  0  0  0  0
  191.1270  176.4740  138.5840 C   0  0  2  0  0  3  0  0  0  0  0  0
  191.0100  175.4050  137.5020 C   0  0  0  0  0  2  0  0  0  0  0  0
  192.3500  175.1540  136.8270 C   0  0  0  0  0  3  0  0  0  0  0  0
  192.6140  173.6650  136.7780 C   0  0  0  0  0  1  0  0  0  0  0  0
  192.3370  175.7040  135.4140 C   0  0  0  0  0  1  0  0  0  0  0  0
  1  9  1  0  0  0  0
  2  5  1  0  0  0  0
  2  3  1  0  0  0  0
  3  7  1  0  0  0  0
  5 14  2  0  0  0  0
  6  1  2  0  0  0  0
  7  4  1  0  0  0  0
  8 12  2  0  0  0  0
  8 13  1  0  0  0  0
 10 19  1  0  0  0  0
 11  4  1  6  0  0  0
 12 16  1  0  0  0  0
 13  2  2  0  0  0  0
 14  1  1  0  0  0  0
 15 11  1  0  0  0  0
 16 17  2  0  0  0  0
 16  5  1  0  0  0  0
 17  6  1  0  0  0  0
 18 13  1  0  0  0  0
 18 10  1  0  0  0  0
 19  3  2  0  0  0  0
 20 19  1  6  0  0  0
 20 15  1  0  0  0  0
 20 11  1  0  0  0  0
 21  8  1  0  0  0  0
 23 22  1  6  0  0  0
 23 21  1  0  0  0  0
 25 24  1  6  0  0  0
 25 27  1  0  0  0  0
 25 23  1  0  0  0  0
 27 26  1  6  0  0  0
 28 27  1  0  0  0  0
 29 28  1  0  0  0  0
 30 29  1  0  0  0  0
 31 29  1  0  0  0  0
M  END
>  <MODEL>
5

>  <REMARK>
 VINA RESULT:      -8.5      2.051      3.438
  Name = 
  6 active torsions:
  status: ('A' for Active; 'I' for Inactive)
    1  A    between atoms: C_1  and  C_24
    2  A    between atoms: C_9  and  C_22
    3  A    between atoms: C_9  and  N_23
    4  A    between atoms: C_15  and  N_23
    5  A    between atoms: C_19  and  C_22
    6  A    between atoms: C_19  and  C_24
                            x       y       z     vdW  Elec       q    Type
                         _______ _______ _______ _____ _____    ______ ____

>  <TORSDO>
F 6

$$$$
=
 OpenBabel11052413023D

 31 35  0  0  1  0  0  0  0  0999 V2000
  190.5360  176.6760  143.0510 C   0  0  0  0  0  0  0  0  0  0  0  0
  187.0170  177.9880  143.0590 C   0  0  0  0  0  0  0  0  0  0  0  0
  186.5580  177.9170  144.4890 C   0  0  0  0  0  0  0  0  0  0  0  0
  187.3870  177.9360  146.8120 C   0  0  0  0  0  2  0  0  0  0  0  0
  188.3080  177.5790  142.6230 C   0  0  0  0  0  0  0  0  0  0  0  0
  190.8580  176.7950  141.7000 C   0  0  0  0  0  3  0  0  0  0  0  0
  187.2900  177.1240  145.5320 C   0  0  0  0  0  2  0  0  0  0  0  0
  186.4860  178.6450  140.7530 C   0  0  0  0  0  0  0  0  0  0  0  0
  191.5340  176.1350  144.0100 C   0  0  0  0  0  1  0  0  0  0  0  0
  184.6930  179.2710  143.9100 O   0  0  0  0  0  0  0  0  0  0  0  0
  185.9920  178.2740  147.3430 C   0  0  1  0  0  3  0  0  0  0  0  0
  187.7500  178.2240  140.3400 C   0  0  0  0  0  3  0  0  0  0  0  0
  186.1240  178.5390  142.1060 C   0  0  0  0  0  0  0  0  0  0  0  0
  189.2740  177.0680  143.5050 C   0  0  0  0  0  3  0  0  0  0  0  0
  185.6790  179.6050  147.0020 O   0  0  0  0  0  0  0  0  0  0  0  0
  188.6570  177.7020  141.2530 C   0  0  0  0  0  0  0  0  0  0  0  0
  189.9210  177.3070  140.8030 C   0  0  0  0  0  3  0  0  0  0  0  0
  184.7370  178.9340  142.5260 C   0  0  0  0  0  2  0  0  0  0  0  0
  185.4450  178.5800  144.8620 C   0  0  0  0  0  0  0  0  0  0  0  0
  184.9710  178.6150  146.2960 C   0  0  1  0  0  3  0  0  0  0  0  0
  185.5530  179.1760  139.8020 N   0  0  0  0  0  2  0  0  0  0  0  0
  185.4270  177.7580  137.5360 S   0  0  0  0  0  1  0  0  0  0  0  0
  184.6080  178.3560  139.0490 C   0  0  2  0  0  3  0  0  0  0  0  0
  183.5040  180.4910  139.0930 O   0  0  0  0  0  1  0  0  0  0  0  0
  183.3510  179.1610  138.6900 C   0  0  2  0  0  3  0  0  0  0  0  0
  181.6910  179.3700  140.4910 N   0  0  0  0  0  1  0  0  0  0  0  0
  182.1020  178.5620  139.3560 C   0  0  2  0  0  3  0  0  0  0  0  0
  182.3590  177.1420  139.8480 C   0  0  0  0  0  2  0  0  0  0  0  0
  181.6370  176.1190  138.9840 C   0  0  0  0  0  3  0  0  0  0  0  0
  182.6560  175.2320  138.3030 C   0  0  0  0  0  1  0  0  0  0  0  0
  180.7240  175.2610  139.8390 C   0  0  0  0  0  1  0  0  0  0  0  0
  1 14  1  0  0  0  0
  1  9  1  0  0  0  0
  2  3  1  0  0  0  0
  3 19  2  0  0  0  0
  3  7  1  0  0  0  0
  5  2  1  0  0  0  0
  5 14  2  0  0  0  0
  6  1  2  0  0  0  0
  7  4  1  0  0  0  0
  8 13  1  0  0  0  0
 10 19  1  0  0  0  0
 11  4  1  6  0  0  0
 12  8  2  0  0  0  0
 12 16  1  0  0  0  0
 13 18  1  0  0  0  0
 13  2  2  0  0  0  0
 15 11  1  0  0  0  0
 16  5  1  0  0  0  0
 17 16  2  0  0  0  0
 17  6  1  0  0  0  0
 18 10  1  0  0  0  0
 20 19  1  6  0  0  0
 20 15  1  0  0  0  0
 20 11  1  0  0  0  0
 21  8  1  0  0  0  0
 23 22  1  6  0  0  0
 23 21  1  0  0  0  0
 25 23  1  0  0  0  0
 25 24  1  1  0  0  0
 25 27  1  0  0  0  0
 27 28  1  0  0  0  0
 27 26  1  1  0  0  0
 29 31  1  0  0  0  0
 29 28  1  0  0  0  0
 30 29  1  0  0  0  0
M  END
>  <MODEL>
6

>  <REMARK>
 VINA RESULT:      -8.5      3.135      5.007
  Name = 
  6 active torsions:
  status: ('A' for Active; 'I' for Inactive)
    1  A    between atoms: C_1  and  C_24
    2  A    between atoms: C_9  and  C_22
    3  A    between atoms: C_9  and  N_23
    4  A    between atoms: C_15  and  N_23
    5  A    between atoms: C_19  and  C_22
    6  A    between atoms: C_19  and  C_24
                            x       y       z     vdW  Elec       q    Type
                         _______ _______ _______ _____ _____    ______ ____

>  <TORSDO>
F 6

$$$$
=
 OpenBabel11052413023D

 31 35  0  0  1  0  0  0  0  0999 V2000
  191.0480  176.7820  144.5320 C   0  0  0  0  0  0  0  0  0  0  0  0
  187.7100  177.8460  143.1800 C   0  0  0  0  0  0  0  0  0  0  0  0
  186.7810  177.8770  144.3620 C   0  0  0  0  0  0  0  0  0  0  0  0
  186.7430  178.1680  146.8110 C   0  0  0  0  0  2  0  0  0  0  0  0
  189.0850  177.4870  143.2640 C   0  0  0  0  0  0  0  0  0  0  0  0
  191.8190  176.7960  143.3710 C   0  0  0  0  0  3  0  0  0  0  0  0
  187.1260  177.2360  145.6740 C   0  0  0  0  0  2  0  0  0  0  0  0
  188.0000  178.2490  140.7750 C   0  0  0  0  0  0  0  0  0  0  0  0
  191.6630  176.4020  145.8300 C   0  0  0  0  0  1  0  0  0  0  0  0
  185.1960  179.0410  143.0290 O   0  0  0  0  0  0  0  0  0  0  0  0
  185.2410  178.4580  146.7870 C   0  0  1  0  0  3  0  0  0  0  0  0
  189.3410  177.8780  140.8730 C   0  0  0  0  0  3  0  0  0  0  0  0
  187.1910  178.2440  141.9230 C   0  0  0  0  0  0  0  0  0  0  0  0
  189.6960  177.1270  144.4770 C   0  0  0  0  0  3  0  0  0  0  0  0
  185.0250  179.7270  146.2150 O   0  0  0  0  0  0  0  0  0  0  0  0
  189.8870  177.5060  142.0940 C   0  0  0  0  0  0  0  0  0  0  0  0
  191.2410  177.1580  142.1550 C   0  0  0  0  0  3  0  0  0  0  0  0
  185.7330  178.5810  141.7920 C   0  0  0  0  0  2  0  0  0  0  0  0
  185.5880  178.4940  144.2530 C   0  0  0  0  0  0  0  0  0  0  0  0
  184.6410  178.6290  145.4220 C   0  0  1  0  0  3  0  0  0  0  0  0
  187.4430  178.6240  139.5080 N   0  0  0  0  0  2  0  0  0  0  0  0
  188.9590  178.6180  137.3030 S   0  0  0  0  0  1  0  0  0  0  0  0
  187.6270  177.8530  138.2820 C   0  0  2  0  0  3  0  0  0  0  0  0
  185.2390  177.5740  138.3130 O   0  0  0  0  0  1  0  0  0  0  0  0
  186.3270  177.8060  137.4660 C   0  0  2  0  0  3  0  0  0  0  0  0
  185.8590  177.1990  135.1300 N   0  0  0  0  0  1  0  0  0  0  0  0
  186.3870  176.7080  136.3920 C   0  0  2  0  0  3  0  0  0  0  0  0
  185.5810  175.4810  136.8030 C   0  0  0  0  0  2  0  0  0  0  0  0
  186.4920  174.3370  137.2210 C   0  0  0  0  0  3  0  0  0  0  0  0
  185.7310  173.0330  137.1260 C   0  0  0  0  0  1  0  0  0  0  0  0
  187.7050  174.2730  136.3140 C   0  0  0  0  0  1  0  0  0  0  0  0
  1  9  1  0  0  0  0
  2  5  1  0  0  0  0
  2  3  1  0  0  0  0
  3  7  1  0  0  0  0
  5 14  2  0  0  0  0
  6  1  2  0  0  0  0
  7  4  1  0  0  0  0
  8 12  2  0  0  0  0
  8 13  1  0  0  0  0
 10 19  1  0  0  0  0
 11  4  1  6  0  0  0
 12 16  1  0  0  0  0
 13  2  2  0  0  0  0
 14  1  1  0  0  0  0
 15 11  1  0  0  0  0
 16 17  2  0  0  0  0
 16  5  1  0  0  0  0
 17  6  1  0  0  0  0
 18 13  1  0  0  0  0
 18 10  1  0  0  0  0
 19  3  2  0  0  0  0
 20 19  1  6  0  0  0
 20 15  1  0  0  0  0
 20 11  1  0  0  0  0
 21  8  1  0  0  0  0
 23 22  1  6  0  0  0
 23 21  1  0  0  0  0
 25 23  1  0  0  0  0
 25 24  1  1  0  0  0
 27 26  1  6  0  0  0
 27 28  1  0  0  0  0
 27 25  1  0  0  0  0
 28 29  1  0  0  0  0
 30 29  1  0  0  0  0
 31 29  1  0  0  0  0
M  END
>  <MODEL>
7

>  <REMARK>
 VINA RESULT:      -8.4      2.458      4.569
  Name = 
  6 active torsions:
  status: ('A' for Active; 'I' for Inactive)
    1  A    between atoms: C_1  and  C_24
    2  A    between atoms: C_9  and  C_22
    3  A    between atoms: C_9  and  N_23
    4  A    between atoms: C_15  and  N_23
    5  A    between atoms: C_19  and  C_22
    6  A    between atoms: C_19  and  C_24
                            x       y       z     vdW  Elec       q    Type
                         _______ _______ _______ _____ _____    ______ ____

>  <TORSDO>
F 6

$$$$
=
 OpenBabel11052413023D

 31 35  0  0  1  0  0  0  0  0999 V2000
  186.5810  177.9950  146.4610 C   0  0  0  0  0  0  0  0  0  0  0  0
  187.0160  178.2980  142.7430 C   0  0  0  0  0  0  0  0  0  0  0  0
  188.4670  178.0080  142.4770 C   0  0  0  0  0  0  0  0  0  0  0  0
  190.4170  176.7960  143.3790 C   0  0  0  0  0  2  0  0  0  0  0  0
  186.4340  178.2880  144.0420 C   0  0  0  0  0  0  0  0  0  0  0  0
  185.2200  178.2710  146.5900 C   0  0  0  0  0  3  0  0  0  0  0  0
  189.4990  177.9920  143.5670 C   0  0  0  0  0  2  0  0  0  0  0  0
  184.8100  178.8180  141.7980 C   0  0  0  0  0  0  0  0  0  0  0  0
  187.3970  177.6930  147.6650 C   0  0  0  0  0  1  0  0  0  0  0  0
  187.9610  177.8340  140.1620 O   0  0  0  0  0  0  0  0  0  0  0  0
  191.1320  176.8710  142.0290 C   0  0  1  0  0  3  0  0  0  0  0  0
  184.2600  178.8210  143.0800 C   0  0  0  0  0  3  0  0  0  0  0  0
  186.1780  178.5480  141.6280 C   0  0  0  0  0  0  0  0  0  0  0  0
  187.1780  178.0020  145.1980 C   0  0  0  0  0  3  0  0  0  0  0  0
  190.4900  176.0080  141.1190 O   0  0  0  0  0  0  0  0  0  0  0  0
  185.0490  178.5560  144.1910 C   0  0  0  0  0  0  0  0  0  0  0  0
  184.4560  178.5490  145.4580 C   0  0  0  0  0  3  0  0  0  0  0  0
  186.7720  178.6140  140.2500 C   0  0  0  0  0  2  0  0  0  0  0  0
  188.8730  177.7580  141.2160 C   0  0  0  0  0  0  0  0  0  0  0  0
  190.3000  177.3840  140.8890 C   0  0  1  0  0  3  0  0  0  0  0  0
  183.9890  179.1010  140.6560 N   0  0  0  0  0  2  0  0  0  0  0  0
  182.9600  176.8170  139.7150 S   0  0  0  0  0  1  0  0  0  0  0  0
  182.6910  178.4750  140.4180 C   0  0  2  0  0  3  0  0  0  0  0  0
  182.5090  180.5190  139.1650 O   0  0  0  0  0  1  0  0  0  0  0  0
  181.8420  179.3260  139.4620 C   0  0  2  0  0  3  0  0  0  0  0  0
  179.9550  180.8980  139.5550 N   0  0  0  0  0  1  0  0  0  0  0  0
  180.4680  179.6420  140.0740 C   0  0  2  0  0  3  0  0  0  0  0  0
  180.5460  179.7480  141.5930 C   0  0  0  0  0  2  0  0  0  0  0  0
  179.5060  178.8630  142.2630 C   0  0  0  0  0  3  0  0  0  0  0  0
  179.1430  177.7270  141.3320 C   0  0  0  0  0  1  0  0  0  0  0  0
  180.0550  178.2920  143.5560 C   0  0  0  0  0  1  0  0  0  0  0  0
  1  6  1  0  0  0  0
  1  9  1  0  0  0  0
  2  5  1  0  0  0  0
  3  2  1  0  0  0  0
  3  7  1  0  0  0  0
  4  7  1  0  0  0  0
  5 16  2  0  0  0  0
  5 14  1  0  0  0  0
  8 12  2  0  0  0  0
 10 18  1  0  0  0  0
 10 19  1  0  0  0  0
 11  4  1  1  0  0  0
 12 16  1  0  0  0  0
 13  8  1  0  0  0  0
 13  2  2  0  0  0  0
 14  1  2  0  0  0  0
 15 11  1  0  0  0  0
 16 17  1  0  0  0  0
 17  6  2  0  0  0  0
 18 13  1  0  0  0  0
 19  3  2  0  0  0  0
 20 15  1  6  0  0  0
 20 19  1  0  0  0  0
 20 11  1  0  0  0  0
 21  8  1  0  0  0  0
 23 22  1  6  0  0  0
 23 21  1  0  0  0  0
 25 24  1  1  0  0  0
 25 27  1  0  0  0  0
 25 23  1  0  0  0  0
 27 26  1  6  0  0  0
 27 28  1  0  0  0  0
 28 29  1  0  0  0  0
 29 31  1  0  0  0  0
 30 29  1  0  0  0  0
M  END
>  <MODEL>
8

>  <REMARK>
 VINA RESULT:      -8.2      3.547      5.170
  Name = 
  6 active torsions:
  status: ('A' for Active; 'I' for Inactive)
    1  A    between atoms: C_1  and  C_24
    2  A    between atoms: C_9  and  C_22
    3  A    between atoms: C_9  and  N_23
    4  A    between atoms: C_15  and  N_23
    5  A    between atoms: C_19  and  C_22
    6  A    between atoms: C_19  and  C_24
                            x       y       z     vdW  Elec       q    Type
                         _______ _______ _______ _____ _____    ______ ____

>  <TORSDO>
F 6

$$$$
=
 OpenBabel11052413023D

 31 35  0  0  1  0  0  0  0  0999 V2000
  187.2790  177.7970  145.6210 C   0  0  0  0  0  0  0  0  0  0  0  0
  186.3040  178.4320  142.0510 C   0  0  0  0  0  0  0  0  0  0  0  0
  187.5790  178.3530  141.2590 C   0  0  0  0  0  0  0  0  0  0  0  0
  189.8280  177.3380  141.2680 C   0  0  0  0  0  2  0  0  0  0  0  0
  186.2370  178.2500  143.4610 C   0  0  0  0  0  0  0  0  0  0  0  0
  186.0390  177.8840  146.2530 C   0  0  0  0  0  3  0  0  0  0  0  0
  188.9330  178.3880  141.9060 C   0  0  0  0  0  2  0  0  0  0  0  0
  183.8670  178.7330  142.0100 C   0  0  0  0  0  0  0  0  0  0  0  0
  188.5010  177.5130  146.4170 C   0  0  0  0  0  1  0  0  0  0  0  0
  186.2850  178.2900  139.2670 O   0  0  0  0  0  0  0  0  0  0  0  0
  189.9930  177.6070  139.7720 C   0  0  1  0  0  3  0  0  0  0  0  0
  183.8220  178.5670  143.3950 C   0  0  0  0  0  3  0  0  0  0  0  0
  185.0980  178.6550  141.3400 C   0  0  0  0  0  0  0  0  0  0  0  0
  187.3730  177.9760  144.2390 C   0  0  0  0  0  3  0  0  0  0  0  0
  189.1480  176.7390  139.0510 O   0  0  0  0  0  0  0  0  0  0  0  0
  184.9820  178.3240  144.1190 C   0  0  0  0  0  0  0  0  0  0  0  0
  184.8930  178.1460  145.5030 C   0  0  0  0  0  3  0  0  0  0  0  0
  185.1420  178.9010  139.8580 C   0  0  0  0  0  2  0  0  0  0  0  0
  187.5210  178.2540  139.9160 C   0  0  0  0  0  0  0  0  0  0  0  0
  188.7590  178.0920  139.0660 C   0  0  1  0  0  3  0  0  0  0  0  0
  182.6640  178.9920  141.2730 N   0  0  0  0  0  2  0  0  0  0  0  0
  181.9990  176.9340  139.6970 S   0  0  0  0  0  1  0  0  0  0  0  0
  181.5920  178.0160  141.1040 C   0  0  2  0  0  3  0  0  0  0  0  0
  179.6870  178.2770  139.6590 O   0  0  0  0  0  1  0  0  0  0  0  0
  180.2470  178.7180  140.8630 C   0  0  2  0  0  3  0  0  0  0  0  0
  179.6810  180.8690  141.9070 N   0  0  0  0  0  1  0  0  0  0  0  0
  180.4200  180.2440  140.8240 C   0  0  2  0  0  3  0  0  0  0  0  0
  179.9210  180.8280  139.5060 C   0  0  0  0  0  2  0  0  0  0  0  0
  181.0420  181.5250  138.7510 C   0  0  0  0  0  3  0  0  0  0  0  0
  181.9260  180.4860  138.0970 C   0  0  0  0  0  1  0  0  0  0  0  0
  180.4690  182.4360  137.6830 C   0  0  0  0  0  1  0  0  0  0  0  0
  1  6  1  0  0  0  0
  1  9  1  0  0  0  0
  2  5  1  0  0  0  0
  3  7  1  0  0  0  0
  3  2  1  0  0  0  0
  4  7  1  0  0  0  0
  5 16  2  0  0  0  0
  5 14  1  0  0  0  0
  8 12  2  0  0  0  0
 10 18  1  0  0  0  0
 10 19  1  0  0  0  0
 11  4  1  1  0  0  0
 12 16  1  0  0  0  0
 13  8  1  0  0  0  0
 13  2  2  0  0  0  0
 14  1  2  0  0  0  0
 15 11  1  0  0  0  0
 16 17  1  0  0  0  0
 17  6  2  0  0  0  0
 18 13  1  0  0  0  0
 19  3  2  0  0  0  0
 20 15  1  6  0  0  0
 20 11  1  0  0  0  0
 20 19  1  0  0  0  0
 21  8  1  0  0  0  0
 23 22  1  6  0  0  0
 23 21  1  0  0  0  0
 25 24  1  6  0  0  0
 25 23  1  0  0  0  0
 27 25  1  0  0  0  0
 27 26  1  1  0  0  0
 28 27  1  0  0  0  0
 29 28  1  0  0  0  0
 30 29  1  0  0  0  0
 31 29  1  0  0  0  0
M  END
>  <MODEL>
9

>  <REMARK>
 VINA RESULT:      -8.2      3.926      6.117
  Name = 
  6 active torsions:
  status: ('A' for Active; 'I' for Inactive)
    1  A    between atoms: C_1  and  C_24
    2  A    between atoms: C_9  and  C_22
    3  A    between atoms: C_9  and  N_23
    4  A    between atoms: C_15  and  N_23
    5  A    between atoms: C_19  and  C_22
    6  A    between atoms: C_19  and  C_24
                            x       y       z     vdW  Elec       q    Type
                         _______ _______ _______ _____ _____    ______ ____

>  <TORSDO>
F 6

$$$$
