=
 OpenBabel11052415213D

 37 39  0  0  1  0  0  0  0  0999 V2000
  184.6460  176.8200  137.6300 C   0  0  2  0  0  3  0  0  0  0  0  0
  181.3360  177.4630  138.1030 C   0  0  0  0  0  0  0  0  0  0  0  0
  182.0260  179.4570  139.3830 N   0  0  0  0  0  0  0  0  0  0  0  0
  181.5310  173.6290  136.4060 C   0  0  0  0  0  3  0  0  0  0  0  0
  184.3720  178.6010  139.4160 C   0  0  1  0  0  3  0  0  0  0  0  0
  182.5820  175.3560  137.7030 N   0  0  0  0  0  0  0  0  0  0  0  0
  180.3060  174.4330  136.3490 C   0  0  0  0  0  3  0  0  0  0  0  0
  183.7730  175.8190  138.4240 C   0  0  0  0  0  2  0  0  0  0  0  0
  180.1830  175.5320  137.0820 C   0  0  0  0  0  3  0  0  0  0  0  0
  183.3900  179.6950  139.8670 C   0  0  0  0  0  2  0  0  0  0  0  0
  181.2670  175.9600  138.0380 C   0  0  2  0  0  3  0  0  0  0  0  0
  184.2850  178.2820  137.9190 C   0  0  0  0  0  2  0  0  0  0  0  0
  182.6130  174.0520  137.0720 C   0  0  0  0  0  0  0  0  0  0  0  0
  181.5210  178.1380  139.3570 N   0  0  0  0  0  0  0  0  0  0  0  0
  181.2740  178.1320  137.0350 O   0  0  0  0  0  0  0  0  0  0  0  0
  179.9740  180.7890  139.7600 C   0  0  0  0  0  3  0  0  0  0  0  0
  181.1740  180.5740  139.0550 C   0  0  0  0  0  0  0  0  0  0  0  0
  181.5240  181.4560  138.0130 C   0  0  0  0  0  3  0  0  0  0  0  0
  181.0200  183.3560  136.6620 F   0  0  0  0  0  0  0  0  0  0  0  0
  179.4870  182.7150  138.3820 C   0  0  0  0  0  3  0  0  0  0  0  0
  180.6840  182.5250  137.6830 C   0  0  0  0  0  0  0  0  0  0  0  0
  179.1340  181.8490  139.4220 C   0  0  0  0  0  3  0  0  0  0  0  0
  183.8270  173.1480  137.1490 C   0  0  0  0  0  0  0  0  0  0  0  0
  183.4340  171.8280  137.1870 F   0  0  0  0  0  0  0  0  0  0  0  0
  184.6220  173.3620  136.0450 F   0  0  0  0  0  0  0  0  0  0  0  0
  184.5720  173.4090  138.2850 F   0  0  0  0  0  0  0  0  0  0  0  0
  185.7010  178.9700  141.2440 C   0  0  0  0  0  1  0  0  0  0  0  0
  185.6980  178.8310  139.8490 O   0  0  0  0  0  0  0  0  0  0  0  0
  184.7360  176.5310  136.1200 C   0  0  2  0  0  3  0  0  0  0  0  0
  187.0880  175.8630  136.7030 C   0  0  0  0  0  1  0  0  0  0  0  0
  186.6680  177.6640  135.1870 O   0  0  0  0  0  1  0  0  0  0  0  0
  186.1820  176.4260  135.6240 C   0  0  2  0  0  3  0  0  0  0  0  0
  184.0340  177.4930  135.3790 O   0  0  0  0  0  0  0  0  0  0  0  0
  183.1320  176.7740  134.5940 C   0  0  0  0  0  1  0  0  0  0  0  0
  181.3890  177.4080  140.6140 C   0  0  0  0  0  2  0  0  0  0  0  0
  179.7770  178.1630  142.3000 C   0  0  0  0  0  2  0  0  0  0  0  0
  179.9920  177.5280  141.1440 C   0  0  0  0  0  3  0  0  0  0  0  0
  1 29  1  6  0  0  0
  1 12  1  0  0  0  0
  1  8  1  0  0  0  0
  2 14  1  0  0  0  0
  3 10  1  0  0  0  0
  4 13  2  0  0  0  0
  5 28  1  6  0  0  0
  5 10  1  0  0  0  0
  6 11  1  0  0  0  0
  6  8  1  0  0  0  0
  7  4  1  0  0  0  0
  7  9  2  0  0  0  0
 11  9  1  6  0  0  0
 11  2  1  0  0  0  0
 12  5  1  0  0  0  0
 13 23  1  0  0  0  0
 13  6  1  0  0  0  0
 14  3  1  0  0  0  0
 14 35  1  0  0  0  0
 15  2  2  0  0  0  0
 17  3  1  0  0  0  0
 17 16  2  0  0  0  0
 18 17  1  0  0  0  0
 19 21  1  0  0  0  0
 20 22  2  0  0  0  0
 21 18  2  0  0  0  0
 21 20  1  0  0  0  0
 22 16  1  0  0  0  0
 23 24  1  0  0  0  0
 23 26  1  0  0  0  0
 25 23  1  0  0  0  0
 28 27  1  0  0  0  0
 29 33  1  6  0  0  0
 31 32  1  0  0  0  0
 32 29  1  0  0  0  0
 32 30  1  1  0  0  0
 34 33  1  0  0  0  0
 35 37  1  0  0  0  0
 37 36  2  0  0  0  0
M  END
>  <MODEL>
1

>  <REMARK>
 VINA RESULT:      -4.8      0.000      0.000
  Name = 
  8 active torsions:
  status: ('A' for Active; 'I' for Inactive)
    1  A    between atoms: C_1  and  C_5
    2  A    between atoms: C_3  and  C_30
    3  A    between atoms: C_5  and  O_11
    4  A    between atoms: C_5  and  C_23
    5  A    between atoms: C_6  and  N_7
    6  A    between atoms: C_10  and  O_33
    7  A    between atoms: C_14  and  N_31
    8  A    between atoms: C_14  and  C_37
                            x       y       z     vdW  Elec       q    Type
                         _______ _______ _______ _____ _____    ______ ____

>  <TORSDO>
F 8

$$$$
=
 OpenBabel11052415213D

 37 39  0  0  1  0  0  0  0  0999 V2000
  180.9110  179.2290  138.3460 C   0  0  2  0  0  3  0  0  0  0  0  0
  183.8820  177.7940  139.1840 C   0  0  0  0  0  0  0  0  0  0  0  0
  184.0550  177.0550  136.8360 N   0  0  0  0  0  0  0  0  0  0  0  0
  182.1220  178.9880  142.8020 C   0  0  0  0  0  3  0  0  0  0  0  0
  181.6630  177.6780  136.4840 C   0  0  1  0  0  3  0  0  0  0  0  0
  181.8540  178.3180  140.5110 N   0  0  0  0  0  0  0  0  0  0  0  0
  183.5640  178.7440  142.6940 C   0  0  0  0  0  3  0  0  0  0  0  0
  180.9460  178.0810  139.3830 C   0  0  0  0  0  2  0  0  0  0  0  0
  184.0700  178.1480  141.6210 C   0  0  0  0  0  3  0  0  0  0  0  0
  182.9400  177.0690  135.8820 C   0  0  0  0  0  2  0  0  0  0  0  0
  183.1820  177.6520  140.5090 C   0  0  2  0  0  3  0  0  0  0  0  0
  181.8990  179.0170  137.1920 C   0  0  0  0  0  2  0  0  0  0  0  0
  181.2970  178.7640  141.7720 C   0  0  0  0  0  0  0  0  0  0  0  0
  183.8020  176.7580  138.1930 N   0  0  0  0  0  0  0  0  0  0  0  0
  184.5120  178.8560  138.9280 O   0  0  0  0  0  0  0  0  0  0  0  0
  185.6560  177.7100  135.0650 C   0  0  0  0  0  3  0  0  0  0  0  0
  185.4070  177.2220  136.3630 C   0  0  0  0  0  0  0  0  0  0  0  0
  186.4990  176.8830  137.1870 C   0  0  0  0  0  3  0  0  0  0  0  0
  188.8530  176.6750  137.5120 F   0  0  0  0  0  0  0  0  0  0  0  0
  188.0380  177.4970  135.4190 C   0  0  0  0  0  3  0  0  0  0  0  0
  187.8080  177.0250  136.7170 C   0  0  0  0  0  0  0  0  0  0  0  0
  186.9620  177.8420  134.5950 C   0  0  0  0  0  3  0  0  0  0  0  0
  179.8080  178.9740  141.9660 C   0  0  0  0  0  0  0  0  0  0  0  0
  179.3290  178.1150  142.9300 F   0  0  0  0  0  0  0  0  0  0  0  0
  179.5810  180.2760  142.3540 F   0  0  0  0  0  0  0  0  0  0  0  0
  179.1130  178.7370  140.7940 F   0  0  0  0  0  0  0  0  0  0  0  0
  180.7290  178.8620  134.7600 C   0  0  0  0  0  1  0  0  0  0  0  0
  180.5850  177.7270  135.5690 O   0  0  0  0  0  0  0  0  0  0  0  0
  181.0190  180.6410  138.9510 C   0  0  2  0  0  3  0  0  0  0  0  0
  179.0700  181.9380  139.8660 C   0  0  0  0  0  1  0  0  0  0  0  0
  178.9400  180.8820  137.7240 O   0  0  0  0  0  1  0  0  0  0  0  0
  179.8140  181.5240  138.6100 C   0  0  2  0  0  3  0  0  0  0  0  0
  182.2110  181.2690  138.5590 O   0  0  0  0  0  0  0  0  0  0  0  0
  181.8460  182.5670  138.1970 C   0  0  0  0  0  1  0  0  0  0  0  0
  183.2600  175.4470  138.5390 C   0  0  0  0  0  2  0  0  0  0  0  0
  183.2750  173.3780  137.2230 C   0  0  0  0  0  2  0  0  0  0  0  0
  183.9760  174.3700  137.7830 C   0  0  0  0  0  3  0  0  0  0  0  0
  1 29  1  1  0  0  0
  1  8  1  0  0  0  0
  2 11  1  0  0  0  0
  3 14  1  0  0  0  0
  5 28  1  6  0  0  0
  5 12  1  0  0  0  0
  6 13  1  0  0  0  0
  7  4  1  0  0  0  0
  8  6  1  0  0  0  0
  9  7  2  0  0  0  0
 10  5  1  0  0  0  0
 10  3  1  0  0  0  0
 11  6  1  0  0  0  0
 11  9  1  1  0  0  0
 12  1  1  0  0  0  0
 13 23  1  0  0  0  0
 13  4  2  0  0  0  0
 14 35  1  0  0  0  0
 14  2  1  0  0  0  0
 15  2  2  0  0  0  0
 16 17  1  0  0  0  0
 17  3  1  0  0  0  0
 17 18  2  0  0  0  0
 20 21  2  0  0  0  0
 21 18  1  0  0  0  0
 21 19  1  0  0  0  0
 22 16  2  0  0  0  0
 22 20  1  0  0  0  0
 23 25  1  0  0  0  0
 23 24  1  0  0  0  0
 26 23  1  0  0  0  0
 27 28  1  0  0  0  0
 29 33  1  6  0  0  0
 31 32  1  0  0  0  0
 32 29  1  0  0  0  0
 32 30  1  1  0  0  0
 34 33  1  0  0  0  0
 36 37  2  0  0  0  0
 37 35  1  0  0  0  0
M  END
>  <MODEL>
2

>  <REMARK>
 VINA RESULT:      -4.2      2.827      7.111
  Name = 
  8 active torsions:
  status: ('A' for Active; 'I' for Inactive)
    1  A    between atoms: C_1  and  C_5
    2  A    between atoms: C_3  and  C_30
    3  A    between atoms: C_5  and  O_11
    4  A    between atoms: C_5  and  C_23
    5  A    between atoms: C_6  and  N_7
    6  A    between atoms: C_10  and  O_33
    7  A    between atoms: C_14  and  N_31
    8  A    between atoms: C_14  and  C_37
                            x       y       z     vdW  Elec       q    Type
                         _______ _______ _______ _____ _____    ______ ____

>  <TORSDO>
F 8

$$$$
=
 OpenBabel11052415213D

 37 39  0  0  1  0  0  0  0  0999 V2000
  186.9210  177.4580  137.8850 C   0  0  2  0  0  3  0  0  0  0  0  0
  183.6850  176.8400  137.0230 C   0  0  0  0  0  0  0  0  0  0  0  0
  183.0350  178.4890  138.7410 N   0  0  0  0  0  0  0  0  0  0  0  0
  185.9770  173.9350  135.0430 C   0  0  0  0  0  3  0  0  0  0  0  0
  185.3700  178.4600  139.6250 C   0  0  1  0  0  3  0  0  0  0  0  0
  185.7380  175.4550  136.8870 N   0  0  0  0  0  0  0  0  0  0  0  0
  184.6250  174.2840  134.5940 C   0  0  0  0  0  3  0  0  0  0  0  0
  186.3250  176.0460  138.0950 C   0  0  0  0  0  2  0  0  0  0  0  0
  183.8300  175.0240  135.3560 C   0  0  0  0  0  3  0  0  0  0  0  0
  183.9380  179.0010  139.7760 C   0  0  0  0  0  2  0  0  0  0  0  0
  184.2610  175.4810  136.7260 C   0  0  2  0  0  3  0  0  0  0  0  0
  185.9210  178.5780  138.1990 C   0  0  0  0  0  2  0  0  0  0  0  0
  186.5050  174.4710  136.1500 C   0  0  0  0  0  0  0  0  0  0  0  0
  183.1530  177.1450  138.3220 N   0  0  0  0  0  0  0  0  0  0  0  0
  183.7110  177.7320  136.1320 O   0  0  0  0  0  0  0  0  0  0  0  0
  180.8190  178.7370  137.6670 C   0  0  0  0  0  3  0  0  0  0  0  0
  181.9620  179.3180  138.2480 C   0  0  0  0  0  0  0  0  0  0  0  0
  182.0520  180.7220  138.3270 C   0  0  0  0  0  3  0  0  0  0  0  0
  181.1260  182.8770  137.8910 F   0  0  0  0  0  0  0  0  0  0  0  0
  179.8970  180.9310  137.2390 C   0  0  0  0  0  3  0  0  0  0  0  0
  181.0200  181.5240  137.8290 C   0  0  0  0  0  0  0  0  0  0  0  0
  179.7960  179.5380  137.1610 C   0  0  0  0  0  3  0  0  0  0  0  0
  187.8820  174.0230  136.5970 C   0  0  0  0  0  0  0  0  0  0  0  0
  188.7500  174.0140  135.5280 F   0  0  0  0  0  0  0  0  0  0  0  0
  188.3480  174.8870  137.5630 F   0  0  0  0  0  0  0  0  0  0  0  0
  187.8430  172.7470  137.1310 F   0  0  0  0  0  0  0  0  0  0  0  0
  185.6950  178.7900  141.8680 C   0  0  0  0  0  1  0  0  0  0  0  0
  186.2620  178.9670  140.5990 O   0  0  0  0  0  0  0  0  0  0  0  0
  187.6140  177.6630  136.5250 C   0  0  2  0  0  3  0  0  0  0  0  0
  189.9780  177.0660  135.9170 C   0  0  0  0  0  1  0  0  0  0  0  0
  189.4800  178.1090  138.0100 O   0  0  0  0  0  1  0  0  0  0  0  0
  189.0910  178.0430  136.6670 C   0  0  2  0  0  3  0  0  0  0  0  0
  186.9360  178.6180  135.7520 O   0  0  0  0  0  0  0  0  0  0  0  0
  186.5380  177.9450  134.5950 C   0  0  0  0  0  1  0  0  0  0  0  0
  182.9230  176.0810  139.2940 C   0  0  0  0  0  2  0  0  0  0  0  0
  180.8770  175.0210  138.4570 C   0  0  0  0  0  2  0  0  0  0  0  0
  181.4610  175.7720  139.3960 C   0  0  0  0  0  3  0  0  0  0  0  0
  1 29  1  6  0  0  0
  1  8  1  0  0  0  0
  1 12  1  0  0  0  0
  2 14  1  0  0  0  0
  3 10  1  0  0  0  0
  4 13  2  0  0  0  0
  5 10  1  0  0  0  0
  5 28  1  1  0  0  0
  6  8  1  0  0  0  0
  7  4  1  0  0  0  0
  7  9  2  0  0  0  0
 11  9  1  6  0  0  0
 11  6  1  0  0  0  0
 11  2  1  0  0  0  0
 12  5  1  0  0  0  0
 13 23  1  0  0  0  0
 13  6  1  0  0  0  0
 14  3  1  0  0  0  0
 14 35  1  0  0  0  0
 15  2  2  0  0  0  0
 16 17  1  0  0  0  0
 17 18  2  0  0  0  0
 17  3  1  0  0  0  0
 20 21  2  0  0  0  0
 21 19  1  0  0  0  0
 21 18  1  0  0  0  0
 22 20  1  0  0  0  0
 22 16  2  0  0  0  0
 23 26  1  0  0  0  0
 23 25  1  0  0  0  0
 24 23  1  0  0  0  0
 28 27  1  0  0  0  0
 29 33  1  1  0  0  0
 29 32  1  0  0  0  0
 32 30  1  6  0  0  0
 32 31  1  0  0  0  0
 34 33  1  0  0  0  0
 35 37  1  0  0  0  0
 36 37  2  0  0  0  0
M  END
>  <MODEL>
3

>  <REMARK>
 VINA RESULT:      -3.7      2.142      3.137
  Name = 
  8 active torsions:
  status: ('A' for Active; 'I' for Inactive)
    1  A    between atoms: C_1  and  C_5
    2  A    between atoms: C_3  and  C_30
    3  A    between atoms: C_5  and  O_11
    4  A    between atoms: C_5  and  C_23
    5  A    between atoms: C_6  and  N_7
    6  A    between atoms: C_10  and  O_33
    7  A    between atoms: C_14  and  N_31
    8  A    between atoms: C_14  and  C_37
                            x       y       z     vdW  Elec       q    Type
                         _______ _______ _______ _____ _____    ______ ____

>  <TORSDO>
F 8

$$$$
=
 OpenBabel11052415213D

 37 39  0  0  1  0  0  0  0  0999 V2000
  185.4630  176.8630  136.6920 C   0  0  2  0  0  3  0  0  0  0  0  0
  184.0470  178.0320  139.5600 C   0  0  0  0  0  0  0  0  0  0  0  0
  181.8740  177.9170  138.3950 N   0  0  0  0  0  0  0  0  0  0  0  0
  188.1940  178.3810  140.1000 C   0  0  0  0  0  3  0  0  0  0  0  0
  183.0720  177.5790  136.2310 C   0  0  1  0  0  3  0  0  0  0  0  0
  186.3200  178.2880  138.6010 N   0  0  0  0  0  0  0  0  0  0  0  0
  187.2710  178.3570  141.2400 C   0  0  0  0  0  3  0  0  0  0  0  0
  185.8350  178.2710  137.2160 C   0  0  0  0  0  2  0  0  0  0  0  0
  185.9630  178.4810  141.0520 C   0  0  0  0  0  3  0  0  0  0  0  0
  181.7220  177.7550  136.9450 C   0  0  0  0  0  2  0  0  0  0  0  0
  185.3870  178.7080  139.6780 C   0  0  2  0  0  3  0  0  0  0  0  0
  183.9780  176.5300  136.8870 C   0  0  0  0  0  2  0  0  0  0  0  0
  187.7470  178.3730  138.8390 C   0  0  0  0  0  0  0  0  0  0  0  0
  182.9500  178.6810  138.8980 N   0  0  0  0  0  0  0  0  0  0  0  0
  183.9020  176.8630  140.0100 O   0  0  0  0  0  0  0  0  0  0  0  0
  180.0450  178.2790  140.0240 C   0  0  0  0  0  3  0  0  0  0  0  0
  180.8630  177.4010  139.2860 C   0  0  0  0  0  0  0  0  0  0  0  0
  180.6910  176.0120  139.4420 C   0  0  0  0  0  3  0  0  0  0  0  0
  179.5820  174.1730  140.4820 F   0  0  0  0  0  0  0  0  0  0  0  0
  178.9310  176.4000  141.0610 C   0  0  0  0  0  3  0  0  0  0  0  0
  179.7250  175.5150  140.3230 C   0  0  0  0  0  0  0  0  0  0  0  0
  179.0900  177.7820  140.9090 C   0  0  0  0  0  3  0  0  0  0  0  0
  188.7480  178.4650  137.7050 C   0  0  0  0  0  0  0  0  0  0  0  0
  189.3350  179.7120  137.6880 F   0  0  0  0  0  0  0  0  0  0  0  0
  189.7170  177.5020  137.8770 F   0  0  0  0  0  0  0  0  0  0  0  0
  188.1370  178.2610  136.4810 F   0  0  0  0  0  0  0  0  0  0  0  0
  182.4500  176.1030  134.5950 C   0  0  0  0  0  1  0  0  0  0  0  0
  182.9430  177.3920  134.8350 O   0  0  0  0  0  0  0  0  0  0  0  0
  186.3820  175.7320  137.1890 C   0  0  2  0  0  3  0  0  0  0  0  0
  188.6670  174.9680  136.4700 C   0  0  0  0  0  1  0  0  0  0  0  0
  187.1140  175.8490  134.8790 O   0  0  0  0  0  1  0  0  0  0  0  0
  187.2110  175.1070  136.0620 C   0  0  2  0  0  3  0  0  0  0  0  0
  185.6480  174.7440  137.8610 O   0  0  0  0  0  0  0  0  0  0  0  0
  185.7710  173.5930  137.0800 C   0  0  0  0  0  1  0  0  0  0  0  0
  183.0290  180.0980  138.5570 C   0  0  0  0  0  2  0  0  0  0  0  0
  181.4630  181.9610  138.2600 C   0  0  0  0  0  2  0  0  0  0  0  0
  181.6660  180.6400  138.2530 C   0  0  0  0  0  3  0  0  0  0  0  0
  1 12  1  0  0  0  0
  1 29  1  1  0  0  0
  1  8  1  0  0  0  0
  2 11  1  0  0  0  0
  2 15  2  0  0  0  0
  3 14  1  0  0  0  0
  3 17  1  0  0  0  0
  4  7  1  0  0  0  0
  5 28  1  6  0  0  0
  5 12  1  0  0  0  0
  5 10  1  0  0  0  0
  6 13  1  0  0  0  0
  6 11  1  0  0  0  0
  8  6  1  0  0  0  0
  9  7  2  0  0  0  0
 10  3  1  0  0  0  0
 11  9  1  1  0  0  0
 13  4  2  0  0  0  0
 14  2  1  0  0  0  0
 16 22  1  0  0  0  0
 17 18  1  0  0  0  0
 17 16  2  0  0  0  0
 18 21  2  0  0  0  0
 21 19  1  0  0  0  0
 21 20  1  0  0  0  0
 22 20  2  0  0  0  0
 23 25  1  0  0  0  0
 23 13  1  0  0  0  0
 24 23  1  0  0  0  0
 26 23  1  0  0  0  0
 27 28  1  0  0  0  0
 29 33  1  6  0  0  0
 31 32  1  0  0  0  0
 32 30  1  1  0  0  0
 32 29  1  0  0  0  0
 34 33  1  0  0  0  0
 35 14  1  0  0  0  0
 37 36  2  0  0  0  0
 37 35  1  0  0  0  0
M  END
>  <MODEL>
4

>  <REMARK>
 VINA RESULT:      -3.2      2.824      5.534
  Name = 
  8 active torsions:
  status: ('A' for Active; 'I' for Inactive)
    1  A    between atoms: C_1  and  C_5
    2  A    between atoms: C_3  and  C_30
    3  A    between atoms: C_5  and  O_11
    4  A    between atoms: C_5  and  C_23
    5  A    between atoms: C_6  and  N_7
    6  A    between atoms: C_10  and  O_33
    7  A    between atoms: C_14  and  N_31
    8  A    between atoms: C_14  and  C_37
                            x       y       z     vdW  Elec       q    Type
                         _______ _______ _______ _____ _____    ______ ____

>  <TORSDO>
F 8

$$$$
=
 OpenBabel11052415213D

 37 39  0  0  1  0  0  0  0  0999 V2000
  181.3380  179.2260  139.6530 C   0  0  2  0  0  3  0  0  0  0  0  0
  181.2460  177.6450  136.6390 C   0  0  0  0  0  0  0  0  0  0  0  0
  182.4020  175.7550  137.7260 N   0  0  0  0  0  0  0  0  0  0  0  0
  180.0020  181.5870  135.9090 C   0  0  0  0  0  3  0  0  0  0  0  0
  182.8700  177.2040  139.7050 C   0  0  1  0  0  3  0  0  0  0  0  0
  181.2550  180.0460  137.2600 N   0  0  0  0  0  0  0  0  0  0  0  0
  179.6800  180.4960  134.9820 C   0  0  0  0  0  3  0  0  0  0  0  0
  182.0930  179.8290  138.4450 C   0  0  0  0  0  2  0  0  0  0  0  0
  180.2700  179.3130  135.1010 C   0  0  0  0  0  3  0  0  0  0  0  0
  183.0550  175.8310  139.0370 C   0  0  0  0  0  2  0  0  0  0  0  0
  181.3270  179.0650  136.1460 C   0  0  2  0  0  3  0  0  0  0  0  0
  181.4170  177.6950  139.7000 C   0  0  0  0  0  2  0  0  0  0  0  0
  180.7730  181.3840  136.9840 C   0  0  0  0  0  0  0  0  0  0  0  0
  182.4370  176.8760  136.8680 N   0  0  0  0  0  0  0  0  0  0  0  0
  180.1180  177.1420  136.8930 O   0  0  0  0  0  0  0  0  0  0  0  0
  182.4530  173.7740  136.2430 C   0  0  0  0  0  3  0  0  0  0  0  0
  181.8370  174.5060  137.2760 C   0  0  0  0  0  0  0  0  0  0  0  0
  180.6510  174.0090  137.8530 C   0  0  0  0  0  3  0  0  0  0  0  0
  178.9390  172.3510  137.9480 F   0  0  0  0  0  0  0  0  0  0  0  0
  180.7110  172.1020  136.3610 C   0  0  0  0  0  3  0  0  0  0  0  0
  180.0950  172.8100  137.3990 C   0  0  0  0  0  0  0  0  0  0  0  0
  181.8920  172.5830  135.7850 C   0  0  0  0  0  3  0  0  0  0  0  0
  181.1230  182.5650  137.8680 C   0  0  0  0  0  0  0  0  0  0  0  0
  182.3500  182.3670  138.4620 F   0  0  0  0  0  0  0  0  0  0  0  0
  181.1610  183.7090  137.1010 F   0  0  0  0  0  0  0  0  0  0  0  0
  180.1830  182.7370  138.8670 F   0  0  0  0  0  0  0  0  0  0  0  0
  184.3520  178.3740  141.0000 C   0  0  0  0  0  1  0  0  0  0  0  0
  183.4690  177.2860  140.9840 O   0  0  0  0  0  0  0  0  0  0  0  0
  179.8960  179.7380  139.8260 C   0  0  2  0  0  3  0  0  0  0  0  0
  178.9350  181.4960  141.3440 C   0  0  0  0  0  1  0  0  0  0  0  0
  180.7180  180.0840  142.0820 O   0  0  0  0  0  1  0  0  0  0  0  0
  179.5750  180.1220  141.2740 C   0  0  2  0  0  3  0  0  0  0  0  0
  178.9660  178.8000  139.3530 O   0  0  0  0  0  0  0  0  0  0  0  0
  178.9320  177.7900  140.3160 C   0  0  0  0  0  1  0  0  0  0  0  0
  183.7290  177.3570  136.3890 C   0  0  0  0  0  2  0  0  0  0  0  0
  185.5540  175.7950  135.8980 C   0  0  0  0  0  2  0  0  0  0  0  0
  184.3840  176.3240  135.5240 C   0  0  0  0  0  3  0  0  0  0  0  0
  1 12  1  0  0  0  0
  1 29  1  6  0  0  0
  2 14  1  0  0  0  0
  2 15  2  0  0  0  0
  3 10  1  0  0  0  0
  4 13  2  0  0  0  0
  5 28  1  1  0  0  0
  6  8  1  0  0  0  0
  7  9  2  0  0  0  0
  7  4  1  0  0  0  0
  8  1  1  0  0  0  0
 10  5  1  0  0  0  0
 11  9  1  6  0  0  0
 11  2  1  0  0  0  0
 11  6  1  0  0  0  0
 12  5  1  0  0  0  0
 13  6  1  0  0  0  0
 13 23  1  0  0  0  0
 14  3  1  0  0  0  0
 16 17  1  0  0  0  0
 17  3  1  0  0  0  0
 17 18  2  0  0  0  0
 20 21  2  0  0  0  0
 21 18  1  0  0  0  0
 21 19  1  0  0  0  0
 22 16  2  0  0  0  0
 22 20  1  0  0  0  0
 23 24  1  0  0  0  0
 23 26  1  0  0  0  0
 25 23  1  0  0  0  0
 28 27  1  0  0  0  0
 29 33  1  1  0  0  0
 29 32  1  0  0  0  0
 32 30  1  6  0  0  0
 32 31  1  0  0  0  0
 33 34  1  0  0  0  0
 35 14  1  0  0  0  0
 37 36  2  0  0  0  0
 37 35  1  0  0  0  0
M  END
>  <MODEL>
5

>  <REMARK>
 VINA RESULT:      -3.1      2.520      7.303
  Name = 
  8 active torsions:
  status: ('A' for Active; 'I' for Inactive)
    1  A    between atoms: C_1  and  C_5
    2  A    between atoms: C_3  and  C_30
    3  A    between atoms: C_5  and  O_11
    4  A    between atoms: C_5  and  C_23
    5  A    between atoms: C_6  and  N_7
    6  A    between atoms: C_10  and  O_33
    7  A    between atoms: C_14  and  N_31
    8  A    between atoms: C_14  and  C_37
                            x       y       z     vdW  Elec       q    Type
                         _______ _______ _______ _____ _____    ______ ____

>  <TORSDO>
F 8

$$$$
=
 OpenBabel11052415213D

 37 39  0  0  1  0  0  0  0  0999 V2000
  183.1240  178.0240  137.3740 C   0  0  2  0  0  3  0  0  0  0  0  0
  181.2120  175.2100  137.2480 C   0  0  0  0  0  0  0  0  0  0  0  0
  182.6850  174.4310  135.4260 N   0  0  0  0  0  0  0  0  0  0  0  0
  179.1870  177.8620  139.7930 C   0  0  0  0  0  3  0  0  0  0  0  0
  183.6620  176.7230  135.2630 C   0  0  1  0  0  3  0  0  0  0  0  0
  180.7140  177.5300  137.9690 N   0  0  0  0  0  0  0  0  0  0  0  0
  178.9320  176.4180  139.8290 C   0  0  0  0  0  3  0  0  0  0  0  0
  181.6290  178.1260  136.9890 C   0  0  0  0  0  2  0  0  0  0  0  0
  179.3990  175.6260  138.8720 C   0  0  0  0  0  3  0  0  0  0  0  0
  183.6280  175.2910  134.7030 C   0  0  0  0  0  2  0  0  0  0  0  0
  180.1520  176.1820  137.6920 C   0  0  2  0  0  3  0  0  0  0  0  0
  183.8050  176.7800  136.7880 C   0  0  0  0  0  2  0  0  0  0  0  0
  180.0170  178.4020  138.8920 C   0  0  0  0  0  0  0  0  0  0  0  0
  181.4480  174.9640  135.8520 N   0  0  0  0  0  0  0  0  0  0  0  0
  181.9280  174.6370  138.1130 O   0  0  0  0  0  0  0  0  0  0  0  0
  181.9290  172.1030  135.7970 C   0  0  0  0  0  3  0  0  0  0  0  0
  182.9720  173.0270  135.5890 C   0  0  0  0  0  0  0  0  0  0  0  0
  184.3010  172.5620  135.5590 C   0  0  0  0  0  3  0  0  0  0  0  0
  185.8650  170.7690  135.7310 F   0  0  0  0  0  0  0  0  0  0  0  0
  183.5310  170.3000  135.9610 C   0  0  0  0  0  3  0  0  0  0  0  0
  184.5780  171.2030  135.7400 C   0  0  0  0  0  0  0  0  0  0  0  0
  182.2070  170.7500  135.9870 C   0  0  0  0  0  3  0  0  0  0  0  0
  180.1890  179.9080  138.8630 C   0  0  0  0  0  0  0  0  0  0  0  0
  181.3640  180.2640  139.4890 F   0  0  0  0  0  0  0  0  0  0  0  0
  180.2160  180.3350  137.5540 F   0  0  0  0  0  0  0  0  0  0  0  0
  179.1450  180.5430  139.5110 F   0  0  0  0  0  0  0  0  0  0  0  0
  185.8800  177.2460  135.0390 C   0  0  0  0  0  1  0  0  0  0  0  0
  184.5880  177.5580  134.5950 O   0  0  0  0  0  0  0  0  0  0  0  0
  183.4100  178.1880  138.8780 C   0  0  2  0  0  3  0  0  0  0  0  0
  184.9270  179.1640  140.6280 C   0  0  0  0  0  1  0  0  0  0  0  0
  184.2160  180.4730  138.7570 O   0  0  0  0  0  1  0  0  0  0  0  0
  184.5490  179.1740  139.1590 C   0  0  2  0  0  3  0  0  0  0  0  0
  183.6770  176.9490  139.4790 O   0  0  0  0  0  0  0  0  0  0  0  0
  182.8230  176.8790  140.5820 C   0  0  0  0  0  1  0  0  0  0  0  0
  180.5060  175.4490  134.8480 C   0  0  0  0  0  2  0  0  0  0  0  0
  179.1530  173.4260  135.1430 C   0  0  0  0  0  2  0  0  0  0  0  0
  179.1860  174.7540  134.9900 C   0  0  0  0  0  3  0  0  0  0  0  0
  1 29  1  1  0  0  0
  2 11  1  0  0  0  0
  2 15  2  0  0  0  0
  3 17  1  0  0  0  0
  3 14  1  0  0  0  0
  4  7  1  0  0  0  0
  5 28  1  6  0  0  0
  5 12  1  0  0  0  0
  6 13  1  0  0  0  0
  8  1  1  0  0  0  0
  8  6  1  0  0  0  0
  9  7  2  0  0  0  0
 10  5  1  0  0  0  0
 10  3  1  0  0  0  0
 11  6  1  0  0  0  0
 11  9  1  1  0  0  0
 12  1  1  0  0  0  0
 13  4  2  0  0  0  0
 14  2  1  0  0  0  0
 16 22  1  0  0  0  0
 17 16  2  0  0  0  0
 18 17  1  0  0  0  0
 18 21  2  0  0  0  0
 19 21  1  0  0  0  0
 20 22  2  0  0  0  0
 21 20  1  0  0  0  0
 23 13  1  0  0  0  0
 23 24  1  0  0  0  0
 23 26  1  0  0  0  0
 25 23  1  0  0  0  0
 28 27  1  0  0  0  0
 29 32  1  0  0  0  0
 29 33  1  6  0  0  0
 31 32  1  0  0  0  0
 32 30  1  1  0  0  0
 33 34  1  0  0  0  0
 35 37  1  0  0  0  0
 35 14  1  0  0  0  0
 37 36  2  0  0  0  0
M  END
>  <MODEL>
6

>  <REMARK>
 VINA RESULT:      -2.9      2.171      7.065
  Name = 
  8 active torsions:
  status: ('A' for Active; 'I' for Inactive)
    1  A    between atoms: C_1  and  C_5
    2  A    between atoms: C_3  and  C_30
    3  A    between atoms: C_5  and  O_11
    4  A    between atoms: C_5  and  C_23
    5  A    between atoms: C_6  and  N_7
    6  A    between atoms: C_10  and  O_33
    7  A    between atoms: C_14  and  N_31
    8  A    between atoms: C_14  and  C_37
                            x       y       z     vdW  Elec       q    Type
                         _______ _______ _______ _____ _____    ______ ____

>  <TORSDO>
F 8

$$$$
=
 OpenBabel11052415213D

 37 39  0  0  1  0  0  0  0  0999 V2000
  182.3830  178.8790  138.7760 C   0  0  2  0  0  3  0  0  0  0  0  0
  182.6810  176.6870  136.1880 C   0  0  0  0  0  0  0  0  0  0  0  0
  184.9870  176.2680  136.9610 N   0  0  0  0  0  0  0  0  0  0  0  0
  179.0590  178.7150  135.5650 C   0  0  0  0  0  3  0  0  0  0  0  0
  184.8230  178.2530  138.4670 C   0  0  1  0  0  3  0  0  0  0  0  0
  181.2670  178.6990  136.5110 N   0  0  0  0  0  0  0  0  0  0  0  0
  179.3290  177.4150  134.9410 C   0  0  0  0  0  3  0  0  0  0  0  0
  182.2790  179.3900  137.3180 C   0  0  0  0  0  2  0  0  0  0  0  0
  180.5520  176.9000  134.9550 C   0  0  0  0  0  3  0  0  0  0  0  0
  185.7020  177.1140  137.9230 C   0  0  0  0  0  2  0  0  0  0  0  0
  181.7120  177.6500  135.5560 C   0  0  2  0  0  3  0  0  0  0  0  0
  183.4440  177.7850  138.9470 C   0  0  0  0  0  2  0  0  0  0  0  0
  179.9880  179.3440  136.2950 C   0  0  0  0  0  0  0  0  0  0  0  0
  184.0980  176.8650  136.0390 N   0  0  0  0  0  0  0  0  0  0  0  0
  182.2400  175.7370  136.8910 O   0  0  0  0  0  0  0  0  0  0  0  0
  186.5530  174.4200  136.4510 C   0  0  0  0  0  3  0  0  0  0  0  0
  185.2870  174.8590  136.8820 C   0  0  0  0  0  0  0  0  0  0  0  0
  184.3090  173.9020  137.2200 C   0  0  0  0  0  3  0  0  0  0  0  0
  183.6390  171.6220  137.4280 F   0  0  0  0  0  0  0  0  0  0  0  0
  185.8540  172.1170  136.6750 C   0  0  0  0  0  3  0  0  0  0  0  0
  184.5950  172.5360  137.1210 C   0  0  0  0  0  0  0  0  0  0  0  0
  186.8340  173.0590  136.3430 C   0  0  0  0  0  3  0  0  0  0  0  0
  179.6720  180.7140  136.8610 C   0  0  0  0  0  0  0  0  0  0  0  0
  178.9440  180.5910  138.0250 F   0  0  0  0  0  0  0  0  0  0  0  0
  180.8490  181.3800  137.1210 F   0  0  0  0  0  0  0  0  0  0  0  0
  178.9310  181.4650  135.9670 F   0  0  0  0  0  0  0  0  0  0  0  0
  185.0760  178.6800  140.7030 C   0  0  0  0  0  1  0  0  0  0  0  0
  185.4870  179.0620  139.4190 O   0  0  0  0  0  0  0  0  0  0  0  0
  181.0370  178.4900  139.4140 C   0  0  2  0  0  3  0  0  0  0  0  0
  181.3550  178.7640  141.8930 C   0  0  0  0  0  1  0  0  0  0  0  0
  179.3190  179.4420  140.8380 O   0  0  0  0  0  1  0  0  0  0  0  0
  180.7020  179.3350  140.6480 C   0  0  2  0  0  3  0  0  0  0  0  0
  181.0070  177.1240  139.7350 O   0  0  0  0  0  0  0  0  0  0  0  0
  179.8660  176.6190  139.1080 C   0  0  0  0  0  1  0  0  0  0  0  0
  184.6240  177.8220  135.0720 C   0  0  0  0  0  2  0  0  0  0  0  0
  187.0380  178.1750  134.8210 C   0  0  0  0  0  2  0  0  0  0  0  0
  185.9780  177.3920  134.5940 C   0  0  0  0  0  3  0  0  0  0  0  0
  1 12  1  0  0  0  0
  1 29  1  6  0  0  0
  2 15  2  0  0  0  0
  3 10  1  0  0  0  0
  4 13  2  0  0  0  0
  5 12  1  0  0  0  0
  5 28  1  1  0  0  0
  6  8  1  0  0  0  0
  7  9  2  0  0  0  0
  7  4  1  0  0  0  0
  8  1  1  0  0  0  0
 10  5  1  0  0  0  0
 11  9  1  1  0  0  0
 11  2  1  0  0  0  0
 11  6  1  0  0  0  0
 13  6  1  0  0  0  0
 13 23  1  0  0  0  0
 14  2  1  0  0  0  0
 14  3  1  0  0  0  0
 16 17  1  0  0  0  0
 17  3  1  0  0  0  0
 17 18  2  0  0  0  0
 20 21  2  0  0  0  0
 21 18  1  0  0  0  0
 21 19  1  0  0  0  0
 22 16  2  0  0  0  0
 22 20  1  0  0  0  0
 23 25  1  0  0  0  0
 23 24  1  0  0  0  0
 26 23  1  0  0  0  0
 28 27  1  0  0  0  0
 29 33  1  1  0  0  0
 29 32  1  0  0  0  0
 32 31  1  0  0  0  0
 32 30  1  1  0  0  0
 34 33  1  0  0  0  0
 35 14  1  0  0  0  0
 37 36  2  0  0  0  0
 37 35  1  0  0  0  0
M  END
>  <MODEL>
7

>  <REMARK>
 VINA RESULT:      -2.7      2.262      7.133
  Name = 
  8 active torsions:
  status: ('A' for Active; 'I' for Inactive)
    1  A    between atoms: C_1  and  C_5
    2  A    between atoms: C_3  and  C_30
    3  A    between atoms: C_5  and  O_11
    4  A    between atoms: C_5  and  C_23
    5  A    between atoms: C_6  and  N_7
    6  A    between atoms: C_10  and  O_33
    7  A    between atoms: C_14  and  N_31
    8  A    between atoms: C_14  and  C_37
                            x       y       z     vdW  Elec       q    Type
                         _______ _______ _______ _____ _____    ______ ____

>  <TORSDO>
F 8

$$$$
=
 OpenBabel11052415213D

 37 39  0  0  1  0  0  0  0  0999 V2000
  184.1280  178.8640  139.3530 C   0  0  2  0  0  3  0  0  0  0  0  0
  182.7440  176.2540  137.6620 C   0  0  0  0  0  0  0  0  0  0  0  0
  184.9490  175.9250  136.6010 N   0  0  0  0  0  0  0  0  0  0  0  0
  179.5530  178.2210  139.5480 C   0  0  0  0  0  3  0  0  0  0  0  0
  185.6830  178.1420  137.4830 C   0  0  1  0  0  3  0  0  0  0  0  0
  181.7660  178.3210  138.6210 N   0  0  0  0  0  0  0  0  0  0  0  0
  179.4410  176.8280  139.1030 C   0  0  0  0  0  3  0  0  0  0  0  0
  182.9700  179.1190  138.3590 C   0  0  0  0  0  2  0  0  0  0  0  0
  180.3610  176.2960  138.3080 C   0  0  0  0  0  3  0  0  0  0  0  0
  186.0360  176.9080  136.6360 C   0  0  0  0  0  2  0  0  0  0  0  0
  181.5160  177.1140  137.7910 C   0  0  2  0  0  3  0  0  0  0  0  0
  185.1090  177.7930  138.8610 C   0  0  0  0  0  2  0  0  0  0  0  0
  180.6500  178.9470  139.3000 C   0  0  0  0  0  0  0  0  0  0  0  0
  183.6110  176.3730  136.5230 N   0  0  0  0  0  0  0  0  0  0  0  0
  183.0360  175.4490  138.5880 O   0  0  0  0  0  0  0  0  0  0  0  0
  186.3610  173.9870  137.2150 C   0  0  0  0  0  3  0  0  0  0  0  0
  185.2550  174.5170  136.5230 C   0  0  0  0  0  0  0  0  0  0  0  0
  184.4610  173.6560  135.7400 C   0  0  0  0  0  3  0  0  0  0  0  0
  184.0150  171.4790  134.8730 F   0  0  0  0  0  0  0  0  0  0  0  0
  185.8860  171.7880  136.3300 C   0  0  0  0  0  3  0  0  0  0  0  0
  184.7740  172.2960  135.6490 C   0  0  0  0  0  0  0  0  0  0  0  0
  186.6780  172.6330  137.1150 C   0  0  0  0  0  3  0  0  0  0  0  0
  180.6800  180.4000  139.7290 C   0  0  0  0  0  0  0  0  0  0  0  0
  181.7380  181.0500  139.1320 F   0  0  0  0  0  0  0  0  0  0  0  0
  179.4990  181.0050  139.3610 F   0  0  0  0  0  0  0  0  0  0  0  0
  180.8230  180.5130  141.1000 F   0  0  0  0  0  0  0  0  0  0  0  0
  187.8370  178.5910  136.8490 C   0  0  0  0  0  1  0  0  0  0  0  0
  186.7320  179.0890  137.5520 O   0  0  0  0  0  0  0  0  0  0  0  0
  183.6810  178.6190  140.8060 C   0  0  2  0  0  3  0  0  0  0  0  0
  184.2600  179.3130  143.1520 C   0  0  0  0  0  1  0  0  0  0  0  0
  185.7570  179.7560  141.3390 O   0  0  0  0  0  1  0  0  0  0  0  0
  184.8090  178.8420  141.8180 C   0  0  2  0  0  3  0  0  0  0  0  0
  183.1360  177.3350  140.9570 O   0  0  0  0  0  0  0  0  0  0  0  0
  182.0940  177.4780  141.8760 C   0  0  0  0  0  1  0  0  0  0  0  0
  183.1910  177.1380  135.3530 C   0  0  0  0  0  2  0  0  0  0  0  0
  180.8710  177.3830  134.5990 C   0  0  0  0  0  2  0  0  0  0  0  0
  181.9200  176.5770  134.7910 C   0  0  0  0  0  3  0  0  0  0  0  0
  1 29  1  1  0  0  0
  2 11  1  0  0  0  0
  2 15  2  0  0  0  0
  3 10  1  0  0  0  0
  5 28  1  1  0  0  0
  5 12  1  0  0  0  0
  6 13  1  0  0  0  0
  7  4  1  0  0  0  0
  8  6  1  0  0  0  0
  8  1  1  0  0  0  0
  9  7  2  0  0  0  0
 10  5  1  0  0  0  0
 11  9  1  1  0  0  0
 11  6  1  0  0  0  0
 12  1  1  0  0  0  0
 13  4  2  0  0  0  0
 13 23  1  0  0  0  0
 14  3  1  0  0  0  0
 14  2  1  0  0  0  0
 17  3  1  0  0  0  0
 17 16  2  0  0  0  0
 18 17  1  0  0  0  0
 19 21  1  0  0  0  0
 20 22  2  0  0  0  0
 21 18  2  0  0  0  0
 21 20  1  0  0  0  0
 22 16  1  0  0  0  0
 23 26  1  0  0  0  0
 24 23  1  0  0  0  0
 25 23  1  0  0  0  0
 27 28  1  0  0  0  0
 29 33  1  6  0  0  0
 29 32  1  0  0  0  0
 31 32  1  0  0  0  0
 32 30  1  1  0  0  0
 33 34  1  0  0  0  0
 35 14  1  0  0  0  0
 36 37  2  0  0  0  0
 37 35  1  0  0  0  0
M  END
>  <MODEL>
8

>  <REMARK>
 VINA RESULT:      -2.3      2.227      6.950
  Name = 
  8 active torsions:
  status: ('A' for Active; 'I' for Inactive)
    1  A    between atoms: C_1  and  C_5
    2  A    between atoms: C_3  and  C_30
    3  A    between atoms: C_5  and  O_11
    4  A    between atoms: C_5  and  C_23
    5  A    between atoms: C_6  and  N_7
    6  A    between atoms: C_10  and  O_33
    7  A    between atoms: C_14  and  N_31
    8  A    between atoms: C_14  and  C_37
                            x       y       z     vdW  Elec       q    Type
                         _______ _______ _______ _____ _____    ______ ____

>  <TORSDO>
F 8

$$$$
=
 OpenBabel11052415213D

 37 39  0  0  1  0  0  0  0  0999 V2000
  183.6640  178.4430  138.2720 C   0  0  2  0  0  3  0  0  0  0  0  0
  181.4990  175.8830  137.6800 C   0  0  0  0  0  0  0  0  0  0  0  0
  183.1870  174.9680  136.1300 N   0  0  0  0  0  0  0  0  0  0  0  0
  179.3520  178.7110  139.9180 C   0  0  0  0  0  3  0  0  0  0  0  0
  184.4350  177.1270  136.2430 C   0  0  1  0  0  3  0  0  0  0  0  0
  181.1450  178.2320  138.3930 N   0  0  0  0  0  0  0  0  0  0  0  0
  178.9310  177.3070  139.8480 C   0  0  0  0  0  3  0  0  0  0  0  0
  182.2890  178.7320  137.6230 C   0  0  0  0  0  2  0  0  0  0  0  0
  179.4740  176.4830  138.9610 C   0  0  0  0  0  3  0  0  0  0  0  0
  184.3410  175.7210  135.6280 C   0  0  0  0  0  2  0  0  0  0  0  0
  180.4940  176.9670  137.9630 C   0  0  2  0  0  3  0  0  0  0  0  0
  184.2950  177.1380  137.7700 C   0  0  0  0  0  2  0  0  0  0  0  0
  180.3920  179.1640  139.2080 C   0  0  0  0  0  0  0  0  0  0  0  0
  181.9620  175.6370  136.3430 N   0  0  0  0  0  0  0  0  0  0  0  0
  181.9700  175.2110  138.6380 O   0  0  0  0  0  0  0  0  0  0  0  0
  184.5190  172.9170  136.5160 C   0  0  0  0  0  3  0  0  0  0  0  0
  183.2750  173.5360  136.2840 C   0  0  0  0  0  0  0  0  0  0  0  0
  182.1200  172.7350  136.1870 C   0  0  0  0  0  3  0  0  0  0  0  0
  181.0960  170.5810  136.1980 F   0  0  0  0  0  0  0  0  0  0  0  0
  183.4580  170.7450  136.5290 C   0  0  0  0  0  3  0  0  0  0  0  0
  182.2130  171.3460  136.3140 C   0  0  0  0  0  0  0  0  0  0  0  0
  184.6110  171.5310  136.6330 C   0  0  0  0  0  3  0  0  0  0  0  0
  180.7380  180.6380  139.2740 C   0  0  0  0  0  0  0  0  0  0  0  0
  181.5000  180.9960  138.1830 F   0  0  0  0  0  0  0  0  0  0  0  0
  179.5750  181.3760  139.2870 F   0  0  0  0  0  0  0  0  0  0  0  0
  181.4580  180.9320  140.4170 F   0  0  0  0  0  0  0  0  0  0  0  0
  186.7220  177.1540  136.1320 C   0  0  0  0  0  1  0  0  0  0  0  0
  185.5590  177.8580  135.7920 O   0  0  0  0  0  0  0  0  0  0  0  0
  183.6810  178.5430  139.8080 C   0  0  2  0  0  3  0  0  0  0  0  0
  186.1780  178.5030  140.0920 C   0  0  0  0  0  1  0  0  0  0  0  0
  184.7800  179.5870  141.7020 O   0  0  0  0  0  1  0  0  0  0  0  0
  184.9060  179.2940  140.3380 C   0  0  2  0  0  3  0  0  0  0  0  0
  183.5930  177.2720  140.3970 O   0  0  0  0  0  0  0  0  0  0  0  0
  183.0900  177.4910  141.6810 C   0  0  0  0  0  1  0  0  0  0  0  0
  181.2860  176.2520  135.2040 C   0  0  0  0  0  2  0  0  0  0  0  0
  179.1990  174.9670  135.2620 C   0  0  0  0  0  2  0  0  0  0  0  0
  180.3110  175.2920  134.5950 C   0  0  0  0  0  3  0  0  0  0  0  0
  1 29  1  1  0  0  0
  2 11  1  0  0  0  0
  2 15  2  0  0  0  0
  3 17  1  0  0  0  0
  3 14  1  0  0  0  0
  5 28  1  1  0  0  0
  5 12  1  0  0  0  0
  6 13  1  0  0  0  0
  7  4  1  0  0  0  0
  8  1  1  0  0  0  0
  8  6  1  0  0  0  0
  9  7  2  0  0  0  0
 10  3  1  0  0  0  0
 10  5  1  0  0  0  0
 11  6  1  0  0  0  0
 11  9  1  1  0  0  0
 12  1  1  0  0  0  0
 13 23  1  0  0  0  0
 13  4  2  0  0  0  0
 14  2  1  0  0  0  0
 16 22  1  0  0  0  0
 17 16  2  0  0  0  0
 18 17  1  0  0  0  0
 18 21  2  0  0  0  0
 19 21  1  0  0  0  0
 20 22  2  0  0  0  0
 21 20  1  0  0  0  0
 23 25  1  0  0  0  0
 23 26  1  0  0  0  0
 24 23  1  0  0  0  0
 28 27  1  0  0  0  0
 29 32  1  0  0  0  0
 29 33  1  1  0  0  0
 32 30  1  1  0  0  0
 32 31  1  0  0  0  0
 33 34  1  0  0  0  0
 35 14  1  0  0  0  0
 37 35  1  0  0  0  0
 37 36  2  0  0  0  0
M  END
>  <MODEL>
9

>  <REMARK>
 VINA RESULT:      -2.0      1.984      6.956
  Name = 
  8 active torsions:
  status: ('A' for Active; 'I' for Inactive)
    1  A    between atoms: C_1  and  C_5
    2  A    between atoms: C_3  and  C_30
    3  A    between atoms: C_5  and  O_11
    4  A    between atoms: C_5  and  C_23
    5  A    between atoms: C_6  and  N_7
    6  A    between atoms: C_10  and  O_33
    7  A    between atoms: C_14  and  N_31
    8  A    between atoms: C_14  and  C_37
                            x       y       z     vdW  Elec       q    Type
                         _______ _______ _______ _____ _____    ______ ____

>  <TORSDO>
F 8

$$$$
