=
 OpenBabel11052413163D

 31 33  0  0  1  0  0  0  0  0999 V2000
  185.2600  178.5770  140.5330 C   0  0  0  0  0  0  0  0  0  0  0  0
  187.4940  178.3990  139.8090 C   0  0  0  0  0  0  0  0  0  0  0  0
  187.5630  178.4380  141.4890 S   0  0  0  0  0  0  0  0  0  0  0  0
  186.1460  178.5050  139.4360 C   0  0  0  0  0  0  0  0  0  0  0  0
  185.9090  178.5670  141.7770 C   0  0  0  0  0  0  0  0  0  0  0  0
  183.7710  178.6810  140.3750 C   0  0  1  0  0  3  0  0  0  0  0  0
  181.8880  179.8840  139.3020 C   0  0  0  0  0  2  0  0  0  0  0  0
  183.3930  179.6560  139.2630 C   0  0  0  0  0  2  0  0  0  0  0  0
  181.1690  178.6160  139.2190 N   0  0  0  0  0  2  0  0  0  0  0  0
  180.9530  176.3980  139.8860 O   0  0  0  0  0  0  0  0  0  0  0  0
  183.1430  177.3040  140.1500 C   0  0  0  0  0  2  0  0  0  0  0  0
  181.6940  177.4080  139.7800 C   0  0  0  0  0  0  0  0  0  0  0  0
  183.4410  179.1540  144.6090 C   0  0  0  0  0  3  0  0  0  0  0  0
  185.3040  178.6370  143.1310 C   0  0  0  0  0  0  0  0  0  0  0  0
  185.5010  178.2870  145.5320 C   0  0  0  0  0  3  0  0  0  0  0  0
  184.1950  178.7490  145.7130 C   0  0  0  0  0  3  0  0  0  0  0  0
  183.9930  179.0980  143.3270 C   0  0  0  0  0  3  0  0  0  0  0  0
  186.0520  178.2330  144.2480 C   0  0  0  0  0  3  0  0  0  0  0  0
  189.0500  179.0350  138.0610 C   0  0  0  0  0  2  0  0  0  0  0  0
  188.6590  178.1260  138.9460 C   0  0  0  0  0  0  0  0  0  0  0  0
  189.5600  176.9530  139.2030 C   0  0  0  0  0  2  0  0  0  0  0  0
  191.9640  176.7150  139.2630 O   0  0  0  0  0  1  0  0  0  0  0  0
  190.8760  177.3250  139.8930 C   0  0  2  0  0  3  0  0  0  0  0  0
  191.5210  177.7480  143.7000 C   0  0  0  0  0  0  0  0  0  0  0  0
  190.3970  175.9170  141.7500 O   0  0  0  0  0  0  0  0  0  0  0  0
  192.0280  178.6440  144.4220 O   0  0  0  0  0  1  0  0  0  0  0  0
  191.0670  176.5720  144.2870 O   0  0  0  0  0  0  0  0  0  0  0  0
  190.8650  177.0180  141.3570 C   0  0  0  0  0  0  0  0  0  0  0  0
  191.4210  177.9550  142.2880 N   0  0  0  0  0  2  0  0  0  0  0  0
  185.5640  177.4200  137.2840 C   0  0  0  0  0  1  0  0  0  0  0  0
  185.6740  178.5630  138.1190 O   0  0  0  0  0  0  0  0  0  0  0  0
  1  5  2  0  0  0  0
  2  3  1  0  0  0  0
  3  5  1  0  0  0  0
  4  2  2  0  0  0  0
  4  1  1  0  0  0  0
  5 14  1  0  0  0  0
  6  1  1  6  0  0  0
  8  7  1  0  0  0  0
  8  6  1  0  0  0  0
  9  7  1  0  0  0  0
  9 12  1  0  0  0  0
 11  6  1  0  0  0  0
 12 10  2  0  0  0  0
 12 11  1  0  0  0  0
 13 16  1  0  0  0  0
 14 17  1  0  0  0  0
 14 18  2  0  0  0  0
 15 16  2  0  0  0  0
 17 13  2  0  0  0  0
 18 15  1  0  0  0  0
 19 20  2  0  0  0  0
 20 21  1  0  0  0  0
 20  2  1  0  0  0  0
 21 23  1  0  0  0  0
 23 22  1  6  0  0  0
 23 28  1  0  0  0  0
 24 27  2  0  0  0  0
 24 26  1  0  0  0  0
 28 25  2  0  0  0  0
 28 29  1  0  0  0  0
 29 24  1  0  0  0  0
 30 31  1  0  0  0  0
 31  4  1  0  0  0  0
M  END
>  <MODEL>
1

>  <REMARK>
 VINA RESULT:      -8.0      0.000      0.000
  Name = 
  7 active torsions:
  status: ('A' for Active; 'I' for Inactive)
    1  A    between atoms: C_4  and  C_5
    2  A    between atoms: C_9  and  C_15
    3  A    between atoms: C_9  and  C_23
    4  A    between atoms: C_12  and  C_27
    5  A    between atoms: C_19  and  C_22
    6  A    between atoms: C_21  and  O_29
    7  A    between atoms: C_22  and  C_23
                            x       y       z     vdW  Elec       q    Type
                         _______ _______ _______ _____ _____    ______ ____

>  <TORSDO>
F 7

$$$$
=
 OpenBabel11052413163D

 31 33  0  0  1  0  0  0  0  0999 V2000
  189.2970  177.6140  140.0670 C   0  0  0  0  0  0  0  0  0  0  0  0
  189.8440  177.4670  142.3530 C   0  0  0  0  0  0  0  0  0  0  0  0
  191.0150  176.5700  141.5480 S   0  0  0  0  0  0  0  0  0  0  0  0
  188.9530  177.9640  141.3910 C   0  0  0  0  0  0  0  0  0  0  0  0
  190.4410  176.8060  139.9830 C   0  0  0  0  0  0  0  0  0  0  0  0
  188.4980  178.0470  138.8730 C   0  0  1  0  0  3  0  0  0  0  0  0
  188.5090  179.2610  136.7110 C   0  0  0  0  0  2  0  0  0  0  0  0
  189.3910  178.6440  137.7890 C   0  0  0  0  0  2  0  0  0  0  0  0
  187.5600  178.2810  136.1940 N   0  0  0  0  0  2  0  0  0  0  0  0
  186.0380  176.5680  136.6030 O   0  0  0  0  0  0  0  0  0  0  0  0
  187.6500  176.8960  138.3300 C   0  0  0  0  0  2  0  0  0  0  0  0
  187.0120  177.2460  137.0190 C   0  0  0  0  0  0  0  0  0  0  0  0
  191.0900  174.7240  136.8680 C   0  0  0  0  0  3  0  0  0  0  0  0
  191.0840  176.2460  138.7680 C   0  0  0  0  0  0  0  0  0  0  0  0
  192.9590  176.2180  137.2150 C   0  0  0  0  0  3  0  0  0  0  0  0
  192.3360  175.2140  136.4710 C   0  0  0  0  0  3  0  0  0  0  0  0
  190.4690  175.2380  138.0100 C   0  0  0  0  0  3  0  0  0  0  0  0
  192.3370  176.7290  138.3580 C   0  0  0  0  0  3  0  0  0  0  0  0
  190.4780  178.9020  144.2030 C   0  0  0  0  0  2  0  0  0  0  0  0
  189.8960  177.7810  143.7950 C   0  0  0  0  0  0  0  0  0  0  0  0
  189.1030  176.9890  144.7930 C   0  0  0  0  0  2  0  0  0  0  0  0
  189.6690  176.8750  147.1400 O   0  0  0  0  0  1  0  0  0  0  0  0
  189.0170  177.6460  146.1740 C   0  0  2  0  0  3  0  0  0  0  0  0
  185.2710  178.6260  145.8710 C   0  0  0  0  0  0  0  0  0  0  0  0
  187.3120  177.9250  147.8100 O   0  0  0  0  0  0  0  0  0  0  0  0
  184.4960  178.8990  144.9180 O   0  0  0  0  0  0  0  0  0  0  0  0
  184.7930  178.6770  147.1760 O   0  0  0  0  0  1  0  0  0  0  0  0
  187.6080  177.9390  146.5860 C   0  0  0  0  0  0  0  0  0  0  0  0
  186.6280  178.2710  145.5950 N   0  0  0  0  0  2  0  0  0  0  0  0
  186.5900  178.1450  142.1200 C   0  0  0  0  0  1  0  0  0  0  0  0
  187.8050  178.7190  141.6650 O   0  0  0  0  0  0  0  0  0  0  0  0
  1  4  1  0  0  0  0
  2 20  1  0  0  0  0
  3  2  1  0  0  0  0
  4 31  1  0  0  0  0
  4  2  2  0  0  0  0
  5  1  2  0  0  0  0
  5  3  1  0  0  0  0
  6  1  1  1  0  0  0
  7  8  1  0  0  0  0
  8  6  1  0  0  0  0
  9  7  1  0  0  0  0
  9 12  1  0  0  0  0
 10 12  2  0  0  0  0
 11  6  1  0  0  0  0
 12 11  1  0  0  0  0
 13 17  1  0  0  0  0
 14  5  1  0  0  0  0
 15 18  2  0  0  0  0
 16 13  2  0  0  0  0
 16 15  1  0  0  0  0
 17 14  2  0  0  0  0
 18 14  1  0  0  0  0
 20 19  2  0  0  0  0
 20 21  1  0  0  0  0
 21 23  1  0  0  0  0
 23 28  1  0  0  0  0
 23 22  1  1  0  0  0
 24 27  1  0  0  0  0
 26 24  2  0  0  0  0
 28 25  2  0  0  0  0
 29 24  1  0  0  0  0
 29 28  1  0  0  0  0
 31 30  1  0  0  0  0
M  END
>  <MODEL>
2

>  <REMARK>
 VINA RESULT:      -7.9      3.435      7.009
  Name = 
  7 active torsions:
  status: ('A' for Active; 'I' for Inactive)
    1  A    between atoms: C_4  and  C_5
    2  A    between atoms: C_9  and  C_15
    3  A    between atoms: C_9  and  C_23
    4  A    between atoms: C_12  and  C_27
    5  A    between atoms: C_19  and  C_22
    6  A    between atoms: C_21  and  O_29
    7  A    between atoms: C_22  and  C_23
                            x       y       z     vdW  Elec       q    Type
                         _______ _______ _______ _____ _____    ______ ____

>  <TORSDO>
F 7

$$$$
=
 OpenBabel11052413163D

 31 33  0  0  1  0  0  0  0  0999 V2000
  188.4680  177.8570  141.4600 C   0  0  0  0  0  0  0  0  0  0  0  0
  187.9040  178.1330  139.1910 C   0  0  0  0  0  0  0  0  0  0  0  0
  186.4870  178.4210  140.0490 S   0  0  0  0  0  0  0  0  0  0  0  0
  188.9060  177.8140  140.1190 C   0  0  0  0  0  0  0  0  0  0  0  0
  187.1080  178.1730  141.5940 C   0  0  0  0  0  0  0  0  0  0  0  0
  189.3710  177.5660  142.6240 C   0  0  1  0  0  3  0  0  0  0  0  0
  190.7790  175.8790  143.7730 C   0  0  0  0  0  2  0  0  0  0  0  0
  190.0610  176.2130  142.4720 C   0  0  0  0  0  2  0  0  0  0  0  0
  191.6980  176.9510  144.1460 N   0  0  0  0  0  2  0  0  0  0  0  0
  192.1200  179.2280  144.3770 O   0  0  0  0  0  0  0  0  0  0  0  0
  190.3850  178.6920  142.8300 C   0  0  0  0  0  2  0  0  0  0  0  0
  191.4240  178.3240  143.8460 C   0  0  0  0  0  0  0  0  0  0  0  0
  186.0060  177.9090  145.2240 C   0  0  0  0  0  3  0  0  0  0  0  0
  186.3100  178.2970  142.8400 C   0  0  0  0  0  0  0  0  0  0  0  0
  184.2990  179.0760  143.9700 C   0  0  0  0  0  3  0  0  0  0  0  0
  184.7690  178.5570  145.1780 C   0  0  0  0  0  3  0  0  0  0  0  0
  186.7710  177.7810  144.0610 C   0  0  0  0  0  3  0  0  0  0  0  0
  185.0650  178.9450  142.8070 C   0  0  0  0  0  3  0  0  0  0  0  0
  189.0280  179.1310  137.2870 C   0  0  0  0  0  2  0  0  0  0  0  0
  188.0460  178.3610  137.7390 C   0  0  0  0  0  0  0  0  0  0  0  0
  187.2590  177.5570  136.7450 C   0  0  0  0  0  2  0  0  0  0  0  0
  187.9600  175.3560  136.0370 O   0  0  0  0  0  1  0  0  0  0  0  0
  187.2630  176.0520  137.0270 C   0  0  2  0  0  3  0  0  0  0  0  0
  184.4230  173.4290  137.4050 C   0  0  0  0  0  0  0  0  0  0  0  0
  184.9030  176.2850  137.2230 O   0  0  0  0  0  0  0  0  0  0  0  0
  184.3750  172.1740  137.4850 O   0  0  0  0  0  1  0  0  0  0  0  0
  183.2410  174.1610  137.4220 O   0  0  0  0  0  0  0  0  0  0  0  0
  185.8850  175.4950  137.2010 C   0  0  0  0  0  0  0  0  0  0  0  0
  185.6920  174.0790  137.2970 N   0  0  0  0  0  2  0  0  0  0  0  0
  190.5470  176.3170  139.0160 C   0  0  0  0  0  1  0  0  0  0  0  0
  190.2220  177.4570  139.7970 O   0  0  0  0  0  0  0  0  0  0  0  0
  1  5  2  0  0  0  0
  2  3  1  0  0  0  0
  2  4  2  0  0  0  0
  3  5  1  0  0  0  0
  4  1  1  0  0  0  0
  5 14  1  0  0  0  0
  6  1  1  6  0  0  0
  6 11  1  0  0  0  0
  7  9  1  0  0  0  0
  8  6  1  0  0  0  0
  8  7  1  0  0  0  0
 11 12  1  0  0  0  0
 12  9  1  0  0  0  0
 12 10  2  0  0  0  0
 14 17  1  0  0  0  0
 15 16  2  0  0  0  0
 16 13  1  0  0  0  0
 17 13  2  0  0  0  0
 18 14  2  0  0  0  0
 18 15  1  0  0  0  0
 19 20  2  0  0  0  0
 20  2  1  0  0  0  0
 21 23  1  0  0  0  0
 21 20  1  0  0  0  0
 23 22  1  6  0  0  0
 23 28  1  0  0  0  0
 24 27  2  0  0  0  0
 24 26  1  0  0  0  0
 28 25  2  0  0  0  0
 28 29  1  0  0  0  0
 29 24  1  0  0  0  0
 30 31  1  0  0  0  0
 31  4  1  0  0  0  0
M  END
>  <MODEL>
3

>  <REMARK>
 VINA RESULT:      -7.5      2.550      6.712
  Name = 
  7 active torsions:
  status: ('A' for Active; 'I' for Inactive)
    1  A    between atoms: C_4  and  C_5
    2  A    between atoms: C_9  and  C_15
    3  A    between atoms: C_9  and  C_23
    4  A    between atoms: C_12  and  C_27
    5  A    between atoms: C_19  and  C_22
    6  A    between atoms: C_21  and  O_29
    7  A    between atoms: C_22  and  C_23
                            x       y       z     vdW  Elec       q    Type
                         _______ _______ _______ _____ _____    ______ ____

>  <TORSDO>
F 7

$$$$
=
 OpenBabel11052413163D

 31 33  0  0  1  0  0  0  0  0999 V2000
  185.5970  178.5600  140.4640 C   0  0  0  0  0  0  0  0  0  0  0  0
  187.8230  178.2900  139.7440 C   0  0  0  0  0  0  0  0  0  0  0  0
  187.8890  178.3120  141.4230 S   0  0  0  0  0  0  0  0  0  0  0  0
  186.4820  178.4590  139.3680 C   0  0  0  0  0  0  0  0  0  0  0  0
  186.2410  178.5100  141.7090 C   0  0  0  0  0  0  0  0  0  0  0  0
  184.1140  178.7300  140.3040 C   0  0  1  0  0  3  0  0  0  0  0  0
  182.2890  179.9860  139.1920 C   0  0  0  0  0  2  0  0  0  0  0  0
  183.7810  179.6840  139.1600 C   0  0  0  0  0  2  0  0  0  0  0  0
  181.5100  178.7520  139.1520 N   0  0  0  0  0  2  0  0  0  0  0  0
  181.1880  176.5700  139.8940 O   0  0  0  0  0  0  0  0  0  0  0  0
  183.4210  177.3790  140.1260 C   0  0  0  0  0  2  0  0  0  0  0  0
  181.9770  177.5400  139.7540 C   0  0  0  0  0  0  0  0  0  0  0  0
  183.8730  179.3380  144.5660 C   0  0  0  0  0  3  0  0  0  0  0  0
  185.6370  178.5950  143.0630 C   0  0  0  0  0  0  0  0  0  0  0  0
  185.7280  178.0520  145.4340 C   0  0  0  0  0  3  0  0  0  0  0  0
  184.5240  178.7280  145.6410 C   0  0  0  0  0  3  0  0  0  0  0  0
  184.4280  179.2710  143.2850 C   0  0  0  0  0  3  0  0  0  0  0  0
  186.2820  177.9870  144.1520 C   0  0  0  0  0  3  0  0  0  0  0  0
  189.3090  178.8000  137.8960 C   0  0  0  0  0  2  0  0  0  0  0  0
  188.9770  177.9740  138.8800 C   0  0  0  0  0  0  0  0  0  0  0  0
  189.9320  176.8700  139.2310 C   0  0  0  0  0  2  0  0  0  0  0  0
  189.8120  174.9020  137.8340 O   0  0  0  0  0  1  0  0  0  0  0  0
  190.4780  176.1160  138.0150 C   0  0  2  0  0  3  0  0  0  0  0  0
  193.9120  174.3180  137.7600 C   0  0  0  0  0  0  0  0  0  0  0  0
  192.6870  176.8340  138.5290 O   0  0  0  0  0  0  0  0  0  0  0  0
  194.2960  173.1830  137.3790 O   0  0  0  0  0  0  0  0  0  0  0  0
  194.8440  175.2260  138.2500 O   0  0  0  0  0  1  0  0  0  0  0  0
  191.9590  175.9080  138.0830 C   0  0  0  0  0  0  0  0  0  0  0  0
  192.5240  174.6540  137.6840 N   0  0  0  0  0  2  0  0  0  0  0  0
  185.8340  177.4160  137.2150 C   0  0  0  0  0  1  0  0  0  0  0  0
  186.0160  178.5480  138.0510 O   0  0  0  0  0  0  0  0  0  0  0  0
  1  5  2  0  0  0  0
  2  3  1  0  0  0  0
  3  5  1  0  0  0  0
  4  2  2  0  0  0  0
  4  1  1  0  0  0  0
  5 14  1  0  0  0  0
  6  1  1  6  0  0  0
  8  7  1  0  0  0  0
  8  6  1  0  0  0  0
  9  7  1  0  0  0  0
  9 12  1  0  0  0  0
 11  6  1  0  0  0  0
 12 10  2  0  0  0  0
 12 11  1  0  0  0  0
 13 16  1  0  0  0  0
 14 17  1  0  0  0  0
 14 18  2  0  0  0  0
 15 16  2  0  0  0  0
 17 13  2  0  0  0  0
 18 15  1  0  0  0  0
 19 20  2  0  0  0  0
 20 21  1  0  0  0  0
 20  2  1  0  0  0  0
 23 22  1  1  0  0  0
 23 28  1  0  0  0  0
 23 21  1  0  0  0  0
 24 27  1  0  0  0  0
 26 24  2  0  0  0  0
 28 25  2  0  0  0  0
 29 24  1  0  0  0  0
 29 28  1  0  0  0  0
 30 31  1  0  0  0  0
 31  4  1  0  0  0  0
M  END
>  <MODEL>
4

>  <REMARK>
 VINA RESULT:      -7.4      2.260      2.956
  Name = 
  7 active torsions:
  status: ('A' for Active; 'I' for Inactive)
    1  A    between atoms: C_4  and  C_5
    2  A    between atoms: C_9  and  C_15
    3  A    between atoms: C_9  and  C_23
    4  A    between atoms: C_12  and  C_27
    5  A    between atoms: C_19  and  C_22
    6  A    between atoms: C_21  and  O_29
    7  A    between atoms: C_22  and  C_23
                            x       y       z     vdW  Elec       q    Type
                         _______ _______ _______ _____ _____    ______ ____

>  <TORSDO>
F 7

$$$$
=
 OpenBabel11052413163D

 31 33  0  0  1  0  0  0  0  0999 V2000
  188.4620  177.9520  141.7760 C   0  0  0  0  0  0  0  0  0  0  0  0
  187.8970  178.1940  139.5020 C   0  0  0  0  0  0  0  0  0  0  0  0
  186.4740  178.4660  140.3550 S   0  0  0  0  0  0  0  0  0  0  0  0
  188.9030  177.9030  140.4350 C   0  0  0  0  0  0  0  0  0  0  0  0
  187.0960  178.2450  141.9040 C   0  0  0  0  0  0  0  0  0  0  0  0
  189.3680  177.6900  142.9440 C   0  0  1  0  0  3  0  0  0  0  0  0
  190.6850  176.0040  144.1970 C   0  0  0  0  0  2  0  0  0  0  0  0
  189.9630  176.2860  142.8860 C   0  0  0  0  0  2  0  0  0  0  0  0
  191.6800  177.0360  144.4720 N   0  0  0  0  0  2  0  0  0  0  0  0
  192.2580  179.2900  144.5190 O   0  0  0  0  0  0  0  0  0  0  0  0
  190.4580  178.7570  143.0460 C   0  0  0  0  0  2  0  0  0  0  0  0
  191.4920  178.3980  144.0710 C   0  0  0  0  0  0  0  0  0  0  0  0
  185.9790  177.9740  145.5280 C   0  0  0  0  0  3  0  0  0  0  0  0
  186.2940  178.3680  143.1470 C   0  0  0  0  0  0  0  0  0  0  0  0
  184.2820  179.1520  144.2710 C   0  0  0  0  0  3  0  0  0  0  0  0
  184.7450  178.6270  145.4790 C   0  0  0  0  0  3  0  0  0  0  0  0
  186.7480  177.8470  144.3680 C   0  0  0  0  0  3  0  0  0  0  0  0
  185.0520  179.0210  143.1110 C   0  0  0  0  0  3  0  0  0  0  0  0
  188.9640  179.2420  137.5930 C   0  0  0  0  0  2  0  0  0  0  0  0
  188.0380  178.4090  138.0490 C   0  0  0  0  0  0  0  0  0  0  0  0
  187.3250  177.5320  137.0600 C   0  0  0  0  0  2  0  0  0  0  0  0
  187.0090  177.3290  134.6730 O   0  0  0  0  0  1  0  0  0  0  0  0
  187.9690  177.5170  135.6700 C   0  0  2  0  0  3  0  0  0  0  0  0
  190.0870  174.3510  136.4280 C   0  0  0  0  0  0  0  0  0  0  0  0
  189.9970  176.7020  134.7310 O   0  0  0  0  0  0  0  0  0  0  0  0
  189.9820  173.3780  137.2180 O   0  0  0  0  0  1  0  0  0  0  0  0
  191.1950  174.4350  135.5920 O   0  0  0  0  0  0  0  0  0  0  0  0
  189.0650  176.5050  135.5550 C   0  0  0  0  0  0  0  0  0  0  0  0
  189.0670  175.3520  136.4050 N   0  0  0  0  0  2  0  0  0  0  0  0
  190.5790  176.3790  139.4260 C   0  0  0  0  0  1  0  0  0  0  0  0
  190.2260  177.5660  140.1200 O   0  0  0  0  0  0  0  0  0  0  0  0
  1  5  2  0  0  0  0
  2  3  1  0  0  0  0
  2  4  2  0  0  0  0
  3  5  1  0  0  0  0
  4  1  1  0  0  0  0
  5 14  1  0  0  0  0
  6  1  1  6  0  0  0
  6 11  1  0  0  0  0
  7  9  1  0  0  0  0
  8  6  1  0  0  0  0
  8  7  1  0  0  0  0
 11 12  1  0  0  0  0
 12  9  1  0  0  0  0
 12 10  2  0  0  0  0
 14 17  1  0  0  0  0
 15 16  2  0  0  0  0
 16 13  1  0  0  0  0
 17 13  2  0  0  0  0
 18 14  2  0  0  0  0
 18 15  1  0  0  0  0
 19 20  2  0  0  0  0
 20  2  1  0  0  0  0
 21 20  1  0  0  0  0
 23 22  1  6  0  0  0
 23 21  1  0  0  0  0
 24 26  1  0  0  0  0
 25 28  2  0  0  0  0
 27 24  2  0  0  0  0
 28 23  1  0  0  0  0
 28 29  1  0  0  0  0
 29 24  1  0  0  0  0
 30 31  1  0  0  0  0
 31  4  1  0  0  0  0
M  END
>  <MODEL>
5

>  <REMARK>
 VINA RESULT:      -7.3      3.142      6.370
  Name = 
  7 active torsions:
  status: ('A' for Active; 'I' for Inactive)
    1  A    between atoms: C_4  and  C_5
    2  A    between atoms: C_9  and  C_15
    3  A    between atoms: C_9  and  C_23
    4  A    between atoms: C_12  and  C_27
    5  A    between atoms: C_19  and  C_22
    6  A    between atoms: C_21  and  O_29
    7  A    between atoms: C_22  and  C_23
                            x       y       z     vdW  Elec       q    Type
                         _______ _______ _______ _____ _____    ______ ____

>  <TORSDO>
F 7

$$$$
=
 OpenBabel11052413163D

 31 33  0  0  1  0  0  0  0  0999 V2000
  186.6370  178.2470  142.1120 C   0  0  0  0  0  0  0  0  0  0  0  0
  188.1610  178.2140  140.3170 C   0  0  0  0  0  0  0  0  0  0  0  0
  189.0600  177.8220  141.6830 S   0  0  0  0  0  0  0  0  0  0  0  0
  186.8390  178.4390  140.7280 C   0  0  0  0  0  0  0  0  0  0  0  0
  187.8080  177.9060  142.8060 C   0  0  0  0  0  0  0  0  0  0  0  0
  185.3000  178.4170  142.7730 C   0  0  1  0  0  3  0  0  0  0  0  0
  183.9280  179.7660  144.3370 C   0  0  0  0  0  2  0  0  0  0  0  0
  185.2070  179.7500  143.5100 C   0  0  0  0  0  2  0  0  0  0  0  0
  182.7660  179.4950  143.4970 N   0  0  0  0  0  2  0  0  0  0  0  0
  181.7760  178.2450  141.8020 O   0  0  0  0  0  0  0  0  0  0  0  0
  184.1620  178.2530  141.7660 C   0  0  0  0  0  2  0  0  0  0  0  0
  182.8360  178.6270  142.3600 C   0  0  0  0  0  0  0  0  0  0  0  0
  189.3730  177.3950  146.2330 C   0  0  0  0  0  3  0  0  0  0  0  0
  187.9730  177.6400  144.2570 C   0  0  0  0  0  0  0  0  0  0  0  0
  186.9770  177.1280  146.4180 C   0  0  0  0  0  3  0  0  0  0  0  0
  188.2420  177.1350  147.0100 C   0  0  0  0  0  3  0  0  0  0  0  0
  189.2380  177.6450  144.8640 C   0  0  0  0  0  3  0  0  0  0  0  0
  186.8450  177.3770  145.0490 C   0  0  0  0  0  3  0  0  0  0  0  0
  189.0560  179.2620  138.3210 C   0  0  0  0  0  2  0  0  0  0  0  0
  188.6890  178.1470  138.9400 C   0  0  0  0  0  0  0  0  0  0  0  0
  189.0460  176.8340  138.3070 C   0  0  0  0  0  2  0  0  0  0  0  0
  189.6900  176.7040  135.9820 O   0  0  0  0  0  1  0  0  0  0  0  0
  190.1720  176.9330  137.2730 C   0  0  2  0  0  3  0  0  0  0  0  0
  193.7960  175.5350  137.2980 C   0  0  0  0  0  0  0  0  0  0  0  0
  191.1070  174.9630  138.2240 O   0  0  0  0  0  0  0  0  0  0  0  0
  194.9020  175.9240  136.8430 O   0  0  0  0  0  0  0  0  0  0  0  0
  193.7210  174.3200  137.9680 O   0  0  0  0  0  1  0  0  0  0  0  0
  191.3210  176.0250  137.5830 C   0  0  0  0  0  0  0  0  0  0  0  0
  192.6350  176.3510  137.1150 N   0  0  0  0  0  2  0  0  0  0  0  0
  185.5400  178.2510  138.6240 C   0  0  0  0  0  1  0  0  0  0  0  0
  185.7900  178.8410  139.8910 O   0  0  0  0  0  0  0  0  0  0  0  0
  1  5  2  0  0  0  0
  2  4  2  0  0  0  0
  2  3  1  0  0  0  0
  3  5  1  0  0  0  0
  4  1  1  0  0  0  0
  5 14  1  0  0  0  0
  6  1  1  6  0  0  0
  6  8  1  0  0  0  0
  8  7  1  0  0  0  0
  9  7  1  0  0  0  0
 10 12  2  0  0  0  0
 11 12  1  0  0  0  0
 11  6  1  0  0  0  0
 12  9  1  0  0  0  0
 13 16  1  0  0  0  0
 14 17  1  0  0  0  0
 14 18  2  0  0  0  0
 15 16  2  0  0  0  0
 17 13  2  0  0  0  0
 18 15  1  0  0  0  0
 19 20  2  0  0  0  0
 20  2  1  0  0  0  0
 21 20  1  0  0  0  0
 23 22  1  6  0  0  0
 23 28  1  0  0  0  0
 23 21  1  0  0  0  0
 24 27  1  0  0  0  0
 26 24  2  0  0  0  0
 28 25  2  0  0  0  0
 29 24  1  0  0  0  0
 29 28  1  0  0  0  0
 30 31  1  0  0  0  0
 31  4  1  0  0  0  0
M  END
>  <MODEL>
6

>  <REMARK>
 VINA RESULT:      -7.2      2.860      3.990
  Name = 
  7 active torsions:
  status: ('A' for Active; 'I' for Inactive)
    1  A    between atoms: C_4  and  C_5
    2  A    between atoms: C_9  and  C_15
    3  A    between atoms: C_9  and  C_23
    4  A    between atoms: C_12  and  C_27
    5  A    between atoms: C_19  and  C_22
    6  A    between atoms: C_21  and  O_29
    7  A    between atoms: C_22  and  C_23
                            x       y       z     vdW  Elec       q    Type
                         _______ _______ _______ _____ _____    ______ ____

>  <TORSDO>
F 7

$$$$
=
 OpenBabel11052413163D

 31 33  0  0  1  0  0  0  0  0999 V2000
  188.0930  178.1600  141.3310 C   0  0  0  0  0  0  0  0  0  0  0  0
  188.6330  177.8500  139.0600 C   0  0  0  0  0  0  0  0  0  0  0  0
  190.0170  177.4280  139.9180 S   0  0  0  0  0  0  0  0  0  0  0  0
  187.6630  178.2520  139.9890 C   0  0  0  0  0  0  0  0  0  0  0  0
  189.4180  177.7210  141.4640 C   0  0  0  0  0  0  0  0  0  0  0  0
  187.2180  178.5230  142.4960 C   0  0  1  0  0  3  0  0  0  0  0  0
  185.0000  179.3500  143.2330 C   0  0  0  0  0  2  0  0  0  0  0  0
  185.7780  178.7750  142.0570 C   0  0  0  0  0  2  0  0  0  0  0  0
  185.0980  178.4750  144.3970 N   0  0  0  0  0  2  0  0  0  0  0  0
  186.4020  177.1350  145.7820 O   0  0  0  0  0  0  0  0  0  0  0  0
  187.2910  177.4600  143.5930 C   0  0  0  0  0  2  0  0  0  0  0  0
  186.2700  177.6960  144.6650 C   0  0  0  0  0  0  0  0  0  0  0  0
  191.3120  178.3800  144.6940 C   0  0  0  0  0  3  0  0  0  0  0  0
  190.1990  177.5160  142.7100 C   0  0  0  0  0  0  0  0  0  0  0  0
  191.3030  176.0010  144.2630 C   0  0  0  0  0  3  0  0  0  0  0  0
  191.6750  177.0830  145.0640 C   0  0  0  0  0  3  0  0  0  0  0  0
  190.5790  178.5940  143.5240 C   0  0  0  0  0  3  0  0  0  0  0  0
  190.5710  176.2170  143.0920 C   0  0  0  0  0  3  0  0  0  0  0  0
  188.7600  178.6350  136.7690 C   0  0  0  0  0  2  0  0  0  0  0  0
  188.4740  177.6470  137.6070 C   0  0  0  0  0  0  0  0  0  0  0  0
  188.2280  176.2810  137.0350 C   0  0  0  0  0  2  0  0  0  0  0  0
  188.8920  174.7220  135.3130 O   0  0  0  0  0  1  0  0  0  0  0  0
  189.3280  175.8020  136.0830 C   0  0  2  0  0  3  0  0  0  0  0  0
  193.0640  175.9980  137.1270 C   0  0  0  0  0  0  0  0  0  0  0  0
  190.6300  174.4830  137.5740 O   0  0  0  0  0  0  0  0  0  0  0  0
  194.0290  176.7530  136.8430 O   0  0  0  0  0  0  0  0  0  0  0  0
  193.2650  174.9280  137.9930 O   0  0  0  0  0  1  0  0  0  0  0  0
  190.6020  175.4720  136.7940 C   0  0  0  0  0  0  0  0  0  0  0  0
  191.7790  176.2520  136.5530 N   0  0  0  0  0  2  0  0  0  0  0  0
  185.5880  178.1750  138.6340 C   0  0  0  0  0  1  0  0  0  0  0  0
  186.3860  178.7300  139.6690 O   0  0  0  0  0  0  0  0  0  0  0  0
  1  5  2  0  0  0  0
  2  3  1  0  0  0  0
  2  4  2  0  0  0  0
  3  5  1  0  0  0  0
  4  1  1  0  0  0  0
  5 14  1  0  0  0  0
  6  1  1  6  0  0  0
  6 11  1  0  0  0  0
  7  9  1  0  0  0  0
  8  6  1  0  0  0  0
  8  7  1  0  0  0  0
  9 12  1  0  0  0  0
 11 12  1  0  0  0  0
 12 10  2  0  0  0  0
 13 16  1  0  0  0  0
 14 18  2  0  0  0  0
 14 17  1  0  0  0  0
 15 16  2  0  0  0  0
 17 13  2  0  0  0  0
 18 15  1  0  0  0  0
 19 20  2  0  0  0  0
 20  2  1  0  0  0  0
 21 20  1  0  0  0  0
 23 22  1  1  0  0  0
 23 28  1  0  0  0  0
 23 21  1  0  0  0  0
 24 27  1  0  0  0  0
 26 24  2  0  0  0  0
 28 25  2  0  0  0  0
 29 28  1  0  0  0  0
 29 24  1  0  0  0  0
 30 31  1  0  0  0  0
 31  4  1  0  0  0  0
M  END
>  <MODEL>
7

>  <REMARK>
 VINA RESULT:      -7.2      3.123      5.189
  Name = 
  7 active torsions:
  status: ('A' for Active; 'I' for Inactive)
    1  A    between atoms: C_4  and  C_5
    2  A    between atoms: C_9  and  C_15
    3  A    between atoms: C_9  and  C_23
    4  A    between atoms: C_12  and  C_27
    5  A    between atoms: C_19  and  C_22
    6  A    between atoms: C_21  and  O_29
    7  A    between atoms: C_22  and  C_23
                            x       y       z     vdW  Elec       q    Type
                         _______ _______ _______ _____ _____    ______ ____

>  <TORSDO>
F 7

$$$$
=
 OpenBabel11052413163D

 31 33  0  0  1  0  0  0  0  0999 V2000
  187.4990  177.9090  142.3850 C   0  0  0  0  0  0  0  0  0  0  0  0
  185.9470  178.4330  140.6930 C   0  0  0  0  0  0  0  0  0  0  0  0
  185.1260  178.6470  142.1440 S   0  0  0  0  0  0  0  0  0  0  0  0
  187.2470  178.0030  140.9990 C   0  0  0  0  0  0  0  0  0  0  0  0
  186.3870  178.2280  143.1790 C   0  0  0  0  0  0  0  0  0  0  0  0
  188.8240  177.4840  142.9470 C   0  0  1  0  0  3  0  0  0  0  0  0
  190.6780  175.8400  142.8460 C   0  0  0  0  0  2  0  0  0  0  0  0
  189.4580  176.3770  142.1090 C   0  0  0  0  0  2  0  0  0  0  0  0
  191.6070  176.9200  143.1650 N   0  0  0  0  0  2  0  0  0  0  0  0
  191.9610  179.0830  143.9440 O   0  0  0  0  0  0  0  0  0  0  0  0
  189.7660  178.6790  143.1020 C   0  0  0  0  0  2  0  0  0  0  0  0
  191.1570  178.2470  143.4590 C   0  0  0  0  0  0  0  0  0  0  0  0
  187.0760  177.5340  146.8530 C   0  0  0  0  0  3  0  0  0  0  0  0
  186.2830  178.2300  144.6590 C   0  0  0  0  0  0  0  0  0  0  0  0
  185.1430  178.9750  146.6770 C   0  0  0  0  0  3  0  0  0  0  0  0
  186.0520  178.2630  147.4610 C   0  0  0  0  0  3  0  0  0  0  0  0
  187.1900  177.5190  145.4600 C   0  0  0  0  0  3  0  0  0  0  0  0
  185.2570  178.9570  145.2840 C   0  0  0  0  0  3  0  0  0  0  0  0
  185.8520  178.2160  138.2790 C   0  0  0  0  0  2  0  0  0  0  0  0
  185.4000  178.8110  139.3760 C   0  0  0  0  0  0  0  0  0  0  0  0
  184.1790  179.6770  139.2600 C   0  0  0  0  0  2  0  0  0  0  0  0
  182.2290  179.5560  137.8390 O   0  0  0  0  0  1  0  0  0  0  0  0
  182.9110  178.9100  138.8720 C   0  0  2  0  0  3  0  0  0  0  0  0
  180.4570  179.6560  141.7880 C   0  0  0  0  0  0  0  0  0  0  0  0
  181.9080  177.4970  140.5020 O   0  0  0  0  0  0  0  0  0  0  0  0
  179.8840  180.6860  142.2280 O   0  0  0  0  0  0  0  0  0  0  0  0
  180.2610  178.4380  142.4300 O   0  0  0  0  0  1  0  0  0  0  0  0
  182.0070  178.6650  140.0380 C   0  0  0  0  0  0  0  0  0  0  0  0
  181.3000  179.7570  140.6380 N   0  0  0  0  0  2  0  0  0  0  0  0
  189.0530  178.6260  139.4190 C   0  0  0  0  0  1  0  0  0  0  0  0
  188.2290  177.6640  140.0600 O   0  0  0  0  0  0  0  0  0  0  0  0
  1  5  2  0  0  0  0
  2  4  2  0  0  0  0
  2  3  1  0  0  0  0
  3  5  1  0  0  0  0
  4  1  1  0  0  0  0
  5 14  1  0  0  0  0
  6  1  1  6  0  0  0
  6 11  1  0  0  0  0
  7  9  1  0  0  0  0
  8  7  1  0  0  0  0
  8  6  1  0  0  0  0
  9 12  1  0  0  0  0
 11 12  1  0  0  0  0
 12 10  2  0  0  0  0
 13 16  1  0  0  0  0
 14 18  2  0  0  0  0
 14 17  1  0  0  0  0
 15 16  2  0  0  0  0
 17 13  2  0  0  0  0
 18 15  1  0  0  0  0
 19 20  2  0  0  0  0
 20  2  1  0  0  0  0
 21 20  1  0  0  0  0
 23 22  1  6  0  0  0
 23 21  1  0  0  0  0
 23 28  1  0  0  0  0
 24 26  2  0  0  0  0
 24 27  1  0  0  0  0
 28 25  2  0  0  0  0
 28 29  1  0  0  0  0
 29 24  1  0  0  0  0
 30 31  1  0  0  0  0
 31  4  1  0  0  0  0
M  END
>  <MODEL>
8

>  <REMARK>
 VINA RESULT:      -7.1      2.035      7.274
  Name = 
  7 active torsions:
  status: ('A' for Active; 'I' for Inactive)
    1  A    between atoms: C_4  and  C_5
    2  A    between atoms: C_9  and  C_15
    3  A    between atoms: C_9  and  C_23
    4  A    between atoms: C_12  and  C_27
    5  A    between atoms: C_19  and  C_22
    6  A    between atoms: C_21  and  O_29
    7  A    between atoms: C_22  and  C_23
                            x       y       z     vdW  Elec       q    Type
                         _______ _______ _______ _____ _____    ______ ____

>  <TORSDO>
F 7

$$$$
=
 OpenBabel11052413163D

 31 33  0  0  1  0  0  0  0  0999 V2000
  188.6740  177.6780  140.6050 C   0  0  0  0  0  0  0  0  0  0  0  0
  188.3310  177.4440  142.9230 C   0  0  0  0  0  0  0  0  0  0  0  0
  189.9100  176.9400  142.6450 S   0  0  0  0  0  0  0  0  0  0  0  0
  187.7750  177.8030  141.6870 C   0  0  0  0  0  0  0  0  0  0  0  0
  189.9320  177.1830  140.9790 C   0  0  0  0  0  0  0  0  0  0  0  0
  188.3030  178.0210  139.1920 C   0  0  1  0  0  3  0  0  0  0  0  0
  188.8390  179.3800  137.1880 C   0  0  0  0  0  2  0  0  0  0  0  0
  189.3710  178.8860  138.5280 C   0  0  0  0  0  2  0  0  0  0  0  0
  188.4120  178.2590  136.3560 N   0  0  0  0  0  2  0  0  0  0  0  0
  187.2970  176.2260  136.1650 O   0  0  0  0  0  0  0  0  0  0  0  0
  188.0170  176.7590  138.3760 C   0  0  0  0  0  2  0  0  0  0  0  0
  187.8540  177.0660  136.9170 C   0  0  0  0  0  0  0  0  0  0  0  0
  193.4620  177.2150  139.5670 C   0  0  0  0  0  3  0  0  0  0  0  0
  191.1090  176.9160  140.1150 C   0  0  0  0  0  0  0  0  0  0  0  0
  192.0720  175.8150  138.1690 C   0  0  0  0  0  3  0  0  0  0  0  0
  193.3150  176.3820  138.4550 C   0  0  0  0  0  3  0  0  0  0  0  0
  192.3650  177.4790  140.3910 C   0  0  0  0  0  3  0  0  0  0  0  0
  190.9750  176.0820  138.9940 C   0  0  0  0  0  3  0  0  0  0  0  0
  186.5950  177.0360  144.5680 C   0  0  0  0  0  2  0  0  0  0  0  0
  187.7500  177.6180  144.2690 C   0  0  0  0  0  0  0  0  0  0  0  0
  188.5410  178.2370  145.3840 C   0  0  0  0  0  2  0  0  0  0  0  0
  187.5800  178.0760  147.5950 O   0  0  0  0  0  1  0  0  0  0  0  0
  188.4620  177.4610  146.7030 C   0  0  2  0  0  3  0  0  0  0  0  0
  192.0260  176.0280  147.2780 C   0  0  0  0  0  0  0  0  0  0  0  0
  190.0770  177.8600  148.4040 O   0  0  0  0  0  0  0  0  0  0  0  0
  192.7680  175.2170  146.6670 O   0  0  0  0  0  0  0  0  0  0  0  0
  192.4670  176.5970  148.4680 O   0  0  0  0  0  1  0  0  0  0  0  0
  189.8030  177.2560  147.3320 C   0  0  0  0  0  0  0  0  0  0  0  0
  190.7410  176.3500  146.7380 N   0  0  0  0  0  2  0  0  0  0  0  0
  185.9590  179.4680  141.9670 C   0  0  0  0  0  1  0  0  0  0  0  0
  186.4550  178.2280  141.4870 O   0  0  0  0  0  0  0  0  0  0  0  0
  1  5  2  0  0  0  0
  1  4  1  0  0  0  0
  2 20  1  0  0  0  0
  3  2  1  0  0  0  0
  4  2  2  0  0  0  0
  5  3  1  0  0  0  0
  6  1  1  1  0  0  0
  7  8  1  0  0  0  0
  8  6  1  0  0  0  0
  9 12  1  0  0  0  0
  9  7  1  0  0  0  0
 10 12  2  0  0  0  0
 11  6  1  0  0  0  0
 12 11  1  0  0  0  0
 13 17  1  0  0  0  0
 14 17  2  0  0  0  0
 14  5  1  0  0  0  0
 15 16  1  0  0  0  0
 15 18  2  0  0  0  0
 16 13  2  0  0  0  0
 18 14  1  0  0  0  0
 20 19  2  0  0  0  0
 20 21  1  0  0  0  0
 21 23  1  0  0  0  0
 23 28  1  0  0  0  0
 23 22  1  1  0  0  0
 24 27  1  0  0  0  0
 26 24  2  0  0  0  0
 28 25  2  0  0  0  0
 29 24  1  0  0  0  0
 29 28  1  0  0  0  0
 31  4  1  0  0  0  0
 31 30  1  0  0  0  0
M  END
>  <MODEL>
9

>  <REMARK>
 VINA RESULT:      -7.1      3.491      6.679
  Name = 
  7 active torsions:
  status: ('A' for Active; 'I' for Inactive)
    1  A    between atoms: C_4  and  C_5
    2  A    between atoms: C_9  and  C_15
    3  A    between atoms: C_9  and  C_23
    4  A    between atoms: C_12  and  C_27
    5  A    between atoms: C_19  and  C_22
    6  A    between atoms: C_21  and  O_29
    7  A    between atoms: C_22  and  C_23
                            x       y       z     vdW  Elec       q    Type
                         _______ _______ _______ _____ _____    ______ ____

>  <TORSDO>
F 7

$$$$
