=
 OpenBabel11052417043D

 32 31  0  0  1  0  0  0  0  0999 V2000
  188.7800  176.9350  142.1770 C   0  0  2  0  0  3  0  0  0  0  0  0
  190.1860  176.4980  142.2580 N   0  0  0  0  0  0  0  0  0  0  0  0
  191.9420  177.5290  141.1090 O   0  0  0  0  0  1  0  0  0  0  0  0
  191.0710  177.6610  142.1910 C   0  0  0  0  0  2  0  0  0  0  0  0
  190.4510  175.7870  143.5200 C   0  0  0  0  0  2  0  0  0  0  0  0
  191.2720  176.6090  144.5170 C   0  0  0  0  0  2  0  0  0  0  0  0
  191.9180  175.7230  145.4680 N   0  0  0  0  0  2  0  0  0  0  0  0
  191.8930  176.3930  146.7570 C   0  0  0  0  0  2  0  0  0  0  0  0
  190.4630  176.7330  147.1200 C   0  0  0  0  0  1  0  0  0  0  0  0
  188.6670  178.4480  141.9370 C   0  0  0  0  0  2  0  0  0  0  0  0
  188.0380  178.7310  140.6530 N   0  0  0  0  0  0  0  0  0  0  0  0
  188.3550  177.7030  139.8270 O   0  0  0  0  0  0  0  0  0  0  0  0
  189.1870  178.2650  138.8560 C   0  0  0  0  0  1  0  0  0  0  0  0
  186.6030  178.6710  140.8730 C   0  0  0  0  0  2  0  0  0  0  0  0
  185.9330  178.9540  139.6830 O   0  0  0  0  0  0  0  0  0  0  0  0
  184.5910  179.0530  140.0500 C   0  0  0  0  0  2  0  0  0  0  0  0
  183.7430  178.6440  138.9380 N   0  0  0  0  0  0  0  0  0  0  0  0
  182.6420  179.5910  138.8340 C   0  0  0  0  0  1  0  0  0  0  0  0
  183.2150  177.2880  139.1560 C   0  0  0  0  0  2  0  0  0  0  0  0
  183.2200  175.0210  138.3580 O   0  0  0  0  0  1  0  0  0  0  0  0
  183.3820  176.3480  137.9570 C   0  0  0  0  0  2  0  0  0  0  0  0
  188.0070  176.5580  143.4430 C   0  0  0  0  0  2  0  0  0  0  0  0
  187.3450  177.6770  143.9480 O   0  0  0  0  0  0  0  0  0  0  0  0
  187.6420  177.6760  145.3110 C   0  0  0  0  0  2  0  0  0  0  0  0
  186.3580  177.6000  146.1230 C   0  0  0  0  0  2  0  0  0  0  0  0
  185.6630  178.9510  146.1720 C   0  0  0  0  0  2  0  0  0  0  0  0
  184.2470  178.7940  145.8810 N   0  0  0  0  0  2  0  0  0  0  0  0
  183.7140  179.0190  144.5760 C   0  0  0  0  0  0  0  0  0  0  0  0
  182.3150  178.8420  144.3530 N   0  0  0  0  0  2  0  0  0  0  0  0
  184.4710  179.3680  143.6300 O   0  0  0  0  0  0  0  0  0  0  0  0
  181.7100  179.0530  143.0480 C   0  0  0  0  0  2  0  0  0  0  0  0
  180.2810  178.5550  143.0680 C   0  0  0  0  0  1  0  0  0  0  0  0
  1 10  1  1  0  0  0
  1  2  1  0  0  0  0
  1 22  1  0  0  0  0
  2  5  1  0  0  0  0
  3  4  1  0  0  0  0
  4  2  1  0  0  0  0
  5  6  1  0  0  0  0
  6  7  1  0  0  0  0
  7  8  1  0  0  0  0
  8  9  1  0  0  0  0
 11 14  1  0  0  0  0
 11 10  1  0  0  0  0
 12 11  1  0  0  0  0
 13 12  1  0  0  0  0
 15 16  1  0  0  0  0
 15 14  1  0  0  0  0
 17 19  1  0  0  0  0
 17 16  1  0  0  0  0
 18 17  1  0  0  0  0
 21 20  1  0  0  0  0
 21 19  1  0  0  0  0
 22 23  1  0  0  0  0
 23 24  1  0  0  0  0
 24 25  1  0  0  0  0
 25 26  1  0  0  0  0
 27 26  1  0  0  0  0
 28 27  1  0  0  0  0
 29 28  1  0  0  0  0
 30 28  2  0  0  0  0
 31 32  1  0  0  0  0
 31 29  1  0  0  0  0
M  END
>  <MODEL>
1

>  <REMARK>
 VINA RESULT:      -5.5      0.000      0.000
  Name = 
  22 active torsions:
  status: ('A' for Active; 'I' for Inactive)
    1  A    between atoms: C_1  and  N_20
    2  A    between atoms: C_2  and  C_12
    3  A    between atoms: C_2  and  O_23
    4  A    between atoms: N_4  and  C_5
    5  A    between atoms: N_4  and  C_15
    6  A    between atoms: O_6  and  N_31
    7  A    between atoms: C_8  and  O_23
    8  A    between atoms: C_8  and  C_28
    9  A    between atoms: C_9  and  N_10
   10  A    between atoms: C_9  and  C_12
   11  A    between atoms: N_11  and  C_18
   12  A    between atoms: N_11  and  C_32
   13  A    between atoms: C_13  and  C_28
   14  A    between atoms: C_13  and  N_31
   15  A    between atoms: N_14  and  C_21
   16  A    between atoms: N_14  and  C_26
   17  A    between atoms: N_14  and  C_28
   18  A    between atoms: C_15  and  C_26
   19  A    between atoms: C_16  and  O_27
   20  A    between atoms: C_16  and  N_31
   21  A    between atoms: C_18  and  C_22
   22  A    between atoms: O_27  and  C_32
                            x       y       z     vdW  Elec       q    Type
                         _______ _______ _______ _____ _____    ______ ____

>  <TORSDO>
F 22

$$$$
=
 OpenBabel11052417043D

 32 31  0  0  1  0  0  0  0  0999 V2000
  188.5030  177.7420  140.3080 C   0  0  2  0  0  3  0  0  0  0  0  0
  189.5950  176.9190  140.8600 N   0  0  0  0  0  0  0  0  0  0  0  0
  191.8330  177.5760  140.6800 O   0  0  0  0  0  1  0  0  0  0  0  0
  190.7670  177.0000  139.9870 C   0  0  0  0  0  2  0  0  0  0  0  0
  189.9850  177.3800  142.2030 C   0  0  0  0  0  2  0  0  0  0  0  0
  189.9070  176.2820  143.2670 C   0  0  0  0  0  2  0  0  0  0  0  0
  190.1840  176.8470  144.5750 N   0  0  0  0  0  2  0  0  0  0  0  0
  191.5890  176.6050  144.8530 C   0  0  0  0  0  2  0  0  0  0  0  0
  191.7670  176.3050  146.3270 C   0  0  0  0  0  1  0  0  0  0  0  0
  188.8900  178.3710  138.9610 C   0  0  0  0  0  2  0  0  0  0  0  0
  187.7090  178.7820  138.2150 N   0  0  0  0  0  0  0  0  0  0  0  0
  188.1460  179.2690  137.0270 O   0  0  0  0  0  0  0  0  0  0  0  0
  189.0820  178.3360  136.5780 C   0  0  0  0  0  1  0  0  0  0  0  0
  186.9580  177.5710  137.9260 C   0  0  0  0  0  2  0  0  0  0  0  0
  185.6710  177.9060  137.5070 O   0  0  0  0  0  0  0  0  0  0  0  0
  185.0880  178.5180  138.6180 C   0  0  0  0  0  2  0  0  0  0  0  0
  183.6500  178.2810  138.6150 N   0  0  0  0  0  0  0  0  0  0  0  0
  182.9790  179.5550  138.8320 C   0  0  0  0  0  1  0  0  0  0  0  0
  183.2760  177.3330  139.6760 C   0  0  0  0  0  2  0  0  0  0  0  0
  181.0290  176.6300  139.1950 O   0  0  0  0  0  1  0  0  0  0  0  0
  181.7980  177.3900  140.0780 C   0  0  0  0  0  2  0  0  0  0  0  0
  188.0880  178.8420  141.2870 C   0  0  0  0  0  2  0  0  0  0  0  0
  186.6970  178.8950  141.3820 O   0  0  0  0  0  0  0  0  0  0  0  0
  186.4010  178.2430  142.5790 C   0  0  0  0  0  2  0  0  0  0  0  0
  184.9500  178.4930  142.9610 C   0  0  0  0  0  2  0  0  0  0  0  0
  184.8020  178.6520  144.4660 C   0  0  0  0  0  2  0  0  0  0  0  0
  185.8940  177.9780  145.1490 N   0  0  0  0  0  2  0  0  0  0  0  0
  186.2700  178.3100  146.4850 C   0  0  0  0  0  0  0  0  0  0  0  0
  187.3470  177.6070  147.1040 N   0  0  0  0  0  2  0  0  0  0  0  0
  185.6550  179.2140  147.1140 O   0  0  0  0  0  0  0  0  0  0  0  0
  187.7770  177.8950  148.4610 C   0  0  0  0  0  2  0  0  0  0  0  0
  189.2440  178.2680  148.4580 C   0  0  0  0  0  1  0  0  0  0  0  0
  1 10  1  6  0  0  0
  1  2  1  0  0  0  0
  1 22  1  0  0  0  0
  2  5  1  0  0  0  0
  4  3  1  0  0  0  0
  4  2  1  0  0  0  0
  5  6  1  0  0  0  0
  6  7  1  0  0  0  0
  7  8  1  0  0  0  0
  8  9  1  0  0  0  0
 11 10  1  0  0  0  0
 12 11  1  0  0  0  0
 13 12  1  0  0  0  0
 14 11  1  0  0  0  0
 15 14  1  0  0  0  0
 15 16  1  0  0  0  0
 17 16  1  0  0  0  0
 17 18  1  0  0  0  0
 17 19  1  0  0  0  0
 19 21  1  0  0  0  0
 20 21  1  0  0  0  0
 22 23  1  0  0  0  0
 23 24  1  0  0  0  0
 24 25  1  0  0  0  0
 25 26  1  0  0  0  0
 26 27  1  0  0  0  0
 27 28  1  0  0  0  0
 28 29  1  0  0  0  0
 28 30  2  0  0  0  0
 29 31  1  0  0  0  0
 32 31  1  0  0  0  0
M  END
>  <MODEL>
2

>  <REMARK>
 VINA RESULT:      -5.5      1.964      3.451
  Name = 
  22 active torsions:
  status: ('A' for Active; 'I' for Inactive)
    1  A    between atoms: C_1  and  N_20
    2  A    between atoms: C_2  and  C_12
    3  A    between atoms: C_2  and  O_23
    4  A    between atoms: N_4  and  C_5
    5  A    between atoms: N_4  and  C_15
    6  A    between atoms: O_6  and  N_31
    7  A    between atoms: C_8  and  O_23
    8  A    between atoms: C_8  and  C_28
    9  A    between atoms: C_9  and  N_10
   10  A    between atoms: C_9  and  C_12
   11  A    between atoms: N_11  and  C_18
   12  A    between atoms: N_11  and  C_32
   13  A    between atoms: C_13  and  C_28
   14  A    between atoms: C_13  and  N_31
   15  A    between atoms: N_14  and  C_21
   16  A    between atoms: N_14  and  C_26
   17  A    between atoms: N_14  and  C_28
   18  A    between atoms: C_15  and  C_26
   19  A    between atoms: C_16  and  O_27
   20  A    between atoms: C_16  and  N_31
   21  A    between atoms: C_18  and  C_22
   22  A    between atoms: O_27  and  C_32
                            x       y       z     vdW  Elec       q    Type
                         _______ _______ _______ _____ _____    ______ ____

>  <TORSDO>
F 22

$$$$
=
 OpenBabel11052417043D

 32 31  0  0  1  0  0  0  0  0999 V2000
  188.5280  177.5870  140.2560 C   0  0  2  0  0  3  0  0  0  0  0  0
  189.6680  176.9840  140.9710 N   0  0  0  0  0  0  0  0  0  0  0  0
  191.8630  177.7660  141.1700 O   0  0  0  0  0  1  0  0  0  0  0  0
  190.9120  177.2900  140.2660 C   0  0  0  0  0  2  0  0  0  0  0  0
  189.7730  177.5070  142.3440 C   0  0  0  0  0  2  0  0  0  0  0  0
  189.5650  176.4350  143.4170 C   0  0  0  0  0  2  0  0  0  0  0  0
  190.7690  175.6360  143.5510 N   0  0  0  0  0  2  0  0  0  0  0  0
  191.7230  176.4300  144.3070 C   0  0  0  0  0  2  0  0  0  0  0  0
  191.1780  176.6830  145.6970 C   0  0  0  0  0  1  0  0  0  0  0  0
  188.9720  178.2800  138.9590 C   0  0  0  0  0  2  0  0  0  0  0  0
  188.4550  177.5840  137.7880 N   0  0  0  0  0  0  0  0  0  0  0  0
  187.2640  178.1580  137.4860 O   0  0  0  0  0  0  0  0  0  0  0  0
  186.4560  177.1050  137.0530 C   0  0  0  0  0  1  0  0  0  0  0  0
  189.3610  177.8870  136.6920 C   0  0  0  0  0  2  0  0  0  0  0  0
  190.5270  177.1330  136.8260 O   0  0  0  0  0  0  0  0  0  0  0  0
  190.0940  175.8070  136.7800 C   0  0  0  0  0  2  0  0  0  0  0  0
  191.2240  174.9290  136.5020 N   0  0  0  0  0  0  0  0  0  0  0  0
  190.7020  173.6380  136.0800 C   0  0  0  0  0  1  0  0  0  0  0  0
  192.0600  174.7610  137.7020 C   0  0  0  0  0  2  0  0  0  0  0  0
  193.5780  176.5950  138.0310 O   0  0  0  0  0  1  0  0  0  0  0  0
  193.4910  175.2880  137.5490 C   0  0  0  0  0  2  0  0  0  0  0  0
  187.7830  178.5880  141.1420 C   0  0  0  0  0  2  0  0  0  0  0  0
  186.4610  178.7120  140.7140 O   0  0  0  0  0  0  0  0  0  0  0  0
  185.7980  179.3080  141.7860 C   0  0  0  0  0  2  0  0  0  0  0  0
  184.7800  178.3410  142.3710 C   0  0  0  0  0  2  0  0  0  0  0  0
  184.7570  178.4240  143.8880 C   0  0  0  0  0  2  0  0  0  0  0  0
  186.0530  178.0460  144.4290 N   0  0  0  0  0  2  0  0  0  0  0  0
  186.2720  177.8890  145.8300 C   0  0  0  0  0  0  0  0  0  0  0  0
  187.5660  177.5090  146.2980 N   0  0  0  0  0  2  0  0  0  0  0  0
  185.3300  178.0790  146.6470 O   0  0  0  0  0  0  0  0  0  0  0  0
  187.8530  177.3300  147.7110 C   0  0  0  0  0  2  0  0  0  0  0  0
  188.8730  178.3570  148.1530 C   0  0  0  0  0  1  0  0  0  0  0  0
  1 10  1  6  0  0  0
  1  2  1  0  0  0  0
  1 22  1  0  0  0  0
  2  5  1  0  0  0  0
  4  2  1  0  0  0  0
  4  3  1  0  0  0  0
  5  6  1  0  0  0  0
  6  7  1  0  0  0  0
  7  8  1  0  0  0  0
  8  9  1  0  0  0  0
 11 10  1  0  0  0  0
 12 11  1  0  0  0  0
 13 12  1  0  0  0  0
 14 15  1  0  0  0  0
 14 11  1  0  0  0  0
 16 15  1  0  0  0  0
 17 16  1  0  0  0  0
 17 19  1  0  0  0  0
 18 17  1  0  0  0  0
 21 19  1  0  0  0  0
 21 20  1  0  0  0  0
 23 22  1  0  0  0  0
 23 24  1  0  0  0  0
 24 25  1  0  0  0  0
 25 26  1  0  0  0  0
 26 27  1  0  0  0  0
 27 28  1  0  0  0  0
 28 29  1  0  0  0  0
 28 30  2  0  0  0  0
 29 31  1  0  0  0  0
 31 32  1  0  0  0  0
M  END
>  <MODEL>
3

>  <REMARK>
 VINA RESULT:      -5.3      2.847      5.448
  Name = 
  22 active torsions:
  status: ('A' for Active; 'I' for Inactive)
    1  A    between atoms: C_1  and  N_20
    2  A    between atoms: C_2  and  C_12
    3  A    between atoms: C_2  and  O_23
    4  A    between atoms: N_4  and  C_5
    5  A    between atoms: N_4  and  C_15
    6  A    between atoms: O_6  and  N_31
    7  A    between atoms: C_8  and  O_23
    8  A    between atoms: C_8  and  C_28
    9  A    between atoms: C_9  and  N_10
   10  A    between atoms: C_9  and  C_12
   11  A    between atoms: N_11  and  C_18
   12  A    between atoms: N_11  and  C_32
   13  A    between atoms: C_13  and  C_28
   14  A    between atoms: C_13  and  N_31
   15  A    between atoms: N_14  and  C_21
   16  A    between atoms: N_14  and  C_26
   17  A    between atoms: N_14  and  C_28
   18  A    between atoms: C_15  and  C_26
   19  A    between atoms: C_16  and  O_27
   20  A    between atoms: C_16  and  N_31
   21  A    between atoms: C_18  and  C_22
   22  A    between atoms: O_27  and  C_32
                            x       y       z     vdW  Elec       q    Type
                         _______ _______ _______ _____ _____    ______ ____

>  <TORSDO>
F 22

$$$$
=
 OpenBabel11052417043D

 32 31  0  0  1  0  0  0  0  0999 V2000
  189.0330  176.9370  142.3460 C   0  0  2  0  0  3  0  0  0  0  0  0
  190.4500  176.8970  142.7550 N   0  0  0  0  0  0  0  0  0  0  0  0
  192.3350  177.0910  141.3850 O   0  0  0  0  0  1  0  0  0  0  0  0
  191.2380  177.7830  141.8990 C   0  0  0  0  0  2  0  0  0  0  0  0
  190.6140  177.3350  144.1510 C   0  0  0  0  0  2  0  0  0  0  0  0
  191.4970  176.3980  144.9800 C   0  0  0  0  0  2  0  0  0  0  0  0
  191.8320  177.0300  146.2430 N   0  0  0  0  0  2  0  0  0  0  0  0
  191.0430  176.3730  147.2690 C   0  0  0  0  0  2  0  0  0  0  0  0
  189.8820  177.2630  147.6610 C   0  0  0  0  0  1  0  0  0  0  0  0
  188.6470  178.3070  141.7690 C   0  0  0  0  0  2  0  0  0  0  0  0
  187.8110  178.1620  140.5840 N   0  0  0  0  0  0  0  0  0  0  0  0
  186.8850  179.1510  140.6350 O   0  0  0  0  0  0  0  0  0  0  0  0
  185.7170  178.5280  141.0810 C   0  0  0  0  0  1  0  0  0  0  0  0
  188.6640  178.4390  139.4400 C   0  0  0  0  0  2  0  0  0  0  0  0
  189.1230  177.2400  138.8960 O   0  0  0  0  0  0  0  0  0  0  0  0
  189.8320  177.6200  137.7560 C   0  0  0  0  0  2  0  0  0  0  0  0
  190.0810  176.4530  136.9180 N   0  0  0  0  0  0  0  0  0  0  0  0
  189.5300  175.2850  137.5910 C   0  0  0  0  0  1  0  0  0  0  0  0
  191.5240  176.2680  136.6990 C   0  0  0  0  0  2  0  0  0  0  0  0
  193.5750  176.7780  137.8430 O   0  0  0  0  0  1  0  0  0  0  0  0
  192.3430  176.1390  137.9880 C   0  0  0  0  0  2  0  0  0  0  0  0
  188.1080  176.5930  143.5150 C   0  0  0  0  0  2  0  0  0  0  0  0
  187.4270  177.7360  143.9350 O   0  0  0  0  0  0  0  0  0  0  0  0
  186.4610  177.2620  144.8230 C   0  0  0  0  0  2  0  0  0  0  0  0
  186.5920  177.9730  146.1610 C   0  0  0  0  0  2  0  0  0  0  0  0
  185.6000  179.1190  146.2700 C   0  0  0  0  0  2  0  0  0  0  0  0
  184.2840  178.6840  145.8300 N   0  0  0  0  0  2  0  0  0  0  0  0
  183.6540  179.2330  144.6720 C   0  0  0  0  0  0  0  0  0  0  0  0
  182.3640  178.7590  144.2880 N   0  0  0  0  0  2  0  0  0  0  0  0
  184.2340  180.1250  143.9940 O   0  0  0  0  0  0  0  0  0  0  0  0
  181.6710  179.2730  143.1190 C   0  0  0  0  0  2  0  0  0  0  0  0
  182.0820  178.4800  141.8980 C   0  0  0  0  0  1  0  0  0  0  0  0
  1 10  1  1  0  0  0
  1  2  1  0  0  0  0
  1 22  1  0  0  0  0
  2  5  1  0  0  0  0
  3  4  1  0  0  0  0
  4  2  1  0  0  0  0
  5  6  1  0  0  0  0
  6  7  1  0  0  0  0
  7  8  1  0  0  0  0
  8  9  1  0  0  0  0
 11 12  1  0  0  0  0
 11 10  1  0  0  0  0
 12 13  1  0  0  0  0
 14 11  1  0  0  0  0
 15 14  1  0  0  0  0
 16 15  1  0  0  0  0
 17 18  1  0  0  0  0
 17 16  1  0  0  0  0
 19 17  1  0  0  0  0
 19 21  1  0  0  0  0
 20 21  1  0  0  0  0
 22 23  1  0  0  0  0
 23 24  1  0  0  0  0
 24 25  1  0  0  0  0
 25 26  1  0  0  0  0
 27 26  1  0  0  0  0
 28 27  1  0  0  0  0
 29 28  1  0  0  0  0
 30 28  2  0  0  0  0
 31 29  1  0  0  0  0
 32 31  1  0  0  0  0
M  END
>  <MODEL>
4

>  <REMARK>
 VINA RESULT:      -5.3      1.919      3.861
  Name = 
  22 active torsions:
  status: ('A' for Active; 'I' for Inactive)
    1  A    between atoms: C_1  and  N_20
    2  A    between atoms: C_2  and  C_12
    3  A    between atoms: C_2  and  O_23
    4  A    between atoms: N_4  and  C_5
    5  A    between atoms: N_4  and  C_15
    6  A    between atoms: O_6  and  N_31
    7  A    between atoms: C_8  and  O_23
    8  A    between atoms: C_8  and  C_28
    9  A    between atoms: C_9  and  N_10
   10  A    between atoms: C_9  and  C_12
   11  A    between atoms: N_11  and  C_18
   12  A    between atoms: N_11  and  C_32
   13  A    between atoms: C_13  and  C_28
   14  A    between atoms: C_13  and  N_31
   15  A    between atoms: N_14  and  C_21
   16  A    between atoms: N_14  and  C_26
   17  A    between atoms: N_14  and  C_28
   18  A    between atoms: C_15  and  C_26
   19  A    between atoms: C_16  and  O_27
   20  A    between atoms: C_16  and  N_31
   21  A    between atoms: C_18  and  C_22
   22  A    between atoms: O_27  and  C_32
                            x       y       z     vdW  Elec       q    Type
                         _______ _______ _______ _____ _____    ______ ____

>  <TORSDO>
F 22

$$$$
=
 OpenBabel11052417043D

 32 31  0  0  1  0  0  0  0  0999 V2000
  190.1760  176.6410  139.1090 C   0  0  2  0  0  3  0  0  0  0  0  0
  191.0080  175.5430  138.5840 N   0  0  0  0  0  0  0  0  0  0  0  0
  189.9980  173.7210  137.5200 O   0  0  0  0  0  1  0  0  0  0  0  0
  190.4300  175.0360  137.3390 C   0  0  0  0  0  2  0  0  0  0  0  0
  192.3800  175.9990  138.3050 C   0  0  0  0  0  2  0  0  0  0  0  0
  193.2710  174.9070  137.7060 C   0  0  0  0  0  2  0  0  0  0  0  0
  194.5380  175.4820  137.2920 N   0  0  0  0  0  2  0  0  0  0  0  0
  195.5240  174.4160  137.3430 C   0  0  0  0  0  2  0  0  0  0  0  0
  195.3250  173.6050  138.6060 C   0  0  0  0  0  1  0  0  0  0  0  0
  189.6450  177.5410  137.9830 C   0  0  0  0  0  2  0  0  0  0  0  0
  188.8160  178.6150  138.5150 N   0  0  0  0  0  0  0  0  0  0  0  0
  188.6350  179.5050  137.5080 O   0  0  0  0  0  0  0  0  0  0  0  0
  188.0600  178.7650  136.4730 C   0  0  0  0  0  1  0  0  0  0  0  0
  187.5170  178.0310  138.8050 C   0  0  0  0  0  2  0  0  0  0  0  0
  186.9290  178.7030  139.8760 O   0  0  0  0  0  0  0  0  0  0  0  0
  185.5570  178.6010  139.6440 C   0  0  0  0  0  2  0  0  0  0  0  0
  184.8260  179.3180  140.6820 N   0  0  0  0  0  0  0  0  0  0  0  0
  185.5610  179.1830  141.9310 C   0  0  0  0  0  1  0  0  0  0  0  0
  183.4700  178.7680  140.8390 C   0  0  0  0  0  2  0  0  0  0  0  0
  182.1520  177.8410  139.0550 O   0  0  0  0  0  1  0  0  0  0  0  0
  182.5400  179.0420  139.6520 C   0  0  0  0  0  2  0  0  0  0  0  0
  190.9510  177.4890  140.1200 C   0  0  0  0  0  2  0  0  0  0  0  0
  190.2350  177.5820  141.3130 O   0  0  0  0  0  0  0  0  0  0  0  0
  190.7610  176.5710  142.1180 C   0  0  0  0  0  2  0  0  0  0  0  0
  191.5300  177.1800  143.2800 C   0  0  0  0  0  2  0  0  0  0  0  0
  190.9370  176.7500  144.6120 C   0  0  0  0  0  2  0  0  0  0  0  0
  189.4980  176.9600  144.6090 N   0  0  0  0  0  2  0  0  0  0  0  0
  188.8060  177.4720  145.7470 C   0  0  0  0  0  0  0  0  0  0  0  0
  187.3930  177.6620  145.6790 N   0  0  0  0  0  2  0  0  0  0  0  0
  189.4370  177.7580  146.8020 O   0  0  0  0  0  0  0  0  0  0  0  0
  186.6300  178.1830  146.8010 C   0  0  0  0  0  2  0  0  0  0  0  0
  185.1860  178.3670  146.3880 C   0  0  0  0  0  1  0  0  0  0  0  0
  1 10  1  6  0  0  0
  1 22  1  0  0  0  0
  2  1  1  0  0  0  0
  4  3  1  0  0  0  0
  4  2  1  0  0  0  0
  5  2  1  0  0  0  0
  6  5  1  0  0  0  0
  7  8  1  0  0  0  0
  7  6  1  0  0  0  0
  8  9  1  0  0  0  0
 10 11  1  0  0  0  0
 11 14  1  0  0  0  0
 12 11  1  0  0  0  0
 13 12  1  0  0  0  0
 14 15  1  0  0  0  0
 16 15  1  0  0  0  0
 16 17  1  0  0  0  0
 17 19  1  0  0  0  0
 17 18  1  0  0  0  0
 20 21  1  0  0  0  0
 21 19  1  0  0  0  0
 22 23  1  0  0  0  0
 23 24  1  0  0  0  0
 24 25  1  0  0  0  0
 25 26  1  0  0  0  0
 27 26  1  0  0  0  0
 27 28  1  0  0  0  0
 28 30  2  0  0  0  0
 29 28  1  0  0  0  0
 29 31  1  0  0  0  0
 32 31  1  0  0  0  0
M  END
>  <MODEL>
5

>  <REMARK>
 VINA RESULT:      -5.3      3.253      5.253
  Name = 
  22 active torsions:
  status: ('A' for Active; 'I' for Inactive)
    1  A    between atoms: C_1  and  N_20
    2  A    between atoms: C_2  and  C_12
    3  A    between atoms: C_2  and  O_23
    4  A    between atoms: N_4  and  C_5
    5  A    between atoms: N_4  and  C_15
    6  A    between atoms: O_6  and  N_31
    7  A    between atoms: C_8  and  O_23
    8  A    between atoms: C_8  and  C_28
    9  A    between atoms: C_9  and  N_10
   10  A    between atoms: C_9  and  C_12
   11  A    between atoms: N_11  and  C_18
   12  A    between atoms: N_11  and  C_32
   13  A    between atoms: C_13  and  C_28
   14  A    between atoms: C_13  and  N_31
   15  A    between atoms: N_14  and  C_21
   16  A    between atoms: N_14  and  C_26
   17  A    between atoms: N_14  and  C_28
   18  A    between atoms: C_15  and  C_26
   19  A    between atoms: C_16  and  O_27
   20  A    between atoms: C_16  and  N_31
   21  A    between atoms: C_18  and  C_22
   22  A    between atoms: O_27  and  C_32
                            x       y       z     vdW  Elec       q    Type
                         _______ _______ _______ _____ _____    ______ ____

>  <TORSDO>
F 22

$$$$
=
 OpenBabel11052417043D

 32 31  0  0  1  0  0  0  0  0999 V2000
  190.1130  177.6490  141.8810 C   0  0  2  0  0  3  0  0  0  0  0  0
  190.2650  176.9820  143.1880 N   0  0  0  0  0  0  0  0  0  0  0  0
  191.7580  175.4860  144.1890 O   0  0  0  0  0  1  0  0  0  0  0  0
  191.6700  176.6400  143.4090 C   0  0  0  0  0  2  0  0  0  0  0  0
  189.8230  177.8550  144.2870 C   0  0  0  0  0  2  0  0  0  0  0  0
  188.8760  177.1600  145.2700 C   0  0  0  0  0  2  0  0  0  0  0  0
  189.3820  177.3050  146.6230 N   0  0  0  0  0  2  0  0  0  0  0  0
  188.2470  177.1620  147.5170 C   0  0  0  0  0  2  0  0  0  0  0  0
  188.3230  178.2160  148.6020 C   0  0  0  0  0  1  0  0  0  0  0  0
  188.7040  177.4510  141.3030 C   0  0  0  0  0  2  0  0  0  0  0  0
  188.1410  178.7150  140.8470 N   0  0  0  0  0  0  0  0  0  0  0  0
  188.4540  178.8320  139.5330 O   0  0  0  0  0  0  0  0  0  0  0  0
  187.5040  178.0560  138.8660 C   0  0  0  0  0  1  0  0  0  0  0  0
  186.6960  178.5770  140.9290 C   0  0  0  0  0  2  0  0  0  0  0  0
  186.3260  178.2770  142.2390 O   0  0  0  0  0  0  0  0  0  0  0  0
  184.9340  178.3650  142.2400 C   0  0  0  0  0  2  0  0  0  0  0  0
  184.4330  178.2580  143.6050 N   0  0  0  0  0  0  0  0  0  0  0  0
  183.6270  179.4370  143.8860 C   0  0  0  0  0  1  0  0  0  0  0  0
  185.5470  178.1750  144.5630 C   0  0  0  0  0  2  0  0  0  0  0  0
  184.8660  178.5320  146.8400 O   0  0  0  0  0  1  0  0  0  0  0  0
  185.4430  179.1580  145.7330 C   0  0  0  0  0  2  0  0  0  0  0  0
  191.1550  177.1480  140.8780 C   0  0  0  0  0  2  0  0  0  0  0  0
  190.5540  176.2940  139.9540 O   0  0  0  0  0  0  0  0  0  0  0  0
  191.3820  176.3490  138.8330 C   0  0  0  0  0  2  0  0  0  0  0  0
  190.5460  176.2720  137.5650 C   0  0  0  0  0  2  0  0  0  0  0  0
  191.4310  176.1480  136.3350 C   0  0  0  0  0  2  0  0  0  0  0  0
  192.4550  175.1390  136.5550 N   0  0  0  0  0  2  0  0  0  0  0  0
  193.8460  175.4530  136.5190 C   0  0  0  0  0  0  0  0  0  0  0  0
  194.8020  174.4190  136.7510 N   0  0  0  0  0  2  0  0  0  0  0  0
  194.2270  176.6330  136.2890 O   0  0  0  0  0  0  0  0  0  0  0  0
  196.2330  174.6730  136.7310 C   0  0  0  0  0  2  0  0  0  0  0  0
  196.9390  173.5300  136.0350 C   0  0  0  0  0  1  0  0  0  0  0  0
  1 22  1  6  0  0  0
  1  2  1  0  0  0  0
  2  4  1  0  0  0  0
  2  5  1  0  0  0  0
  4  3  1  0  0  0  0
  5  6  1  0  0  0  0
  6  7  1  0  0  0  0
  7  8  1  0  0  0  0
  8  9  1  0  0  0  0
 10  1  1  0  0  0  0
 11 14  1  0  0  0  0
 11 10  1  0  0  0  0
 12 11  1  0  0  0  0
 13 12  1  0  0  0  0
 14 15  1  0  0  0  0
 15 16  1  0  0  0  0
 16 17  1  0  0  0  0
 17 18  1  0  0  0  0
 17 19  1  0  0  0  0
 19 21  1  0  0  0  0
 21 20  1  0  0  0  0
 23 22  1  0  0  0  0
 24 23  1  0  0  0  0
 25 24  1  0  0  0  0
 26 27  1  0  0  0  0
 26 25  1  0  0  0  0
 28 27  1  0  0  0  0
 28 29  1  0  0  0  0
 30 28  2  0  0  0  0
 31 29  1  0  0  0  0
 32 31  1  0  0  0  0
M  END
>  <MODEL>
6

>  <REMARK>
 VINA RESULT:      -5.2      3.689      7.947
  Name = 
  22 active torsions:
  status: ('A' for Active; 'I' for Inactive)
    1  A    between atoms: C_1  and  N_20
    2  A    between atoms: C_2  and  C_12
    3  A    between atoms: C_2  and  O_23
    4  A    between atoms: N_4  and  C_5
    5  A    between atoms: N_4  and  C_15
    6  A    between atoms: O_6  and  N_31
    7  A    between atoms: C_8  and  O_23
    8  A    between atoms: C_8  and  C_28
    9  A    between atoms: C_9  and  N_10
   10  A    between atoms: C_9  and  C_12
   11  A    between atoms: N_11  and  C_18
   12  A    between atoms: N_11  and  C_32
   13  A    between atoms: C_13  and  C_28
   14  A    between atoms: C_13  and  N_31
   15  A    between atoms: N_14  and  C_21
   16  A    between atoms: N_14  and  C_26
   17  A    between atoms: N_14  and  C_28
   18  A    between atoms: C_15  and  C_26
   19  A    between atoms: C_16  and  O_27
   20  A    between atoms: C_16  and  N_31
   21  A    between atoms: C_18  and  C_22
   22  A    between atoms: O_27  and  C_32
                            x       y       z     vdW  Elec       q    Type
                         _______ _______ _______ _____ _____    ______ ____

>  <TORSDO>
F 22

$$$$
=
 OpenBabel11052417043D

 32 31  0  0  1  0  0  0  0  0999 V2000
  189.7610  176.8070  143.2690 C   0  0  2  0  0  3  0  0  0  0  0  0
  190.9990  177.1620  143.9870 N   0  0  0  0  0  0  0  0  0  0  0  0
  191.8900  179.3170  144.1640 O   0  0  0  0  0  1  0  0  0  0  0  0
  191.6820  178.2510  143.2880 C   0  0  0  0  0  2  0  0  0  0  0  0
  190.7110  177.6030  145.3620 C   0  0  0  0  0  2  0  0  0  0  0  0
  191.3430  176.7060  146.4300 C   0  0  0  0  0  2  0  0  0  0  0  0
  190.3870  176.4640  147.4950 N   0  0  0  0  0  2  0  0  0  0  0  0
  189.5740  177.6620  147.6140 C   0  0  0  0  0  2  0  0  0  0  0  0
  188.2490  177.3110  148.2580 C   0  0  0  0  0  1  0  0  0  0  0  0
  189.4260  177.8290  142.1730 C   0  0  0  0  0  2  0  0  0  0  0  0
  189.0560  177.1650  140.9300 N   0  0  0  0  0  0  0  0  0  0  0  0
  188.4820  178.1050  140.1390 O   0  0  0  0  0  0  0  0  0  0  0  0
  187.3760  178.5560  140.8610 C   0  0  0  0  0  1  0  0  0  0  0  0
  190.2980  176.7690  140.2860 C   0  0  0  0  0  2  0  0  0  0  0  0
  190.1290  176.7640  138.9020 O   0  0  0  0  0  0  0  0  0  0  0  0
  191.3290  176.2570  138.4030 C   0  0  0  0  0  2  0  0  0  0  0  0
  191.1700  174.8460  138.0750 N   0  0  0  0  0  0  0  0  0  0  0  0
  192.3690  174.4050  137.3760 C   0  0  0  0  0  1  0  0  0  0  0  0
  189.9900  174.6390  137.2210 C   0  0  0  0  0  2  0  0  0  0  0  0
  189.3000  175.9610  135.3360 O   0  0  0  0  0  1  0  0  0  0  0  0
  190.2140  174.9890  135.7460 C   0  0  0  0  0  2  0  0  0  0  0  0
  188.5780  176.6820  144.2320 C   0  0  0  0  0  2  0  0  0  0  0  0
  187.8120  177.8470  144.2000 O   0  0  0  0  0  0  0  0  0  0  0  0
  186.4980  177.4090  144.3650 C   0  0  0  0  0  2  0  0  0  0  0  0
  185.8740  178.0830  145.5770 C   0  0  0  0  0  2  0  0  0  0  0  0
  185.0700  179.3060  145.1680 C   0  0  0  0  0  2  0  0  0  0  0  0
  184.6220  179.1720  143.7910 N   0  0  0  0  0  2  0  0  0  0  0  0
  183.2580  178.9170  143.4610 C   0  0  0  0  0  0  0  0  0  0  0  0
  182.8800  178.8020  142.0890 N   0  0  0  0  0  2  0  0  0  0  0  0
  182.3930  178.7970  144.3720 O   0  0  0  0  0  0  0  0  0  0  0  0
  181.5080  178.5450  141.6870 C   0  0  0  0  0  2  0  0  0  0  0  0
  181.4380  178.4240  140.1800 C   0  0  0  0  0  1  0  0  0  0  0  0
  1 10  1  6  0  0  0
  1  2  1  0  0  0  0
  1 22  1  0  0  0  0
  2  5  1  0  0  0  0
  4  2  1  0  0  0  0
  4  3  1  0  0  0  0
  5  6  1  0  0  0  0
  6  7  1  0  0  0  0
  7  8  1  0  0  0  0
  8  9  1  0  0  0  0
 11 10  1  0  0  0  0
 12 13  1  0  0  0  0
 12 11  1  0  0  0  0
 14 11  1  0  0  0  0
 15 14  1  0  0  0  0
 16 15  1  0  0  0  0
 17 16  1  0  0  0  0
 18 17  1  0  0  0  0
 19 17  1  0  0  0  0
 20 21  1  0  0  0  0
 21 19  1  0  0  0  0
 23 22  1  0  0  0  0
 23 24  1  0  0  0  0
 24 25  1  0  0  0  0
 26 25  1  0  0  0  0
 27 26  1  0  0  0  0
 28 27  1  0  0  0  0
 28 30  2  0  0  0  0
 29 28  1  0  0  0  0
 31 29  1  0  0  0  0
 32 31  1  0  0  0  0
M  END
>  <MODEL>
7

>  <REMARK>
 VINA RESULT:      -5.1      2.512      4.133
  Name = 
  22 active torsions:
  status: ('A' for Active; 'I' for Inactive)
    1  A    between atoms: C_1  and  N_20
    2  A    between atoms: C_2  and  C_12
    3  A    between atoms: C_2  and  O_23
    4  A    between atoms: N_4  and  C_5
    5  A    between atoms: N_4  and  C_15
    6  A    between atoms: O_6  and  N_31
    7  A    between atoms: C_8  and  O_23
    8  A    between atoms: C_8  and  C_28
    9  A    between atoms: C_9  and  N_10
   10  A    between atoms: C_9  and  C_12
   11  A    between atoms: N_11  and  C_18
   12  A    between atoms: N_11  and  C_32
   13  A    between atoms: C_13  and  C_28
   14  A    between atoms: C_13  and  N_31
   15  A    between atoms: N_14  and  C_21
   16  A    between atoms: N_14  and  C_26
   17  A    between atoms: N_14  and  C_28
   18  A    between atoms: C_15  and  C_26
   19  A    between atoms: C_16  and  O_27
   20  A    between atoms: C_16  and  N_31
   21  A    between atoms: C_18  and  C_22
   22  A    between atoms: O_27  and  C_32
                            x       y       z     vdW  Elec       q    Type
                         _______ _______ _______ _____ _____    ______ ____

>  <TORSDO>
F 22

$$$$
=
 OpenBabel11052417043D

 32 31  0  0  1  0  0  0  0  0999 V2000
  187.8080  178.7010  140.7740 C   0  0  2  0  0  3  0  0  0  0  0  0
  186.5530  178.8350  141.5370 N   0  0  0  0  0  0  0  0  0  0  0  0
  184.8620  179.7550  140.2100 O   0  0  0  0  0  1  0  0  0  0  0  0
  185.4120  178.5560  140.6670 C   0  0  0  0  0  2  0  0  0  0  0  0
  186.5140  177.8940  142.6690 C   0  0  0  0  0  2  0  0  0  0  0  0
  185.5520  178.3240  143.7800 C   0  0  0  0  0  2  0  0  0  0  0  0
  186.2030  178.1850  145.0710 N   0  0  0  0  0  2  0  0  0  0  0  0
  185.2370  178.5880  146.0780 C   0  0  0  0  0  2  0  0  0  0  0  0
  183.9480  179.0070  145.4020 C   0  0  0  0  0  1  0  0  0  0  0  0
  187.5970  177.9260  139.4650 C   0  0  0  0  0  2  0  0  0  0  0  0
  187.7830  178.7910  138.3070 N   0  0  0  0  0  0  0  0  0  0  0  0
  189.1190  178.9860  138.1750 O   0  0  0  0  0  0  0  0  0  0  0  0
  189.4210  178.5440  136.8850 C   0  0  0  0  0  1  0  0  0  0  0  0
  187.3490  178.0290  137.1470 C   0  0  0  0  0  2  0  0  0  0  0  0
  186.4390  177.0490  137.5430 O   0  0  0  0  0  0  0  0  0  0  0  0
  186.1870  176.3150  136.3840 C   0  0  0  0  0  2  0  0  0  0  0  0
  184.7580  176.0540  136.2650 N   0  0  0  0  0  0  0  0  0  0  0  0
  184.2010  177.0040  135.3130 C   0  0  0  0  0  1  0  0  0  0  0  0
  184.0910  176.2060  137.5690 C   0  0  0  0  0  2  0  0  0  0  0  0
  184.2530  173.8380  137.9450 O   0  0  0  0  0  1  0  0  0  0  0  0
  183.3990  174.9350  138.0720 C   0  0  0  0  0  2  0  0  0  0  0  0
  188.8930  178.0150  141.6070 C   0  0  0  0  0  2  0  0  0  0  0  0
  189.3420  176.8680  140.9520 O   0  0  0  0  0  0  0  0  0  0  0  0
  190.5660  176.5760  141.5530 C   0  0  0  0  0  2  0  0  0  0  0  0
  190.3410  175.8000  142.8420 C   0  0  0  0  0  2  0  0  0  0  0  0
  191.1580  176.3860  143.9820 C   0  0  0  0  0  2  0  0  0  0  0  0
  190.3630  177.3560  144.7190 N   0  0  0  0  0  2  0  0  0  0  0  0
  190.2010  177.2810  146.1340 C   0  0  0  0  0  0  0  0  0  0  0  0
  189.4140  178.2670  146.8010 N   0  0  0  0  0  2  0  0  0  0  0  0
  190.7510  176.3540  146.7910 O   0  0  0  0  0  0  0  0  0  0  0  0
  189.2120  178.2490  148.2400 C   0  0  0  0  0  2  0  0  0  0  0  0
  187.9190  177.5310  148.5600 C   0  0  0  0  0  1  0  0  0  0  0  0
  1 10  1  6  0  0  0
  1  2  1  0  0  0  0
  1 22  1  0  0  0  0
  2  5  1  0  0  0  0
  3  4  1  0  0  0  0
  4  2  1  0  0  0  0
  5  6  1  0  0  0  0
  6  7  1  0  0  0  0
  7  8  1  0  0  0  0
  9  8  1  0  0  0  0
 11 10  1  0  0  0  0
 12 11  1  0  0  0  0
 13 12  1  0  0  0  0
 14 15  1  0  0  0  0
 14 11  1  0  0  0  0
 16 15  1  0  0  0  0
 17 16  1  0  0  0  0
 17 19  1  0  0  0  0
 18 17  1  0  0  0  0
 19 21  1  0  0  0  0
 20 21  1  0  0  0  0
 23 24  1  0  0  0  0
 23 22  1  0  0  0  0
 24 25  1  0  0  0  0
 25 26  1  0  0  0  0
 26 27  1  0  0  0  0
 27 28  1  0  0  0  0
 28 30  2  0  0  0  0
 28 29  1  0  0  0  0
 29 31  1  0  0  0  0
 31 32  1  0  0  0  0
M  END
>  <MODEL>
8

>  <REMARK>
 VINA RESULT:      -5.0      2.299      5.358
  Name = 
  22 active torsions:
  status: ('A' for Active; 'I' for Inactive)
    1  A    between atoms: C_1  and  N_20
    2  A    between atoms: C_2  and  C_12
    3  A    between atoms: C_2  and  O_23
    4  A    between atoms: N_4  and  C_5
    5  A    between atoms: N_4  and  C_15
    6  A    between atoms: O_6  and  N_31
    7  A    between atoms: C_8  and  O_23
    8  A    between atoms: C_8  and  C_28
    9  A    between atoms: C_9  and  N_10
   10  A    between atoms: C_9  and  C_12
   11  A    between atoms: N_11  and  C_18
   12  A    between atoms: N_11  and  C_32
   13  A    between atoms: C_13  and  C_28
   14  A    between atoms: C_13  and  N_31
   15  A    between atoms: N_14  and  C_21
   16  A    between atoms: N_14  and  C_26
   17  A    between atoms: N_14  and  C_28
   18  A    between atoms: C_15  and  C_26
   19  A    between atoms: C_16  and  O_27
   20  A    between atoms: C_16  and  N_31
   21  A    between atoms: C_18  and  C_22
   22  A    between atoms: O_27  and  C_32
                            x       y       z     vdW  Elec       q    Type
                         _______ _______ _______ _____ _____    ______ ____

>  <TORSDO>
F 22

$$$$
=
 OpenBabel11052417043D

 32 31  0  0  1  0  0  0  0  0999 V2000
  188.7350  177.3560  140.6130 C   0  0  2  0  0  3  0  0  0  0  0  0
  188.8010  177.2340  139.1450 N   0  0  0  0  0  0  0  0  0  0  0  0
  189.0520  179.2980  138.0750 O   0  0  0  0  0  1  0  0  0  0  0  0
  188.1150  178.3660  138.5230 C   0  0  0  0  0  2  0  0  0  0  0  0
  190.1950  177.2210  138.6730 C   0  0  0  0  0  2  0  0  0  0  0  0
  190.4660  176.1500  137.6130 C   0  0  0  0  0  2  0  0  0  0  0  0
  191.2980  175.1020  138.1770 N   0  0  0  0  0  2  0  0  0  0  0  0
  192.6210  175.2530  137.5970 C   0  0  0  0  0  2  0  0  0  0  0  0
  193.1190  173.9060  137.1200 C   0  0  0  0  0  1  0  0  0  0  0  0
  187.9640  178.6120  141.0460 C   0  0  0  0  0  2  0  0  0  0  0  0
  186.7910  178.2620  141.8370 N   0  0  0  0  0  0  0  0  0  0  0  0
  187.1890  178.2290  143.1330 O   0  0  0  0  0  0  0  0  0  0  0  0
  186.5290  177.1290  143.6840 C   0  0  0  0  0  1  0  0  0  0  0  0
  185.8590  179.3700  141.7070 C   0  0  0  0  0  2  0  0  0  0  0  0
  185.3160  179.3790  140.4230 O   0  0  0  0  0  0  0  0  0  0  0  0
  183.9840  179.0020  140.6020 C   0  0  0  0  0  2  0  0  0  0  0  0
  183.3670  178.7390  139.3080 N   0  0  0  0  0  0  0  0  0  0  0  0
  184.4020  178.2610  138.4010 C   0  0  0  0  0  1  0  0  0  0  0  0
  182.7540  179.9620  138.7650 C   0  0  0  0  0  2  0  0  0  0  0  0
  180.9260  181.4930  139.0680 O   0  0  0  0  0  1  0  0  0  0  0  0
  181.2800  180.1450  139.1420 C   0  0  0  0  0  2  0  0  0  0  0  0
  190.1340  177.3740  141.2320 C   0  0  0  0  0  2  0  0  0  0  0  0
  190.4640  176.1030  141.7040 O   0  0  0  0  0  0  0  0  0  0  0  0
  190.2030  176.1580  143.0730 C   0  0  0  0  0  2  0  0  0  0  0  0
  191.5110  176.2100  143.8480 C   0  0  0  0  0  2  0  0  0  0  0  0
  191.2980  176.7860  145.2390 C   0  0  0  0  0  2  0  0  0  0  0  0
  190.0570  177.5440  145.2810 N   0  0  0  0  0  2  0  0  0  0  0  0
  189.1660  177.4720  146.3930 C   0  0  0  0  0  0  0  0  0  0  0  0
  187.9660  178.2460  146.3770 N   0  0  0  0  0  2  0  0  0  0  0  0
  189.4360  176.7360  147.3810 O   0  0  0  0  0  0  0  0  0  0  0  0
  187.0180  178.2200  147.4780 C   0  0  0  0  0  2  0  0  0  0  0  0
  185.6750  178.7300  147.0010 C   0  0  0  0  0  1  0  0  0  0  0  0
  1 10  1  6  0  0  0
  1 22  1  0  0  0  0
  2  1  1  0  0  0  0
  3  4  1  0  0  0  0
  4  2  1  0  0  0  0
  5  2  1  0  0  0  0
  6  7  1  0  0  0  0
  6  5  1  0  0  0  0
  8  7  1  0  0  0  0
  9  8  1  0  0  0  0
 10 11  1  0  0  0  0
 11 12  1  0  0  0  0
 12 13  1  0  0  0  0
 14 11  1  0  0  0  0
 15 16  1  0  0  0  0
 15 14  1  0  0  0  0
 17 16  1  0  0  0  0
 18 17  1  0  0  0  0
 19 21  1  0  0  0  0
 19 17  1  0  0  0  0
 20 21  1  0  0  0  0
 22 23  1  0  0  0  0
 23 24  1  0  0  0  0
 24 25  1  0  0  0  0
 25 26  1  0  0  0  0
 26 27  1  0  0  0  0
 27 28  1  0  0  0  0
 28 30  2  0  0  0  0
 29 28  1  0  0  0  0
 29 31  1  0  0  0  0
 32 31  1  0  0  0  0
M  END
>  <MODEL>
9

>  <REMARK>
 VINA RESULT:      -5.0      2.538      5.239
  Name = 
  22 active torsions:
  status: ('A' for Active; 'I' for Inactive)
    1  A    between atoms: C_1  and  N_20
    2  A    between atoms: C_2  and  C_12
    3  A    between atoms: C_2  and  O_23
    4  A    between atoms: N_4  and  C_5
    5  A    between atoms: N_4  and  C_15
    6  A    between atoms: O_6  and  N_31
    7  A    between atoms: C_8  and  O_23
    8  A    between atoms: C_8  and  C_28
    9  A    between atoms: C_9  and  N_10
   10  A    between atoms: C_9  and  C_12
   11  A    between atoms: N_11  and  C_18
   12  A    between atoms: N_11  and  C_32
   13  A    between atoms: C_13  and  C_28
   14  A    between atoms: C_13  and  N_31
   15  A    between atoms: N_14  and  C_21
   16  A    between atoms: N_14  and  C_26
   17  A    between atoms: N_14  and  C_28
   18  A    between atoms: C_15  and  C_26
   19  A    between atoms: C_16  and  O_27
   20  A    between atoms: C_16  and  N_31
   21  A    between atoms: C_18  and  C_22
   22  A    between atoms: O_27  and  C_32
                            x       y       z     vdW  Elec       q    Type
                         _______ _______ _______ _____ _____    ______ ____

>  <TORSDO>
F 22

$$$$
