=
 OpenBabel11052415193D

 37 40  0  0  1  0  0  0  0  0999 V2000
  189.4910  177.6340  142.2480 C   0  0  1  0  0  0  0  0  0  0  0  0
  191.0090  176.8070  139.2380 S   0  0  0  0  0  0  0  0  0  0  0  0
  187.6500  178.6520  138.0600 C   0  0  0  0  0  3  0  0  0  0  0  0
  189.5250  178.4450  143.5730 C   0  0  1  0  0  3  0  0  0  0  0  0
  184.8580  177.9040  142.7760 C   0  0  0  0  0  2  0  0  0  0  0  0
  188.8240  175.8100  138.1000 C   0  0  0  0  0  3  0  0  0  0  0  0
  186.7760  179.3440  142.8150 O   0  0  0  0  0  1  0  0  0  0  0  0
  186.6390  177.9730  145.2800 O   0  0  0  0  0  1  0  0  0  0  0  0
  188.9320  178.2970  138.1510 C   0  0  0  0  0  3  0  0  0  0  0  0
  184.0870  178.1580  140.4030 C   0  0  0  0  0  2  0  0  0  0  0  0
  187.5420  175.6820  137.3810 C   0  0  0  0  0  3  0  0  0  0  0  0
  189.0160  177.6700  144.7980 C   0  0  2  0  0  3  0  0  0  0  0  0
  190.8340  176.9280  141.9990 C   0  0  0  0  0  2  0  0  0  0  0  0
  191.6090  178.1710  139.4390 O   0  0  0  0  0  0  0  0  0  0  0  0
  185.2000  178.4640  138.2060 C   0  0  0  0  0  2  0  0  0  0  0  0
  186.5260  176.5410  137.4530 C   0  0  0  0  0  3  0  0  0  0  0  0
  190.8490  175.9670  140.8080 C   0  0  0  0  0  2  0  0  0  0  0  0
  187.5660  177.1770  144.6000 C   0  0  2  0  0  3  0  0  0  0  0  0
  186.3360  178.0660  142.4550 C   0  0  1  0  0  3  0  0  0  0  0  0
  186.5170  177.7250  138.3610 C   0  0  1  0  0  3  0  0  0  0  0  0
  188.3680  176.5770  142.2600 C   0  0  0  0  0  2  0  0  0  0  0  0
  189.4280  176.9450  138.4810 C   0  0  0  0  0  0  0  0  0  0  0  0
  183.9980  178.7180  141.8150 C   0  0  1  0  0  3  0  0  0  0  0  0
  191.9140  176.0090  138.3430 O   0  0  0  0  0  0  0  0  0  0  0  0
  187.1640  176.9580  143.1200 C   0  0  1  0  0  3  0  0  0  0  0  0
  189.1250  178.4380  145.9620 O   0  0  0  0  0  1  0  0  0  0  0  0
  189.2460  178.5330  141.2110 O   0  0  0  0  0  1  0  0  0  0  0  0
  184.8170  179.1420  139.5090 C   0  0  0  0  0  2  0  0  0  0  0  0
  182.2600  178.8430  143.6480 C   0  0  0  0  0  3  0  0  0  0  0  0
  182.5780  178.7610  142.2820 C   0  0  0  0  0  0  0  0  0  0  0  0
  181.5490  178.7160  141.3360 C   0  0  0  0  0  3  0  0  0  0  0  0
  179.2200  178.7130  140.8250 F   0  0  0  0  0  0  0  0  0  0  0  0
  179.9000  178.8370  143.1060 C   0  0  0  0  0  3  0  0  0  0  0  0
  180.2130  178.7550  141.7460 C   0  0  0  0  0  0  0  0  0  0  0  0
  180.9240  178.8810  144.0560 C   0  0  0  0  0  3  0  0  0  0  0  0
  191.9230  178.4920  144.4270 C   0  0  0  0  0  1  0  0  0  0  0  0
  190.7870  179.2910  143.8060 C   0  0  0  0  0  2  0  0  0  0  0  0
  1 27  1  6  0  0  0
  1 21  1  0  0  0  0
  1  4  1  0  0  0  0
  2 14  2  0  0  0  0
  2 17  1  0  0  0  0
  3  9  2  0  0  0  0
  3 20  1  0  0  0  0
  4 37  1  1  0  0  0
  4 12  1  0  0  0  0
  6 22  2  0  0  0  0
  9 22  1  0  0  0  0
 10 23  1  0  0  0  0
 11 16  2  0  0  0  0
 11  6  1  0  0  0  0
 12 26  1  1  0  0  0
 13  1  1  0  0  0  0
 15 20  1  0  0  0  0
 15 28  1  0  0  0  0
 17 13  1  0  0  0  0
 18 12  1  0  0  0  0
 18  8  1  6  0  0  0
 19  5  1  0  0  0  0
 19  7  1  1  0  0  0
 19 25  1  0  0  0  0
 20 16  1  6  0  0  0
 22  2  1  0  0  0  0
 23 30  1  1  0  0  0
 23  5  1  0  0  0  0
 24  2  2  0  0  0  0
 25 21  1  6  0  0  0
 25 18  1  0  0  0  0
 28 10  1  0  0  0  0
 29 35  1  0  0  0  0
 30 29  2  0  0  0  0
 31 34  2  0  0  0  0
 31 30  1  0  0  0  0
 32 34  1  0  0  0  0
 33 35  2  0  0  0  0
 34 33  1  0  0  0  0
 37 36  1  0  0  0  0
M  END
>  <MODEL>
1

>  <REMARK>
 VINA RESULT:      -7.0      0.000      0.000
  Name = 
  2 active torsions:
  status: ('A' for Active; 'I' for Inactive)
    1  A    between atoms: C_5  and  C_23
    2  A    between atoms: C_6  and  C_31
                            x       y       z     vdW  Elec       q    Type
                         _______ _______ _______ _____ _____    ______ ____

>  <TORSDO>
F 2

$$$$
=
 OpenBabel11052415193D

 37 40  0  0  1  0  0  0  0  0999 V2000
  190.4950  176.8860  139.5610 C   0  0  1  0  0  0  0  0  0  0  0  0
  189.9360  176.2380  136.1970 S   0  0  0  0  0  0  0  0  0  0  0  0
  186.8040  178.5380  137.1900 C   0  0  0  0  0  3  0  0  0  0  0  0
  191.3810  177.5410  140.6570 C   0  0  1  0  0  3  0  0  0  0  0  0
  187.0450  177.5750  142.6320 C   0  0  0  0  0  2  0  0  0  0  0  0
  187.3700  175.6020  136.4690 C   0  0  0  0  0  3  0  0  0  0  0  0
  188.8440  178.7950  141.6200 O   0  0  0  0  0  1  0  0  0  0  0  0
  189.9060  177.1870  143.6840 O   0  0  0  0  0  1  0  0  0  0  0  0
  187.8500  178.0450  136.5270 C   0  0  0  0  0  3  0  0  0  0  0  0
  185.1280  178.1620  141.1250 C   0  0  0  0  0  2  0  0  0  0  0  0
  185.9020  175.6850  136.6010 C   0  0  0  0  0  3  0  0  0  0  0  0
  191.5350  176.6940  141.9300 C   0  0  2  0  0  3  0  0  0  0  0  0
  191.3510  176.0760  138.5720 C   0  0  0  0  0  2  0  0  0  0  0  0
  190.7380  177.5030  136.0640 O   0  0  0  0  0  0  0  0  0  0  0  0
  184.8560  178.5890  138.6950 C   0  0  0  0  0  2  0  0  0  0  0  0
  185.2390  176.6320  137.2630 C   0  0  0  0  0  3  0  0  0  0  0  0
  190.5570  175.2540  137.5540 C   0  0  0  0  0  2  0  0  0  0  0  0
  190.1670  176.3780  142.5740 C   0  0  2  0  0  3  0  0  0  0  0  0
  188.0970  177.6170  141.5340 C   0  0  1  0  0  3  0  0  0  0  0  0
  185.9110  177.7050  138.0520 C   0  0  1  0  0  3  0  0  0  0  0  0
  189.4300  175.9550  140.1750 C   0  0  0  0  0  2  0  0  0  0  0  0
  188.2420  176.6200  136.4750 C   0  0  0  0  0  0  0  0  0  0  0  0
  185.9250  178.5720  142.3550 C   0  0  1  0  0  3  0  0  0  0  0  0
  190.0590  175.4530  134.9220 O   0  0  0  0  0  0  0  0  0  0  0  0
  188.9810  176.3640  141.5780 C   0  0  1  0  0  3  0  0  0  0  0  0
  192.3860  177.3160  142.8500 O   0  0  0  0  0  1  0  0  0  0  0  0
  189.8480  177.9130  138.8740 O   0  0  0  0  0  1  0  0  0  0  0  0
  185.3700  179.1570  140.0050 C   0  0  0  0  0  2  0  0  0  0  0  0
  183.6560  178.9580  143.4030 C   0  0  0  0  0  3  0  0  0  0  0  0
  185.0310  178.7100  143.5460 C   0  0  0  0  0  0  0  0  0  0  0  0
  185.5820  178.5930  144.8270 C   0  0  0  0  0  3  0  0  0  0  0  0
  185.3060  178.6030  147.1950 F   0  0  0  0  0  0  0  0  0  0  0  0
  183.3990  178.9640  145.8100 C   0  0  0  0  0  3  0  0  0  0  0  0
  184.7680  178.7180  145.9570 C   0  0  0  0  0  0  0  0  0  0  0  0
  182.8440  179.0830  144.5330 C   0  0  0  0  0  3  0  0  0  0  0  0
  193.8080  177.2390  139.9480 C   0  0  0  0  0  1  0  0  0  0  0  0
  192.6660  178.2220  140.1590 C   0  0  0  0  0  2  0  0  0  0  0  0
  1 27  1  6  0  0  0
  1 21  1  0  0  0  0
  1  4  1  0  0  0  0
  2 22  1  0  0  0  0
  2 17  1  0  0  0  0
  4 37  1  6  0  0  0
  4 12  1  0  0  0  0
  6 22  2  0  0  0  0
  6 11  1  0  0  0  0
  9  3  2  0  0  0  0
 10 23  1  0  0  0  0
 11 16  2  0  0  0  0
 12 18  1  0  0  0  0
 12 26  1  1  0  0  0
 13  1  1  0  0  0  0
 14  2  2  0  0  0  0
 15 28  1  0  0  0  0
 16 20  1  0  0  0  0
 17 13  1  0  0  0  0
 18  8  1  1  0  0  0
 19 25  1  0  0  0  0
 19  7  1  1  0  0  0
 19  5  1  0  0  0  0
 20  3  1  6  0  0  0
 20 15  1  0  0  0  0
 22  9  1  0  0  0  0
 23  5  1  0  0  0  0
 23 30  1  1  0  0  0
 24  2  2  0  0  0  0
 25 21  1  6  0  0  0
 25 18  1  0  0  0  0
 28 10  1  0  0  0  0
 29 30  2  0  0  0  0
 29 35  1  0  0  0  0
 30 31  1  0  0  0  0
 31 34  2  0  0  0  0
 33 34  1  0  0  0  0
 34 32  1  0  0  0  0
 35 33  2  0  0  0  0
 36 37  1  0  0  0  0
M  END
>  <MODEL>
2

>  <REMARK>
 VINA RESULT:      -5.7      2.517      3.403
  Name = 
  2 active torsions:
  status: ('A' for Active; 'I' for Inactive)
    1  A    between atoms: C_5  and  C_23
    2  A    between atoms: C_6  and  C_31
                            x       y       z     vdW  Elec       q    Type
                         _______ _______ _______ _____ _____    ______ ____

>  <TORSDO>
F 2

$$$$
=
 OpenBabel11052415193D

 37 40  0  0  1  0  0  0  0  0999 V2000
  187.2750  176.7220  136.5820 C   0  0  1  0  0  0  0  0  0  0  0  0
  183.8680  176.7530  135.9210 S   0  0  0  0  0  0  0  0  0  0  0  0
  184.1530  179.0250  139.2130 C   0  0  0  0  0  3  0  0  0  0  0  0
  188.7160  177.1010  136.1410 C   0  0  1  0  0  3  0  0  0  0  0  0
  189.0380  177.0470  140.8950 C   0  0  0  0  0  2  0  0  0  0  0  0
  183.1050  176.2460  138.4150 C   0  0  0  0  0  3  0  0  0  0  0  0
  188.9730  178.3160  138.8610 O   0  0  0  0  0  1  0  0  0  0  0  0
  190.9140  176.2840  138.5840 O   0  0  0  0  0  1  0  0  0  0  0  0
  183.8090  178.5980  137.9980 C   0  0  0  0  0  3  0  0  0  0  0  0
  187.1090  178.0300  142.1630 C   0  0  0  0  0  2  0  0  0  0  0  0
  182.7360  176.3990  139.8360 C   0  0  0  0  0  3  0  0  0  0  0  0
  189.7700  176.0230  136.4400 C   0  0  2  0  0  3  0  0  0  0  0  0
  186.5030  176.0580  135.4300 C   0  0  0  0  0  2  0  0  0  0  0  0
  184.2740  177.9660  135.1290 O   0  0  0  0  0  0  0  0  0  0  0  0
  184.8710  178.9210  141.5650 C   0  0  0  0  0  2  0  0  0  0  0  0
  183.3020  177.2460  140.6950 C   0  0  0  0  0  3  0  0  0  0  0  0
  185.1320  175.4940  135.8110 C   0  0  0  0  0  2  0  0  0  0  0  0
  189.8250  175.6820  137.9450 C   0  0  2  0  0  3  0  0  0  0  0  0
  188.4020  177.2260  139.5240 C   0  0  1  0  0  3  0  0  0  0  0  0
  184.4700  178.1060  140.3480 C   0  0  1  0  0  3  0  0  0  0  0  0
  187.2870  175.7640  137.7910 C   0  0  0  0  0  2  0  0  0  0  0  0
  183.6140  177.1860  137.6060 C   0  0  0  0  0  0  0  0  0  0  0  0
  188.5940  178.1490  141.8500 C   0  0  1  0  0  3  0  0  0  0  0  0
  182.5860  176.2150  135.3540 O   0  0  0  0  0  0  0  0  0  0  0  0
  188.4990  175.9310  138.7060 C   0  0  1  0  0  3  0  0  0  0  0  0
  191.0300  176.4040  135.9700 O   0  0  0  0  0  1  0  0  0  0  0  0
  186.6260  177.8990  136.9510 O   0  0  0  0  0  1  0  0  0  0  0  0
  186.3630  179.1990  141.5480 C   0  0  0  0  0  2  0  0  0  0  0  0
  190.7130  178.6340  143.1440 C   0  0  0  0  0  3  0  0  0  0  0  0
  189.4060  178.1210  143.1060 C   0  0  0  0  0  0  0  0  0  0  0  0
  188.8490  177.5680  144.2640 C   0  0  0  0  0  3  0  0  0  0  0  0
  189.0410  176.9930  146.5700 F   0  0  0  0  0  0  0  0  0  0  0  0
  190.8870  178.0410  145.4840 C   0  0  0  0  0  3  0  0  0  0  0  0
  189.5860  177.5290  145.4510 C   0  0  0  0  0  0  0  0  0  0  0  0
  191.4490  178.5940  144.3300 C   0  0  0  0  0  3  0  0  0  0  0  0
  187.8680  178.9360  134.5940 C   0  0  0  0  0  1  0  0  0  0  0  0
  188.8380  177.7780  134.7660 C   0  0  0  0  0  2  0  0  0  0  0  0
  1 27  1  1  0  0  0
  1 21  1  0  0  0  0
  2 22  1  0  0  0  0
  4 37  1  6  0  0  0
  4 12  1  0  0  0  0
  4  1  1  0  0  0  0
  5 23  1  0  0  0  0
  6 11  1  0  0  0  0
  9  3  2  0  0  0  0
 11 16  2  0  0  0  0
 12 26  1  1  0  0  0
 12 18  1  0  0  0  0
 13 17  1  0  0  0  0
 13  1  1  0  0  0  0
 14  2  2  0  0  0  0
 17  2  1  0  0  0  0
 18  8  1  1  0  0  0
 18 25  1  0  0  0  0
 19  7  1  6  0  0  0
 19  5  1  0  0  0  0
 20  3  1  6  0  0  0
 20 16  1  0  0  0  0
 20 15  1  0  0  0  0
 22  9  1  0  0  0  0
 22  6  2  0  0  0  0
 23 10  1  0  0  0  0
 23 30  1  1  0  0  0
 24  2  2  0  0  0  0
 25 21  1  6  0  0  0
 25 19  1  0  0  0  0
 28 15  1  0  0  0  0
 28 10  1  0  0  0  0
 29 35  1  0  0  0  0
 30 29  2  0  0  0  0
 30 31  1  0  0  0  0
 31 34  2  0  0  0  0
 34 33  1  0  0  0  0
 34 32  1  0  0  0  0
 35 33  2  0  0  0  0
 36 37  1  0  0  0  0
M  END
>  <MODEL>
3

>  <REMARK>
 VINA RESULT:      -5.7      3.529      7.255
  Name = 
  2 active torsions:
  status: ('A' for Active; 'I' for Inactive)
    1  A    between atoms: C_5  and  C_23
    2  A    between atoms: C_6  and  C_31
                            x       y       z     vdW  Elec       q    Type
                         _______ _______ _______ _____ _____    ______ ____

>  <TORSDO>
F 2

$$$$
