=
 OpenBabel11052414363D

 32 37  0  0  1  0  0  0  0  0999 V2000
  181.3260  177.4470  137.8590 O   0  0  0  0  0  0  0  0  0  0  0  0
  182.2650  179.2210  139.9850 C   0  0  2  0  0  3  0  0  0  0  0  0
  185.4660  178.3980  138.9570 C   0  0  0  0  0  0  0  0  0  0  0  0
  180.1450  177.3870  137.1140 C   0  0  0  0  0  2  0  0  0  0  0  0
  180.8070  179.3650  140.4480 C   0  0  2  0  0  3  0  0  0  0  0  0
  180.7680  179.7310  141.8590 N   0  0  0  0  0  2  0  0  0  0  0  0
  187.9340  176.7210  136.8700 F   0  0  0  0  0  0  0  0  0  0  0  0
  185.5150  179.3830  139.9860 N   0  0  0  0  0  1  0  0  0  0  0  0
  182.6740  180.0950  138.7960 C   0  0  0  0  0  2  0  0  0  0  0  0
  179.9520  178.1250  140.1890 C   0  0  1  0  0  3  0  0  0  0  0  0
  185.7220  176.9100  136.2580 C   0  0  0  0  0  3  0  0  0  0  0  0
  183.6300  177.7330  137.3650 C   0  0  0  0  0  0  0  0  0  0  0  0
  179.1110  177.6580  141.7180 S   0  0  0  0  0  0  0  0  0  0  0  0
  186.5680  178.1670  138.2470 C   0  0  0  0  0  3  0  0  0  0  0  0
  184.3200  177.3740  136.2830 C   0  0  0  0  0  3  0  0  0  0  0  0
  178.9310  178.3830  139.0900 C   0  0  0  0  0  2  0  0  0  0  0  0
  184.2260  177.5780  138.7470 C   0  0  2  0  0  3  0  0  0  0  0  0
  183.0550  177.5620  140.1760 S   0  0  0  0  0  0  0  0  0  0  0  0
  182.1460  179.6850  137.4870 N   0  0  0  0  0  0  0  0  0  0  0  0
  186.6970  177.2120  137.1260 C   0  0  0  0  0  0  0  0  0  0  0  0
  182.2360  178.2450  137.1510 C   0  0  2  0  0  3  0  0  0  0  0  0
  180.4010  178.5460  142.6180 C   0  0  2  0  0  3  0  0  0  0  0  0
  178.9590  177.2550  138.0620 C   0  0  0  0  0  2  0  0  0  0  0  0
  179.9310  178.9280  144.0140 C   0  0  0  0  0  2  0  0  0  0  0  0
  179.4360  177.8130  144.6930 O   0  0  0  0  0  1  0  0  0  0  0  0
  180.8160  180.2490  137.2780 C   0  0  0  0  0  2  0  0  0  0  0  0
  180.7860  181.7450  137.5830 C   0  0  1  0  0  3  0  0  0  0  0  0
  181.1050  183.9550  136.5640 C   0  0  0  0  0  2  0  0  0  0  0  0
  179.6720  183.6230  136.5360 N   0  0  2  0  0  0  0  0  0  0  0  0
  179.2300  183.5010  137.9230 C   0  0  0  0  0  2  0  0  0  0  0  0
  180.6900  182.5760  136.3150 C   0  0  2  0  0  3  0  0  0  0  0  0
  179.5880  182.1180  138.4150 C   0  0  0  0  0  2  0  0  0  0  0  0
  2  9  1  6  0  0  0
  2 18  1  0  0  0  0
  2  5  1  0  0  0  0
  3  8  1  0  0  0  0
  4  1  1  0  0  0  0
  4 23  1  0  0  0  0
  5  6  1  1  0  0  0
  6 22  1  0  0  0  0
  7 20  1  0  0  0  0
 10 16  1  6  0  0  0
 10  5  1  0  0  0  0
 10 13  1  0  0  0  0
 11 15  1  0  0  0  0
 11 20  2  0  0  0  0
 13 22  1  0  0  0  0
 14  3  2  0  0  0  0
 15 12  2  0  0  0  0
 17 12  1  6  0  0  0
 17  3  1  0  0  0  0
 17 18  1  0  0  0  0
 19  9  1  0  0  0  0
 20 14  1  0  0  0  0
 21 12  1  1  0  0  0
 21 19  1  0  0  0  0
 21  1  1  0  0  0  0
 22 24  1  1  0  0  0
 23 16  1  0  0  0  0
 24 25  1  0  0  0  0
 26 19  1  0  0  0  0
 27 26  1  6  0  0  0
 27 32  1  0  0  0  0
 29 28  1  1  0  0  0
 29 30  1  0  0  0  0
 30 32  1  0  0  0  0
 31 29  1  0  0  0  0
 31 28  1  1  0  0  0
 31 27  1  0  0  0  0
M  END
>  <MODEL>
1

>  <REMARK>
 VINA RESULT:      -5.6      0.000      0.000
  Name = 
  3 active torsions:
  status: ('A' for Active; 'I' for Inactive)
    1  A    between atoms: C_9  and  C_28
    2  A    between atoms: C_13  and  C_29
    3  A    between atoms: N_24  and  C_28
                            x       y       z     vdW  Elec       q    Type
                         _______ _______ _______ _____ _____    ______ ____

>  <TORSDO>
F 3

$$$$
=
 OpenBabel11052414363D

 32 37  0  0  1  0  0  0  0  0999 V2000
  180.0430  178.7730  139.5990 O   0  0  0  0  0  0  0  0  0  0  0  0
  181.0750  177.3580  137.2560 C   0  0  2  0  0  3  0  0  0  0  0  0
  180.7360  180.3600  135.5680 C   0  0  0  0  0  0  0  0  0  0  0  0
  180.1840  178.5760  140.9750 C   0  0  0  0  0  2  0  0  0  0  0  0
  181.0130  176.0570  138.0710 C   0  0  2  0  0  3  0  0  0  0  0  0
  180.9060  174.9140  137.1720 N   0  0  0  0  0  2  0  0  0  0  0  0
  179.9020  183.8900  135.2440 F   0  0  0  0  0  0  0  0  0  0  0  0
  181.3410  179.3840  134.7240 N   0  0  0  0  0  1  0  0  0  0  0  0
  182.2970  178.2450  137.5140 C   0  0  0  0  0  2  0  0  0  0  0  0
  179.8910  176.0320  139.1090 C   0  0  1  0  0  3  0  0  0  0  0  0
  180.1990  182.8740  137.2880 C   0  0  0  0  0  3  0  0  0  0  0  0
  180.5520  180.5200  138.0750 C   0  0  0  0  0  0  0  0  0  0  0  0
  178.9310  174.5160  138.9050 S   0  0  0  0  0  0  0  0  0  0  0  0
  180.7830  181.6380  135.1950 C   0  0  0  0  0  3  0  0  0  0  0  0
  180.5820  181.8380  138.2710 C   0  0  0  0  0  3  0  0  0  0  0  0
  180.4510  176.1070  140.5230 C   0  0  0  0  0  2  0  0  0  0  0  0
  179.9840  179.9430  136.7980 C   0  0  2  0  0  3  0  0  0  0  0  0
  179.4710  178.1680  136.8280 S   0  0  0  0  0  0  0  0  0  0  0  0
  182.3090  178.9650  138.7950 N   0  0  0  0  0  0  0  0  0  0  0  0
  180.2410  182.7860  135.9530 C   0  0  0  0  0  0  0  0  0  0  0  0
  181.0570  179.6510  139.1890 C   0  0  2  0  0  3  0  0  0  0  0  0
  179.5290  174.4490  137.2010 C   0  0  2  0  0  3  0  0  0  0  0  0
  179.7130  177.1700  141.3320 C   0  0  0  0  0  2  0  0  0  0  0  0
  179.4270  173.0380  136.6400 C   0  0  0  0  0  2  0  0  0  0  0  0
  179.9840  172.1110  137.5250 O   0  0  0  0  0  1  0  0  0  0  0  0
  182.8640  178.1170  139.8470 C   0  0  0  0  0  2  0  0  0  0  0  0
  183.7720  178.9080  140.7850 C   0  0  1  0  0  3  0  0  0  0  0  0
  184.3600  179.2020  143.1500 C   0  0  0  0  0  2  0  0  0  0  0  0
  185.3070  178.2540  142.5410 N   0  0  2  0  0  0  0  0  0  0  0  0
  186.0310  178.9770  141.5000 C   0  0  0  0  0  2  0  0  0  0  0  0
  183.8820  178.2500  142.1500 C   0  0  2  0  0  3  0  0  0  0  0  0
  185.1780  178.9960  140.2530 C   0  0  0  0  0  2  0  0  0  0  0  0
  1  4  1  0  0  0  0
  2  9  1  1  0  0  0
  2  5  1  0  0  0  0
  4 23  1  0  0  0  0
  5  6  1  6  0  0  0
  5 10  1  0  0  0  0
  6 22  1  0  0  0  0
  7 20  1  0  0  0  0
  8  3  1  0  0  0  0
  9 19  1  0  0  0  0
 10 16  1  1  0  0  0
 11 15  1  0  0  0  0
 12 15  2  0  0  0  0
 13 10  1  0  0  0  0
 14  3  2  0  0  0  0
 14 20  1  0  0  0  0
 16 23  1  0  0  0  0
 17  3  1  6  0  0  0
 17 18  1  0  0  0  0
 17 12  1  0  0  0  0
 18  2  1  0  0  0  0
 19 21  1  0  0  0  0
 19 26  1  0  0  0  0
 20 11  2  0  0  0  0
 21 12  1  6  0  0  0
 21  1  1  0  0  0  0
 22 24  1  1  0  0  0
 22 13  1  0  0  0  0
 24 25  1  0  0  0  0
 27 26  1  6  0  0  0
 27 31  1  0  0  0  0
 29 30  1  6  0  0  0
 29 28  1  0  0  0  0
 31 29  1  0  0  0  0
 31 28  1  1  0  0  0
 32 27  1  0  0  0  0
 32 30  1  0  0  0  0
M  END
>  <MODEL>
2

>  <REMARK>
 VINA RESULT:      -5.5      3.220      6.334
  Name = 
  3 active torsions:
  status: ('A' for Active; 'I' for Inactive)
    1  A    between atoms: C_9  and  C_28
    2  A    between atoms: C_13  and  C_29
    3  A    between atoms: N_24  and  C_28
                            x       y       z     vdW  Elec       q    Type
                         _______ _______ _______ _____ _____    ______ ____

>  <TORSDO>
F 3

$$$$
=
 OpenBabel11052414363D

 32 37  0  0  1  0  0  0  0  0999 V2000
  180.1230  177.2140  139.6500 O   0  0  0  0  0  0  0  0  0  0  0  0
  182.7820  177.9220  138.6610 C   0  0  2  0  0  3  0  0  0  0  0  0
  182.4590  175.2300  136.5110 C   0  0  0  0  0  0  0  0  0  0  0  0
  179.1040  177.9470  140.2650 C   0  0  0  0  0  2  0  0  0  0  0  0
  182.8690  178.9740  139.7790 C   0  0  2  0  0  3  0  0  0  0  0  0
  184.2660  179.2580  140.0850 N   0  0  0  0  0  2  0  0  0  0  0  0
  180.7490  172.3790  135.0240 F   0  0  0  0  0  0  0  0  0  0  0  0
  183.6700  175.9320  136.2450 N   0  0  0  0  0  1  0  0  0  0  0  0
  181.9860  178.3370  137.4200 C   0  0  0  0  0  2  0  0  0  0  0  0
  182.1060  178.5910  141.0470 C   0  0  1  0  0  3  0  0  0  0  0  0
  179.6450  173.9690  136.2710 C   0  0  0  0  0  3  0  0  0  0  0  0
  180.3310  175.9400  137.6590 C   0  0  0  0  0  0  0  0  0  0  0  0
  183.2040  178.7620  142.4710 S   0  0  0  0  0  0  0  0  0  0  0  0
  182.0260  174.3470  135.6120 C   0  0  0  0  0  3  0  0  0  0  0  0
  179.4130  175.2330  137.0000 C   0  0  0  0  0  3  0  0  0  0  0  0
  180.8740  179.4660  141.2300 C   0  0  0  0  0  2  0  0  0  0  0  0
  181.7420  175.4160  137.8170 C   0  0  2  0  0  3  0  0  0  0  0  0
  182.7680  176.1460  139.1680 S   0  0  0  0  0  0  0  0  0  0  0  0
  180.5260  178.3860  137.5810 N   0  0  0  0  0  0  0  0  0  0  0  0
  180.7830  173.5530  135.7010 C   0  0  0  0  0  0  0  0  0  0  0  0
  179.8900  177.2380  138.2680 C   0  0  2  0  0  3  0  0  0  0  0  0
  184.5960  178.5860  141.3320 C   0  0  2  0  0  3  0  0  0  0  0  0
  179.6500  178.6050  141.5280 C   0  0  0  0  0  2  0  0  0  0  0  0
  185.8700  179.1630  141.9310 C   0  0  0  0  0  2  0  0  0  0  0  0
  186.9910  178.7370  141.2150 O   0  0  0  0  0  1  0  0  0  0  0  0
  180.1200  179.6820  138.1150 C   0  0  0  0  0  2  0  0  0  0  0  0
  180.7740  180.8330  137.3540 C   0  0  1  0  0  3  0  0  0  0  0  0
  180.5600  182.2160  135.3380 C   0  0  0  0  0  2  0  0  0  0  0  0
  179.9250  182.9190  136.4640 N   0  0  2  0  0  0  0  0  0  0  0  0
  180.9700  183.1940  137.4460 C   0  0  0  0  0  2  0  0  0  0  0  0
  179.8240  181.4510  136.3420 C   0  0  2  0  0  3  0  0  0  0  0  0
  181.1770  181.9510  138.2790 C   0  0  0  0  0  2  0  0  0  0  0  0
  1  4  1  0  0  0  0
  2  9  1  1  0  0  0
  2 18  1  0  0  0  0
  2  5  1  0  0  0  0
  4 23  1  0  0  0  0
  5  6  1  1  0  0  0
  5 10  1  0  0  0  0
  6 22  1  0  0  0  0
  7 20  1  0  0  0  0
  8  3  1  0  0  0  0
  9 19  1  0  0  0  0
 10 16  1  1  0  0  0
 10 13  1  0  0  0  0
 11 15  1  0  0  0  0
 12 17  1  0  0  0  0
 14 20  1  0  0  0  0
 14  3  2  0  0  0  0
 15 12  2  0  0  0  0
 16 23  1  0  0  0  0
 17  3  1  6  0  0  0
 17 18  1  0  0  0  0
 19 26  1  0  0  0  0
 19 21  1  0  0  0  0
 20 11  2  0  0  0  0
 21 12  1  6  0  0  0
 21  1  1  0  0  0  0
 22 24  1  1  0  0  0
 22 13  1  0  0  0  0
 25 24  1  0  0  0  0
 27 26  1  1  0  0  0
 27 32  1  0  0  0  0
 29 28  1  6  0  0  0
 29 30  1  0  0  0  0
 30 32  1  0  0  0  0
 31 28  1  6  0  0  0
 31 29  1  0  0  0  0
 31 27  1  0  0  0  0
M  END
>  <MODEL>
3

>  <REMARK>
 VINA RESULT:      -5.5      2.832      4.239
  Name = 
  3 active torsions:
  status: ('A' for Active; 'I' for Inactive)
    1  A    between atoms: C_9  and  C_28
    2  A    between atoms: C_13  and  C_29
    3  A    between atoms: N_24  and  C_28
                            x       y       z     vdW  Elec       q    Type
                         _______ _______ _______ _____ _____    ______ ____

>  <TORSDO>
F 3

$$$$
=
 OpenBabel11052414363D

 32 37  0  0  1  0  0  0  0  0999 V2000
  183.1710  177.1230  140.3020 O   0  0  0  0  0  0  0  0  0  0  0  0
  184.1070  177.6460  137.5820 C   0  0  2  0  0  3  0  0  0  0  0  0
  181.9760  175.1030  136.5950 C   0  0  0  0  0  0  0  0  0  0  0  0
  183.0900  177.9090  141.4540 C   0  0  0  0  0  2  0  0  0  0  0  0
  185.1310  178.6280  138.1710 C   0  0  2  0  0  3  0  0  0  0  0  0
  186.2600  178.7740  137.2590 N   0  0  0  0  0  2  0  0  0  0  0  0
  179.4930  172.4900  137.1100 F   0  0  0  0  0  0  0  0  0  0  0  0
  182.5820  175.7100  135.4570 N   0  0  0  0  0  1  0  0  0  0  0  0
  182.6850  178.1900  137.4160 C   0  0  0  0  0  2  0  0  0  0  0  0
  185.6150  178.2490  139.5710 C   0  0  1  0  0  3  0  0  0  0  0  0
  179.9340  174.1050  138.6920 C   0  0  0  0  0  3  0  0  0  0  0  0
  181.6250  175.9370  138.9460 C   0  0  0  0  0  0  0  0  0  0  0  0
  187.4210  178.2530  139.5930 S   0  0  0  0  0  0  0  0  0  0  0  0
  180.9250  174.3080  136.4060 C   0  0  0  0  0  3  0  0  0  0  0  0
  180.4780  175.3470  139.2800 C   0  0  0  0  0  3  0  0  0  0  0  0
  185.0790  179.2180  140.6160 C   0  0  0  0  0  2  0  0  0  0  0  0
  182.5710  175.2850  137.9610 C   0  0  2  0  0  3  0  0  0  0  0  0
  184.3280  175.8540  137.9740 S   0  0  0  0  0  0  0  0  0  0  0  0
  181.9130  178.3570  138.6550 N   0  0  0  0  0  0  0  0  0  0  0  0
  180.1520  173.6210  137.4620 C   0  0  0  0  0  0  0  0  0  0  0  0
  181.9500  177.2360  139.6230 C   0  0  2  0  0  3  0  0  0  0  0  0
  187.3750  178.0140  137.8030 C   0  0  2  0  0  3  0  0  0  0  0  0
  184.4740  178.4520  141.7900 C   0  0  0  0  0  2  0  0  0  0  0  0
  188.6830  178.4470  137.1580 C   0  0  0  0  0  2  0  0  0  0  0  0
  189.0560  179.7190  137.5990 O   0  0  0  0  0  1  0  0  0  0  0  0
  182.2010  179.6560  139.2580 C   0  0  0  0  0  2  0  0  0  0  0  0
  181.0510  180.6380  139.0490 C   0  0  1  0  0  3  0  0  0  0  0  0
  180.4700  182.7660  137.9740 C   0  0  0  0  0  2  0  0  0  0  0  0
  180.0920  181.6640  137.0750 N   0  0  2  0  0  0  0  0  0  0  0  0
  179.0740  180.8760  137.7630 C   0  0  0  0  0  2  0  0  0  0  0  0
  181.3220  181.5830  137.8900 C   0  0  2  0  0  3  0  0  0  0  0  0
  179.7670  179.9270  138.7120 C   0  0  0  0  0  2  0  0  0  0  0  0
  1  4  1  0  0  0  0
  2  9  1  1  0  0  0
  2 18  1  0  0  0  0
  2  5  1  0  0  0  0
  4 23  1  0  0  0  0
  5  6  1  6  0  0  0
  5 10  1  0  0  0  0
  6 22  1  0  0  0  0
  7 20  1  0  0  0  0
  8  3  1  0  0  0  0
  9 19  1  0  0  0  0
 10 13  1  0  0  0  0
 10 16  1  1  0  0  0
 11 15  1  0  0  0  0
 12 15  2  0  0  0  0
 14  3  2  0  0  0  0
 14 20  1  0  0  0  0
 16 23  1  0  0  0  0
 17  3  1  6  0  0  0
 17 18  1  0  0  0  0
 17 12  1  0  0  0  0
 19 26  1  0  0  0  0
 19 21  1  0  0  0  0
 20 11  2  0  0  0  0
 21 12  1  6  0  0  0
 21  1  1  0  0  0  0
 22 24  1  6  0  0  0
 22 13  1  0  0  0  0
 24 25  1  0  0  0  0
 27 26  1  6  0  0  0
 29 30  1  1  0  0  0
 29 31  1  0  0  0  0
 29 28  1  0  0  0  0
 30 32  1  0  0  0  0
 31 28  1  1  0  0  0
 31 27  1  0  0  0  0
 32 27  1  0  0  0  0
M  END
>  <MODEL>
4

>  <REMARK>
 VINA RESULT:      -5.1      3.242      5.809
  Name = 
  3 active torsions:
  status: ('A' for Active; 'I' for Inactive)
    1  A    between atoms: C_9  and  C_28
    2  A    between atoms: C_13  and  C_29
    3  A    between atoms: N_24  and  C_28
                            x       y       z     vdW  Elec       q    Type
                         _______ _______ _______ _____ _____    ______ ____

>  <TORSDO>
F 3

$$$$
=
 OpenBabel11052414363D

 32 37  0  0  1  0  0  0  0  0999 V2000
  180.8780  177.9270  137.3460 O   0  0  0  0  0  0  0  0  0  0  0  0
  180.9080  176.8720  140.0730 C   0  0  2  0  0  3  0  0  0  0  0  0
  179.9040  173.8650  138.6860 C   0  0  0  0  0  0  0  0  0  0  0  0
  181.5550  178.9760  136.7170 C   0  0  0  0  0  2  0  0  0  0  0  0
  181.1840  178.2990  140.5730 C   0  0  2  0  0  3  0  0  0  0  0  0
  180.7390  178.4340  141.9560 N   0  0  0  0  0  2  0  0  0  0  0  0
  178.9830  171.6290  135.9630 F   0  0  0  0  0  0  0  0  0  0  0  0
  180.1330  173.7120  140.0840 N   0  0  0  0  0  1  0  0  0  0  0  0
  182.1260  176.1070  139.5450 C   0  0  0  0  0  2  0  0  0  0  0  0
  180.5660  179.3900  139.6990 C   0  0  1  0  0  3  0  0  0  0  0  0
  180.0740  173.6250  135.6070 C   0  0  0  0  0  3  0  0  0  0  0  0
  180.7280  175.5790  137.0340 C   0  0  0  0  0  0  0  0  0  0  0  0
  179.6150  180.5150  140.7430 S   0  0  0  0  0  0  0  0  0  0  0  0
  179.7900  172.7680  137.9380 C   0  0  0  0  0  3  0  0  0  0  0  0
  180.8230  174.8610  135.9150 C   0  0  0  0  0  3  0  0  0  0  0  0
  181.6400  180.1610  138.9450 C   0  0  0  0  0  2  0  0  0  0  0  0
  179.7040  175.2280  138.0910 C   0  0  2  0  0  3  0  0  0  0  0  0
  179.2590  176.5470  139.3060 S   0  0  0  0  0  0  0  0  0  0  0  0
  182.6390  176.5400  138.2380 N   0  0  0  0  0  0  0  0  0  0  0  0
  179.5840  172.7300  136.4750 C   0  0  0  0  0  0  0  0  0  0  0  0
  181.6400  176.7630  137.1670 C   0  0  2  0  0  3  0  0  0  0  0  0
  179.4890  179.1780  141.9520 C   0  0  2  0  0  3  0  0  0  0  0  0
  181.2750  180.2740  137.4670 C   0  0  0  0  0  2  0  0  0  0  0  0
  179.1850  179.7220  143.3400 C   0  0  0  0  0  2  0  0  0  0  0  0
  178.9540  178.6790  144.2400 O   0  0  0  0  0  1  0  0  0  0  0  0
  183.5710  177.6510  138.4040 C   0  0  0  0  0  2  0  0  0  0  0  0
  184.7600  177.5340  137.4530 C   0  0  1  0  0  3  0  0  0  0  0  0
  186.9540  178.5040  136.9360 C   0  0  0  0  0  2  0  0  0  0  0  0
  187.1480  177.3350  137.8090 N   0  0  2  0  0  0  0  0  0  0  0  0
  186.6610  176.1670  137.0800 C   0  0  0  0  0  2  0  0  0  0  0  0
  185.9920  178.2340  138.0020 C   0  0  2  0  0  3  0  0  0  0  0  0
  185.1610  176.0970  137.2410 C   0  0  0  0  0  2  0  0  0  0  0  0
  2  9  1  6  0  0  0
  2  5  1  0  0  0  0
  3  8  1  0  0  0  0
  4  1  1  0  0  0  0
  4 23  1  0  0  0  0
  5  6  1  1  0  0  0
  7 20  1  0  0  0  0
 10 16  1  1  0  0  0
 10  5  1  0  0  0  0
 10 13  1  0  0  0  0
 11 15  1  0  0  0  0
 11 20  2  0  0  0  0
 13 22  1  0  0  0  0
 14  3  2  0  0  0  0
 15 12  2  0  0  0  0
 17 12  1  1  0  0  0
 17  3  1  0  0  0  0
 17 18  1  0  0  0  0
 18  2  1  0  0  0  0
 19 26  1  0  0  0  0
 19  9  1  0  0  0  0
 20 14  1  0  0  0  0
 21 12  1  1  0  0  0
 21  1  1  0  0  0  0
 21 19  1  0  0  0  0
 22  6  1  0  0  0  0
 22 24  1  1  0  0  0
 23 16  1  0  0  0  0
 24 25  1  0  0  0  0
 27 31  1  0  0  0  0
 27 26  1  1  0  0  0
 29 28  1  6  0  0  0
 29 31  1  0  0  0  0
 30 32  1  0  0  0  0
 30 29  1  0  0  0  0
 31 28  1  6  0  0  0
 32 27  1  0  0  0  0
M  END
>  <MODEL>
5

>  <REMARK>
 VINA RESULT:      -5.1      3.088      5.616
  Name = 
  3 active torsions:
  status: ('A' for Active; 'I' for Inactive)
    1  A    between atoms: C_9  and  C_28
    2  A    between atoms: C_13  and  C_29
    3  A    between atoms: N_24  and  C_28
                            x       y       z     vdW  Elec       q    Type
                         _______ _______ _______ _____ _____    ______ ____

>  <TORSDO>
F 3

$$$$
=
 OpenBabel11052414363D

 32 37  0  0  1  0  0  0  0  0999 V2000
  189.4740  177.6170  136.3210 O   0  0  0  0  0  0  0  0  0  0  0  0
  188.3060  174.9390  136.4570 C   0  0  2  0  0  3  0  0  0  0  0  0
  191.4560  173.7640  135.6340 C   0  0  0  0  0  0  0  0  0  0  0  0
  189.1440  178.8360  136.9180 C   0  0  0  0  0  2  0  0  0  0  0  0
  186.9310  175.5980  136.6450 C   0  0  2  0  0  3  0  0  0  0  0  0
  185.8800  174.6840  136.2100 N   0  0  0  0  0  2  0  0  0  0  0  0
  194.9920  174.0830  134.8250 F   0  0  0  0  0  0  0  0  0  0  0  0
  190.5730  172.6750  135.8910 N   0  0  0  0  0  1  0  0  0  0  0  0
  189.1750  174.8470  137.7150 C   0  0  0  0  0  2  0  0  0  0  0  0
  186.7920  176.9490  135.9450 C   0  0  1  0  0  3  0  0  0  0  0  0
  193.7830  175.7960  135.7780 C   0  0  0  0  0  3  0  0  0  0  0  0
  191.3670  176.1860  136.3210 C   0  0  0  0  0  0  0  0  0  0  0  0
  185.2950  176.9420  134.9360 S   0  0  0  0  0  0  0  0  0  0  0  0
  192.7640  173.5210  135.5820 C   0  0  0  0  0  2  0  0  0  0  0  0
  192.6600  176.4840  136.4480 C   0  0  0  0  0  3  0  0  0  0  0  0
  186.7340  178.0860  136.9560 C   0  0  0  0  0  2  0  0  0  0  0  0
  190.9120  175.1310  135.3370 C   0  0  0  0  0  0  0  0  0  0  0  0
  189.1380  175.1650  134.8220 S   0  0  0  0  0  0  0  0  0  0  0  0
  189.7670  176.1090  138.1800 N   0  0  0  0  0  0  0  0  0  0  0  0
  193.8270  174.5240  135.3590 C   0  0  0  0  0  0  0  0  0  0  0  0
  190.3980  176.9710  137.1540 C   0  0  2  0  0  3  0  0  0  0  0  0
  185.4010  175.1380  134.9150 C   0  0  2  0  0  3  0  0  0  0  0  0
  187.7050  179.1970  136.5640 C   0  0  0  0  0  2  0  0  0  0  0  0
  184.0500  174.5130  134.5940 C   0  0  0  0  0  2  0  0  0  0  0  0
  183.6150  173.7060  135.6470 O   0  0  0  0  0  1  0  0  0  0  0  0
  188.8260  176.8210  139.0400 C   0  0  0  0  0  2  0  0  0  0  0  0
  189.5200  177.4110  140.2650 C   0  0  1  0  0  3  0  0  0  0  0  0
  189.1090  178.2230  142.5440 C   0  0  0  0  0  2  0  0  0  0  0  0
  189.5240  176.8130  142.6120 N   0  0  2  0  0  0  0  0  0  0  0  0
  190.8830  176.7370  142.0840 C   0  0  0  0  0  2  0  0  0  0  0  0
  188.6610  177.2910  141.5120 C   0  0  2  0  0  3  0  0  0  0  0  0
  190.8050  176.6900  140.5760 C   0  0  0  0  0  2  0  0  0  0  0  0
  1  4  1  0  0  0  0
  1 21  1  0  0  0  0
  2  5  1  0  0  0  0
  2  9  1  1  0  0  0
  3  8  1  0  0  0  0
  5  6  1  6  0  0  0
  7 20  1  0  0  0  0
  9 19  1  0  0  0  0
 10  5  1  0  0  0  0
 10 16  1  1  0  0  0
 11 15  1  0  0  0  0
 12 15  2  0  0  0  0
 13 10  1  0  0  0  0
 14  3  1  0  0  0  0
 17  3  2  0  0  0  0
 17 12  1  0  0  0  0
 18 17  1  0  0  0  0
 18  2  1  0  0  0  0
 19 26  1  0  0  0  0
 20 14  1  0  0  0  0
 20 11  2  0  0  0  0
 21 12  1  6  0  0  0
 21 19  1  0  0  0  0
 22 24  1  1  0  0  0
 22 13  1  0  0  0  0
 22  6  1  0  0  0  0
 23  4  1  0  0  0  0
 23 16  1  0  0  0  0
 24 25  1  0  0  0  0
 27 26  1  6  0  0  0
 27 32  1  0  0  0  0
 27 31  1  0  0  0  0
 28 29  1  0  0  0  0
 29 30  1  6  0  0  0
 31 28  1  1  0  0  0
 31 29  1  0  0  0  0
 32 30  1  0  0  0  0
M  END
>  <MODEL>
6

>  <REMARK>
 VINA RESULT:      -5.0      6.773      9.464
  Name = 
  3 active torsions:
  status: ('A' for Active; 'I' for Inactive)
    1  A    between atoms: C_9  and  C_28
    2  A    between atoms: C_13  and  C_29
    3  A    between atoms: N_24  and  C_28
                            x       y       z     vdW  Elec       q    Type
                         _______ _______ _______ _____ _____    ______ ____

>  <TORSDO>
F 3

$$$$
=
 OpenBabel11052414363D

 32 37  0  0  1  0  0  0  0  0999 V2000
  183.2580  176.3790  135.2540 O   0  0  0  0  0  0  0  0  0  0  0  0
  183.2380  173.9820  136.9280 C   0  0  2  0  0  3  0  0  0  0  0  0
  186.6900  174.0520  136.6890 C   0  0  0  0  0  0  0  0  0  0  0  0
  182.3670  177.4430  135.0950 C   0  0  0  0  0  2  0  0  0  0  0  0
  181.7060  173.9670  136.8100 C   0  0  2  0  0  3  0  0  0  0  0  0
  181.2050  172.6140  137.0260 N   0  0  0  0  0  2  0  0  0  0  0  0
  189.8980  175.3940  135.6050 F   0  0  0  0  0  0  0  0  0  0  0  0
  186.2770  173.0070  137.5640 N   0  0  0  0  0  1  0  0  0  0  0  0
  183.8150  174.9500  137.9660 C   0  0  0  0  0  2  0  0  0  0  0  0
  181.1830  174.5310  135.4900 C   0  0  1  0  0  3  0  0  0  0  0  0
  187.9540  176.6250  135.5270 C   0  0  0  0  0  3  0  0  0  0  0  0
  185.5240  176.1500  135.9210 C   0  0  0  0  0  0  0  0  0  0  0  0
  180.0330  173.3480  134.7560 S   0  0  0  0  0  0  0  0  0  0  0  0
  187.9720  174.4140  136.6930 C   0  0  0  0  0  2  0  0  0  0  0  0
  186.5450  176.9950  135.7760 C   0  0  0  0  0  3  0  0  0  0  0  0
  180.4890  175.8690  135.7020 C   0  0  0  0  0  2  0  0  0  0  0  0
  185.7190  174.6630  135.7200 C   0  0  0  0  0  0  0  0  0  0  0  0
  184.2100  173.6500  135.3920 S   0  0  0  0  0  0  0  0  0  0  0  0
  183.7600  176.3760  137.6130 N   0  0  0  0  0  0  0  0  0  0  0  0
  188.5750  175.4930  135.8810 C   0  0  0  0  0  0  0  0  0  0  0  0
  184.1840  176.7430  136.2420 C   0  0  2  0  0  3  0  0  0  0  0  0
  180.8430  172.0610  135.7310 C   0  0  2  0  0  3  0  0  0  0  0  0
  181.0000  176.8990  134.6970 C   0  0  0  0  0  2  0  0  0  0  0  0
  179.9370  170.8500  135.9010 C   0  0  0  0  0  2  0  0  0  0  0  0
  178.9390  171.1050  136.8450 O   0  0  0  0  0  1  0  0  0  0  0  0
  182.4690  176.9410  137.9940 C   0  0  0  0  0  2  0  0  0  0  0  0
  182.6340  178.1460  138.9160 C   0  0  1  0  0  3  0  0  0  0  0  0
  184.2260  179.2550  140.4200 C   0  0  0  0  0  2  0  0  0  0  0  0
  184.3200  179.8770  139.0890 N   0  0  2  0  0  0  0  0  0  0  0  0
  183.0220  180.4820  138.8040 C   0  0  0  0  0  2  0  0  0  0  0  0
  184.0950  178.4230  139.2260 C   0  0  2  0  0  3  0  0  0  0  0  0
  182.0980  179.4050  138.2860 C   0  0  0  0  0  2  0  0  0  0  0  0
  2  9  1  6  0  0  0
  3 14  1  0  0  0  0
  3  8  1  0  0  0  0
  4  1  1  0  0  0  0
  5  2  1  0  0  0  0
  5  6  1  6  0  0  0
  7 20  1  0  0  0  0
 10 16  1  1  0  0  0
 10  5  1  0  0  0  0
 11 15  1  0  0  0  0
 11 20  2  0  0  0  0
 12 21  1  0  0  0  0
 13 10  1  0  0  0  0
 13 22  1  0  0  0  0
 15 12  2  0  0  0  0
 17 12  1  0  0  0  0
 17  3  2  0  0  0  0
 18 17  1  0  0  0  0
 18  2  1  0  0  0  0
 19  9  1  0  0  0  0
 19 26  1  0  0  0  0
 20 14  1  0  0  0  0
 21  1  1  6  0  0  0
 21 19  1  0  0  0  0
 22 24  1  1  0  0  0
 22  6  1  0  0  0  0
 23  4  1  0  0  0  0
 23 16  1  0  0  0  0
 24 25  1  0  0  0  0
 27 26  1  6  0  0  0
 27 31  1  0  0  0  0
 29 30  1  1  0  0  0
 29 31  1  0  0  0  0
 29 28  1  0  0  0  0
 31 28  1  1  0  0  0
 32 30  1  0  0  0  0
 32 27  1  0  0  0  0
M  END
>  <MODEL>
7

>  <REMARK>
 VINA RESULT:      -4.7      3.961      5.793
  Name = 
  3 active torsions:
  status: ('A' for Active; 'I' for Inactive)
    1  A    between atoms: C_9  and  C_28
    2  A    between atoms: C_13  and  C_29
    3  A    between atoms: N_24  and  C_28
                            x       y       z     vdW  Elec       q    Type
                         _______ _______ _______ _____ _____    ______ ____

>  <TORSDO>
F 3

$$$$
=
 OpenBabel11052414363D

 32 37  0  0  1  0  0  0  0  0999 V2000
  182.5630  177.9120  136.8350 O   0  0  0  0  0  0  0  0  0  0  0  0
  182.5820  175.0120  137.2140 C   0  0  2  0  0  3  0  0  0  0  0  0
  186.0330  175.2370  137.0710 C   0  0  0  0  0  0  0  0  0  0  0  0
  181.6530  178.9160  137.1760 C   0  0  0  0  0  2  0  0  0  0  0  0
  181.0510  175.0310  137.0860 C   0  0  2  0  0  3  0  0  0  0  0  0
  180.5740  173.7240  136.6480 N   0  0  0  0  0  2  0  0  0  0  0  0
  189.2180  176.9740  136.7640 F   0  0  0  0  0  0  0  0  0  0  0  0
  185.6360  173.8990  137.3600 N   0  0  0  0  0  1  0  0  0  0  0  0
  183.1380  175.4010  138.5870 C   0  0  0  0  0  2  0  0  0  0  0  0
  180.5210  176.1330  136.1690 C   0  0  1  0  0  3  0  0  0  0  0  0
  187.2520  178.0740  137.2410 C   0  0  0  0  0  3  0  0  0  0  0  0
  184.8310  177.4340  137.3460 C   0  0  0  0  0  0  0  0  0  0  0  0
  179.3940  175.4060  134.9600 S   0  0  0  0  0  0  0  0  0  0  0  0
  187.3080  175.5740  137.2550 C   0  0  0  0  0  2  0  0  0  0  0  0
  185.8370  178.2660  137.6180 C   0  0  0  0  0  3  0  0  0  0  0  0
  179.8020  177.2120  136.9680 C   0  0  0  0  0  2  0  0  0  0  0  0
  185.0540  176.2110  136.4830 C   0  0  0  0  0  0  0  0  0  0  0  0
  183.5630  175.4420  135.7090 S   0  0  0  0  0  0  0  0  0  0  0  0
  183.0590  176.8270  138.9320 N   0  0  0  0  0  0  0  0  0  0  0  0
  187.8930  176.9150  137.0400 C   0  0  0  0  0  0  0  0  0  0  0  0
  183.4790  177.7920  137.8900 C   0  0  2  0  0  3  0  0  0  0  0  0
  180.2250  173.8250  135.2400 C   0  0  2  0  0  3  0  0  0  0  0  0
  180.2970  178.5960  136.5570 C   0  0  0  0  0  2  0  0  0  0  0  0
  179.3400  172.6600  134.8220 C   0  0  0  0  0  2  0  0  0  0  0  0
  179.4300  171.6140  135.7430 O   0  0  0  0  0  1  0  0  0  0  0  0
  181.7560  177.1340  139.5170 C   0  0  0  0  0  2  0  0  0  0  0  0
  181.8320  178.3320  140.4590 C   0  0  1  0  0  3  0  0  0  0  0  0
  180.4700  179.7680  141.9100 C   0  0  0  0  0  2  0  0  0  0  0  0
  181.0710  178.7020  142.7280 N   0  0  2  0  0  0  0  0  0  0  0  0
  182.5200  178.8730  142.6620 C   0  0  0  0  0  2  0  0  0  0  0  0
  180.6080  178.4240  141.3530 C   0  0  2  0  0  3  0  0  0  0  0  0
  183.0160  178.2360  141.3850 C   0  0  0  0  0  2  0  0  0  0  0  0
  1  4  1  0  0  0  0
  2  9  1  1  0  0  0
  3 14  1  0  0  0  0
  3  8  1  0  0  0  0
  5  6  1  6  0  0  0
  5  2  1  0  0  0  0
  7 20  1  0  0  0  0
  9 19  1  0  0  0  0
 10 16  1  1  0  0  0
 10  5  1  0  0  0  0
 11 15  1  0  0  0  0
 12 15  2  0  0  0  0
 12 21  1  0  0  0  0
 13 22  1  0  0  0  0
 13 10  1  0  0  0  0
 17  3  2  0  0  0  0
 17 12  1  0  0  0  0
 18 17  1  0  0  0  0
 18  2  1  0  0  0  0
 19 26  1  0  0  0  0
 20 11  2  0  0  0  0
 20 14  1  0  0  0  0
 21  1  1  6  0  0  0
 21 19  1  0  0  0  0
 22 24  1  1  0  0  0
 22  6  1  0  0  0  0
 23 16  1  0  0  0  0
 23  4  1  0  0  0  0
 24 25  1  0  0  0  0
 27 26  1  6  0  0  0
 27 31  1  0  0  0  0
 27 32  1  0  0  0  0
 29 28  1  6  0  0  0
 30 29  1  0  0  0  0
 31 28  1  6  0  0  0
 31 29  1  0  0  0  0
 32 30  1  0  0  0  0
M  END
>  <MODEL>
8

>  <REMARK>
 VINA RESULT:      -4.7      3.408      5.453
  Name = 
  3 active torsions:
  status: ('A' for Active; 'I' for Inactive)
    1  A    between atoms: C_9  and  C_28
    2  A    between atoms: C_13  and  C_29
    3  A    between atoms: N_24  and  C_28
                            x       y       z     vdW  Elec       q    Type
                         _______ _______ _______ _____ _____    ______ ____

>  <TORSDO>
F 3

$$$$
=
 OpenBabel11052414363D

 32 37  0  0  1  0  0  0  0  0999 V2000
  182.4490  178.5780  137.3630 O   0  0  0  0  0  0  0  0  0  0  0  0
  180.8070  179.3710  139.6490 C   0  0  2  0  0  3  0  0  0  0  0  0
  179.7390  182.0130  137.6850 C   0  0  0  0  0  0  0  0  0  0  0  0
  182.9740  177.3540  136.9390 C   0  0  0  0  0  2  0  0  0  0  0  0
  181.4890  178.2630  140.4660 C   0  0  2  0  0  3  0  0  0  0  0  0
  181.4220  178.5820  141.8880 N   0  0  0  0  0  2  0  0  0  0  0  0
  179.5960  184.0280  134.6550 F   0  0  0  0  0  0  0  0  0  0  0  0
  179.0400  182.0060  138.9260 N   0  0  0  0  0  1  0  0  0  0  0  0
  179.6700  178.9140  138.7300 C   0  0  0  0  0  2  0  0  0  0  0  0
  182.9320  177.9840  140.0440 C   0  0  1  0  0  3  0  0  0  0  0  0
  180.4480  181.8890  134.6770 C   0  0  0  0  0  3  0  0  0  0  0  0
  180.9730  180.1960  136.4500 C   0  0  0  0  0  0  0  0  0  0  0  0
  183.9930  178.0310  141.5040 S   0  0  0  0  0  0  0  0  0  0  0  0
  179.2700  182.7730  136.6970 C   0  0  0  0  0  3  0  0  0  0  0  0
  180.7600  180.5340  135.1780 C   0  0  0  0  0  3  0  0  0  0  0  0
  183.0500  176.6310  139.3570 C   0  0  0  0  0  2  0  0  0  0  0  0
  181.0250  181.2540  137.5300 C   0  0  2  0  0  3  0  0  0  0  0  0
  181.8520  180.7990  139.1180 S   0  0  0  0  0  0  0  0  0  0  0  0
  180.0760  178.1790  137.5230 N   0  0  0  0  0  0  0  0  0  0  0  0
  179.8400  182.8830  135.3370 C   0  0  0  0  0  0  0  0  0  0  0  0
  181.2020  178.7430  136.7440 C   0  0  2  0  0  3  0  0  0  0  0  0
  182.7340  179.0510  142.3030 C   0  0  2  0  0  3  0  0  0  0  0  0
  183.8320  176.7630  138.0530 C   0  0  0  0  0  2  0  0  0  0  0  0
  182.8660  178.9990  143.8180 C   0  0  0  0  0  2  0  0  0  0  0  0
  183.8340  179.9030  144.2620 O   0  0  0  0  0  1  0  0  0  0  0  0
  180.2300  176.7590  137.8240 C   0  0  0  0  0  2  0  0  0  0  0  0
  179.3930  175.8920  136.8870 C   0  0  1  0  0  3  0  0  0  0  0  0
  179.2950  175.0210  134.5950 C   0  0  0  0  0  2  0  0  0  0  0  0
  179.9250  174.0100  135.4590 N   0  0  2  0  0  0  0  0  0  0  0  0
  178.9310  173.6090  136.4500 C   0  0  0  0  0  2  0  0  0  0  0  0
  180.1870  175.4490  135.6700 C   0  0  2  0  0  3  0  0  0  0  0  0
  178.9310  174.6280  137.5640 C   0  0  0  0  0  2  0  0  0  0  0  0
  2  9  1  6  0  0  0
  2  5  1  0  0  0  0
  3  8  1  0  0  0  0
  4  1  1  0  0  0  0
  4 23  1  0  0  0  0
  5  6  1  1  0  0  0
  6 22  1  0  0  0  0
  7 20  1  0  0  0  0
 10 16  1  1  0  0  0
 10  5  1  0  0  0  0
 10 13  1  0  0  0  0
 11 15  1  0  0  0  0
 11 20  2  0  0  0  0
 13 22  1  0  0  0  0
 14  3  2  0  0  0  0
 15 12  2  0  0  0  0
 17 12  1  1  0  0  0
 17  3  1  0  0  0  0
 17 18  1  0  0  0  0
 18  2  1  0  0  0  0
 19 26  1  0  0  0  0
 19  9  1  0  0  0  0
 20 14  1  0  0  0  0
 21 12  1  1  0  0  0
 21  1  1  0  0  0  0
 21 19  1  0  0  0  0
 22 24  1  1  0  0  0
 23 16  1  0  0  0  0
 24 25  1  0  0  0  0
 27 32  1  0  0  0  0
 27 26  1  1  0  0  0
 29 28  1  6  0  0  0
 29 31  1  0  0  0  0
 29 30  1  0  0  0  0
 30 32  1  0  0  0  0
 31 28  1  6  0  0  0
 31 27  1  0  0  0  0
M  END
>  <MODEL>
9

>  <REMARK>
 VINA RESULT:      -4.7      3.122      5.876
  Name = 
  3 active torsions:
  status: ('A' for Active; 'I' for Inactive)
    1  A    between atoms: C_9  and  C_28
    2  A    between atoms: C_13  and  C_29
    3  A    between atoms: N_24  and  C_28
                            x       y       z     vdW  Elec       q    Type
                         _______ _______ _______ _____ _____    ______ ____

>  <TORSDO>
F 3

$$$$
