=
 OpenBabel11052413443D

 27 31  0  0  1  0  0  0  0  0999 V2000
  184.8550  179.6040  139.8840 N   0  0  0  0  0  2  0  0  0  0  0  0
  184.5310  178.8920  142.2630 C   0  0  0  0  0  0  0  0  0  0  0  0
  186.8920  178.2890  141.4890 N   0  0  0  0  0  0  0  0  0  0  0  0
  185.7390  178.0840  146.2180 C   0  0  0  0  0  3  0  0  0  0  0  0
  187.4140  177.3900  147.7630 F   0  0  0  0  0  0  0  0  0  0  0  0
  183.6590  179.0570  143.3460 C   0  0  0  0  0  3  0  0  0  0  0  0
  187.5620  177.7370  144.1270 C   0  0  0  0  0  3  0  0  0  0  0  0
  188.1170  178.0840  138.0580 C   0  0  0  0  0  0  0  0  0  0  0  0
  187.9480  177.4730  145.4440 C   0  0  0  0  0  3  0  0  0  0  0  0
  189.2640  177.9000  137.4240 C   0  0  0  0  0  2  0  0  0  0  0  0
  186.2600  178.1760  143.8360 C   0  0  0  0  0  0  0  0  0  0  0  0
  183.9130  179.2070  140.9230 C   0  0  2  0  0  3  0  0  0  0  0  0
  187.0380  177.6450  146.4880 C   0  0  0  0  0  0  0  0  0  0  0  0
  185.3470  178.3490  144.9020 C   0  0  0  0  0  0  0  0  0  0  0  0
  185.5680  178.4260  139.4320 C   0  0  1  0  0  3  0  0  0  0  0  0
  185.8680  178.4420  142.5010 C   0  0  0  0  0  0  0  0  0  0  0  0
  188.0810  178.0960  139.4830 N   0  0  0  0  0  2  0  0  0  0  0  0
  184.0560  178.7900  144.6500 C   0  0  0  0  0  3  0  0  0  0  0  0
  186.8870  178.3150  137.3030 C   0  0  0  0  0  3  0  0  0  0  0  0
  185.7250  178.4830  137.9320 C   0  0  0  0  0  3  0  0  0  0  0  0
  186.8540  178.2940  140.1920 C   0  0  0  0  0  0  0  0  0  0  0  0
  180.9030  176.4830  139.5580 C   0  0  0  0  0  3  0  0  0  0  0  0
  182.8710  178.2230  140.4570 C   0  0  0  0  0  0  0  0  0  0  0  0
  183.2030  176.9010  140.1300 C   0  0  0  0  0  3  0  0  0  0  0  0
  182.2160  176.0250  139.6800 C   0  0  0  0  0  3  0  0  0  0  0  0
  180.5980  177.7710  139.8720 N   0  0  0  0  0  0  0  0  0  0  0  0
  181.5460  178.6410  140.3120 C   0  0  0  0  0  3  0  0  0  0  0  0
  1 12  1  0  0  0  0
  2 16  2  0  0  0  0
  2  6  1  0  0  0  0
  3 16  1  0  0  0  0
  4 13  1  0  0  0  0
  6 18  2  0  0  0  0
  7  9  1  0  0  0  0
  8 17  1  0  0  0  0
  9 13  2  0  0  0  0
 10  8  2  0  0  0  0
 11  7  2  0  0  0  0
 11 14  1  0  0  0  0
 12 23  1  6  0  0  0
 12  2  1  0  0  0  0
 13  5  1  0  0  0  0
 14  4  2  0  0  0  0
 15 20  1  6  0  0  0
 15  1  1  0  0  0  0
 15 21  1  0  0  0  0
 16 11  1  0  0  0  0
 17 21  1  0  0  0  0
 18 14  1  0  0  0  0
 19 20  2  0  0  0  0
 19  8  1  0  0  0  0
 21  3  2  0  0  0  0
 22 25  2  0  0  0  0
 22 26  1  0  0  0  0
 24 23  2  0  0  0  0
 25 24  1  0  0  0  0
 26 27  2  0  0  0  0
 27 23  1  0  0  0  0
M  END
>  <MODEL>
1

>  <REMARK>
 VINA RESULT:      -9.8      0.000      0.000
  Name = 
  1 active torsions:
  status: ('A' for Active; 'I' for Inactive)
    1  A    between atoms: C_9  and  C_15
                            x       y       z     vdW  Elec       q    Type
                         _______ _______ _______ _____ _____    ______ ____

>  <TORSDO>
F 1

$$$$
=
 OpenBabel11052413443D

 27 31  0  0  1  0  0  0  0  0999 V2000
  184.5600  179.5040  139.1250 N   0  0  0  0  0  2  0  0  0  0  0  0
  183.6900  178.9710  141.4120 C   0  0  0  0  0  0  0  0  0  0  0  0
  186.2180  178.6040  141.3380 N   0  0  0  0  0  0  0  0  0  0  0  0
  183.8810  178.6750  145.6110 C   0  0  0  0  0  3  0  0  0  0  0  0
  185.1470  178.3380  147.6000 F   0  0  0  0  0  0  0  0  0  0  0  0
  182.5500  179.1190  142.2120 C   0  0  0  0  0  3  0  0  0  0  0  0
  186.2180  178.3770  144.1050 C   0  0  0  0  0  3  0  0  0  0  0  0
  188.3220  178.2520  138.3770 C   0  0  0  0  0  0  0  0  0  0  0  0
  186.2650  178.2810  145.4990 C   0  0  0  0  0  3  0  0  0  0  0  0
  189.6080  178.1590  138.0790 C   0  0  0  0  0  2  0  0  0  0  0  0
  185.0020  178.6210  143.4440 C   0  0  0  0  0  0  0  0  0  0  0  0
  183.4200  179.0850  139.9320 C   0  0  2  0  0  3  0  0  0  0  0  0
  185.0990  178.4300  146.2500 C   0  0  0  0  0  0  0  0  0  0  0  0
  183.8270  178.7710  144.2170 C   0  0  0  0  0  0  0  0  0  0  0  0
  185.4790  178.3900  139.0110 C   0  0  1  0  0  3  0  0  0  0  0  0
  184.9530  178.7160  142.0320 C   0  0  0  0  0  0  0  0  0  0  0  0
  187.9090  178.3850  139.7340 N   0  0  0  0  0  2  0  0  0  0  0  0
  182.6120  179.0210  143.5960 C   0  0  0  0  0  3  0  0  0  0  0  0
  187.3200  178.2580  137.3130 C   0  0  0  0  0  3  0  0  0  0  0  0
  186.0220  178.3330  137.6040 C   0  0  0  0  0  3  0  0  0  0  0  0
  186.5250  178.4900  140.0810 C   0  0  0  0  0  0  0  0  0  0  0  0
  181.2140  175.8720  138.1550 C   0  0  0  0  0  3  0  0  0  0  0  0
  182.6410  177.9400  139.3370 C   0  0  0  0  0  0  0  0  0  0  0  0
  182.7220  176.6440  139.8660 C   0  0  0  0  0  3  0  0  0  0  0  0
  182.0040  175.6040  139.2750 C   0  0  0  0  0  3  0  0  0  0  0  0
  181.1530  177.1340  137.6500 N   0  0  0  0  0  0  0  0  0  0  0  0
  181.8450  178.1610  138.2110 C   0  0  0  0  0  3  0  0  0  0  0  0
  1 12  1  0  0  0  0
  2 16  2  0  0  0  0
  2  6  1  0  0  0  0
  3 16  1  0  0  0  0
  4 13  1  0  0  0  0
  6 18  2  0  0  0  0
  7  9  1  0  0  0  0
  8 17  1  0  0  0  0
  9 13  2  0  0  0  0
 10  8  2  0  0  0  0
 11  7  2  0  0  0  0
 11 14  1  0  0  0  0
 12 23  1  6  0  0  0
 12  2  1  0  0  0  0
 13  5  1  0  0  0  0
 14  4  2  0  0  0  0
 15 20  1  6  0  0  0
 15  1  1  0  0  0  0
 15 21  1  0  0  0  0
 16 11  1  0  0  0  0
 17 21  1  0  0  0  0
 18 14  1  0  0  0  0
 19 20  2  0  0  0  0
 19  8  1  0  0  0  0
 21  3  2  0  0  0  0
 22 25  1  0  0  0  0
 23 24  1  0  0  0  0
 25 24  2  0  0  0  0
 26 22  2  0  0  0  0
 26 27  1  0  0  0  0
 27 23  2  0  0  0  0
M  END
>  <MODEL>
2

>  <REMARK>
 VINA RESULT:      -9.5      1.120      1.398
  Name = 
  1 active torsions:
  status: ('A' for Active; 'I' for Inactive)
    1  A    between atoms: C_9  and  C_15
                            x       y       z     vdW  Elec       q    Type
                         _______ _______ _______ _____ _____    ______ ____

>  <TORSDO>
F 1

$$$$
=
 OpenBabel11052413443D

 27 31  0  0  1  0  0  0  0  0999 V2000
  189.8050  178.6500  144.7190 N   0  0  0  0  0  2  0  0  0  0  0  0
  190.6510  177.8060  142.5180 C   0  0  0  0  0  0  0  0  0  0  0  0
  188.0980  177.9110  142.4840 N   0  0  0  0  0  0  0  0  0  0  0  0
  190.5740  177.2500  138.3420 C   0  0  0  0  0  3  0  0  0  0  0  0
  189.3470  177.0070  136.3150 F   0  0  0  0  0  0  0  0  0  0  0  0
  191.8300  177.6870  141.7710 C   0  0  0  0  0  3  0  0  0  0  0  0
  188.1650  177.4900  139.7400 C   0  0  0  0  0  3  0  0  0  0  0  0
  185.8500  178.1600  145.3480 C   0  0  0  0  0  0  0  0  0  0  0  0
  188.1560  177.3050  138.3550 C   0  0  0  0  0  3  0  0  0  0  0  0
  184.5580  178.3240  145.5840 C   0  0  0  0  0  1  0  0  0  0  0  0
  189.3780  177.5560  140.4470 C   0  0  0  0  0  0  0  0  0  0  0  0
  190.8780  177.9750  144.0000 C   0  0  2  0  0  3  0  0  0  0  0  0
  189.3580  177.1850  137.6570 C   0  0  0  0  0  0  0  0  0  0  0  0
  190.5900  177.4340  139.7280 C   0  0  0  0  0  0  0  0  0  0  0  0
  188.6920  177.7330  144.8550 C   0  0  1  0  0  3  0  0  0  0  0  0
  189.3880  177.7410  141.8510 C   0  0  0  0  0  0  0  0  0  0  0  0
  186.3340  178.1180  144.0080 N   0  0  0  0  0  0  0  0  0  0  0  0
  191.8050  177.5030  140.3940 C   0  0  0  0  0  3  0  0  0  0  0  0
  186.7930  178.0590  146.4600 C   0  0  0  0  0  3  0  0  0  0  0  0
  188.0930  177.8760  146.2330 C   0  0  0  0  0  3  0  0  0  0  0  0
  187.7250  177.9440  143.7280 C   0  0  0  0  0  0  0  0  0  0  0  0
  192.4310  174.4760  145.9230 C   0  0  0  0  0  3  0  0  0  0  0  0
  191.4080  176.7530  144.7050 C   0  0  0  0  0  0  0  0  0  0  0  0
  191.6680  176.7540  146.0820 C   0  0  0  0  0  3  0  0  0  0  0  0
  192.1800  175.6110  146.6970 C   0  0  0  0  0  3  0  0  0  0  0  0
  192.1790  174.4930  144.5860 N   0  0  0  0  0  0  0  0  0  0  0  0
  191.6810  175.5980  143.9680 C   0  0  0  0  0  3  0  0  0  0  0  0
  1 15  1  0  0  0  0
  2 12  1  0  0  0  0
  3 21  2  0  0  0  0
  4 14  1  0  0  0  0
  5 13  1  0  0  0  0
  6  2  2  0  0  0  0
  7 11  1  0  0  0  0
  8 10  1  0  0  0  0
  8 19  1  0  0  0  0
  9  7  2  0  0  0  0
 11 16  2  0  0  0  0
 12 23  1  1  0  0  0
 12  1  1  0  0  0  0
 13  4  2  0  0  0  0
 13  9  1  0  0  0  0
 14 18  2  0  0  0  0
 14 11  1  0  0  0  0
 15 20  1  1  0  0  0
 16  3  1  0  0  0  0
 16  2  1  0  0  0  0
 17  8  2  0  0  0  0
 18  6  1  0  0  0  0
 20 19  2  0  0  0  0
 21 17  1  0  0  0  0
 21 15  1  0  0  0  0
 22 25  1  0  0  0  0
 23 24  1  0  0  0  0
 24 25  2  0  0  0  0
 26 22  2  0  0  0  0
 27 26  1  0  0  0  0
 27 23  2  0  0  0  0
M  END
>  <MODEL>
3

>  <REMARK>
 VINA RESULT:      -8.9      4.184      8.534
  Name = 
  1 active torsions:
  status: ('A' for Active; 'I' for Inactive)
    1  A    between atoms: C_9  and  C_15
                            x       y       z     vdW  Elec       q    Type
                         _______ _______ _______ _____ _____    ______ ____

>  <TORSDO>
F 1

$$$$
=
 OpenBabel11052413443D

 27 31  0  0  1  0  0  0  0  0999 V2000
  183.5610  179.0890  138.9080 N   0  0  0  0  0  2  0  0  0  0  0  0
  182.9930  178.6910  141.3140 C   0  0  0  0  0  0  0  0  0  0  0  0
  185.5170  178.4830  140.9720 N   0  0  0  0  0  0  0  0  0  0  0  0
  183.6730  178.7550  145.4720 C   0  0  0  0  0  3  0  0  0  0  0  0
  185.1750  178.6640  147.3190 F   0  0  0  0  0  0  0  0  0  0  0  0
  181.9410  178.8310  142.2290 C   0  0  0  0  0  3  0  0  0  0  0  0
  185.8420  178.4850  143.7300 C   0  0  0  0  0  3  0  0  0  0  0  0
  187.2980  178.0250  137.8200 C   0  0  0  0  0  0  0  0  0  0  0  0
  186.0520  178.5070  145.1110 C   0  0  0  0  0  3  0  0  0  0  0  0
  188.5460  177.9910  137.3820 C   0  0  0  0  0  2  0  0  0  0  0  0
  184.5460  178.5950  143.2000 C   0  0  0  0  0  0  0  0  0  0  0  0
  182.5520  178.6660  139.8720 C   0  0  2  0  0  3  0  0  0  0  0  0
  184.9690  178.6420  145.9810 C   0  0  0  0  0  0  0  0  0  0  0  0
  183.4560  178.7320  144.0910 C   0  0  0  0  0  0  0  0  0  0  0  0
  184.5410  178.0310  138.7700 C   0  0  1  0  0  3  0  0  0  0  0  0
  184.3330  178.5700  141.7990 C   0  0  0  0  0  0  0  0  0  0  0  0
  187.0300  178.2420  139.2030 N   0  0  0  0  0  2  0  0  0  0  0  0
  182.1650  178.8510  143.6000 C   0  0  0  0  0  3  0  0  0  0  0  0
  186.1850  177.8780  136.8830 C   0  0  0  0  0  3  0  0  0  0  0  0
  184.9260  177.8930  137.3180 C   0  0  0  0  0  3  0  0  0  0  0  0
  185.6900  178.2860  139.7010 C   0  0  0  0  0  0  0  0  0  0  0  0
  180.4420  175.1020  138.7790 C   0  0  0  0  0  3  0  0  0  0  0  0
  181.7980  177.4280  139.4590 C   0  0  0  0  0  0  0  0  0  0  0  0
  180.5900  177.5040  138.7540 C   0  0  0  0  0  3  0  0  0  0  0  0
  179.9080  176.3370  138.4090 C   0  0  0  0  0  3  0  0  0  0  0  0
  181.6130  175.0440  139.4700 N   0  0  0  0  0  0  0  0  0  0  0  0
  182.2930  176.1710  139.8160 C   0  0  0  0  0  3  0  0  0  0  0  0
  1 12  1  0  0  0  0
  2 16  2  0  0  0  0
  2  6  1  0  0  0  0
  3 16  1  0  0  0  0
  4 13  1  0  0  0  0
  6 18  2  0  0  0  0
  7  9  1  0  0  0  0
  8 17  1  0  0  0  0
  9 13  2  0  0  0  0
 10  8  2  0  0  0  0
 11  7  2  0  0  0  0
 11 14  1  0  0  0  0
 12 23  1  6  0  0  0
 12  2  1  0  0  0  0
 13  5  1  0  0  0  0
 14  4  2  0  0  0  0
 15 20  1  6  0  0  0
 15  1  1  0  0  0  0
 15 21  1  0  0  0  0
 16 11  1  0  0  0  0
 17 21  1  0  0  0  0
 18 14  1  0  0  0  0
 19 20  2  0  0  0  0
 19  8  1  0  0  0  0
 21  3  2  0  0  0  0
 22 26  1  0  0  0  0
 23 27  1  0  0  0  0
 24 23  2  0  0  0  0
 25 24  1  0  0  0  0
 25 22  2  0  0  0  0
 26 27  2  0  0  0  0
M  END
>  <MODEL>
4

>  <REMARK>
 VINA RESULT:      -8.2      1.360      1.949
  Name = 
  1 active torsions:
  status: ('A' for Active; 'I' for Inactive)
    1  A    between atoms: C_9  and  C_15
                            x       y       z     vdW  Elec       q    Type
                         _______ _______ _______ _____ _____    ______ ____

>  <TORSDO>
F 1

$$$$
=
 OpenBabel11052413443D

 27 31  0  0  1  0  0  0  0  0999 V2000
  189.1200  176.4470  141.6480 N   0  0  0  0  0  2  0  0  0  0  0  0
  187.5250  177.3060  143.3760 C   0  0  0  0  0  0  0  0  0  0  0  0
  186.8170  178.1210  141.0590 N   0  0  0  0  0  0  0  0  0  0  0  0
  183.7840  178.5730  144.8440 C   0  0  0  0  0  3  0  0  0  0  0  0
  181.6590  179.5850  144.4780 F   0  0  0  0  0  0  0  0  0  0  0  0
  187.1630  177.1280  144.7170 C   0  0  0  0  0  3  0  0  0  0  0  0
  184.4040  178.9630  142.1460 C   0  0  0  0  0  3  0  0  0  0  0  0
  188.8360  178.1900  138.0200 C   0  0  0  0  0  0  0  0  0  0  0  0
  183.1670  179.3780  142.6470 C   0  0  0  0  0  3  0  0  0  0  0  0
  188.6820  178.4570  136.7330 C   0  0  0  0  0  2  0  0  0  0  0  0
  185.3490  178.3490  142.9860 C   0  0  0  0  0  0  0  0  0  0  0  0
  188.9110  176.8120  143.0430 C   0  0  2  0  0  3  0  0  0  0  0  0
  182.8580  179.1840  143.9940 C   0  0  0  0  0  0  0  0  0  0  0  0
  185.0230  178.1560  144.3490 C   0  0  0  0  0  0  0  0  0  0  0  0
  189.2160  177.6600  140.8620 C   0  0  1  0  0  3  0  0  0  0  0  0
  186.6030  177.9310  142.4780 C   0  0  0  0  0  0  0  0  0  0  0  0
  187.7270  178.2910  138.9100 N   0  0  0  0  0  2  0  0  0  0  0  0
  185.9300  177.5460  145.2020 C   0  0  0  0  0  3  0  0  0  0  0  0
  190.1340  177.7540  138.5300 C   0  0  0  0  0  3  0  0  0  0  0  0
  190.3030  177.5010  139.8280 C   0  0  0  0  0  3  0  0  0  0  0  0
  187.8670  178.0060  140.3040 C   0  0  0  0  0  0  0  0  0  0  0  0
  192.1620  179.0420  144.7190 C   0  0  0  0  0  3  0  0  0  0  0  0
  190.0340  177.6240  143.6350 C   0  0  0  0  0  0  0  0  0  0  0  0
  190.1330  179.0050  143.4240 C   0  0  0  0  0  3  0  0  0  0  0  0
  191.1990  179.7200  143.9690 C   0  0  0  0  0  3  0  0  0  0  0  0
  192.0560  177.6990  144.9090 N   0  0  0  0  0  0  0  0  0  0  0  0
  191.0230  176.9840  144.3860 C   0  0  0  0  0  3  0  0  0  0  0  0
  1 12  1  0  0  0  0
  2  6  1  0  0  0  0
  3 16  1  0  0  0  0
  6 18  2  0  0  0  0
  7  9  2  0  0  0  0
  7 11  1  0  0  0  0
  8 19  1  0  0  0  0
  8 17  1  0  0  0  0
  9 13  1  0  0  0  0
 10  8  2  0  0  0  0
 11 14  2  0  0  0  0
 12  2  1  0  0  0  0
 12 23  1  6  0  0  0
 13  5  1  0  0  0  0
 13  4  2  0  0  0  0
 14  4  1  0  0  0  0
 14 18  1  0  0  0  0
 15 20  1  6  0  0  0
 15  1  1  0  0  0  0
 16 11  1  0  0  0  0
 16  2  2  0  0  0  0
 17 21  1  0  0  0  0
 19 20  2  0  0  0  0
 21 15  1  0  0  0  0
 21  3  2  0  0  0  0
 22 26  1  0  0  0  0
 23 27  1  0  0  0  0
 24 23  2  0  0  0  0
 24 25  1  0  0  0  0
 25 22  2  0  0  0  0
 27 26  2  0  0  0  0
M  END
>  <MODEL>
5

>  <REMARK>
 VINA RESULT:      -8.2      2.703      5.952
  Name = 
  1 active torsions:
  status: ('A' for Active; 'I' for Inactive)
    1  A    between atoms: C_9  and  C_15
                            x       y       z     vdW  Elec       q    Type
                         _______ _______ _______ _____ _____    ______ ____

>  <TORSDO>
F 1

$$$$
=
 OpenBabel11052413443D

 27 31  0  0  1  0  0  0  0  0999 V2000
  189.7740  178.0660  137.4770 N   0  0  0  0  0  2  0  0  0  0  0  0
  188.5920  177.8770  139.6770 C   0  0  0  0  0  0  0  0  0  0  0  0
  190.8390  176.6640  139.7910 N   0  0  0  0  0  0  0  0  0  0  0  0
  188.3310  177.5560  143.8700 C   0  0  0  0  0  3  0  0  0  0  0  0
  189.2400  176.8150  145.9430 F   0  0  0  0  0  0  0  0  0  0  0  0
  187.5110  178.4120  140.3890 C   0  0  0  0  0  3  0  0  0  0  0  0
  190.5370  176.4650  142.5440 C   0  0  0  0  0  3  0  0  0  0  0  0
  192.9260  175.5940  136.9950 C   0  0  0  0  0  0  0  0  0  0  0  0
  190.4370  176.3670  143.9340 C   0  0  0  0  0  3  0  0  0  0  0  0
  194.1220  175.0630  136.7960 C   0  0  0  0  0  2  0  0  0  0  0  0
  189.5360  177.1080  141.7960 C   0  0  0  0  0  0  0  0  0  0  0  0
  188.4990  178.0690  138.1830 C   0  0  2  0  0  3  0  0  0  0  0  0
  189.3350  176.9110  144.5960 C   0  0  0  0  0  0  0  0  0  0  0  0
  188.4260  177.6570  142.4790 C   0  0  0  0  0  0  0  0  0  0  0  0
  190.2620  176.7030  137.4090 C   0  0  1  0  0  3  0  0  0  0  0  0
  189.6370  177.2060  140.3870 C   0  0  0  0  0  0  0  0  0  0  0  0
  192.4760  175.8680  138.3190 N   0  0  0  0  0  2  0  0  0  0  0  0
  187.4240  178.3060  141.7710 C   0  0  0  0  0  3  0  0  0  0  0  0
  192.0760  175.9380  135.8570 C   0  0  0  0  0  3  0  0  0  0  0  0
  190.8630  176.4560  136.0480 C   0  0  0  0  0  3  0  0  0  0  0  0
  191.1880  176.4440  138.5600 C   0  0  0  0  0  0  0  0  0  0  0  0
  185.4400  175.8320  136.1860 C   0  0  0  0  0  3  0  0  0  0  0  0
  187.4250  177.2570  137.5050 C   0  0  0  0  0  0  0  0  0  0  0  0
  187.4220  175.8570  137.5520 C   0  0  0  0  0  3  0  0  0  0  0  0
  186.4250  175.1380  136.8930 C   0  0  0  0  0  3  0  0  0  0  0  0
  185.4610  177.1920  136.1430 N   0  0  0  0  0  0  0  0  0  0  0  0
  186.4250  177.9100  136.7800 C   0  0  0  0  0  3  0  0  0  0  0  0
  1 12  1  0  0  0  0
  2 16  2  0  0  0  0
  2  6  1  0  0  0  0
  3 16  1  0  0  0  0
  4 13  1  0  0  0  0
  6 18  2  0  0  0  0
  7  9  1  0  0  0  0
  8 17  1  0  0  0  0
  9 13  2  0  0  0  0
 10  8  2  0  0  0  0
 11 14  1  0  0  0  0
 11  7  2  0  0  0  0
 12 23  1  6  0  0  0
 12  2  1  0  0  0  0
 13  5  1  0  0  0  0
 14  4  2  0  0  0  0
 15 20  1  6  0  0  0
 15  1  1  0  0  0  0
 15 21  1  0  0  0  0
 16 11  1  0  0  0  0
 17 21  1  0  0  0  0
 18 14  1  0  0  0  0
 19 20  2  0  0  0  0
 19  8  1  0  0  0  0
 21  3  2  0  0  0  0
 22 25  1  0  0  0  0
 23 24  1  0  0  0  0
 25 24  2  0  0  0  0
 26 22  2  0  0  0  0
 26 27  1  0  0  0  0
 27 23  2  0  0  0  0
M  END
>  <MODEL>
6

>  <REMARK>
 VINA RESULT:      -8.0      3.538      4.926
  Name = 
  1 active torsions:
  status: ('A' for Active; 'I' for Inactive)
    1  A    between atoms: C_9  and  C_15
                            x       y       z     vdW  Elec       q    Type
                         _______ _______ _______ _____ _____    ______ ____

>  <TORSDO>
F 1

$$$$
=
 OpenBabel11052413443D

 27 31  0  0  1  0  0  0  0  0999 V2000
  186.4810  179.1470  139.5300 N   0  0  0  0  0  2  0  0  0  0  0  0
  185.5190  178.7850  141.8130 C   0  0  0  0  0  0  0  0  0  0  0  0
  187.9060  177.8760  141.7220 N   0  0  0  0  0  0  0  0  0  0  0  0
  185.6470  178.3940  146.0060 C   0  0  0  0  0  3  0  0  0  0  0  0
  186.8110  177.7610  147.9850 F   0  0  0  0  0  0  0  0  0  0  0  0
  184.4400  179.1670  142.6190 C   0  0  0  0  0  3  0  0  0  0  0  0
  187.8600  177.6150  144.4860 C   0  0  0  0  0  3  0  0  0  0  0  0
  189.8780  177.1150  138.7470 C   0  0  0  0  0  0  0  0  0  0  0  0
  187.8870  177.4910  145.8780 C   0  0  0  0  0  3  0  0  0  0  0  0
  191.1130  176.7480  138.4430 C   0  0  0  0  0  2  0  0  0  0  0  0
  186.7260  178.1280  143.8340 C   0  0  0  0  0  0  0  0  0  0  0  0
  185.2790  178.9760  140.3350 C   0  0  2  0  0  3  0  0  0  0  0  0
  186.7820  177.8800  146.6370 C   0  0  0  0  0  0  0  0  0  0  0  0
  185.6120  178.5200  144.6140 C   0  0  0  0  0  0  0  0  0  0  0  0
  187.1350  177.8610  139.3960 C   0  0  1  0  0  3  0  0  0  0  0  0
  186.6970  178.2510  142.4230 C   0  0  0  0  0  0  0  0  0  0  0  0
  189.5060  177.3160  140.1090 N   0  0  0  0  0  2  0  0  0  0  0  0
  184.4810  179.0380  144.0020 C   0  0  0  0  0  3  0  0  0  0  0  0
  188.9000  177.3550  137.6880 C   0  0  0  0  0  3  0  0  0  0  0  0
  187.6500  177.7070  137.9860 C   0  0  0  0  0  3  0  0  0  0  0  0
  188.1790  177.7150  140.4630 C   0  0  0  0  0  0  0  0  0  0  0  0
  182.3490  176.3210  138.6890 C   0  0  0  0  0  3  0  0  0  0  0  0
  184.2680  178.0370  139.7290 C   0  0  0  0  0  0  0  0  0  0  0  0
  184.1070  177.9280  138.3410 C   0  0  0  0  0  3  0  0  0  0  0  0
  183.1450  177.0650  137.8160 C   0  0  0  0  0  3  0  0  0  0  0  0
  182.5120  176.4430  140.0350 N   0  0  0  0  0  0  0  0  0  0  0  0
  183.4450  177.2790  140.5650 C   0  0  0  0  0  3  0  0  0  0  0  0
  1 12  1  0  0  0  0
  2 16  2  0  0  0  0
  2  6  1  0  0  0  0
  3 16  1  0  0  0  0
  4 13  1  0  0  0  0
  6 18  2  0  0  0  0
  7  9  1  0  0  0  0
  8 17  1  0  0  0  0
  9 13  2  0  0  0  0
 10  8  2  0  0  0  0
 11  7  2  0  0  0  0
 11 14  1  0  0  0  0
 12 23  1  6  0  0  0
 12  2  1  0  0  0  0
 13  5  1  0  0  0  0
 14  4  2  0  0  0  0
 15 20  1  6  0  0  0
 15  1  1  0  0  0  0
 15 21  1  0  0  0  0
 16 11  1  0  0  0  0
 17 21  1  0  0  0  0
 18 14  1  0  0  0  0
 19 20  2  0  0  0  0
 19  8  1  0  0  0  0
 21  3  2  0  0  0  0
 22 26  1  0  0  0  0
 23 27  1  0  0  0  0
 24 23  2  0  0  0  0
 25 24  1  0  0  0  0
 25 22  2  0  0  0  0
 26 27  2  0  0  0  0
M  END
>  <MODEL>
7

>  <REMARK>
 VINA RESULT:      -8.0      1.251      1.569
  Name = 
  1 active torsions:
  status: ('A' for Active; 'I' for Inactive)
    1  A    between atoms: C_9  and  C_15
                            x       y       z     vdW  Elec       q    Type
                         _______ _______ _______ _____ _____    ______ ____

>  <TORSDO>
F 1

$$$$
=
 OpenBabel11052413443D

 27 31  0  0  1  0  0  0  0  0999 V2000
  187.2040  178.7330  137.8450 N   0  0  0  0  0  2  0  0  0  0  0  0
  185.2010  178.5900  139.3410 C   0  0  0  0  0  0  0  0  0  0  0  0
  187.3320  178.2210  140.7040 N   0  0  0  0  0  0  0  0  0  0  0  0
  183.0880  179.0050  142.9630 C   0  0  0  0  0  3  0  0  0  0  0  0
  183.0560  179.0090  145.3440 F   0  0  0  0  0  0  0  0  0  0  0  0
  183.8290  178.8690  139.3630 C   0  0  0  0  0  3  0  0  0  0  0  0
  185.8290  178.4620  143.0270 C   0  0  0  0  0  3  0  0  0  0  0  0
  190.6520  177.3790  139.4450 C   0  0  0  0  0  0  0  0  0  0  0  0
  185.1150  178.6020  144.2200 C   0  0  0  0  0  3  0  0  0  0  0  0
  191.8830  177.2400  139.9100 C   0  0  0  0  0  2  0  0  0  0  0  0
  185.1840  178.5890  141.7850 C   0  0  0  0  0  0  0  0  0  0  0  0
  185.7780  178.4540  137.9530 C   0  0  2  0  0  3  0  0  0  0  0  0
  183.7460  178.8720  144.1880 C   0  0  0  0  0  0  0  0  0  0  0  0
  183.7970  178.8650  141.7660 C   0  0  0  0  0  0  0  0  0  0  0  0
  187.9380  177.6170  138.4070 C   0  0  1  0  0  3  0  0  0  0  0  0
  185.9080  178.4450  140.5760 C   0  0  0  0  0  0  0  0  0  0  0  0
  189.5900  177.7380  140.3260 N   0  0  0  0  0  2  0  0  0  0  0  0
  183.1310  179.0050  140.5570 C   0  0  0  0  0  3  0  0  0  0  0  0
  190.3800  177.2050  138.0200 C   0  0  0  0  0  3  0  0  0  0  0  0
  189.1410  177.3250  137.5450 C   0  0  0  0  0  3  0  0  0  0  0  0
  188.2520  177.8970  139.8470 C   0  0  0  0  0  0  0  0  0  0  0  0
  184.6050  174.9700  135.7550 C   0  0  0  0  0  3  0  0  0  0  0  0
  185.3390  177.2240  137.2010 C   0  0  0  0  0  0  0  0  0  0  0  0
  184.7030  176.1550  137.8480 C   0  0  0  0  0  3  0  0  0  0  0  0
  184.3310  175.0230  137.1230 C   0  0  0  0  0  3  0  0  0  0  0  0
  185.2290  176.0120  135.1430 N   0  0  0  0  0  0  0  0  0  0  0  0
  185.6000  177.1250  135.8330 C   0  0  0  0  0  3  0  0  0  0  0  0
  1 12  1  0  0  0  0
  1 15  1  0  0  0  0
  2  6  2  0  0  0  0
  2 16  1  0  0  0  0
  4 13  2  0  0  0  0
  6 18  1  0  0  0  0
  7  9  2  0  0  0  0
  8 10  2  0  0  0  0
  8 17  1  0  0  0  0
 11  7  1  0  0  0  0
 12 23  1  1  0  0  0
 12  2  1  0  0  0  0
 13  9  1  0  0  0  0
 13  5  1  0  0  0  0
 14 11  1  0  0  0  0
 14  4  1  0  0  0  0
 15 20  1  6  0  0  0
 15 21  1  0  0  0  0
 16  3  1  0  0  0  0
 16 11  2  0  0  0  0
 18 14  2  0  0  0  0
 19  8  1  0  0  0  0
 20 19  2  0  0  0  0
 21 17  1  0  0  0  0
 21  3  2  0  0  0  0
 22 25  1  0  0  0  0
 23 24  1  0  0  0  0
 25 24  2  0  0  0  0
 26 22  2  0  0  0  0
 26 27  1  0  0  0  0
 27 23  2  0  0  0  0
M  END
>  <MODEL>
8

>  <REMARK>
 VINA RESULT:      -7.9      2.380      3.769
  Name = 
  1 active torsions:
  status: ('A' for Active; 'I' for Inactive)
    1  A    between atoms: C_9  and  C_15
                            x       y       z     vdW  Elec       q    Type
                         _______ _______ _______ _____ _____    ______ ____

>  <TORSDO>
F 1

$$$$
=
 OpenBabel11052413443D

 27 31  0  0  1  0  0  0  0  0999 V2000
  188.9740  178.7220  140.2580 N   0  0  0  0  0  2  0  0  0  0  0  0
  189.2350  178.1930  142.6920 C   0  0  0  0  0  0  0  0  0  0  0  0
  190.4260  176.4230  141.2850 N   0  0  0  0  0  0  0  0  0  0  0  0
  191.1980  176.6560  146.0890 C   0  0  0  0  0  3  0  0  0  0  0  0
  192.6810  175.0760  147.0760 F   0  0  0  0  0  0  0  0  0  0  0  0
  189.0600  178.7600  143.9610 C   0  0  0  0  0  3  0  0  0  0  0  0
  191.6250  175.4620  143.5980 C   0  0  0  0  0  3  0  0  0  0  0  0
  189.9750  175.7430  137.7280 C   0  0  0  0  0  0  0  0  0  0  0  0
  192.2700  174.9630  144.7340 C   0  0  0  0  0  3  0  0  0  0  0  0
  190.5160  174.9870  136.7860 C   0  0  0  0  0  2  0  0  0  0  0  0
  190.7570  176.5630  143.6910 C   0  0  0  0  0  0  0  0  0  0  0  0
  188.4320  178.8630  141.6040 C   0  0  2  0  0  3  0  0  0  0  0  0
  192.0560  175.5590  145.9770 C   0  0  0  0  0  0  0  0  0  0  0  0
  190.5500  177.1600  144.9570 C   0  0  0  0  0  0  0  0  0  0  0  0
  188.7250  177.3710  139.7980 C   0  0  1  0  0  3  0  0  0  0  0  0
  190.1030  177.0670  142.5400 C   0  0  0  0  0  0  0  0  0  0  0  0
  190.4840  175.7020  139.0590 N   0  0  0  0  0  2  0  0  0  0  0  0
  189.7060  178.2530  145.0810 C   0  0  0  0  0  3  0  0  0  0  0  0
  188.8790  176.6530  137.4010 C   0  0  0  0  0  3  0  0  0  0  0  0
  188.3170  177.4050  138.3460 C   0  0  0  0  0  3  0  0  0  0  0  0
  189.9180  176.5120  140.0940 C   0  0  0  0  0  0  0  0  0  0  0  0
  184.1990  178.2290  141.7440 C   0  0  0  0  0  3  0  0  0  0  0  0
  186.9430  178.6450  141.6870 C   0  0  0  0  0  0  0  0  0  0  0  0
  186.3450  178.0860  142.8240 C   0  0  0  0  0  3  0  0  0  0  0  0
  184.9660  177.8770  142.8560 C   0  0  0  0  0  3  0  0  0  0  0  0
  184.7950  178.7650  140.6450 N   0  0  0  0  0  0  0  0  0  0  0  0
  186.1380  178.9750  140.5950 C   0  0  0  0  0  3  0  0  0  0  0  0
  1 12  1  0  0  0  0
  2  6  1  0  0  0  0
  3 16  1  0  0  0  0
  6 18  2  0  0  0  0
  7 11  2  0  0  0  0
  7  9  1  0  0  0  0
  8 17  1  0  0  0  0
  9 13  2  0  0  0  0
 10  8  2  0  0  0  0
 11 14  1  0  0  0  0
 12 23  1  6  0  0  0
 12  2  1  0  0  0  0
 13  4  1  0  0  0  0
 13  5  1  0  0  0  0
 14 18  1  0  0  0  0
 14  4  2  0  0  0  0
 15 20  1  6  0  0  0
 15 21  1  0  0  0  0
 15  1  1  0  0  0  0
 16  2  2  0  0  0  0
 16 11  1  0  0  0  0
 17 21  1  0  0  0  0
 19  8  1  0  0  0  0
 19 20  2  0  0  0  0
 21  3  2  0  0  0  0
 22 25  1  0  0  0  0
 23 24  1  0  0  0  0
 24 25  2  0  0  0  0
 26 22  2  0  0  0  0
 27 26  1  0  0  0  0
 27 23  2  0  0  0  0
M  END
>  <MODEL>
9

>  <REMARK>
 VINA RESULT:      -7.8      2.861      4.474
  Name = 
  1 active torsions:
  status: ('A' for Active; 'I' for Inactive)
    1  A    between atoms: C_9  and  C_15
                            x       y       z     vdW  Elec       q    Type
                         _______ _______ _______ _____ _____    ______ ____

>  <TORSDO>
F 1

$$$$
