=
 OpenBabel11052413443D

 27 31  0  0  1  0  0  0  0  0999 V2000
  189.6190  178.4170  140.1260 C   0  0  0  0  0  2  0  0  0  0  0  0
  187.1410  178.1950  140.4000 C   0  0  0  0  0  0  0  0  0  0  0  0
  188.3150  177.4380  142.4680 N   0  0  0  0  0  2  0  0  0  0  0  0
  183.7130  179.0560  142.5990 C   0  0  0  0  0  3  0  0  0  0  0  0
  182.4660  179.2320  144.7560 C   0  0  0  0  0  1  0  0  0  0  0  0
  185.9840  178.6210  139.8190 N   0  0  0  0  0  0  0  0  0  0  0  0
  186.0010  178.1590  143.9410 C   0  0  0  0  0  3  0  0  0  0  0  0
  190.3960  176.4140  144.1230 C   0  0  0  0  0  2  0  0  0  0  0  0
  184.8400  178.4620  144.6590 C   0  0  0  0  0  3  0  0  0  0  0  0
  191.6750  177.2090  143.9020 C   0  0  0  0  0  2  0  0  0  0  0  0
  186.0280  178.3080  142.5460 C   0  0  0  0  0  0  0  0  0  0  0  0
  188.3160  178.0360  139.5850 N   0  0  0  0  0  0  0  0  0  0  0  0
  183.6980  178.9110  143.9890 C   0  0  0  0  0  0  0  0  0  0  0  0
  184.8720  178.7570  141.8780 C   0  0  0  0  0  0  0  0  0  0  0  0
  190.2520  177.2580  140.8840 C   0  0  1  0  0  3  0  0  0  0  0  0
  187.1720  177.9950  141.7990 C   0  0  0  0  0  0  0  0  0  0  0  0
  189.9620  175.6400  142.8770 C   0  0  0  0  0  2  0  0  0  0  0  0
  184.8870  178.8870  140.5290 N   0  0  0  0  0  0  0  0  0  0  0  0
  191.4980  178.2960  142.8520 C   0  0  0  0  0  2  0  0  0  0  0  0
  191.6050  177.6770  141.4680 C   0  0  0  0  0  2  0  0  0  0  0  0
  189.2780  176.5370  141.8380 C   0  0  1  0  0  3  0  0  0  0  0  0
  188.7900  177.0600  135.5200 C   0  0  0  0  0  2  0  0  0  0  0  0
  188.1700  177.8410  138.1450 C   0  0  2  0  0  3  0  0  0  0  0  0
  187.9150  176.3690  137.8120 C   0  0  0  0  0  2  0  0  0  0  0  0
  187.8250  176.1560  136.2990 C   0  0  0  0  0  2  0  0  0  0  0  0
  189.8970  177.4950  136.3690 N   0  0  0  0  0  2  0  0  0  0  0  0
  189.3810  178.4170  137.3850 C   0  0  0  0  0  2  0  0  0  0  0  0
  2 16  1  0  0  0  0
  4 13  2  0  0  0  0
  6  2  2  0  0  0  0
  6 18  1  0  0  0  0
  7  9  2  0  0  0  0
 10  8  1  0  0  0  0
 11  7  1  0  0  0  0
 12  1  1  0  0  0  0
 12  2  1  0  0  0  0
 13  9  1  0  0  0  0
 13  5  1  0  0  0  0
 14 11  1  0  0  0  0
 14  4  1  0  0  0  0
 15  1  1  1  0  0  0
 15 20  1  0  0  0  0
 15 21  1  0  0  0  0
 16  3  1  0  0  0  0
 16 11  2  0  0  0  0
 17  8  1  0  0  0  0
 18 14  2  0  0  0  0
 19 10  1  0  0  0  0
 20 19  1  0  0  0  0
 21  3  1  0  0  0  0
 21 17  1  1  0  0  0
 22 25  1  0  0  0  0
 22 26  1  0  0  0  0
 23 27  1  6  0  0  0
 23 12  1  0  0  0  0
 24 23  1  0  0  0  0
 25 24  1  0  0  0  0
 26 27  1  0  0  0  0
M  END
>  <MODEL>
1

>  <REMARK>
 VINA RESULT:      -8.4      0.000      0.000
  Name = 
  1 active torsions:
  status: ('A' for Active; 'I' for Inactive)
    1  A    between atoms: C_9  and  N_15
                            x       y       z     vdW  Elec       q    Type
                         _______ _______ _______ _____ _____    ______ ____

>  <TORSDO>
F 1

$$$$
=
 OpenBabel11052413443D

 27 31  0  0  1  0  0  0  0  0999 V2000
  189.3850  176.8150  140.8390 C   0  0  0  0  0  2  0  0  0  0  0  0
  187.4330  178.0700  141.7780 C   0  0  0  0  0  0  0  0  0  0  0  0
  187.5210  178.3290  139.2980 N   0  0  0  0  0  2  0  0  0  0  0  0
  183.3360  178.8070  141.7620 C   0  0  0  0  0  3  0  0  0  0  0  0
  181.1810  179.2440  140.5760 C   0  0  0  0  0  1  0  0  0  0  0  0
  186.6970  178.1520  142.9230 N   0  0  0  0  0  0  0  0  0  0  0  0
  184.7090  178.6990  139.3230 C   0  0  0  0  0  3  0  0  0  0  0  0
  188.6190  178.4340  136.6710 C   0  0  0  0  0  2  0  0  0  0  0  0
  183.3320  178.9380  139.3430 C   0  0  0  0  0  3  0  0  0  0  0  0
  189.4140  177.1670  136.3880 C   0  0  0  0  0  2  0  0  0  0  0  0
  185.4100  178.5070  140.5240 C   0  0  0  0  0  0  0  0  0  0  0  0
  188.8180  177.6910  141.8630 N   0  0  0  0  0  0  0  0  0  0  0  0
  182.6460  178.9900  140.5600 C   0  0  0  0  0  0  0  0  0  0  0  0
  184.7120  178.5650  141.7460 C   0  0  0  0  0  0  0  0  0  0  0  0
  189.9020  177.6230  139.6580 C   0  0  1  0  0  3  0  0  0  0  0  0
  186.7940  178.2840  140.5360 C   0  0  0  0  0  0  0  0  0  0  0  0
  189.2340  179.2770  137.7890 C   0  0  0  0  0  2  0  0  0  0  0  0
  185.3870  178.3970  142.9100 N   0  0  0  0  0  0  0  0  0  0  0  0
  189.4260  176.2220  137.5810 C   0  0  0  0  0  2  0  0  0  0  0  0
  190.4690  176.6920  138.5820 C   0  0  0  0  0  2  0  0  0  0  0  0
  188.9250  178.7190  139.1830 C   0  0  1  0  0  3  0  0  0  0  0  0
  191.5300  177.5990  145.0780 C   0  0  0  0  0  2  0  0  0  0  0  0
  189.5390  177.8830  143.1190 C   0  0  2  0  0  3  0  0  0  0  0  0
  190.8050  178.7160  142.9050 C   0  0  0  0  0  2  0  0  0  0  0  0
  191.5920  178.8630  144.2100 C   0  0  0  0  0  2  0  0  0  0  0  0
  191.2160  176.4240  144.2680 N   0  0  0  0  0  2  0  0  0  0  0  0
  189.8310  176.5300  143.7990 C   0  0  0  0  0  2  0  0  0  0  0  0
  1 12  1  0  0  0  0
  2 12  1  0  0  0  0
  2  6  1  0  0  0  0
  3 16  1  0  0  0  0
  7  9  2  0  0  0  0
  7 11  1  0  0  0  0
  8 17  1  0  0  0  0
  9 13  1  0  0  0  0
 10  8  1  0  0  0  0
 10 19  1  0  0  0  0
 11 16  1  0  0  0  0
 11 14  2  0  0  0  0
 13  5  1  0  0  0  0
 13  4  2  0  0  0  0
 14  4  1  0  0  0  0
 14 18  1  0  0  0  0
 15 20  1  6  0  0  0
 15  1  1  0  0  0  0
 16  2  2  0  0  0  0
 18  6  2  0  0  0  0
 19 20  1  0  0  0  0
 21 17  1  6  0  0  0
 21  3  1  0  0  0  0
 21 15  1  0  0  0  0
 23 12  1  6  0  0  0
 23 27  1  0  0  0  0
 24 23  1  0  0  0  0
 24 25  1  0  0  0  0
 25 22  1  0  0  0  0
 26 22  1  0  0  0  0
 27 26  1  0  0  0  0
M  END
>  <MODEL>
2

>  <REMARK>
 VINA RESULT:      -7.9      1.733      5.152
  Name = 
  1 active torsions:
  status: ('A' for Active; 'I' for Inactive)
    1  A    between atoms: C_9  and  N_15
                            x       y       z     vdW  Elec       q    Type
                         _______ _______ _______ _____ _____    ______ ____

>  <TORSDO>
F 1

$$$$
=
 OpenBabel11052413443D

 27 31  0  0  1  0  0  0  0  0999 V2000
  187.1810  177.3020  143.2100 C   0  0  0  0  0  2  0  0  0  0  0  0
  186.9310  178.3520  140.9510 C   0  0  0  0  0  0  0  0  0  0  0  0
  189.3350  177.8920  141.4350 N   0  0  0  0  0  2  0  0  0  0  0  0
  187.6730  178.2030  136.8570 C   0  0  0  0  0  3  0  0  0  0  0  0
  189.1860  177.8310  134.9050 C   0  0  0  0  0  1  0  0  0  0  0  0
  185.9690  178.6110  140.0210 N   0  0  0  0  0  0  0  0  0  0  0  0
  189.7670  177.6740  138.6400 C   0  0  0  0  0  3  0  0  0  0  0  0
  191.7080  177.4520  142.9500 C   0  0  0  0  0  2  0  0  0  0  0  0
  189.9900  177.6230  137.2610 C   0  0  0  0  0  3  0  0  0  0  0  0
  191.4750  176.3460  143.9710 C   0  0  0  0  0  2  0  0  0  0  0  0
  188.4930  177.9860  139.1380 C   0  0  0  0  0  0  0  0  0  0  0  0
  186.5650  178.3030  142.3410 N   0  0  0  0  0  0  0  0  0  0  0  0
  188.9440  177.8860  136.3710 C   0  0  0  0  0  0  0  0  0  0  0  0
  187.4460  178.2530  138.2350 C   0  0  0  0  0  0  0  0  0  0  0  0
  188.4870  177.8200  143.7950 C   0  0  1  0  0  3  0  0  0  0  0  0
  188.2440  178.0610  140.5160 C   0  0  0  0  0  0  0  0  0  0  0  0
  190.8500  178.6890  143.2190 C   0  0  0  0  0  2  0  0  0  0  0  0
  186.2170  178.5700  138.7110 N   0  0  0  0  0  0  0  0  0  0  0  0
  190.0520  175.8110  143.9190 C   0  0  0  0  0  2  0  0  0  0  0  0
  189.1350  176.7530  144.6820 C   0  0  0  0  0  2  0  0  0  0  0  0
  189.3990  178.5090  142.7590 C   0  0  1  0  0  3  0  0  0  0  0  0
  182.7030  179.3780  143.6220 C   0  0  0  0  0  2  0  0  0  0  0  0
  185.3570  178.9930  142.7900 C   0  0  2  0  0  3  0  0  0  0  0  0
  185.0760  178.7060  144.2660 C   0  0  0  0  0  2  0  0  0  0  0  0
  183.7770  179.3780  144.7180 C   0  0  0  0  0  2  0  0  0  0  0  0
  182.9530  178.3180  142.6480 N   0  0  0  0  0  2  0  0  0  0  0  0
  184.1580  178.6520  141.8830 C   0  0  0  0  0  2  0  0  0  0  0  0
  2 12  1  0  0  0  0
  3 21  1  0  0  0  0
  4 14  1  0  0  0  0
  5 13  1  0  0  0  0
  6  2  2  0  0  0  0
  7 11  1  0  0  0  0
  8 17  1  0  0  0  0
  8 10  1  0  0  0  0
  9  7  2  0  0  0  0
 11 16  2  0  0  0  0
 12 23  1  0  0  0  0
 12  1  1  0  0  0  0
 13  4  2  0  0  0  0
 13  9  1  0  0  0  0
 14 18  2  0  0  0  0
 14 11  1  0  0  0  0
 15  1  1  6  0  0  0
 15 20  1  0  0  0  0
 16  2  1  0  0  0  0
 16  3  1  0  0  0  0
 18  6  1  0  0  0  0
 19 10  1  0  0  0  0
 19 20  1  0  0  0  0
 21 17  1  1  0  0  0
 21 15  1  0  0  0  0
 22 25  1  0  0  0  0
 23 27  1  6  0  0  0
 23 24  1  0  0  0  0
 24 25  1  0  0  0  0
 26 22  1  0  0  0  0
 27 26  1  0  0  0  0
M  END
>  <MODEL>
3

>  <REMARK>
 VINA RESULT:      -7.8      1.540      5.984
  Name = 
  1 active torsions:
  status: ('A' for Active; 'I' for Inactive)
    1  A    between atoms: C_9  and  N_15
                            x       y       z     vdW  Elec       q    Type
                         _______ _______ _______ _____ _____    ______ ____

>  <TORSDO>
F 1

$$$$
=
 OpenBabel11052413443D

 27 31  0  0  1  0  0  0  0  0999 V2000
  191.1770  177.8780  140.6800 C   0  0  0  0  0  2  0  0  0  0  0  0
  189.1000  177.6380  139.3030 C   0  0  0  0  0  0  0  0  0  0  0  0
  188.5470  177.5460  141.7350 N   0  0  0  0  0  2  0  0  0  0  0  0
  185.2460  178.9410  138.4220 C   0  0  0  0  0  3  0  0  0  0  0  0
  182.9560  179.6660  139.1060 C   0  0  0  0  0  1  0  0  0  0  0  0
  188.6660  177.8340  138.0270 N   0  0  0  0  0  0  0  0  0  0  0  0
  185.9740  178.5570  141.0990 C   0  0  0  0  0  3  0  0  0  0  0  0
  188.8990  177.1200  144.5300 C   0  0  0  0  0  2  0  0  0  0  0  0
  184.6880  179.0010  140.7790 C   0  0  0  0  0  3  0  0  0  0  0  0
  190.1280  177.8730  145.0200 C   0  0  0  0  0  2  0  0  0  0  0  0
  186.9080  178.3060  140.0820 C   0  0  0  0  0  0  0  0  0  0  0  0
  190.4820  177.3060  139.5290 N   0  0  0  0  0  0  0  0  0  0  0  0
  184.3250  179.1940  139.4430 C   0  0  0  0  0  0  0  0  0  0  0  0
  186.5340  178.4990  138.7390 C   0  0  0  0  0  0  0  0  0  0  0  0
  190.9910  177.0080  141.9150 C   0  0  1  0  0  3  0  0  0  0  0  0
  188.2000  177.8430  140.3730 C   0  0  0  0  0  0  0  0  0  0  0  0
  189.2480  176.0080  143.5390 C   0  0  0  0  0  2  0  0  0  0  0  0
  187.4270  178.2430  137.7520 N   0  0  0  0  0  0  0  0  0  0  0  0
  190.8330  178.6110  143.8920 C   0  0  0  0  0  2  0  0  0  0  0  0
  191.7020  177.6310  143.1200 C   0  0  0  0  0  2  0  0  0  0  0  0
  189.5350  176.5450  142.1320 C   0  0  1  0  0  3  0  0  0  0  0  0
  193.2480  175.1920  137.1660 C   0  0  0  0  0  2  0  0  0  0  0  0
  191.2610  176.7060  138.4490 C   0  0  2  0  0  3  0  0  0  0  0  0
  190.9860  175.2040  138.3400 C   0  0  0  0  0  2  0  0  0  0  0  0
  191.8500  174.5650  137.2500 C   0  0  0  0  0  2  0  0  0  0  0  0
  193.6070  175.8370  138.4270 N   0  0  0  0  0  2  0  0  0  0  0  0
  192.7610  177.0200  138.6110 C   0  0  0  0  0  2  0  0  0  0  0  0
  2 12  1  0  0  0  0
  2 16  1  0  0  0  0
  3 21  1  0  0  0  0
  4 14  1  0  0  0  0
  4 13  2  0  0  0  0
  5 13  1  0  0  0  0
  6  2  2  0  0  0  0
  8 10  1  0  0  0  0
  9  7  2  0  0  0  0
 11 16  2  0  0  0  0
 11  7  1  0  0  0  0
 12  1  1  0  0  0  0
 13  9  1  0  0  0  0
 14 11  1  0  0  0  0
 15  1  1  6  0  0  0
 15 21  1  0  0  0  0
 15 20  1  0  0  0  0
 16  3  1  0  0  0  0
 17  8  1  0  0  0  0
 18  6  1  0  0  0  0
 18 14  2  0  0  0  0
 19 10  1  0  0  0  0
 20 19  1  0  0  0  0
 21 17  1  1  0  0  0
 22 25  1  0  0  0  0
 22 26  1  0  0  0  0
 23 24  1  1  0  0  0
 23 27  1  0  0  0  0
 23 12  1  0  0  0  0
 25 24  1  0  0  0  0
 26 27  1  0  0  0  0
M  END
>  <MODEL>
4

>  <REMARK>
 VINA RESULT:      -7.6      2.379      3.203
  Name = 
  1 active torsions:
  status: ('A' for Active; 'I' for Inactive)
    1  A    between atoms: C_9  and  N_15
                            x       y       z     vdW  Elec       q    Type
                         _______ _______ _______ _____ _____    ______ ____

>  <TORSDO>
F 1

$$$$
=
 OpenBabel11052413443D

 27 31  0  0  1  0  0  0  0  0999 V2000
  188.6560  177.2320  136.0600 C   0  0  0  0  0  2  0  0  0  0  0  0
  187.9510  177.5070  138.4470 C   0  0  0  0  0  0  0  0  0  0  0  0
  189.9340  176.0000  138.2940 N   0  0  0  0  0  2  0  0  0  0  0  0
  188.9530  178.5160  142.3590 C   0  0  0  0  0  3  0  0  0  0  0  0
  190.4640  178.4040  144.3440 C   0  0  0  0  0  1  0  0  0  0  0  0
  187.1720  178.3160  139.2180 N   0  0  0  0  0  0  0  0  0  0  0  0
  190.6460  176.8160  140.9160 C   0  0  0  0  0  3  0  0  0  0  0  0
  191.7880  174.1460  137.1800 C   0  0  0  0  0  2  0  0  0  0  0  0
  190.9660  177.1750  142.2290 C   0  0  0  0  0  3  0  0  0  0  0  0
  192.3030  174.6640  135.8440 C   0  0  0  0  0  2  0  0  0  0  0  0
  189.4790  177.3090  140.3130 C   0  0  0  0  0  0  0  0  0  0  0  0
  187.5980  177.3050  137.0670 N   0  0  0  0  0  0  0  0  0  0  0  0
  190.1210  178.0250  142.9490 C   0  0  0  0  0  0  0  0  0  0  0  0
  188.6320  178.1610  141.0460 C   0  0  0  0  0  0  0  0  0  0  0  0
  189.1680  175.8060  135.9130 C   0  0  1  0  0  3  0  0  0  0  0  0
  189.1250  176.9510  139.0040 C   0  0  0  0  0  0  0  0  0  0  0  0
  190.2900  173.8370  137.1520 C   0  0  0  0  0  2  0  0  0  0  0  0
  187.4950  178.6280  140.4740 N   0  0  0  0  0  0  0  0  0  0  0  0
  191.6710  175.9960  135.4670 C   0  0  0  0  0  2  0  0  0  0  0  0
  190.2930  175.7470  134.8760 C   0  0  0  0  0  2  0  0  0  0  0  0
  189.4280  175.1000  137.2600 C   0  0  1  0  0  3  0  0  0  0  0  0
  183.7840  177.1230  135.2980 C   0  0  0  0  0  2  0  0  0  0  0  0
  186.2190  177.5260  136.6380 C   0  0  2  0  0  3  0  0  0  0  0  0
  185.2770  176.4970  137.2680 C   0  0  0  0  0  2  0  0  0  0  0  0
  183.8420  176.6900  136.7700 C   0  0  0  0  0  2  0  0  0  0  0  0
  185.0070  176.7430  134.5940 N   0  0  0  0  0  2  0  0  0  0  0  0
  186.1170  177.5560  135.1010 C   0  0  0  0  0  2  0  0  0  0  0  0
  1 12  1  0  0  0  0
  2 16  2  0  0  0  0
  2  6  1  0  0  0  0
  3 16  1  0  0  0  0
  4 13  1  0  0  0  0
  6 18  2  0  0  0  0
  7  9  1  0  0  0  0
  9 13  2  0  0  0  0
 10  8  1  0  0  0  0
 11  7  2  0  0  0  0
 11 14  1  0  0  0  0
 12  2  1  0  0  0  0
 13  5  1  0  0  0  0
 14  4  2  0  0  0  0
 15 20  1  6  0  0  0
 15  1  1  0  0  0  0
 15 21  1  0  0  0  0
 16 11  1  0  0  0  0
 17  8  1  0  0  0  0
 18 14  1  0  0  0  0
 19 10  1  0  0  0  0
 20 19  1  0  0  0  0
 21 17  1  6  0  0  0
 21  3  1  0  0  0  0
 22 25  1  0  0  0  0
 23 27  1  6  0  0  0
 23 12  1  0  0  0  0
 23 24  1  0  0  0  0
 25 24  1  0  0  0  0
 26 27  1  0  0  0  0
 26 22  1  0  0  0  0
M  END
>  <MODEL>
5

>  <REMARK>
 VINA RESULT:      -6.9      2.838      5.247
  Name = 
  1 active torsions:
  status: ('A' for Active; 'I' for Inactive)
    1  A    between atoms: C_9  and  N_15
                            x       y       z     vdW  Elec       q    Type
                         _______ _______ _______ _____ _____    ______ ____

>  <TORSDO>
F 1

$$$$
=
 OpenBabel11052413443D

 27 31  0  0  1  0  0  0  0  0999 V2000
  185.0610  177.5360  138.3070 C   0  0  0  0  0  2  0  0  0  0  0  0
  186.1610  178.2630  140.4350 C   0  0  0  0  0  0  0  0  0  0  0  0
  183.7700  178.9750  140.4050 N   0  0  0  0  0  2  0  0  0  0  0  0
  186.1770  178.3070  144.5970 C   0  0  0  0  0  3  0  0  0  0  0  0
  185.0370  178.5910  146.8010 C   0  0  0  0  0  1  0  0  0  0  0  0
  187.2840  178.0160  141.1670 N   0  0  0  0  0  0  0  0  0  0  0  0
  183.7930  178.8680  143.2390 C   0  0  0  0  0  3  0  0  0  0  0  0
  181.2310  179.7320  139.3560 C   0  0  0  0  0  2  0  0  0  0  0  0
  183.8210  178.8700  144.6370 C   0  0  0  0  0  3  0  0  0  0  0  0
  180.7460  178.6840  138.3620 C   0  0  0  0  0  2  0  0  0  0  0  0
  184.9560  178.5810  142.5100 C   0  0  0  0  0  0  0  0  0  0  0  0
  186.2100  178.1080  139.0050 N   0  0  0  0  0  0  0  0  0  0  0  0
  185.0110  178.5880  145.3150 C   0  0  0  0  0  0  0  0  0  0  0  0
  186.1520  178.3020  143.2000 C   0  0  0  0  0  0  0  0  0  0  0  0
  184.0550  178.6170  137.9380 C   0  0  1  0  0  3  0  0  0  0  0  0
  184.9620  178.5890  141.1080 C   0  0  0  0  0  0  0  0  0  0  0  0
  182.4970  180.4480  138.8820 C   0  0  0  0  0  2  0  0  0  0  0  0
  187.2830  178.0400  142.5000 N   0  0  0  0  0  0  0  0  0  0  0  0
  181.7510  177.5550  138.1870 C   0  0  0  0  0  2  0  0  0  0  0  0
  182.8440  178.0020  137.2310 C   0  0  0  0  0  2  0  0  0  0  0  0
  183.7600  179.6050  139.0860 C   0  0  1  0  0  3  0  0  0  0  0  0
  189.5800  177.5320  136.5520 C   0  0  0  0  0  2  0  0  0  0  0  0
  187.4980  178.1860  138.3190 C   0  0  2  0  0  3  0  0  0  0  0  0
  187.3240  178.6730  136.8780 C   0  0  0  0  0  2  0  0  0  0  0  0
  188.6660  178.6940  136.1410 C   0  0  0  0  0  2  0  0  0  0  0  0
  188.8020  176.4270  137.1080 N   0  0  0  0  0  2  0  0  0  0  0  0
  188.2480  176.8420  138.4010 C   0  0  0  0  0  2  0  0  0  0  0  0
  1 12  1  0  0  0  0
  2 16  2  0  0  0  0
  2  6  1  0  0  0  0
  3 16  1  0  0  0  0
  4 13  1  0  0  0  0
  6 18  2  0  0  0  0
  7  9  1  0  0  0  0
  9 13  2  0  0  0  0
 10  8  1  0  0  0  0
 11 14  1  0  0  0  0
 11  7  2  0  0  0  0
 12  2  1  0  0  0  0
 13  5  1  0  0  0  0
 14  4  2  0  0  0  0
 15 20  1  1  0  0  0
 15  1  1  0  0  0  0
 15 21  1  0  0  0  0
 16 11  1  0  0  0  0
 17  8  1  0  0  0  0
 18 14  1  0  0  0  0
 19 10  1  0  0  0  0
 20 19  1  0  0  0  0
 21 17  1  6  0  0  0
 21  3  1  0  0  0  0
 22 26  1  0  0  0  0
 23 24  1  6  0  0  0
 23 27  1  0  0  0  0
 23 12  1  0  0  0  0
 25 22  1  0  0  0  0
 25 24  1  0  0  0  0
 26 27  1  0  0  0  0
M  END
>  <MODEL>
6

>  <REMARK>
 VINA RESULT:      -6.8      2.614      5.485
  Name = 
  1 active torsions:
  status: ('A' for Active; 'I' for Inactive)
    1  A    between atoms: C_9  and  N_15
                            x       y       z     vdW  Elec       q    Type
                         _______ _______ _______ _____ _____    ______ ____

>  <TORSDO>
F 1

$$$$
=
 OpenBabel11052413443D

 27 31  0  0  1  0  0  0  0  0999 V2000
  183.5950  179.3770  141.1550 C   0  0  0  0  0  2  0  0  0  0  0  0
  185.7810  178.5270  140.2790 C   0  0  0  0  0  0  0  0  0  0  0  0
  183.8920  177.6520  138.9020 N   0  0  0  0  0  2  0  0  0  0  0  0
  188.3950  178.0800  137.0700 C   0  0  0  0  0  3  0  0  0  0  0  0
  188.8820  177.5030  134.6900 C   0  0  0  0  0  1  0  0  0  0  0  0
  187.1160  178.7820  140.3790 N   0  0  0  0  0  0  0  0  0  0  0  0
  185.6820  177.4850  136.7090 C   0  0  0  0  0  3  0  0  0  0  0  0
  181.2510  176.8220  138.2290 C   0  0  0  0  0  2  0  0  0  0  0  0
  186.5780  177.3500  135.6440 C   0  0  0  0  0  3  0  0  0  0  0  0
  180.2560  177.9230  138.5710 C   0  0  0  0  0  2  0  0  0  0  0  0
  186.1360  177.9240  137.9620 C   0  0  0  0  0  0  0  0  0  0  0  0
  184.9260  178.8230  141.3970 N   0  0  0  0  0  0  0  0  0  0  0  0
  187.9320  177.6480  135.8240 C   0  0  0  0  0  0  0  0  0  0  0  0
  187.5020  178.2190  138.1360 C   0  0  0  0  0  0  0  0  0  0  0  0
  182.5750  178.2680  140.9470 C   0  0  1  0  0  3  0  0  0  0  0  0
  185.2640  178.0520  139.0520 C   0  0  0  0  0  0  0  0  0  0  0  0
  181.9390  176.2470  139.4690 C   0  0  0  0  0  2  0  0  0  0  0  0
  187.9480  178.6280  139.3490 N   0  0  0  0  0  0  0  0  0  0  0  0
  180.9370  179.1330  139.1940 C   0  0  0  0  0  2  0  0  0  0  0  0
  181.1900  178.8600  140.6680 C   0  0  0  0  0  2  0  0  0  0  0  0
  183.0570  177.1540  139.9940 C   0  0  1  0  0  3  0  0  0  0  0  0
  185.7160  178.6630  145.5270 C   0  0  0  0  0  2  0  0  0  0  0  0
  185.5010  178.9050  142.7380 C   0  0  2  0  0  3  0  0  0  0  0  0
  185.8860  177.5180  143.2570 C   0  0  0  0  0  2  0  0  0  0  0  0
  186.4300  177.5980  144.6860 C   0  0  0  0  0  2  0  0  0  0  0  0
  184.3930  178.9600  144.9800 N   0  0  0  0  0  2  0  0  0  0  0  0
  184.5560  179.6530  143.6990 C   0  0  0  0  0  2  0  0  0  0  0  0
  1 12  1  0  0  0  0
  2  6  1  0  0  0  0
  2 12  1  0  0  0  0
  3 16  1  0  0  0  0
  3 21  1  0  0  0  0
  4 14  1  0  0  0  0
  5 13  1  0  0  0  0
  7 11  1  0  0  0  0
  8 10  1  0  0  0  0
  8 17  1  0  0  0  0
  9 13  1  0  0  0  0
  9  7  2  0  0  0  0
 10 19  1  0  0  0  0
 11 14  2  0  0  0  0
 11 16  1  0  0  0  0
 13  4  2  0  0  0  0
 14 18  1  0  0  0  0
 15 20  1  6  0  0  0
 15  1  1  0  0  0  0
 16  2  2  0  0  0  0
 18  6  2  0  0  0  0
 19 20  1  0  0  0  0
 21 17  1  6  0  0  0
 21 15  1  0  0  0  0
 23 12  1  6  0  0  0
 23 24  1  0  0  0  0
 23 27  1  0  0  0  0
 24 25  1  0  0  0  0
 25 22  1  0  0  0  0
 26 22  1  0  0  0  0
 27 26  1  0  0  0  0
M  END
>  <MODEL>
7

>  <REMARK>
 VINA RESULT:      -6.6      2.821      7.917
  Name = 
  1 active torsions:
  status: ('A' for Active; 'I' for Inactive)
    1  A    between atoms: C_9  and  N_15
                            x       y       z     vdW  Elec       q    Type
                         _______ _______ _______ _____ _____    ______ ____

>  <TORSDO>
F 1

$$$$
=
 OpenBabel11052413443D

 27 31  0  0  1  0  0  0  0  0999 V2000
  188.6740  178.3960  138.9800 C   0  0  0  0  0  2  0  0  0  0  0  0
  190.8190  177.1090  139.0720 C   0  0  0  0  0  0  0  0  0  0  0  0
  189.4920  176.4450  137.0660 N   0  0  0  0  0  2  0  0  0  0  0  0
  194.3430  175.9280  137.1970 C   0  0  0  0  0  3  0  0  0  0  0  0
  195.6040  175.0590  135.2240 C   0  0  0  0  0  1  0  0  0  0  0  0
  192.0290  177.1400  139.6980 N   0  0  0  0  0  0  0  0  0  0  0  0
  191.9310  175.7740  135.7830 C   0  0  0  0  0  3  0  0  0  0  0  0
  187.2210  176.0190  135.3980 C   0  0  0  0  0  2  0  0  0  0  0  0
  193.1280  175.3900  135.1710 C   0  0  0  0  0  3  0  0  0  0  0  0
  186.4060  177.3010  135.2930 C   0  0  0  0  0  2  0  0  0  0  0  0
  191.9310  176.2430  137.1050 C   0  0  0  0  0  0  0  0  0  0  0  0
  189.6680  177.6480  139.7460 N   0  0  0  0  0  0  0  0  0  0  0  0
  194.3330  175.4680  135.8770 C   0  0  0  0  0  0  0  0  0  0  0  0
  193.1480  176.3150  137.8100 C   0  0  0  0  0  0  0  0  0  0  0  0
  187.6240  177.4630  138.3950 C   0  0  1  0  0  3  0  0  0  0  0  0
  190.7440  176.6180  137.7490 C   0  0  0  0  0  0  0  0  0  0  0  0
  187.2420  175.4520  136.8190 C   0  0  0  0  0  2  0  0  0  0  0  0
  193.1520  176.7520  139.0930 N   0  0  0  0  0  0  0  0  0  0  0  0
  187.0060  178.4290  136.1180 C   0  0  0  0  0  2  0  0  0  0  0  0
  186.6030  178.2550  137.5730 C   0  0  0  0  0  2  0  0  0  0  0  0
  188.2160  176.2000  137.7350 C   0  0  1  0  0  3  0  0  0  0  0  0
  188.7760  177.5750  143.8580 C   0  0  0  0  0  2  0  0  0  0  0  0
  189.6740  177.7540  141.2040 C   0  0  2  0  0  3  0  0  0  0  0  0
  189.7980  176.3750  141.8550 C   0  0  0  0  0  2  0  0  0  0  0  0
  189.7420  176.4810  143.3810 C   0  0  0  0  0  2  0  0  0  0  0  0
  187.7790  177.8740  142.8320 N   0  0  0  0  0  2  0  0  0  0  0  0
  188.4440  178.5350  141.7050 C   0  0  0  0  0  2  0  0  0  0  0  0
  1 12  1  0  0  0  0
  2  6  1  0  0  0  0
  2 12  1  0  0  0  0
  3 21  1  0  0  0  0
  3 16  1  0  0  0  0
  4 14  1  0  0  0  0
  5 13  1  0  0  0  0
  7 11  1  0  0  0  0
  8 17  1  0  0  0  0
  9  7  2  0  0  0  0
  9 13  1  0  0  0  0
 10  8  1  0  0  0  0
 10 19  1  0  0  0  0
 11 16  1  0  0  0  0
 11 14  2  0  0  0  0
 13  4  2  0  0  0  0
 14 18  1  0  0  0  0
 15 20  1  6  0  0  0
 15  1  1  0  0  0  0
 16  2  2  0  0  0  0
 18  6  2  0  0  0  0
 19 20  1  0  0  0  0
 21 17  1  6  0  0  0
 21 15  1  0  0  0  0
 23 12  1  6  0  0  0
 23 27  1  0  0  0  0
 23 24  1  0  0  0  0
 24 25  1  0  0  0  0
 25 22  1  0  0  0  0
 26 22  1  0  0  0  0
 27 26  1  0  0  0  0
M  END
>  <MODEL>
8

>  <REMARK>
 VINA RESULT:      -6.4      3.020      8.270
  Name = 
  1 active torsions:
  status: ('A' for Active; 'I' for Inactive)
    1  A    between atoms: C_9  and  N_15
                            x       y       z     vdW  Elec       q    Type
                         _______ _______ _______ _____ _____    ______ ____

>  <TORSDO>
F 1

$$$$
=
 OpenBabel11052413443D

 27 31  0  0  1  0  0  0  0  0999 V2000
  189.8150  178.2970  144.4420 C   0  0  0  0  0  2  0  0  0  0  0  0
  187.6610  177.8630  143.2400 C   0  0  0  0  0  0  0  0  0  0  0  0
  187.3170  177.7520  145.7090 N   0  0  0  0  0  2  0  0  0  0  0  0
  183.6500  178.8180  142.6710 C   0  0  0  0  0  3  0  0  0  0  0  0
  181.3690  179.3520  143.5370 C   0  0  0  0  0  1  0  0  0  0  0  0
  187.1090  178.0060  142.0030 N   0  0  0  0  0  0  0  0  0  0  0  0
  184.6230  178.5300  145.2810 C   0  0  0  0  0  3  0  0  0  0  0  0
  187.9300  177.3910  148.4680 C   0  0  0  0  0  2  0  0  0  0  0  0
  183.2810  178.8580  145.0650 C   0  0  0  0  0  3  0  0  0  0  0  0
  189.1250  178.2530  148.8530 C   0  0  0  0  0  2  0  0  0  0  0  0
  185.4900  178.3490  144.1930 C   0  0  0  0  0  0  0  0  0  0  0  0
  189.0800  177.6530  143.3540 N   0  0  0  0  0  0  0  0  0  0  0  0
  182.7960  179.0030  143.7620 C   0  0  0  0  0  0  0  0  0  0  0  0
  184.9920  178.4930  142.8840 C   0  0  0  0  0  0  0  0  0  0  0  0
  189.8050  177.4290  145.6920 C   0  0  1  0  0  3  0  0  0  0  0  0
  186.8360  178.0020  144.3790 C   0  0  0  0  0  0  0  0  0  0  0  0
  188.2930  176.3020  147.4570 C   0  0  0  0  0  2  0  0  0  0  0  0
  185.8210  178.3030  141.8280 N   0  0  0  0  0  0  0  0  0  0  0  0
  189.6700  179.0350  147.6670 C   0  0  0  0  0  2  0  0  0  0  0  0
  190.5550  178.1250  146.8310 C   0  0  0  0  0  2  0  0  0  0  0  0
  188.4170  176.8450  146.0290 C   0  0  1  0  0  3  0  0  0  0  0  0
  191.1010  177.0050  139.7210 C   0  0  0  0  0  2  0  0  0  0  0  0
  189.8190  177.1100  142.2160 C   0  0  2  0  0  3  0  0  0  0  0  0
  191.2510  177.6490  142.1820 C   0  0  0  0  0  2  0  0  0  0  0  0
  192.0040  177.1280  140.9560 C   0  0  0  0  0  2  0  0  0  0  0  0
  189.9350  177.8780  139.8380 N   0  0  0  0  0  2  0  0  0  0  0  0
  189.0620  177.3610  140.8970 C   0  0  0  0  0  2  0  0  0  0  0  0
  2 12  1  0  0  0  0
  2 16  1  0  0  0  0
  3 21  1  0  0  0  0
  4 14  1  0  0  0  0
  4 13  2  0  0  0  0
  5 13  1  0  0  0  0
  6  2  2  0  0  0  0
  8 10  1  0  0  0  0
  9  7  2  0  0  0  0
 11 16  2  0  0  0  0
 11  7  1  0  0  0  0
 12  1  1  0  0  0  0
 13  9  1  0  0  0  0
 14 11  1  0  0  0  0
 15  1  1  6  0  0  0
 15 21  1  0  0  0  0
 15 20  1  0  0  0  0
 16  3  1  0  0  0  0
 17  8  1  0  0  0  0
 18  6  1  0  0  0  0
 18 14  2  0  0  0  0
 19 10  1  0  0  0  0
 20 19  1  0  0  0  0
 21 17  1  1  0  0  0
 22 26  1  0  0  0  0
 22 25  1  0  0  0  0
 23 27  1  6  0  0  0
 23 12  1  0  0  0  0
 24 23  1  0  0  0  0
 25 24  1  0  0  0  0
 26 27  1  0  0  0  0
M  END
>  <MODEL>
9

>  <REMARK>
 VINA RESULT:      -6.4      2.353      3.876
  Name = 
  1 active torsions:
  status: ('A' for Active; 'I' for Inactive)
    1  A    between atoms: C_9  and  N_15
                            x       y       z     vdW  Elec       q    Type
                         _______ _______ _______ _____ _____    ______ ____

>  <TORSDO>
F 1

$$$$
