=
 OpenBabel11052414103D

 34 39  0  0  1  0  0  0  0  0999 V2000
  190.9430  177.0010  144.4380 C   0  0  0  0  0  0  0  0  0  0  0  0
  188.7880  177.4660  145.5190 C   0  0  0  0  0  0  0  0  0  0  0  0
  189.0600  177.7050  143.1150 N   0  0  0  0  0  0  0  0  0  0  0  0
  187.0870  178.3300  141.9110 C   0  0  0  0  0  0  0  0  0  0  0  0
  190.6990  176.7580  146.8400 C   0  0  0  0  0  3  0  0  0  0  0  0
  189.3450  177.1450  146.7620 C   0  0  0  0  0  3  0  0  0  0  0  0
  187.0040  178.1490  144.1330 C   0  0  0  0  0  0  0  0  0  0  0  0
  189.6150  177.3920  144.3790 C   0  0  2  0  0  3  0  0  0  0  0  0
  185.6500  178.5890  142.2750 C   0  0  0  0  0  3  0  0  0  0  0  0
  191.4980  176.6830  145.6810 C   0  0  0  0  0  3  0  0  0  0  0  0
  191.0970  177.2150  142.0820 N   0  0  0  0  0  0  0  0  0  0  0  0
  191.6530  176.9310  143.2720 N   0  0  0  0  0  0  0  0  0  0  0  0
  187.4690  177.8370  145.3800 N   0  0  0  0  0  0  0  0  0  0  0  0
  187.7210  178.2260  140.7380 C   0  0  0  0  0  3  0  0  0  0  0  0
  189.1880  177.8580  140.7760 C   0  0  0  0  0  0  0  0  0  0  0  0
  185.6710  178.4920  143.7580 N   0  0  0  0  0  0  0  0  0  0  0  0
  187.8000  178.0850  143.0780 N   0  0  0  0  0  0  0  0  0  0  0  0
  189.7880  177.5970  141.9760 C   0  0  0  0  0  0  0  0  0  0  0  0
  188.0930  176.7630  137.1660 C   0  0  0  0  0  3  0  0  0  0  0  0
  189.1940  175.8990  137.0500 O   0  0  0  0  0  0  0  0  0  0  0  0
  189.9690  177.7730  139.4980 C   0  0  2  0  0  3  0  0  0  0  0  0
  190.4730  176.1200  137.6410 C   0  0  0  0  0  2  0  0  0  0  0  0
  189.3290  178.5920  138.3670 C   0  0  0  0  0  2  0  0  0  0  0  0
  190.3260  176.3250  139.1430 C   0  0  0  0  0  2  0  0  0  0  0  0
  188.1110  177.9570  137.7650 C   0  0  0  0  0  3  0  0  0  0  0  0
  184.5040  178.2270  144.5870 C   0  0  0  0  0  2  0  0  0  0  0  0
  183.4680  179.3220  144.4030 C   0  0  0  0  0  2  0  0  0  0  0  0
  182.1470  178.7240  143.9630 C   0  0  0  0  0  2  0  0  0  0  0  0
  182.0100  178.8370  142.5200 N   0  0  0  0  0  2  0  0  0  0  0  0
  180.1310  179.3310  140.6900 O   0  0  0  0  0  0  0  0  0  0  0  0
  180.0260  180.8080  142.8410 O   0  0  0  0  0  1  0  0  0  0  0  0
  180.3460  179.2810  142.1870 P   0  0  2  0  0  0  0  0  0  0  0  0
  179.3260  177.1120  142.0570 O   0  0  0  0  0  1  0  0  0  0  0  0
  179.2910  178.1450  142.8720 O   0  0  0  0  0  0  0  0  0  0  0  0
  1 10  1  0  0  0  0
  2  6  2  0  0  0  0
  3  8  1  0  0  0  0
  4  9  2  0  0  0  0
  4 17  1  0  0  0  0
  6  5  1  0  0  0  0
  7 13  2  0  0  0  0
  8  1  1  6  0  0  0
  8  2  1  0  0  0  0
  9 16  1  0  0  0  0
 10  5  2  0  0  0  0
 11 12  1  0  0  0  0
 12  1  2  0  0  0  0
 13  2  1  0  0  0  0
 14 15  2  0  0  0  0
 14  4  1  0  0  0  0
 15 18  1  0  0  0  0
 16  7  1  0  0  0  0
 16 26  1  0  0  0  0
 17  3  1  0  0  0  0
 17  7  1  0  0  0  0
 18 11  2  0  0  0  0
 18  3  1  0  0  0  0
 19 25  2  0  0  0  0
 20 19  1  0  0  0  0
 20 22  1  0  0  0  0
 21 15  1  1  0  0  0
 22 24  1  0  0  0  0
 23 21  1  0  0  0  0
 24 21  1  0  0  0  0
 25 23  1  0  0  0  0
 27 26  1  0  0  0  0
 28 27  1  0  0  0  0
 29 28  1  0  0  0  0
 32 30  2  6  0  0  0
 32 29  1  0  0  0  0
 32 31  1  0  0  0  0
 32 34  1  0  0  0  0
 33 34  1  0  0  0  0
M  END
>  <MODEL>
1

>  <REMARK>
 VINA RESULT:      -9.1      0.000      0.000
  Name = 
  7 active torsions:
  status: ('A' for Active; 'I' for Inactive)
    1  A    between atoms: C_3  and  C_13
    2  A    between atoms: C_3  and  C_17
    3  A    between atoms: C_12  and  C_28
    4  A    between atoms: C_13  and  N_33
    5  A    between atoms: O_14  and  P_34
    6  A    between atoms: C_17  and  N_29
    7  A    between atoms: N_33  and  P_34
                            x       y       z     vdW  Elec       q    Type
                         _______ _______ _______ _____ _____    ______ ____

>  <TORSDO>
F 7

$$$$
=
 OpenBabel11052414103D

 34 39  0  0  1  0  0  0  0  0999 V2000
  184.3010  178.6080  145.0960 C   0  0  0  0  0  0  0  0  0  0  0  0
  186.6930  178.0930  144.8930 C   0  0  0  0  0  0  0  0  0  0  0  0
  185.3160  178.4430  142.9200 N   0  0  0  0  0  0  0  0  0  0  0  0
  186.4680  178.3340  140.8240 C   0  0  0  0  0  0  0  0  0  0  0  0
  185.6530  178.2590  147.0810 C   0  0  0  0  0  3  0  0  0  0  0  0
  186.7960  178.0350  146.2870 C   0  0  0  0  0  3  0  0  0  0  0  0
  187.5910  177.9560  142.7140 C   0  0  0  0  0  0  0  0  0  0  0  0
  185.4310  178.3730  144.3290 C   0  0  2  0  0  3  0  0  0  0  0  0
  187.8980  178.1290  140.4000 C   0  0  0  0  0  3  0  0  0  0  0  0
  184.4060  178.5480  146.4890 C   0  0  0  0  0  3  0  0  0  0  0  0
  183.0510  178.9810  143.1160 N   0  0  0  0  0  0  0  0  0  0  0  0
  183.1290  178.9010  144.4560 N   0  0  0  0  0  0  0  0  0  0  0  0
  187.7780  177.8970  144.0680 N   0  0  0  0  0  0  0  0  0  0  0  0
  185.3620  178.6690  140.1530 C   0  0  0  0  0  3  0  0  0  0  0  0
  184.0990  178.8730  140.9590 C   0  0  0  0  0  0  0  0  0  0  0  0
  188.5800  177.8470  141.6910 N   0  0  0  0  0  0  0  0  0  0  0  0
  186.3960  178.2070  142.2060 N   0  0  0  0  0  0  0  0  0  0  0  0
  184.1420  178.7660  142.3210 C   0  0  0  0  0  0  0  0  0  0  0  0
  182.3560  177.2000  137.8610 C   0  0  0  0  0  3  0  0  0  0  0  0
  182.1720  178.4460  137.2400 O   0  0  0  0  0  0  0  0  0  0  0  0
  182.8120  179.2030  140.2600 C   0  0  2  0  0  3  0  0  0  0  0  0
  181.9410  179.6750  137.9260 C   0  0  0  0  0  2  0  0  0  0  0  0
  181.8600  178.0000  140.1910 C   0  0  0  0  0  2  0  0  0  0  0  0
  183.0550  179.9300  138.9330 C   0  0  0  0  0  2  0  0  0  0  0  0
  182.2480  176.9690  139.1740 C   0  0  0  0  0  3  0  0  0  0  0  0
  190.0070  178.0050  141.9250 C   0  0  0  0  0  2  0  0  0  0  0  0
  190.7060  176.6590  141.8410 C   0  0  0  0  0  2  0  0  0  0  0  0
  190.4410  175.8520  143.0970 C   0  0  0  0  0  2  0  0  0  0  0  0
  191.6530  175.7690  143.8950 N   0  0  0  0  0  2  0  0  0  0  0  0
  189.9580  176.7580  145.7030 O   0  0  0  0  0  1  0  0  0  0  0  0
  191.8680  178.3700  144.9480 O   0  0  0  0  0  0  0  0  0  0  0  0
  191.4180  176.7790  145.3090 P   0  0  2  0  0  0  0  0  0  0  0  0
  191.9360  176.8750  147.6510 O   0  0  0  0  0  1  0  0  0  0  0  0
  192.3600  176.2090  146.5980 O   0  0  0  0  0  0  0  0  0  0  0  0
  1 10  1  0  0  0  0
  2  6  2  0  0  0  0
  3  8  1  0  0  0  0
  4 17  1  0  0  0  0
  6  5  1  0  0  0  0
  7 13  2  0  0  0  0
  8  2  1  1  0  0  0
  8  1  1  0  0  0  0
  9  4  2  0  0  0  0
  9 16  1  0  0  0  0
 10  5  2  0  0  0  0
 11 12  1  0  0  0  0
 12  1  2  0  0  0  0
 13  2  1  0  0  0  0
 14  4  1  0  0  0  0
 14 15  2  0  0  0  0
 15 18  1  0  0  0  0
 16 26  1  0  0  0  0
 16  7  1  0  0  0  0
 17  7  1  0  0  0  0
 17  3  1  0  0  0  0
 18  3  1  0  0  0  0
 18 11  2  0  0  0  0
 19 25  2  0  0  0  0
 20 19  1  0  0  0  0
 20 22  1  0  0  0  0
 21 15  1  6  0  0  0
 22 24  1  0  0  0  0
 23 21  1  0  0  0  0
 24 21  1  0  0  0  0
 25 23  1  0  0  0  0
 27 26  1  0  0  0  0
 27 28  1  0  0  0  0
 28 29  1  0  0  0  0
 29 32  1  0  0  0  0
 32 31  2  6  0  0  0
 32 30  1  0  0  0  0
 32 34  1  0  0  0  0
 34 33  1  0  0  0  0
M  END
>  <MODEL>
2

>  <REMARK>
 VINA RESULT:      -8.9      4.598      7.460
  Name = 
  7 active torsions:
  status: ('A' for Active; 'I' for Inactive)
    1  A    between atoms: C_3  and  C_13
    2  A    between atoms: C_3  and  C_17
    3  A    between atoms: C_12  and  C_28
    4  A    between atoms: C_13  and  N_33
    5  A    between atoms: O_14  and  P_34
    6  A    between atoms: C_17  and  N_29
    7  A    between atoms: N_33  and  P_34
                            x       y       z     vdW  Elec       q    Type
                         _______ _______ _______ _____ _____    ______ ____

>  <TORSDO>
F 7

$$$$
=
 OpenBabel11052414103D

 34 39  0  0  1  0  0  0  0  0999 V2000
  184.2530  178.5440  145.2420 C   0  0  0  0  0  0  0  0  0  0  0  0
  186.4780  178.2160  144.2550 C   0  0  0  0  0  0  0  0  0  0  0  0
  184.5180  178.5250  142.8500 N   0  0  0  0  0  0  0  0  0  0  0  0
  184.9350  178.5700  140.4920 C   0  0  0  0  0  0  0  0  0  0  0  0
  186.1940  178.2340  146.6670 C   0  0  0  0  0  3  0  0  0  0  0  0
  187.0300  178.1220  145.5370 C   0  0  0  0  0  3  0  0  0  0  0  0
  186.6300  178.2170  141.8990 C   0  0  0  0  0  0  0  0  0  0  0  0
  185.0870  178.4190  144.1420 C   0  0  2  0  0  3  0  0  0  0  0  0
  186.1600  178.4870  139.6220 C   0  0  0  0  0  3  0  0  0  0  0  0
  184.8080  178.4470  146.5220 C   0  0  0  0  0  3  0  0  0  0  0  0
  182.4100  178.8860  143.7910 N   0  0  0  0  0  0  0  0  0  0  0  0
  182.9230  178.7690  145.0280 N   0  0  0  0  0  0  0  0  0  0  0  0
  187.2470  178.1290  143.1170 N   0  0  0  0  0  0  0  0  0  0  0  0
  183.6520  178.8430  140.2300 C   0  0  0  0  0  3  0  0  0  0  0  0
  182.7080  178.9260  141.4090 C   0  0  0  0  0  0  0  0  0  0  0  0
  187.2380  178.2150  140.6090 N   0  0  0  0  0  0  0  0  0  0  0  0
  185.3210  178.3940  141.8160 N   0  0  0  0  0  0  0  0  0  0  0  0
  183.1960  178.7780  142.6770 C   0  0  0  0  0  0  0  0  0  0  0  0
  180.1800  177.2820  138.8910 C   0  0  0  0  0  3  0  0  0  0  0  0
  179.7270  178.5400  138.4620 O   0  0  0  0  0  0  0  0  0  0  0  0
  181.2470  179.1800  141.1790 C   0  0  2  0  0  3  0  0  0  0  0  0
  179.6470  179.7040  139.2820 C   0  0  0  0  0  2  0  0  0  0  0  0
  180.4040  177.9050  141.3150 C   0  0  0  0  0  2  0  0  0  0  0  0
  181.0050  179.9980  139.9060 C   0  0  0  0  0  2  0  0  0  0  0  0
  180.5130  176.9700  140.1470 C   0  0  0  0  0  3  0  0  0  0  0  0
  188.6520  178.4720  140.3810 C   0  0  0  0  0  2  0  0  0  0  0  0
  189.3890  177.1700  140.1230 C   0  0  0  0  0  2  0  0  0  0  0  0
  190.5300  177.0100  141.1080 C   0  0  0  0  0  2  0  0  0  0  0  0
  190.1620  176.0550  142.1400 N   0  0  0  0  0  2  0  0  0  0  0  0
  191.9670  177.6500  143.2880 O   0  0  0  0  0  0  0  0  0  0  0  0
  192.0380  175.1470  144.0320 O   0  0  0  0  0  1  0  0  0  0  0  0
  191.0750  176.4640  143.5810 P   0  0  2  0  0  0  0  0  0  0  0  0
  190.7690  176.8260  145.9330 O   0  0  0  0  0  1  0  0  0  0  0  0
  190.0210  176.8480  144.8510 O   0  0  0  0  0  0  0  0  0  0  0  0
  1 10  1  0  0  0  0
  2  6  2  0  0  0  0
  3  8  1  0  0  0  0
  4 17  1  0  0  0  0
  6  5  1  0  0  0  0
  7 13  2  0  0  0  0
  8  2  1  1  0  0  0
  8  1  1  0  0  0  0
  9  4  2  0  0  0  0
  9 16  1  0  0  0  0
 10  5  2  0  0  0  0
 11 12  1  0  0  0  0
 12  1  2  0  0  0  0
 13  2  1  0  0  0  0
 14  4  1  0  0  0  0
 14 15  2  0  0  0  0
 15 18  1  0  0  0  0
 16  7  1  0  0  0  0
 17  7  1  0  0  0  0
 17  3  1  0  0  0  0
 18  3  1  0  0  0  0
 18 11  2  0  0  0  0
 19 25  2  0  0  0  0
 20 19  1  0  0  0  0
 20 22  1  0  0  0  0
 21 23  1  0  0  0  0
 21 15  1  6  0  0  0
 22 24  1  0  0  0  0
 24 21  1  0  0  0  0
 25 23  1  0  0  0  0
 26 16  1  0  0  0  0
 27 26  1  0  0  0  0
 27 28  1  0  0  0  0
 28 29  1  0  0  0  0
 29 32  1  0  0  0  0
 32 30  2  6  0  0  0
 32 31  1  0  0  0  0
 32 34  1  0  0  0  0
 34 33  1  0  0  0  0
M  END
>  <MODEL>
3

>  <REMARK>
 VINA RESULT:      -8.6      4.094      7.844
  Name = 
  7 active torsions:
  status: ('A' for Active; 'I' for Inactive)
    1  A    between atoms: C_3  and  C_13
    2  A    between atoms: C_3  and  C_17
    3  A    between atoms: C_12  and  C_28
    4  A    between atoms: C_13  and  N_33
    5  A    between atoms: O_14  and  P_34
    6  A    between atoms: C_17  and  N_29
    7  A    between atoms: N_33  and  P_34
                            x       y       z     vdW  Elec       q    Type
                         _______ _______ _______ _____ _____    ______ ____

>  <TORSDO>
F 7

$$$$
=
 OpenBabel11052414103D

 34 39  0  0  1  0  0  0  0  0999 V2000
  185.3180  178.7980  142.3820 C   0  0  0  0  0  0  0  0  0  0  0  0
  187.2140  177.8820  143.6450 C   0  0  0  0  0  0  0  0  0  0  0  0
  187.2590  177.9820  141.2160 N   0  0  0  0  0  0  0  0  0  0  0  0
  189.2810  177.2150  140.1880 C   0  0  0  0  0  0  0  0  0  0  0  0
  185.2470  178.7060  144.8060 C   0  0  0  0  0  3  0  0  0  0  0  0
  186.5340  178.1300  144.8420 C   0  0  0  0  0  3  0  0  0  0  0  0
  189.0700  177.1090  142.4070 C   0  0  0  0  0  0  0  0  0  0  0  0
  186.5760  178.2200  142.4330 C   0  0  2  0  0  3  0  0  0  0  0  0
  190.6040  176.6980  140.6870 C   0  0  0  0  0  3  0  0  0  0  0  0
  184.6400  179.0430  143.5790 C   0  0  0  0  0  3  0  0  0  0  0  0
  185.4750  178.8990  140.0180 N   0  0  0  0  0  0  0  0  0  0  0  0
  184.7970  179.1170  141.1590 N   0  0  0  0  0  0  0  0  0  0  0  0
  188.4770  177.3340  143.6190 N   0  0  0  0  0  0  0  0  0  0  0  0
  188.8400  177.5570  138.9730 C   0  0  0  0  0  3  0  0  0  0  0  0
  187.4460  178.1360  138.8810 C   0  0  0  0  0  0  0  0  0  0  0  0
  190.3840  176.6150  142.1550 N   0  0  0  0  0  0  0  0  0  0  0  0
  188.4480  177.4220  141.2810 N   0  0  0  0  0  0  0  0  0  0  0  0
  186.7220  178.3380  140.0220 C   0  0  0  0  0  0  0  0  0  0  0  0
  186.4610  175.8770  135.8220 C   0  0  0  0  0  3  0  0  0  0  0  0
  187.1700  176.7020  134.9320 O   0  0  0  0  0  0  0  0  0  0  0  0
  186.8740  178.4940  137.5410 C   0  0  2  0  0  3  0  0  0  0  0  0
  187.3280  178.1110  135.0750 C   0  0  0  0  0  2  0  0  0  0  0  0
  185.5670  177.7450  137.2440 C   0  0  0  0  0  2  0  0  0  0  0  0
  187.9330  178.4350  136.4350 C   0  0  0  0  0  2  0  0  0  0  0  0
  185.7570  176.3040  136.8740 C   0  0  0  0  0  3  0  0  0  0  0  0
  191.4460  176.5970  143.1500 C   0  0  0  0  0  2  0  0  0  0  0  0
  191.6440  177.9840  143.7340 C   0  0  0  0  0  2  0  0  0  0  0  0
  191.5500  177.9350  145.2460 C   0  0  0  0  0  2  0  0  0  0  0  0
  191.9670  176.6270  145.7240 N   0  0  0  0  0  2  0  0  0  0  0  0
  191.3290  174.9680  147.7140 O   0  0  0  0  0  1  0  0  0  0  0  0
  189.7330  177.0100  147.3930 O   0  0  0  0  0  0  0  0  0  0  0  0
  191.3240  176.4340  147.3450 P   0  0  2  0  0  0  0  0  0  0  0  0
  193.1850  176.4480  148.8600 O   0  0  0  0  0  1  0  0  0  0  0  0
  192.2670  177.3010  148.4550 O   0  0  0  0  0  0  0  0  0  0  0  0
  1 10  1  0  0  0  0
  2  6  2  0  0  0  0
  3 17  1  0  0  0  0
  3  8  1  0  0  0  0
  4  9  2  0  0  0  0
  4 17  1  0  0  0  0
  5  6  1  0  0  0  0
  7 13  2  0  0  0  0
  8  1  1  1  0  0  0
  8  2  1  0  0  0  0
  9 16  1  0  0  0  0
 10  5  2  0  0  0  0
 11 18  2  0  0  0  0
 11 12  1  0  0  0  0
 12  1  2  0  0  0  0
 13  2  1  0  0  0  0
 14  4  1  0  0  0  0
 15 14  2  0  0  0  0
 15 18  1  0  0  0  0
 16  7  1  0  0  0  0
 16 26  1  0  0  0  0
 17  7  1  0  0  0  0
 18  3  1  0  0  0  0
 19 25  2  0  0  0  0
 20 22  1  0  0  0  0
 20 19  1  0  0  0  0
 21 15  1  1  0  0  0
 22 24  1  0  0  0  0
 23 21  1  0  0  0  0
 24 21  1  0  0  0  0
 25 23  1  0  0  0  0
 26 27  1  0  0  0  0
 27 28  1  0  0  0  0
 28 29  1  0  0  0  0
 29 32  1  0  0  0  0
 32 31  2  1  0  0  0
 32 30  1  0  0  0  0
 32 34  1  0  0  0  0
 34 33  1  0  0  0  0
M  END
>  <MODEL>
4

>  <REMARK>
 VINA RESULT:      -8.6      4.773      7.100
  Name = 
  7 active torsions:
  status: ('A' for Active; 'I' for Inactive)
    1  A    between atoms: C_3  and  C_13
    2  A    between atoms: C_3  and  C_17
    3  A    between atoms: C_12  and  C_28
    4  A    between atoms: C_13  and  N_33
    5  A    between atoms: O_14  and  P_34
    6  A    between atoms: C_17  and  N_29
    7  A    between atoms: N_33  and  P_34
                            x       y       z     vdW  Elec       q    Type
                         _______ _______ _______ _____ _____    ______ ____

>  <TORSDO>
F 7

$$$$
=
 OpenBabel11052414103D

 34 39  0  0  1  0  0  0  0  0999 V2000
  187.2100  177.8730  144.5300 C   0  0  0  0  0  0  0  0  0  0  0  0
  189.3370  177.2210  143.4920 C   0  0  0  0  0  0  0  0  0  0  0  0
  187.4310  177.8790  142.1340 N   0  0  0  0  0  0  0  0  0  0  0  0
  187.8130  177.9220  139.7700 C   0  0  0  0  0  0  0  0  0  0  0  0
  189.0970  177.2160  145.9090 C   0  0  0  0  0  3  0  0  0  0  0  0
  189.8870  177.0040  144.7600 C   0  0  0  0  0  3  0  0  0  0  0  0
  189.4510  177.2620  141.1340 C   0  0  0  0  0  0  0  0  0  0  0  0
  187.9950  177.6470  143.4110 C   0  0  2  0  0  3  0  0  0  0  0  0
  188.9960  177.6680  138.8740 C   0  0  0  0  0  3  0  0  0  0  0  0
  187.7610  177.6530  145.7960 C   0  0  0  0  0  3  0  0  0  0  0  0
  185.4240  178.5460  143.1240 N   0  0  0  0  0  0  0  0  0  0  0  0
  185.9290  178.3140  144.3490 N   0  0  0  0  0  0  0  0  0  0  0  0
  190.0650  177.0430  142.3370 N   0  0  0  0  0  0  0  0  0  0  0  0
  186.5880  178.4040  139.5400 C   0  0  0  0  0  3  0  0  0  0  0  0
  185.6880  178.6040  140.7400 C   0  0  0  0  0  0  0  0  0  0  0  0
  190.0320  177.1990  139.8330 N   0  0  0  0  0  0  0  0  0  0  0  0
  188.1870  177.6500  141.0810 N   0  0  0  0  0  0  0  0  0  0  0  0
  186.1650  178.3450  141.9930 C   0  0  0  0  0  0  0  0  0  0  0  0
  182.7080  177.1090  138.6610 C   0  0  0  0  0  3  0  0  0  0  0  0
  182.4560  178.3500  138.0520 O   0  0  0  0  0  0  0  0  0  0  0  0
  184.2830  179.0960  140.5440 C   0  0  2  0  0  3  0  0  0  0  0  0
  182.6560  179.6190  138.6700 C   0  0  0  0  0  2  0  0  0  0  0  0
  183.2360  178.0430  140.9340 C   0  0  0  0  0  2  0  0  0  0  0  0
  184.0910  179.7400  139.1660 C   0  0  0  0  0  2  0  0  0  0  0  0
  183.0790  176.9360  139.9340 C   0  0  0  0  0  3  0  0  0  0  0  0
  191.4650  177.2320  139.5830 C   0  0  0  0  0  2  0  0  0  0  0  0
  191.8170  176.3290  138.4140 C   0  0  0  0  0  2  0  0  0  0  0  0
  193.3220  176.2090  138.2800 C   0  0  0  0  0  2  0  0  0  0  0  0
  193.6750  174.8570  137.8780 N   0  0  0  0  0  2  0  0  0  0  0  0
  195.3740  173.0620  138.8840 O   0  0  0  0  0  0  0  0  0  0  0  0
  195.5400  175.4640  139.8960 O   0  0  0  0  0  1  0  0  0  0  0  0
  195.2760  174.5250  138.5130 P   0  0  2  0  0  0  0  0  0  0  0  0
  197.5650  175.0630  138.0350 O   0  0  0  0  0  1  0  0  0  0  0  0
  196.4530  174.8950  137.3510 O   0  0  0  0  0  0  0  0  0  0  0  0
  1 10  1  0  0  0  0
  2  6  2  0  0  0  0
  3  8  1  0  0  0  0
  4 17  1  0  0  0  0
  6  5  1  0  0  0  0
  7 13  2  0  0  0  0
  8  2  1  1  0  0  0
  8  1  1  0  0  0  0
  9  4  2  0  0  0  0
  9 16  1  0  0  0  0
 10  5  2  0  0  0  0
 11 12  1  0  0  0  0
 12  1  2  0  0  0  0
 13  2  1  0  0  0  0
 14  4  1  0  0  0  0
 14 15  2  0  0  0  0
 15 18  1  0  0  0  0
 16  7  1  0  0  0  0
 17  7  1  0  0  0  0
 17  3  1  0  0  0  0
 18  3  1  0  0  0  0
 18 11  2  0  0  0  0
 19 25  2  0  0  0  0
 20 19  1  0  0  0  0
 20 22  1  0  0  0  0
 21 15  1  6  0  0  0
 21 23  1  0  0  0  0
 22 24  1  0  0  0  0
 24 21  1  0  0  0  0
 25 23  1  0  0  0  0
 26 16  1  0  0  0  0
 27 26  1  0  0  0  0
 28 27  1  0  0  0  0
 29 28  1  0  0  0  0
 29 32  1  0  0  0  0
 32 30  2  1  0  0  0
 32 31  1  0  0  0  0
 34 33  1  0  0  0  0
 34 32  1  0  0  0  0
M  END
>  <MODEL>
5

>  <REMARK>
 VINA RESULT:      -8.5      4.386      8.739
  Name = 
  7 active torsions:
  status: ('A' for Active; 'I' for Inactive)
    1  A    between atoms: C_3  and  C_13
    2  A    between atoms: C_3  and  C_17
    3  A    between atoms: C_12  and  C_28
    4  A    between atoms: C_13  and  N_33
    5  A    between atoms: O_14  and  P_34
    6  A    between atoms: C_17  and  N_29
    7  A    between atoms: N_33  and  P_34
                            x       y       z     vdW  Elec       q    Type
                         _______ _______ _______ _____ _____    ______ ____

>  <TORSDO>
F 7

$$$$
=
 OpenBabel11052414103D

 34 39  0  0  1  0  0  0  0  0999 V2000
  187.7420  178.2400  139.2180 C   0  0  0  0  0  0  0  0  0  0  0  0
  188.8040  177.8080  141.3890 C   0  0  0  0  0  0  0  0  0  0  0  0
  186.4440  178.3700  141.2390 N   0  0  0  0  0  0  0  0  0  0  0  0
  185.2510  178.3820  143.3160 C   0  0  0  0  0  0  0  0  0  0  0  0
  190.1020  177.6840  139.3400 C   0  0  0  0  0  3  0  0  0  0  0  0
  190.0240  177.5780  140.7440 C   0  0  0  0  0  3  0  0  0  0  0  0
  187.4420  177.9580  143.3110 C   0  0  0  0  0  0  0  0  0  0  0  0
  187.6860  178.1440  140.5990 C   0  0  0  0  0  0  0  0  0  0  0  0
  185.5990  178.0820  144.7500 C   0  0  0  0  0  3  0  0  0  0  0  0
  188.9640  178.0130  138.5760 C   0  0  0  0  0  2  0  0  0  0  0  0
  185.4240  178.7340  139.1690 N   0  0  0  0  0  0  0  0  0  0  0  0
  186.5960  178.5440  138.5380 N   0  0  0  0  0  0  0  0  0  0  0  0
  188.6650  177.7040  142.7550 N   0  0  0  0  0  0  0  0  0  0  0  0
  184.0930  178.6270  142.6960 C   0  0  0  0  0  3  0  0  0  0  0  0
  184.1350  178.7960  141.1930 C   0  0  0  0  0  0  0  0  0  0  0  0
  187.0660  177.8480  144.6830 N   0  0  0  0  0  0  0  0  0  0  0  0
  186.4080  178.2850  142.5520 N   0  0  0  0  0  0  0  0  0  0  0  0
  185.3200  178.6410  140.5290 C   0  0  0  0  0  0  0  0  0  0  0  0
  182.4400  177.0160  138.1280 C   0  0  0  0  0  3  0  0  0  0  0  0
  182.3030  178.2340  137.4440 O   0  0  0  0  0  0  0  0  0  0  0  0
  182.8770  179.1210  140.4430 C   0  0  2  0  0  3  0  0  0  0  0  0
  182.0820  179.4990  138.0640 C   0  0  0  0  0  2  0  0  0  0  0  0
  181.8990  177.9370  140.4030 C   0  0  0  0  0  2  0  0  0  0  0  0
  183.1730  179.7770  139.0900 C   0  0  0  0  0  2  0  0  0  0  0  0
  182.2910  176.8500  139.4470 C   0  0  0  0  0  3  0  0  0  0  0  0
  187.8310  177.1070  145.6750 C   0  0  0  0  0  2  0  0  0  0  0  0
  187.9060  177.8900  146.9740 C   0  0  0  0  0  2  0  0  0  0  0  0
  189.2690  177.7150  147.6120 C   0  0  0  0  0  2  0  0  0  0  0  0
  189.7680  176.3750  147.3540 N   0  0  0  0  0  2  0  0  0  0  0  0
  191.6800  177.4910  145.8650 O   0  0  0  0  0  0  0  0  0  0  0  0
  192.0870  175.0010  146.5420 O   0  0  0  0  0  1  0  0  0  0  0  0
  191.4800  176.5130  147.0020 P   0  0  2  0  0  0  0  0  0  0  0  0
  193.1820  176.1060  148.6440 O   0  0  0  0  0  1  0  0  0  0  0  0
  192.3160  177.0590  148.3720 O   0  0  0  0  0  0  0  0  0  0  0  0
  1  8  1  0  0  0  0
  2 13  1  0  0  0  0
  3 17  1  0  0  0  0
  4  9  2  0  0  0  0
  5  6  2  0  0  0  0
  6  2  1  0  0  0  0
  7 16  1  0  0  0  0
  8  3  1  0  0  0  0
  8  2  2  0  0  0  0
 10  1  1  0  0  0  0
 10  5  1  0  0  0  0
 11 18  2  0  0  0  0
 12 11  1  0  0  0  0
 12  1  2  0  0  0  0
 13  7  2  0  0  0  0
 14  4  1  0  0  0  0
 15 14  2  0  0  0  0
 16  9  1  0  0  0  0
 16 26  1  0  0  0  0
 17  7  1  0  0  0  0
 17  4  1  0  0  0  0
 18 15  1  0  0  0  0
 18  3  1  0  0  0  0
 19 25  2  0  0  0  0
 20 22  1  0  0  0  0
 20 19  1  0  0  0  0
 21 15  1  6  0  0  0
 22 24  1  0  0  0  0
 23 21  1  0  0  0  0
 24 21  1  0  0  0  0
 25 23  1  0  0  0  0
 26 27  1  0  0  0  0
 27 28  1  0  0  0  0
 29 28  1  0  0  0  0
 31 32  1  0  0  0  0
 32 30  2  6  0  0  0
 32 29  1  0  0  0  0
 32 34  1  0  0  0  0
 34 33  1  0  0  0  0
M  END
>  <MODEL>
6

>  <REMARK>
 VINA RESULT:      -8.5      5.021      7.578
  Name = 
  7 active torsions:
  status: ('A' for Active; 'I' for Inactive)
    1  A    between atoms: C_3  and  C_13
    2  A    between atoms: C_3  and  C_17
    3  A    between atoms: C_12  and  C_28
    4  A    between atoms: C_13  and  N_33
    5  A    between atoms: O_14  and  P_34
    6  A    between atoms: C_17  and  N_29
    7  A    between atoms: N_33  and  P_34
                            x       y       z     vdW  Elec       q    Type
                         _______ _______ _______ _____ _____    ______ ____

>  <TORSDO>
F 7

$$$$
=
 OpenBabel11052414103D

 34 39  0  0  1  0  0  0  0  0999 V2000
  188.7530  178.0450  139.1430 C   0  0  0  0  0  0  0  0  0  0  0  0
  189.0430  177.7130  141.5590 C   0  0  0  0  0  0  0  0  0  0  0  0
  186.8820  178.3250  140.6290 N   0  0  0  0  0  0  0  0  0  0  0  0
  185.0880  178.4880  142.2070 C   0  0  0  0  0  0  0  0  0  0  0  0
  190.9230  177.4380  140.0460 C   0  0  0  0  0  3  0  0  0  0  0  0
  190.3950  177.4160  141.3530 C   0  0  0  0  0  3  0  0  0  0  0  0
  187.1440  178.0090  142.9290 C   0  0  0  0  0  0  0  0  0  0  0  0
  188.2530  178.0310  140.4350 C   0  0  0  0  0  0  0  0  0  0  0  0
  184.9450  178.2630  143.6890 C   0  0  0  0  0  3  0  0  0  0  0  0
  190.1050  177.7500  138.9410 C   0  0  0  0  0  2  0  0  0  0  0  0
  186.5960  178.5920  138.3260 N   0  0  0  0  0  0  0  0  0  0  0  0
  187.9000  178.3360  138.1160 N   0  0  0  0  0  0  0  0  0  0  0  0
  188.4700  177.6930  142.8100 N   0  0  0  0  0  0  0  0  0  0  0  0
  184.2010  178.7250  141.2360 C   0  0  0  0  0  3  0  0  0  0  0  0
  184.7310  178.8050  139.8210 C   0  0  0  0  0  0  0  0  0  0  0  0
  186.3440  177.9890  144.1100 N   0  0  0  0  0  0  0  0  0  0  0  0
  186.4240  178.3170  141.8630 N   0  0  0  0  0  0  0  0  0  0  0  0
  186.0570  178.5820  139.5820 C   0  0  0  0  0  0  0  0  0  0  0  0
  180.8420  178.3410  139.5040 C   0  0  0  0  0  3  0  0  0  0  0  0
  180.9780  177.7060  138.2590 O   0  0  0  0  0  0  0  0  0  0  0  0
  183.7940  179.1170  138.6900 C   0  0  2  0  0  3  0  0  0  0  0  0
  181.9930  177.9950  137.3000 C   0  0  0  0  0  2  0  0  0  0  0  0
  182.6490  180.0450  139.1200 C   0  0  0  0  0  2  0  0  0  0  0  0
  183.3700  177.8520  137.9360 C   0  0  0  0  0  2  0  0  0  0  0  0
  181.5830  179.3690  139.9300 C   0  0  0  0  0  3  0  0  0  0  0  0
  186.7190  177.2890  145.3290 C   0  0  0  0  0  2  0  0  0  0  0  0
  187.4680  178.2220  146.2640 C   0  0  0  0  0  2  0  0  0  0  0  0
  188.7400  177.5620  146.7550 C   0  0  0  0  0  2  0  0  0  0  0  0
  189.2580  176.6670  145.7330 N   0  0  0  0  0  2  0  0  0  0  0  0
  190.9880  178.5170  144.8940 O   0  0  0  0  0  1  0  0  0  0  0  0
  191.6160  176.0470  144.3260 O   0  0  0  0  0  0  0  0  0  0  0  0
  190.9310  177.1120  145.4490 P   0  0  2  0  0  0  0  0  0  0  0  0
  192.1210  175.7690  147.0430 O   0  0  0  0  0  1  0  0  0  0  0  0
  191.8080  177.0390  146.8980 O   0  0  0  0  0  0  0  0  0  0  0  0
  1  8  1  0  0  0  0
  2 13  1  0  0  0  0
  3 17  1  0  0  0  0
  4  9  2  0  0  0  0
  5  6  2  0  0  0  0
  6  2  1  0  0  0  0
  7 16  1  0  0  0  0
  8  3  1  0  0  0  0
  8  2  2  0  0  0  0
  9 16  1  0  0  0  0
 10  1  1  0  0  0  0
 10  5  1  0  0  0  0
 11 18  2  0  0  0  0
 12 11  1  0  0  0  0
 12  1  2  0  0  0  0
 13  7  2  0  0  0  0
 14  4  1  0  0  0  0
 15 14  2  0  0  0  0
 16 26  1  0  0  0  0
 17  4  1  0  0  0  0
 17  7  1  0  0  0  0
 18 15  1  0  0  0  0
 18  3  1  0  0  0  0
 19 25  2  0  0  0  0
 20 19  1  0  0  0  0
 21 23  1  0  0  0  0
 21 15  1  1  0  0  0
 22 24  1  0  0  0  0
 22 20  1  0  0  0  0
 23 25  1  0  0  0  0
 24 21  1  0  0  0  0
 26 27  1  0  0  0  0
 27 28  1  0  0  0  0
 29 28  1  0  0  0  0
 30 32  1  0  0  0  0
 32 31  2  6  0  0  0
 32 29  1  0  0  0  0
 32 34  1  0  0  0  0
 34 33  1  0  0  0  0
M  END
>  <MODEL>
7

>  <REMARK>
 VINA RESULT:      -8.4      4.569      7.052
  Name = 
  7 active torsions:
  status: ('A' for Active; 'I' for Inactive)
    1  A    between atoms: C_3  and  C_13
    2  A    between atoms: C_3  and  C_17
    3  A    between atoms: C_12  and  C_28
    4  A    between atoms: C_13  and  N_33
    5  A    between atoms: O_14  and  P_34
    6  A    between atoms: C_17  and  N_29
    7  A    between atoms: N_33  and  P_34
                            x       y       z     vdW  Elec       q    Type
                         _______ _______ _______ _____ _____    ______ ____

>  <TORSDO>
F 7

$$$$
=
 OpenBabel11052414103D

 34 39  0  0  1  0  0  0  0  0999 V2000
  184.7860  178.5790  145.3220 C   0  0  0  0  0  0  0  0  0  0  0  0
  187.1640  178.0640  144.9960 C   0  0  0  0  0  0  0  0  0  0  0  0
  185.6860  178.4060  143.0970 N   0  0  0  0  0  0  0  0  0  0  0  0
  186.7270  178.2900  140.9440 C   0  0  0  0  0  0  0  0  0  0  0  0
  186.2400  178.2380  147.2350 C   0  0  0  0  0  3  0  0  0  0  0  0
  187.3400  178.0110  146.3830 C   0  0  0  0  0  3  0  0  0  0  0  0
  187.9480  177.9190  142.7740 C   0  0  0  0  0  0  0  0  0  0  0  0
  185.8740  178.3420  144.4990 C   0  0  2  0  0  3  0  0  0  0  0  0
  188.1330  178.0840  140.4470 C   0  0  0  0  0  3  0  0  0  0  0  0
  184.9640  178.5240  146.7080 C   0  0  0  0  0  3  0  0  0  0  0  0
  183.4340  178.9450  143.4090 N   0  0  0  0  0  0  0  0  0  0  0  0
  183.5820  178.8700  144.7440 N   0  0  0  0  0  0  0  0  0  0  0  0
  188.2050  177.8650  144.1170 N   0  0  0  0  0  0  0  0  0  0  0  0
  185.5870  178.6220  140.3300 C   0  0  0  0  0  3  0  0  0  0  0  0
  184.3680  178.8290  141.2010 C   0  0  0  0  0  0  0  0  0  0  0  0
  188.8810  177.8060  141.7010 N   0  0  0  0  0  0  0  0  0  0  0  0
  186.7270  178.1690  142.3280 N   0  0  0  0  0  0  0  0  0  0  0  0
  184.4820  178.7260  142.5590 C   0  0  0  0  0  0  0  0  0  0  0  0
  182.3900  177.0450  138.3130 C   0  0  0  0  0  3  0  0  0  0  0  0
  182.1940  178.2620  137.6400 O   0  0  0  0  0  0  0  0  0  0  0  0
  183.0460  179.1560  140.5690 C   0  0  2  0  0  3  0  0  0  0  0  0
  182.0360  179.5300  138.2730 C   0  0  0  0  0  2  0  0  0  0  0  0
  182.0650  177.9770  140.6240 C   0  0  0  0  0  2  0  0  0  0  0  0
  183.2180  179.8070  139.1920 C   0  0  0  0  0  2  0  0  0  0  0  0
  182.3630  176.8850  139.6400 C   0  0  0  0  0  3  0  0  0  0  0  0
  190.3190  177.9660  141.8590 C   0  0  0  0  0  2  0  0  0  0  0  0
  191.0490  176.7780  141.2580 C   0  0  0  0  0  2  0  0  0  0  0  0
  191.4920  177.0960  139.8440 C   0  0  0  0  0  2  0  0  0  0  0  0
  190.7490  176.2790  138.8980 N   0  0  0  0  0  2  0  0  0  0  0  0
  191.5620  176.3070  136.3570 O   0  0  0  0  0  0  0  0  0  0  0  0
  191.7810  174.0130  137.5850 O   0  0  0  0  0  1  0  0  0  0  0  0
  191.8920  175.6980  137.7010 P   0  0  2  0  0  0  0  0  0  0  0  0
  193.9520  176.7750  137.1050 O   0  0  0  0  0  1  0  0  0  0  0  0
  193.4710  176.1260  138.1440 O   0  0  0  0  0  0  0  0  0  0  0  0
  1 10  1  0  0  0  0
  2  6  2  0  0  0  0
  3  8  1  0  0  0  0
  4 17  1  0  0  0  0
  6  5  1  0  0  0  0
  7 13  2  0  0  0  0
  8  2  1  1  0  0  0
  8  1  1  0  0  0  0
  9  4  2  0  0  0  0
  9 16  1  0  0  0  0
 10  5  2  0  0  0  0
 11 12  1  0  0  0  0
 12  1  2  0  0  0  0
 13  2  1  0  0  0  0
 14  4  1  0  0  0  0
 14 15  2  0  0  0  0
 15 18  1  0  0  0  0
 16 26  1  0  0  0  0
 16  7  1  0  0  0  0
 17  7  1  0  0  0  0
 17  3  1  0  0  0  0
 18  3  1  0  0  0  0
 18 11  2  0  0  0  0
 19 25  2  0  0  0  0
 20 22  1  0  0  0  0
 20 19  1  0  0  0  0
 21 23  1  0  0  0  0
 21 15  1  6  0  0  0
 22 24  1  0  0  0  0
 24 21  1  0  0  0  0
 25 23  1  0  0  0  0
 27 26  1  0  0  0  0
 28 27  1  0  0  0  0
 29 28  1  0  0  0  0
 31 32  1  0  0  0  0
 32 30  2  6  0  0  0
 32 34  1  0  0  0  0
 32 29  1  0  0  0  0
 33 34  1  0  0  0  0
M  END
>  <MODEL>
8

>  <REMARK>
 VINA RESULT:      -8.3      3.523      7.811
  Name = 
  7 active torsions:
  status: ('A' for Active; 'I' for Inactive)
    1  A    between atoms: C_3  and  C_13
    2  A    between atoms: C_3  and  C_17
    3  A    between atoms: C_12  and  C_28
    4  A    between atoms: C_13  and  N_33
    5  A    between atoms: O_14  and  P_34
    6  A    between atoms: C_17  and  N_29
    7  A    between atoms: N_33  and  P_34
                            x       y       z     vdW  Elec       q    Type
                         _______ _______ _______ _____ _____    ______ ____

>  <TORSDO>
F 7

$$$$
=
 OpenBabel11052414103D

 34 39  0  0  1  0  0  0  0  0999 V2000
  189.5730  177.3810  145.1540 C   0  0  0  0  0  0  0  0  0  0  0  0
  187.2370  177.7860  145.7930 C   0  0  0  0  0  0  0  0  0  0  0  0
  187.9590  178.0060  143.4830 N   0  0  0  0  0  0  0  0  0  0  0  0
  186.2360  178.5500  141.9110 C   0  0  0  0  0  0  0  0  0  0  0  0
  188.8790  177.1580  147.4690 C   0  0  0  0  0  3  0  0  0  0  0  0
  187.5540  177.4980  147.1250 C   0  0  0  0  0  3  0  0  0  0  0  0
  185.7330  178.3920  144.0780 C   0  0  0  0  0  0  0  0  0  0  0  0
  188.2700  177.7260  144.8350 C   0  0  2  0  0  3  0  0  0  0  0  0
  184.7480  178.7650  141.9880 C   0  0  0  0  0  3  0  0  0  0  0  0
  189.8880  177.0960  146.4860 C   0  0  0  0  0  3  0  0  0  0  0  0
  190.1710  177.5730  142.8680 N   0  0  0  0  0  0  0  0  0  0  0  0
  190.4960  177.3220  144.1490 N   0  0  0  0  0  0  0  0  0  0  0  0
  185.9590  178.1100  145.3980 N   0  0  0  0  0  0  0  0  0  0  0  0
  187.0870  178.4540  140.8840 C   0  0  0  0  0  3  0  0  0  0  0  0
  188.5300  178.1370  141.2100 C   0  0  0  0  0  0  0  0  0  0  0  0
  184.4860  178.6850  143.4490 N   0  0  0  0  0  0  0  0  0  0  0  0
  186.7190  178.3420  143.1970 N   0  0  0  0  0  0  0  0  0  0  0  0
  188.8960  177.9090  142.5060 C   0  0  0  0  0  0  0  0  0  0  0  0
  188.3400  176.4850  137.6500 C   0  0  0  0  0  3  0  0  0  0  0  0
  189.5680  175.8310  137.8430 O   0  0  0  0  0  0  0  0  0  0  0  0
  189.5450  178.0630  140.1060 C   0  0  2  0  0  3  0  0  0  0  0  0
  190.6560  176.3460  138.6070 C   0  0  0  0  0  2  0  0  0  0  0  0
  189.0090  178.6260  138.7820 C   0  0  0  0  0  2  0  0  0  0  0  0
  190.1940  176.6780  140.0200 C   0  0  0  0  0  2  0  0  0  0  0  0
  188.0480  177.7180  138.0740 C   0  0  0  0  0  3  0  0  0  0  0  0
  183.1910  178.3900  144.0420 C   0  0  0  0  0  2  0  0  0  0  0  0
  182.1600  179.4100  143.5900 C   0  0  0  0  0  2  0  0  0  0  0  0
  180.8710  178.7140  143.2010 C   0  0  0  0  0  2  0  0  0  0  0  0
  180.3860  179.2440  141.9370 N   0  0  0  0  0  2  0  0  0  0  0  0
  179.3630  178.3320  139.6470 O   0  0  0  0  0  0  0  0  0  0  0  0
  179.3060  176.6610  141.6530 O   0  0  0  0  0  1  0  0  0  0  0  0
  180.1590  177.8840  140.8530 P   0  0  2  0  0  0  0  0  0  0  0  0
  181.7830  177.6770  139.0980 O   0  0  0  0  0  1  0  0  0  0  0  0
  181.6610  177.2830  140.3480 O   0  0  0  0  0  0  0  0  0  0  0  0
  1 10  1  0  0  0  0
  2  6  2  0  0  0  0
  3  8  1  0  0  0  0
  4  9  2  0  0  0  0
  4 17  1  0  0  0  0
  6  5  1  0  0  0  0
  7 13  2  0  0  0  0
  8  1  1  6  0  0  0
  8  2  1  0  0  0  0
  9 16  1  0  0  0  0
 10  5  2  0  0  0  0
 11 12  1  0  0  0  0
 12  1  2  0  0  0  0
 13  2  1  0  0  0  0
 14 15  2  0  0  0  0
 14  4  1  0  0  0  0
 15 18  1  0  0  0  0
 16 26  1  0  0  0  0
 16  7  1  0  0  0  0
 17  3  1  0  0  0  0
 17  7  1  0  0  0  0
 18 11  2  0  0  0  0
 18  3  1  0  0  0  0
 19 20  1  0  0  0  0
 19 25  2  0  0  0  0
 20 22  1  0  0  0  0
 21 15  1  1  0  0  0
 22 24  1  0  0  0  0
 23 21  1  0  0  0  0
 24 21  1  0  0  0  0
 25 23  1  0  0  0  0
 27 26  1  0  0  0  0
 28 27  1  0  0  0  0
 29 28  1  0  0  0  0
 32 30  2  6  0  0  0
 32 31  1  0  0  0  0
 32 29  1  0  0  0  0
 33 34  1  0  0  0  0
 34 32  1  0  0  0  0
M  END
>  <MODEL>
9

>  <REMARK>
 VINA RESULT:      -8.2      1.333      1.728
  Name = 
  7 active torsions:
  status: ('A' for Active; 'I' for Inactive)
    1  A    between atoms: C_3  and  C_13
    2  A    between atoms: C_3  and  C_17
    3  A    between atoms: C_12  and  C_28
    4  A    between atoms: C_13  and  N_33
    5  A    between atoms: O_14  and  P_34
    6  A    between atoms: C_17  and  N_29
    7  A    between atoms: N_33  and  P_34
                            x       y       z     vdW  Elec       q    Type
                         _______ _______ _______ _____ _____    ______ ____

>  <TORSDO>
F 7

$$$$
