=
 OpenBabel11052416173D

 43 49  0  0  1  0  0  0  0  0999 V2000
  191.1770  176.7490  147.0180 C   0  0  0  0  0  0  0  0  0  0  0  0
  187.2330  177.7970  144.0660 C   0  0  0  0  0  0  0  0  0  0  0  0
  188.1340  177.6610  141.3160 C   0  0  1  0  0  3  0  0  0  0  0  0
  188.9640  177.2500  146.1760 C   0  0  0  0  0  0  0  0  0  0  0  0
  191.6790  176.7680  145.7120 C   0  0  0  0  0  3  0  0  0  0  0  0
  192.0260  176.4910  148.0840 O   0  0  0  0  0  1  0  0  0  0  0  0
  189.4650  177.2730  144.8570 C   0  0  0  0  0  0  0  0  0  0  0  0
  189.8190  176.9890  147.2490 C   0  0  0  0  0  3  0  0  0  0  0  0
  190.8280  177.0290  144.6350 C   0  0  0  0  0  3  0  0  0  0  0  0
  189.0610  177.5650  142.4400 N   0  0  0  0  0  2  0  0  0  0  0  0
  188.5890  177.5320  143.7920 C   0  0  0  0  0  0  0  0  0  0  0  0
  186.7800  177.7470  145.3510 N   0  0  0  0  0  0  0  0  0  0  0  0
  186.2640  178.0500  142.9360 C   0  0  2  0  0  3  0  0  0  0  0  0
  186.9800  178.5890  141.6940 C   0  0  0  0  0  2  0  0  0  0  0  0
  187.6070  177.4860  146.3970 C   0  0  0  0  0  3  0  0  0  0  0  0
  188.8590  178.1680  140.0680 C   0  0  1  0  0  3  0  0  0  0  0  0
  190.2200  177.5100  139.9400 C   0  0  0  0  0  2  0  0  0  0  0  0
  188.1120  177.7440  138.8200 C   0  0  0  0  0  2  0  0  0  0  0  0
  190.0880  176.4000  139.0100 N   0  0  0  0  0  0  0  0  0  0  0  0
  189.0410  176.8010  138.0840 C   0  0  0  0  0  2  0  0  0  0  0  0
  191.3280  176.3320  138.2540 C   0  0  0  0  0  2  0  0  0  0  0  0
  191.1900  175.3300  137.1120 C   0  0  2  0  0  3  0  0  0  0  0  0
  192.4790  174.0980  135.6430 O   0  0  0  0  0  0  0  0  0  0  0  0
  191.2150  174.0290  137.5920 O   0  0  0  0  0  0  0  0  0  0  0  0
  192.2980  175.4060  136.0950 C   0  0  1  0  0  0  0  0  0  0  0  0
  191.8630  176.3040  134.9480 C   0  0  0  0  0  1  0  0  0  0  0  0
  191.7270  173.2870  136.5160 C   0  0  0  0  0  2  0  0  0  0  0  0
  193.5130  175.8890  136.6860 O   0  0  0  0  0  0  0  0  0  0  0  0
  194.6110  175.0900  137.0370 C   0  0  0  0  0  0  0  0  0  0  0  0
  196.7360  174.0240  136.5290 C   0  0  0  0  0  3  0  0  0  0  0  0
  195.7340  173.7380  138.7120 C   0  0  0  0  0  3  0  0  0  0  0  0
  196.7730  173.4800  137.8150 C   0  0  0  0  0  3  0  0  0  0  0  0
  194.6570  174.5410  138.3240 C   0  0  0  0  0  3  0  0  0  0  0  0
  195.6590  174.8260  136.1400 C   0  0  0  0  0  3  0  0  0  0  0  0
  185.2330  178.9940  143.3530 N   0  0  0  0  0  2  0  0  0  0  0  0
  182.1100  178.4580  141.3580 C   0  0  0  0  0  3  0  0  0  0  0  0
  181.1390  178.6090  142.3530 C   0  0  0  0  0  0  0  0  0  0  0  0
  182.8780  179.0240  143.9860 C   0  0  0  0  0  3  0  0  0  0  0  0
  183.4640  178.5830  141.6800 C   0  0  0  0  0  3  0  0  0  0  0  0
  183.8540  178.8680  142.9970 C   0  0  0  0  0  0  0  0  0  0  0  0
  181.5230  178.8990  143.6650 C   0  0  0  0  0  3  0  0  0  0  0  0
  178.9310  178.4860  143.1720 O   0  0  0  0  0  1  0  0  0  0  0  0
  179.6960  178.5000  142.0070 C   0  0  0  0  0  2  0  0  0  0  0  0
  1  8  1  0  0  0  0
  1  6  1  0  0  0  0
  2 12  1  0  0  0  0
  3 14  1  1  0  0  0
  3 10  1  0  0  0  0
  4 15  1  0  0  0  0
  4  8  2  0  0  0  0
  5  1  2  0  0  0  0
  7  4  1  0  0  0  0
  9  7  2  0  0  0  0
  9  5  1  0  0  0  0
 10 11  1  0  0  0  0
 11  2  2  0  0  0  0
 11  7  1  0  0  0  0
 12 15  2  0  0  0  0
 13 35  1  1  0  0  0
 13  2  1  0  0  0  0
 14 13  1  0  0  0  0
 16 18  1  6  0  0  0
 16  3  1  0  0  0  0
 17 16  1  0  0  0  0
 19 17  1  0  0  0  0
 20 18  1  0  0  0  0
 20 19  1  0  0  0  0
 21 19  1  0  0  0  0
 22 24  1  0  0  0  0
 22 21  1  1  0  0  0
 23 25  1  0  0  0  0
 23 27  1  0  0  0  0
 25 26  1  6  0  0  0
 25 28  1  0  0  0  0
 25 22  1  0  0  0  0
 27 24  1  0  0  0  0
 28 29  1  0  0  0  0
 29 33  1  0  0  0  0
 30 32  2  0  0  0  0
 32 31  1  0  0  0  0
 33 31  2  0  0  0  0
 34 30  1  0  0  0  0
 34 29  2  0  0  0  0
 36 39  2  0  0  0  0
 36 37  1  0  0  0  0
 37 41  2  0  0  0  0
 39 40  1  0  0  0  0
 40 35  1  0  0  0  0
 40 38  2  0  0  0  0
 41 38  1  0  0  0  0
 43 37  1  0  0  0  0
 43 42  1  0  0  0  0
M  END
>  <MODEL>
1

>  <REMARK>
 VINA RESULT:     -10.5      0.000      0.000
  Name = 
  8 active torsions:
  status: ('A' for Active; 'I' for Inactive)
    1  A    between atoms: N_1  and  C_34
    2  A    between atoms: N_1  and  C_35
    3  A    between atoms: C_2  and  C_13
    4  A    between atoms: C_3  and  C_4
    5  A    between atoms: C_3  and  N_12
    6  A    between atoms: C_11  and  O_14
    7  A    between atoms: O_14  and  C_22
    8  A    between atoms: C_19  and  C_37
                            x       y       z     vdW  Elec       q    Type
                         _______ _______ _______ _____ _____    ______ ____

>  <TORSDO>
F 8

$$$$
=
 OpenBabel11052416173D

 43 49  0  0  1  0  0  0  0  0999 V2000
  191.3570  176.5660  146.7250 C   0  0  0  0  0  0  0  0  0  0  0  0
  188.1210  177.7140  143.0400 C   0  0  0  0  0  0  0  0  0  0  0  0
  189.3760  177.0190  140.5220 C   0  0  1  0  0  3  0  0  0  0  0  0
  189.4080  177.2520  145.4650 C   0  0  0  0  0  0  0  0  0  0  0  0
  192.0390  176.3070  145.5320 C   0  0  0  0  0  3  0  0  0  0  0  0
  191.9850  176.3550  147.9440 O   0  0  0  0  0  1  0  0  0  0  0  0
  190.0920  176.9940  144.2570 C   0  0  0  0  0  0  0  0  0  0  0  0
  190.0400  177.0370  146.6910 C   0  0  0  0  0  3  0  0  0  0  0  0
  191.4100  176.5200  144.3020 C   0  0  0  0  0  3  0  0  0  0  0  0
  190.1000  176.9630  141.7890 N   0  0  0  0  0  2  0  0  0  0  0  0
  189.4380  177.2110  143.0350 C   0  0  0  0  0  0  0  0  0  0  0  0
  187.4850  177.9310  144.2250 N   0  0  0  0  0  0  0  0  0  0  0  0
  187.3850  177.9280  141.7390 C   0  0  2  0  0  3  0  0  0  0  0  0
  188.3560  178.1550  140.5760 C   0  0  0  0  0  2  0  0  0  0  0  0
  188.0940  177.7180  145.4210 C   0  0  0  0  0  3  0  0  0  0  0  0
  190.3510  177.2120  139.3600 C   0  0  1  0  0  3  0  0  0  0  0  0
  191.2440  175.9960  139.2070 C   0  0  0  0  0  2  0  0  0  0  0  0
  189.5940  177.2960  138.0500 C   0  0  0  0  0  2  0  0  0  0  0  0
  190.6770  175.1610  138.1600 N   0  0  0  0  0  0  0  0  0  0  0  0
  190.0210  176.0840  137.2490 C   0  0  0  0  0  2  0  0  0  0  0  0
  191.7920  174.5670  137.4420 C   0  0  0  0  0  2  0  0  0  0  0  0
  192.9490  175.5590  137.3570 C   0  0  2  0  0  3  0  0  0  0  0  0
  195.1040  175.7330  136.5450 O   0  0  0  0  0  0  0  0  0  0  0  0
  192.8780  176.2980  136.1850 O   0  0  0  0  0  0  0  0  0  0  0  0
  194.3090  174.9120  137.3450 C   0  0  1  0  0  0  0  0  0  0  0  0
  194.8550  174.8710  138.7630 C   0  0  0  0  0  1  0  0  0  0  0  0
  194.2160  176.6340  135.9240 C   0  0  0  0  0  2  0  0  0  0  0  0
  194.2520  173.5930  136.7840 O   0  0  0  0  0  0  0  0  0  0  0  0
  195.3020  172.6630  136.8050 C   0  0  0  0  0  0  0  0  0  0  0  0
  197.4860  171.8790  136.0800 C   0  0  0  0  0  3  0  0  0  0  0  0
  196.2060  170.5850  137.6740 C   0  0  0  0  0  3  0  0  0  0  0  0
  197.3580  170.7570  136.9020 C   0  0  0  0  0  3  0  0  0  0  0  0
  195.1820  171.5350  137.6250 C   0  0  0  0  0  3  0  0  0  0  0  0
  196.4610  172.8290  136.0300 C   0  0  0  0  0  3  0  0  0  0  0  0
  186.4810  179.0670  141.8490 N   0  0  0  0  0  2  0  0  0  0  0  0
  182.9560  178.9440  143.1070 C   0  0  0  0  0  3  0  0  0  0  0  0
  182.2630  178.7220  141.9130 C   0  0  0  0  0  0  0  0  0  0  0  0
  184.3590  178.7180  140.6990 C   0  0  0  0  0  3  0  0  0  0  0  0
  184.3490  179.0590  143.0950 C   0  0  0  0  0  3  0  0  0  0  0  0
  185.0560  178.9460  141.8890 C   0  0  0  0  0  0  0  0  0  0  0  0
  182.9650  178.6020  140.7100 C   0  0  0  0  0  3  0  0  0  0  0  0
  180.3900  177.6590  140.9530 O   0  0  0  0  0  1  0  0  0  0  0  0
  180.7830  178.5740  141.9280 C   0  0  0  0  0  2  0  0  0  0  0  0
  1  6  1  0  0  0  0
  2 12  1  0  0  0  0
  3 14  1  1  0  0  0
  3 10  1  0  0  0  0
  4  8  2  0  0  0  0
  5  1  2  0  0  0  0
  7  9  2  0  0  0  0
  7  4  1  0  0  0  0
  8  1  1  0  0  0  0
  9  5  1  0  0  0  0
 10 11  1  0  0  0  0
 11  2  2  0  0  0  0
 11  7  1  0  0  0  0
 12 15  2  0  0  0  0
 13 35  1  1  0  0  0
 13  2  1  0  0  0  0
 14 13  1  0  0  0  0
 15  4  1  0  0  0  0
 16 18  1  6  0  0  0
 16  3  1  0  0  0  0
 17 16  1  0  0  0  0
 19 17  1  0  0  0  0
 20 18  1  0  0  0  0
 20 19  1  0  0  0  0
 21 19  1  0  0  0  0
 22 21  1  6  0  0  0
 23 25  1  0  0  0  0
 24 22  1  0  0  0  0
 25 22  1  0  0  0  0
 25 26  1  1  0  0  0
 27 24  1  0  0  0  0
 27 23  1  0  0  0  0
 28 29  1  0  0  0  0
 28 25  1  0  0  0  0
 29 33  1  0  0  0  0
 30 32  2  0  0  0  0
 32 31  1  0  0  0  0
 33 31  2  0  0  0  0
 34 30  1  0  0  0  0
 34 29  2  0  0  0  0
 35 40  1  0  0  0  0
 37 43  1  0  0  0  0
 37 36  2  0  0  0  0
 38 41  2  0  0  0  0
 38 40  1  0  0  0  0
 39 36  1  0  0  0  0
 40 39  2  0  0  0  0
 41 37  1  0  0  0  0
 42 43  1  0  0  0  0
M  END
>  <MODEL>
2

>  <REMARK>
 VINA RESULT:      -9.1      1.430      2.219
  Name = 
  8 active torsions:
  status: ('A' for Active; 'I' for Inactive)
    1  A    between atoms: N_1  and  C_34
    2  A    between atoms: N_1  and  C_35
    3  A    between atoms: C_2  and  C_13
    4  A    between atoms: C_3  and  C_4
    5  A    between atoms: C_3  and  N_12
    6  A    between atoms: C_11  and  O_14
    7  A    between atoms: O_14  and  C_22
    8  A    between atoms: C_19  and  C_37
                            x       y       z     vdW  Elec       q    Type
                         _______ _______ _______ _____ _____    ______ ____

>  <TORSDO>
F 8

$$$$
=
 OpenBabel11052416173D

 43 49  0  0  1  0  0  0  0  0999 V2000
  188.0880  177.6060  147.4930 C   0  0  0  0  0  0  0  0  0  0  0  0
  186.2780  178.2360  142.8360 C   0  0  0  0  0  0  0  0  0  0  0  0
  188.4280  177.6760  140.9750 C   0  0  1  0  0  3  0  0  0  0  0  0
  186.6550  177.9970  145.5840 C   0  0  0  0  0  0  0  0  0  0  0  0
  189.1800  177.4220  146.6380 C   0  0  0  0  0  3  0  0  0  0  0  0
  188.2580  177.5030  148.8660 O   0  0  0  0  0  1  0  0  0  0  0  0
  187.7520  177.8140  144.7150 C   0  0  0  0  0  0  0  0  0  0  0  0
  186.8260  177.8920  146.9660 C   0  0  0  0  0  3  0  0  0  0  0  0
  189.0140  177.5250  145.2540 C   0  0  0  0  0  3  0  0  0  0  0  0
  188.6500  177.7410  142.4170 N   0  0  0  0  0  2  0  0  0  0  0  0
  187.5600  177.9180  143.3300 C   0  0  0  0  0  0  0  0  0  0  0  0
  185.2370  178.3850  143.7030 N   0  0  0  0  0  0  0  0  0  0  0  0
  186.0380  178.3250  141.3480 C   0  0  2  0  0  3  0  0  0  0  0  0
  187.3260  178.6630  140.5910 C   0  0  0  0  0  2  0  0  0  0  0  0
  185.3980  178.2780  145.0480 C   0  0  0  0  0  3  0  0  0  0  0  0
  189.7240  177.9800  140.2230 C   0  0  1  0  0  3  0  0  0  0  0  0
  190.6300  176.7640  140.2100 C   0  0  0  0  0  2  0  0  0  0  0  0
  189.4290  178.2500  138.7610 C   0  0  0  0  0  2  0  0  0  0  0  0
  190.4390  176.0840  138.9400 N   0  0  0  0  0  0  0  0  0  0  0  0
  190.1040  177.1340  137.9920 C   0  0  0  0  0  2  0  0  0  0  0  0
  191.7320  175.5480  138.5480 C   0  0  0  0  0  2  0  0  0  0  0  0
  191.6440  174.9330  137.1540 C   0  0  2  0  0  3  0  0  0  0  0  0
  192.8440  173.5890  135.7090 O   0  0  0  0  0  0  0  0  0  0  0  0
  191.0710  173.6700  137.2090 O   0  0  0  0  0  0  0  0  0  0  0  0
  192.9790  174.7410  136.4850 C   0  0  1  0  0  0  0  0  0  0  0  0
  193.2710  175.9410  135.5980 C   0  0  0  0  0  1  0  0  0  0  0  0
  191.6230  173.0070  136.1020 C   0  0  0  0  0  2  0  0  0  0  0  0
  194.0240  174.5570  137.4520 O   0  0  0  0  0  0  0  0  0  0  0  0
  195.1390  173.7240  137.2840 C   0  0  0  0  0  0  0  0  0  0  0  0
  196.3160  171.6240  137.6230 C   0  0  0  0  0  3  0  0  0  0  0  0
  197.3690  173.4110  136.3760 C   0  0  0  0  0  3  0  0  0  0  0  0
  197.4080  172.1180  136.9050 C   0  0  0  0  0  3  0  0  0  0  0  0
  196.2370  174.2100  136.5650 C   0  0  0  0  0  3  0  0  0  0  0  0
  195.1850  172.4240  137.8130 C   0  0  0  0  0  3  0  0  0  0  0  0
  185.0240  179.3320  141.0570 N   0  0  0  0  0  2  0  0  0  0  0  0
  181.5330  178.1690  140.3600 C   0  0  0  0  0  3  0  0  0  0  0  0
  181.4060  178.5260  139.0130 C   0  0  0  0  0  0  0  0  0  0  0  0
  183.6660  179.3960  139.0310 C   0  0  0  0  0  3  0  0  0  0  0  0
  182.7240  178.4320  141.0420 C   0  0  0  0  0  3  0  0  0  0  0  0
  183.7970  179.0470  140.3790 C   0  0  0  0  0  0  0  0  0  0  0  0
  182.4750  179.1330  138.3480 C   0  0  0  0  0  3  0  0  0  0  0  0
  180.2870  178.5760  136.9380 O   0  0  0  0  0  1  0  0  0  0  0  0
  180.1470  178.2250  138.2800 C   0  0  0  0  0  2  0  0  0  0  0  0
  1  6  1  0  0  0  0
  2 11  2  0  0  0  0
  2 12  1  0  0  0  0
  3 14  1  6  0  0  0
  3 10  1  0  0  0  0
  4  8  2  0  0  0  0
  5  1  2  0  0  0  0
  7  9  2  0  0  0  0
  7  4  1  0  0  0  0
  8  1  1  0  0  0  0
  9  5  1  0  0  0  0
 10 11  1  0  0  0  0
 11  7  1  0  0  0  0
 12 15  2  0  0  0  0
 13 35  1  1  0  0  0
 13  2  1  0  0  0  0
 14 13  1  0  0  0  0
 15  4  1  0  0  0  0
 16 18  1  6  0  0  0
 16  3  1  0  0  0  0
 17 16  1  0  0  0  0
 19 17  1  0  0  0  0
 20 18  1  0  0  0  0
 20 19  1  0  0  0  0
 21 19  1  0  0  0  0
 22 24  1  0  0  0  0
 22 21  1  1  0  0  0
 23 27  1  0  0  0  0
 23 25  1  0  0  0  0
 25 26  1  6  0  0  0
 25 22  1  0  0  0  0
 25 28  1  0  0  0  0
 27 24  1  0  0  0  0
 29 28  1  0  0  0  0
 29 34  1  0  0  0  0
 30 34  2  0  0  0  0
 31 33  1  0  0  0  0
 31 32  2  0  0  0  0
 32 30  1  0  0  0  0
 33 29  2  0  0  0  0
 36 39  1  0  0  0  0
 37 36  2  0  0  0  0
 38 40  1  0  0  0  0
 40 39  2  0  0  0  0
 40 35  1  0  0  0  0
 41 37  1  0  0  0  0
 41 38  2  0  0  0  0
 42 43  1  0  0  0  0
 43 37  1  0  0  0  0
M  END
>  <MODEL>
3

>  <REMARK>
 VINA RESULT:      -9.0      1.818      2.470
  Name = 
  8 active torsions:
  status: ('A' for Active; 'I' for Inactive)
    1  A    between atoms: N_1  and  C_34
    2  A    between atoms: N_1  and  C_35
    3  A    between atoms: C_2  and  C_13
    4  A    between atoms: C_3  and  C_4
    5  A    between atoms: C_3  and  N_12
    6  A    between atoms: C_11  and  O_14
    7  A    between atoms: O_14  and  C_22
    8  A    between atoms: C_19  and  C_37
                            x       y       z     vdW  Elec       q    Type
                         _______ _______ _______ _____ _____    ______ ____

>  <TORSDO>
F 8

$$$$
=
 OpenBabel11052416173D

 43 49  0  0  1  0  0  0  0  0999 V2000
  189.7720  177.0310  135.9460 C   0  0  0  0  0  0  0  0  0  0  0  0
  189.3780  177.5140  140.9430 C   0  0  0  0  0  0  0  0  0  0  0  0
  186.6630  178.3380  141.5340 C   0  0  1  0  0  3  0  0  0  0  0  0
  190.1950  177.0230  138.3280 C   0  0  0  0  0  0  0  0  0  0  0  0
  188.4830  177.5220  136.1750 C   0  0  0  0  0  3  0  0  0  0  0  0
  190.2030  176.7920  134.6490 O   0  0  0  0  0  1  0  0  0  0  0  0
  188.8960  177.5190  138.5660 C   0  0  0  0  0  0  0  0  0  0  0  0
  190.6280  176.7800  137.0230 C   0  0  0  0  0  3  0  0  0  0  0  0
  188.0440  177.7650  137.4800 C   0  0  0  0  0  3  0  0  0  0  0  0
  187.1670  178.2570  140.1660 N   0  0  0  0  0  2  0  0  0  0  0  0
  188.4780  177.7520  139.8850 C   0  0  0  0  0  0  0  0  0  0  0  0
  190.6180  177.0150  140.6770 N   0  0  0  0  0  0  0  0  0  0  0  0
  188.9420  177.7280  142.3730 C   0  0  2  0  0  3  0  0  0  0  0  0
  187.8030  178.7470  142.4660 C   0  0  0  0  0  2  0  0  0  0  0  0
  191.0400  176.7720  139.4090 C   0  0  0  0  0  3  0  0  0  0  0  0
  185.5030  179.3310  141.6170 C   0  0  1  0  0  3  0  0  0  0  0  0
  184.4490  179.0050  140.5770 C   0  0  0  0  0  2  0  0  0  0  0  0
  184.7860  179.1880  142.9440 C   0  0  0  0  0  2  0  0  0  0  0  0
  183.4040  178.2360  141.2320 N   0  0  0  0  0  0  0  0  0  0  0  0
  183.3900  178.7070  142.6080 C   0  0  0  0  0  2  0  0  0  0  0  0
  182.1430  178.6340  140.6280 C   0  0  0  0  0  2  0  0  0  0  0  0
  181.4830  177.4340  139.9550 C   0  0  2  0  0  3  0  0  0  0  0  0
  181.2000  176.4800  137.8700 O   0  0  0  0  0  0  0  0  0  0  0  0
  182.3660  176.3660  139.8780 O   0  0  0  0  0  0  0  0  0  0  0  0
  181.0400  177.6950  138.5390 C   0  0  1  0  0  0  0  0  0  0  0  0
  179.5760  178.1050  138.5420 C   0  0  0  0  0  1  0  0  0  0  0  0
  181.9280  175.6540  138.7500 C   0  0  0  0  0  2  0  0  0  0  0  0
  181.8500  178.7030  137.9190 O   0  0  0  0  0  0  0  0  0  0  0  0
  181.3680  179.9060  137.3820 C   0  0  0  0  0  0  0  0  0  0  0  0
  180.3460  181.1980  135.5940 C   0  0  0  0  0  3  0  0  0  0  0  0
  180.9720  182.2840  137.6650 C   0  0  0  0  0  3  0  0  0  0  0  0
  180.4240  182.3500  136.3810 C   0  0  0  0  0  3  0  0  0  0  0  0
  181.4420  181.0650  138.1630 C   0  0  0  0  0  3  0  0  0  0  0  0
  180.8170  179.9800  136.0930 C   0  0  0  0  0  3  0  0  0  0  0  0
  190.0680  178.1800  143.1840 N   0  0  0  0  0  2  0  0  0  0  0  0
  192.0540  175.9850  145.4780 C   0  0  0  0  0  3  0  0  0  0  0  0
  191.3860  176.2040  146.6870 C   0  0  0  0  0  0  0  0  0  0  0  0
  189.8540  177.7090  145.5680 C   0  0  0  0  0  3  0  0  0  0  0  0
  191.6250  176.6340  144.3170 C   0  0  0  0  0  3  0  0  0  0  0  0
  190.5220  177.5000  144.3570 C   0  0  0  0  0  0  0  0  0  0  0  0
  190.2820  177.0600  146.7300 C   0  0  0  0  0  3  0  0  0  0  0  0
  193.0700  175.9790  148.3220 O   0  0  0  0  0  1  0  0  0  0  0  0
  191.8260  175.4950  147.9180 C   0  0  0  0  0  2  0  0  0  0  0  0
  1  5  2  0  0  0  0
  1  8  1  0  0  0  0
  2 13  1  0  0  0  0
  3 16  1  0  0  0  0
  3 14  1  1  0  0  0
  4  7  1  0  0  0  0
  4 15  1  0  0  0  0
  5  9  1  0  0  0  0
  6  1  1  0  0  0  0
  7 11  1  0  0  0  0
  8  4  2  0  0  0  0
  9  7  2  0  0  0  0
 10  3  1  0  0  0  0
 11 10  1  0  0  0  0
 11  2  2  0  0  0  0
 12  2  1  0  0  0  0
 13 14  1  0  0  0  0
 13 35  1  1  0  0  0
 15 12  2  0  0  0  0
 16 17  1  6  0  0  0
 16 18  1  0  0  0  0
 17 19  1  0  0  0  0
 19 20  1  0  0  0  0
 20 18  1  0  0  0  0
 21 19  1  0  0  0  0
 22 21  1  6  0  0  0
 23 25  1  0  0  0  0
 23 27  1  0  0  0  0
 24 22  1  0  0  0  0
 25 26  1  6  0  0  0
 25 22  1  0  0  0  0
 27 24  1  0  0  0  0
 28 25  1  0  0  0  0
 29 28  1  0  0  0  0
 29 33  1  0  0  0  0
 30 34  1  0  0  0  0
 30 32  2  0  0  0  0
 31 33  2  0  0  0  0
 32 31  1  0  0  0  0
 34 29  2  0  0  0  0
 35 40  1  0  0  0  0
 36 37  1  0  0  0  0
 37 41  2  0  0  0  0
 37 43  1  0  0  0  0
 38 41  1  0  0  0  0
 39 40  1  0  0  0  0
 39 36  2  0  0  0  0
 40 38  2  0  0  0  0
 43 42  1  0  0  0  0
M  END
>  <MODEL>
4

>  <REMARK>
 VINA RESULT:      -8.9      3.044     10.337
  Name = 
  8 active torsions:
  status: ('A' for Active; 'I' for Inactive)
    1  A    between atoms: N_1  and  C_34
    2  A    between atoms: N_1  and  C_35
    3  A    between atoms: C_2  and  C_13
    4  A    between atoms: C_3  and  C_4
    5  A    between atoms: C_3  and  N_12
    6  A    between atoms: C_11  and  O_14
    7  A    between atoms: O_14  and  C_22
    8  A    between atoms: C_19  and  C_37
                            x       y       z     vdW  Elec       q    Type
                         _______ _______ _______ _____ _____    ______ ____

>  <TORSDO>
F 8

$$$$
=
 OpenBabel11052416173D

 43 49  0  0  1  0  0  0  0  0999 V2000
  195.8320  173.2460  136.9710 C   0  0  0  0  0  0  0  0  0  0  0  0
  190.9550  174.4750  136.7050 C   0  0  0  0  0  0  0  0  0  0  0  0
  190.5390  176.7860  138.4020 C   0  0  1  0  0  3  0  0  0  0  0  0
  193.4850  173.3580  136.3900 C   0  0  0  0  0  0  0  0  0  0  0  0
  195.6600  174.2980  137.8760 C   0  0  0  0  0  3  0  0  0  0  0  0
  197.0820  172.6670  136.8090 O   0  0  0  0  0  1  0  0  0  0  0  0
  193.3050  174.4190  137.3040 C   0  0  0  0  0  0  0  0  0  0  0  0
  194.7450  172.7770  136.2270 C   0  0  0  0  0  3  0  0  0  0  0  0
  194.4020  174.8840  138.0430 C   0  0  0  0  0  3  0  0  0  0  0  0
  191.8110  176.0700  138.3680 N   0  0  0  0  0  2  0  0  0  0  0  0
  192.0330  174.9930  137.4500 C   0  0  0  0  0  0  0  0  0  0  0  0
  191.1710  173.4630  135.8170 N   0  0  0  0  0  0  0  0  0  0  0  0
  189.5830  175.0940  136.8220 C   0  0  2  0  0  3  0  0  0  0  0  0
  189.3980  175.7950  138.1710 C   0  0  0  0  0  2  0  0  0  0  0  0
  192.3960  172.8990  135.6500 C   0  0  0  0  0  3  0  0  0  0  0  0
  190.3710  177.5130  139.7370 C   0  0  1  0  0  3  0  0  0  0  0  0
  189.6130  176.6450  140.7230 C   0  0  0  0  0  2  0  0  0  0  0  0
  191.7230  177.7350  140.3850 C   0  0  0  0  0  2  0  0  0  0  0  0
  190.5900  175.9900  141.5780 N   0  0  0  0  0  0  0  0  0  0  0  0
  191.7060  176.9190  141.6610 C   0  0  0  0  0  2  0  0  0  0  0  0
  190.0030  175.9050  142.9050 C   0  0  0  0  0  2  0  0  0  0  0  0
  190.9440  176.5220  143.9350 C   0  0  2  0  0  3  0  0  0  0  0  0
  191.0240  177.0970  146.1710 O   0  0  0  0  0  0  0  0  0  0  0  0
  191.6840  175.5390  144.5770 O   0  0  0  0  0  0  0  0  0  0  0  0
  190.2390  177.2770  145.0310 C   0  0  1  0  0  0  0  0  0  0  0  0
  190.1770  178.7510  144.6620 C   0  0  0  0  0  1  0  0  0  0  0  0
  191.9620  176.1000  145.8340 C   0  0  0  0  0  2  0  0  0  0  0  0
  188.9230  176.7540  145.2590 O   0  0  0  0  0  0  0  0  0  0  0  0
  187.8410  177.4880  145.7670 C   0  0  0  0  0  0  0  0  0  0  0  0
  185.6960  178.6030  145.5060 C   0  0  0  0  0  3  0  0  0  0  0  0
  186.7910  178.5800  147.6640 C   0  0  0  0  0  3  0  0  0  0  0  0
  185.7150  178.9570  146.8580 C   0  0  0  0  0  3  0  0  0  0  0  0
  187.8510  177.8480  147.1200 C   0  0  0  0  0  3  0  0  0  0  0  0
  186.7560  177.8720  144.9620 C   0  0  0  0  0  3  0  0  0  0  0  0
  188.5510  174.0770  136.6560 N   0  0  0  0  0  2  0  0  0  0  0  0
  185.2180  175.7750  136.8110 C   0  0  0  0  0  3  0  0  0  0  0  0
  184.4210  174.7370  137.3040 C   0  0  0  0  0  0  0  0  0  0  0  0
  186.3590  173.2860  137.3750 C   0  0  0  0  0  3  0  0  0  0  0  0
  186.5820  175.5650  136.5930 C   0  0  0  0  0  3  0  0  0  0  0  0
  187.1590  174.3180  136.8750 C   0  0  0  0  0  0  0  0  0  0  0  0
  184.9940  173.4950  137.5920 C   0  0  0  0  0  3  0  0  0  0  0  0
  182.8000  175.5310  138.8210 O   0  0  0  0  0  1  0  0  0  0  0  0
  182.9740  174.9670  137.5580 C   0  0  0  0  0  2  0  0  0  0  0  0
  1  5  1  0  0  0  0
  2 13  1  0  0  0  0
  2 11  1  0  0  0  0
  3 14  1  1  0  0  0
  3 16  1  0  0  0  0
  4  7  1  0  0  0  0
  5  9  2  0  0  0  0
  6  1  1  0  0  0  0
  7 11  2  0  0  0  0
  7  9  1  0  0  0  0
  8  4  1  0  0  0  0
  8  1  2  0  0  0  0
 10  3  1  0  0  0  0
 11 10  1  0  0  0  0
 12  2  2  0  0  0  0
 13 35  1  1  0  0  0
 13 14  1  0  0  0  0
 15 12  1  0  0  0  0
 15  4  2  0  0  0  0
 16 18  1  1  0  0  0
 16 17  1  0  0  0  0
 17 19  1  0  0  0  0
 18 20  1  0  0  0  0
 19 20  1  0  0  0  0
 19 21  1  0  0  0  0
 22 21  1  6  0  0  0
 22 24  1  0  0  0  0
 22 25  1  0  0  0  0
 24 27  1  0  0  0  0
 25 26  1  6  0  0  0
 25 28  1  0  0  0  0
 25 23  1  0  0  0  0
 27 23  1  0  0  0  0
 28 29  1  0  0  0  0
 29 33  1  0  0  0  0
 30 32  2  0  0  0  0
 32 31  1  0  0  0  0
 33 31  2  0  0  0  0
 34 30  1  0  0  0  0
 34 29  2  0  0  0  0
 35 40  1  0  0  0  0
 36 37  1  0  0  0  0
 37 43  1  0  0  0  0
 37 41  2  0  0  0  0
 38 41  1  0  0  0  0
 39 36  2  0  0  0  0
 39 40  1  0  0  0  0
 40 38  2  0  0  0  0
 43 42  1  0  0  0  0
M  END
>  <MODEL>
5

>  <REMARK>
 VINA RESULT:      -8.9      3.208      9.212
  Name = 
  8 active torsions:
  status: ('A' for Active; 'I' for Inactive)
    1  A    between atoms: N_1  and  C_34
    2  A    between atoms: N_1  and  C_35
    3  A    between atoms: C_2  and  C_13
    4  A    between atoms: C_3  and  C_4
    5  A    between atoms: C_3  and  N_12
    6  A    between atoms: C_11  and  O_14
    7  A    between atoms: O_14  and  C_22
    8  A    between atoms: C_19  and  C_37
                            x       y       z     vdW  Elec       q    Type
                         _______ _______ _______ _____ _____    ______ ____

>  <TORSDO>
F 8

$$$$
=
 OpenBabel11052416173D

 43 49  0  0  1  0  0  0  0  0999 V2000
  189.4120  177.1320  135.9020 C   0  0  0  0  0  0  0  0  0  0  0  0
  189.1460  177.6210  140.9080 C   0  0  0  0  0  0  0  0  0  0  0  0
  186.4350  178.4010  141.5710 C   0  0  1  0  0  3  0  0  0  0  0  0
  189.9000  177.1360  138.2730 C   0  0  0  0  0  0  0  0  0  0  0  0
  188.1210  177.6020  136.1650 C   0  0  0  0  0  3  0  0  0  0  0  0
  189.8110  176.8970  134.5950 O   0  0  0  0  0  1  0  0  0  0  0  0
  188.6000  177.6120  138.5450 C   0  0  0  0  0  0  0  0  0  0  0  0
  190.3010  176.8980  136.9560 C   0  0  0  0  0  3  0  0  0  0  0  0
  187.7150  177.8420  137.4820 C   0  0  0  0  0  3  0  0  0  0  0  0
  186.9030  178.3250  140.1890 N   0  0  0  0  0  2  0  0  0  0  0  0
  188.2140  177.8410  139.8740 C   0  0  0  0  0  0  0  0  0  0  0  0
  190.3870  177.1410  140.6090 N   0  0  0  0  0  0  0  0  0  0  0  0
  188.7470  177.8310  142.3490 C   0  0  2  0  0  3  0  0  0  0  0  0
  187.5940  178.8320  142.4710 C   0  0  0  0  0  2  0  0  0  0  0  0
  190.7780  176.9020  139.3300 C   0  0  0  0  0  3  0  0  0  0  0  0
  185.2630  179.3760  141.6840 C   0  0  1  0  0  3  0  0  0  0  0  0
  184.4020  179.3180  140.4360 C   0  0  0  0  0  2  0  0  0  0  0  0
  184.3360  178.9530  142.8060 C   0  0  0  0  0  2  0  0  0  0  0  0
  183.2740  178.4440  140.7170 N   0  0  0  0  0  0  0  0  0  0  0  0
  183.0240  178.5920  142.1420 C   0  0  0  0  0  2  0  0  0  0  0  0
  182.1260  178.9960  140.0190 C   0  0  0  0  0  2  0  0  0  0  0  0
  181.2440  177.8700  139.4880 C   0  0  2  0  0  3  0  0  0  0  0  0
  181.2460  176.1870  137.9040 O   0  0  0  0  0  0  0  0  0  0  0  0
  181.5030  176.6830  140.1610 O   0  0  0  0  0  0  0  0  0  0  0  0
  181.4590  177.5610  138.0290 C   0  0  1  0  0  0  0  0  0  0  0  0
  180.4420  178.3290  137.2010 C   0  0  0  0  0  1  0  0  0  0  0  0
  181.1780  175.6920  139.2220 C   0  0  0  0  0  2  0  0  0  0  0  0
  182.7960  177.8850  137.6210 O   0  0  0  0  0  0  0  0  0  0  0  0
  183.6520  177.0290  136.9130 C   0  0  0  0  0  0  0  0  0  0  0  0
  185.2610  175.2090  136.8130 C   0  0  0  0  0  3  0  0  0  0  0  0
  184.5800  176.3330  134.7810 C   0  0  0  0  0  3  0  0  0  0  0  0
  185.3410  175.3550  135.4260 C   0  0  0  0  0  3  0  0  0  0  0  0
  183.7390  177.1670  135.5230 C   0  0  0  0  0  3  0  0  0  0  0  0
  184.4200  176.0440  137.5550 C   0  0  0  0  0  3  0  0  0  0  0  0
  189.8860  178.3030  143.1280 N   0  0  0  0  0  2  0  0  0  0  0  0
  190.1660  177.1810  146.6890 C   0  0  0  0  0  3  0  0  0  0  0  0
  191.2970  176.3610  146.6140 C   0  0  0  0  0  0  0  0  0  0  0  0
  191.4870  176.8430  144.2480 C   0  0  0  0  0  3  0  0  0  0  0  0
  189.6940  177.8260  145.5430 C   0  0  0  0  0  3  0  0  0  0  0  0
  190.3540  177.6590  144.3160 C   0  0  0  0  0  0  0  0  0  0  0  0
  191.9600  176.1980  145.3950 C   0  0  0  0  0  3  0  0  0  0  0  0
  193.2080  175.7000  147.8260 O   0  0  0  0  0  1  0  0  0  0  0  0
  191.8140  175.6940  147.8380 C   0  0  0  0  0  2  0  0  0  0  0  0
  1  5  2  0  0  0  0
  1  8  1  0  0  0  0
  2 13  1  0  0  0  0
  3 16  1  0  0  0  0
  3 14  1  1  0  0  0
  4  7  1  0  0  0  0
  4 15  1  0  0  0  0
  5  9  1  0  0  0  0
  6  1  1  0  0  0  0
  7 11  1  0  0  0  0
  8  4  2  0  0  0  0
  9  7  2  0  0  0  0
 10  3  1  0  0  0  0
 11 10  1  0  0  0  0
 11  2  2  0  0  0  0
 12  2  1  0  0  0  0
 13 14  1  0  0  0  0
 13 35  1  1  0  0  0
 15 12  2  0  0  0  0
 16 17  1  6  0  0  0
 16 18  1  0  0  0  0
 17 19  1  0  0  0  0
 19 20  1  0  0  0  0
 20 18  1  0  0  0  0
 21 19  1  0  0  0  0
 22 21  1  1  0  0  0
 22 24  1  0  0  0  0
 23 25  1  0  0  0  0
 23 27  1  0  0  0  0
 25 26  1  6  0  0  0
 25 22  1  0  0  0  0
 27 24  1  0  0  0  0
 28 25  1  0  0  0  0
 29 34  1  0  0  0  0
 29 28  1  0  0  0  0
 30 34  2  0  0  0  0
 31 32  2  0  0  0  0
 31 33  1  0  0  0  0
 32 30  1  0  0  0  0
 33 29  2  0  0  0  0
 35 40  1  0  0  0  0
 37 36  1  0  0  0  0
 37 43  1  0  0  0  0
 38 40  2  0  0  0  0
 38 41  1  0  0  0  0
 39 36  2  0  0  0  0
 40 39  1  0  0  0  0
 41 37  2  0  0  0  0
 42 43  1  0  0  0  0
M  END
>  <MODEL>
6

>  <REMARK>
 VINA RESULT:      -8.8      3.038      9.354
  Name = 
  8 active torsions:
  status: ('A' for Active; 'I' for Inactive)
    1  A    between atoms: N_1  and  C_34
    2  A    between atoms: N_1  and  C_35
    3  A    between atoms: C_2  and  C_13
    4  A    between atoms: C_3  and  C_4
    5  A    between atoms: C_3  and  N_12
    6  A    between atoms: C_11  and  O_14
    7  A    between atoms: O_14  and  C_22
    8  A    between atoms: C_19  and  C_37
                            x       y       z     vdW  Elec       q    Type
                         _______ _______ _______ _____ _____    ______ ____

>  <TORSDO>
F 8

$$$$
=
 OpenBabel11052416173D

 43 49  0  0  1  0  0  0  0  0999 V2000
  186.5380  177.8460  144.9010 C   0  0  0  0  0  0  0  0  0  0  0  0
  189.4970  177.1990  140.8770 C   0  0  0  0  0  0  0  0  0  0  0  0
  188.1190  178.3170  138.5850 C   0  0  1  0  0  3  0  0  0  0  0  0
  188.3780  177.3110  143.4230 C   0  0  0  0  0  0  0  0  0  0  0  0
  185.7940  178.3090  143.8100 C   0  0  0  0  0  3  0  0  0  0  0  0
  185.9930  177.8820  146.1760 O   0  0  0  0  0  1  0  0  0  0  0  0
  187.6330  177.7750  142.3180 C   0  0  0  0  0  0  0  0  0  0  0  0
  187.8300  177.3490  144.7070 C   0  0  0  0  0  3  0  0  0  0  0  0
  186.3390  178.2740  142.5230 C   0  0  0  0  0  3  0  0  0  0  0  0
  187.4760  178.1940  139.8910 N   0  0  0  0  0  2  0  0  0  0  0  0
  188.2030  177.7340  141.0370 C   0  0  0  0  0  0  0  0  0  0  0  0
  190.1950  176.7800  141.9700 N   0  0  0  0  0  0  0  0  0  0  0  0
  190.1440  177.1710  139.5130 C   0  0  2  0  0  3  0  0  0  0  0  0
  189.0960  177.1570  138.3950 C   0  0  0  0  0  2  0  0  0  0  0  0
  189.6680  176.8200  143.2220 C   0  0  0  0  0  3  0  0  0  0  0  0
  187.0690  178.3370  137.4740 C   0  0  1  0  0  3  0  0  0  0  0  0
  187.1920  177.1000  136.6050 C   0  0  0  0  0  2  0  0  0  0  0  0
  185.6780  178.2490  138.0670 C   0  0  0  0  0  2  0  0  0  0  0  0
  186.2070  176.1360  137.0660 N   0  0  0  0  0  0  0  0  0  0  0  0
  185.1060  176.9330  137.5820 C   0  0  0  0  0  2  0  0  0  0  0  0
  185.7170  175.4350  135.8910 C   0  0  0  0  0  2  0  0  0  0  0  0
  186.0230  173.9440  136.0050 C   0  0  2  0  0  3  0  0  0  0  0  0
  184.9960  171.8840  135.8150 O   0  0  0  0  0  0  0  0  0  0  0  0
  186.3920  173.4230  134.7730 O   0  0  0  0  0  0  0  0  0  0  0  0
  184.8530  173.1130  136.4610 C   0  0  1  0  0  0  0  0  0  0  0  0
  184.9310  172.9270  137.9680 C   0  0  0  0  0  1  0  0  0  0  0  0
  186.0110  172.0740  134.8560 C   0  0  0  0  0  2  0  0  0  0  0  0
  183.6080  173.7180  136.0860 O   0  0  0  0  0  0  0  0  0  0  0  0
  182.4270  173.6660  136.8420 C   0  0  0  0  0  0  0  0  0  0  0  0
  180.7970  174.6650  138.3430 C   0  0  0  0  0  3  0  0  0  0  0  0
  180.4950  172.3910  137.5730 C   0  0  0  0  0  3  0  0  0  0  0  0
  180.0550  173.4810  138.3280 C   0  0  0  0  0  3  0  0  0  0  0  0
  181.6780  172.4840  136.8330 C   0  0  0  0  0  3  0  0  0  0  0  0
  181.9800  174.7570  137.6030 C   0  0  0  0  0  3  0  0  0  0  0  0
  191.0080  176.0030  139.3850 N   0  0  0  0  0  2  0  0  0  0  0  0
  192.3390  174.3580  136.2960 C   0  0  0  0  0  3  0  0  0  0  0  0
  193.3690  175.2410  135.9570 C   0  0  0  0  0  0  0  0  0  0  0  0
  192.8370  176.6030  137.8870 C   0  0  0  0  0  3  0  0  0  0  0  0
  191.5540  174.6020  137.4260 C   0  0  0  0  0  3  0  0  0  0  0  0
  191.8010  175.7270  138.2270 C   0  0  0  0  0  0  0  0  0  0  0  0
  193.6220  176.3590  136.7560 C   0  0  0  0  0  3  0  0  0  0  0  0
  195.3200  174.1960  135.1410 O   0  0  0  0  0  1  0  0  0  0  0  0
  194.2200  174.9680  134.7680 C   0  0  0  0  0  2  0  0  0  0  0  0
  1  6  1  0  0  0  0
  2 11  2  0  0  0  0
  2 12  1  0  0  0  0
  3 14  1  6  0  0  0
  3 10  1  0  0  0  0
  4  8  2  0  0  0  0
  5  1  2  0  0  0  0
  7  9  2  0  0  0  0
  7  4  1  0  0  0  0
  8  1  1  0  0  0  0
  9  5  1  0  0  0  0
 10 11  1  0  0  0  0
 11  7  1  0  0  0  0
 12 15  2  0  0  0  0
 13 35  1  1  0  0  0
 13  2  1  0  0  0  0
 14 13  1  0  0  0  0
 15  4  1  0  0  0  0
 16 17  1  6  0  0  0
 16 18  1  0  0  0  0
 16  3  1  0  0  0  0
 17 19  1  0  0  0  0
 19 20  1  0  0  0  0
 20 18  1  0  0  0  0
 21 19  1  0  0  0  0
 22 21  1  6  0  0  0
 22 25  1  0  0  0  0
 23 25  1  0  0  0  0
 24 27  1  0  0  0  0
 24 22  1  0  0  0  0
 25 26  1  1  0  0  0
 27 23  1  0  0  0  0
 28 25  1  0  0  0  0
 28 29  1  0  0  0  0
 29 34  1  0  0  0  0
 31 32  2  0  0  0  0
 32 30  1  0  0  0  0
 33 29  2  0  0  0  0
 33 31  1  0  0  0  0
 34 30  2  0  0  0  0
 36 39  1  0  0  0  0
 37 36  2  0  0  0  0
 37 41  1  0  0  0  0
 38 40  1  0  0  0  0
 39 40  2  0  0  0  0
 40 35  1  0  0  0  0
 41 38  2  0  0  0  0
 43 42  1  0  0  0  0
 43 37  1  0  0  0  0
M  END
>  <MODEL>
7

>  <REMARK>
 VINA RESULT:      -8.5      3.906      9.214
  Name = 
  8 active torsions:
  status: ('A' for Active; 'I' for Inactive)
    1  A    between atoms: N_1  and  C_34
    2  A    between atoms: N_1  and  C_35
    3  A    between atoms: C_2  and  C_13
    4  A    between atoms: C_3  and  C_4
    5  A    between atoms: C_3  and  N_12
    6  A    between atoms: C_11  and  O_14
    7  A    between atoms: O_14  and  C_22
    8  A    between atoms: C_19  and  C_37
                            x       y       z     vdW  Elec       q    Type
                         _______ _______ _______ _____ _____    ______ ____

>  <TORSDO>
F 8

$$$$
=
 OpenBabel11052416173D

 43 49  0  0  1  0  0  0  0  0999 V2000
  185.7490  173.6780  135.5740 C   0  0  0  0  0  0  0  0  0  0  0  0
  190.6990  174.2240  136.3250 C   0  0  0  0  0  0  0  0  0  0  0  0
  191.0550  176.0580  138.5390 C   0  0  1  0  0  3  0  0  0  0  0  0
  188.1580  173.4740  135.4700 C   0  0  0  0  0  0  0  0  0  0  0  0
  185.8720  174.6410  136.5810 C   0  0  0  0  0  3  0  0  0  0  0  0
  184.4920  173.3000  135.1260 O   0  0  0  0  0  1  0  0  0  0  0  0
  188.2900  174.4470  136.4840 C   0  0  0  0  0  0  0  0  0  0  0  0
  186.8920  173.0930  135.0200 C   0  0  0  0  0  3  0  0  0  0  0  0
  187.1370  175.0250  137.0350 C   0  0  0  0  0  3  0  0  0  0  0  0
  189.7430  175.7980  137.9530 N   0  0  0  0  0  2  0  0  0  0  0  0
  189.5690  174.8130  136.9270 C   0  0  0  0  0  0  0  0  0  0  0  0
  190.5340  173.2720  135.3620 N   0  0  0  0  0  0  0  0  0  0  0  0
  192.0870  174.5780  136.8030 C   0  0  2  0  0  3  0  0  0  0  0  0
  192.1200  175.9670  137.4470 C   0  0  0  0  0  2  0  0  0  0  0  0
  189.3040  172.8940  134.9260 C   0  0  0  0  0  3  0  0  0  0  0  0
  191.0750  177.4320  139.2110 C   0  0  1  0  0  3  0  0  0  0  0  0
  189.6710  177.8520  139.6030 C   0  0  0  0  0  2  0  0  0  0  0  0
  191.8320  177.3630  140.5210 C   0  0  0  0  0  2  0  0  0  0  0  0
  189.4910  177.5330  141.0100 N   0  0  0  0  0  0  0  0  0  0  0  0
  190.8130  177.6600  141.6020 C   0  0  0  0  0  2  0  0  0  0  0  0
  188.6620  178.5810  141.5800 C   0  0  0  0  0  2  0  0  0  0  0  0
  187.4010  177.9780  142.1910 C   0  0  2  0  0  3  0  0  0  0  0  0
  186.3460  177.7130  144.2290 O   0  0  0  0  0  0  0  0  0  0  0  0
  186.3800  178.9170  142.2420 O   0  0  0  0  0  0  0  0  0  0  0  0
  187.5770  177.4970  143.6080 C   0  0  1  0  0  0  0  0  0  0  0  0
  187.9070  176.0130  143.5940 C   0  0  0  0  0  1  0  0  0  0  0  0
  185.5990  178.5000  143.3310 C   0  0  0  0  0  2  0  0  0  0  0  0
  188.6010  178.2390  144.2840 O   0  0  0  0  0  0  0  0  0  0  0  0
  189.4030  177.7430  145.3230 C   0  0  0  0  0  0  0  0  0  0  0  0
  189.7530  177.1080  147.6430 C   0  0  0  0  0  3  0  0  0  0  0  0
  191.5530  176.8750  146.0420 C   0  0  0  0  0  3  0  0  0  0  0  0
  191.0680  176.7420  147.3460 C   0  0  0  0  0  3  0  0  0  0  0  0
  190.7220  177.3740  145.0340 C   0  0  0  0  0  3  0  0  0  0  0  0
  188.9230  177.6070  146.6360 C   0  0  0  0  0  3  0  0  0  0  0  0
  193.0330  174.5320  135.6930 N   0  0  0  0  0  2  0  0  0  0  0  0
  196.6220  175.5930  135.5690 C   0  0  0  0  0  3  0  0  0  0  0  0
  197.2300  174.5250  136.2370 C   0  0  0  0  0  0  0  0  0  0  0  0
  195.0680  173.4740  136.5240 C   0  0  0  0  0  3  0  0  0  0  0  0
  195.2370  175.6030  135.3860 C   0  0  0  0  0  3  0  0  0  0  0  0
  194.4530  174.5420  135.8630 C   0  0  0  0  0  0  0  0  0  0  0  0
  196.4530  173.4630  136.7080 C   0  0  0  0  0  3  0  0  0  0  0  0
  199.0350  174.8810  137.7120 O   0  0  0  0  0  1  0  0  0  0  0  0
  198.7070  174.5020  136.4120 C   0  0  0  0  0  2  0  0  0  0  0  0
  1  5  1  0  0  0  0
  2 13  1  0  0  0  0
  2 11  1  0  0  0  0
  3 14  1  6  0  0  0
  3 16  1  0  0  0  0
  4  7  1  0  0  0  0
  5  9  2  0  0  0  0
  6  1  1  0  0  0  0
  7 11  2  0  0  0  0
  7  9  1  0  0  0  0
  8  4  1  0  0  0  0
  8  1  2  0  0  0  0
 10  3  1  0  0  0  0
 11 10  1  0  0  0  0
 12  2  2  0  0  0  0
 13 35  1  6  0  0  0
 13 14  1  0  0  0  0
 15 12  1  0  0  0  0
 15  4  2  0  0  0  0
 16 17  1  1  0  0  0
 16 18  1  0  0  0  0
 17 19  1  0  0  0  0
 18 20  1  0  0  0  0
 19 21  1  0  0  0  0
 19 20  1  0  0  0  0
 22 21  1  1  0  0  0
 22 24  1  0  0  0  0
 22 25  1  0  0  0  0
 24 27  1  0  0  0  0
 25 26  1  1  0  0  0
 25 23  1  0  0  0  0
 25 28  1  0  0  0  0
 27 23  1  0  0  0  0
 28 29  1  0  0  0  0
 29 34  1  0  0  0  0
 31 32  2  0  0  0  0
 32 30  1  0  0  0  0
 33 29  2  0  0  0  0
 33 31  1  0  0  0  0
 34 30  2  0  0  0  0
 35 40  1  0  0  0  0
 36 37  1  0  0  0  0
 37 43  1  0  0  0  0
 37 41  2  0  0  0  0
 38 41  1  0  0  0  0
 39 36  2  0  0  0  0
 39 40  1  0  0  0  0
 40 38  2  0  0  0  0
 43 42  1  0  0  0  0
M  END
>  <MODEL>
8

>  <REMARK>
 VINA RESULT:      -8.3      3.140     11.278
  Name = 
  8 active torsions:
  status: ('A' for Active; 'I' for Inactive)
    1  A    between atoms: N_1  and  C_34
    2  A    between atoms: N_1  and  C_35
    3  A    between atoms: C_2  and  C_13
    4  A    between atoms: C_3  and  C_4
    5  A    between atoms: C_3  and  N_12
    6  A    between atoms: C_11  and  O_14
    7  A    between atoms: O_14  and  C_22
    8  A    between atoms: C_19  and  C_37
                            x       y       z     vdW  Elec       q    Type
                         _______ _______ _______ _____ _____    ______ ____

>  <TORSDO>
F 8

$$$$
=
 OpenBabel11052416173D

 43 49  0  0  1  0  0  0  0  0999 V2000
  189.9760  172.0400  135.0030 C   0  0  0  0  0  0  0  0  0  0  0  0
  186.4070  175.4440  136.0220 C   0  0  0  0  0  0  0  0  0  0  0  0
  187.7090  177.7670  137.1640 C   0  0  1  0  0  3  0  0  0  0  0  0
  187.8780  173.2320  135.1920 C   0  0  0  0  0  0  0  0  0  0  0  0
  190.6360  173.0970  135.6390 C   0  0  0  0  0  3  0  0  0  0  0  0
  190.6890  170.9230  134.5940 O   0  0  0  0  0  1  0  0  0  0  0  0
  188.5380  174.3010  135.8360 C   0  0  0  0  0  0  0  0  0  0  0  0
  188.5970  172.1090  134.7790 C   0  0  0  0  0  3  0  0  0  0  0  0
  189.9200  174.2240  136.0540 C   0  0  0  0  0  3  0  0  0  0  0  0
  188.4330  176.5270  136.8970 N   0  0  0  0  0  2  0  0  0  0  0  0
  187.7990  175.4230  136.2390 C   0  0  0  0  0  0  0  0  0  0  0  0
  185.8070  174.4030  135.3790 N   0  0  0  0  0  0  0  0  0  0  0  0
  185.5930  176.6530  136.4200 C   0  0  2  0  0  3  0  0  0  0  0  0
  186.2680  177.4350  137.5510 C   0  0  0  0  0  2  0  0  0  0  0  0
  186.5040  173.3110  134.9690 C   0  0  0  0  0  3  0  0  0  0  0  0
  188.4040  178.5620  138.2700 C   0  0  1  0  0  3  0  0  0  0  0  0
  187.7830  178.2520  139.6180 C   0  0  0  0  0  2  0  0  0  0  0  0
  189.8470  178.1200  138.4050 C   0  0  0  0  0  2  0  0  0  0  0  0
  188.6140  177.2520  140.2690 N   0  0  0  0  0  0  0  0  0  0  0  0
  189.9610  177.5030  139.7830 C   0  0  0  0  0  2  0  0  0  0  0  0
  188.6060  177.5550  141.6900 C   0  0  0  0  0  2  0  0  0  0  0  0
  189.9620  177.2200  142.3050 C   0  0  2  0  0  3  0  0  0  0  0  0
  190.9150  176.5990  144.3150 O   0  0  0  0  0  0  0  0  0  0  0  0
  190.2160  175.8580  142.2260 O   0  0  0  0  0  0  0  0  0  0  0  0
  190.0730  177.5670  143.7660 C   0  0  1  0  0  0  0  0  0  0  0  0
  190.6980  178.9470  143.9050 C   0  0  0  0  0  1  0  0  0  0  0  0
  191.0650  175.6150  143.3170 C   0  0  0  0  0  2  0  0  0  0  0  0
  188.7920  177.5220  144.4100 O   0  0  0  0  0  0  0  0  0  0  0  0
  188.5760  177.6870  145.7860 C   0  0  0  0  0  0  0  0  0  0  0  0
  189.3410  177.6650  148.0940 C   0  0  0  0  0  3  0  0  0  0  0  0
  187.0450  178.2370  147.5880 C   0  0  0  0  0  3  0  0  0  0  0  0
  188.0650  178.0390  148.5220 C   0  0  0  0  0  3  0  0  0  0  0  0
  187.3010  178.0620  146.2240 C   0  0  0  0  0  3  0  0  0  0  0  0
  189.5970  177.4890  146.7300 C   0  0  0  0  0  3  0  0  0  0  0  0
  184.2550  176.2490  136.8380 N   0  0  0  0  0  2  0  0  0  0  0  0
  182.5380  177.0480  140.0690 C   0  0  0  0  0  3  0  0  0  0  0  0
  182.0290  178.3190  139.7830 C   0  0  0  0  0  0  0  0  0  0  0  0
  182.9820  178.2000  137.5600 C   0  0  0  0  0  3  0  0  0  0  0  0
  183.2750  176.3580  139.1020 C   0  0  0  0  0  3  0  0  0  0  0  0
  183.5000  176.9320  137.8420 C   0  0  0  0  0  0  0  0  0  0  0  0
  182.2450  178.8910  138.5260 C   0  0  0  0  0  3  0  0  0  0  0  0
  181.8250  178.9190  142.0540 O   0  0  0  0  0  1  0  0  0  0  0  0
  181.2240  179.0430  140.8020 C   0  0  0  0  0  2  0  0  0  0  0  0
  1  5  1  0  0  0  0
  2 11  1  0  0  0  0
  2 13  1  0  0  0  0
  3 14  1  1  0  0  0
  3 16  1  0  0  0  0
  4  7  1  0  0  0  0
  5  9  2  0  0  0  0
  6  1  1  0  0  0  0
  7  9  1  0  0  0  0
  7 11  2  0  0  0  0
  8  1  2  0  0  0  0
  8  4  1  0  0  0  0
 10  3  1  0  0  0  0
 11 10  1  0  0  0  0
 12  2  2  0  0  0  0
 13 35  1  1  0  0  0
 13 14  1  0  0  0  0
 15  4  2  0  0  0  0
 15 12  1  0  0  0  0
 16 18  1  1  0  0  0
 16 17  1  0  0  0  0
 17 19  1  0  0  0  0
 18 20  1  0  0  0  0
 19 21  1  0  0  0  0
 20 19  1  0  0  0  0
 22 21  1  1  0  0  0
 22 25  1  0  0  0  0
 24 22  1  0  0  0  0
 24 27  1  0  0  0  0
 25 26  1  1  0  0  0
 25 23  1  0  0  0  0
 25 28  1  0  0  0  0
 27 23  1  0  0  0  0
 28 29  1  0  0  0  0
 29 33  2  0  0  0  0
 29 34  1  0  0  0  0
 30 32  1  0  0  0  0
 31 32  2  0  0  0  0
 33 31  1  0  0  0  0
 34 30  2  0  0  0  0
 35 40  1  0  0  0  0
 37 36  1  0  0  0  0
 37 43  1  0  0  0  0
 38 40  2  0  0  0  0
 38 41  1  0  0  0  0
 39 36  2  0  0  0  0
 40 39  1  0  0  0  0
 41 37  2  0  0  0  0
 43 42  1  0  0  0  0
M  END
>  <MODEL>
9

>  <REMARK>
 VINA RESULT:      -8.2      3.281      8.567
  Name = 
  8 active torsions:
  status: ('A' for Active; 'I' for Inactive)
    1  A    between atoms: N_1  and  C_34
    2  A    between atoms: N_1  and  C_35
    3  A    between atoms: C_2  and  C_13
    4  A    between atoms: C_3  and  C_4
    5  A    between atoms: C_3  and  N_12
    6  A    between atoms: C_11  and  O_14
    7  A    between atoms: O_14  and  C_22
    8  A    between atoms: C_19  and  C_37
                            x       y       z     vdW  Elec       q    Type
                         _______ _______ _______ _____ _____    ______ ____

>  <TORSDO>
F 8

$$$$
